0
                    3D
 Structure written by MMmdl.
171179  0  0  1  0            999 V2000
  -30.7372  -14.3814   20.6685 C   0  0  0  0  0  0
  -30.4243  -12.3024   19.3741 C   0  0  0  0  0  0
  -29.4771  -12.5304   18.1800 C   0  0  0  0  0  0
  -28.0011  -12.3872   18.6018 C   0  0  0  0  0  0
  -27.6678  -13.1911   19.8856 C   0  0  2  0  0  0
  -28.7142  -12.8952   20.9831 C   0  0  0  0  0  0
  -25.2621  -13.8115   20.5675 C   0  0  0  0  0  0
  -24.1851  -13.0416   20.9176 C   0  0  0  0  0  0
  -24.6393  -11.6882   20.8742 C   0  0  0  0  0  0
  -23.9050  -10.4276   21.0411 C   0  0  0  0  0  0
  -24.3610   -9.4190   21.9182 C   0  0  0  0  0  0
  -23.6295   -8.2224   22.0753 C   0  0  0  0  0  0
  -22.4276   -8.0267   21.3541 C   0  0  0  0  0  0
  -21.9909   -9.0239   20.4645 C   0  0  0  0  0  0
  -22.7226  -10.2122   20.3057 C   0  0  0  0  0  0
  -21.6848   -6.0728   22.5274 C   0  0  0  0  0  0
  -21.4013   -6.5638   23.8208 C   0  0  0  0  0  0
  -21.3661   -5.6791   24.9169 C   0  0  0  0  0  0
  -21.6047   -4.3056   24.7221 C   0  0  0  0  0  0
  -21.8827   -3.8145   23.4341 C   0  0  0  0  0  0
  -21.9195   -4.6959   22.3397 C   0  0  0  0  0  0
  -22.7868  -13.5214   21.1829 C   0  0  0  0  0  0
  -22.1658   -4.2145   21.0972 F   0  0  0  0  0  0
  -21.5638   -3.4542   25.7733 F   0  0  0  0  0  0
  -30.0409  -13.2351   20.4437 N   0  0  0  0  0  0
  -26.3061  -12.9262   20.3440 N   0  0  0  0  0  0
  -25.9315  -11.6431   20.5788 N   0  0  0  0  0  0
  -22.0517  -12.8211   22.0403 N   0  0  0  0  0  0
  -25.4347  -15.1824   20.4044 N   0  0  0  0  0  0
  -31.8050  -14.6445   20.1111 O   0  0  0  0  0  0
  -21.6638   -6.8870   21.4237 O   0  0  0  0  0  0
  -22.3542  -14.5505   20.6665 O   0  0  0  0  0  0
  -24.6119  -31.8678   23.2103 C   0  0  0  0  0  0
  -25.9026  -32.4814   23.8394 C   0  0  1  0  0  0
  -27.2381  -27.4659   20.0930 C   0  0  0  0  0  0
  -25.5888  -33.8615   24.2322 N   0  0  0  0  0  0
  -23.3984  -30.4891   21.5502 C   0  0  2  0  0  0
  -24.8442  -28.9524   20.1212 C   0  0  0  0  0  0
  -22.7392  -29.4639   22.5002 C   0  0  0  0  0  0
  -18.0265  -28.1365   22.8474 C   0  0  0  0  0  0
  -24.1482  -36.7331   23.2637 C   0  0  0  0  0  0
  -25.9215  -30.8440   21.3549 C   0  0  0  0  0  0
  -26.0009  -29.4774   20.7099 C   0  0  0  0  0  0
  -27.2036  -28.7418   20.6901 C   0  0  0  0  0  0
  -26.0678  -26.9403   19.5074 C   0  0  0  0  0  0
  -24.8691  -27.6803   19.5202 C   0  0  0  0  0  0
  -23.6049  -29.8158   20.1666 C   0  0  0  0  0  0
  -25.4098  -36.3105   24.0331 C   0  0  1  0  0  0
  -20.5853  -28.3636   23.1324 C   0  0  2  0  0  0
  -20.6753  -26.9375   22.5413 C   0  0  0  0  0  0
  -19.5739  -26.6373   21.5197 C   0  0  0  0  0  0
  -18.1915  -26.7911   22.1608 C   0  0  0  0  0  0
  -19.1515  -28.8815   23.2893 C   0  0  0  0  0  0
  -18.9449  -30.1429   23.8893 C   0  0  0  0  0  0
  -17.6454  -30.6570   24.0560 C   0  0  0  0  0  0
  -25.9018  -34.9469   23.5123 C   0  0  0  0  0  0
  -16.5339  -29.9083   23.6316 C   0  0  0  0  0  0
  -16.7257  -28.6506   23.0318 C   0  0  0  0  0  0
  -26.4472  -31.6587   25.0711 C   0  0  0  0  0  0
  -25.3748  -31.3689   26.1466 C   0  0  0  0  0  0
  -27.0307  -30.3033   24.6066 C   0  0  0  0  0  0
  -27.6060  -32.4295   25.7472 C   0  0  0  0  0  0
  -27.5573  -37.1805   24.8458 C   0  0  0  0  0  0
  -21.4130  -29.3015   22.3746 N   0  0  0  0  0  0
  -26.4282  -37.3783   23.9406 N   0  0  0  0  0  0
  -24.6618  -31.0809   22.0978 N   0  0  0  0  0  0
  -23.4178  -28.8171   23.3021 O   0  0  0  0  0  0
  -28.4309  -26.7942   20.0306 O   0  0  0  0  0  0
  -26.5592  -34.8929   22.4688 O   0  0  0  0  0  0
  -23.5317  -32.1418   23.7516 O   0  0  0  0  0  0
  -30.0934  -22.2536   20.5823 C   0  0  0  0  0  0
  -31.1193  -21.7794   21.4514 C   0  0  0  0  0  0
  -30.2315  -23.6207   20.5624 C   0  0  0  0  0  0
  -31.8345  -22.8223   21.9561 C   0  0  0  0  0  0
  -29.0843  -21.4332   19.8109 C   0  0  0  0  0  0
  -33.0042  -22.8638   22.8924 C   0  0  0  0  0  0
  -30.5646  -19.6545   23.8724 C   0  0  0  0  0  0
  -31.7622  -25.3162   21.7122 C   0  0  0  0  0  0
  -29.4863  -24.6609   19.7704 C   0  0  0  0  0  0
  -29.2095  -17.3690   22.1841 C   0  0  0  0  0  0
  -30.4131  -18.2235   21.7556 C   0  0  0  0  0  0
  -29.0922  -16.0448   21.4174 C   0  0  0  0  0  0
  -28.4662  -25.4801   20.5773 C   0  0  0  0  0  0
  -30.3846  -19.6451   22.3456 C   0  0  2  0  0  0
  -31.2802  -23.9720   21.4172 N   0  0  0  0  0  0
  -31.4286  -20.4442   21.7225 N   0  0  0  0  0  0
  -30.2663  -15.1942   21.6223 N   0  0  0  0  0  0
  -31.4617  -12.4288   19.0583 H   0  0  0  0  0  0
  -30.3517  -11.2741   19.7286 H   0  0  0  0  0  0
  -29.7056  -11.8272   17.3781 H   0  0  0  0  0  0
  -29.6410  -13.5282   17.7685 H   0  0  0  0  0  0
  -27.7979  -11.3271   18.7606 H   0  0  0  0  0  0
  -27.3484  -12.7012   17.7859 H   0  0  0  0  0  0
  -27.7325  -14.2470   19.6263 H   0  0  0  0  0  0
  -28.6944  -11.8343   21.2339 H   0  0  0  0  0  0
  -28.4839  -13.3979   21.9207 H   0  0  0  0  0  0
  -25.2762   -9.5659   22.4758 H   0  0  0  0  0  0
  -24.0013   -7.4601   22.7463 H   0  0  0  0  0  0
  -21.0850   -8.8735   19.8941 H   0  0  0  0  0  0
  -22.3679  -10.9657   19.6173 H   0  0  0  0  0  0
  -21.2000   -7.6147   23.9705 H   0  0  0  0  0  0
  -21.1482   -6.0523   25.9069 H   0  0  0  0  0  0
  -22.0614   -2.7610   23.2836 H   0  0  0  0  0  0
  -22.4148  -11.9890   22.4808 H   0  0  0  0  0  0
  -21.1126  -13.1208   22.2601 H   0  0  0  0  0  0
  -24.6694  -15.8403   20.5055 H   0  0  0  0  0  0
  -26.2860  -15.6146   20.0703 H   0  0  0  0  0  0
  -26.7105  -32.5536   23.1170 H   0  0  0  0  0  0
  -25.0023  -33.9767   25.0459 H   0  0  0  0  0  0
  -22.6851  -31.3032   21.4080 H   0  0  0  0  0  0
  -23.3720  -35.9684   23.3297 H   0  0  0  0  0  0
  -24.3576  -36.8957   22.2053 H   0  0  0  0  0  0
  -23.7268  -37.6550   23.6659 H   0  0  0  0  0  0
  -26.0218  -31.6046   20.5800 H   0  0  0  0  0  0
  -26.8144  -30.9077   21.9642 H   0  0  0  0  0  0
  -28.1056  -29.1470   21.1280 H   0  0  0  0  0  0
  -26.0851  -25.9730   19.0243 H   0  0  0  0  0  0
  -23.9798  -27.2686   19.0635 H   0  0  0  0  0  0
  -23.7131  -30.5860   19.4023 H   0  0  0  0  0  0
  -22.7311  -29.2310   19.8734 H   0  0  0  0  0  0
  -25.1269  -36.1967   25.0820 H   0  0  0  0  0  0
  -20.9932  -28.3195   24.1450 H   0  0  0  0  0  0
  -20.5640  -26.2239   23.3594 H   0  0  0  0  0  0
  -21.6628  -26.7414   22.1214 H   0  0  0  0  0  0
  -19.6905  -25.6291   21.1213 H   0  0  0  0  0  0
  -19.6695  -27.3190   20.6734 H   0  0  0  0  0  0
  -17.4186  -26.6637   21.4012 H   0  0  0  0  0  0
  -18.0330  -26.0053   22.9005 H   0  0  0  0  0  0
  -19.7927  -30.7235   24.2265 H   0  0  0  0  0  0
  -17.5015  -31.6248   24.5168 H   0  0  0  0  0  0
  -15.5345  -30.2983   23.7651 H   0  0  0  0  0  0
  -15.8653  -28.0846   22.7008 H   0  0  0  0  0  0
  -24.5917  -30.7036   25.7812 H   0  0  0  0  0  0
  -24.8942  -32.2844   26.4922 H   0  0  0  0  0  0
  -25.8104  -30.8857   27.0222 H   0  0  0  0  0  0
  -26.2844  -29.6773   24.1155 H   0  0  0  0  0  0
  -27.4136  -29.7280   25.4510 H   0  0  0  0  0  0
  -27.8645  -30.4360   23.9166 H   0  0  0  0  0  0
  -27.2701  -33.3594   26.2075 H   0  0  0  0  0  0
  -28.3868  -32.6849   25.0295 H   0  0  0  0  0  0
  -28.0731  -31.8397   26.5370 H   0  0  0  0  0  0
  -28.2580  -38.0110   24.7505 H   0  0  0  0  0  0
  -28.1078  -36.2641   24.6272 H   0  0  0  0  0  0
  -27.2295  -37.1453   25.8862 H   0  0  0  0  0  0
  -20.9284  -29.8783   21.7005 H   0  0  0  0  0  0
  -26.0170  -38.2856   24.1419 H   0  0  0  0  0  0
  -29.4771  -20.4408   19.5909 H   0  0  0  0  0  0
  -28.8222  -21.9055   18.8647 H   0  0  0  0  0  0
  -28.1718  -21.3142   20.3953 H   0  0  0  0  0  0
  -33.1818  -21.8903   23.3484 H   0  0  0  0  0  0
  -32.8380  -23.5739   23.7028 H   0  0  0  0  0  0
  -33.9123  -23.1554   22.3650 H   0  0  0  0  0  0
  -30.5073  -20.6678   24.2720 H   0  0  0  0  0  0
  -31.5242  -19.2304   24.1710 H   0  0  0  0  0  0
  -29.7872  -19.0764   24.3720 H   0  0  0  0  0  0
  -31.1826  -26.0849   21.2060 H   0  0  0  0  0  0
  -32.8015  -25.4115   21.3974 H   0  0  0  0  0  0
  -31.6970  -25.4956   22.7851 H   0  0  0  0  0  0
  -28.9773  -24.2070   18.9210 H   0  0  0  0  0  0
  -30.2136  -25.3338   19.3152 H   0  0  0  0  0  0
  -28.2949  -17.9419   22.0223 H   0  0  0  0  0  0
  -29.2504  -17.1662   23.2545 H   0  0  0  0  0  0
  -30.4096  -18.2930   20.6670 H   0  0  0  0  0  0
  -31.3454  -17.7217   22.0204 H   0  0  0  0  0  0
  -28.9550  -16.2520   20.3534 H   0  0  0  0  0  0
  -28.1905  -15.5367   21.7550 H   0  0  0  0  0  0
  -28.7924  -25.5806   21.6121 H   0  0  0  0  0  0
  -27.5028  -24.9704   20.6036 H   0  0  0  0  0  0
  -29.4108  -20.0842   22.1233 H   0  0  0  0  0  0
  -32.3283  -20.3321   22.1772 H   0  0  0  0  0  0
  -31.0151  -15.7116   22.0584 H   0  0  0  0  0  0
  1 25  1  0  0  0
  1 30  2  0  0  0
  1 87  1  0  0  0
  2  3  1  0  0  0
  2 25  1  0  0  0
  2 88  1  0  0  0
  2 89  1  0  0  0
  3  4  1  0  0  0
  3 90  1  0  0  0
  3 91  1  0  0  0
  4  5  1  0  0  0
  4 92  1  0  0  0
  4 93  1  0  0  0
  5  6  1  0  0  0
  5 26  1  0  0  0
  5 94  1  0  0  0
  6 25  1  0  0  0
  6 95  1  0  0  0
  6 96  1  0  0  0
  7  8  2  0  0  0
  7 26  1  0  0  0
  7 29  1  0  0  0
  8  9  1  0  0  0
  8 22  1  0  0  0
  9 10  1  0  0  0
  9 27  2  0  0  0
 10 11  2  0  0  0
 10 15  1  0  0  0
 11 12  1  0  0  0
 11 97  1  0  0  0
 12 13  2  0  0  0
 12 98  1  0  0  0
 13 14  1  0  0  0
 13 31  1  0  0  0
 14 15  2  0  0  0
 14 99  1  0  0  0
 15100  1  0  0  0
 16 17  2  0  0  0
 16 21  1  0  0  0
 16 31  1  0  0  0
 17 18  1  0  0  0
 17101  1  0  0  0
 18 19  2  0  0  0
 18102  1  0  0  0
 19 20  1  0  0  0
 19 24  1  0  0  0
 20 21  2  0  0  0
 20103  1  0  0  0
 21 23  1  0  0  0
 22 28  1  0  0  0
 22 32  2  0  0  0
 26 27  1  0  0  0
 28104  1  0  0  0
 28105  1  0  0  0
 29106  1  0  0  0
 29107  1  0  0  0
 33 34  1  0  0  0
 33 66  1  0  0  0
 33 70  2  0  0  0
 34 36  1  0  0  0
 34 59  1  0  0  0
 34108  1  0  0  0
 35 44  2  0  0  0
 35 45  1  0  0  0
 35 68  1  0  0  0
 36 56  1  0  0  0
 36109  1  0  0  0
 37 39  1  0  0  0
 37 47  1  0  0  0
 37 66  1  0  0  0
 37110  1  0  0  0
 38 43  2  0  0  0
 38 46  1  0  0  0
 38 47  1  0  0  0
 39 64  1  0  0  0
 39 67  2  0  0  0
 40 52  1  0  0  0
 40 53  2  0  0  0
 40 58  1  0  0  0
 41111  1  0  0  0
 41112  1  0  0  0
 41113  1  0  0  0
 41 48  1  0  0  0
 42 43  1  0  0  0
 42 66  1  0  0  0
 42114  1  0  0  0
 42115  1  0  0  0
 43 44  1  0  0  0
 44116  1  0  0  0
 45 46  2  0  0  0
 45117  1  0  0  0
 46118  1  0  0  0
 47119  1  0  0  0
 47120  1  0  0  0
 48 56  1  0  0  0
 48 65  1  0  0  0
 48121  1  0  0  0
 49 50  1  0  0  0
 49 53  1  0  0  0
 49 64  1  0  0  0
 49122  1  0  0  0
 50 51  1  0  0  0
 50123  1  0  0  0
 50124  1  0  0  0
 51 52  1  0  0  0
 51125  1  0  0  0
 51126  1  0  0  0
 52127  1  0  0  0
 52128  1  0  0  0
 53 54  1  0  0  0
 54 55  2  0  0  0
 54129  1  0  0  0
 55 57  1  0  0  0
 55130  1  0  0  0
 56 69  2  0  0  0
 57 58  2  0  0  0
 57131  1  0  0  0
 58132  1  0  0  0
 59 60  1  0  0  0
 59 61  1  0  0  0
 59 62  1  0  0  0
 60133  1  0  0  0
 60134  1  0  0  0
 60135  1  0  0  0
 61136  1  0  0  0
 61137  1  0  0  0
 61138  1  0  0  0
 62139  1  0  0  0
 62140  1  0  0  0
 62141  1  0  0  0
 63 65  1  0  0  0
 63142  1  0  0  0
 63143  1  0  0  0
 63144  1  0  0  0
 64145  1  0  0  0
 65146  1  0  0  0
 68 83  1  0  0  0
 71 72  1  0  0  0
 71 73  2  0  0  0
 71 75  1  0  0  0
 72 74  2  0  0  0
 72 86  1  0  0  0
 73 79  1  0  0  0
 73 85  1  0  0  0
 74 76  1  0  0  0
 74 85  1  0  0  0
 75147  1  0  0  0
 75148  1  0  0  0
 75149  1  0  0  0
 76150  1  0  0  0
 76151  1  0  0  0
 76152  1  0  0  0
 77153  1  0  0  0
 77154  1  0  0  0
 77155  1  0  0  0
 77 84  1  0  0  0
 78 85  1  0  0  0
 78156  1  0  0  0
 78157  1  0  0  0
 78158  1  0  0  0
 79 83  1  0  0  0
 79159  1  0  0  0
 79160  1  0  0  0
 80 81  1  0  0  0
 80 82  1  0  0  0
 80161  1  0  0  0
 80162  1  0  0  0
 81 84  1  0  0  0
 81163  1  0  0  0
 81164  1  0  0  0
 82 87  1  0  0  0
 82165  1  0  0  0
 82166  1  0  0  0
 83167  1  0  0  0
 83168  1  0  0  0
 84 86  1  0  0  0
 84169  1  0  0  0
 86170  1  0  0  0
 87171  1  0  0  0
M  ISO  4   1 100  68 101  83 101  87 100
M  END
> <chiral flag>
0

> <version>
0

> <s_m_source_file>
/data/baiqing/PycharmProjects/Reinvent-master-3.2/result/LINK_invent/BTK/process_docking_weight1_custom_sum_contain_oxygen_bond_distance_aromatic_linkinvent_7_9_3/rearranged_h_0026.sdf

> <i_m_source_file_index>
1

> <r_mmod_Potential_Energy-OPLS-2005>
-141.605392456055

> <r_mmod_Stretch_Energy-OPLS-2005>
30.9041404724121

> <r_mmod_Bend_Energy-OPLS-2005>
110.221717834473

> <r_mmod_Torsional_Energy-OPLS-2005>
298.383422851562

> <r_mmod_Improper_Torsional_Energy-OPLS-2005>
11.569296836853

> <r_mmod_Van_der_Waal_Energy-OPLS-2005>
126.039405822754

> <r_mmod_Electrostatic_Energy-OPLS-2005>
-513.039123535156

> <r_mmod_Solvation_Energy-OPLS-2005>
-213.526885986328

> <b_mmod_Minimization_Converged-OPLS-2005>
0

> <r_mmod_RMS_Derivative-OPLS-2005>
1.87238562107086

$$$$
1
                    3D
 Structure written by MMmdl.
182191  0  0  1  0            999 V2000
  -30.7721  -14.3234   20.7264 C   0  0  0  0  0  0
  -30.4189  -12.2874   19.3769 C   0  0  0  0  0  0
  -29.4787  -12.5341   18.1829 C   0  0  0  0  0  0
  -28.0042  -12.3851   18.6016 C   0  0  0  0  0  0
  -27.6667  -13.1959   19.8790 C   0  0  2  0  0  0
  -28.7018  -12.9134   20.9873 C   0  0  0  0  0  0
  -25.2609  -13.8143   20.5657 C   0  0  0  0  0  0
  -24.1843  -13.0445   20.9147 C   0  0  0  0  0  0
  -24.6375  -11.6905   20.8709 C   0  0  0  0  0  0
  -23.9038  -10.4299   21.0394 C   0  0  0  0  0  0
  -24.3599   -9.4223   21.9176 C   0  0  0  0  0  0
  -23.6284   -8.2253   22.0754 C   0  0  0  0  0  0
  -22.4268   -8.0277   21.3545 C   0  0  0  0  0  0
  -21.9895   -9.0248   20.4644 C   0  0  0  0  0  0
  -22.7210  -10.2131   20.3045 C   0  0  0  0  0  0
  -21.6850   -6.0734   22.5281 C   0  0  0  0  0  0
  -21.4016   -6.5642   23.8214 C   0  0  0  0  0  0
  -21.3658   -5.6793   24.9176 C   0  0  0  0  0  0
  -21.6041   -4.3055   24.7229 C   0  0  0  0  0  0
  -21.8822   -3.8145   23.4352 C   0  0  0  0  0  0
  -21.9197   -4.6962   22.3407 C   0  0  0  0  0  0
  -22.7870  -13.5249   21.1832 C   0  0  0  0  0  0
  -22.1661   -4.2148   21.0983 F   0  0  0  0  0  0
  -21.5631   -3.4537   25.7744 F   0  0  0  0  0  0
  -30.0494  -13.2084   20.4584 N   0  0  0  0  0  0
  -26.3040  -12.9296   20.3361 N   0  0  0  0  0  0
  -25.9297  -11.6466   20.5738 N   0  0  0  0  0  0
  -22.0512  -12.8238   22.0386 N   0  0  0  0  0  0
  -25.4368  -15.1852   20.4073 N   0  0  0  0  0  0
  -31.7622  -14.6756   20.0759 O   0  0  0  0  0  0
  -21.6636   -6.8874   21.4241 O   0  0  0  0  0  0
  -22.3558  -14.5567   20.6695 O   0  0  0  0  0  0
  -24.6056  -31.8719   23.2116 C   0  0  0  0  0  0
  -25.8983  -32.4855   23.8385 C   0  0  1  0  0  0
  -27.2555  -27.4962   20.1020 C   0  0  0  0  0  0
  -25.5861  -33.8643   24.2335 N   0  0  0  0  0  0
  -23.3885  -30.4911   21.5525 C   0  0  2  0  0  0
  -24.8404  -28.9618   20.1149 C   0  0  0  0  0  0
  -22.7373  -29.4645   22.5047 C   0  0  0  0  0  0
  -18.0267  -28.1347   22.8530 C   0  0  0  0  0  0
  -24.1489  -36.7316   23.2628 C   0  0  0  0  0  0
  -25.9053  -30.8620   21.3489 C   0  0  0  0  0  0
  -25.9898  -29.4977   20.7045 C   0  0  0  0  0  0
  -27.1980  -28.7800   20.6904 C   0  0  0  0  0  0
  -26.0998  -26.9790   19.4797 C   0  0  0  0  0  0
  -24.8888  -27.7007   19.4938 C   0  0  0  0  0  0
  -23.5932  -29.8136   20.1678 C   0  0  0  0  0  0
  -25.4107  -36.3129   24.0342 C   0  0  1  0  0  0
  -20.5851  -28.3618   23.1396 C   0  0  2  0  0  0
  -20.6777  -26.9384   22.5429 C   0  0  0  0  0  0
  -19.5750  -26.6387   21.5219 C   0  0  0  0  0  0
  -18.1924  -26.7890   22.1650 C   0  0  0  0  0  0
  -19.1512  -28.8797   23.2959 C   0  0  0  0  0  0
  -18.9444  -30.1397   23.8971 C   0  0  0  0  0  0
  -17.6456  -30.6573   24.0564 C   0  0  0  0  0  0
  -25.9036  -34.9497   23.5141 C   0  0  0  0  0  0
  -16.5351  -29.9087   23.6302 C   0  0  0  0  0  0
  -16.7258  -28.6488   23.0364 C   0  0  0  0  0  0
  -26.4424  -31.6593   25.0678 C   0  0  0  0  0  0
  -25.3719  -31.3684   26.1454 C   0  0  0  0  0  0
  -27.0211  -30.3045   24.5965 C   0  0  0  0  0  0
  -27.6004  -32.4292   25.7455 C   0  0  0  0  0  0
  -27.5586  -37.1809   24.8461 C   0  0  0  0  0  0
  -21.4108  -29.3015   22.3837 N   0  0  0  0  0  0
  -26.4284  -37.3813   23.9424 N   0  0  0  0  0  0
  -24.6514  -31.0871   22.0986 N   0  0  0  0  0  0
  -23.4222  -28.8132   23.2991 O   0  0  0  0  0  0
  -28.3867  -26.7124   20.0993 O   0  0  0  0  0  0
  -26.5597  -34.8933   22.4703 O   0  0  0  0  0  0
  -23.5274  -32.1421   23.7574 O   0  0  0  0  0  0
  -28.8893  -17.6636   22.0675 C   0  0  0  0  0  0
  -29.8014  -17.0450   22.9464 C   0  0  0  0  0  0
  -29.6228  -17.2118   24.3412 C   0  0  0  0  0  0
  -28.5491  -18.0254   24.7754 C   0  0  0  0  0  0
  -27.8683  -18.4612   22.6013 C   0  0  0  0  0  0
  -27.4898  -21.3882   20.7141 C   0  0  0  0  0  0
  -25.8340  -21.2223   22.6001 C   0  0  0  0  0  0
  -27.7421  -22.8595   21.0518 C   0  0  0  0  0  0
  -26.0354  -22.7100   22.9480 C   0  0  0  0  0  0
  -27.1223  -20.6373   21.9976 C   0  0  1  0  0  0
  -26.5311  -23.5417   21.7317 C   0  0  1  0  0  0
  -27.1712  -17.4020   26.8169 C   0  0  0  0  0  0
  -25.5806  -25.6769   22.5778 C   0  0  0  0  0  0
  -30.9173  -16.2015   22.3578 C   0  0  0  0  0  0
  -28.2697  -18.3054   26.2431 C   0  0  0  0  0  0
  -29.2912  -25.5443   22.0344 C   0  0  0  0  0  0
  -28.0021  -25.2900   22.8597 C   0  0  0  0  0  0
  -29.2977  -26.8311   21.2005 C   0  0  0  0  0  0
  -27.6921  -18.6273   23.9237 N   0  0  0  0  0  0
  -27.0333  -19.2002   21.7641 N   0  0  0  0  0  0
  -30.3646  -14.9760   21.8135 N   0  0  0  0  0  0
  -26.7855  -24.9872   22.0466 N   0  3  1  0  0  0
  -30.6714  -16.4368   25.4833 Cl  0  0  0  0  0  0
  -31.4600  -12.4058   19.0694 H   0  0  0  0  0  0
  -30.3296  -11.2575   19.7270 H   0  0  0  0  0  0
  -29.7068  -11.8412   17.3719 H   0  0  0  0  0  0
  -29.6454  -13.5368   17.7860 H   0  0  0  0  0  0
  -27.8084  -11.3257   18.7715 H   0  0  0  0  0  0
  -27.3496  -12.6874   17.7834 H   0  0  0  0  0  0
  -27.7324  -14.2530   19.6210 H   0  0  0  0  0  0
  -28.6614  -11.8640   21.2825 H   0  0  0  0  0  0
  -28.4364  -13.4695   21.8859 H   0  0  0  0  0  0
  -25.2749   -9.5709   22.4742 H   0  0  0  0  0  0
  -24.0003   -7.4650   22.7474 H   0  0  0  0  0  0
  -21.0829   -8.8752   19.8946 H   0  0  0  0  0  0
  -22.3662  -10.9665   19.6149 H   0  0  0  0  0  0
  -21.2002   -7.6151   23.9719 H   0  0  0  0  0  0
  -21.1475   -6.0522   25.9079 H   0  0  0  0  0  0
  -22.0600   -2.7608   23.2852 H   0  0  0  0  0  0
  -22.4129  -11.9886   22.4750 H   0  0  0  0  0  0
  -21.1131  -13.1263   22.2605 H   0  0  0  0  0  0
  -24.6818  -15.8498   20.5334 H   0  0  0  0  0  0
  -26.3066  -15.6217   20.1299 H   0  0  0  0  0  0
  -26.7059  -32.5625   23.1166 H   0  0  0  0  0  0
  -25.0042  -33.9815   25.0507 H   0  0  0  0  0  0
  -22.6745  -31.3064   21.4125 H   0  0  0  0  0  0
  -23.3768  -35.9636   23.3298 H   0  0  0  0  0  0
  -24.3581  -36.8920   22.2037 H   0  0  0  0  0  0
  -23.7224  -37.6514   23.6653 H   0  0  0  0  0  0
  -25.9948  -31.6288   20.5779 H   0  0  0  0  0  0
  -26.7986  -30.9289   21.9571 H   0  0  0  0  0  0
  -28.0740  -29.2450   21.1171 H   0  0  0  0  0  0
  -26.1338  -26.0166   18.9890 H   0  0  0  0  0  0
  -24.0095  -27.2898   19.0167 H   0  0  0  0  0  0
  -23.6847  -30.5821   19.3988 H   0  0  0  0  0  0
  -22.7234  -29.2169   19.8857 H   0  0  0  0  0  0
  -25.1280  -36.1983   25.0837 H   0  0  0  0  0  0
  -20.9914  -28.3163   24.1527 H   0  0  0  0  0  0
  -20.5708  -26.2224   23.3590 H   0  0  0  0  0  0
  -21.6648  -26.7474   22.1201 H   0  0  0  0  0  0
  -19.6925  -25.6313   21.1208 H   0  0  0  0  0  0
  -19.6666  -27.3236   20.6777 H   0  0  0  0  0  0
  -17.4185  -26.6625   21.4061 H   0  0  0  0  0  0
  -18.0356  -26.0009   22.9039 H   0  0  0  0  0  0
  -19.7927  -30.7159   24.2409 H   0  0  0  0  0  0
  -17.5027  -31.6267   24.5137 H   0  0  0  0  0  0
  -15.5361  -30.3024   23.7555 H   0  0  0  0  0  0
  -15.8658  -28.0802   22.7082 H   0  0  0  0  0  0
  -24.5899  -30.7008   25.7816 H   0  0  0  0  0  0
  -24.8901  -32.2833   26.4912 H   0  0  0  0  0  0
  -25.8089  -30.8866   27.0213 H   0  0  0  0  0  0
  -26.2704  -29.6876   24.1008 H   0  0  0  0  0  0
  -27.3987  -29.7200   25.4365 H   0  0  0  0  0  0
  -27.8554  -30.4370   23.9069 H   0  0  0  0  0  0
  -27.2608  -33.3573   26.2068 H   0  0  0  0  0  0
  -28.3807  -32.6872   25.0285 H   0  0  0  0  0  0
  -28.0680  -31.8391   26.5348 H   0  0  0  0  0  0
  -28.2595  -38.0120   24.7552 H   0  0  0  0  0  0
  -28.1092  -36.2652   24.6241 H   0  0  0  0  0  0
  -27.2317  -37.1400   25.8866 H   0  0  0  0  0  0
  -20.9219  -29.8789   21.7141 H   0  0  0  0  0  0
  -26.0188  -38.2903   24.1438 H   0  0  0  0  0  0
  -29.0126  -17.5539   20.9977 H   0  0  0  0  0  0
  -28.3953  -20.9652   20.2747 H   0  0  0  0  0  0
  -26.7008  -21.2969   19.9668 H   0  0  0  0  0  0
  -25.0022  -21.1069   21.9032 H   0  0  0  0  0  0
  -25.5578  -20.6762   23.5032 H   0  0  0  0  0  0
  -28.0298  -23.3998   20.1496 H   0  0  0  0  0  0
  -28.5959  -22.8668   21.7269 H   0  0  0  0  0  0
  -26.7456  -22.7755   23.7712 H   0  0  0  0  0  0
  -25.0927  -23.1031   23.3279 H   0  0  0  0  0  0
  -27.9302  -20.8282   22.7088 H   0  0  0  0  0  0
  -25.7233  -23.5301   20.9966 H   0  0  0  0  0  0
  -26.9816  -17.6381   27.8638 H   0  0  0  0  0  0
  -27.4544  -16.3513   26.7553 H   0  0  0  0  0  0
  -26.2367  -17.5303   26.2702 H   0  0  0  0  0  0
  -24.6903  -25.4377   21.9938 H   0  0  0  0  0  0
  -25.7019  -26.7605   22.5452 H   0  0  0  0  0  0
  -25.3908  -25.4038   23.6165 H   0  0  0  0  0  0
  -31.6868  -15.9580   23.0889 H   0  0  0  0  0  0
  -31.4128  -16.7823   21.5778 H   0  0  0  0  0  0
  -27.9610  -19.3470   26.3401 H   0  0  0  0  0  0
  -29.1810  -18.2199   26.8336 H   0  0  0  0  0  0
  -29.5651  -24.7140   21.3910 H   0  0  0  0  0  0
  -30.1146  -25.6169   22.7449 H   0  0  0  0  0  0
  -27.8232  -26.1803   23.4654 H   0  0  0  0  0  0
  -28.1771  -24.4938   23.5823 H   0  0  0  0  0  0
  -30.2945  -26.9907   20.7888 H   0  0  0  0  0  0
  -29.1262  -27.6622   21.8800 H   0  0  0  0  0  0
  -27.1257  -18.9491   20.7874 H   0  0  0  0  0  0
  -29.5623  -14.5952   22.2913 H   0  0  0  0  0  0
  -26.9566  -25.4350   21.1555 H   0  0  0  0  0  0
  1 25  1  0  0  0
  1 30  2  0  0  0
  1 91  1  0  0  0
  2  3  1  0  0  0
  2 25  1  0  0  0
  2 94  1  0  0  0
  2 95  1  0  0  0
  3  4  1  0  0  0
  3 96  1  0  0  0
  3 97  1  0  0  0
  4  5  1  0  0  0
  4 98  1  0  0  0
  4 99  1  0  0  0
  5  6  1  0  0  0
  5 26  1  0  0  0
  5100  1  0  0  0
  6 25  1  0  0  0
  6101  1  0  0  0
  6102  1  0  0  0
  7  8  2  0  0  0
  7 26  1  0  0  0
  7 29  1  0  0  0
  8  9  1  0  0  0
  8 22  1  0  0  0
  9 10  1  0  0  0
  9 27  2  0  0  0
 10 11  2  0  0  0
 10 15  1  0  0  0
 11 12  1  0  0  0
 11103  1  0  0  0
 12 13  2  0  0  0
 12104  1  0  0  0
 13 14  1  0  0  0
 13 31  1  0  0  0
 14 15  2  0  0  0
 14105  1  0  0  0
 15106  1  0  0  0
 16 17  2  0  0  0
 16 21  1  0  0  0
 16 31  1  0  0  0
 17 18  1  0  0  0
 17107  1  0  0  0
 18 19  2  0  0  0
 18108  1  0  0  0
 19 20  1  0  0  0
 19 24  1  0  0  0
 20 21  2  0  0  0
 20109  1  0  0  0
 21 23  1  0  0  0
 22 28  1  0  0  0
 22 32  2  0  0  0
 26 27  1  0  0  0
 28110  1  0  0  0
 28111  1  0  0  0
 29112  1  0  0  0
 29113  1  0  0  0
 33 34  1  0  0  0
 33 66  1  0  0  0
 33 70  2  0  0  0
 34 36  1  0  0  0
 34 59  1  0  0  0
 34114  1  0  0  0
 35 44  2  0  0  0
 35 45  1  0  0  0
 35 68  1  0  0  0
 36 56  1  0  0  0
 36115  1  0  0  0
 37 39  1  0  0  0
 37 47  1  0  0  0
 37 66  1  0  0  0
 37116  1  0  0  0
 38 43  2  0  0  0
 38 46  1  0  0  0
 38 47  1  0  0  0
 39 64  1  0  0  0
 39 67  2  0  0  0
 40 52  1  0  0  0
 40 53  2  0  0  0
 40 58  1  0  0  0
 41117  1  0  0  0
 41118  1  0  0  0
 41119  1  0  0  0
 41 48  1  0  0  0
 42 43  1  0  0  0
 42 66  1  0  0  0
 42120  1  0  0  0
 42121  1  0  0  0
 43 44  1  0  0  0
 44122  1  0  0  0
 45 46  2  0  0  0
 45123  1  0  0  0
 46124  1  0  0  0
 47125  1  0  0  0
 47126  1  0  0  0
 48 56  1  0  0  0
 48 65  1  0  0  0
 48127  1  0  0  0
 49 50  1  0  0  0
 49 53  1  0  0  0
 49 64  1  0  0  0
 49128  1  0  0  0
 50 51  1  0  0  0
 50129  1  0  0  0
 50130  1  0  0  0
 51 52  1  0  0  0
 51131  1  0  0  0
 51132  1  0  0  0
 52133  1  0  0  0
 52134  1  0  0  0
 53 54  1  0  0  0
 54 55  2  0  0  0
 54135  1  0  0  0
 55 57  1  0  0  0
 55136  1  0  0  0
 56 69  2  0  0  0
 57 58  2  0  0  0
 57137  1  0  0  0
 58138  1  0  0  0
 59 60  1  0  0  0
 59 61  1  0  0  0
 59 62  1  0  0  0
 60139  1  0  0  0
 60140  1  0  0  0
 60141  1  0  0  0
 61142  1  0  0  0
 61143  1  0  0  0
 61144  1  0  0  0
 62145  1  0  0  0
 62146  1  0  0  0
 62147  1  0  0  0
 63 65  1  0  0  0
 63148  1  0  0  0
 63149  1  0  0  0
 63150  1  0  0  0
 64151  1  0  0  0
 65152  1  0  0  0
 68 88  1  0  0  0
 71 72  2  0  0  0
 71 75  1  0  0  0
 71153  1  0  0  0
 72 73  1  0  0  0
 72 84  1  0  0  0
 73 74  2  0  0  0
 73 93  1  0  0  0
 74 85  1  0  0  0
 74 89  1  0  0  0
 75 89  2  0  0  0
 75 90  1  0  0  0
 76 78  1  0  0  0
 76 80  1  0  0  0
 76154  1  0  0  0
 76155  1  0  0  0
 77 79  1  0  0  0
 77 80  1  0  0  0
 77156  1  0  0  0
 77157  1  0  0  0
 78158  1  0  0  0
 78159  1  0  0  0
 78 81  1  0  0  0
 79 81  1  0  0  0
 79160  1  0  0  0
 79161  1  0  0  0
 80 90  1  0  0  0
 80162  1  0  0  0
 81 92  1  0  0  0
 81163  1  0  0  0
 82 85  1  0  0  0
 82164  1  0  0  0
 82165  1  0  0  0
 82166  1  0  0  0
 83167  1  0  0  0
 83168  1  0  0  0
 83169  1  0  0  0
 83 92  1  0  0  0
 84 91  1  0  0  0
 84170  1  0  0  0
 84171  1  0  0  0
 85172  1  0  0  0
 85173  1  0  0  0
 86 87  1  0  0  0
 86 88  1  0  0  0
 86174  1  0  0  0
 86175  1  0  0  0
 87 92  1  0  0  0
 87176  1  0  0  0
 87177  1  0  0  0
 88178  1  0  0  0
 88179  1  0  0  0
 90180  1  0  0  0
 91181  1  0  0  0
 92182  1  0  0  0
M  CHG  1  92   1
M  ISO  4   1 100  68 101  88 101  91 100
M  END
> <chiral flag>
0

> <version>
0

> <s_m_source_file>
/data/baiqing/PycharmProjects/Reinvent-master-3.2/result/LINK_invent/BTK/process_docking_weight1_custom_sum_contain_oxygen_bond_distance_aromatic_linkinvent_7_9_3/rearranged_h_0026.sdf

> <i_m_source_file_index>
2

> <r_mmod_Potential_Energy-OPLS-2005>
-436.540344238281

> <r_mmod_Stretch_Energy-OPLS-2005>
35.4566421508789

> <r_mmod_Bend_Energy-OPLS-2005>
111.804183959961

> <r_mmod_Torsional_Energy-OPLS-2005>
247.286697387695

> <r_mmod_Improper_Torsional_Energy-OPLS-2005>
7.02415466308594

> <r_mmod_Van_der_Waal_Energy-OPLS-2005>
159.922775268555

> <r_mmod_Electrostatic_Energy-OPLS-2005>
-599.947631835938

> <r_mmod_Solvation_Energy-OPLS-2005>
-405.224334716797

> <b_mmod_Minimization_Converged-OPLS-2005>
0

> <r_mmod_RMS_Derivative-OPLS-2005>
2.05025792121887

$$$$
2
                    3D
 Structure written by MMmdl.
173181  0  0  1  0            999 V2000
  -30.7390  -14.4570   20.6109 C   0  0  0  0  0  0
  -30.4196  -12.3156   19.4198 C   0  0  0  0  0  0
  -29.4941  -12.5194   18.2037 C   0  0  0  0  0  0
  -28.0151  -12.3807   18.6132 C   0  0  0  0  0  0
  -27.6630  -13.2149   19.8744 C   0  0  2  0  0  0
  -28.7048  -13.0005   20.9965 C   0  0  0  0  0  0
  -25.2589  -13.8169   20.5673 C   0  0  0  0  0  0
  -24.1846  -13.0435   20.9159 C   0  0  0  0  0  0
  -24.6404  -11.6904   20.8703 C   0  0  0  0  0  0
  -23.9073  -10.4292   21.0385 C   0  0  0  0  0  0
  -24.3621   -9.4210   21.9173 C   0  0  0  0  0  0
  -23.6300   -8.2239   22.0745 C   0  0  0  0  0  0
  -22.4281   -8.0266   21.3541 C   0  0  0  0  0  0
  -21.9914   -9.0236   20.4637 C   0  0  0  0  0  0
  -22.7240  -10.2125   20.3042 C   0  0  0  0  0  0
  -21.6857   -6.0725   22.5273 C   0  0  0  0  0  0
  -21.4017   -6.5633   23.8201 C   0  0  0  0  0  0
  -21.3665   -5.6791   24.9161 C   0  0  0  0  0  0
  -21.6037   -4.3053   24.7217 C   0  0  0  0  0  0
  -21.8828   -3.8144   23.4343 C   0  0  0  0  0  0
  -21.9198   -4.6956   22.3398 C   0  0  0  0  0  0
  -22.7865  -13.5220   21.1835 C   0  0  0  0  0  0
  -22.1669   -4.2139   21.0980 F   0  0  0  0  0  0
  -21.5627   -3.4541   25.7733 F   0  0  0  0  0  0
  -30.0409  -13.2986   20.4484 N   0  0  0  0  0  0
  -26.3035  -12.9359   20.3366 N   0  0  0  0  0  0
  -25.9346  -11.6512   20.5752 N   0  0  0  0  0  0
  -22.0526  -12.8194   22.0388 N   0  0  0  0  0  0
  -25.4316  -15.1879   20.4093 N   0  0  0  0  0  0
  -31.8376  -14.6530   20.0840 O   0  0  0  0  0  0
  -21.6647   -6.8865   21.4232 O   0  0  0  0  0  0
  -22.3542  -14.5528   20.6687 O   0  0  0  0  0  0
  -24.6148  -31.8684   23.2116 C   0  0  0  0  0  0
  -25.9037  -32.4830   23.8420 C   0  0  1  0  0  0
  -27.2427  -27.4385   20.1173 C   0  0  0  0  0  0
  -25.5885  -33.8629   24.2345 N   0  0  0  0  0  0
  -23.4054  -30.4926   21.5505 C   0  0  2  0  0  0
  -24.8562  -28.9531   20.1235 C   0  0  0  0  0  0
  -22.7409  -29.4679   22.4995 C   0  0  0  0  0  0
  -18.0276  -28.1387   22.8460 C   0  0  0  0  0  0
  -24.1486  -36.7325   23.2639 C   0  0  0  0  0  0
  -25.9346  -30.8334   21.3676 C   0  0  0  0  0  0
  -26.0133  -29.4633   20.7285 C   0  0  0  0  0  0
  -27.2094  -28.7110   20.7310 C   0  0  0  0  0  0
  -26.0781  -26.9435   19.5010 C   0  0  0  0  0  0
  -24.8826  -27.6877   19.5090 C   0  0  0  0  0  0
  -23.6156  -29.8191   20.1678 C   0  0  0  0  0  0
  -25.4100  -36.3134   24.0347 C   0  0  1  0  0  0
  -20.5871  -28.3674   23.1306 C   0  0  2  0  0  0
  -20.6766  -26.9411   22.5415 C   0  0  0  0  0  0
  -19.5740  -26.6389   21.5218 C   0  0  0  0  0  0
  -18.1912  -26.7932   22.1609 C   0  0  0  0  0  0
  -19.1532  -28.8838   23.2878 C   0  0  0  0  0  0
  -18.9462  -30.1427   23.8903 C   0  0  0  0  0  0
  -17.6467  -30.6574   24.0568 C   0  0  0  0  0  0
  -25.9032  -34.9488   23.5154 C   0  0  0  0  0  0
  -16.5344  -29.9090   23.6335 C   0  0  0  0  0  0
  -16.7270  -28.6519   23.0333 C   0  0  0  0  0  0
  -26.4471  -31.6591   25.0739 C   0  0  0  0  0  0
  -25.3726  -31.3672   26.1474 C   0  0  0  0  0  0
  -27.0313  -30.3046   24.6098 C   0  0  0  0  0  0
  -27.6052  -32.4310   25.7483 C   0  0  0  0  0  0
  -27.5571  -37.1808   24.8454 C   0  0  0  0  0  0
  -21.4146  -29.3044   22.3705 N   0  0  0  0  0  0
  -26.4290  -37.3810   23.9397 N   0  0  0  0  0  0
  -24.6700  -31.0790   22.1022 N   0  0  0  0  0  0
  -23.4163  -28.8224   23.3056 O   0  0  0  0  0  0
  -28.3976  -26.6995   20.0090 O   0  0  0  0  0  0
  -26.5627  -34.8930   22.4732 O   0  0  0  0  0  0
  -23.5335  -32.1435   23.7496 O   0  0  0  0  0  0
  -31.0761  -22.1616   24.1987 C   0  0  0  0  0  0
  -28.9549  -21.9084   26.0463 C   0  0  0  0  0  0
  -29.7444  -22.2413   23.7407 C   0  0  0  0  0  0
  -31.3566  -21.9591   25.5605 C   0  0  0  0  0  0
  -28.6776  -22.1265   24.6707 C   0  0  0  0  0  0
  -30.2988  -21.8304   26.4850 C   0  0  0  0  0  0
  -27.8359  -21.7694   27.0755 C   0  0  0  0  0  0
  -31.0828  -23.6697   20.8756 C   0  0  0  0  0  0
  -29.5087  -18.9517   20.6465 C   0  0  0  0  0  0
  -30.5072  -17.7829   20.4212 C   0  0  0  0  0  0
  -30.0309  -20.1385   21.4957 C   0  0  0  0  0  0
  -28.7091  -24.5962   21.2628 C   0  0  0  0  0  0
  -30.6806  -16.7758   21.5926 C   0  0  0  0  0  0
  -29.0409  -21.3366   21.5539 C   0  0  0  0  0  0
  -28.9414  -26.1310   21.2030 C   0  0  0  0  0  0
  -29.9025  -23.7916   21.8557 C   0  0  1  0  0  0
  -30.1338  -15.4321   21.3167 N   0  0  0  0  0  0
  -29.5125  -22.4672   22.3707 N   0  0  0  0  0  0
  -33.0053  -21.8788   26.0776 Cl  0  0  0  0  0  0
  -27.0435  -22.3018   24.1172 Cl  0  0  0  0  0  0
  -30.6556  -21.5876   28.1648 Cl  0  0  0  0  0  0
  -31.4644  -12.4064   19.1174 H   0  0  0  0  0  0
  -30.3151  -11.3046   19.8154 H   0  0  0  0  0  0
  -29.7335  -11.7968   17.4220 H   0  0  0  0  0  0
  -29.6657  -13.5073   17.7710 H   0  0  0  0  0  0
  -27.8185  -11.3243   18.7999 H   0  0  0  0  0  0
  -27.3679  -12.6686   17.7835 H   0  0  0  0  0  0
  -27.7060  -14.2646   19.5817 H   0  0  0  0  0  0
  -28.6786  -11.9675   21.3443 H   0  0  0  0  0  0
  -28.4606  -13.6094   21.8690 H   0  0  0  0  0  0
  -25.2771   -9.5672   22.4746 H   0  0  0  0  0  0
  -24.0001   -7.4625   22.7468 H   0  0  0  0  0  0
  -21.0843   -8.8756   19.8941 H   0  0  0  0  0  0
  -22.3703  -10.9655   19.6138 H   0  0  0  0  0  0
  -21.2020   -7.6141   23.9697 H   0  0  0  0  0  0
  -21.1476   -6.0525   25.9063 H   0  0  0  0  0  0
  -22.0609   -2.7603   23.2849 H   0  0  0  0  0  0
  -22.4155  -11.9843   22.4754 H   0  0  0  0  0  0
  -21.1120  -13.1171   22.2580 H   0  0  0  0  0  0
  -24.6665  -15.8472   20.5048 H   0  0  0  0  0  0
  -26.2925  -15.6261   20.1062 H   0  0  0  0  0  0
  -26.7101  -32.5560   23.1179 H   0  0  0  0  0  0
  -24.9998  -33.9794   25.0466 H   0  0  0  0  0  0
  -22.6970  -31.3106   21.4038 H   0  0  0  0  0  0
  -23.3769  -35.9639   23.3322 H   0  0  0  0  0  0
  -24.3591  -36.8941   22.2055 H   0  0  0  0  0  0
  -23.7232  -37.6526   23.6656 H   0  0  0  0  0  0
  -26.0432  -31.5906   20.5909 H   0  0  0  0  0  0
  -26.8239  -30.8981   21.9814 H   0  0  0  0  0  0
  -28.1078  -29.1098   21.1807 H   0  0  0  0  0  0
  -26.1035  -25.9811   19.0106 H   0  0  0  0  0  0
  -23.9989  -27.2889   19.0313 H   0  0  0  0  0  0
  -23.7174  -30.5916   19.4039 H   0  0  0  0  0  0
  -22.7434  -29.2328   19.8769 H   0  0  0  0  0  0
  -25.1271  -36.2011   25.0845 H   0  0  0  0  0  0
  -20.9941  -28.3238   24.1440 H   0  0  0  0  0  0
  -20.5693  -26.2268   23.3593 H   0  0  0  0  0  0
  -21.6632  -26.7462   22.1186 H   0  0  0  0  0  0
  -19.6931  -25.6335   21.1200 H   0  0  0  0  0  0
  -19.6702  -27.3242   20.6788 H   0  0  0  0  0  0
  -17.4198  -26.6686   21.4006 H   0  0  0  0  0  0
  -18.0280  -26.0087   22.9010 H   0  0  0  0  0  0
  -19.7942  -30.7217   24.2282 H   0  0  0  0  0  0
  -17.5038  -31.6264   24.5172 H   0  0  0  0  0  0
  -15.5350  -30.2990   23.7667 H   0  0  0  0  0  0
  -15.8667  -28.0842   22.7030 H   0  0  0  0  0  0
  -24.5908  -30.7019   25.7792 H   0  0  0  0  0  0
  -24.8884  -32.2805   26.4946 H   0  0  0  0  0  0
  -25.8050  -30.8809   27.0224 H   0  0  0  0  0  0
  -26.2856  -29.6802   24.1165 H   0  0  0  0  0  0
  -27.4135  -29.7281   25.4530 H   0  0  0  0  0  0
  -27.8662  -30.4408   23.9220 H   0  0  0  0  0  0
  -27.2720  -33.3632   26.2053 H   0  0  0  0  0  0
  -28.3854  -32.6842   25.0294 H   0  0  0  0  0  0
  -28.0734  -31.8435   26.5393 H   0  0  0  0  0  0
  -28.2586  -38.0108   24.7531 H   0  0  0  0  0  0
  -28.1071  -36.2646   24.6250 H   0  0  0  0  0  0
  -27.2287  -37.1435   25.8856 H   0  0  0  0  0  0
  -20.9301  -29.8775   21.6941 H   0  0  0  0  0  0
  -26.0199  -38.2892   24.1406 H   0  0  0  0  0  0
  -31.8951  -22.2558   23.5026 H   0  0  0  0  0  0
  -26.8390  -21.7824   26.6430 H   0  0  0  0  0  0
  -27.8896  -22.5806   27.8022 H   0  0  0  0  0  0
  -27.9370  -20.8267   27.6145 H   0  0  0  0  0  0
  -31.5095  -24.6452   20.6419 H   0  0  0  0  0  0
  -30.7826  -23.2100   19.9335 H   0  0  0  0  0  0
  -31.8876  -23.0667   21.2981 H   0  0  0  0  0  0
  -28.5817  -18.5663   21.0705 H   0  0  0  0  0  0
  -29.2348  -19.3458   19.6669 H   0  0  0  0  0  0
  -31.4793  -18.2042   20.1642 H   0  0  0  0  0  0
  -30.2073  -17.2374   19.5254 H   0  0  0  0  0  0
  -30.9813  -20.4839   21.0853 H   0  0  0  0  0  0
  -30.2444  -19.7800   22.5033 H   0  0  0  0  0  0
  -28.4753  -24.2171   20.2677 H   0  0  0  0  0  0
  -27.8115  -24.4222   21.8579 H   0  0  0  0  0  0
  -30.2311  -17.1730   22.5031 H   0  0  0  0  0  0
  -31.7437  -16.6751   21.8224 H   0  0  0  0  0  0
  -28.0787  -20.9942   21.9367 H   0  0  0  0  0  0
  -28.8427  -21.6927   20.5421 H   0  0  0  0  0  0
  -30.0095  -26.3450   21.1873 H   0  0  0  0  0  0
  -28.5571  -26.6062   22.1068 H   0  0  0  0  0  0
  -30.2657  -24.3674   22.7105 H   0  0  0  0  0  0
  -29.2351  -15.2077   21.7191 H   0  0  0  0  0  0
  1 25  1  0  0  0
  1 30  2  0  0  0
  1 87  1  0  0  0
  2  3  1  0  0  0
  2 25  1  0  0  0
  2 92  1  0  0  0
  2 93  1  0  0  0
  3  4  1  0  0  0
  3 94  1  0  0  0
  3 95  1  0  0  0
  4  5  1  0  0  0
  4 96  1  0  0  0
  4 97  1  0  0  0
  5  6  1  0  0  0
  5 26  1  0  0  0
  5 98  1  0  0  0
  6 25  1  0  0  0
  6 99  1  0  0  0
  6100  1  0  0  0
  7  8  2  0  0  0
  7 26  1  0  0  0
  7 29  1  0  0  0
  8  9  1  0  0  0
  8 22  1  0  0  0
  9 10  1  0  0  0
  9 27  2  0  0  0
 10 11  2  0  0  0
 10 15  1  0  0  0
 11 12  1  0  0  0
 11101  1  0  0  0
 12 13  2  0  0  0
 12102  1  0  0  0
 13 14  1  0  0  0
 13 31  1  0  0  0
 14 15  2  0  0  0
 14103  1  0  0  0
 15104  1  0  0  0
 16 17  2  0  0  0
 16 21  1  0  0  0
 16 31  1  0  0  0
 17 18  1  0  0  0
 17105  1  0  0  0
 18 19  2  0  0  0
 18106  1  0  0  0
 19 20  1  0  0  0
 19 24  1  0  0  0
 20 21  2  0  0  0
 20107  1  0  0  0
 21 23  1  0  0  0
 22 28  1  0  0  0
 22 32  2  0  0  0
 26 27  1  0  0  0
 28108  1  0  0  0
 28109  1  0  0  0
 29110  1  0  0  0
 29111  1  0  0  0
 33 34  1  0  0  0
 33 66  1  0  0  0
 33 70  2  0  0  0
 34 36  1  0  0  0
 34 59  1  0  0  0
 34112  1  0  0  0
 35 44  2  0  0  0
 35 45  1  0  0  0
 35 68  1  0  0  0
 36 56  1  0  0  0
 36113  1  0  0  0
 37 39  1  0  0  0
 37 47  1  0  0  0
 37 66  1  0  0  0
 37114  1  0  0  0
 38 43  2  0  0  0
 38 46  1  0  0  0
 38 47  1  0  0  0
 39 64  1  0  0  0
 39 67  2  0  0  0
 40 52  1  0  0  0
 40 53  2  0  0  0
 40 58  1  0  0  0
 41115  1  0  0  0
 41116  1  0  0  0
 41117  1  0  0  0
 41 48  1  0  0  0
 42 43  1  0  0  0
 42 66  1  0  0  0
 42118  1  0  0  0
 42119  1  0  0  0
 43 44  1  0  0  0
 44120  1  0  0  0
 45 46  2  0  0  0
 45121  1  0  0  0
 46122  1  0  0  0
 47123  1  0  0  0
 47124  1  0  0  0
 48 56  1  0  0  0
 48 65  1  0  0  0
 48125  1  0  0  0
 49 50  1  0  0  0
 49 53  1  0  0  0
 49 64  1  0  0  0
 49126  1  0  0  0
 50 51  1  0  0  0
 50127  1  0  0  0
 50128  1  0  0  0
 51 52  1  0  0  0
 51129  1  0  0  0
 51130  1  0  0  0
 52131  1  0  0  0
 52132  1  0  0  0
 53 54  1  0  0  0
 54 55  2  0  0  0
 54133  1  0  0  0
 55 57  1  0  0  0
 55134  1  0  0  0
 56 69  2  0  0  0
 57 58  2  0  0  0
 57135  1  0  0  0
 58136  1  0  0  0
 59 60  1  0  0  0
 59 61  1  0  0  0
 59 62  1  0  0  0
 60137  1  0  0  0
 60138  1  0  0  0
 60139  1  0  0  0
 61140  1  0  0  0
 61141  1  0  0  0
 61142  1  0  0  0
 62143  1  0  0  0
 62144  1  0  0  0
 62145  1  0  0  0
 63 65  1  0  0  0
 63146  1  0  0  0
 63147  1  0  0  0
 63148  1  0  0  0
 64149  1  0  0  0
 65150  1  0  0  0
 68 85  1  0  0  0
 71 73  2  0  0  0
 71 74  1  0  0  0
 71151  1  0  0  0
 72 75  2  0  0  0
 72 76  1  0  0  0
 72 77  1  0  0  0
 73 75  1  0  0  0
 73 88  1  0  0  0
 74 76  2  0  0  0
 74 89  1  0  0  0
 75 90  1  0  0  0
 76 91  1  0  0  0
 77152  1  0  0  0
 77153  1  0  0  0
 77154  1  0  0  0
 78155  1  0  0  0
 78156  1  0  0  0
 78157  1  0  0  0
 78 86  1  0  0  0
 79 80  1  0  0  0
 79 81  1  0  0  0
 79158  1  0  0  0
 79159  1  0  0  0
 80 83  1  0  0  0
 80160  1  0  0  0
 80161  1  0  0  0
 81 84  1  0  0  0
 81162  1  0  0  0
 81163  1  0  0  0
 82 85  1  0  0  0
 82 86  1  0  0  0
 82164  1  0  0  0
 82165  1  0  0  0
 83 87  1  0  0  0
 83166  1  0  0  0
 83167  1  0  0  0
 84 88  1  0  0  0
 84168  1  0  0  0
 84169  1  0  0  0
 85170  1  0  0  0
 85171  1  0  0  0
 86 88  1  0  0  0
 86172  1  0  0  0
 87173  1  0  0  0
M  ISO  4   1 100  68 101  85 101  87 100
M  END
> <chiral flag>
0

> <version>
0

> <s_m_source_file>
/data/baiqing/PycharmProjects/Reinvent-master-3.2/result/LINK_invent/BTK/process_docking_weight1_custom_sum_contain_oxygen_bond_distance_aromatic_linkinvent_7_9_3/rearranged_h_0026.sdf

> <i_m_source_file_index>
3

> <r_mmod_Potential_Energy-OPLS-2005>
21.6569519042969

> <r_mmod_Stretch_Energy-OPLS-2005>
41.4689826965332

> <r_mmod_Bend_Energy-OPLS-2005>
112.191955566406

> <r_mmod_Torsional_Energy-OPLS-2005>
282.406646728516

> <r_mmod_Improper_Torsional_Energy-OPLS-2005>
2.56389117240906

> <r_mmod_Van_der_Waal_Energy-OPLS-2005>
143.898345947266

> <r_mmod_Electrostatic_Energy-OPLS-2005>
-363.586547851562

> <r_mmod_Solvation_Energy-OPLS-2005>
-207.245559692383

> <b_mmod_Minimization_Converged-OPLS-2005>
0

> <r_mmod_RMS_Derivative-OPLS-2005>
3.38842248916626

$$$$
3
                    3D
 Structure written by MMmdl.
179188  0  0  1  0            999 V2000
  -30.7206  -14.4065   20.5582 C   0  0  0  0  0  0
  -30.4264  -12.2636   19.4022 C   0  0  0  0  0  0
  -29.4931  -12.5012   18.1957 C   0  0  0  0  0  0
  -28.0114  -12.3808   18.6083 C   0  0  0  0  0  0
  -27.6703  -13.2018   19.8790 C   0  0  2  0  0  0
  -28.7134  -12.9503   20.9925 C   0  0  0  0  0  0
  -25.2639  -13.8167   20.5632 C   0  0  0  0  0  0
  -24.1856  -13.0448   20.9111 C   0  0  0  0  0  0
  -24.6414  -11.6916   20.8711 C   0  0  0  0  0  0
  -23.9075  -10.4305   21.0417 C   0  0  0  0  0  0
  -24.3621   -9.4210   21.9198 C   0  0  0  0  0  0
  -23.6295   -8.2251   22.0759 C   0  0  0  0  0  0
  -22.4272   -8.0292   21.3544 C   0  0  0  0  0  0
  -21.9916   -9.0274   20.4645 C   0  0  0  0  0  0
  -22.7251  -10.2152   20.3063 C   0  0  0  0  0  0
  -21.6852   -6.0739   22.5280 C   0  0  0  0  0  0
  -21.4026   -6.5651   23.8206 C   0  0  0  0  0  0
  -21.3662   -5.6796   24.9171 C   0  0  0  0  0  0
  -21.6019   -4.3052   24.7217 C   0  0  0  0  0  0
  -21.8824   -3.8151   23.4344 C   0  0  0  0  0  0
  -21.9193   -4.6973   22.3398 C   0  0  0  0  0  0
  -22.7887  -13.5261   21.1784 C   0  0  0  0  0  0
  -22.1648   -4.2158   21.0979 F   0  0  0  0  0  0
  -21.5627   -3.4531   25.7735 F   0  0  0  0  0  0
  -30.0514  -13.2335   20.4387 N   0  0  0  0  0  0
  -26.3075  -12.9322   20.3371 N   0  0  0  0  0  0
  -25.9342  -11.6479   20.5768 N   0  0  0  0  0  0
  -22.0516  -12.8269   22.0362 N   0  0  0  0  0  0
  -25.4417  -15.1881   20.4056 N   0  0  0  0  0  0
  -31.8423  -14.6104   20.0870 O   0  0  0  0  0  0
  -21.6633   -6.8891   21.4238 O   0  0  0  0  0  0
  -22.3572  -14.5579   20.6670 O   0  0  0  0  0  0
  -24.6122  -31.8702   23.2115 C   0  0  0  0  0  0
  -25.9031  -32.4809   23.8411 C   0  0  1  0  0  0
  -27.2239  -27.4342   20.0803 C   0  0  0  0  0  0
  -25.5901  -33.8620   24.2330 N   0  0  0  0  0  0
  -23.3980  -30.4956   21.5539 C   0  0  2  0  0  0
  -24.8385  -28.9638   20.1166 C   0  0  0  0  0  0
  -22.7364  -29.4709   22.5033 C   0  0  0  0  0  0
  -18.0269  -28.1349   22.8504 C   0  0  0  0  0  0
  -24.1496  -36.7295   23.2642 C   0  0  0  0  0  0
  -25.9291  -30.8298   21.3735 C   0  0  0  0  0  0
  -25.9997  -29.4709   20.7091 C   0  0  0  0  0  0
  -27.1935  -28.7133   20.6842 C   0  0  0  0  0  0
  -26.0386  -26.9530   19.4734 C   0  0  0  0  0  0
  -24.8517  -27.7038   19.5001 C   0  0  0  0  0  0
  -23.6022  -29.8279   20.1697 C   0  0  0  0  0  0
  -25.4119  -36.3100   24.0337 C   0  0  1  0  0  0
  -20.5849  -28.3643   23.1332 C   0  0  2  0  0  0
  -20.6763  -26.9387   22.5405 C   0  0  0  0  0  0
  -19.5733  -26.6370   21.5208 C   0  0  0  0  0  0
  -18.1918  -26.7895   22.1646 C   0  0  0  0  0  0
  -19.1513  -28.8811   23.2919 C   0  0  0  0  0  0
  -18.9430  -30.1412   23.8925 C   0  0  0  0  0  0
  -17.6443  -30.6556   24.0574 C   0  0  0  0  0  0
  -25.9048  -34.9473   23.5131 C   0  0  0  0  0  0
  -16.5336  -29.9047   23.6354 C   0  0  0  0  0  0
  -16.7267  -28.6468   23.0376 C   0  0  0  0  0  0
  -26.4444  -31.6607   25.0758 C   0  0  0  0  0  0
  -25.3704  -31.3770   26.1521 C   0  0  0  0  0  0
  -27.0283  -30.3035   24.6187 C   0  0  0  0  0  0
  -27.6009  -32.4350   25.7495 C   0  0  0  0  0  0
  -27.5579  -37.1804   24.8464 C   0  0  0  0  0  0
  -21.4099  -29.3037   22.3749 N   0  0  0  0  0  0
  -26.4304  -37.3780   23.9416 N   0  0  0  0  0  0
  -24.6631  -31.0793   22.1036 N   0  0  0  0  0  0
  -23.4134  -28.8260   23.3082 O   0  0  0  0  0  0
  -28.4027  -26.7147   20.1241 O   0  0  0  0  0  0
  -26.5605  -34.8937   22.4685 O   0  0  0  0  0  0
  -23.5313  -32.1491   23.7478 O   0  0  0  0  0  0
  -28.6658  -18.5919   20.4051 C   0  0  0  0  0  0
  -27.5925  -18.6103   22.9915 C   0  0  0  0  0  0
  -27.6366  -19.5069   20.7234 C   0  0  0  0  0  0
  -29.1897  -17.7168   21.3820 C   0  0  0  0  0  0
  -27.1179  -19.5487   22.0445 C   0  0  0  0  0  0
  -27.3599  -24.1488   21.7534 C   0  0  0  0  0  0
  -27.7964  -23.0785   22.6039 C   0  0  0  0  0  0
  -28.6267  -17.7138   22.6765 C   0  0  0  0  0  0
  -28.3328  -24.3646   20.7984 C   0  0  0  0  0  0
  -28.9948  -22.6390   22.1127 C   0  0  0  0  0  0
  -27.1277  -20.4387   19.6336 C   0  0  0  0  0  0
  -26.0560  -24.9013   21.9014 C   0  0  0  0  0  0
  -29.9002  -21.5445   22.5952 C   0  0  0  0  0  0
  -24.7070  -19.9365   22.6635 C   0  0  0  0  0  0
  -30.4368  -23.1316   20.0965 C   0  0  0  0  0  0
  -30.3578  -16.8058   21.0342 C   0  0  0  0  0  0
  -27.0768  -22.5529   23.8463 C   0  0  0  0  0  0
  -28.4603  -25.3610   19.6474 C   0  0  0  0  0  0
  -26.0907  -20.5889   22.5065 C   0  0  1  0  0  0
  -29.2961  -23.3751   20.9758 N   0  0  0  0  0  0
  -29.9962  -15.3969   21.0756 N   0  0  0  0  0  0
  -26.5507  -21.1666   23.7890 N   0  3  0  0  0  0
  -29.2035  -16.6483   23.9100 Cl  0  0  0  0  0  0
  -31.4690  -12.3655   19.0927 H   0  0  0  0  0  0
  -30.3201  -11.2459   19.7802 H   0  0  0  0  0  0
  -29.7162  -11.7929   17.3961 H   0  0  0  0  0  0
  -29.6808  -13.4927   17.7790 H   0  0  0  0  0  0
  -27.8002  -11.3257   18.7828 H   0  0  0  0  0  0
  -27.3704  -12.6877   17.7814 H   0  0  0  0  0  0
  -27.7258  -14.2536   19.6016 H   0  0  0  0  0  0
  -28.6707  -11.9123   21.3238 H   0  0  0  0  0  0
  -28.4879  -13.5440   21.8807 H   0  0  0  0  0  0
  -25.2768   -9.5674   22.4755 H   0  0  0  0  0  0
  -23.9980   -7.4651   22.7499 H   0  0  0  0  0  0
  -21.0821   -8.8803   19.8982 H   0  0  0  0  0  0
  -22.3703  -10.9685   19.6162 H   0  0  0  0  0  0
  -21.2035   -7.6158   23.9718 H   0  0  0  0  0  0
  -21.1463   -6.0523   25.9070 H   0  0  0  0  0  0
  -22.0608   -2.7609   23.2837 H   0  0  0  0  0  0
  -22.4095  -11.9896   22.4699 H   0  0  0  0  0  0
  -21.1173  -13.1349   22.2628 H   0  0  0  0  0  0
  -24.6908  -15.8568   20.5331 H   0  0  0  0  0  0
  -26.3099  -15.6178   20.1123 H   0  0  0  0  0  0
  -26.7083  -32.5507   23.1154 H   0  0  0  0  0  0
  -25.0068  -33.9818   25.0479 H   0  0  0  0  0  0
  -22.6881  -31.3152   21.4144 H   0  0  0  0  0  0
  -23.3758  -35.9625   23.3312 H   0  0  0  0  0  0
  -24.3588  -36.8890   22.2052 H   0  0  0  0  0  0
  -23.7250  -37.6510   23.6643 H   0  0  0  0  0  0
  -26.0608  -31.6011   20.6144 H   0  0  0  0  0  0
  -26.8103  -30.8623   22.0039 H   0  0  0  0  0  0
  -28.0946  -29.1041   21.1341 H   0  0  0  0  0  0
  -25.9739  -25.9862   19.0003 H   0  0  0  0  0  0
  -23.9537  -27.3009   19.0504 H   0  0  0  0  0  0
  -23.7092  -30.6023   19.4087 H   0  0  0  0  0  0
  -22.7253  -29.2461   19.8767 H   0  0  0  0  0  0
  -25.1298  -36.1971   25.0827 H   0  0  0  0  0  0
  -20.9930  -28.3188   24.1464 H   0  0  0  0  0  0
  -20.5663  -26.2231   23.3571 H   0  0  0  0  0  0
  -21.6638  -26.7459   22.1204 H   0  0  0  0  0  0
  -19.6905  -25.6273   21.1241 H   0  0  0  0  0  0
  -19.6665  -27.3195   20.6742 H   0  0  0  0  0  0
  -17.4185  -26.6642   21.4059 H   0  0  0  0  0  0
  -18.0361  -26.0021   22.9039 H   0  0  0  0  0  0
  -19.7907  -30.7213   24.2299 H   0  0  0  0  0  0
  -17.5012  -31.6257   24.5122 H   0  0  0  0  0  0
  -15.5337  -30.2957   23.7632 H   0  0  0  0  0  0
  -15.8684  -28.0763   22.7103 H   0  0  0  0  0  0
  -25.8028  -30.8799   27.0210 H   0  0  0  0  0  0
  -24.5736  -30.7295   25.7853 H   0  0  0  0  0  0
  -24.9081  -32.2971   26.5098 H   0  0  0  0  0  0
  -26.2898  -29.6849   24.1089 H   0  0  0  0  0  0
  -27.3849  -29.7247   25.4716 H   0  0  0  0  0  0
  -27.8819  -30.4341   23.9534 H   0  0  0  0  0  0
  -27.2585  -33.3584   26.2181 H   0  0  0  0  0  0
  -28.3724  -32.7038   25.0268 H   0  0  0  0  0  0
  -28.0780  -31.8430   26.5310 H   0  0  0  0  0  0
  -28.2600  -38.0101   24.7503 H   0  0  0  0  0  0
  -28.1086  -36.2624   24.6307 H   0  0  0  0  0  0
  -27.2297  -37.1470   25.8872 H   0  0  0  0  0  0
  -20.9221  -29.8713   21.6953 H   0  0  0  0  0  0
  -26.0184  -38.2865   24.1407 H   0  0  0  0  0  0
  -29.0703  -18.5666   19.4021 H   0  0  0  0  0  0
  -27.1867  -18.5856   23.9936 H   0  0  0  0  0  0
  -27.4508  -20.1107   18.6446 H   0  0  0  0  0  0
  -27.5048  -21.4473   19.7890 H   0  0  0  0  0  0
  -26.0384  -20.4757   19.6225 H   0  0  0  0  0  0
  -25.4421  -24.7833   21.0093 H   0  0  0  0  0  0
  -26.2342  -25.9604   22.0807 H   0  0  0  0  0  0
  -25.4473  -24.5501   22.7293 H   0  0  0  0  0  0
  -29.5675  -21.1367   23.5479 H   0  0  0  0  0  0
  -30.9230  -21.8948   22.7288 H   0  0  0  0  0  0
  -29.9238  -20.7208   21.8819 H   0  0  0  0  0  0
  -24.3664  -19.5258   21.7126 H   0  0  0  0  0  0
  -23.9642  -20.6608   22.9992 H   0  0  0  0  0  0
  -24.7167  -19.1129   23.3782 H   0  0  0  0  0  0
  -30.9485  -22.2034   20.3398 H   0  0  0  0  0  0
  -31.1523  -23.9521   20.1602 H   0  0  0  0  0  0
  -30.0892  -23.0375   19.0669 H   0  0  0  0  0  0
  -31.1808  -16.9961   21.7251 H   0  0  0  0  0  0
  -30.7351  -17.0470   20.0380 H   0  0  0  0  0  0
  -26.2610  -23.2110   24.1326 H   0  0  0  0  0  0
  -27.7766  -22.6024   24.6807 H   0  0  0  0  0  0
  -27.7882  -25.1154   18.8291 H   0  0  0  0  0  0
  -29.4443  -25.2919   19.1896 H   0  0  0  0  0  0
  -25.9828  -21.3919   21.7796 H   0  0  0  0  0  0
  -29.0837  -15.1612   21.4292 H   0  0  0  0  0  0
  -25.7966  -21.1068   24.4530 H   0  0  0  0  0  0
  -27.2763  -20.5550   24.1148 H   0  0  0  0  0  0
  1 25  1  0  0  0
  1 30  2  0  0  0
  1 91  1  0  0  0
  2  3  1  0  0  0
  2 25  1  0  0  0
  2 94  1  0  0  0
  2 95  1  0  0  0
  3  4  1  0  0  0
  3 96  1  0  0  0
  3 97  1  0  0  0
  4  5  1  0  0  0
  4 98  1  0  0  0
  4 99  1  0  0  0
  5  6  1  0  0  0
  5 26  1  0  0  0
  5100  1  0  0  0
  6 25  1  0  0  0
  6101  1  0  0  0
  6102  1  0  0  0
  7  8  2  0  0  0
  7 26  1  0  0  0
  7 29  1  0  0  0
  8  9  1  0  0  0
  8 22  1  0  0  0
  9 10  1  0  0  0
  9 27  2  0  0  0
 10 11  2  0  0  0
 10 15  1  0  0  0
 11 12  1  0  0  0
 11103  1  0  0  0
 12 13  2  0  0  0
 12104  1  0  0  0
 13 14  1  0  0  0
 13 31  1  0  0  0
 14 15  2  0  0  0
 14105  1  0  0  0
 15106  1  0  0  0
 16 17  2  0  0  0
 16 21  1  0  0  0
 16 31  1  0  0  0
 17 18  1  0  0  0
 17107  1  0  0  0
 18 19  2  0  0  0
 18108  1  0  0  0
 19 20  1  0  0  0
 19 24  1  0  0  0
 20 21  2  0  0  0
 20109  1  0  0  0
 21 23  1  0  0  0
 22 28  1  0  0  0
 22 32  2  0  0  0
 26 27  1  0  0  0
 28110  1  0  0  0
 28111  1  0  0  0
 29112  1  0  0  0
 29113  1  0  0  0
 33 34  1  0  0  0
 33 66  1  0  0  0
 33 70  2  0  0  0
 34 36  1  0  0  0
 34 59  1  0  0  0
 34114  1  0  0  0
 35 44  2  0  0  0
 35 45  1  0  0  0
 35 68  1  0  0  0
 36 56  1  0  0  0
 36115  1  0  0  0
 37 39  1  0  0  0
 37 47  1  0  0  0
 37 66  1  0  0  0
 37116  1  0  0  0
 38 43  2  0  0  0
 38 46  1  0  0  0
 38 47  1  0  0  0
 39 64  1  0  0  0
 39 67  2  0  0  0
 40 52  1  0  0  0
 40 53  2  0  0  0
 40 58  1  0  0  0
 41117  1  0  0  0
 41118  1  0  0  0
 41119  1  0  0  0
 41 48  1  0  0  0
 42 43  1  0  0  0
 42 66  1  0  0  0
 42120  1  0  0  0
 42121  1  0  0  0
 43 44  1  0  0  0
 44122  1  0  0  0
 45 46  2  0  0  0
 45123  1  0  0  0
 46124  1  0  0  0
 47125  1  0  0  0
 47126  1  0  0  0
 48 56  1  0  0  0
 48 65  1  0  0  0
 48127  1  0  0  0
 49 50  1  0  0  0
 49 53  1  0  0  0
 49 64  1  0  0  0
 49128  1  0  0  0
 50 51  1  0  0  0
 50129  1  0  0  0
 50130  1  0  0  0
 51 52  1  0  0  0
 51131  1  0  0  0
 51132  1  0  0  0
 52133  1  0  0  0
 52134  1  0  0  0
 53 54  1  0  0  0
 54 55  2  0  0  0
 54135  1  0  0  0
 55 57  1  0  0  0
 55136  1  0  0  0
 56 69  2  0  0  0
 57 58  2  0  0  0
 57137  1  0  0  0
 58138  1  0  0  0
 59 60  1  0  0  0
 59 61  1  0  0  0
 59 62  1  0  0  0
 60139  1  0  0  0
 60140  1  0  0  0
 60141  1  0  0  0
 61142  1  0  0  0
 61143  1  0  0  0
 61144  1  0  0  0
 62145  1  0  0  0
 62146  1  0  0  0
 62147  1  0  0  0
 63 65  1  0  0  0
 63148  1  0  0  0
 63149  1  0  0  0
 63150  1  0  0  0
 64151  1  0  0  0
 65152  1  0  0  0
 68 88  1  0  0  0
 71 73  2  0  0  0
 71 74  1  0  0  0
 71153  1  0  0  0
 72 75  2  0  0  0
 72 78  1  0  0  0
 72154  1  0  0  0
 73 75  1  0  0  0
 73 81  1  0  0  0
 74 78  2  0  0  0
 74 86  1  0  0  0
 75 89  1  0  0  0
 76 77  1  0  0  0
 76 79  2  0  0  0
 76 82  1  0  0  0
 77 80  2  0  0  0
 77 87  1  0  0  0
 78 93  1  0  0  0
 79 88  1  0  0  0
 79 90  1  0  0  0
 80 83  1  0  0  0
 80 90  1  0  0  0
 81155  1  0  0  0
 81156  1  0  0  0
 81157  1  0  0  0
 82158  1  0  0  0
 82159  1  0  0  0
 82160  1  0  0  0
 83161  1  0  0  0
 83162  1  0  0  0
 83163  1  0  0  0
 84164  1  0  0  0
 84165  1  0  0  0
 84166  1  0  0  0
 84 89  1  0  0  0
 85 90  1  0  0  0
 85167  1  0  0  0
 85168  1  0  0  0
 85169  1  0  0  0
 86 91  1  0  0  0
 86170  1  0  0  0
 86171  1  0  0  0
 87 92  1  0  0  0
 87172  1  0  0  0
 87173  1  0  0  0
 88174  1  0  0  0
 88175  1  0  0  0
 89 92  1  0  0  0
 89176  1  0  0  0
 91177  1  0  0  0
 92178  1  0  0  0
 92179  1  0  0  0
M  CHG  1  92   1
M  ISO  4   1 100  68 101  88 101  91 100
M  END
> <chiral flag>
0

> <version>
0

> <s_m_source_file>
/data/baiqing/PycharmProjects/Reinvent-master-3.2/result/LINK_invent/BTK/process_docking_weight1_custom_sum_contain_oxygen_bond_distance_aromatic_linkinvent_7_9_3/rearranged_h_0026.sdf

> <i_m_source_file_index>
4

> <r_mmod_Potential_Energy-OPLS-2005>
-302.710021972656

> <r_mmod_Stretch_Energy-OPLS-2005>
38.2490768432617

> <r_mmod_Bend_Energy-OPLS-2005>
120.643943786621

> <r_mmod_Torsional_Energy-OPLS-2005>
207.922409057617

> <r_mmod_Improper_Torsional_Energy-OPLS-2005>
4.20496129989624

> <r_mmod_Van_der_Waal_Energy-OPLS-2005>
142.570327758789

> <r_mmod_Electrostatic_Energy-OPLS-2005>
-386.876068115234

> <r_mmod_Solvation_Energy-OPLS-2005>
-441.283843994141

> <b_mmod_Minimization_Converged-OPLS-2005>
0

> <r_mmod_RMS_Derivative-OPLS-2005>
4.11657190322876

$$$$
4
                    3D
 Structure written by MMmdl.
174182  0  0  1  0            999 V2000
  -30.7096  -14.4542   20.4564 C   0  0  0  0  0  0
  -30.4139  -12.2643   19.4258 C   0  0  0  0  0  0
  -29.4919  -12.4538   18.2065 C   0  0  0  0  0  0
  -28.0096  -12.3505   18.6199 C   0  0  0  0  0  0
  -27.6574  -13.1915   19.8792 C   0  0  2  0  0  0
  -28.7103  -13.0147   20.9968 C   0  0  0  0  0  0
  -25.2575  -13.8106   20.5679 C   0  0  0  0  0  0
  -24.1824  -13.0412   20.9196 C   0  0  0  0  0  0
  -24.6376  -11.6870   20.8792 C   0  0  0  0  0  0
  -23.9040  -10.4271   21.0444 C   0  0  0  0  0  0
  -24.3595   -9.4174   21.9205 C   0  0  0  0  0  0
  -23.6270   -8.2219   22.0752 C   0  0  0  0  0  0
  -22.4247   -8.0273   21.3555 C   0  0  0  0  0  0
  -21.9906   -9.0237   20.4641 C   0  0  0  0  0  0
  -22.7228  -10.2117   20.3064 C   0  0  0  0  0  0
  -21.6846   -6.0732   22.5275 C   0  0  0  0  0  0
  -21.4017   -6.5635   23.8207 C   0  0  0  0  0  0
  -21.3657   -5.6786   24.9170 C   0  0  0  0  0  0
  -21.6043   -4.3050   24.7221 C   0  0  0  0  0  0
  -21.8816   -3.8147   23.4343 C   0  0  0  0  0  0
  -21.9189   -4.6963   22.3397 C   0  0  0  0  0  0
  -22.7848  -13.5225   21.1856 C   0  0  0  0  0  0
  -22.1650   -4.2144   21.0979 F   0  0  0  0  0  0
  -21.5626   -3.4538   25.7737 F   0  0  0  0  0  0
  -30.0358  -13.2800   20.4160 N   0  0  0  0  0  0
  -26.3010  -12.9242   20.3437 N   0  0  0  0  0  0
  -25.9312  -11.6429   20.5881 N   0  0  0  0  0  0
  -22.0495  -12.8203   22.0394 N   0  0  0  0  0  0
  -25.4278  -15.1823   20.3972 N   0  0  0  0  0  0
  -31.9101  -14.5555   20.1932 O   0  0  0  0  0  0
  -21.6618   -6.8873   21.4234 O   0  0  0  0  0  0
  -22.3545  -14.5549   20.6717 O   0  0  0  0  0  0
  -24.6083  -31.8738   23.2158 C   0  0  0  0  0  0
  -25.9018  -32.4849   23.8434 C   0  0  1  0  0  0
  -27.2505  -27.5075   20.0999 C   0  0  0  0  0  0
  -25.5905  -33.8642   24.2388 N   0  0  0  0  0  0
  -23.3918  -30.4950   21.5531 C   0  0  2  0  0  0
  -24.8425  -28.9668   20.1197 C   0  0  0  0  0  0
  -22.7349  -29.4701   22.5030 C   0  0  0  0  0  0
  -18.0259  -28.1391   22.8509 C   0  0  0  0  0  0
  -24.1471  -36.7298   23.2634 C   0  0  0  0  0  0
  -25.9085  -30.8673   21.3522 C   0  0  0  0  0  0
  -25.9928  -29.5044   20.7075 C   0  0  0  0  0  0
  -27.1994  -28.7827   20.7011 C   0  0  0  0  0  0
  -26.0882  -26.9735   19.5059 C   0  0  0  0  0  0
  -24.8782  -27.6940   19.5228 C   0  0  0  0  0  0
  -23.5978  -29.8230   20.1678 C   0  0  0  0  0  0
  -25.4086  -36.3122   24.0351 C   0  0  1  0  0  0
  -20.5837  -28.3673   23.1351 C   0  0  2  0  0  0
  -20.6748  -26.9421   22.5446 C   0  0  0  0  0  0
  -19.5724  -26.6400   21.5234 C   0  0  0  0  0  0
  -18.1894  -26.7948   22.1645 C   0  0  0  0  0  0
  -19.1501  -28.8845   23.2936 C   0  0  0  0  0  0
  -18.9440  -30.1448   23.8959 C   0  0  0  0  0  0
  -17.6457  -30.6617   24.0570 C   0  0  0  0  0  0
  -25.9019  -34.9491   23.5160 C   0  0  0  0  0  0
  -16.5340  -29.9140   23.6303 C   0  0  0  0  0  0
  -16.7249  -28.6538   23.0345 C   0  0  0  0  0  0
  -26.4481  -31.6593   25.0714 C   0  0  0  0  0  0
  -25.3800  -31.3638   26.1488 C   0  0  0  0  0  0
  -27.0310  -30.3064   24.6006 C   0  0  0  0  0  0
  -27.6051  -32.4290   25.7502 C   0  0  0  0  0  0
  -27.5573  -37.1804   24.8472 C   0  0  0  0  0  0
  -21.4087  -29.3052   22.3770 N   0  0  0  0  0  0
  -26.4287  -37.3794   23.9426 N   0  0  0  0  0  0
  -24.6537  -31.0916   22.1005 N   0  0  0  0  0  0
  -23.4135  -28.8236   23.3054 O   0  0  0  0  0  0
  -28.3966  -26.7582   20.0557 O   0  0  0  0  0  0
  -26.5548  -34.8940   22.4699 O   0  0  0  0  0  0
  -23.5311  -32.1448   23.7633 O   0  0  0  0  0  0
  -31.2158  -17.6284   20.2862 C   0  0  0  0  0  0
  -30.2866  -17.9777   17.6393 C   0  0  0  0  0  0
  -31.2311  -18.8958   18.1826 C   0  0  0  0  0  0
  -30.2948  -16.7101   19.7461 C   0  0  0  0  0  0
  -31.6684  -18.7231   19.5237 C   0  0  0  0  0  0
  -29.7887  -16.9238   18.4433 C   0  0  0  0  0  0
  -29.7709  -18.0879   16.2021 C   0  0  0  0  0  0
  -31.7240  -20.0853   17.3535 C   0  0  0  0  0  0
  -28.5495  -23.5210   20.0873 C   0  0  0  0  0  0
  -28.6880  -23.6725   21.6142 C   0  0  0  0  0  0
  -29.8349  -23.0425   19.4031 C   0  0  0  0  0  0
  -27.7749  -24.7704   22.1991 C   0  0  0  0  0  0
  -29.7682  -23.2020   17.8707 C   0  0  0  0  0  0
  -28.4730  -26.1263   22.4455 C   0  0  0  0  0  0
  -30.8951  -22.4549   17.1416 C   0  0  0  0  0  0
  -29.2085  -26.7300   21.2284 C   0  0  0  0  0  0
  -29.9314  -15.5479   20.4843 N   0  0  0  0  0  0
  -30.5966  -21.0127   17.1422 N   0  3  0  0  0  0
  -32.7624  -19.8310   20.2804 Cl  0  0  0  0  0  0
  -28.5551  -15.8959   17.8072 Cl  0  0  0  0  0  0
  -31.4595  -12.3452   19.1216 H   0  0  0  0  0  0
  -30.2975  -11.2636   19.8467 H   0  0  0  0  0  0
  -29.7195  -11.7074   17.4448 H   0  0  0  0  0  0
  -29.6874  -13.4196   17.7440 H   0  0  0  0  0  0
  -27.8016  -11.2976   18.8156 H   0  0  0  0  0  0
  -27.3668  -12.6383   17.7868 H   0  0  0  0  0  0
  -27.6770  -14.2320   19.5833 H   0  0  0  0  0  0
  -28.6813  -11.9997   21.3941 H   0  0  0  0  0  0
  -28.5078  -13.6762   21.8395 H   0  0  0  0  0  0
  -25.2749   -9.5629   22.4779 H   0  0  0  0  0  0
  -23.9961   -7.4610   22.7475 H   0  0  0  0  0  0
  -21.0840   -8.8773   19.8948 H   0  0  0  0  0  0
  -22.3713  -10.9662   19.6167 H   0  0  0  0  0  0
  -21.2012   -7.6144   23.9709 H   0  0  0  0  0  0
  -21.1482   -6.0524   25.9069 H   0  0  0  0  0  0
  -22.0602   -2.7610   23.2852 H   0  0  0  0  0  0
  -22.4098  -11.9812   22.4692 H   0  0  0  0  0  0
  -21.1143  -13.1245   22.2678 H   0  0  0  0  0  0
  -24.6478  -15.8278   20.4576 H   0  0  0  0  0  0
  -26.2541  -15.6047   19.9952 H   0  0  0  0  0  0
  -26.7100  -32.5605   23.1230 H   0  0  0  0  0  0
  -25.0081  -33.9797   25.0553 H   0  0  0  0  0  0
  -22.6782  -31.3090   21.4098 H   0  0  0  0  0  0
  -23.3756  -35.9608   23.3290 H   0  0  0  0  0  0
  -24.3595  -36.8914   22.2060 H   0  0  0  0  0  0
  -23.7196  -37.6484   23.6649 H   0  0  0  0  0  0
  -26.0017  -31.6351   20.5828 H   0  0  0  0  0  0
  -26.7991  -30.9286   21.9646 H   0  0  0  0  0  0
  -28.0800  -29.2232   21.1423 H   0  0  0  0  0  0
  -26.1193  -25.9937   19.0514 H   0  0  0  0  0  0
  -23.9893  -27.2627   19.0834 H   0  0  0  0  0  0
  -23.7051  -30.5952   19.4050 H   0  0  0  0  0  0
  -22.7246  -29.2373   19.8716 H   0  0  0  0  0  0
  -25.1257  -36.1984   25.0844 H   0  0  0  0  0  0
  -20.9905  -28.3261   24.1473 H   0  0  0  0  0  0
  -20.5637  -26.2299   23.3636 H   0  0  0  0  0  0
  -21.6619  -26.7479   22.1228 H   0  0  0  0  0  0
  -19.6876  -25.6300   21.1268 H   0  0  0  0  0  0
  -19.6684  -27.3204   20.6753 H   0  0  0  0  0  0
  -17.4169  -26.6709   21.4044 H   0  0  0  0  0  0
  -18.0288  -26.0096   22.9042 H   0  0  0  0  0  0
  -19.7923  -30.7229   24.2382 H   0  0  0  0  0  0
  -17.5022  -31.6285   24.5180 H   0  0  0  0  0  0
  -15.5350  -30.3074   23.7594 H   0  0  0  0  0  0
  -15.8639  -28.0883   22.7051 H   0  0  0  0  0  0
  -24.5954  -30.7002   25.7832 H   0  0  0  0  0  0
  -24.9031  -32.2780   26.5029 H   0  0  0  0  0  0
  -25.8223  -30.8750   27.0182 H   0  0  0  0  0  0
  -26.2817  -29.6824   24.1120 H   0  0  0  0  0  0
  -27.4174  -29.7297   25.4425 H   0  0  0  0  0  0
  -27.8610  -30.4396   23.9057 H   0  0  0  0  0  0
  -27.2629  -33.3561   26.2098 H   0  0  0  0  0  0
  -28.3876  -32.6873   25.0355 H   0  0  0  0  0  0
  -28.0664  -31.8381   26.5420 H   0  0  0  0  0  0
  -28.2579  -38.0105   24.7527 H   0  0  0  0  0  0
  -28.1078  -36.2651   24.6279 H   0  0  0  0  0  0
  -27.2310  -37.1418   25.8875 H   0  0  0  0  0  0
  -20.9231  -29.8812   21.7034 H   0  0  0  0  0  0
  -26.0188  -38.2870   24.1458 H   0  0  0  0  0  0
  -31.5932  -17.4893   21.2897 H   0  0  0  0  0  0
  -30.3452  -18.7505   15.5582 H   0  0  0  0  0  0
  -28.7343  -18.4287   16.2000 H   0  0  0  0  0  0
  -29.7993  -17.1134   15.7127 H   0  0  0  0  0  0
  -32.1302  -19.7509   16.3998 H   0  0  0  0  0  0
  -32.5561  -20.5927   17.8396 H   0  0  0  0  0  0
  -28.2528  -24.4615   19.6346 H   0  0  0  0  0  0
  -27.7291  -22.8357   19.8640 H   0  0  0  0  0  0
  -29.7215  -23.8757   21.8952 H   0  0  0  0  0  0
  -28.4453  -22.7147   22.0766 H   0  0  0  0  0  0
  -30.0212  -22.0089   19.6988 H   0  0  0  0  0  0
  -30.6873  -23.6189   19.7669 H   0  0  0  0  0  0
  -27.3767  -24.4253   23.1553 H   0  0  0  0  0  0
  -26.8973  -24.9113   21.5670 H   0  0  0  0  0  0
  -29.8223  -24.2651   17.6261 H   0  0  0  0  0  0
  -28.8002  -22.8690   17.4923 H   0  0  0  0  0  0
  -29.1864  -26.0166   23.2637 H   0  0  0  0  0  0
  -27.7296  -26.8377   22.8130 H   0  0  0  0  0  0
  -31.8561  -22.6812   17.6067 H   0  0  0  0  0  0
  -30.9640  -22.7881   16.1051 H   0  0  0  0  0  0
  -30.0809  -26.1203   20.9957 H   0  0  0  0  0  0
  -29.6018  -27.7181   21.4647 H   0  0  0  0  0  0
  -28.9461  -15.3511   20.5561 H   0  0  0  0  0  0
  -29.9505  -20.8508   17.8957 H   0  0  0  0  0  0
  -30.1220  -20.7778   16.2852 H   0  0  0  0  0  0
  1 25  1  0  0  0
  1 30  2  0  0  0
  1 87  1  0  0  0
  2  3  1  0  0  0
  2 25  1  0  0  0
  2 91  1  0  0  0
  2 92  1  0  0  0
  3  4  1  0  0  0
  3 93  1  0  0  0
  3 94  1  0  0  0
  4  5  1  0  0  0
  4 95  1  0  0  0
  4 96  1  0  0  0
  5  6  1  0  0  0
  5 26  1  0  0  0
  5 97  1  0  0  0
  6 25  1  0  0  0
  6 98  1  0  0  0
  6 99  1  0  0  0
  7  8  2  0  0  0
  7 26  1  0  0  0
  7 29  1  0  0  0
  8  9  1  0  0  0
  8 22  1  0  0  0
  9 10  1  0  0  0
  9 27  2  0  0  0
 10 11  2  0  0  0
 10 15  1  0  0  0
 11 12  1  0  0  0
 11100  1  0  0  0
 12 13  2  0  0  0
 12101  1  0  0  0
 13 14  1  0  0  0
 13 31  1  0  0  0
 14 15  2  0  0  0
 14102  1  0  0  0
 15103  1  0  0  0
 16 17  2  0  0  0
 16 21  1  0  0  0
 16 31  1  0  0  0
 17 18  1  0  0  0
 17104  1  0  0  0
 18 19  2  0  0  0
 18105  1  0  0  0
 19 20  1  0  0  0
 19 24  1  0  0  0
 20 21  2  0  0  0
 20106  1  0  0  0
 21 23  1  0  0  0
 22 28  1  0  0  0
 22 32  2  0  0  0
 26 27  1  0  0  0
 28107  1  0  0  0
 28108  1  0  0  0
 29109  1  0  0  0
 29110  1  0  0  0
 33 34  1  0  0  0
 33 66  1  0  0  0
 33 70  2  0  0  0
 34 36  1  0  0  0
 34 59  1  0  0  0
 34111  1  0  0  0
 35 44  2  0  0  0
 35 45  1  0  0  0
 35 68  1  0  0  0
 36 56  1  0  0  0
 36112  1  0  0  0
 37 39  1  0  0  0
 37 47  1  0  0  0
 37 66  1  0  0  0
 37113  1  0  0  0
 38 43  2  0  0  0
 38 46  1  0  0  0
 38 47  1  0  0  0
 39 64  1  0  0  0
 39 67  2  0  0  0
 40 52  1  0  0  0
 40 53  2  0  0  0
 40 58  1  0  0  0
 41114  1  0  0  0
 41115  1  0  0  0
 41116  1  0  0  0
 41 48  1  0  0  0
 42 43  1  0  0  0
 42 66  1  0  0  0
 42117  1  0  0  0
 42118  1  0  0  0
 43 44  1  0  0  0
 44119  1  0  0  0
 45 46  2  0  0  0
 45120  1  0  0  0
 46121  1  0  0  0
 47122  1  0  0  0
 47123  1  0  0  0
 48 56  1  0  0  0
 48 65  1  0  0  0
 48124  1  0  0  0
 49 50  1  0  0  0
 49 53  1  0  0  0
 49 64  1  0  0  0
 49125  1  0  0  0
 50 51  1  0  0  0
 50126  1  0  0  0
 50127  1  0  0  0
 51 52  1  0  0  0
 51128  1  0  0  0
 51129  1  0  0  0
 52130  1  0  0  0
 52131  1  0  0  0
 53 54  1  0  0  0
 54 55  2  0  0  0
 54132  1  0  0  0
 55 57  1  0  0  0
 55133  1  0  0  0
 56 69  2  0  0  0
 57 58  2  0  0  0
 57134  1  0  0  0
 58135  1  0  0  0
 59 60  1  0  0  0
 59 61  1  0  0  0
 59 62  1  0  0  0
 60136  1  0  0  0
 60137  1  0  0  0
 60138  1  0  0  0
 61139  1  0  0  0
 61140  1  0  0  0
 61141  1  0  0  0
 62142  1  0  0  0
 62143  1  0  0  0
 62144  1  0  0  0
 63 65  1  0  0  0
 63145  1  0  0  0
 63146  1  0  0  0
 63147  1  0  0  0
 64148  1  0  0  0
 65149  1  0  0  0
 68 86  1  0  0  0
 71 74  2  0  0  0
 71 75  1  0  0  0
 71150  1  0  0  0
 72 73  1  0  0  0
 72 76  2  0  0  0
 72 77  1  0  0  0
 73 75  2  0  0  0
 73 78  1  0  0  0
 74 76  1  0  0  0
 74 87  1  0  0  0
 75 89  1  0  0  0
 76 90  1  0  0  0
 77151  1  0  0  0
 77152  1  0  0  0
 77153  1  0  0  0
 78 88  1  0  0  0
 78154  1  0  0  0
 78155  1  0  0  0
 79 80  1  0  0  0
 79 81  1  0  0  0
 79156  1  0  0  0
 79157  1  0  0  0
 80 82  1  0  0  0
 80158  1  0  0  0
 80159  1  0  0  0
 81 83  1  0  0  0
 81160  1  0  0  0
 81161  1  0  0  0
 82 84  1  0  0  0
 82162  1  0  0  0
 82163  1  0  0  0
 83 85  1  0  0  0
 83164  1  0  0  0
 83165  1  0  0  0
 84 86  1  0  0  0
 84166  1  0  0  0
 84167  1  0  0  0
 85 88  1  0  0  0
 85168  1  0  0  0
 85169  1  0  0  0
 86170  1  0  0  0
 86171  1  0  0  0
 87172  1  0  0  0
 88173  1  0  0  0
 88174  1  0  0  0
M  CHG  1  88   1
M  ISO  4   1 100  68 101  86 101  87 100
M  END
> <chiral flag>
0

> <version>
0

> <s_m_source_file>
/data/baiqing/PycharmProjects/Reinvent-master-3.2/result/LINK_invent/BTK/process_docking_weight1_custom_sum_contain_oxygen_bond_distance_aromatic_linkinvent_7_9_3/rearranged_h_0026.sdf

> <i_m_source_file_index>
5

> <r_mmod_Potential_Energy-OPLS-2005>
-166.521377563477

> <r_mmod_Stretch_Energy-OPLS-2005>
33.9245147705078

> <r_mmod_Bend_Energy-OPLS-2005>
99.3341979980469

> <r_mmod_Torsional_Energy-OPLS-2005>
289.772674560547

> <r_mmod_Improper_Torsional_Energy-OPLS-2005>
11.1298799514771

> <r_mmod_Van_der_Waal_Energy-OPLS-2005>
155.30632019043

> <r_mmod_Electrostatic_Energy-OPLS-2005>
-320.281768798828

> <r_mmod_Solvation_Energy-OPLS-2005>
-453.513092041016

> <b_mmod_Minimization_Converged-OPLS-2005>
0

> <r_mmod_RMS_Derivative-OPLS-2005>
3.17977833747864

$$$$
5
                    3D
 Structure written by MMmdl.
149157  0  0  1  0            999 V2000
  -30.4705  -15.2207   20.4026 C   0  0  0  0  0  0
  -30.4419  -12.7828   19.5294 C   0  0  0  0  0  0
  -29.5412  -12.5690   18.2873 C   0  0  0  0  0  0
  -28.0843  -12.3060   18.7046 C   0  0  0  0  0  0
  -27.6143  -13.2756   19.8193 C   0  0  2  0  0  0
  -28.6468  -13.4324   20.9559 C   0  0  0  0  0  0
  -25.2385  -13.8254   20.5685 C   0  0  0  0  0  0
  -24.1744  -13.0449   20.9240 C   0  0  0  0  0  0
  -24.6405  -11.6951   20.8742 C   0  0  0  0  0  0
  -23.9102  -10.4308   21.0389 C   0  0  0  0  0  0
  -24.3649   -9.4223   21.9165 C   0  0  0  0  0  0
  -23.6321   -8.2263   22.0748 C   0  0  0  0  0  0
  -22.4296   -8.0294   21.3548 C   0  0  0  0  0  0
  -21.9928   -9.0264   20.4647 C   0  0  0  0  0  0
  -22.7267  -10.2135   20.3050 C   0  0  0  0  0  0
  -21.6866   -6.0742   22.5274 C   0  0  0  0  0  0
  -21.4022   -6.5640   23.8209 C   0  0  0  0  0  0
  -21.3671   -5.6780   24.9170 C   0  0  0  0  0  0
  -21.6056   -4.3048   24.7215 C   0  0  0  0  0  0
  -21.8815   -3.8142   23.4335 C   0  0  0  0  0  0
  -21.9195   -4.6968   22.3390 C   0  0  0  0  0  0
  -22.7760  -13.5205   21.1876 C   0  0  0  0  0  0
  -22.1658   -4.2151   21.0966 F   0  0  0  0  0  0
  -21.5637   -3.4529   25.7732 F   0  0  0  0  0  0
  -29.8879  -13.9268   20.3402 N   0  0  0  0  0  0
  -26.2819  -12.9540   20.3162 N   0  0  0  0  0  0
  -25.9341  -11.6652   20.5694 N   0  0  0  0  0  0
  -22.0399  -12.8225   22.0439 N   0  0  0  0  0  0
  -25.3981  -15.1987   20.4066 N   0  0  0  0  0  0
  -31.6894  -15.2152   20.1848 O   0  0  0  0  0  0
  -21.6663   -6.8896   21.4245 O   0  0  0  0  0  0
  -22.3437  -14.5495   20.6685 O   0  0  0  0  0  0
  -24.6609  -31.8283   23.1790 C   0  0  0  0  0  0
  -25.9295  -32.4618   23.8244 C   0  0  1  0  0  0
  -27.2105  -26.9412   20.1871 C   0  0  0  0  0  0
  -25.5968  -33.8437   24.2126 N   0  0  0  0  0  0
  -23.4766  -30.4453   21.5255 C   0  0  2  0  0  0
  -24.9327  -28.8454   20.1156 C   0  0  0  0  0  0
  -22.7666  -29.4469   22.4776 C   0  0  0  0  0  0
  -18.0328  -28.1437   22.8457 C   0  0  0  0  0  0
  -24.1499  -36.7228   23.2636 C   0  0  0  0  0  0
  -26.0474  -30.6352   21.4161 C   0  0  0  0  0  0
  -26.1150  -29.2264   20.7654 C   0  0  0  0  0  0
  -27.2499  -28.2934   20.7879 C   0  0  0  0  0  0
  -26.0212  -26.7488   19.4440 C   0  0  0  0  0  0
  -24.9116  -27.6244   19.4336 C   0  0  0  0  0  0
  -23.7198  -29.7728   20.1489 C   0  0  0  0  0  0
  -25.4135  -36.2991   24.0295 C   0  0  1  0  0  0
  -20.5949  -28.3781   23.1180 C   0  0  2  0  0  0
  -20.6811  -26.9465   22.5396 C   0  0  0  0  0  0
  -19.5781  -26.6387   21.5223 C   0  0  0  0  0  0
  -18.1960  -26.7962   22.1628 C   0  0  0  0  0  0
  -19.1589  -28.8928   23.2808 C   0  0  0  0  0  0
  -18.9495  -30.1510   23.8863 C   0  0  0  0  0  0
  -17.6488  -30.6620   24.0567 C   0  0  0  0  0  0
  -25.9094  -34.9367   23.5036 C   0  0  0  0  0  0
  -16.5383  -29.9107   23.6340 C   0  0  0  0  0  0
  -16.7303  -28.6529   23.0348 C   0  0  0  0  0  0
  -26.4542  -31.6542   25.0757 C   0  0  0  0  0  0
  -25.3651  -31.3801   26.1399 C   0  0  0  0  0  0
  -27.0396  -30.2888   24.6483 C   0  0  0  0  0  0
  -27.6063  -32.4317   25.7556 C   0  0  0  0  0  0
  -27.5589  -37.1770   24.8453 C   0  0  0  0  0  0
  -21.4340  -29.3076   22.3525 N   0  0  0  0  0  0
  -26.4289  -37.3722   23.9405 N   0  0  0  0  0  0
  -24.7491  -30.9956   22.0942 N   0  0  0  0  0  0
  -23.4210  -28.8004   23.3000 O   0  0  0  0  0  0
  -28.1745  -25.7940   20.2081 O   0  0  0  0  0  0
  -26.5727  -34.8886   22.4643 O   0  0  0  0  0  0
  -23.5682  -32.1256   23.6877 O   0  0  0  0  0  0
  -27.7396  -21.5996   20.0199 C   0  0  0  0  0  0
  -29.4640  -19.7081   20.4746 C   0  0  0  0  0  0
  -28.1651  -20.1852   20.0565 C   0  0  0  0  0  0
  -28.5197  -22.7796   20.3747 C   0  0  0  0  0  0
  -30.1840  -20.9459   20.8185 C   0  0  0  0  0  0
  -27.5871  -24.5004   22.1182 C   0  0  0  0  0  0
  -30.1767  -18.1025   20.5101 C   0  0  0  0  0  0
  -27.8172  -24.3773   20.6064 C   0  0  1  0  0  0
  -29.7648  -22.3126   20.7917 N   0  0  0  0  0  0
  -29.7369  -16.5008   20.5099 N   0  0  0  0  0  0
  -26.5927  -24.1087   20.0930 F   0  0  0  0  0  0
  -27.0076  -18.9961   19.5809 Cl  0  0  0  0  0  0
  -31.8099  -20.7597   21.3653 Cl  0  0  0  0  0  0
  -31.4611  -12.9811   19.1967 H   0  0  0  0  0  0
  -30.5046  -11.8734   20.1289 H   0  0  0  0  0  0
  -29.9170  -11.7417   17.6842 H   0  0  0  0  0  0
  -29.5854  -13.4582   17.6566 H   0  0  0  0  0  0
  -28.0246  -11.2797   19.0669 H   0  0  0  0  0  0
  -27.4245  -12.3616   17.8379 H   0  0  0  0  0  0
  -27.5362  -14.2484   19.3309 H   0  0  0  0  0  0
  -28.8008  -12.4913   21.4860 H   0  0  0  0  0  0
  -28.2924  -14.1563   21.6922 H   0  0  0  0  0  0
  -25.2790   -9.5718   22.4741 H   0  0  0  0  0  0
  -24.0031   -7.4665   22.7482 H   0  0  0  0  0  0
  -21.0849   -8.8790   19.8958 H   0  0  0  0  0  0
  -22.3715  -10.9679   19.6162 H   0  0  0  0  0  0
  -21.2003   -7.6142   23.9725 H   0  0  0  0  0  0
  -21.1506   -6.0501   25.9077 H   0  0  0  0  0  0
  -22.0581   -2.7607   23.2826 H   0  0  0  0  0  0
  -22.4010  -11.9940   22.4937 H   0  0  0  0  0  0
  -21.0996  -13.1249   22.2563 H   0  0  0  0  0  0
  -24.6173  -15.8388   20.4988 H   0  0  0  0  0  0
  -26.2217  -15.6388   20.0171 H   0  0  0  0  0  0
  -26.7370  -32.5169   23.0973 H   0  0  0  0  0  0
  -25.0004  -33.9531   25.0196 H   0  0  0  0  0  0
  -22.7907  -31.2778   21.3620 H   0  0  0  0  0  0
  -23.3775  -35.9545   23.3263 H   0  0  0  0  0  0
  -24.3579  -36.8911   22.2058 H   0  0  0  0  0  0
  -23.7245  -37.6402   23.6714 H   0  0  0  0  0  0
  -26.2298  -31.3744   20.6337 H   0  0  0  0  0  0
  -26.9077  -30.6915   22.0721 H   0  0  0  0  0  0
  -28.1401  -28.5851   21.3266 H   0  0  0  0  0  0
  -25.9044  -25.8490   18.8592 H   0  0  0  0  0  0
  -24.0289  -27.3353   18.8813 H   0  0  0  0  0  0
  -23.8872  -30.5491   19.4013 H   0  0  0  0  0  0
  -22.8259  -29.2357   19.8217 H   0  0  0  0  0  0
  -25.1336  -36.1803   25.0788 H   0  0  0  0  0  0
  -21.0046  -28.3404   24.1303 H   0  0  0  0  0  0
  -20.5720  -26.2414   23.3640 H   0  0  0  0  0  0
  -21.6673  -26.7469   22.1199 H   0  0  0  0  0  0
  -19.6952  -25.6278   21.1306 H   0  0  0  0  0  0
  -19.6724  -27.3147   20.6716 H   0  0  0  0  0  0
  -17.4228  -26.6677   21.4033 H   0  0  0  0  0  0
  -18.0385  -26.0134   22.9070 H   0  0  0  0  0  0
  -19.7963  -30.7339   24.2221 H   0  0  0  0  0  0
  -17.5038  -31.6298   24.5176 H   0  0  0  0  0  0
  -15.5383  -30.3015   23.7682 H   0  0  0  0  0  0
  -15.8694  -28.0851   22.7088 H   0  0  0  0  0  0
  -24.5812  -30.7192   25.7692 H   0  0  0  0  0  0
  -24.8858  -32.2998   26.4758 H   0  0  0  0  0  0
  -25.7837  -30.8983   27.0237 H   0  0  0  0  0  0
  -26.3026  -29.6582   24.1493 H   0  0  0  0  0  0
  -27.3900  -29.7265   25.5152 H   0  0  0  0  0  0
  -27.9015  -30.4057   23.9909 H   0  0  0  0  0  0
  -27.2656  -33.3642   26.2075 H   0  0  0  0  0  0
  -28.3910  -32.6821   25.0406 H   0  0  0  0  0  0
  -28.0679  -31.8462   26.5520 H   0  0  0  0  0  0
  -28.2571  -38.0105   24.7543 H   0  0  0  0  0  0
  -28.1126  -36.2636   24.6230 H   0  0  0  0  0  0
  -27.2308  -37.1353   25.8854 H   0  0  0  0  0  0
  -20.9590  -29.8773   21.6659 H   0  0  0  0  0  0
  -26.0144  -38.2781   24.1426 H   0  0  0  0  0  0
  -26.7129  -21.7720   19.7310 H   0  0  0  0  0  0
  -27.0027  -25.3812   22.3821 H   0  0  0  0  0  0
  -28.5389  -24.5597   22.6434 H   0  0  0  0  0  0
  -27.0532  -23.6288   22.4980 H   0  0  0  0  0  0
  -30.7920  -18.1458   21.4091 H   0  0  0  0  0  0
  -30.9023  -18.1559   19.6968 H   0  0  0  0  0  0
  -28.7472  -16.3588   20.6456 H   0  0  0  0  0  0
  1 25  1  0  0  0
  1 30  2  0  0  0
  1 80  1  0  0  0
  2  3  1  0  0  0
  2 25  1  0  0  0
  2 84  1  0  0  0
  2 85  1  0  0  0
  3  4  1  0  0  0
  3 86  1  0  0  0
  3 87  1  0  0  0
  4  5  1  0  0  0
  4 88  1  0  0  0
  4 89  1  0  0  0
  5  6  1  0  0  0
  5 26  1  0  0  0
  5 90  1  0  0  0
  6 25  1  0  0  0
  6 91  1  0  0  0
  6 92  1  0  0  0
  7  8  2  0  0  0
  7 26  1  0  0  0
  7 29  1  0  0  0
  8  9  1  0  0  0
  8 22  1  0  0  0
  9 10  1  0  0  0
  9 27  2  0  0  0
 10 11  2  0  0  0
 10 15  1  0  0  0
 11 12  1  0  0  0
 11 93  1  0  0  0
 12 13  2  0  0  0
 12 94  1  0  0  0
 13 14  1  0  0  0
 13 31  1  0  0  0
 14 15  2  0  0  0
 14 95  1  0  0  0
 15 96  1  0  0  0
 16 17  2  0  0  0
 16 21  1  0  0  0
 16 31  1  0  0  0
 17 18  1  0  0  0
 17 97  1  0  0  0
 18 19  2  0  0  0
 18 98  1  0  0  0
 19 20  1  0  0  0
 19 24  1  0  0  0
 20 21  2  0  0  0
 20 99  1  0  0  0
 21 23  1  0  0  0
 22 28  1  0  0  0
 22 32  2  0  0  0
 26 27  1  0  0  0
 28100  1  0  0  0
 28101  1  0  0  0
 29102  1  0  0  0
 29103  1  0  0  0
 33 34  1  0  0  0
 33 66  1  0  0  0
 33 70  2  0  0  0
 34 36  1  0  0  0
 34 59  1  0  0  0
 34104  1  0  0  0
 35 44  2  0  0  0
 35 45  1  0  0  0
 35 68  1  0  0  0
 36 56  1  0  0  0
 36105  1  0  0  0
 37 39  1  0  0  0
 37 47  1  0  0  0
 37 66  1  0  0  0
 37106  1  0  0  0
 38 43  2  0  0  0
 38 46  1  0  0  0
 38 47  1  0  0  0
 39 64  1  0  0  0
 39 67  2  0  0  0
 40 52  1  0  0  0
 40 53  2  0  0  0
 40 58  1  0  0  0
 41107  1  0  0  0
 41108  1  0  0  0
 41109  1  0  0  0
 41 48  1  0  0  0
 42 43  1  0  0  0
 42 66  1  0  0  0
 42110  1  0  0  0
 42111  1  0  0  0
 43 44  1  0  0  0
 44112  1  0  0  0
 45 46  2  0  0  0
 45113  1  0  0  0
 46114  1  0  0  0
 47115  1  0  0  0
 47116  1  0  0  0
 48 56  1  0  0  0
 48 65  1  0  0  0
 48117  1  0  0  0
 49 50  1  0  0  0
 49 53  1  0  0  0
 49 64  1  0  0  0
 49118  1  0  0  0
 50 51  1  0  0  0
 50119  1  0  0  0
 50120  1  0  0  0
 51 52  1  0  0  0
 51121  1  0  0  0
 51122  1  0  0  0
 52123  1  0  0  0
 52124  1  0  0  0
 53 54  1  0  0  0
 54 55  2  0  0  0
 54125  1  0  0  0
 55 57  1  0  0  0
 55126  1  0  0  0
 56 69  2  0  0  0
 57 58  2  0  0  0
 57127  1  0  0  0
 58128  1  0  0  0
 59 60  1  0  0  0
 59 61  1  0  0  0
 59 62  1  0  0  0
 60129  1  0  0  0
 60130  1  0  0  0
 60131  1  0  0  0
 61132  1  0  0  0
 61133  1  0  0  0
 61134  1  0  0  0
 62135  1  0  0  0
 62136  1  0  0  0
 62137  1  0  0  0
 63 65  1  0  0  0
 63138  1  0  0  0
 63139  1  0  0  0
 63140  1  0  0  0
 64141  1  0  0  0
 65142  1  0  0  0
 68 78  1  0  0  0
 71 73  2  0  0  0
 71 74  1  0  0  0
 71143  1  0  0  0
 72 73  1  0  0  0
 72 75  2  0  0  0
 72 77  1  0  0  0
 73 82  1  0  0  0
 74 78  1  0  0  0
 74 79  2  0  0  0
 75 79  1  0  0  0
 75 83  1  0  0  0
 76144  1  0  0  0
 76145  1  0  0  0
 76146  1  0  0  0
 76 78  1  0  0  0
 77 80  1  0  0  0
 77147  1  0  0  0
 77148  1  0  0  0
 78 81  1  0  0  0
 80149  1  0  0  0
M  ISO  4   1 100  68 101  78 101  80 100
M  END
> <chiral flag>
0

> <version>
0

> <s_m_source_file>
/data/baiqing/PycharmProjects/Reinvent-master-3.2/result/LINK_invent/BTK/process_docking_weight1_custom_sum_contain_oxygen_bond_distance_aromatic_linkinvent_7_9_3/rearranged_h_0026.sdf

> <i_m_source_file_index>
6

> <r_mmod_Potential_Energy-OPLS-2005>
964.645751953125

> <r_mmod_Stretch_Energy-OPLS-2005>
489.286285400391

> <r_mmod_Bend_Energy-OPLS-2005>
459.957763671875

> <r_mmod_Torsional_Energy-OPLS-2005>
208.5810546875

> <r_mmod_Improper_Torsional_Energy-OPLS-2005>
6.50540161132812

> <r_mmod_Van_der_Waal_Energy-OPLS-2005>
138.257995605469

> <r_mmod_Electrostatic_Energy-OPLS-2005>
-559.833129882812

> <r_mmod_Solvation_Energy-OPLS-2005>
-207.388610839844

> <b_mmod_Minimization_Converged-OPLS-2005>
0

> <r_mmod_RMS_Derivative-OPLS-2005>
2.7880687713623

$$$$
6
                    3D
 Structure written by MMmdl.
175184  0  0  1  0            999 V2000
  -30.4545  -15.2119   20.3472 C   0  0  0  0  0  0
  -30.4433  -12.7714   19.4973 C   0  0  0  0  0  0
  -29.5317  -12.5485   18.2659 C   0  0  0  0  0  0
  -28.0762  -12.2924   18.6998 C   0  0  0  0  0  0
  -27.6133  -13.2646   19.8139 C   0  0  2  0  0  0
  -28.6552  -13.4269   20.9370 C   0  0  0  0  0  0
  -25.2432  -13.8231   20.5743 C   0  0  0  0  0  0
  -24.1771  -13.0434   20.9230 C   0  0  0  0  0  0
  -24.6410  -11.6925   20.8750 C   0  0  0  0  0  0
  -23.9100  -10.4294   21.0414 C   0  0  0  0  0  0
  -24.3652   -9.4203   21.9186 C   0  0  0  0  0  0
  -23.6316   -8.2244   22.0749 C   0  0  0  0  0  0
  -22.4288   -8.0294   21.3550 C   0  0  0  0  0  0
  -21.9939   -9.0268   20.4641 C   0  0  0  0  0  0
  -22.7277  -10.2142   20.3057 C   0  0  0  0  0  0
  -21.6859   -6.0746   22.5285 C   0  0  0  0  0  0
  -21.4019   -6.5649   23.8221 C   0  0  0  0  0  0
  -21.3667   -5.6798   24.9184 C   0  0  0  0  0  0
  -21.6049   -4.3057   24.7233 C   0  0  0  0  0  0
  -21.8823   -3.8151   23.4351 C   0  0  0  0  0  0
  -21.9195   -4.6971   22.3406 C   0  0  0  0  0  0
  -22.7792  -13.5199   21.1884 C   0  0  0  0  0  0
  -22.1656   -4.2157   21.0977 F   0  0  0  0  0  0
  -21.5629   -3.4535   25.7741 F   0  0  0  0  0  0
  -29.8803  -13.9167   20.2889 N   0  0  0  0  0  0
  -26.2841  -12.9480   20.3205 N   0  0  0  0  0  0
  -25.9341  -11.6592   20.5711 N   0  0  0  0  0  0
  -22.0463  -12.8166   22.0434 N   0  0  0  0  0  0
  -25.4124  -15.1968   20.4223 N   0  0  0  0  0  0
  -31.6921  -15.2006   20.2914 O   0  0  0  0  0  0
  -21.6646   -6.8893   21.4248 O   0  0  0  0  0  0
  -22.3484  -14.5512   20.6749 O   0  0  0  0  0  0
  -24.6593  -31.8285   23.1751 C   0  0  0  0  0  0
  -25.9288  -32.4622   23.8193 C   0  0  1  0  0  0
  -27.2189  -26.9728   20.1684 C   0  0  0  0  0  0
  -25.5986  -33.8442   24.2106 N   0  0  0  0  0  0
  -23.4703  -30.4413   21.5268 C   0  0  2  0  0  0
  -24.9207  -28.8355   20.1163 C   0  0  0  0  0  0
  -22.7634  -29.4455   22.4834 C   0  0  0  0  0  0
  -18.0317  -28.1389   22.8452 C   0  0  0  0  0  0
  -24.1496  -36.7218   23.2640 C   0  0  0  0  0  0
  -26.0374  -30.6482   21.3985 C   0  0  0  0  0  0
  -26.1059  -29.2427   20.7415 C   0  0  0  0  0  0
  -27.2510  -28.3315   20.7434 C   0  0  0  0  0  0
  -26.0014  -26.7084   19.5008 C   0  0  0  0  0  0
  -24.8911  -27.5871   19.4765 C   0  0  0  0  0  0
  -23.7048  -29.7579   20.1524 C   0  0  0  0  0  0
  -25.4138  -36.2997   24.0298 C   0  0  1  0  0  0
  -20.5934  -28.3719   23.1201 C   0  0  2  0  0  0
  -20.6809  -26.9408   22.5395 C   0  0  0  0  0  0
  -19.5784  -26.6349   21.5208 C   0  0  0  0  0  0
  -18.1960  -26.7921   22.1605 C   0  0  0  0  0  0
  -19.1580  -28.8869   23.2812 C   0  0  0  0  0  0
  -18.9492  -30.1462   23.8836 C   0  0  0  0  0  0
  -17.6492  -30.6582   24.0541 C   0  0  0  0  0  0
  -25.9099  -34.9375   23.5016 C   0  0  0  0  0  0
  -16.5377  -29.9067   23.6347 C   0  0  0  0  0  0
  -16.7297  -28.6486   23.0360 C   0  0  0  0  0  0
  -26.4559  -31.6543   25.0696 C   0  0  0  0  0  0
  -25.3697  -31.3779   26.1363 C   0  0  0  0  0  0
  -27.0444  -30.2917   24.6393 C   0  0  0  0  0  0
  -27.6060  -32.4342   25.7490 C   0  0  0  0  0  0
  -27.5581  -37.1765   24.8460 C   0  0  0  0  0  0
  -21.4313  -29.3025   22.3566 N   0  0  0  0  0  0
  -26.4283  -37.3733   23.9412 N   0  0  0  0  0  0
  -24.7435  -30.9976   22.0880 N   0  0  0  0  0  0
  -23.4194  -28.8029   23.3064 O   0  0  0  0  0  0
  -28.2443  -25.9010   20.2018 O   0  0  0  0  0  0
  -26.5694  -34.8899   22.4606 O   0  0  0  0  0  0
  -23.5671  -32.1251   23.6870 O   0  0  0  0  0  0
  -23.9088  -22.2643   20.1858 C   0  0  0  0  0  0
  -22.8650  -22.3337   19.2281 C   0  0  0  0  0  0
  -24.6845  -21.1907   19.8521 C   0  0  0  0  0  0
  -29.9294  -17.8311   18.0280 C   0  0  0  0  0  0
  -29.6198  -19.2984   18.4752 C   0  0  0  0  0  0
  -29.1866  -16.6803   18.7841 C   0  0  0  0  0  0
  -29.7011  -18.0098   20.7474 C   0  0  0  0  0  0
  -29.0716  -19.4271   19.9103 C   0  0  1  0  0  0
  -21.7584  -23.3405   19.0953 C   0  0  0  0  0  0
  -23.4154  -18.8207   17.1149 C   0  0  0  0  0  0
  -25.9591  -20.6882   20.4670 C   0  0  0  0  0  0
  -28.9430  -22.7936   20.0966 C   0  0  0  0  0  0
  -24.5377  -19.5274   17.8925 C   0  0  0  0  0  0
  -27.9718  -24.2909   20.2619 C   0  0  0  0  0  0
  -28.4641  -21.0925   20.3245 C   0  0  1  0  0  0
  -22.9825  -21.3507   18.3463 N   0  0  0  0  0  0
  -24.0811  -20.6397   18.7252 N   0  0  0  0  0  0
  -29.6955  -16.4760   20.1554 N   0  0  0  0  0  0
  -27.1229  -21.1627   19.6896 N   0  3  0  0  0  0
  -24.1790  -23.3670   21.4891 Cl  0  0  0  0  0  0
  -31.4610  -12.9825   19.1655 H   0  0  0  0  0  0
  -30.5096  -11.8666   20.1022 H   0  0  0  0  0  0
  -29.8978  -11.7143   17.6659 H   0  0  0  0  0  0
  -29.5718  -13.4272   17.6216 H   0  0  0  0  0  0
  -28.0176  -11.2675   19.0678 H   0  0  0  0  0  0
  -27.4079  -12.3442   17.8397 H   0  0  0  0  0  0
  -27.5303  -14.2352   19.3245 H   0  0  0  0  0  0
  -28.8245  -12.4905   21.4692 H   0  0  0  0  0  0
  -28.3078  -14.1524   21.6743 H   0  0  0  0  0  0
  -25.2799   -9.5669   22.4768 H   0  0  0  0  0  0
  -24.0018   -7.4631   22.7464 H   0  0  0  0  0  0
  -21.0873   -8.8799   19.8935 H   0  0  0  0  0  0
  -22.3739  -10.9691   19.6171 H   0  0  0  0  0  0
  -21.2005   -7.6155   23.9722 H   0  0  0  0  0  0
  -21.1479   -6.0530   25.9092 H   0  0  0  0  0  0
  -22.0594   -2.7612   23.2854 H   0  0  0  0  0  0
  -22.4086  -11.9829   22.4821 H   0  0  0  0  0  0
  -21.1093  -13.1189   22.2641 H   0  0  0  0  0  0
  -24.6525  -15.8559   20.5486 H   0  0  0  0  0  0
  -26.2802  -15.6315   20.1400 H   0  0  0  0  0  0
  -26.7340  -32.5170   23.0892 H   0  0  0  0  0  0
  -25.0150  -33.9531   25.0271 H   0  0  0  0  0  0
  -22.7809  -31.2715   21.3615 H   0  0  0  0  0  0
  -23.3792  -35.9516   23.3261 H   0  0  0  0  0  0
  -24.3565  -36.8902   22.2060 H   0  0  0  0  0  0
  -23.7209  -37.6374   23.6721 H   0  0  0  0  0  0
  -26.2131  -31.3893   20.6179 H   0  0  0  0  0  0
  -26.9000  -30.7015   22.0499 H   0  0  0  0  0  0
  -28.1492  -28.6436   21.2566 H   0  0  0  0  0  0
  -25.8751  -25.7633   18.9969 H   0  0  0  0  0  0
  -23.9896  -27.2697   18.9704 H   0  0  0  0  0  0
  -23.8542  -30.5283   19.3948 H   0  0  0  0  0  0
  -22.8127  -29.2100   19.8410 H   0  0  0  0  0  0
  -25.1337  -36.1809   25.0789 H   0  0  0  0  0  0
  -21.0017  -28.3320   24.1325 H   0  0  0  0  0  0
  -20.5715  -26.2326   23.3623 H   0  0  0  0  0  0
  -21.6677  -26.7408   22.1187 H   0  0  0  0  0  0
  -19.6971  -25.6249   21.1262 H   0  0  0  0  0  0
  -19.6745  -27.3130   20.6718 H   0  0  0  0  0  0
  -17.4246  -26.6647   21.3995 H   0  0  0  0  0  0
  -18.0347  -26.0070   22.9002 H   0  0  0  0  0  0
  -19.7971  -30.7292   24.2175 H   0  0  0  0  0  0
  -17.5050  -31.6263   24.5145 H   0  0  0  0  0  0
  -15.5377  -30.2958   23.7713 H   0  0  0  0  0  0
  -15.8689  -28.0793   22.7121 H   0  0  0  0  0  0
  -24.5914  -30.7084   25.7684 H   0  0  0  0  0  0
  -24.8847  -32.2973   26.4656 H   0  0  0  0  0  0
  -25.7947  -30.9047   27.0223 H   0  0  0  0  0  0
  -26.3103  -29.6602   24.1385 H   0  0  0  0  0  0
  -27.3971  -29.7269   25.5027 H   0  0  0  0  0  0
  -27.9044  -30.4100   23.9799 H   0  0  0  0  0  0
  -27.2649  -33.3701   26.1931 H   0  0  0  0  0  0
  -28.3947  -32.6808   25.0366 H   0  0  0  0  0  0
  -28.0654  -31.8556   26.5513 H   0  0  0  0  0  0
  -28.2575  -38.0090   24.7565 H   0  0  0  0  0  0
  -28.1103  -36.2619   24.6235 H   0  0  0  0  0  0
  -27.2289  -37.1352   25.8857 H   0  0  0  0  0  0
  -20.9560  -29.8695   21.6683 H   0  0  0  0  0  0
  -26.0136  -38.2788   24.1453 H   0  0  0  0  0  0
  -31.0036  -17.6556   18.1129 H   0  0  0  0  0  0
  -29.7213  -17.7470   16.9590 H   0  0  0  0  0  0
  -28.8998  -19.7262   17.7781 H   0  0  0  0  0  0
  -30.5237  -19.9001   18.3704 H   0  0  0  0  0  0
  -29.2871  -15.7650   18.1984 H   0  0  0  0  0  0
  -28.1136  -16.8732   18.8224 H   0  0  0  0  0  0
  -29.1878  -17.9524   21.7064 H   0  0  0  0  0  0
  -30.7396  -18.2245   21.0049 H   0  0  0  0  0  0
  -28.0896  -18.9727   19.7986 H   0  0  0  0  0  0
  -21.8235  -24.1068   19.8672 H   0  0  0  0  0  0
  -20.7802  -22.8689   19.1814 H   0  0  0  0  0  0
  -21.8004  -23.8466   18.1311 H   0  0  0  0  0  0
  -23.8138  -17.9881   16.5342 H   0  0  0  0  0  0
  -22.9271  -19.4978   16.4137 H   0  0  0  0  0  0
  -22.6570  -18.4227   17.7899 H   0  0  0  0  0  0
  -25.9542  -19.6011   20.5379 H   0  0  0  0  0  0
  -26.0252  -21.0631   21.4885 H   0  0  0  0  0  0
  -29.8101  -22.9334   20.7432 H   0  0  0  0  0  0
  -29.3643  -22.8468   19.0923 H   0  0  0  0  0  0
  -25.2801  -19.9114   17.1918 H   0  0  0  0  0  0
  -25.0440  -18.7946   18.5206 H   0  0  0  0  0  0
  -27.4959  -24.1844   21.2371 H   0  0  0  0  0  0
  -27.1578  -24.1337   19.5575 H   0  0  0  0  0  0
  -28.3095  -21.0390   21.4032 H   0  0  0  0  0  0
  -26.9508  -22.1372   19.5113 H   0  0  0  0  0  0
  -27.1476  -20.7120   18.7888 H   0  0  0  0  0  0
  1 25  1  0  0  0
  1 30  2  0  0  0
  1 88  1  0  0  0
  2  3  1  0  0  0
  2 25  1  0  0  0
  2 91  1  0  0  0
  2 92  1  0  0  0
  3  4  1  0  0  0
  3 93  1  0  0  0
  3 94  1  0  0  0
  4  5  1  0  0  0
  4 95  1  0  0  0
  4 96  1  0  0  0
  5  6  1  0  0  0
  5 26  1  0  0  0
  5 97  1  0  0  0
  6 25  1  0  0  0
  6 98  1  0  0  0
  6 99  1  0  0  0
  7  8  2  0  0  0
  7 26  1  0  0  0
  7 29  1  0  0  0
  8  9  1  0  0  0
  8 22  1  0  0  0
  9 10  1  0  0  0
  9 27  2  0  0  0
 10 11  2  0  0  0
 10 15  1  0  0  0
 11 12  1  0  0  0
 11100  1  0  0  0
 12 13  2  0  0  0
 12101  1  0  0  0
 13 14  1  0  0  0
 13 31  1  0  0  0
 14 15  2  0  0  0
 14102  1  0  0  0
 15103  1  0  0  0
 16 17  2  0  0  0
 16 21  1  0  0  0
 16 31  1  0  0  0
 17 18  1  0  0  0
 17104  1  0  0  0
 18 19  2  0  0  0
 18105  1  0  0  0
 19 20  1  0  0  0
 19 24  1  0  0  0
 20 21  2  0  0  0
 20106  1  0  0  0
 21 23  1  0  0  0
 22 28  1  0  0  0
 22 32  2  0  0  0
 26 27  1  0  0  0
 28107  1  0  0  0
 28108  1  0  0  0
 29109  1  0  0  0
 29110  1  0  0  0
 33 34  1  0  0  0
 33 66  1  0  0  0
 33 70  2  0  0  0
 34 36  1  0  0  0
 34 59  1  0  0  0
 34111  1  0  0  0
 35 44  2  0  0  0
 35 45  1  0  0  0
 35 68  1  0  0  0
 36 56  1  0  0  0
 36112  1  0  0  0
 37 39  1  0  0  0
 37 47  1  0  0  0
 37 66  1  0  0  0
 37113  1  0  0  0
 38 43  2  0  0  0
 38 46  1  0  0  0
 38 47  1  0  0  0
 39 64  1  0  0  0
 39 67  2  0  0  0
 40 52  1  0  0  0
 40 53  2  0  0  0
 40 58  1  0  0  0
 41114  1  0  0  0
 41115  1  0  0  0
 41116  1  0  0  0
 41 48  1  0  0  0
 42 43  1  0  0  0
 42 66  1  0  0  0
 42117  1  0  0  0
 42118  1  0  0  0
 43 44  1  0  0  0
 44119  1  0  0  0
 45 46  2  0  0  0
 45120  1  0  0  0
 46121  1  0  0  0
 47122  1  0  0  0
 47123  1  0  0  0
 48 56  1  0  0  0
 48 65  1  0  0  0
 48124  1  0  0  0
 49 50  1  0  0  0
 49 53  1  0  0  0
 49 64  1  0  0  0
 49125  1  0  0  0
 50 51  1  0  0  0
 50126  1  0  0  0
 50127  1  0  0  0
 51 52  1  0  0  0
 51128  1  0  0  0
 51129  1  0  0  0
 52130  1  0  0  0
 52131  1  0  0  0
 53 54  1  0  0  0
 54 55  2  0  0  0
 54132  1  0  0  0
 55 57  1  0  0  0
 55133  1  0  0  0
 56 69  2  0  0  0
 57 58  2  0  0  0
 57134  1  0  0  0
 58135  1  0  0  0
 59 60  1  0  0  0
 59 61  1  0  0  0
 59 62  1  0  0  0
 60136  1  0  0  0
 60137  1  0  0  0
 60138  1  0  0  0
 61139  1  0  0  0
 61140  1  0  0  0
 61141  1  0  0  0
 62142  1  0  0  0
 62143  1  0  0  0
 62144  1  0  0  0
 63 65  1  0  0  0
 63145  1  0  0  0
 63146  1  0  0  0
 63147  1  0  0  0
 64148  1  0  0  0
 65149  1  0  0  0
 68 84  1  0  0  0
 71 72  1  0  0  0
 71 73  2  0  0  0
 71 90  1  0  0  0
 72 79  1  0  0  0
 72 86  2  0  0  0
 73 81  1  0  0  0
 73 87  1  0  0  0
 74 75  1  0  0  0
 74 76  1  0  0  0
 74150  1  0  0  0
 74151  1  0  0  0
 75152  1  0  0  0
 75153  1  0  0  0
 75 78  1  0  0  0
 76 88  1  0  0  0
 76154  1  0  0  0
 76155  1  0  0  0
 77 78  1  0  0  0
 77 88  1  0  0  0
 77156  1  0  0  0
 77157  1  0  0  0
 78 85  1  0  0  0
 78158  1  0  0  0
 79159  1  0  0  0
 79160  1  0  0  0
 79161  1  0  0  0
 80 83  1  0  0  0
 80162  1  0  0  0
 80163  1  0  0  0
 80164  1  0  0  0
 81 89  1  0  0  0
 81165  1  0  0  0
 81166  1  0  0  0
 82 84  1  0  0  0
 82167  1  0  0  0
 82168  1  0  0  0
 82 85  1  0  0  0
 83 87  1  0  0  0
 83169  1  0  0  0
 83170  1  0  0  0
 84171  1  0  0  0
 84172  1  0  0  0
 85 89  1  0  0  0
 85173  1  0  0  0
 86 87  1  0  0  0
 89174  1  0  0  0
 89175  1  0  0  0
M  CHG  1  89   1
M  ISO  4   1 100  68 101  84 101  88 100
M  END
> <chiral flag>
0

> <version>
0

> <s_m_source_file>
/data/baiqing/PycharmProjects/Reinvent-master-3.2/result/LINK_invent/BTK/process_docking_weight1_custom_sum_contain_oxygen_bond_distance_aromatic_linkinvent_7_9_3/rearranged_h_0026.sdf

> <i_m_source_file_index>
7

> <r_mmod_Potential_Energy-OPLS-2005>
1253.42065429688

> <r_mmod_Stretch_Energy-OPLS-2005>
578.858337402344

> <r_mmod_Bend_Energy-OPLS-2005>
491.428497314453

> <r_mmod_Torsional_Energy-OPLS-2005>
400.582916259766

> <r_mmod_Improper_Torsional_Energy-OPLS-2005>
10.256007194519

> <r_mmod_Van_der_Waal_Energy-OPLS-2005>
94.0889587402344

> <r_mmod_Electrostatic_Energy-OPLS-2005>
-222.113555908203

> <r_mmod_Solvation_Energy-OPLS-2005>
-500.6767578125

> <b_mmod_Minimization_Converged-OPLS-2005>
0

> <r_mmod_RMS_Derivative-OPLS-2005>
2.24982953071594

$$$$
7
                    3D
 Structure written by MMmdl.
165173  0  0  1  0            999 V2000
  -30.7301  -14.4229   20.6091 C   0  0  0  0  0  0
  -30.4263  -12.2950   19.4074 C   0  0  0  0  0  0
  -29.4991  -12.5236   18.1980 C   0  0  0  0  0  0
  -28.0180  -12.3934   18.6064 C   0  0  0  0  0  0
  -27.6690  -13.2081   19.8832 C   0  0  2  0  0  0
  -28.7122  -12.9543   20.9955 C   0  0  0  0  0  0
  -25.2601  -13.8146   20.5678 C   0  0  0  0  0  0
  -24.1871  -13.0428   20.9214 C   0  0  0  0  0  0
  -24.6428  -11.6901   20.8749 C   0  0  0  0  0  0
  -23.9079  -10.4302   21.0391 C   0  0  0  0  0  0
  -24.3626   -9.4223   21.9184 C   0  0  0  0  0  0
  -23.6298   -8.2257   22.0734 C   0  0  0  0  0  0
  -22.4273   -8.0302   21.3534 C   0  0  0  0  0  0
  -21.9923   -9.0277   20.4635 C   0  0  0  0  0  0
  -22.7249  -10.2156   20.3046 C   0  0  0  0  0  0
  -21.6854   -6.0765   22.5300 C   0  0  0  0  0  0
  -21.4001   -6.5650   23.8240 C   0  0  0  0  0  0
  -21.3661   -5.6789   24.9199 C   0  0  0  0  0  0
  -21.6030   -4.3052   24.7231 C   0  0  0  0  0  0
  -21.8817   -3.8166   23.4345 C   0  0  0  0  0  0
  -21.9193   -4.6994   22.3411 C   0  0  0  0  0  0
  -22.7897  -13.5222   21.1902 C   0  0  0  0  0  0
  -22.1661   -4.2192   21.0986 F   0  0  0  0  0  0
  -21.5632   -3.4518   25.7731 F   0  0  0  0  0  0
  -30.0465  -13.2597   20.4496 N   0  0  0  0  0  0
  -26.3066  -12.9337   20.3392 N   0  0  0  0  0  0
  -25.9357  -11.6490   20.5773 N   0  0  0  0  0  0
  -22.0507  -12.8220   22.0445 N   0  0  0  0  0  0
  -25.4252  -15.1877   20.4082 N   0  0  0  0  0  0
  -31.8229  -14.6421   20.0810 O   0  0  0  0  0  0
  -21.6614   -6.8911   21.4261 O   0  0  0  0  0  0
  -22.3610  -14.5548   20.6767 O   0  0  0  0  0  0
  -24.6164  -31.8685   23.2093 C   0  0  0  0  0  0
  -25.9062  -32.4830   23.8402 C   0  0  1  0  0  0
  -27.2383  -27.4400   20.0876 C   0  0  0  0  0  0
  -25.5925  -33.8624   24.2352 N   0  0  0  0  0  0
  -23.4063  -30.4969   21.5452 C   0  0  2  0  0  0
  -24.8490  -28.9617   20.1075 C   0  0  0  0  0  0
  -22.7410  -29.4744   22.4938 C   0  0  0  0  0  0
  -18.0309  -28.1346   22.8487 C   0  0  0  0  0  0
  -24.1489  -36.7297   23.2642 C   0  0  0  0  0  0
  -25.9322  -30.8379   21.3603 C   0  0  0  0  0  0
  -26.0075  -29.4724   20.7060 C   0  0  0  0  0  0
  -27.2007  -28.7178   20.6930 C   0  0  0  0  0  0
  -26.0630  -26.9477   19.4739 C   0  0  0  0  0  0
  -24.8723  -27.6972   19.4905 C   0  0  0  0  0  0
  -23.6097  -29.8255   20.1595 C   0  0  0  0  0  0
  -25.4116  -36.3119   24.0350 C   0  0  1  0  0  0
  -20.5888  -28.3699   23.1204 C   0  0  2  0  0  0
  -20.6866  -26.9483   22.5191 C   0  0  0  0  0  0
  -19.5759  -26.6397   21.5112 C   0  0  0  0  0  0
  -18.1973  -26.7882   22.1623 C   0  0  0  0  0  0
  -19.1547  -28.8823   23.2871 C   0  0  0  0  0  0
  -18.9456  -30.1396   23.8932 C   0  0  0  0  0  0
  -17.6469  -30.6561   24.0543 C   0  0  0  0  0  0
  -25.9040  -34.9476   23.5151 C   0  0  0  0  0  0
  -16.5370  -29.9063   23.6264 C   0  0  0  0  0  0
  -16.7295  -28.6442   23.0367 C   0  0  0  0  0  0
  -26.4485  -31.6590   25.0722 C   0  0  0  0  0  0
  -25.3734  -31.3704   26.1450 C   0  0  0  0  0  0
  -27.0352  -30.3050   24.6105 C   0  0  0  0  0  0
  -27.6082  -32.4291   25.7478 C   0  0  0  0  0  0
  -27.5588  -37.1816   24.8471 C   0  0  0  0  0  0
  -21.4136  -29.3142   22.3659 N   0  0  0  0  0  0
  -26.4299  -37.3801   23.9400 N   0  0  0  0  0  0
  -24.6707  -31.0795   22.0973 N   0  0  0  0  0  0
  -23.4140  -28.8304   23.3023 O   0  0  0  0  0  0
  -28.4277  -26.7437   20.1163 O   0  0  0  0  0  0
  -26.5591  -34.8912   22.4705 O   0  0  0  0  0  0
  -23.5361  -32.1412   23.7473 O   0  0  0  0  0  0
  -25.3853  -21.9311   19.5563 C   0  0  0  0  0  0
  -24.2660  -23.5994   20.9191 C   0  0  0  0  0  0
  -26.6501  -22.4779   19.8837 C   0  0  0  0  0  0
  -26.7130  -23.6647   20.6786 C   0  0  0  0  0  0
  -24.1994  -22.4952   20.0555 C   0  0  0  0  0  0
  -25.5089  -24.1765   21.2409 C   0  0  0  0  0  0
  -28.0413  -24.3929   20.9331 C   0  0  0  0  0  0
  -27.8842  -21.7181   19.3766 C   0  0  0  0  0  0
  -29.4381  -17.7772   21.5458 C   0  0  0  0  0  0
  -28.8490  -18.0606   20.1419 C   0  0  0  0  0  0
  -30.5801  -16.7352   21.5562 C   0  0  0  0  0  0
  -29.0506  -19.4969   19.5944 C   0  0  0  0  0  0
  -28.4755  -25.3478   19.7858 C   0  0  0  0  0  0
  -30.0927  -15.3729   21.3115 N   0  0  0  0  0  0
  -28.0944  -20.4784   20.1697 N   0  3  0  0  0  0
  -22.6685  -21.8170   19.6312 Cl  0  0  0  0  0  0
  -25.5044  -25.5024   22.3535 Cl  0  0  0  0  0  0
  -31.4707  -12.3907   19.1039 H   0  0  0  0  0  0
  -30.3191  -11.2755   19.7821 H   0  0  0  0  0  0
  -29.7349  -11.8121   17.4054 H   0  0  0  0  0  0
  -29.6851  -13.5157   17.7838 H   0  0  0  0  0  0
  -27.8149  -11.3346   18.7712 H   0  0  0  0  0  0
  -27.3765  -12.7022   17.7803 H   0  0  0  0  0  0
  -27.7198  -14.2642   19.6197 H   0  0  0  0  0  0
  -28.6881  -11.9084   21.3056 H   0  0  0  0  0  0
  -28.4765  -13.5305   21.8911 H   0  0  0  0  0  0
  -25.2782   -9.5682   22.4763 H   0  0  0  0  0  0
  -24.0021   -7.4615   22.7409 H   0  0  0  0  0  0
  -21.0871   -8.8800   19.8914 H   0  0  0  0  0  0
  -22.3732  -10.9701   19.6147 H   0  0  0  0  0  0
  -21.1971   -7.6155   23.9761 H   0  0  0  0  0  0
  -21.1485   -6.0512   25.9104 H   0  0  0  0  0  0
  -22.0592   -2.7634   23.2828 H   0  0  0  0  0  0
  -22.4056  -11.9867   22.4872 H   0  0  0  0  0  0
  -21.1104  -13.1243   22.2555 H   0  0  0  0  0  0
  -24.6405  -15.8250   20.4878 H   0  0  0  0  0  0
  -26.2697  -15.6389   20.0822 H   0  0  0  0  0  0
  -26.7156  -32.5540   23.1192 H   0  0  0  0  0  0
  -25.0180  -33.9780   25.0574 H   0  0  0  0  0  0
  -22.7003  -31.3181   21.4041 H   0  0  0  0  0  0
  -23.3763  -35.9611   23.3325 H   0  0  0  0  0  0
  -24.3601  -36.8886   22.2050 H   0  0  0  0  0  0
  -23.7204  -37.6508   23.6626 H   0  0  0  0  0  0
  -26.0465  -31.6044   20.5917 H   0  0  0  0  0  0
  -26.8197  -30.8885   21.9801 H   0  0  0  0  0  0
  -28.0950  -29.1132   21.1536 H   0  0  0  0  0  0
  -26.0345  -25.9808   18.9966 H   0  0  0  0  0  0
  -23.9798  -27.2974   19.0281 H   0  0  0  0  0  0
  -23.7094  -30.5919   19.3922 H   0  0  0  0  0  0
  -22.7371  -29.2355   19.8755 H   0  0  0  0  0  0
  -25.1288  -36.2028   25.0847 H   0  0  0  0  0  0
  -21.0003  -28.3227   24.1313 H   0  0  0  0  0  0
  -20.5999  -26.2289   23.3345 H   0  0  0  0  0  0
  -21.6682  -26.7737   22.0764 H   0  0  0  0  0  0
  -19.6948  -25.6326   21.1130 H   0  0  0  0  0  0
  -19.6562  -27.3205   20.6642 H   0  0  0  0  0  0
  -17.4207  -26.6552   21.4073 H   0  0  0  0  0  0
  -18.0483  -26.0015   22.9044 H   0  0  0  0  0  0
  -19.7929  -30.7177   24.2360 H   0  0  0  0  0  0
  -17.5040  -31.6255   24.5145 H   0  0  0  0  0  0
  -15.5377  -30.3021   23.7500 H   0  0  0  0  0  0
  -15.8706  -28.0718   22.7125 H   0  0  0  0  0  0
  -24.5919  -30.7061   25.7755 H   0  0  0  0  0  0
  -24.8906  -32.2875   26.4848 H   0  0  0  0  0  0
  -25.8034  -30.8885   27.0242 H   0  0  0  0  0  0
  -26.2926  -29.6779   24.1164 H   0  0  0  0  0  0
  -27.4193  -29.7313   25.4552 H   0  0  0  0  0  0
  -27.8708  -30.4423   23.9227 H   0  0  0  0  0  0
  -27.2756  -33.3600   26.2074 H   0  0  0  0  0  0
  -28.3874  -32.6833   25.0284 H   0  0  0  0  0  0
  -28.0775  -31.8400   26.5369 H   0  0  0  0  0  0
  -28.2637  -38.0092   24.7543 H   0  0  0  0  0  0
  -28.1064  -36.2639   24.6291 H   0  0  0  0  0  0
  -27.2311  -37.1465   25.8876 H   0  0  0  0  0  0
  -20.9331  -29.8826   21.6813 H   0  0  0  0  0  0
  -26.0210  -38.2888   24.1400 H   0  0  0  0  0  0
  -25.3086  -21.0591   18.9212 H   0  0  0  0  0  0
  -23.3573  -24.0082   21.3373 H   0  0  0  0  0  0
  -28.8255  -23.6585   21.1073 H   0  0  0  0  0  0
  -28.0153  -24.9406   21.8733 H   0  0  0  0  0  0
  -28.7895  -22.3235   19.3705 H   0  0  0  0  0  0
  -27.7089  -21.4568   18.3319 H   0  0  0  0  0  0
  -28.6429  -17.4353   22.2112 H   0  0  0  0  0  0
  -29.8061  -18.7029   21.9915 H   0  0  0  0  0  0
  -27.7859  -17.8145   20.1338 H   0  0  0  0  0  0
  -29.2976  -17.3670   19.4289 H   0  0  0  0  0  0
  -31.0811  -16.7411   22.5265 H   0  0  0  0  0  0
  -31.3369  -17.0239   20.8232 H   0  0  0  0  0  0
  -28.8893  -19.4542   18.5163 H   0  0  0  0  0  0
  -30.0832  -19.8276   19.7304 H   0  0  0  0  0  0
  -27.9957  -25.1088   18.8362 H   0  0  0  0  0  0
  -29.5317  -25.1559   19.5894 H   0  0  0  0  0  0
  -29.1997  -15.1140   21.7003 H   0  0  0  0  0  0
  -27.1983  -20.0276   20.2409 H   0  0  0  0  0  0
  -28.3830  -20.7253   21.1009 H   0  0  0  0  0  0
  1 25  1  0  0  0
  1 30  2  0  0  0
  1 84  1  0  0  0
  2  3  1  0  0  0
  2 25  1  0  0  0
  2 88  1  0  0  0
  2 89  1  0  0  0
  3  4  1  0  0  0
  3 90  1  0  0  0
  3 91  1  0  0  0
  4  5  1  0  0  0
  4 92  1  0  0  0
  4 93  1  0  0  0
  5  6  1  0  0  0
  5 26  1  0  0  0
  5 94  1  0  0  0
  6 25  1  0  0  0
  6 95  1  0  0  0
  6 96  1  0  0  0
  7  8  2  0  0  0
  7 26  1  0  0  0
  7 29  1  0  0  0
  8  9  1  0  0  0
  8 22  1  0  0  0
  9 10  1  0  0  0
  9 27  2  0  0  0
 10 11  2  0  0  0
 10 15  1  0  0  0
 11 12  1  0  0  0
 11 97  1  0  0  0
 12 13  2  0  0  0
 12 98  1  0  0  0
 13 14  1  0  0  0
 13 31  1  0  0  0
 14 15  2  0  0  0
 14 99  1  0  0  0
 15100  1  0  0  0
 16 17  2  0  0  0
 16 21  1  0  0  0
 16 31  1  0  0  0
 17 18  1  0  0  0
 17101  1  0  0  0
 18 19  2  0  0  0
 18102  1  0  0  0
 19 20  1  0  0  0
 19 24  1  0  0  0
 20 21  2  0  0  0
 20103  1  0  0  0
 21 23  1  0  0  0
 22 28  1  0  0  0
 22 32  2  0  0  0
 26 27  1  0  0  0
 28104  1  0  0  0
 28105  1  0  0  0
 29106  1  0  0  0
 29107  1  0  0  0
 33 34  1  0  0  0
 33 66  1  0  0  0
 33 70  2  0  0  0
 34 36  1  0  0  0
 34 59  1  0  0  0
 34108  1  0  0  0
 35 44  2  0  0  0
 35 45  1  0  0  0
 35 68  1  0  0  0
 36 56  1  0  0  0
 36109  1  0  0  0
 37 39  1  0  0  0
 37 47  1  0  0  0
 37 66  1  0  0  0
 37110  1  0  0  0
 38 43  2  0  0  0
 38 46  1  0  0  0
 38 47  1  0  0  0
 39 64  1  0  0  0
 39 67  2  0  0  0
 40 52  1  0  0  0
 40 53  2  0  0  0
 40 58  1  0  0  0
 41111  1  0  0  0
 41112  1  0  0  0
 41113  1  0  0  0
 41 48  1  0  0  0
 42 43  1  0  0  0
 42 66  1  0  0  0
 42114  1  0  0  0
 42115  1  0  0  0
 43 44  1  0  0  0
 44116  1  0  0  0
 45 46  2  0  0  0
 45117  1  0  0  0
 46118  1  0  0  0
 47119  1  0  0  0
 47120  1  0  0  0
 48 56  1  0  0  0
 48 65  1  0  0  0
 48121  1  0  0  0
 49 50  1  0  0  0
 49 53  1  0  0  0
 49 64  1  0  0  0
 49122  1  0  0  0
 50 51  1  0  0  0
 50123  1  0  0  0
 50124  1  0  0  0
 51 52  1  0  0  0
 51125  1  0  0  0
 51126  1  0  0  0
 52127  1  0  0  0
 52128  1  0  0  0
 53 54  1  0  0  0
 54 55  2  0  0  0
 54129  1  0  0  0
 55 57  1  0  0  0
 55130  1  0  0  0
 56 69  2  0  0  0
 57 58  2  0  0  0
 57131  1  0  0  0
 58132  1  0  0  0
 59 60  1  0  0  0
 59 61  1  0  0  0
 59 62  1  0  0  0
 60133  1  0  0  0
 60134  1  0  0  0
 60135  1  0  0  0
 61136  1  0  0  0
 61137  1  0  0  0
 61138  1  0  0  0
 62139  1  0  0  0
 62140  1  0  0  0
 62141  1  0  0  0
 63 65  1  0  0  0
 63142  1  0  0  0
 63143  1  0  0  0
 63144  1  0  0  0
 64145  1  0  0  0
 65146  1  0  0  0
 68 83  1  0  0  0
 71 73  2  0  0  0
 71 75  1  0  0  0
 71147  1  0  0  0
 72 75  2  0  0  0
 72 76  1  0  0  0
 72148  1  0  0  0
 73 74  1  0  0  0
 73 78  1  0  0  0
 74 76  2  0  0  0
 74 77  1  0  0  0
 75 86  1  0  0  0
 76 87  1  0  0  0
 77 83  1  0  0  0
 77149  1  0  0  0
 77150  1  0  0  0
 78 85  1  0  0  0
 78151  1  0  0  0
 78152  1  0  0  0
 79 80  1  0  0  0
 79 81  1  0  0  0
 79153  1  0  0  0
 79154  1  0  0  0
 80 82  1  0  0  0
 80155  1  0  0  0
 80156  1  0  0  0
 81 84  1  0  0  0
 81157  1  0  0  0
 81158  1  0  0  0
 82 85  1  0  0  0
 82159  1  0  0  0
 82160  1  0  0  0
 83161  1  0  0  0
 83162  1  0  0  0
 84163  1  0  0  0
 85164  1  0  0  0
 85165  1  0  0  0
M  CHG  1  85   1
M  ISO  4   1 100  68 101  83 101  84 100
M  END
> <chiral flag>
0

> <version>
0

> <s_m_source_file>
/data/baiqing/PycharmProjects/Reinvent-master-3.2/result/LINK_invent/BTK/process_docking_weight1_custom_sum_contain_oxygen_bond_distance_aromatic_linkinvent_7_9_3/rearranged_h_0026.sdf

> <i_m_source_file_index>
8

> <r_mmod_Potential_Energy-OPLS-2005>
-275.6533203125

> <r_mmod_Stretch_Energy-OPLS-2005>
38.9840278625488

> <r_mmod_Bend_Energy-OPLS-2005>
107.683082580566

> <r_mmod_Torsional_Energy-OPLS-2005>
221.893173217773

> <r_mmod_Improper_Torsional_Energy-OPLS-2005>
2.52715015411377

> <r_mmod_Van_der_Waal_Energy-OPLS-2005>
138.172668457031

> <r_mmod_Electrostatic_Energy-OPLS-2005>
-288.811676025391

> <r_mmod_Solvation_Energy-OPLS-2005>
-506.027801513672

> <b_mmod_Minimization_Converged-OPLS-2005>
0

> <r_mmod_RMS_Derivative-OPLS-2005>
3.69756889343262

$$$$
8
                    3D
 Structure written by MMmdl.
154162  0  0  1  0            999 V2000
  -31.3652  -14.6736   20.9386 C   0  0  0  0  0  0
  -30.7080  -13.3586   19.0285 C   0  0  0  0  0  0
  -29.4154  -13.1636   17.7690 C   0  0  0  0  0  0
  -27.6788  -13.5551   18.1697 C   0  0  0  0  0  0
  -27.2331  -14.0928   19.9110 C   0  0  2  0  0  0
  -28.6790  -14.2899   21.2044 C   0  0  0  0  0  0
  -24.9686  -13.9930   20.7172 C   0  0  0  0  0  0
  -24.0247  -13.0732   20.9799 C   0  0  0  0  0  0
  -24.6160  -11.7776   20.8652 C   0  0  0  0  0  0
  -23.9468  -10.4575   21.0062 C   0  0  0  0  0  0
  -24.3934   -9.4512   21.8962 C   0  0  0  0  0  0
  -23.6560   -8.2526   22.0673 C   0  0  0  0  0  0
  -22.4516   -8.0440   21.3517 C   0  0  0  0  0  0
  -22.0196   -9.0353   20.4539 C   0  0  0  0  0  0
  -22.7573  -10.2206   20.2814 C   0  0  0  0  0  0
  -21.6982   -6.0838   22.5280 C   0  0  0  0  0  0
  -21.4108   -6.5704   23.8216 C   0  0  0  0  0  0
  -21.3686   -5.6830   24.9160 C   0  0  0  0  0  0
  -21.6036   -4.3092   24.7200 C   0  0  0  0  0  0
  -21.8810   -3.8199   23.4314 C   0  0  0  0  0  0
  -21.9235   -4.7038   22.3385 C   0  0  0  0  0  0
  -22.6148  -13.4575   21.2272 C   0  0  0  0  0  0
  -22.1682   -4.2216   21.0962 F   0  0  0  0  0  0
  -21.5603   -3.4561   25.7706 F   0  0  0  0  0  0
  -30.3109  -13.9834   20.5961 N   0  0  0  0  0  0
  -26.0846  -13.3144   20.4026 N   0  0  0  0  0  0
  -25.9084  -11.9351   20.5276 N   0  0  0  0  0  0
  -21.9305  -12.7320   22.0939 N   0  0  0  0  0  0
  -24.9337  -15.3845   20.6955 N   0  0  0  0  0  0
  -32.4800  -14.3301   20.5945 O   0  0  0  0  0  0
  -21.6832   -6.9034   21.4267 O   0  0  0  0  0  0
  -22.1483  -14.4701   20.7043 O   0  0  0  0  0  0
  -24.7140  -31.7670   23.1296 C   0  0  0  0  0  0
  -25.9601  -32.4283   23.7924 C   0  0  1  0  0  0
  -27.0719  -26.3683   20.1652 C   0  0  0  0  0  0
  -25.6080  -33.8130   24.1790 N   0  0  0  0  0  0
  -23.5383  -30.3725   21.4977 C   0  0  2  0  0  0
  -24.9563  -28.6589   20.1058 C   0  0  0  0  0  0
  -22.7855  -29.4166   22.4650 C   0  0  0  0  0  0
  -18.0345  -28.1437   22.8445 C   0  0  0  0  0  0
  -24.1502  -36.7052   23.2661 C   0  0  0  0  0  0
  -26.1313  -30.3810   21.4343 C   0  0  0  0  0  0
  -26.1593  -28.9176   20.7706 C   0  0  0  0  0  0
  -27.2033  -27.8043   20.7620 C   0  0  0  0  0  0
  -25.8559  -26.4087   19.4424 C   0  0  0  0  0  0
  -24.8634  -27.4387   19.4191 C   0  0  0  0  0  0
  -23.7915  -29.6695   20.1333 C   0  0  0  0  0  0
  -25.4169  -36.2775   24.0255 C   0  0  1  0  0  0
  -20.5992  -28.3797   23.1109 C   0  0  2  0  0  0
  -20.6805  -26.9440   22.5406 C   0  0  0  0  0  0
  -19.5781  -26.6368   21.5220 C   0  0  0  0  0  0
  -18.1964  -26.7959   22.1617 C   0  0  0  0  0  0
  -19.1617  -28.8947   23.2752 C   0  0  0  0  0  0
  -18.9522  -30.1528   23.8804 C   0  0  0  0  0  0
  -17.6510  -30.6615   24.0549 C   0  0  0  0  0  0
  -25.9179  -34.9184   23.4869 C   0  0  0  0  0  0
  -16.5398  -29.9095   23.6360 C   0  0  0  0  0  0
  -16.7325  -28.6521   23.0371 C   0  0  0  0  0  0
  -26.4669  -31.6437   25.0669 C   0  0  0  0  0  0
  -25.3657  -31.3849   26.1228 C   0  0  0  0  0  0
  -27.0624  -30.2744   24.6754 C   0  0  0  0  0  0
  -27.6064  -32.4346   25.7517 C   0  0  0  0  0  0
  -27.5555  -37.1682   24.8472 C   0  0  0  0  0  0
  -21.4480  -29.2999   22.3406 N   0  0  0  0  0  0
  -26.4257  -37.3582   23.9413 N   0  0  0  0  0  0
  -24.8249  -30.8815   22.0715 N   0  0  0  0  0  0
  -23.4204  -28.7779   23.3073 O   0  0  0  0  0  0
  -27.8820  -24.9546   20.1427 O   0  0  0  0  0  0
  -26.5831  -34.8822   22.4496 O   0  0  0  0  0  0
  -23.6116  -32.0913   23.6093 O   0  0  0  0  0  0
  -28.7374  -17.1310   19.2997 C   0  0  0  0  0  0
  -29.8844  -17.6893   18.6247 C   0  0  0  0  0  0
  -30.8346  -16.7763   18.7050 C   0  0  0  0  0  0
  -29.0522  -15.4351   19.1058 C   0  0  0  0  0  0
  -29.8550  -15.8123   16.6695 C   0  0  0  0  0  0
  -27.9447  -18.9554   19.8590 C   0  0  0  0  0  0
  -31.7251  -16.7607   19.9287 C   0  0  0  0  0  0
  -28.2327  -21.0791   19.7657 C   0  0  0  0  0  0
  -27.5449  -23.0704   20.0662 C   0  0  0  0  0  0
  -30.0397  -15.7952   18.1410 N   0  0  0  0  0  0
  -31.1431  -15.9744   21.0204 N   0  0  0  0  0  0
  -30.3318  -19.3357   18.3682 Cl  0  0  0  0  0  0
  -28.7397  -12.2651   19.9323 Cl  0  0  0  0  0  0
  -31.5176  -13.8929   18.5262 H   0  0  0  0  0  0
  -31.1934  -12.3901   19.1818 H   0  0  0  0  0  0
  -29.4117  -12.0942   17.5399 H   0  0  0  0  0  0
  -29.7179  -13.4344   16.7671 H   0  0  0  0  0  0
  -27.0659  -12.6909   17.9041 H   0  0  0  0  0  0
  -27.3045  -14.3113   17.4790 H   0  0  0  0  0  0
  -26.8858  -15.0900   19.6829 H   0  0  0  0  0  0
  -28.5012  -13.6487   22.0722 H   0  0  0  0  0  0
  -28.6250  -15.2858   21.6496 H   0  0  0  0  0  0
  -25.2996   -9.6085   22.4643 H   0  0  0  0  0  0
  -24.0243   -7.5004   22.7500 H   0  0  0  0  0  0
  -21.1108   -8.8855   19.8883 H   0  0  0  0  0  0
  -22.3909  -10.9689   19.5926 H   0  0  0  0  0  0
  -21.2143   -7.6216   23.9740 H   0  0  0  0  0  0
  -21.1495   -6.0552   25.9063 H   0  0  0  0  0  0
  -22.0549   -2.7659   23.2789 H   0  0  0  0  0  0
  -22.3448  -11.9284   22.5418 H   0  0  0  0  0  0
  -20.9777  -12.9816   22.3179 H   0  0  0  0  0  0
  -24.0679  -15.8872   20.8605 H   0  0  0  0  0  0
  -25.7112  -15.9940   20.4780 H   0  0  0  0  0  0
  -26.7695  -32.4644   23.0628 H   0  0  0  0  0  0
  -25.0150  -33.9120   24.9897 H   0  0  0  0  0  0
  -22.8799  -31.2222   21.3039 H   0  0  0  0  0  0
  -23.3802  -35.9341   23.3244 H   0  0  0  0  0  0
  -24.3553  -36.8818   22.2091 H   0  0  0  0  0  0
  -23.7232  -37.6181   23.6823 H   0  0  0  0  0  0
  -26.3787  -31.0895   20.6429 H   0  0  0  0  0  0
  -26.9710  -30.4374   22.1136 H   0  0  0  0  0  0
  -28.1089  -28.0041   21.3175 H   0  0  0  0  0  0
  -25.6054  -25.5102   18.8970 H   0  0  0  0  0  0
  -23.9592  -27.2379   18.8607 H   0  0  0  0  0  0
  -24.0068  -30.4295   19.3812 H   0  0  0  0  0  0
  -22.8781  -29.1782   19.7931 H   0  0  0  0  0  0
  -25.1399  -36.1481   25.0743 H   0  0  0  0  0  0
  -21.0063  -28.3433   24.1241 H   0  0  0  0  0  0
  -20.5665  -26.2422   23.3683 H   0  0  0  0  0  0
  -21.6665  -26.7364   22.1227 H   0  0  0  0  0  0
  -19.6937  -25.6258   21.1304 H   0  0  0  0  0  0
  -19.6732  -27.3137   20.6718 H   0  0  0  0  0  0
  -17.4238  -26.6704   21.4018 H   0  0  0  0  0  0
  -18.0343  -26.0125   22.9034 H   0  0  0  0  0  0
  -19.8000  -30.7365   24.2136 H   0  0  0  0  0  0
  -17.5063  -31.6285   24.5172 H   0  0  0  0  0  0
  -15.5397  -30.2972   23.7740 H   0  0  0  0  0  0
  -15.8721  -28.0814   22.7138 H   0  0  0  0  0  0
  -24.5892  -30.7138   25.7535 H   0  0  0  0  0  0
  -24.8794  -32.3099   26.4335 H   0  0  0  0  0  0
  -25.7769  -30.9234   27.0213 H   0  0  0  0  0  0
  -26.3368  -29.6279   24.1806 H   0  0  0  0  0  0
  -27.4005  -29.7286   25.5571 H   0  0  0  0  0  0
  -27.9376  -30.3809   24.0342 H   0  0  0  0  0  0
  -27.2576  -33.3744   26.1809 H   0  0  0  0  0  0
  -28.4040  -32.6742   25.0472 H   0  0  0  0  0  0
  -28.0549  -31.8664   26.5675 H   0  0  0  0  0  0
  -28.2527  -38.0018   24.7524 H   0  0  0  0  0  0
  -28.1092  -36.2536   24.6300 H   0  0  0  0  0  0
  -27.2264  -37.1312   25.8872 H   0  0  0  0  0  0
  -20.9834  -29.8637   21.6427 H   0  0  0  0  0  0
  -26.0046  -38.2607   24.1450 H   0  0  0  0  0  0
  -29.9150  -16.8230   16.2639 H   0  0  0  0  0  0
  -28.8782  -15.4290   16.3807 H   0  0  0  0  0  0
  -30.6513  -15.2457   16.1871 H   0  0  0  0  0  0
  -27.8207  -18.7899   20.9292 H   0  0  0  0  0  0
  -26.9320  -18.8495   19.4712 H   0  0  0  0  0  0
  -32.7405  -16.4747   19.6451 H   0  0  0  0  0  0
  -31.8402  -17.7766   20.3076 H   0  0  0  0  0  0
  -28.4704  -21.1845   18.7083 H   0  0  0  0  0  0
  -29.1966  -21.1536   20.2695 H   0  0  0  0  0  0
  -27.1132  -22.9647   21.0623 H   0  0  0  0  0  0
  -26.6710  -23.0793   19.4162 H   0  0  0  0  0  0
  -30.2187  -16.2537   21.3109 H   0  0  0  0  0  0
  1 25  1  0  0  0
  1 30  2  0  0  0
  1 81  1  0  0  0
  2  3  1  0  0  0
  2 25  1  0  0  0
  2 84  1  0  0  0
  2 85  1  0  0  0
  3  4  1  0  0  0
  3 86  1  0  0  0
  3 87  1  0  0  0
  4  5  1  0  0  0
  4 88  1  0  0  0
  4 89  1  0  0  0
  5  6  1  0  0  0
  5 26  1  0  0  0
  5 90  1  0  0  0
  6 25  1  0  0  0
  6 91  1  0  0  0
  6 92  1  0  0  0
  7  8  2  0  0  0
  7 26  1  0  0  0
  7 29  1  0  0  0
  8  9  1  0  0  0
  8 22  1  0  0  0
  9 10  1  0  0  0
  9 27  2  0  0  0
 10 11  2  0  0  0
 10 15  1  0  0  0
 11 12  1  0  0  0
 11 93  1  0  0  0
 12 13  2  0  0  0
 12 94  1  0  0  0
 13 14  1  0  0  0
 13 31  1  0  0  0
 14 15  2  0  0  0
 14 95  1  0  0  0
 15 96  1  0  0  0
 16 17  2  0  0  0
 16 21  1  0  0  0
 16 31  1  0  0  0
 17 18  1  0  0  0
 17 97  1  0  0  0
 18 19  2  0  0  0
 18 98  1  0  0  0
 19 20  1  0  0  0
 19 24  1  0  0  0
 20 21  2  0  0  0
 20 99  1  0  0  0
 21 23  1  0  0  0
 22 28  1  0  0  0
 22 32  2  0  0  0
 26 27  1  0  0  0
 28100  1  0  0  0
 28101  1  0  0  0
 29102  1  0  0  0
 29103  1  0  0  0
 33 34  1  0  0  0
 33 66  1  0  0  0
 33 70  2  0  0  0
 34 36  1  0  0  0
 34 59  1  0  0  0
 34104  1  0  0  0
 35 44  2  0  0  0
 35 45  1  0  0  0
 35 68  1  0  0  0
 36 56  1  0  0  0
 36105  1  0  0  0
 37 39  1  0  0  0
 37 47  1  0  0  0
 37 66  1  0  0  0
 37106  1  0  0  0
 38 43  2  0  0  0
 38 46  1  0  0  0
 38 47  1  0  0  0
 39 64  1  0  0  0
 39 67  2  0  0  0
 40 52  1  0  0  0
 40 53  2  0  0  0
 40 58  1  0  0  0
 41107  1  0  0  0
 41108  1  0  0  0
 41109  1  0  0  0
 41 48  1  0  0  0
 42 43  1  0  0  0
 42 66  1  0  0  0
 42110  1  0  0  0
 42111  1  0  0  0
 43 44  1  0  0  0
 44112  1  0  0  0
 45 46  2  0  0  0
 45113  1  0  0  0
 46114  1  0  0  0
 47115  1  0  0  0
 47116  1  0  0  0
 48 56  1  0  0  0
 48 65  1  0  0  0
 48117  1  0  0  0
 49 50  1  0  0  0
 49 53  1  0  0  0
 49 64  1  0  0  0
 49118  1  0  0  0
 50 51  1  0  0  0
 50119  1  0  0  0
 50120  1  0  0  0
 51 52  1  0  0  0
 51121  1  0  0  0
 51122  1  0  0  0
 52123  1  0  0  0
 52124  1  0  0  0
 53 54  1  0  0  0
 54 55  2  0  0  0
 54125  1  0  0  0
 55 57  1  0  0  0
 55126  1  0  0  0
 56 69  2  0  0  0
 57 58  2  0  0  0
 57127  1  0  0  0
 58128  1  0  0  0
 59 60  1  0  0  0
 59 61  1  0  0  0
 59 62  1  0  0  0
 60129  1  0  0  0
 60130  1  0  0  0
 60131  1  0  0  0
 61132  1  0  0  0
 61133  1  0  0  0
 61134  1  0  0  0
 62135  1  0  0  0
 62136  1  0  0  0
 62137  1  0  0  0
 63 65  1  0  0  0
 63138  1  0  0  0
 63139  1  0  0  0
 63140  1  0  0  0
 64141  1  0  0  0
 65142  1  0  0  0
 68 79  1  0  0  0
 71 72  1  0  0  0
 71 74  2  0  0  0
 71 76  1  0  0  0
 72 73  2  0  0  0
 72 82  1  0  0  0
 73 77  1  0  0  0
 73 80  1  0  0  0
 74 80  1  0  0  0
 74 83  1  0  0  0
 75 80  1  0  0  0
 75143  1  0  0  0
 75144  1  0  0  0
 75145  1  0  0  0
 76 78  1  0  0  0
 76146  1  0  0  0
 76147  1  0  0  0
 77 81  1  0  0  0
 77148  1  0  0  0
 77149  1  0  0  0
 78 79  1  0  0  0
 78150  1  0  0  0
 78151  1  0  0  0
 79152  1  0  0  0
 79153  1  0  0  0
 81154  1  0  0  0
M  ISO  4   1 100  68 101  79 101  81 100
M  END
> <chiral flag>
0

> <version>
0

> <s_m_source_file>
/data/baiqing/PycharmProjects/Reinvent-master-3.2/result/LINK_invent/BTK/process_docking_weight1_custom_sum_contain_oxygen_bond_distance_aromatic_linkinvent_7_9_3/rearranged_h_0026.sdf

> <i_m_source_file_index>
9

> <r_mmod_Potential_Energy-OPLS-2005>
9955.642578125

> <r_mmod_Stretch_Energy-OPLS-2005>
5475.7607421875

> <r_mmod_Bend_Energy-OPLS-2005>
1134.77697753906

> <r_mmod_Torsional_Energy-OPLS-2005>
594.55712890625

> <r_mmod_Improper_Torsional_Energy-OPLS-2005>
70.2549209594727

> <r_mmod_Van_der_Waal_Energy-OPLS-2005>
1620.77758789062

> <r_mmod_Electrostatic_Energy-OPLS-2005>
-392.510650634766

> <r_mmod_Solvation_Energy-OPLS-2005>
-220.925247192383

> <b_mmod_Minimization_Converged-OPLS-2005>
0

> <r_mmod_RMS_Derivative-OPLS-2005>
1.40546858310699

$$$$
9
                    3D
 Structure written by MMmdl.
187196  0  0  1  0            999 V2000
  -30.8125  -14.3727   20.7341 C   0  0  0  0  0  0
  -30.4167  -12.3173   19.4073 C   0  0  0  0  0  0
  -29.4874  -12.5440   18.2012 C   0  0  0  0  0  0
  -28.0153  -12.3802   18.6142 C   0  0  0  0  0  0
  -27.6653  -13.2102   19.8736 C   0  0  2  0  0  0
  -28.6997  -12.9861   20.9955 C   0  0  0  0  0  0
  -25.2609  -13.8168   20.5674 C   0  0  0  0  0  0
  -24.1857  -13.0443   20.9160 C   0  0  0  0  0  0
  -24.6409  -11.6910   20.8720 C   0  0  0  0  0  0
  -23.9073  -10.4300   21.0398 C   0  0  0  0  0  0
  -24.3625   -9.4213   21.9179 C   0  0  0  0  0  0
  -23.6302   -8.2247   22.0756 C   0  0  0  0  0  0
  -22.4284   -8.0279   21.3548 C   0  0  0  0  0  0
  -21.9914   -9.0251   20.4648 C   0  0  0  0  0  0
  -22.7240  -10.2133   20.3052 C   0  0  0  0  0  0
  -21.6856   -6.0734   22.5280 C   0  0  0  0  0  0
  -21.4015   -6.5641   23.8211 C   0  0  0  0  0  0
  -21.3662   -5.6799   24.9177 C   0  0  0  0  0  0
  -21.6045   -4.3059   24.7233 C   0  0  0  0  0  0
  -21.8821   -3.8148   23.4353 C   0  0  0  0  0  0
  -21.9196   -4.6963   22.3408 C   0  0  0  0  0  0
  -22.7879  -13.5235   21.1840 C   0  0  0  0  0  0
  -22.1666   -4.2147   21.0985 F   0  0  0  0  0  0
  -21.5632   -3.4542   25.7744 F   0  0  0  0  0  0
  -30.0543  -13.2650   20.4758 N   0  0  0  0  0  0
  -26.3048  -12.9345   20.3344 N   0  0  0  0  0  0
  -25.9336  -11.6501   20.5738 N   0  0  0  0  0  0
  -22.0535  -12.8220   22.0397 N   0  0  0  0  0  0
  -25.4343  -15.1891   20.4103 N   0  0  0  0  0  0
  -31.7474  -14.7113   20.0000 O   0  0  0  0  0  0
  -21.6646   -6.8878   21.4241 O   0  0  0  0  0  0
  -22.3557  -14.5548   20.6702 O   0  0  0  0  0  0
  -24.6167  -31.8678   23.2115 C   0  0  0  0  0  0
  -25.9056  -32.4823   23.8405 C   0  0  1  0  0  0
  -27.2340  -27.4235   20.0810 C   0  0  0  0  0  0
  -25.5905  -33.8621   24.2332 N   0  0  0  0  0  0
  -23.4044  -30.4941   21.5526 C   0  0  2  0  0  0
  -24.8477  -28.9633   20.1160 C   0  0  0  0  0  0
  -22.7424  -29.4657   22.4988 C   0  0  0  0  0  0
  -18.0281  -28.1368   22.8494 C   0  0  0  0  0  0
  -24.1486  -36.7319   23.2636 C   0  0  0  0  0  0
  -25.9365  -30.8283   21.3679 C   0  0  0  0  0  0
  -26.0122  -29.4642   20.7102 C   0  0  0  0  0  0
  -27.2056  -28.7024   20.6896 C   0  0  0  0  0  0
  -26.0391  -26.9461   19.4844 C   0  0  0  0  0  0
  -24.8558  -27.7020   19.5043 C   0  0  0  0  0  0
  -23.6137  -29.8345   20.1658 C   0  0  0  0  0  0
  -25.4106  -36.3111   24.0332 C   0  0  1  0  0  0
  -20.5874  -28.3656   23.1311 C   0  0  2  0  0  0
  -20.6771  -26.9393   22.5411 C   0  0  0  0  0  0
  -19.5748  -26.6386   21.5211 C   0  0  0  0  0  0
  -18.1927  -26.7913   22.1622 C   0  0  0  0  0  0
  -19.1532  -28.8830   23.2894 C   0  0  0  0  0  0
  -18.9457  -30.1437   23.8904 C   0  0  0  0  0  0
  -17.6460  -30.6575   24.0564 C   0  0  0  0  0  0
  -25.9034  -34.9474   23.5130 C   0  0  0  0  0  0
  -16.5353  -29.9081   23.6318 C   0  0  0  0  0  0
  -16.7270  -28.6497   23.0341 C   0  0  0  0  0  0
  -26.4477  -31.6600   25.0731 C   0  0  0  0  0  0
  -25.3748  -31.3676   26.1479 C   0  0  0  0  0  0
  -27.0321  -30.3054   24.6095 C   0  0  0  0  0  0
  -27.6060  -32.4318   25.7486 C   0  0  0  0  0  0
  -27.5576  -37.1807   24.8461 C   0  0  0  0  0  0
  -21.4153  -29.3030   22.3723 N   0  0  0  0  0  0
  -26.4291  -37.3798   23.9409 N   0  0  0  0  0  0
  -24.6711  -31.0768   22.1027 N   0  0  0  0  0  0
  -23.4192  -28.8194   23.3024 O   0  0  0  0  0  0
  -28.4144  -26.6906   20.0924 O   0  0  0  0  0  0
  -26.5597  -34.8930   22.4693 O   0  0  0  0  0  0
  -23.5356  -32.1451   23.7493 O   0  0  0  0  0  0
  -31.7549  -21.5717   18.8709 C   0  0  0  0  0  0
  -31.1402  -21.2072   20.0389 C   0  0  0  0  0  0
  -32.3000  -19.4606   19.3269 C   0  0  0  0  0  0
  -30.8977  -25.6538   18.5189 C   0  0  0  0  0  0
  -29.8504  -25.0259   17.5960 C   0  0  0  0  0  0
  -30.9003  -25.0029   19.9164 C   0  0  0  0  0  0
  -28.4271  -25.1462   18.1756 C   0  0  0  0  0  0
  -29.5188  -24.4734   20.4047 C   0  0  1  0  0  0
  -28.3779  -25.2930   19.7209 C   0  0  1  0  0  0
  -33.0307  -18.1569   19.2166 C   0  0  0  0  0  0
  -32.3802  -23.0662   24.0333 C   0  0  0  0  0  0
  -27.9826  -22.3889   20.7229 C   0  0  0  0  0  0
  -30.5111  -14.4037   23.1502 C   0  0  0  0  0  0
  -31.9434  -23.1052   22.5666 C   0  0  0  0  0  0
  -30.4455  -17.5518   21.0143 C   0  0  0  0  0  0
  -30.9570  -18.9829   21.3776 C   0  0  0  0  0  0
  -30.7410  -22.1887   22.2910 C   0  0  0  0  0  0
  -30.9573  -16.4978   22.0330 C   0  0  0  0  0  0
  -29.3474  -22.9122   20.2369 C   0  0  2  0  0  0
  -31.4128  -19.8620   20.2659 N   0  0  0  0  0  0
  -32.4608  -20.4761   18.4683 N   0  3  0  0  0  0
  -30.4024  -22.0917   20.8666 N   0  0  0  0  0  0
  -30.5128  -15.0944   21.8491 N   0  0  0  0  0  0
  -31.4607  -12.4149   19.1032 H   0  0  0  0  0  0
  -30.3150  -11.2963   19.7787 H   0  0  0  0  0  0
  -29.7313  -11.8464   17.3988 H   0  0  0  0  0  0
  -29.6462  -13.5449   17.7967 H   0  0  0  0  0  0
  -27.8349  -11.3216   18.8040 H   0  0  0  0  0  0
  -27.3584  -12.6591   17.7889 H   0  0  0  0  0  0
  -27.7145  -14.2616   19.5880 H   0  0  0  0  0  0
  -28.6589  -11.9573   21.3566 H   0  0  0  0  0  0
  -28.4221  -13.6109   21.8430 H   0  0  0  0  0  0
  -25.2769   -9.5696   22.4751 H   0  0  0  0  0  0
  -24.0016   -7.4645   22.7476 H   0  0  0  0  0  0
  -21.0847   -8.8768   19.8955 H   0  0  0  0  0  0
  -22.3695  -10.9673   19.6166 H   0  0  0  0  0  0
  -21.2003   -7.6147   23.9716 H   0  0  0  0  0  0
  -21.1484   -6.0527   25.9080 H   0  0  0  0  0  0
  -22.0598   -2.7608   23.2857 H   0  0  0  0  0  0
  -22.4156  -11.9862   22.4757 H   0  0  0  0  0  0
  -21.1156  -13.1240   22.2635 H   0  0  0  0  0  0
  -24.6742  -15.8508   20.5234 H   0  0  0  0  0  0
  -26.2997  -15.6248   20.1172 H   0  0  0  0  0  0
  -26.7127  -32.5524   23.1168 H   0  0  0  0  0  0
  -25.0038  -33.9786   25.0459 H   0  0  0  0  0  0
  -22.6937  -31.3113   21.4152 H   0  0  0  0  0  0
  -23.3744  -35.9653   23.3307 H   0  0  0  0  0  0
  -24.3575  -36.8946   22.2050 H   0  0  0  0  0  0
  -23.7262  -37.6530   23.6659 H   0  0  0  0  0  0
  -26.0515  -31.5960   20.6012 H   0  0  0  0  0  0
  -26.8240  -30.8790   21.9868 H   0  0  0  0  0  0
  -28.1061  -29.0868   21.1484 H   0  0  0  0  0  0
  -25.9858  -25.9900   18.9871 H   0  0  0  0  0  0
  -23.9600  -27.3090   19.0441 H   0  0  0  0  0  0
  -23.7315  -30.6149   19.4126 H   0  0  0  0  0  0
  -22.7354  -29.2623   19.8616 H   0  0  0  0  0  0
  -25.1286  -36.1970   25.0825 H   0  0  0  0  0  0
  -20.9955  -28.3222   24.1436 H   0  0  0  0  0  0
  -20.5694  -26.2256   23.3593 H   0  0  0  0  0  0
  -21.6637  -26.7446   22.1191 H   0  0  0  0  0  0
  -19.6910  -25.6305   21.1222 H   0  0  0  0  0  0
  -19.6687  -27.3205   20.6751 H   0  0  0  0  0  0
  -17.4197  -26.6668   21.4026 H   0  0  0  0  0  0
  -18.0320  -26.0044   22.9008 H   0  0  0  0  0  0
  -19.7935  -30.7244   24.2281 H   0  0  0  0  0  0
  -17.5022  -31.6257   24.5160 H   0  0  0  0  0  0
  -15.5354  -30.2991   23.7640 H   0  0  0  0  0  0
  -15.8666  -28.0834   22.7039 H   0  0  0  0  0  0
  -24.5932  -30.7017   25.7807 H   0  0  0  0  0  0
  -24.8909  -32.2806   26.4953 H   0  0  0  0  0  0
  -25.8107  -30.8830   27.0226 H   0  0  0  0  0  0
  -26.2858  -29.6796   24.1185 H   0  0  0  0  0  0
  -27.4151  -29.7306   25.4535 H   0  0  0  0  0  0
  -27.8667  -30.4394   23.9212 H   0  0  0  0  0  0
  -27.2699  -33.3620   26.2080 H   0  0  0  0  0  0
  -28.3853  -32.6886   25.0299 H   0  0  0  0  0  0
  -28.0744  -31.8433   26.5383 H   0  0  0  0  0  0
  -28.2587  -38.0110   24.7522 H   0  0  0  0  0  0
  -28.1088  -36.2644   24.6280 H   0  0  0  0  0  0
  -27.2288  -37.1455   25.8861 H   0  0  0  0  0  0
  -20.9304  -29.8773   21.6967 H   0  0  0  0  0  0
  -26.0178  -38.2873   24.1424 H   0  0  0  0  0  0
  -31.7896  -22.5076   18.3350 H   0  0  0  0  0  0
  -30.6865  -26.7197   18.6168 H   0  0  0  0  0  0
  -31.8906  -25.5861   18.0721 H   0  0  0  0  0  0
  -30.0975  -23.9765   17.4387 H   0  0  0  0  0  0
  -29.8874  -25.4891   16.6095 H   0  0  0  0  0  0
  -31.2629  -25.7489   20.6246 H   0  0  0  0  0  0
  -31.6468  -24.2133   19.9431 H   0  0  0  0  0  0
  -27.8582  -24.2633   17.8793 H   0  0  0  0  0  0
  -27.9228  -25.9883   17.7020 H   0  0  0  0  0  0
  -29.4525  -24.6768   21.4744 H   0  0  0  0  0  0
  -27.4418  -24.8940   20.1026 H   0  0  0  0  0  0
  -33.1923  -17.7421   20.2106 H   0  0  0  0  0  0
  -33.9958  -18.3352   18.7429 H   0  0  0  0  0  0
  -32.4469  -17.4714   18.6033 H   0  0  0  0  0  0
  -33.2290  -23.7299   24.2032 H   0  0  0  0  0  0
  -32.6806  -22.0605   24.3289 H   0  0  0  0  0  0
  -31.5719  -23.3853   24.6927 H   0  0  0  0  0  0
  -27.1619  -22.7549   20.1059 H   0  0  0  0  0  0
  -27.7815  -22.6748   21.7555 H   0  0  0  0  0  0
  -27.9367  -21.3014   20.6644 H   0  0  0  0  0  0
  -29.6707  -14.7438   23.7560 H   0  0  0  0  0  0
  -31.4300  -14.6156   23.7001 H   0  0  0  0  0  0
  -30.4467  -13.3171   23.0767 H   0  0  0  0  0  0
  -32.7864  -22.8179   21.9367 H   0  0  0  0  0  0
  -31.7018  -24.1357   22.3162 H   0  0  0  0  0  0
  -30.7108  -17.2628   20.0011 H   0  0  0  0  0  0
  -29.3544  -17.5613   21.0209 H   0  0  0  0  0  0
  -31.7897  -18.9318   22.0805 H   0  0  0  0  0  0
  -30.1433  -19.4881   21.8943 H   0  0  0  0  0  0
  -29.8746  -22.5497   22.8462 H   0  0  0  0  0  0
  -30.9674  -21.2130   22.7104 H   0  0  0  0  0  0
  -30.6604  -16.8392   23.0266 H   0  0  0  0  0  0
  -32.0488  -16.5026   22.0390 H   0  0  0  0  0  0
  -29.3700  -22.7053   19.1669 H   0  0  0  0  0  0
  -33.0599  -20.4513   17.6515 H   0  0  0  0  0  0
  1 25  1  0  0  0
  1 30  2  0  0  0
  1 93  1  0  0  0
  2  3  1  0  0  0
  2 25  1  0  0  0
  2 94  1  0  0  0
  2 95  1  0  0  0
  3  4  1  0  0  0
  3 96  1  0  0  0
  3 97  1  0  0  0
  4  5  1  0  0  0
  4 98  1  0  0  0
  4 99  1  0  0  0
  5  6  1  0  0  0
  5 26  1  0  0  0
  5100  1  0  0  0
  6 25  1  0  0  0
  6101  1  0  0  0
  6102  1  0  0  0
  7  8  2  0  0  0
  7 26  1  0  0  0
  7 29  1  0  0  0
  8  9  1  0  0  0
  8 22  1  0  0  0
  9 10  1  0  0  0
  9 27  2  0  0  0
 10 11  2  0  0  0
 10 15  1  0  0  0
 11 12  1  0  0  0
 11103  1  0  0  0
 12 13  2  0  0  0
 12104  1  0  0  0
 13 14  1  0  0  0
 13 31  1  0  0  0
 14 15  2  0  0  0
 14105  1  0  0  0
 15106  1  0  0  0
 16 17  2  0  0  0
 16 21  1  0  0  0
 16 31  1  0  0  0
 17 18  1  0  0  0
 17107  1  0  0  0
 18 19  2  0  0  0
 18108  1  0  0  0
 19 20  1  0  0  0
 19 24  1  0  0  0
 20 21  2  0  0  0
 20109  1  0  0  0
 21 23  1  0  0  0
 22 28  1  0  0  0
 22 32  2  0  0  0
 26 27  1  0  0  0
 28110  1  0  0  0
 28111  1  0  0  0
 29112  1  0  0  0
 29113  1  0  0  0
 33 34  1  0  0  0
 33 66  1  0  0  0
 33 70  2  0  0  0
 34 36  1  0  0  0
 34 59  1  0  0  0
 34114  1  0  0  0
 35 44  2  0  0  0
 35 45  1  0  0  0
 35 68  1  0  0  0
 36 56  1  0  0  0
 36115  1  0  0  0
 37 39  1  0  0  0
 37 47  1  0  0  0
 37 66  1  0  0  0
 37116  1  0  0  0
 38 43  2  0  0  0
 38 46  1  0  0  0
 38 47  1  0  0  0
 39 64  1  0  0  0
 39 67  2  0  0  0
 40 52  1  0  0  0
 40 53  2  0  0  0
 40 58  1  0  0  0
 41117  1  0  0  0
 41118  1  0  0  0
 41119  1  0  0  0
 41 48  1  0  0  0
 42 43  1  0  0  0
 42 66  1  0  0  0
 42120  1  0  0  0
 42121  1  0  0  0
 43 44  1  0  0  0
 44122  1  0  0  0
 45 46  2  0  0  0
 45123  1  0  0  0
 46124  1  0  0  0
 47125  1  0  0  0
 47126  1  0  0  0
 48 56  1  0  0  0
 48 65  1  0  0  0
 48127  1  0  0  0
 49 50  1  0  0  0
 49 53  1  0  0  0
 49 64  1  0  0  0
 49128  1  0  0  0
 50 51  1  0  0  0
 50129  1  0  0  0
 50130  1  0  0  0
 51 52  1  0  0  0
 51131  1  0  0  0
 51132  1  0  0  0
 52133  1  0  0  0
 52134  1  0  0  0
 53 54  1  0  0  0
 54 55  2  0  0  0
 54135  1  0  0  0
 55 57  1  0  0  0
 55136  1  0  0  0
 56 69  2  0  0  0
 57 58  2  0  0  0
 57137  1  0  0  0
 58138  1  0  0  0
 59 60  1  0  0  0
 59 61  1  0  0  0
 59 62  1  0  0  0
 60139  1  0  0  0
 60140  1  0  0  0
 60141  1  0  0  0
 61142  1  0  0  0
 61143  1  0  0  0
 61144  1  0  0  0
 62145  1  0  0  0
 62146  1  0  0  0
 62147  1  0  0  0
 63 65  1  0  0  0
 63148  1  0  0  0
 63149  1  0  0  0
 63150  1  0  0  0
 64151  1  0  0  0
 65152  1  0  0  0
 68 79  1  0  0  0
 71 72  2  0  0  0
 71 91  1  0  0  0
 71153  1  0  0  0
 72 90  1  0  0  0
 72 92  1  0  0  0
 73 80  1  0  0  0
 73 90  1  0  0  0
 73 91  2  0  0  0
 74 75  1  0  0  0
 74 76  1  0  0  0
 74154  1  0  0  0
 74155  1  0  0  0
 75 77  1  0  0  0
 75156  1  0  0  0
 75157  1  0  0  0
 76158  1  0  0  0
 76159  1  0  0  0
 76 78  1  0  0  0
 77 79  1  0  0  0
 77160  1  0  0  0
 77161  1  0  0  0
 78 79  1  0  0  0
 78 89  1  0  0  0
 78162  1  0  0  0
 79163  1  0  0  0
 80164  1  0  0  0
 80165  1  0  0  0
 80166  1  0  0  0
 81 84  1  0  0  0
 81167  1  0  0  0
 81168  1  0  0  0
 81169  1  0  0  0
 82170  1  0  0  0
 82171  1  0  0  0
 82172  1  0  0  0
 82 89  1  0  0  0
 83 93  1  0  0  0
 83173  1  0  0  0
 83174  1  0  0  0
 83175  1  0  0  0
 84 87  1  0  0  0
 84176  1  0  0  0
 84177  1  0  0  0
 85 86  1  0  0  0
 85 88  1  0  0  0
 85178  1  0  0  0
 85179  1  0  0  0
 86 90  1  0  0  0
 86180  1  0  0  0
 86181  1  0  0  0
 87 92  1  0  0  0
 87182  1  0  0  0
 87183  1  0  0  0
 88 93  1  0  0  0
 88184  1  0  0  0
 88185  1  0  0  0
 89 92  1  0  0  0
 89186  1  0  0  0
 91187  1  0  0  0
M  CHG  1  91   1
M  ISO  4   1 100  68 101  79 101  93 100
M  END
> <chiral flag>
0

> <version>
0

> <s_m_source_file>
/data/baiqing/PycharmProjects/Reinvent-master-3.2/result/LINK_invent/BTK/process_docking_weight1_custom_sum_contain_oxygen_bond_distance_aromatic_linkinvent_7_9_3/rearranged_h_0026.sdf

> <i_m_source_file_index>
10

> <r_mmod_Potential_Energy-OPLS-2005>
195.598083496094

> <r_mmod_Stretch_Energy-OPLS-2005>
51.9829025268555

> <r_mmod_Bend_Energy-OPLS-2005>
150.294174194336

> <r_mmod_Torsional_Energy-OPLS-2005>
370.032165527344

> <r_mmod_Improper_Torsional_Energy-OPLS-2005>
5.09366846084595

> <r_mmod_Van_der_Waal_Energy-OPLS-2005>
148.544235229492

> <r_mmod_Electrostatic_Energy-OPLS-2005>
-163.636901855469

> <r_mmod_Solvation_Energy-OPLS-2005>
-377.937927246094

> <b_mmod_Minimization_Converged-OPLS-2005>
0

> <r_mmod_RMS_Derivative-OPLS-2005>
1.45107209682465

$$$$
10
                    3D
 Structure written by MMmdl.
168177  0  0  1  0            999 V2000
  -30.7401  -14.4026   20.5843 C   0  0  0  0  0  0
  -30.4112  -12.2851   19.3892 C   0  0  0  0  0  0
  -29.4763  -12.5236   18.1871 C   0  0  0  0  0  0
  -27.9924  -12.4102   18.5911 C   0  0  0  0  0  0
  -27.6548  -13.2059   19.8827 C   0  0  2  0  0  0
  -28.7032  -12.9350   20.9806 C   0  0  0  0  0  0
  -25.2489  -13.8066   20.5909 C   0  0  0  0  0  0
  -24.1737  -13.0319   20.9236 C   0  0  0  0  0  0
  -24.6340  -11.6828   20.8717 C   0  0  0  0  0  0
  -23.9034  -10.4224   21.0350 C   0  0  0  0  0  0
  -24.3616   -9.4177   21.9146 C   0  0  0  0  0  0
  -23.6286   -8.2230   22.0725 C   0  0  0  0  0  0
  -22.4264   -8.0266   21.3529 C   0  0  0  0  0  0
  -21.9882   -9.0218   20.4617 C   0  0  0  0  0  0
  -22.7204  -10.2086   20.3019 C   0  0  0  0  0  0
  -21.6847   -6.0748   22.5296 C   0  0  0  0  0  0
  -21.4002   -6.5648   23.8232 C   0  0  0  0  0  0
  -21.3658   -5.6795   24.9194 C   0  0  0  0  0  0
  -21.6057   -4.3054   24.7230 C   0  0  0  0  0  0
  -21.8823   -3.8156   23.4342 C   0  0  0  0  0  0
  -21.9187   -4.6982   22.3411 C   0  0  0  0  0  0
  -22.7767  -13.5152   21.1884 C   0  0  0  0  0  0
  -22.1662   -4.2186   21.0974 F   0  0  0  0  0  0
  -21.5631   -3.4514   25.7717 F   0  0  0  0  0  0
  -30.0332  -13.2499   20.4318 N   0  0  0  0  0  0
  -26.2965  -12.9309   20.3464 N   0  0  0  0  0  0
  -25.9275  -11.6445   20.5751 N   0  0  0  0  0  0
  -22.0406  -12.8152   22.0449 N   0  0  0  0  0  0
  -25.3977  -15.1785   20.4709 N   0  0  0  0  0  0
  -31.8813  -14.5374   20.1253 O   0  0  0  0  0  0
  -21.6634   -6.8873   21.4245 O   0  0  0  0  0  0
  -22.3471  -14.5457   20.6723 O   0  0  0  0  0  0
  -24.6113  -31.8718   23.2121 C   0  0  0  0  0  0
  -25.9039  -32.4823   23.8403 C   0  0  1  0  0  0
  -27.2246  -27.4680   20.0708 C   0  0  0  0  0  0
  -25.5957  -33.8629   24.2321 N   0  0  0  0  0  0
  -23.3936  -30.4960   21.5523 C   0  0  2  0  0  0
  -24.8344  -28.9730   20.1122 C   0  0  0  0  0  0
  -22.7379  -29.4666   22.4990 C   0  0  0  0  0  0
  -18.0265  -28.1364   22.8474 C   0  0  0  0  0  0
  -24.1500  -36.7291   23.2627 C   0  0  0  0  0  0
  -25.9198  -30.8458   21.3623 C   0  0  0  0  0  0
  -25.9945  -29.4852   20.7045 C   0  0  0  0  0  0
  -27.1902  -28.7400   20.6843 C   0  0  0  0  0  0
  -26.0489  -26.9744   19.4583 C   0  0  0  0  0  0
  -24.8558  -27.7147   19.4901 C   0  0  0  0  0  0
  -23.5927  -29.8292   20.1661 C   0  0  0  0  0  0
  -25.4125  -36.3090   24.0310 C   0  0  1  0  0  0
  -20.5854  -28.3644   23.1310 C   0  0  2  0  0  0
  -20.6752  -26.9380   22.5406 C   0  0  0  0  0  0
  -19.5721  -26.6364   21.5205 C   0  0  0  0  0  0
  -18.1896  -26.7910   22.1604 C   0  0  0  0  0  0
  -19.1522  -28.8817   23.2892 C   0  0  0  0  0  0
  -18.9458  -30.1434   23.8881 C   0  0  0  0  0  0
  -17.6464  -30.6566   24.0559 C   0  0  0  0  0  0
  -25.9055  -34.9463   23.5073 C   0  0  0  0  0  0
  -16.5346  -29.9057   23.6344 C   0  0  0  0  0  0
  -16.7264  -28.6487   23.0336 C   0  0  0  0  0  0
  -26.4502  -31.6611   25.0725 C   0  0  0  0  0  0
  -25.3791  -31.3730   26.1492 C   0  0  0  0  0  0
  -27.0349  -30.3053   24.6113 C   0  0  0  0  0  0
  -27.6075  -32.4353   25.7496 C   0  0  0  0  0  0
  -27.5572  -37.1788   24.8450 C   0  0  0  0  0  0
  -21.4120  -29.3044   22.3749 N   0  0  0  0  0  0
  -26.4291  -37.3787   23.9391 N   0  0  0  0  0  0
  -24.6591  -31.0850   22.1002 N   0  0  0  0  0  0
  -23.4184  -28.8203   23.3010 O   0  0  0  0  0  0
  -28.4019  -26.7566   20.1055 O   0  0  0  0  0  0
  -26.5577  -34.8907   22.4617 O   0  0  0  0  0  0
  -23.5313  -32.1461   23.7527 O   0  0  0  0  0  0
  -29.3762  -17.8519   20.2046 C   0  0  0  0  0  0
  -28.1809  -18.0715   19.5601 C   0  0  0  0  0  0
  -28.9454  -19.9558   20.9503 C   0  0  0  0  0  0
  -28.4089  -21.3100   23.0105 C   0  0  0  0  0  0
  -28.1383  -22.8013   23.1648 C   0  0  0  0  0  0
  -28.8772  -22.5149   20.9235 C   0  0  0  0  0  0
  -29.1832  -21.2233   21.7022 C   0  0  2  0  0  0
  -27.4809  -17.2024   18.5703 C   0  0  0  0  0  0
  -26.9035  -25.5048   22.3681 C   0  0  0  0  0  0
  -29.5305  -15.7281   22.2541 C   0  0  0  0  0  0
  -30.3101  -16.6917   20.0659 C   0  0  0  0  0  0
  -28.3320  -25.3283   20.2128 C   0  0  0  0  0  0
  -28.1176  -24.8303   21.6797 C   0  0  2  0  0  0
  -29.7804  -18.9201   21.0039 N   0  0  0  0  0  0
  -30.0167  -15.5017   20.8850 N   0  0  0  0  0  0
  -27.9954  -23.3394   21.7894 N   0  3  2  0  0  0
  -27.5073  -19.6209   19.9905 S   0  0  0  0  0  0
  -31.4507  -12.3867   19.0697 H   0  0  0  0  0  0
  -30.3172  -11.2635   19.7599 H   0  0  0  0  0  0
  -29.7028  -11.8208   17.3848 H   0  0  0  0  0  0
  -29.6615  -13.5184   17.7798 H   0  0  0  0  0  0
  -27.7512  -11.3542   18.7175 H   0  0  0  0  0  0
  -27.3647  -12.7648   17.7730 H   0  0  0  0  0  0
  -27.7055  -14.2639   19.6330 H   0  0  0  0  0  0
  -28.6723  -11.8854   21.2746 H   0  0  0  0  0  0
  -28.4568  -13.4788   21.8866 H   0  0  0  0  0  0
  -25.2771   -9.5688   22.4705 H   0  0  0  0  0  0
  -24.0011   -7.4640   22.7453 H   0  0  0  0  0  0
  -21.0820   -8.8735   19.8919 H   0  0  0  0  0  0
  -22.3660  -10.9644   19.6145 H   0  0  0  0  0  0
  -21.1983   -7.6154   23.9740 H   0  0  0  0  0  0
  -21.1477   -6.0520   25.9098 H   0  0  0  0  0  0
  -22.0589   -2.7619   23.2830 H   0  0  0  0  0  0
  -22.3996  -11.9856   22.4936 H   0  0  0  0  0  0
  -21.1007  -13.1165   22.2605 H   0  0  0  0  0  0
  -24.6113  -15.8101   20.5759 H   0  0  0  0  0  0
  -26.2681  -15.6500   20.2677 H   0  0  0  0  0  0
  -26.7098  -32.5514   23.1152 H   0  0  0  0  0  0
  -25.0272  -33.9850   25.0568 H   0  0  0  0  0  0
  -22.6816  -31.3121   21.4139 H   0  0  0  0  0  0
  -23.3765  -35.9626   23.3310 H   0  0  0  0  0  0
  -24.3592  -36.8912   22.2045 H   0  0  0  0  0  0
  -23.7270  -37.6494   23.6649 H   0  0  0  0  0  0
  -26.0348  -31.6187   20.6008 H   0  0  0  0  0  0
  -26.8070  -30.8897   21.9816 H   0  0  0  0  0  0
  -28.0873  -29.1275   21.1479 H   0  0  0  0  0  0
  -26.0210  -26.0337   18.9327 H   0  0  0  0  0  0
  -23.9672  -27.3171   19.0237 H   0  0  0  0  0  0
  -23.6800  -30.6003   19.4005 H   0  0  0  0  0  0
  -22.7197  -29.2381   19.8815 H   0  0  0  0  0  0
  -25.1310  -36.1932   25.0806 H   0  0  0  0  0  0
  -20.9962  -28.3208   24.1421 H   0  0  0  0  0  0
  -20.5642  -26.2263   23.3603 H   0  0  0  0  0  0
  -21.6615  -26.7393   22.1191 H   0  0  0  0  0  0
  -19.6888  -25.6284   21.1206 H   0  0  0  0  0  0
  -19.6643  -27.3200   20.6759 H   0  0  0  0  0  0
  -17.4168  -26.6683   21.3998 H   0  0  0  0  0  0
  -18.0260  -26.0047   22.8989 H   0  0  0  0  0  0
  -19.7953  -30.7263   24.2194 H   0  0  0  0  0  0
  -17.5018  -31.6238   24.5183 H   0  0  0  0  0  0
  -15.5342  -30.2940   23.7689 H   0  0  0  0  0  0
  -15.8666  -28.0811   22.7020 H   0  0  0  0  0  0
  -24.5936  -30.7103   25.7839 H   0  0  0  0  0  0
  -24.9031  -32.2910   26.4961 H   0  0  0  0  0  0
  -25.8179  -30.8881   27.0229 H   0  0  0  0  0  0
  -26.2895  -29.6784   24.1207 H   0  0  0  0  0  0
  -27.4173  -29.7319   25.4574 H   0  0  0  0  0  0
  -27.8705  -30.4364   23.9231 H   0  0  0  0  0  0
  -27.2680  -33.3649   26.2085 H   0  0  0  0  0  0
  -28.3902  -32.6950   25.0348 H   0  0  0  0  0  0
  -28.0735  -31.8491   26.5427 H   0  0  0  0  0  0
  -28.2564  -38.0108   24.7527 H   0  0  0  0  0  0
  -28.1091  -36.2634   24.6244 H   0  0  0  0  0  0
  -27.2279  -37.1408   25.8851 H   0  0  0  0  0  0
  -20.9239  -29.8834   21.7056 H   0  0  0  0  0  0
  -26.0157  -38.2837   24.1470 H   0  0  0  0  0  0
  -27.4614  -20.7770   22.9336 H   0  0  0  0  0  0
  -28.9632  -20.8839   23.8475 H   0  0  0  0  0  0
  -28.9921  -23.2690   23.6575 H   0  0  0  0  0  0
  -27.2538  -22.9719   23.7801 H   0  0  0  0  0  0
  -28.4041  -22.3332   19.9578 H   0  0  0  0  0  0
  -29.8229  -23.0201   20.7267 H   0  0  0  0  0  0
  -30.2460  -21.2539   21.9494 H   0  0  0  0  0  0
  -27.0362  -16.3477   19.0591 H   0  0  0  0  0  0
  -28.1638  -16.8211   17.8126 H   0  0  0  0  0  0
  -26.6808  -17.7402   18.0623 H   0  0  0  0  0  0
  -27.0850  -26.5657   22.5417 H   0  0  0  0  0  0
  -26.6857  -25.0873   23.3484 H   0  0  0  0  0  0
  -25.9958  -25.4163   21.7682 H   0  0  0  0  0  0
  -29.8676  -16.6816   22.6591 H   0  0  0  0  0  0
  -29.8776  -14.9546   22.9456 H   0  0  0  0  0  0
  -28.4400  -15.7368   22.2604 H   0  0  0  0  0  0
  -31.3287  -17.0220   20.2798 H   0  0  0  0  0  0
  -30.3227  -16.3978   19.0141 H   0  0  0  0  0  0
  -27.6209  -24.8813   19.5207 H   0  0  0  0  0  0
  -29.3032  -24.9871   19.8578 H   0  0  0  0  0  0
  -29.0082  -25.1342   22.2302 H   0  0  0  0  0  0
  -27.0580  -23.0888   21.5051 H   0  0  0  0  0  0
  1 25  1  0  0  0
  1 30  2  0  0  0
  1 85  1  0  0  0
  2  3  1  0  0  0
  2 25  1  0  0  0
  2 88  1  0  0  0
  2 89  1  0  0  0
  3  4  1  0  0  0
  3 90  1  0  0  0
  3 91  1  0  0  0
  4  5  1  0  0  0
  4 92  1  0  0  0
  4 93  1  0  0  0
  5  6  1  0  0  0
  5 26  1  0  0  0
  5 94  1  0  0  0
  6 25  1  0  0  0
  6 95  1  0  0  0
  6 96  1  0  0  0
  7  8  2  0  0  0
  7 26  1  0  0  0
  7 29  1  0  0  0
  8  9  1  0  0  0
  8 22  1  0  0  0
  9 10  1  0  0  0
  9 27  2  0  0  0
 10 11  2  0  0  0
 10 15  1  0  0  0
 11 12  1  0  0  0
 11 97  1  0  0  0
 12 13  2  0  0  0
 12 98  1  0  0  0
 13 14  1  0  0  0
 13 31  1  0  0  0
 14 15  2  0  0  0
 14 99  1  0  0  0
 15100  1  0  0  0
 16 17  2  0  0  0
 16 21  1  0  0  0
 16 31  1  0  0  0
 17 18  1  0  0  0
 17101  1  0  0  0
 18 19  2  0  0  0
 18102  1  0  0  0
 19 20  1  0  0  0
 19 24  1  0  0  0
 20 21  2  0  0  0
 20103  1  0  0  0
 21 23  1  0  0  0
 22 28  1  0  0  0
 22 32  2  0  0  0
 26 27  1  0  0  0
 28104  1  0  0  0
 28105  1  0  0  0
 29106  1  0  0  0
 29107  1  0  0  0
 33 34  1  0  0  0
 33 66  1  0  0  0
 33 70  2  0  0  0
 34 36  1  0  0  0
 34 59  1  0  0  0
 34108  1  0  0  0
 35 44  2  0  0  0
 35 45  1  0  0  0
 35 68  1  0  0  0
 36 56  1  0  0  0
 36109  1  0  0  0
 37 39  1  0  0  0
 37 47  1  0  0  0
 37 66  1  0  0  0
 37110  1  0  0  0
 38 43  2  0  0  0
 38 46  1  0  0  0
 38 47  1  0  0  0
 39 64  1  0  0  0
 39 67  2  0  0  0
 40 52  1  0  0  0
 40 53  2  0  0  0
 40 58  1  0  0  0
 41111  1  0  0  0
 41112  1  0  0  0
 41113  1  0  0  0
 41 48  1  0  0  0
 42 43  1  0  0  0
 42 66  1  0  0  0
 42114  1  0  0  0
 42115  1  0  0  0
 43 44  1  0  0  0
 44116  1  0  0  0
 45 46  2  0  0  0
 45117  1  0  0  0
 46118  1  0  0  0
 47119  1  0  0  0
 47120  1  0  0  0
 48 56  1  0  0  0
 48 65  1  0  0  0
 48121  1  0  0  0
 49 50  1  0  0  0
 49 53  1  0  0  0
 49 64  1  0  0  0
 49122  1  0  0  0
 50 51  1  0  0  0
 50123  1  0  0  0
 50124  1  0  0  0
 51 52  1  0  0  0
 51125  1  0  0  0
 51126  1  0  0  0
 52127  1  0  0  0
 52128  1  0  0  0
 53 54  1  0  0  0
 54 55  2  0  0  0
 54129  1  0  0  0
 55 57  1  0  0  0
 55130  1  0  0  0
 56 69  2  0  0  0
 57 58  2  0  0  0
 57131  1  0  0  0
 58132  1  0  0  0
 59 60  1  0  0  0
 59 61  1  0  0  0
 59 62  1  0  0  0
 60133  1  0  0  0
 60134  1  0  0  0
 60135  1  0  0  0
 61136  1  0  0  0
 61137  1  0  0  0
 61138  1  0  0  0
 62139  1  0  0  0
 62140  1  0  0  0
 62141  1  0  0  0
 63 65  1  0  0  0
 63142  1  0  0  0
 63143  1  0  0  0
 63144  1  0  0  0
 64145  1  0  0  0
 65146  1  0  0  0
 68 82  1  0  0  0
 71 72  2  0  0  0
 71 81  1  0  0  0
 71 84  1  0  0  0
 72 78  1  0  0  0
 72 87  1  0  0  0
 73 84  2  0  0  0
 73 87  1  0  0  0
 73 77  1  0  0  0
 74 75  1  0  0  0
 74 77  1  0  0  0
 74147  1  0  0  0
 74148  1  0  0  0
 75149  1  0  0  0
 75150  1  0  0  0
 75 86  1  0  0  0
 76 77  1  0  0  0
 76 86  1  0  0  0
 76151  1  0  0  0
 76152  1  0  0  0
 77153  1  0  0  0
 78154  1  0  0  0
 78155  1  0  0  0
 78156  1  0  0  0
 79157  1  0  0  0
 79158  1  0  0  0
 79159  1  0  0  0
 79 83  1  0  0  0
 80 85  1  0  0  0
 80160  1  0  0  0
 80161  1  0  0  0
 80162  1  0  0  0
 81 85  1  0  0  0
 81163  1  0  0  0
 81164  1  0  0  0
 82 83  1  0  0  0
 82165  1  0  0  0
 82166  1  0  0  0
 83 86  1  0  0  0
 83167  1  0  0  0
 86168  1  0  0  0
M  CHG  1  86   1
M  ISO  4   1 100  68 101  82 101  85 100
M  END
> <chiral flag>
0

> <version>
0

> <s_m_source_file>
/data/baiqing/PycharmProjects/Reinvent-master-3.2/result/LINK_invent/BTK/process_docking_weight1_custom_sum_contain_oxygen_bond_distance_aromatic_linkinvent_7_9_3/rearranged_h_0026.sdf

> <i_m_source_file_index>
11

> <r_mmod_Potential_Energy-OPLS-2005>
7.90220594406128

> <r_mmod_Stretch_Energy-OPLS-2005>
35.4602432250977

> <r_mmod_Bend_Energy-OPLS-2005>
132.184906005859

> <r_mmod_Torsional_Energy-OPLS-2005>
323.787017822266

> <r_mmod_Improper_Torsional_Energy-OPLS-2005>
13.2774057388306

> <r_mmod_Van_der_Waal_Energy-OPLS-2005>
141.604583740234

> <r_mmod_Electrostatic_Energy-OPLS-2005>
-234.759231567383

> <r_mmod_Solvation_Energy-OPLS-2005>
-416.709442138672

> <b_mmod_Minimization_Converged-OPLS-2005>
0

> <r_mmod_RMS_Derivative-OPLS-2005>
4.42135524749756

$$$$
11
                    3D
 Structure written by MMmdl.
156164  0  0  1  0            999 V2000
  -30.6802  -14.4516   20.5186 C   0  0  0  0  0  0
  -30.4299  -12.2755   19.4015 C   0  0  0  0  0  0
  -29.4952  -12.4776   18.1911 C   0  0  0  0  0  0
  -28.0191  -12.3441   18.6182 C   0  0  0  0  0  0
  -27.6713  -13.1983   19.8714 C   0  0  2  0  0  0
  -28.7143  -12.9755   20.9866 C   0  0  0  0  0  0
  -25.2705  -13.8171   20.5837 C   0  0  0  0  0  0
  -24.1941  -13.0451   20.9423 C   0  0  0  0  0  0
  -24.6421  -11.6929   20.8797 C   0  0  0  0  0  0
  -23.9067  -10.4297   21.0411 C   0  0  0  0  0  0
  -24.3582   -9.4230   21.9205 C   0  0  0  0  0  0
  -23.6249   -8.2263   22.0763 C   0  0  0  0  0  0
  -22.4192   -8.0328   21.3638 C   0  0  0  0  0  0
  -21.9854   -9.0306   20.4707 C   0  0  0  0  0  0
  -22.7232  -10.2142   20.3075 C   0  0  0  0  0  0
  -21.6810   -6.0699   22.5330 C   0  0  0  0  0  0
  -21.3962   -6.5591   23.8257 C   0  0  0  0  0  0
  -21.3632   -5.6775   24.9236 C   0  0  0  0  0  0
  -21.6048   -4.3030   24.7316 C   0  0  0  0  0  0
  -21.8809   -3.8115   23.4431 C   0  0  0  0  0  0
  -21.9191   -4.6921   22.3464 C   0  0  0  0  0  0
  -22.7923  -13.5179   21.2052 C   0  0  0  0  0  0
  -22.1641   -4.2101   21.1047 F   0  0  0  0  0  0
  -21.5655   -3.4512   25.7805 F   0  0  0  0  0  0
  -30.0383  -13.2629   20.4180 N   0  0  0  0  0  0
  -26.3141  -12.9330   20.3484 N   0  0  0  0  0  0
  -25.9336  -11.6497   20.5761 N   0  0  0  0  0  0
  -22.0666  -12.8252   22.0734 N   0  0  0  0  0  0
  -25.4404  -15.1861   20.4121 N   0  0  0  0  0  0
  -31.8473  -14.6238   20.1462 O   0  0  0  0  0  0
  -21.6619   -6.8871   21.4286 O   0  0  0  0  0  0
  -22.3476  -14.5300   20.6630 O   0  0  0  0  0  0
  -24.6138  -31.8692   23.2158 C   0  0  0  0  0  0
  -25.9036  -32.4843   23.8431 C   0  0  1  0  0  0
  -27.1973  -27.4295   20.0793 C   0  0  0  0  0  0
  -25.5900  -33.8645   24.2364 N   0  0  0  0  0  0
  -23.3985  -30.4996   21.5569 C   0  0  2  0  0  0
  -24.8370  -28.9768   20.1097 C   0  0  0  0  0  0
  -22.7415  -29.4658   22.5008 C   0  0  0  0  0  0
  -18.0263  -28.1375   22.8486 C   0  0  0  0  0  0
  -24.1479  -36.7307   23.2637 C   0  0  0  0  0  0
  -25.9320  -30.8317   21.3735 C   0  0  0  0  0  0
  -26.0037  -29.4705   20.7112 C   0  0  0  0  0  0
  -27.1926  -28.7028   20.6950 C   0  0  0  0  0  0
  -26.0280  -26.9791   19.4357 C   0  0  0  0  0  0
  -24.8458  -27.7333   19.4647 C   0  0  0  0  0  0
  -23.6028  -29.8467   20.1671 C   0  0  0  0  0  0
  -25.4103  -36.3125   24.0343 C   0  0  1  0  0  0
  -20.5857  -28.3644   23.1320 C   0  0  2  0  0  0
  -20.6758  -26.9380   22.5410 C   0  0  0  0  0  0
  -19.5738  -26.6382   21.5207 C   0  0  0  0  0  0
  -18.1921  -26.7918   22.1620 C   0  0  0  0  0  0
  -19.1511  -28.8831   23.2901 C   0  0  0  0  0  0
  -18.9444  -30.1442   23.8905 C   0  0  0  0  0  0
  -17.6450  -30.6582   24.0562 C   0  0  0  0  0  0
  -25.9038  -34.9492   23.5156 C   0  0  0  0  0  0
  -16.5341  -29.9086   23.6326 C   0  0  0  0  0  0
  -16.7254  -28.6502   23.0347 C   0  0  0  0  0  0
  -26.4468  -31.6606   25.0743 C   0  0  0  0  0  0
  -25.3752  -31.3683   26.1501 C   0  0  0  0  0  0
  -27.0304  -30.3053   24.6119 C   0  0  0  0  0  0
  -27.6066  -32.4309   25.7500 C   0  0  0  0  0  0
  -27.5585  -37.1809   24.8475 C   0  0  0  0  0  0
  -21.4145  -29.3014   22.3737 N   0  0  0  0  0  0
  -26.4295  -37.3802   23.9420 N   0  0  0  0  0  0
  -24.6662  -31.0811   22.1061 N   0  0  0  0  0  0
  -23.4193  -28.8159   23.3020 O   0  0  0  0  0  0
  -28.3439  -26.6684   20.0468 O   0  0  0  0  0  0
  -26.5594  -34.8927   22.4714 O   0  0  0  0  0  0
  -23.5333  -32.1458   23.7554 O   0  0  0  0  0  0
  -27.3335  -19.3645   18.7579 C   0  0  0  0  0  0
  -28.5023  -19.8933   20.8099 C   0  0  0  0  0  0
  -27.6507  -20.3001   19.7629 C   0  0  0  0  0  0
  -28.8702  -17.7127   19.7322 C   0  0  0  0  0  0
  -27.9252  -18.0834   18.7368 C   0  0  0  0  0  0
  -29.1128  -18.6171   20.7995 C   0  0  0  0  0  0
  -27.0861  -21.7182   19.6633 C   0  0  0  0  0  0
  -29.7211  -16.4436   19.5434 C   0  0  0  0  0  0
  -27.8766  -22.8206   20.4128 C   0  0  0  0  0  0
  -27.5181  -24.2450   19.9367 C   0  0  0  0  0  0
  -28.2808  -25.3760   20.6809 C   0  0  0  0  0  0
  -29.8551  -15.5017   20.6673 N   0  0  0  0  0  0
  -27.4895  -17.0298   17.4292 Cl  0  0  0  0  0  0
  -30.1935  -18.2253   22.0931 Cl  0  0  0  0  0  0
  -31.4747  -12.3696   19.0968 H   0  0  0  0  0  0
  -30.3272  -11.2648   19.7977 H   0  0  0  0  0  0
  -29.7230  -11.7521   17.4075 H   0  0  0  0  0  0
  -29.6637  -13.4581   17.7473 H   0  0  0  0  0  0
  -27.8429  -11.2915   18.8332 H   0  0  0  0  0  0
  -27.3628  -12.5935   17.7864 H   0  0  0  0  0  0
  -27.7235  -14.2392   19.5614 H   0  0  0  0  0  0
  -28.6789  -11.9454   21.3366 H   0  0  0  0  0  0
  -28.5057  -13.6016   21.8543 H   0  0  0  0  0  0
  -25.2708   -9.5617   22.4835 H   0  0  0  0  0  0
  -23.9929   -7.4537   22.7397 H   0  0  0  0  0  0
  -21.0773   -8.8819   19.9024 H   0  0  0  0  0  0
  -22.3715  -10.9646   19.6156 H   0  0  0  0  0  0
  -21.1888   -7.6097   23.9729 H   0  0  0  0  0  0
  -21.1450   -6.0534   25.9139 H   0  0  0  0  0  0
  -22.0598   -2.7579   23.3007 H   0  0  0  0  0  0
  -22.4730  -12.0382   22.5643 H   0  0  0  0  0  0
  -21.1165  -13.1020   22.2838 H   0  0  0  0  0  0
  -24.6762  -15.8481   20.5057 H   0  0  0  0  0  0
  -26.2777  -15.6146   20.0334 H   0  0  0  0  0  0
  -26.7104  -32.5544   23.1187 H   0  0  0  0  0  0
  -25.0052  -33.9813   25.0508 H   0  0  0  0  0  0
  -22.6858  -31.3167   21.4281 H   0  0  0  0  0  0
  -23.3757  -35.9631   23.3319 H   0  0  0  0  0  0
  -24.3568  -36.8898   22.2051 H   0  0  0  0  0  0
  -23.7220  -37.6510   23.6633 H   0  0  0  0  0  0
  -26.0581  -31.6024   20.6127 H   0  0  0  0  0  0
  -26.8176  -30.8720   21.9969 H   0  0  0  0  0  0
  -28.0961  -29.0781   21.1528 H   0  0  0  0  0  0
  -26.0183  -26.0627   18.8680 H   0  0  0  0  0  0
  -23.9608  -27.3672   18.9651 H   0  0  0  0  0  0
  -23.7144  -30.6291   19.4162 H   0  0  0  0  0  0
  -22.7247  -29.2734   19.8663 H   0  0  0  0  0  0
  -25.1280  -36.2004   25.0836 H   0  0  0  0  0  0
  -20.9948  -28.3213   24.1447 H   0  0  0  0  0  0
  -20.5674  -26.2247   23.3599 H   0  0  0  0  0  0
  -21.6633  -26.7441   22.1203 H   0  0  0  0  0  0
  -19.6901  -25.6305   21.1227 H   0  0  0  0  0  0
  -19.6689  -27.3210   20.6761 H   0  0  0  0  0  0
  -17.4188  -26.6658   21.4027 H   0  0  0  0  0  0
  -18.0318  -26.0067   22.9024 H   0  0  0  0  0  0
  -19.7920  -30.7250   24.2290 H   0  0  0  0  0  0
  -17.5000  -31.6263   24.5154 H   0  0  0  0  0  0
  -15.5335  -30.2990   23.7649 H   0  0  0  0  0  0
  -15.8649  -28.0828   22.7059 H   0  0  0  0  0  0
  -24.5927  -30.7024   25.7822 H   0  0  0  0  0  0
  -24.8930  -32.2823   26.4991 H   0  0  0  0  0  0
  -25.8117  -30.8818   27.0238 H   0  0  0  0  0  0
  -26.2834  -29.6814   24.1182 H   0  0  0  0  0  0
  -27.4084  -29.7289   25.4573 H   0  0  0  0  0  0
  -27.8677  -30.4376   23.9262 H   0  0  0  0  0  0
  -27.2707  -33.3599   26.2131 H   0  0  0  0  0  0
  -28.3848  -32.6889   25.0298 H   0  0  0  0  0  0
  -28.0772  -31.8396   26.5372 H   0  0  0  0  0  0
  -28.2623  -38.0086   24.7524 H   0  0  0  0  0  0
  -28.1060  -36.2628   24.6307 H   0  0  0  0  0  0
  -27.2302  -37.1468   25.8874 H   0  0  0  0  0  0
  -20.9300  -29.8734   21.6962 H   0  0  0  0  0  0
  -26.0198  -38.2884   24.1419 H   0  0  0  0  0  0
  -26.6511  -19.6382   17.9656 H   0  0  0  0  0  0
  -28.7278  -20.5727   21.6168 H   0  0  0  0  0  0
  -26.0463  -21.7100   19.9923 H   0  0  0  0  0  0
  -27.0559  -21.9789   18.6030 H   0  0  0  0  0  0
  -30.7077  -16.7856   19.2306 H   0  0  0  0  0  0
  -29.3617  -15.8554   18.7040 H   0  0  0  0  0  0
  -28.9437  -22.6715   20.2592 H   0  0  0  0  0  0
  -27.6957  -22.7309   21.4844 H   0  0  0  0  0  0
  -26.4432  -24.3749   20.0759 H   0  0  0  0  0  0
  -27.7187  -24.3181   18.8670 H   0  0  0  0  0  0
  -29.3161  -25.0612   20.8045 H   0  0  0  0  0  0
  -27.8852  -25.4829   21.6939 H   0  0  0  0  0  0
  -29.9065  -15.9423   21.5742 H   0  0  0  0  0  0
  1 25  1  0  0  0
  1 30  2  0  0  0
  1 82  1  0  0  0
  2  3  1  0  0  0
  2 25  1  0  0  0
  2 85  1  0  0  0
  2 86  1  0  0  0
  3  4  1  0  0  0
  3 87  1  0  0  0
  3 88  1  0  0  0
  4  5  1  0  0  0
  4 89  1  0  0  0
  4 90  1  0  0  0
  5  6  1  0  0  0
  5 26  1  0  0  0
  5 91  1  0  0  0
  6 25  1  0  0  0
  6 92  1  0  0  0
  6 93  1  0  0  0
  7  8  2  0  0  0
  7 26  1  0  0  0
  7 29  1  0  0  0
  8  9  1  0  0  0
  8 22  1  0  0  0
  9 10  1  0  0  0
  9 27  2  0  0  0
 10 11  2  0  0  0
 10 15  1  0  0  0
 11 12  1  0  0  0
 11 94  1  0  0  0
 12 13  2  0  0  0
 12 95  1  0  0  0
 13 14  1  0  0  0
 13 31  1  0  0  0
 14 15  2  0  0  0
 14 96  1  0  0  0
 15 97  1  0  0  0
 16 17  2  0  0  0
 16 21  1  0  0  0
 16 31  1  0  0  0
 17 18  1  0  0  0
 17 98  1  0  0  0
 18 19  2  0  0  0
 18 99  1  0  0  0
 19 20  1  0  0  0
 19 24  1  0  0  0
 20 21  2  0  0  0
 20100  1  0  0  0
 21 23  1  0  0  0
 22 28  1  0  0  0
 22 32  2  0  0  0
 26 27  1  0  0  0
 28101  1  0  0  0
 28102  1  0  0  0
 29103  1  0  0  0
 29104  1  0  0  0
 33 34  1  0  0  0
 33 66  1  0  0  0
 33 70  2  0  0  0
 34 36  1  0  0  0
 34 59  1  0  0  0
 34105  1  0  0  0
 35 44  2  0  0  0
 35 45  1  0  0  0
 35 68  1  0  0  0
 36 56  1  0  0  0
 36106  1  0  0  0
 37 39  1  0  0  0
 37 47  1  0  0  0
 37 66  1  0  0  0
 37107  1  0  0  0
 38 43  2  0  0  0
 38 46  1  0  0  0
 38 47  1  0  0  0
 39 64  1  0  0  0
 39 67  2  0  0  0
 40 52  1  0  0  0
 40 53  2  0  0  0
 40 58  1  0  0  0
 41108  1  0  0  0
 41109  1  0  0  0
 41110  1  0  0  0
 41 48  1  0  0  0
 42 43  1  0  0  0
 42 66  1  0  0  0
 42111  1  0  0  0
 42112  1  0  0  0
 43 44  1  0  0  0
 44113  1  0  0  0
 45 46  2  0  0  0
 45114  1  0  0  0
 46115  1  0  0  0
 47116  1  0  0  0
 47117  1  0  0  0
 48 56  1  0  0  0
 48 65  1  0  0  0
 48118  1  0  0  0
 49 50  1  0  0  0
 49 53  1  0  0  0
 49 64  1  0  0  0
 49119  1  0  0  0
 50 51  1  0  0  0
 50120  1  0  0  0
 50121  1  0  0  0
 51 52  1  0  0  0
 51122  1  0  0  0
 51123  1  0  0  0
 52124  1  0  0  0
 52125  1  0  0  0
 53 54  1  0  0  0
 54 55  2  0  0  0
 54126  1  0  0  0
 55 57  1  0  0  0
 55127  1  0  0  0
 56 69  2  0  0  0
 57 58  2  0  0  0
 57128  1  0  0  0
 58129  1  0  0  0
 59 60  1  0  0  0
 59 61  1  0  0  0
 59 62  1  0  0  0
 60130  1  0  0  0
 60131  1  0  0  0
 60132  1  0  0  0
 61133  1  0  0  0
 61134  1  0  0  0
 61135  1  0  0  0
 62136  1  0  0  0
 62137  1  0  0  0
 62138  1  0  0  0
 63 65  1  0  0  0
 63139  1  0  0  0
 63140  1  0  0  0
 63141  1  0  0  0
 64142  1  0  0  0
 65143  1  0  0  0
 68 81  1  0  0  0
 71 73  2  0  0  0
 71 75  1  0  0  0
 71144  1  0  0  0
 72 73  1  0  0  0
 72 76  2  0  0  0
 72145  1  0  0  0
 73 77  1  0  0  0
 74 75  2  0  0  0
 74 76  1  0  0  0
 74 78  1  0  0  0
 75 83  1  0  0  0
 76 84  1  0  0  0
 77 79  1  0  0  0
 77146  1  0  0  0
 77147  1  0  0  0
 78 82  1  0  0  0
 78148  1  0  0  0
 78149  1  0  0  0
 79 80  1  0  0  0
 79150  1  0  0  0
 79151  1  0  0  0
 80 81  1  0  0  0
 80152  1  0  0  0
 80153  1  0  0  0
 81154  1  0  0  0
 81155  1  0  0  0
 82156  1  0  0  0
M  ISO  4   1 100  68 101  81 101  82 100
M  END
> <chiral flag>
0

> <version>
0

> <s_m_source_file>
/data/baiqing/PycharmProjects/Reinvent-master-3.2/result/LINK_invent/BTK/process_docking_weight1_custom_sum_contain_oxygen_bond_distance_aromatic_linkinvent_7_9_3/rearranged_h_0026.sdf

> <i_m_source_file_index>
12

> <r_mmod_Potential_Energy-OPLS-2005>
43.6820106506348

> <r_mmod_Stretch_Energy-OPLS-2005>
37.1346015930176

> <r_mmod_Bend_Energy-OPLS-2005>
100.08080291748

> <r_mmod_Torsional_Energy-OPLS-2005>
298.293304443359

> <r_mmod_Improper_Torsional_Energy-OPLS-2005>
15.7765235900879

> <r_mmod_Van_der_Waal_Energy-OPLS-2005>
150.623123168945

> <r_mmod_Electrostatic_Energy-OPLS-2005>
-382.188995361328

> <r_mmod_Solvation_Energy-OPLS-2005>
-193.240798950195

> <b_mmod_Minimization_Converged-OPLS-2005>
0

> <r_mmod_RMS_Derivative-OPLS-2005>
7.33743858337402

$$$$
12
                    3D
 Structure written by MMmdl.
187196  0  0  1  0            999 V2000
  -30.6855  -14.4851   20.3232 C   0  0  0  0  0  0
  -30.4272  -12.2497   19.4036 C   0  0  0  0  0  0
  -29.4828  -12.3897   18.1857 C   0  0  0  0  0  0
  -28.0043  -12.3230   18.6243 C   0  0  0  0  0  0
  -27.6642  -13.1992   19.8614 C   0  0  2  0  0  0
  -28.7363  -13.0561   20.9690 C   0  0  0  0  0  0
  -25.2627  -13.8116   20.5711 C   0  0  0  0  0  0
  -24.1894  -13.0434   20.9227 C   0  0  0  0  0  0
  -24.6392  -11.6882   20.8755 C   0  0  0  0  0  0
  -23.9011  -10.4314   21.0383 C   0  0  0  0  0  0
  -24.3577   -9.4258   21.9202 C   0  0  0  0  0  0
  -23.6284   -8.2256   22.0724 C   0  0  0  0  0  0
  -22.4269   -8.0275   21.3520 C   0  0  0  0  0  0
  -21.9880   -9.0226   20.4636 C   0  0  0  0  0  0
  -22.7158  -10.2140   20.3064 C   0  0  0  0  0  0
  -21.6896   -6.0722   22.5253 C   0  0  0  0  0  0
  -21.4072   -6.5630   23.8186 C   0  0  0  0  0  0
  -21.3672   -5.6762   24.9136 C   0  0  0  0  0  0
  -21.6073   -4.3023   24.7164 C   0  0  0  0  0  0
  -21.8860   -3.8109   23.4276 C   0  0  0  0  0  0
  -21.9227   -4.6947   22.3352 C   0  0  0  0  0  0
  -22.7905  -13.5235   21.1834 C   0  0  0  0  0  0
  -22.1678   -4.2137   21.0917 F   0  0  0  0  0  0
  -21.5617   -3.4534   25.7698 F   0  0  0  0  0  0
  -30.0586  -13.2871   20.3703 N   0  0  0  0  0  0
  -26.3102  -12.9305   20.3466 N   0  0  0  0  0  0
  -25.9348  -11.6471   20.5836 N   0  0  0  0  0  0
  -22.0572  -12.8230   22.0415 N   0  0  0  0  0  0
  -25.4232  -15.1830   20.4010 N   0  0  0  0  0  0
  -31.8974  -14.6371   20.4504 O   0  0  0  0  0  0
  -21.6652   -6.8854   21.4211 O   0  0  0  0  0  0
  -22.3585  -14.5557   20.6636 O   0  0  0  0  0  0
  -24.6114  -31.8692   23.2120 C   0  0  0  0  0  0
  -25.9021  -32.4824   23.8409 C   0  0  1  0  0  0
  -27.2429  -27.4689   20.0618 C   0  0  0  0  0  0
  -25.5882  -33.8615   24.2350 N   0  0  0  0  0  0
  -23.3963  -30.4925   21.5527 C   0  0  2  0  0  0
  -24.8410  -28.9603   20.1156 C   0  0  0  0  0  0
  -22.7383  -29.4664   22.5023 C   0  0  0  0  0  0
  -18.0274  -28.1357   22.8498 C   0  0  0  0  0  0
  -24.1480  -36.7302   23.2640 C   0  0  0  0  0  0
  -25.9227  -30.8388   21.3641 C   0  0  0  0  0  0
  -25.9987  -29.4759   20.7105 C   0  0  0  0  0  0
  -27.1938  -28.7314   20.6919 C   0  0  0  0  0  0
  -26.0609  -26.9520   19.4790 C   0  0  0  0  0  0
  -24.8655  -27.6939   19.5070 C   0  0  0  0  0  0
  -23.6010  -29.8199   20.1681 C   0  0  0  0  0  0
  -25.4107  -36.3117   24.0351 C   0  0  1  0  0  0
  -20.5845  -28.3641   23.1328 C   0  0  2  0  0  0
  -20.6754  -26.9378   22.5414 C   0  0  0  0  0  0
  -19.5741  -26.6369   21.5204 C   0  0  0  0  0  0
  -18.1916  -26.7910   22.1608 C   0  0  0  0  0  0
  -19.1514  -28.8821   23.2901 C   0  0  0  0  0  0
  -18.9442  -30.1430   23.8910 C   0  0  0  0  0  0
  -17.6443  -30.6564   24.0567 C   0  0  0  0  0  0
  -25.9027  -34.9476   23.5143 C   0  0  0  0  0  0
  -16.5336  -29.9069   23.6323 C   0  0  0  0  0  0
  -16.7265  -28.6477   23.0357 C   0  0  0  0  0  0
  -26.4462  -31.6599   25.0734 C   0  0  0  0  0  0
  -25.3734  -31.3667   26.1487 C   0  0  0  0  0  0
  -27.0306  -30.3055   24.6083 C   0  0  0  0  0  0
  -27.6053  -32.4312   25.7480 C   0  0  0  0  0  0
  -27.5578  -37.1812   24.8471 C   0  0  0  0  0  0
  -21.4115  -29.3005   22.3748 N   0  0  0  0  0  0
  -26.4300  -37.3798   23.9401 N   0  0  0  0  0  0
  -24.6617  -31.0811   22.1009 N   0  0  0  0  0  0
  -23.4189  -28.8210   23.3048 O   0  0  0  0  0  0
  -28.4404  -26.7926   20.0813 O   0  0  0  0  0  0
  -26.5583  -34.8922   22.4701 O   0  0  0  0  0  0
  -23.5320  -32.1431   23.7538 O   0  0  0  0  0  0
  -28.9504  -17.0343   20.4565 C   0  0  0  0  0  0
  -27.7457  -17.6599   17.9953 C   0  0  0  0  0  0
  -28.0104  -18.0864   20.3817 C   0  0  0  0  0  0
  -28.8066  -16.7333   18.0241 C   0  0  0  0  0  0
  -29.3263  -16.3361   19.2869 C   0  0  0  0  0  0
  -27.3591  -18.3480   19.1551 C   0  0  0  0  0  0
  -30.1386  -21.9598   20.8911 C   0  0  0  0  0  0
  -27.9552  -22.8269   21.8801 C   0  0  0  0  0  0
  -29.5316  -20.5483   20.7041 C   0  0  0  0  0  0
  -27.8694  -21.3604   22.3662 C   0  0  0  0  0  0
  -29.0638  -23.0688   20.8258 C   0  0  1  0  0  0
  -29.4198  -18.6292   15.5461 C   0  0  0  0  0  0
  -30.8027  -26.1346   22.3643 C   0  0  0  0  0  0
  -28.3715  -15.5687   15.7708 C   0  0  0  0  0  0
  -27.7674  -18.9925   21.5826 C   0  0  0  0  0  0
  -30.1935  -17.3575   15.9447 C   0  0  0  0  0  0
  -30.6652  -24.6655   21.9320 C   0  0  0  0  0  0
  -29.9431  -25.0468   19.5701 C   0  0  0  0  0  0
  -28.7476  -25.8550   19.0486 C   0  0  0  0  0  0
  -29.4011  -16.2470   16.6848 C   0  0  1  0  0  0
  -30.1709  -15.2063   19.3195 N   0  0  0  0  0  0
  -28.1566  -20.3990   21.2744 N   0  3  2  0  0  0
  -29.6126  -24.4607   20.8996 N   0  3  1  0  0  0
  -26.1694  -19.5974   19.0166 Cl  0  0  0  0  0  0
  -31.4709  -12.3400   19.0976 H   0  0  0  0  0  0
  -30.3244  -11.2613   19.8541 H   0  0  0  0  0  0
  -29.6843  -11.5991   17.4599 H   0  0  0  0  0  0
  -29.6753  -13.3090   17.6413 H   0  0  0  0  0  0
  -27.7776  -11.2794   18.8475 H   0  0  0  0  0  0
  -27.3527  -12.5866   17.7921 H   0  0  0  0  0  0
  -27.6744  -14.2310   19.5158 H   0  0  0  0  0  0
  -28.7082  -12.0593   21.4141 H   0  0  0  0  0  0
  -28.5494  -13.7662   21.7753 H   0  0  0  0  0  0
  -25.2709   -9.5825   22.4793 H   0  0  0  0  0  0
  -24.0021   -7.4645   22.7405 H   0  0  0  0  0  0
  -21.0825   -8.8719   19.8924 H   0  0  0  0  0  0
  -22.3566  -10.9673   19.6172 H   0  0  0  0  0  0
  -21.2127   -7.6133   23.9712 H   0  0  0  0  0  0
  -21.1438   -6.0435   25.9035 H   0  0  0  0  0  0
  -22.0651   -2.7590   23.2708 H   0  0  0  0  0  0
  -22.4183  -11.9823   22.4739 H   0  0  0  0  0  0
  -21.1226  -13.1282   22.2705 H   0  0  0  0  0  0
  -24.6335  -15.8157   20.4625 H   0  0  0  0  0  0
  -26.2671  -15.6228   20.0612 H   0  0  0  0  0  0
  -26.7094  -32.5524   23.1174 H   0  0  0  0  0  0
  -25.0098  -33.9803   25.0540 H   0  0  0  0  0  0
  -22.6836  -31.3078   21.4146 H   0  0  0  0  0  0
  -23.3747  -35.9620   23.3320 H   0  0  0  0  0  0
  -24.3598  -36.8890   22.2048 H   0  0  0  0  0  0
  -23.7218  -37.6508   23.6642 H   0  0  0  0  0  0
  -26.0388  -31.6079   20.5994 H   0  0  0  0  0  0
  -26.8096  -30.8882   21.9832 H   0  0  0  0  0  0
  -28.0903  -29.1280   21.1505 H   0  0  0  0  0  0
  -26.0205  -25.9799   19.0120 H   0  0  0  0  0  0
  -23.9696  -27.2867   19.0577 H   0  0  0  0  0  0
  -23.6940  -30.5893   19.4021 H   0  0  0  0  0  0
  -22.7277  -29.2296   19.8849 H   0  0  0  0  0  0
  -25.1283  -36.1988   25.0844 H   0  0  0  0  0  0
  -20.9947  -28.3178   24.1444 H   0  0  0  0  0  0
  -20.5636  -26.2240   23.3592 H   0  0  0  0  0  0
  -21.6626  -26.7405   22.1211 H   0  0  0  0  0  0
  -19.6887  -25.6283   21.1220 H   0  0  0  0  0  0
  -19.6680  -27.3184   20.6748 H   0  0  0  0  0  0
  -17.4186  -26.6693   21.3995 H   0  0  0  0  0  0
  -18.0285  -26.0032   22.8978 H   0  0  0  0  0  0
  -19.7932  -30.7251   24.2267 H   0  0  0  0  0  0
  -17.5007  -31.6258   24.5136 H   0  0  0  0  0  0
  -15.5347  -30.2971   23.7652 H   0  0  0  0  0  0
  -15.8653  -28.0797   22.7078 H   0  0  0  0  0  0
  -24.5939  -30.6988   25.7813 H   0  0  0  0  0  0
  -24.8898  -32.2803   26.4944 H   0  0  0  0  0  0
  -25.8107  -30.8838   27.0234 H   0  0  0  0  0  0
  -26.2855  -29.6801   24.1161 H   0  0  0  0  0  0
  -27.4131  -29.7302   25.4522 H   0  0  0  0  0  0
  -27.8656  -30.4403   23.9205 H   0  0  0  0  0  0
  -27.2692  -33.3604   26.2073 H   0  0  0  0  0  0
  -28.3839  -32.6864   25.0287 H   0  0  0  0  0  0
  -28.0734  -31.8421   26.5367 H   0  0  0  0  0  0
  -28.2609  -38.0099   24.7526 H   0  0  0  0  0  0
  -28.1073  -36.2641   24.6300 H   0  0  0  0  0  0
  -27.2308  -37.1450   25.8880 H   0  0  0  0  0  0
  -20.9280  -29.8734   21.6974 H   0  0  0  0  0  0
  -26.0188  -38.2871   24.1414 H   0  0  0  0  0  0
  -29.4137  -16.7812   21.4008 H   0  0  0  0  0  0
  -27.2841  -17.9287   17.0568 H   0  0  0  0  0  0
  -30.9066  -22.1223   20.1338 H   0  0  0  0  0  0
  -30.6514  -21.9887   21.8530 H   0  0  0  0  0  0
  -28.0910  -23.4665   22.7532 H   0  0  0  0  0  0
  -26.9953  -23.1245   21.4545 H   0  0  0  0  0  0
  -30.2035  -19.8126   21.1553 H   0  0  0  0  0  0
  -29.4933  -20.3133   19.6403 H   0  0  0  0  0  0
  -26.8822  -21.1777   22.7889 H   0  0  0  0  0  0
  -28.5815  -21.1992   23.1773 H   0  0  0  0  0  0
  -28.5757  -22.9684   19.8546 H   0  0  0  0  0  0
  -30.0547  -19.3158   14.9886 H   0  0  0  0  0  0
  -29.0687  -19.1839   16.4120 H   0  0  0  0  0  0
  -28.5576  -18.4117   14.9187 H   0  0  0  0  0  0
  -31.4661  -26.2110   23.2244 H   0  0  0  0  0  0
  -29.8407  -26.5616   22.6517 H   0  0  0  0  0  0
  -31.2309  -26.7602   21.5819 H   0  0  0  0  0  0
  -27.8991  -14.7231   16.2705 H   0  0  0  0  0  0
  -28.8720  -15.1748   14.8843 H   0  0  0  0  0  0
  -27.5941  -16.2487   15.4253 H   0  0  0  0  0  0
  -28.3293  -18.6346   22.4492 H   0  0  0  0  0  0
  -26.7081  -18.9505   21.8482 H   0  0  0  0  0  0
  -31.0382  -17.6630   16.5631 H   0  0  0  0  0  0
  -30.6332  -16.9279   15.0441 H   0  0  0  0  0  0
  -30.4108  -24.0881   22.8217 H   0  0  0  0  0  0
  -31.6205  -24.2805   21.5739 H   0  0  0  0  0  0
  -30.7998  -25.7138   19.6393 H   0  0  0  0  0  0
  -30.2364  -24.2785   18.8537 H   0  0  0  0  0  0
  -27.9340  -25.1733   18.8119 H   0  0  0  0  0  0
  -29.0146  -26.3871   18.1355 H   0  0  0  0  0  0
  -30.1428  -15.4720   16.8739 H   0  0  0  0  0  0
  -30.2135  -14.7159   18.4418 H   0  0  0  0  0  0
  -27.5137  -20.6390   20.5294 H   0  0  0  0  0  0
  -28.8414  -25.0407   21.2076 H   0  0  0  0  0  0
  1 25  1  0  0  0
  1 30  2  0  0  0
  1 91  1  0  0  0
  2  3  1  0  0  0
  2 25  1  0  0  0
  2 95  1  0  0  0
  2 96  1  0  0  0
  3  4  1  0  0  0
  3 97  1  0  0  0
  3 98  1  0  0  0
  4  5  1  0  0  0
  4 99  1  0  0  0
  4100  1  0  0  0
  5  6  1  0  0  0
  5 26  1  0  0  0
  5101  1  0  0  0
  6 25  1  0  0  0
  6102  1  0  0  0
  6103  1  0  0  0
  7  8  2  0  0  0
  7 26  1  0  0  0
  7 29  1  0  0  0
  8  9  1  0  0  0
  8 22  1  0  0  0
  9 10  1  0  0  0
  9 27  2  0  0  0
 10 11  2  0  0  0
 10 15  1  0  0  0
 11 12  1  0  0  0
 11104  1  0  0  0
 12 13  2  0  0  0
 12105  1  0  0  0
 13 14  1  0  0  0
 13 31  1  0  0  0
 14 15  2  0  0  0
 14106  1  0  0  0
 15107  1  0  0  0
 16 17  2  0  0  0
 16 21  1  0  0  0
 16 31  1  0  0  0
 17 18  1  0  0  0
 17108  1  0  0  0
 18 19  2  0  0  0
 18109  1  0  0  0
 19 20  1  0  0  0
 19 24  1  0  0  0
 20 21  2  0  0  0
 20110  1  0  0  0
 21 23  1  0  0  0
 22 28  1  0  0  0
 22 32  2  0  0  0
 26 27  1  0  0  0
 28111  1  0  0  0
 28112  1  0  0  0
 29113  1  0  0  0
 29114  1  0  0  0
 33 34  1  0  0  0
 33 66  1  0  0  0
 33 70  2  0  0  0
 34 36  1  0  0  0
 34 59  1  0  0  0
 34115  1  0  0  0
 35 44  2  0  0  0
 35 45  1  0  0  0
 35 68  1  0  0  0
 36 56  1  0  0  0
 36116  1  0  0  0
 37 39  1  0  0  0
 37 47  1  0  0  0
 37 66  1  0  0  0
 37117  1  0  0  0
 38 43  2  0  0  0
 38 46  1  0  0  0
 38 47  1  0  0  0
 39 64  1  0  0  0
 39 67  2  0  0  0
 40 52  1  0  0  0
 40 53  2  0  0  0
 40 58  1  0  0  0
 41118  1  0  0  0
 41119  1  0  0  0
 41120  1  0  0  0
 41 48  1  0  0  0
 42 43  1  0  0  0
 42 66  1  0  0  0
 42121  1  0  0  0
 42122  1  0  0  0
 43 44  1  0  0  0
 44123  1  0  0  0
 45 46  2  0  0  0
 45124  1  0  0  0
 46125  1  0  0  0
 47126  1  0  0  0
 47127  1  0  0  0
 48 56  1  0  0  0
 48 65  1  0  0  0
 48128  1  0  0  0
 49 50  1  0  0  0
 49 53  1  0  0  0
 49 64  1  0  0  0
 49129  1  0  0  0
 50 51  1  0  0  0
 50130  1  0  0  0
 50131  1  0  0  0
 51 52  1  0  0  0
 51132  1  0  0  0
 51133  1  0  0  0
 52134  1  0  0  0
 52135  1  0  0  0
 53 54  1  0  0  0
 54 55  2  0  0  0
 54136  1  0  0  0
 55 57  1  0  0  0
 55137  1  0  0  0
 56 69  2  0  0  0
 57 58  2  0  0  0
 57138  1  0  0  0
 58139  1  0  0  0
 59 60  1  0  0  0
 59 61  1  0  0  0
 59 62  1  0  0  0
 60140  1  0  0  0
 60141  1  0  0  0
 60142  1  0  0  0
 61143  1  0  0  0
 61144  1  0  0  0
 61145  1  0  0  0
 62146  1  0  0  0
 62147  1  0  0  0
 62148  1  0  0  0
 63 65  1  0  0  0
 63149  1  0  0  0
 63150  1  0  0  0
 63151  1  0  0  0
 64152  1  0  0  0
 65153  1  0  0  0
 68 89  1  0  0  0
 71 73  2  0  0  0
 71 75  1  0  0  0
 71154  1  0  0  0
 72 74  1  0  0  0
 72 76  2  0  0  0
 72155  1  0  0  0
 73 76  1  0  0  0
 73 85  1  0  0  0
 74 75  2  0  0  0
 74 90  1  0  0  0
 75 91  1  0  0  0
 76 94  1  0  0  0
 77 79  1  0  0  0
 77156  1  0  0  0
 77157  1  0  0  0
 77 81  1  0  0  0
 78 80  1  0  0  0
 78 81  1  0  0  0
 78158  1  0  0  0
 78159  1  0  0  0
 79 92  1  0  0  0
 79160  1  0  0  0
 79161  1  0  0  0
 80 92  1  0  0  0
 80162  1  0  0  0
 80163  1  0  0  0
 81 93  1  0  0  0
 81164  1  0  0  0
 82 86  1  0  0  0
 82165  1  0  0  0
 82166  1  0  0  0
 82167  1  0  0  0
 83 87  1  0  0  0
 83168  1  0  0  0
 83169  1  0  0  0
 83170  1  0  0  0
 84171  1  0  0  0
 84172  1  0  0  0
 84173  1  0  0  0
 84 90  1  0  0  0
 85174  1  0  0  0
 85175  1  0  0  0
 85 92  1  0  0  0
 86 90  1  0  0  0
 86176  1  0  0  0
 86177  1  0  0  0
 87178  1  0  0  0
 87179  1  0  0  0
 87 93  1  0  0  0
 88 89  1  0  0  0
 88 93  1  0  0  0
 88180  1  0  0  0
 88181  1  0  0  0
 89182  1  0  0  0
 89183  1  0  0  0
 90184  1  0  0  0
 91185  1  0  0  0
 92186  1  0  0  0
 93187  1  0  0  0
M  CHG  2  92   1  93   1
M  ISO  4   1 100  68 101  89 101  91 100
M  END
> <chiral flag>
0

> <version>
0

> <s_m_source_file>
/data/baiqing/PycharmProjects/Reinvent-master-3.2/result/LINK_invent/BTK/process_docking_weight1_custom_sum_contain_oxygen_bond_distance_aromatic_linkinvent_7_9_3/rearranged_h_0026.sdf

> <i_m_source_file_index>
13

> <r_mmod_Potential_Energy-OPLS-2005>
-54.3969879150391

> <r_mmod_Stretch_Energy-OPLS-2005>
39.570068359375

> <r_mmod_Bend_Energy-OPLS-2005>
137.835342407227

> <r_mmod_Torsional_Energy-OPLS-2005>
397.544647216797

> <r_mmod_Improper_Torsional_Energy-OPLS-2005>
36.9047698974609

> <r_mmod_Van_der_Waal_Energy-OPLS-2005>
153.011459350586

> <r_mmod_Electrostatic_Energy-OPLS-2005>
28.0023651123047

> <r_mmod_Solvation_Energy-OPLS-2005>
-891.197448730469

> <b_mmod_Minimization_Converged-OPLS-2005>
0

> <r_mmod_RMS_Derivative-OPLS-2005>
5.30488634109497

$$$$
13
                    3D
 Structure written by MMmdl.
163171  0  0  1  0            999 V2000
  -30.5523  -14.9607   20.4094 C   0  0  0  0  0  0
  -30.4366  -12.5948   19.4981 C   0  0  0  0  0  0
  -29.5185  -12.5277   18.2561 C   0  0  0  0  0  0
  -28.0537  -12.3115   18.6776 C   0  0  0  0  0  0
  -27.6282  -13.2507   19.8363 C   0  0  2  0  0  0
  -28.6718  -13.2959   20.9728 C   0  0  0  0  0  0
  -25.2462  -13.8216   20.5716 C   0  0  0  0  0  0
  -24.1779  -13.0439   20.9223 C   0  0  0  0  0  0
  -24.6403  -11.6928   20.8763 C   0  0  0  0  0  0
  -23.9090  -10.4296   21.0415 C   0  0  0  0  0  0
  -24.3640   -9.4210   21.9193 C   0  0  0  0  0  0
  -23.6308   -8.2245   22.0761 C   0  0  0  0  0  0
  -22.4286   -8.0286   21.3552 C   0  0  0  0  0  0
  -21.9928   -9.0259   20.4652 C   0  0  0  0  0  0
  -22.7262  -10.2137   20.3060 C   0  0  0  0  0  0
  -21.6854   -6.0743   22.5285 C   0  0  0  0  0  0
  -21.4010   -6.5650   23.8217 C   0  0  0  0  0  0
  -21.3655   -5.6800   24.9177 C   0  0  0  0  0  0
  -21.6041   -4.3063   24.7224 C   0  0  0  0  0  0
  -21.8817   -3.8157   23.4345 C   0  0  0  0  0  0
  -21.9192   -4.6973   22.3402 C   0  0  0  0  0  0
  -22.7799  -13.5209   21.1871 C   0  0  0  0  0  0
  -22.1664   -4.2162   21.0977 F   0  0  0  0  0  0
  -21.5624   -3.4542   25.7734 F   0  0  0  0  0  0
  -29.9458  -13.7042   20.3679 N   0  0  0  0  0  0
  -26.2889  -12.9459   20.3254 N   0  0  0  0  0  0
  -25.9341  -11.6587   20.5756 N   0  0  0  0  0  0
  -22.0456  -12.8195   22.0429 N   0  0  0  0  0  0
  -25.4125  -15.1945   20.4152 N   0  0  0  0  0  0
  -31.7604  -14.9885   20.1535 O   0  0  0  0  0  0
  -21.6648   -6.8887   21.4248 O   0  0  0  0  0  0
  -22.3482  -14.5519   20.6719 O   0  0  0  0  0  0
  -24.6460  -31.8425   23.1871 C   0  0  0  0  0  0
  -25.9228  -32.4686   23.8268 C   0  0  1  0  0  0
  -27.2143  -27.1163   20.1511 C   0  0  0  0  0  0
  -25.5982  -33.8493   24.2180 N   0  0  0  0  0  0
  -23.4502  -30.4636   21.5324 C   0  0  2  0  0  0
  -24.8989  -28.8871   20.1117 C   0  0  0  0  0  0
  -22.7581  -29.4549   22.4837 C   0  0  0  0  0  0
  -18.0307  -28.1392   22.8470 C   0  0  0  0  0  0
  -24.1490  -36.7233   23.2642 C   0  0  0  0  0  0
  -26.0090  -30.7097   21.3904 C   0  0  0  0  0  0
  -26.0789  -29.3196   20.7303 C   0  0  0  0  0  0
  -27.2384  -28.4520   20.7296 C   0  0  0  0  0  0
  -26.0066  -26.7932   19.4921 C   0  0  0  0  0  0
  -24.8772  -27.6382   19.4764 C   0  0  0  0  0  0
  -23.6786  -29.7940   20.1518 C   0  0  0  0  0  0
  -25.4121  -36.3015   24.0318 C   0  0  1  0  0  0
  -20.5924  -28.3721   23.1216 C   0  0  2  0  0  0
  -20.6792  -26.9418   22.5399 C   0  0  0  0  0  0
  -19.5772  -26.6371   21.5205 C   0  0  0  0  0  0
  -18.1949  -26.7934   22.1606 C   0  0  0  0  0  0
  -19.1568  -28.8872   23.2838 C   0  0  0  0  0  0
  -18.9490  -30.1468   23.8863 C   0  0  0  0  0  0
  -17.6488  -30.6588   24.0565 C   0  0  0  0  0  0
  -25.9083  -34.9399   23.5050 C   0  0  0  0  0  0
  -16.5374  -29.9083   23.6345 C   0  0  0  0  0  0
  -16.7291  -28.6505   23.0358 C   0  0  0  0  0  0
  -26.4542  -31.6565   25.0720 C   0  0  0  0  0  0
  -25.3727  -31.3759   26.1419 C   0  0  0  0  0  0
  -27.0417  -30.2961   24.6322 C   0  0  0  0  0  0
  -27.6075  -32.4336   25.7495 C   0  0  0  0  0  0
  -27.5581  -37.1752   24.8452 C   0  0  0  0  0  0
  -21.4269  -29.3054   22.3589 N   0  0  0  0  0  0
  -26.4259  -37.3756   23.9443 N   0  0  0  0  0  0
  -24.7217  -31.0269   22.0912 N   0  0  0  0  0  0
  -23.4222  -28.8102   23.2991 O   0  0  0  0  0  0
  -28.2625  -26.1172   20.2047 O   0  0  0  0  0  0
  -26.5665  -34.8908   22.4623 O   0  0  0  0  0  0
  -23.5575  -32.1299   23.7084 O   0  0  0  0  0  0
  -30.8745  -20.5064   20.3853 C   0  0  0  0  0  0
  -31.4449  -18.0895   20.3823 C   0  0  0  0  0  0
  -31.8209  -19.4542   20.3371 C   0  0  0  0  0  0
  -29.4882  -20.2712   20.4638 C   0  0  0  0  0  0
  -30.0958  -17.6705   20.4517 C   0  0  0  0  0  0
  -29.1331  -18.8114   20.4590 C   0  0  0  0  0  0
  -33.2960  -19.7946   20.2468 C   0  0  0  0  0  0
  -27.1910  -20.4721   22.5837 C   0  0  0  0  0  0
  -27.2255  -18.4511   19.1764 C   0  0  0  0  0  0
  -27.9667  -21.6889   22.0636 C   0  0  0  0  0  0
  -28.9792  -23.2274   20.2808 C   0  0  0  0  0  0
  -27.9461  -24.5810   20.2424 C   0  0  0  0  0  0
  -28.5165  -21.6190   20.6146 C   0  0  1  0  0  0
  -29.7802  -16.1603   20.5188 N   0  0  0  0  0  0
  -27.8102  -18.4594   20.4696 O   0  0  0  0  0  0
  -31.4702  -12.7452   19.1827 H   0  0  0  0  0  0
  -30.4285  -11.6477   20.0397 H   0  0  0  0  0  0
  -29.8392  -11.7260   17.5896 H   0  0  0  0  0  0
  -29.6028  -13.4538   17.6855 H   0  0  0  0  0  0
  -27.9539  -11.2717   18.9919 H   0  0  0  0  0  0
  -27.3880  -12.4354   17.8228 H   0  0  0  0  0  0
  -27.5861  -14.2488   19.3994 H   0  0  0  0  0  0
  -28.7615  -12.3281   21.4685 H   0  0  0  0  0  0
  -28.3701  -14.0107   21.7398 H   0  0  0  0  0  0
  -25.2782   -9.5684   22.4774 H   0  0  0  0  0  0
  -24.0013   -7.4638   22.7483 H   0  0  0  0  0  0
  -21.0857   -8.8786   19.8957 H   0  0  0  0  0  0
  -22.3727  -10.9681   19.6173 H   0  0  0  0  0  0
  -21.2005   -7.6160   23.9724 H   0  0  0  0  0  0
  -21.1472   -6.0529   25.9079 H   0  0  0  0  0  0
  -22.0596   -2.7620   23.2839 H   0  0  0  0  0  0
  -22.4082  -11.9855   22.4803 H   0  0  0  0  0  0
  -21.1078  -13.1218   22.2654 H   0  0  0  0  0  0
  -24.6427  -15.8435   20.5344 H   0  0  0  0  0  0
  -26.2620  -15.6423   20.1006 H   0  0  0  0  0  0
  -26.7290  -32.5278   23.0993 H   0  0  0  0  0  0
  -25.0153  -33.9614   25.0346 H   0  0  0  0  0  0
  -22.7546  -31.2906   21.3770 H   0  0  0  0  0  0
  -23.3788  -35.9526   23.3232 H   0  0  0  0  0  0
  -24.3594  -36.8935   22.2074 H   0  0  0  0  0  0
  -23.7195  -37.6384   23.6724 H   0  0  0  0  0  0
  -26.1711  -31.4644   20.6199 H   0  0  0  0  0  0
  -26.8774  -30.7574   22.0354 H   0  0  0  0  0  0
  -28.1377  -28.7803   21.2318 H   0  0  0  0  0  0
  -25.8951  -25.8481   18.9858 H   0  0  0  0  0  0
  -23.9782  -27.3042   18.9758 H   0  0  0  0  0  0
  -23.8231  -30.5700   19.3995 H   0  0  0  0  0  0
  -22.7924  -29.2414   19.8338 H   0  0  0  0  0  0
  -25.1300  -36.1820   25.0808 H   0  0  0  0  0  0
  -21.0012  -28.3309   24.1337 H   0  0  0  0  0  0
  -20.5664  -26.2339   23.3625 H   0  0  0  0  0  0
  -21.6661  -26.7416   22.1207 H   0  0  0  0  0  0
  -19.6939  -25.6273   21.1251 H   0  0  0  0  0  0
  -19.6713  -27.3170   20.6727 H   0  0  0  0  0  0
  -17.4222  -26.6680   21.4004 H   0  0  0  0  0  0
  -18.0344  -26.0071   22.8994 H   0  0  0  0  0  0
  -19.7971  -30.7294   24.2202 H   0  0  0  0  0  0
  -17.5048  -31.6265   24.5177 H   0  0  0  0  0  0
  -15.5375  -30.2986   23.7686 H   0  0  0  0  0  0
  -15.8687  -28.0822   22.7084 H   0  0  0  0  0  0
  -24.5931  -30.7076   25.7746 H   0  0  0  0  0  0
  -24.8897  -32.2941   26.4772 H   0  0  0  0  0  0
  -25.8021  -30.8991   27.0240 H   0  0  0  0  0  0
  -26.3040  -29.6670   24.1330 H   0  0  0  0  0  0
  -27.4026  -29.7281   25.4906 H   0  0  0  0  0  0
  -27.8949  -30.4198   23.9650 H   0  0  0  0  0  0
  -27.2685  -33.3679   26.1983 H   0  0  0  0  0  0
  -28.3929  -32.6822   25.0344 H   0  0  0  0  0  0
  -28.0696  -31.8516   26.5480 H   0  0  0  0  0  0
  -28.2518  -38.0130   24.7611 H   0  0  0  0  0  0
  -28.1145  -36.2662   24.6108 H   0  0  0  0  0  0
  -27.2319  -37.1190   25.8853 H   0  0  0  0  0  0
  -20.9469  -29.8778   21.6783 H   0  0  0  0  0  0
  -26.0103  -38.2789   24.1552 H   0  0  0  0  0  0
  -31.2276  -21.5281   20.3741 H   0  0  0  0  0  0
  -32.2369  -17.3568   20.3626 H   0  0  0  0  0  0
  -33.4739  -20.8635   20.3695 H   0  0  0  0  0  0
  -33.6941  -19.4963   19.2764 H   0  0  0  0  0  0
  -33.8587  -19.2719   21.0208 H   0  0  0  0  0  0
  -26.7366  -20.6928   23.5497 H   0  0  0  0  0  0
  -27.8412  -19.6118   22.7349 H   0  0  0  0  0  0
  -26.3893  -20.1898   21.9016 H   0  0  0  0  0  0
  -26.1641  -18.2148   19.2557 H   0  0  0  0  0  0
  -27.6906  -17.6954   18.5415 H   0  0  0  0  0  0
  -27.3154  -19.4196   18.6834 H   0  0  0  0  0  0
  -28.7934  -21.8886   22.7470 H   0  0  0  0  0  0
  -27.2994  -22.5440   22.1540 H   0  0  0  0  0  0
  -29.7695  -23.4710   20.9914 H   0  0  0  0  0  0
  -29.4814  -23.2086   19.3137 H   0  0  0  0  0  0
  -27.2830  -24.4857   21.1007 H   0  0  0  0  0  0
  -27.3122  -24.3761   19.3825 H   0  0  0  0  0  0
  -27.6731  -21.4195   19.9536 H   0  0  0  0  0  0
  -28.7995  -15.9689   20.6501 H   0  0  0  0  0  0
  1 25  1  0  0  0
  1 30  2  0  0  0
  1 84  1  0  0  0
  2  3  1  0  0  0
  2 25  1  0  0  0
  2 86  1  0  0  0
  2 87  1  0  0  0
  3  4  1  0  0  0
  3 88  1  0  0  0
  3 89  1  0  0  0
  4  5  1  0  0  0
  4 90  1  0  0  0
  4 91  1  0  0  0
  5  6  1  0  0  0
  5 26  1  0  0  0
  5 92  1  0  0  0
  6 25  1  0  0  0
  6 93  1  0  0  0
  6 94  1  0  0  0
  7  8  2  0  0  0
  7 26  1  0  0  0
  7 29  1  0  0  0
  8  9  1  0  0  0
  8 22  1  0  0  0
  9 10  1  0  0  0
  9 27  2  0  0  0
 10 11  2  0  0  0
 10 15  1  0  0  0
 11 12  1  0  0  0
 11 95  1  0  0  0
 12 13  2  0  0  0
 12 96  1  0  0  0
 13 14  1  0  0  0
 13 31  1  0  0  0
 14 15  2  0  0  0
 14 97  1  0  0  0
 15 98  1  0  0  0
 16 17  2  0  0  0
 16 21  1  0  0  0
 16 31  1  0  0  0
 17 18  1  0  0  0
 17 99  1  0  0  0
 18 19  2  0  0  0
 18100  1  0  0  0
 19 20  1  0  0  0
 19 24  1  0  0  0
 20 21  2  0  0  0
 20101  1  0  0  0
 21 23  1  0  0  0
 22 28  1  0  0  0
 22 32  2  0  0  0
 26 27  1  0  0  0
 28102  1  0  0  0
 28103  1  0  0  0
 29104  1  0  0  0
 29105  1  0  0  0
 33 34  1  0  0  0
 33 66  1  0  0  0
 33 70  2  0  0  0
 34 36  1  0  0  0
 34 59  1  0  0  0
 34106  1  0  0  0
 35 44  2  0  0  0
 35 45  1  0  0  0
 35 68  1  0  0  0
 36 56  1  0  0  0
 36107  1  0  0  0
 37 39  1  0  0  0
 37 47  1  0  0  0
 37 66  1  0  0  0
 37108  1  0  0  0
 38 43  2  0  0  0
 38 46  1  0  0  0
 38 47  1  0  0  0
 39 64  1  0  0  0
 39 67  2  0  0  0
 40 52  1  0  0  0
 40 53  2  0  0  0
 40 58  1  0  0  0
 41109  1  0  0  0
 41110  1  0  0  0
 41111  1  0  0  0
 41 48  1  0  0  0
 42 43  1  0  0  0
 42 66  1  0  0  0
 42112  1  0  0  0
 42113  1  0  0  0
 43 44  1  0  0  0
 44114  1  0  0  0
 45 46  2  0  0  0
 45115  1  0  0  0
 46116  1  0  0  0
 47117  1  0  0  0
 47118  1  0  0  0
 48 56  1  0  0  0
 48 65  1  0  0  0
 48119  1  0  0  0
 49 50  1  0  0  0
 49 53  1  0  0  0
 49 64  1  0  0  0
 49120  1  0  0  0
 50 51  1  0  0  0
 50121  1  0  0  0
 50122  1  0  0  0
 51 52  1  0  0  0
 51123  1  0  0  0
 51124  1  0  0  0
 52125  1  0  0  0
 52126  1  0  0  0
 53 54  1  0  0  0
 54 55  2  0  0  0
 54127  1  0  0  0
 55 57  1  0  0  0
 55128  1  0  0  0
 56 69  2  0  0  0
 57 58  2  0  0  0
 57129  1  0  0  0
 58130  1  0  0  0
 59 60  1  0  0  0
 59 61  1  0  0  0
 59 62  1  0  0  0
 60131  1  0  0  0
 60132  1  0  0  0
 60133  1  0  0  0
 61134  1  0  0  0
 61135  1  0  0  0
 61136  1  0  0  0
 62137  1  0  0  0
 62138  1  0  0  0
 62139  1  0  0  0
 63 65  1  0  0  0
 63140  1  0  0  0
 63141  1  0  0  0
 63142  1  0  0  0
 64143  1  0  0  0
 65144  1  0  0  0
 68 82  1  0  0  0
 71 73  2  0  0  0
 71 74  1  0  0  0
 71145  1  0  0  0
 72 73  1  0  0  0
 72 75  2  0  0  0
 72146  1  0  0  0
 73 77  1  0  0  0
 74 76  2  0  0  0
 74 83  1  0  0  0
 75 76  1  0  0  0
 75 84  1  0  0  0
 76 85  1  0  0  0
 77147  1  0  0  0
 77148  1  0  0  0
 77149  1  0  0  0
 78 80  1  0  0  0
 78150  1  0  0  0
 78151  1  0  0  0
 78152  1  0  0  0
 79 85  1  0  0  0
 79153  1  0  0  0
 79154  1  0  0  0
 79155  1  0  0  0
 80156  1  0  0  0
 80157  1  0  0  0
 80 83  1  0  0  0
 81 82  1  0  0  0
 81 83  1  0  0  0
 81158  1  0  0  0
 81159  1  0  0  0
 82160  1  0  0  0
 82161  1  0  0  0
 83162  1  0  0  0
 84163  1  0  0  0
M  ISO  4   1 100  68 101  82 101  84 100
M  END
> <chiral flag>
0

> <version>
0

> <s_m_source_file>
/data/baiqing/PycharmProjects/Reinvent-master-3.2/result/LINK_invent/BTK/process_docking_weight1_custom_sum_contain_oxygen_bond_distance_aromatic_linkinvent_7_9_3/rearranged_h_0026.sdf

> <i_m_source_file_index>
14

> <r_mmod_Potential_Energy-OPLS-2005>
538.656188964844

> <r_mmod_Stretch_Energy-OPLS-2005>
290.17822265625

> <r_mmod_Bend_Energy-OPLS-2005>
255.378189086914

> <r_mmod_Torsional_Energy-OPLS-2005>
254.216873168945

> <r_mmod_Improper_Torsional_Energy-OPLS-2005>
4.56848335266113

> <r_mmod_Van_der_Waal_Energy-OPLS-2005>
128.360290527344

> <r_mmod_Electrostatic_Energy-OPLS-2005>
-401.153350830078

> <r_mmod_Solvation_Energy-OPLS-2005>
-197.041748046875

> <b_mmod_Minimization_Converged-OPLS-2005>
0

> <r_mmod_RMS_Derivative-OPLS-2005>
1.0932365655899

$$$$
14
                    3D
 Structure written by MMmdl.
173182  0  0  1  0            999 V2000
  -30.8085  -14.3474   20.7103 C   0  0  0  0  0  0
  -30.4121  -12.2943   19.3994 C   0  0  0  0  0  0
  -29.4826  -12.5342   18.1970 C   0  0  0  0  0  0
  -28.0106  -12.3819   18.6157 C   0  0  0  0  0  0
  -27.6677  -13.2095   19.8812 C   0  0  2  0  0  0
  -28.7070  -12.9756   21.0025 C   0  0  0  0  0  0
  -25.2607  -13.8175   20.5681 C   0  0  0  0  0  0
  -24.1850  -13.0441   20.9158 C   0  0  0  0  0  0
  -24.6414  -11.6915   20.8726 C   0  0  0  0  0  0
  -23.9077  -10.4296   21.0403 C   0  0  0  0  0  0
  -24.3622   -9.4216   21.9185 C   0  0  0  0  0  0
  -23.6294   -8.2252   22.0756 C   0  0  0  0  0  0
  -22.4276   -8.0291   21.3546 C   0  0  0  0  0  0
  -21.9921   -9.0265   20.4646 C   0  0  0  0  0  0
  -22.7248  -10.2145   20.3054 C   0  0  0  0  0  0
  -21.6858   -6.0745   22.5276 C   0  0  0  0  0  0
  -21.4010   -6.5643   23.8210 C   0  0  0  0  0  0
  -21.3660   -5.6794   24.9173 C   0  0  0  0  0  0
  -21.6046   -4.3057   24.7223 C   0  0  0  0  0  0
  -21.8823   -3.8154   23.4342 C   0  0  0  0  0  0
  -21.9193   -4.6972   22.3399 C   0  0  0  0  0  0
  -22.7875  -13.5245   21.1822 C   0  0  0  0  0  0
  -22.1664   -4.2158   21.0978 F   0  0  0  0  0  0
  -21.5635   -3.4539   25.7736 F   0  0  0  0  0  0
  -30.0554  -13.2425   20.4663 N   0  0  0  0  0  0
  -26.3060  -12.9354   20.3400 N   0  0  0  0  0  0
  -25.9346  -11.6508   20.5773 N   0  0  0  0  0  0
  -22.0519  -12.8237   22.0385 N   0  0  0  0  0  0
  -25.4311  -15.1888   20.4104 N   0  0  0  0  0  0
  -31.7867  -14.6603   20.0253 O   0  0  0  0  0  0
  -21.6638   -6.8890   21.4240 O   0  0  0  0  0  0
  -22.3560  -14.5557   20.6689 O   0  0  0  0  0  0
  -24.6130  -31.8663   23.2107 C   0  0  0  0  0  0
  -25.9033  -32.4813   23.8402 C   0  0  1  0  0  0
  -27.2426  -27.4602   20.0962 C   0  0  0  0  0  0
  -25.5880  -33.8610   24.2336 N   0  0  0  0  0  0
  -23.3980  -30.4887   21.5496 C   0  0  2  0  0  0
  -24.8454  -28.9519   20.1167 C   0  0  0  0  0  0
  -22.7372  -29.4649   22.5000 C   0  0  0  0  0  0
  -18.0251  -28.1352   22.8502 C   0  0  0  0  0  0
  -24.1454  -36.7310   23.2658 C   0  0  0  0  0  0
  -25.9205  -30.8457   21.3503 C   0  0  0  0  0  0
  -26.0025  -29.4788   20.7026 C   0  0  0  0  0  0
  -27.2057  -28.7433   20.6818 C   0  0  0  0  0  0
  -26.0672  -26.9342   19.5164 C   0  0  0  0  0  0
  -24.8707  -27.6777   19.5214 C   0  0  0  0  0  0
  -23.6032  -29.8124   20.1661 C   0  0  0  0  0  0
  -25.4079  -36.3108   24.0349 C   0  0  1  0  0  0
  -20.5835  -28.3646   23.1315 C   0  0  2  0  0  0
  -20.6721  -26.9378   22.5419 C   0  0  0  0  0  0
  -19.5701  -26.6373   21.5204 C   0  0  0  0  0  0
  -18.1877  -26.7911   22.1615 C   0  0  0  0  0  0
  -19.1504  -28.8818   23.2897 C   0  0  0  0  0  0
  -18.9449  -30.1427   23.8903 C   0  0  0  0  0  0
  -17.6450  -30.6568   24.0560 C   0  0  0  0  0  0
  -25.9010  -34.9470   23.5137 C   0  0  0  0  0  0
  -16.5337  -29.9068   23.6332 C   0  0  0  0  0  0
  -16.7245  -28.6474   23.0369 C   0  0  0  0  0  0
  -26.4491  -31.6601   25.0729 C   0  0  0  0  0  0
  -25.3795  -31.3645   26.1506 C   0  0  0  0  0  0
  -27.0390  -30.3088   24.6069 C   0  0  0  0  0  0
  -27.6038  -32.4363   25.7494 C   0  0  0  0  0  0
  -27.5547  -37.1789   24.8485 C   0  0  0  0  0  0
  -21.4101  -29.3030   22.3738 N   0  0  0  0  0  0
  -26.4258  -37.3795   23.9430 N   0  0  0  0  0  0
  -24.6621  -31.0814   22.0966 N   0  0  0  0  0  0
  -23.4154  -28.8171   23.3018 O   0  0  0  0  0  0
  -28.4348  -26.7757   20.0801 O   0  0  0  0  0  0
  -26.5560  -34.8928   22.4690 O   0  0  0  0  0  0
  -23.5342  -32.1379   23.7553 O   0  0  0  0  0  0
  -30.3861  -18.5437   22.1099 C   0  0  0  0  0  0
  -30.4193  -17.3300   22.7455 C   0  0  0  0  0  0
  -29.5071  -17.4597   23.8261 C   0  0  0  0  0  0
  -28.9517  -18.7063   23.8449 C   0  0  0  0  0  0
  -26.2540  -20.8403   20.6708 C   0  0  0  0  0  0
  -27.4795  -19.9385   20.6106 C   0  0  0  0  0  0
  -26.7869  -22.1438   20.0889 C   0  0  0  0  0  0
  -28.6696  -20.8826   20.9008 C   0  0  2  0  0  0
  -27.9638  -19.3143   24.7893 C   0  0  0  0  0  0
  -30.4440  -21.6467   22.6271 C   0  0  0  0  0  0
  -31.2655  -16.1298   22.3895 C   0  0  0  0  0  0
  -28.5978  -24.4568   19.3084 C   0  0  0  0  0  0
  -29.0881  -23.0330   19.6780 C   0  0  0  0  0  0
  -28.4165  -25.4124   20.5021 C   0  0  0  0  0  0
  -29.2014  -20.7774   22.3633 C   0  0  2  0  0  0
  -29.4897  -19.3915   22.7578 N   0  0  0  0  0  0
  -30.4925  -15.0252   21.8205 N   0  0  0  0  0  0
  -28.1827  -22.2600   20.5755 N   0  3  1  0  0  0
  -29.1670  -16.2142   24.9720 Cl  0  0  0  0  0  0
  -31.4557  -12.3829   19.0927 H   0  0  0  0  0  0
  -30.3008  -11.2739   19.7687 H   0  0  0  0  0  0
  -29.7165  -11.8365   17.3921 H   0  0  0  0  0  0
  -29.6498  -13.5353   17.7958 H   0  0  0  0  0  0
  -27.8230  -11.3232   18.7992 H   0  0  0  0  0  0
  -27.3554  -12.6685   17.7919 H   0  0  0  0  0  0
  -27.7201  -14.2614   19.5985 H   0  0  0  0  0  0
  -28.6631  -11.9445   21.3553 H   0  0  0  0  0  0
  -28.4549  -13.5916   21.8658 H   0  0  0  0  0  0
  -25.2773   -9.5689   22.4753 H   0  0  0  0  0  0
  -24.0008   -7.4650   22.7480 H   0  0  0  0  0  0
  -21.0854   -8.8788   19.8946 H   0  0  0  0  0  0
  -22.3717  -10.9684   19.6158 H   0  0  0  0  0  0
  -21.1992   -7.6148   23.9718 H   0  0  0  0  0  0
  -21.1480   -6.0521   25.9078 H   0  0  0  0  0  0
  -22.0600   -2.7612   23.2841 H   0  0  0  0  0  0
  -22.4145  -11.9897   22.4761 H   0  0  0  0  0  0
  -21.1142  -13.1269   22.2606 H   0  0  0  0  0  0
  -24.6673  -15.8458   20.5282 H   0  0  0  0  0  0
  -26.2977  -15.6323   20.1306 H   0  0  0  0  0  0
  -26.7096  -32.5543   23.1162 H   0  0  0  0  0  0
  -25.0061  -33.9776   25.0508 H   0  0  0  0  0  0
  -22.6863  -31.3041   21.4063 H   0  0  0  0  0  0
  -23.3712  -35.9645   23.3346 H   0  0  0  0  0  0
  -24.3533  -36.8922   22.2067 H   0  0  0  0  0  0
  -23.7218  -37.6516   23.6679 H   0  0  0  0  0  0
  -26.0164  -31.6077   20.5759 H   0  0  0  0  0  0
  -26.8142  -30.9095   21.9574 H   0  0  0  0  0  0
  -28.1041  -29.1531   21.1228 H   0  0  0  0  0  0
  -26.0702  -25.9617   19.0482 H   0  0  0  0  0  0
  -23.9806  -27.2633   19.0683 H   0  0  0  0  0  0
  -23.7002  -30.5801   19.3975 H   0  0  0  0  0  0
  -22.7315  -29.2196   19.8815 H   0  0  0  0  0  0
  -25.1251  -36.1958   25.0840 H   0  0  0  0  0  0
  -20.9916  -28.3223   24.1438 H   0  0  0  0  0  0
  -20.5593  -26.2259   23.3609 H   0  0  0  0  0  0
  -21.6593  -26.7386   22.1228 H   0  0  0  0  0  0
  -19.6856  -25.6295   21.1202 H   0  0  0  0  0  0
  -19.6643  -27.3209   20.6752 H   0  0  0  0  0  0
  -17.4145  -26.6700   21.4010 H   0  0  0  0  0  0
  -18.0243  -26.0040   22.8993 H   0  0  0  0  0  0
  -19.7941  -30.7220   24.2282 H   0  0  0  0  0  0
  -17.5023  -31.6256   24.5154 H   0  0  0  0  0  0
  -15.5340  -30.2963   23.7669 H   0  0  0  0  0  0
  -15.8642  -28.0783   22.7105 H   0  0  0  0  0  0
  -24.5954  -30.7008   25.7852 H   0  0  0  0  0  0
  -24.9004  -32.2771   26.5053 H   0  0  0  0  0  0
  -25.8202  -30.8756   27.0211 H   0  0  0  0  0  0
  -26.2914  -29.6704   24.1341 H   0  0  0  0  0  0
  -27.4463  -29.7466   25.4487 H   0  0  0  0  0  0
  -27.8586  -30.4480   23.9012 H   0  0  0  0  0  0
  -27.2620  -33.3655   26.2062 H   0  0  0  0  0  0
  -28.3828  -32.6936   25.0309 H   0  0  0  0  0  0
  -28.0715  -31.8510   26.5423 H   0  0  0  0  0  0
  -28.2578  -38.0071   24.7512 H   0  0  0  0  0  0
  -28.1018  -36.2599   24.6325 H   0  0  0  0  0  0
  -27.2259  -37.1451   25.8887 H   0  0  0  0  0  0
  -20.9243  -29.8811   21.7022 H   0  0  0  0  0  0
  -26.0148  -38.2863   24.1482 H   0  0  0  0  0  0
  -30.9376  -18.8843   21.2434 H   0  0  0  0  0  0
  -25.9456  -20.9873   21.7075 H   0  0  0  0  0  0
  -25.4003  -20.4470   20.1181 H   0  0  0  0  0  0
  -27.5803  -19.5342   19.6021 H   0  0  0  0  0  0
  -27.3969  -19.0860   21.2850 H   0  0  0  0  0  0
  -26.1803  -23.0036   20.3755 H   0  0  0  0  0  0
  -26.7757  -22.0806   18.9989 H   0  0  0  0  0  0
  -29.4801  -20.6043   20.2253 H   0  0  0  0  0  0
  -27.7060  -18.6219   25.5907 H   0  0  0  0  0  0
  -27.0406  -19.5765   24.2725 H   0  0  0  0  0  0
  -28.3682  -20.2138   25.2541 H   0  0  0  0  0  0
  -30.2423  -22.7068   22.4773 H   0  0  0  0  0  0
  -31.2755  -21.3691   21.9782 H   0  0  0  0  0  0
  -30.7800  -21.5334   23.6577 H   0  0  0  0  0  0
  -31.7566  -15.7731   23.2957 H   0  0  0  0  0  0
  -32.0657  -16.4586   21.7244 H   0  0  0  0  0  0
  -27.6876  -24.4108   18.7129 H   0  0  0  0  0  0
  -29.3468  -24.8896   18.6442 H   0  0  0  0  0  0
  -30.0744  -23.1018   20.1388 H   0  0  0  0  0  0
  -29.2329  -22.4678   18.7566 H   0  0  0  0  0  0
  -29.2513  -25.2932   21.1945 H   0  0  0  0  0  0
  -27.5177  -25.1692   21.0735 H   0  0  0  0  0  0
  -28.4116  -21.1489   23.0152 H   0  0  0  0  0  0
  -29.7074  -14.6874   22.3550 H   0  0  0  0  0  0
  -28.1348  -22.7491   21.4569 H   0  0  0  0  0  0
  1 25  1  0  0  0
  1 30  2  0  0  0
  1 87  1  0  0  0
  2  3  1  0  0  0
  2 25  1  0  0  0
  2 90  1  0  0  0
  2 91  1  0  0  0
  3  4  1  0  0  0
  3 92  1  0  0  0
  3 93  1  0  0  0
  4  5  1  0  0  0
  4 94  1  0  0  0
  4 95  1  0  0  0
  5  6  1  0  0  0
  5 26  1  0  0  0
  5 96  1  0  0  0
  6 25  1  0  0  0
  6 97  1  0  0  0
  6 98  1  0  0  0
  7  8  2  0  0  0
  7 26  1  0  0  0
  7 29  1  0  0  0
  8  9  1  0  0  0
  8 22  1  0  0  0
  9 10  1  0  0  0
  9 27  2  0  0  0
 10 11  2  0  0  0
 10 15  1  0  0  0
 11 12  1  0  0  0
 11 99  1  0  0  0
 12 13  2  0  0  0
 12100  1  0  0  0
 13 14  1  0  0  0
 13 31  1  0  0  0
 14 15  2  0  0  0
 14101  1  0  0  0
 15102  1  0  0  0
 16 17  2  0  0  0
 16 21  1  0  0  0
 16 31  1  0  0  0
 17 18  1  0  0  0
 17103  1  0  0  0
 18 19  2  0  0  0
 18104  1  0  0  0
 19 20  1  0  0  0
 19 24  1  0  0  0
 20 21  2  0  0  0
 20105  1  0  0  0
 21 23  1  0  0  0
 22 28  1  0  0  0
 22 32  2  0  0  0
 26 27  1  0  0  0
 28106  1  0  0  0
 28107  1  0  0  0
 29108  1  0  0  0
 29109  1  0  0  0
 33 34  1  0  0  0
 33 66  1  0  0  0
 33 70  2  0  0  0
 34 36  1  0  0  0
 34 59  1  0  0  0
 34110  1  0  0  0
 35 44  2  0  0  0
 35 45  1  0  0  0
 35 68  1  0  0  0
 36 56  1  0  0  0
 36111  1  0  0  0
 37 39  1  0  0  0
 37 47  1  0  0  0
 37 66  1  0  0  0
 37112  1  0  0  0
 38 43  2  0  0  0
 38 46  1  0  0  0
 38 47  1  0  0  0
 39 64  1  0  0  0
 39 67  2  0  0  0
 40 52  1  0  0  0
 40 53  2  0  0  0
 40 58  1  0  0  0
 41113  1  0  0  0
 41114  1  0  0  0
 41115  1  0  0  0
 41 48  1  0  0  0
 42 43  1  0  0  0
 42 66  1  0  0  0
 42116  1  0  0  0
 42117  1  0  0  0
 43 44  1  0  0  0
 44118  1  0  0  0
 45 46  2  0  0  0
 45119  1  0  0  0
 46120  1  0  0  0
 47121  1  0  0  0
 47122  1  0  0  0
 48 56  1  0  0  0
 48 65  1  0  0  0
 48123  1  0  0  0
 49 50  1  0  0  0
 49 53  1  0  0  0
 49 64  1  0  0  0
 49124  1  0  0  0
 50 51  1  0  0  0
 50125  1  0  0  0
 50126  1  0  0  0
 51 52  1  0  0  0
 51127  1  0  0  0
 51128  1  0  0  0
 52129  1  0  0  0
 52130  1  0  0  0
 53 54  1  0  0  0
 54 55  2  0  0  0
 54131  1  0  0  0
 55 57  1  0  0  0
 55132  1  0  0  0
 56 69  2  0  0  0
 57 58  2  0  0  0
 57133  1  0  0  0
 58134  1  0  0  0
 59 60  1  0  0  0
 59 61  1  0  0  0
 59 62  1  0  0  0
 60135  1  0  0  0
 60136  1  0  0  0
 60137  1  0  0  0
 61138  1  0  0  0
 61139  1  0  0  0
 61140  1  0  0  0
 62141  1  0  0  0
 62142  1  0  0  0
 62143  1  0  0  0
 63 65  1  0  0  0
 63144  1  0  0  0
 63145  1  0  0  0
 63146  1  0  0  0
 64147  1  0  0  0
 65148  1  0  0  0
 68 84  1  0  0  0
 71 72  2  0  0  0
 71 86  1  0  0  0
 71149  1  0  0  0
 72 73  1  0  0  0
 72 81  1  0  0  0
 73 74  2  0  0  0
 73 89  1  0  0  0
 74 79  1  0  0  0
 74 86  1  0  0  0
 75 76  1  0  0  0
 75 77  1  0  0  0
 75150  1  0  0  0
 75151  1  0  0  0
 76152  1  0  0  0
 76153  1  0  0  0
 76 78  1  0  0  0
 77 88  1  0  0  0
 77154  1  0  0  0
 77155  1  0  0  0
 78 85  1  0  0  0
 78 88  1  0  0  0
 78156  1  0  0  0
 79157  1  0  0  0
 79158  1  0  0  0
 79159  1  0  0  0
 80160  1  0  0  0
 80161  1  0  0  0
 80162  1  0  0  0
 80 85  1  0  0  0
 81 87  1  0  0  0
 81163  1  0  0  0
 81164  1  0  0  0
 82 83  1  0  0  0
 82 84  1  0  0  0
 82165  1  0  0  0
 82166  1  0  0  0
 83167  1  0  0  0
 83168  1  0  0  0
 83 88  1  0  0  0
 84169  1  0  0  0
 84170  1  0  0  0
 85 86  1  0  0  0
 85171  1  0  0  0
 87172  1  0  0  0
 88173  1  0  0  0
M  CHG  1  88   1
M  ISO  4   1 100  68 101  84 101  87 100
M  END
> <chiral flag>
0

> <version>
0

> <s_m_source_file>
/data/baiqing/PycharmProjects/Reinvent-master-3.2/result/LINK_invent/BTK/process_docking_weight1_custom_sum_contain_oxygen_bond_distance_aromatic_linkinvent_7_9_3/rearranged_h_0026.sdf

> <i_m_source_file_index>
15

> <r_mmod_Potential_Energy-OPLS-2005>
-128.678741455078

> <r_mmod_Stretch_Energy-OPLS-2005>
35.7095260620117

> <r_mmod_Bend_Energy-OPLS-2005>
125.528259277344

> <r_mmod_Torsional_Energy-OPLS-2005>
313.339569091797

> <r_mmod_Improper_Torsional_Energy-OPLS-2005>
2.47778153419495

> <r_mmod_Van_der_Waal_Energy-OPLS-2005>
116.467041015625

> <r_mmod_Electrostatic_Energy-OPLS-2005>
-278.063781738281

> <r_mmod_Solvation_Energy-OPLS-2005>
-451.781890869141

> <b_mmod_Minimization_Converged-OPLS-2005>
0

> <r_mmod_RMS_Derivative-OPLS-2005>
1.66683530807495

$$$$
15
                    3D
 Structure written by MMmdl.
166175  0  0  1  0            999 V2000
  -30.7636  -14.3569   20.6986 C   0  0  0  0  0  0
  -30.4176  -12.2950   19.3852 C   0  0  0  0  0  0
  -29.4810  -12.5337   18.1865 C   0  0  0  0  0  0
  -28.0057  -12.3867   18.6045 C   0  0  0  0  0  0
  -27.6649  -13.2024   19.8795 C   0  0  2  0  0  0
  -28.7022  -12.9300   20.9891 C   0  0  0  0  0  0
  -25.2590  -13.8146   20.5654 C   0  0  0  0  0  0
  -24.1832  -13.0429   20.9134 C   0  0  0  0  0  0
  -24.6386  -11.6896   20.8710 C   0  0  0  0  0  0
  -23.9052  -10.4285   21.0392 C   0  0  0  0  0  0
  -24.3607   -9.4207   21.9180 C   0  0  0  0  0  0
  -23.6281   -8.2244   22.0759 C   0  0  0  0  0  0
  -22.4268   -8.0274   21.3544 C   0  0  0  0  0  0
  -21.9897   -9.0246   20.4646 C   0  0  0  0  0  0
  -22.7224  -10.2123   20.3047 C   0  0  0  0  0  0
  -21.6851   -6.0726   22.5277 C   0  0  0  0  0  0
  -21.4010   -6.5633   23.8209 C   0  0  0  0  0  0
  -21.3662   -5.6786   24.9174 C   0  0  0  0  0  0
  -21.6045   -4.3050   24.7223 C   0  0  0  0  0  0
  -21.8818   -3.8139   23.4345 C   0  0  0  0  0  0
  -21.9191   -4.6952   22.3402 C   0  0  0  0  0  0
  -22.7860  -13.5239   21.1808 C   0  0  0  0  0  0
  -22.1659   -4.2138   21.0978 F   0  0  0  0  0  0
  -21.5634   -3.4535   25.7738 F   0  0  0  0  0  0
  -30.0454  -13.2311   20.4551 N   0  0  0  0  0  0
  -26.3036  -12.9314   20.3378 N   0  0  0  0  0  0
  -25.9311  -11.6473   20.5750 N   0  0  0  0  0  0
  -22.0502  -12.8232   22.0370 N   0  0  0  0  0  0
  -25.4309  -15.1857   20.4077 N   0  0  0  0  0  0
  -31.7830  -14.6662   20.0737 O   0  0  0  0  0  0
  -21.6638   -6.8870   21.4241 O   0  0  0  0  0  0
  -22.3542  -14.5549   20.6674 O   0  0  0  0  0  0
  -24.6097  -31.8709   23.2111 C   0  0  0  0  0  0
  -25.8999  -32.4850   23.8393 C   0  0  1  0  0  0
  -27.2431  -27.4720   20.0930 C   0  0  0  0  0  0
  -25.5869  -33.8643   24.2330 N   0  0  0  0  0  0
  -23.3979  -30.4914   21.5510 C   0  0  2  0  0  0
  -24.8483  -28.9592   20.1171 C   0  0  0  0  0  0
  -22.7400  -29.4653   22.5003 C   0  0  0  0  0  0
  -18.0272  -28.1366   22.8489 C   0  0  0  0  0  0
  -24.1477  -36.7311   23.2638 C   0  0  0  0  0  0
  -25.9200  -30.8465   21.3591 C   0  0  0  0  0  0
  -26.0032  -29.4794   20.7158 C   0  0  0  0  0  0
  -27.2042  -28.7406   20.7107 C   0  0  0  0  0  0
  -26.0804  -26.9595   19.4850 C   0  0  0  0  0  0
  -24.8793  -27.6940   19.5025 C   0  0  0  0  0  0
  -23.6070  -29.8201   20.1660 C   0  0  0  0  0  0
  -25.4093  -36.3122   24.0355 C   0  0  1  0  0  0
  -20.5860  -28.3640   23.1328 C   0  0  2  0  0  0
  -20.6767  -26.9383   22.5414 C   0  0  0  0  0  0
  -19.5754  -26.6371   21.5211 C   0  0  0  0  0  0
  -18.1929  -26.7914   22.1612 C   0  0  0  0  0  0
  -19.1521  -28.8823   23.2908 C   0  0  0  0  0  0
  -18.9458  -30.1433   23.8908 C   0  0  0  0  0  0
  -17.6462  -30.6576   24.0567 C   0  0  0  0  0  0
  -25.9014  -34.9493   23.5134 C   0  0  0  0  0  0
  -16.5351  -29.9077   23.6320 C   0  0  0  0  0  0
  -16.7267  -28.6496   23.0332 C   0  0  0  0  0  0
  -26.4444  -31.6624   25.0703 C   0  0  0  0  0  0
  -25.3726  -31.3731   26.1467 C   0  0  0  0  0  0
  -27.0258  -30.3081   24.6017 C   0  0  0  0  0  0
  -27.6022  -32.4334   25.7473 C   0  0  0  0  0  0
  -27.5591  -37.1794   24.8466 C   0  0  0  0  0  0
  -21.4130  -29.3013   22.3744 N   0  0  0  0  0  0
  -26.4283  -37.3801   23.9439 N   0  0  0  0  0  0
  -24.6609  -31.0825   22.0999 N   0  0  0  0  0  0
  -23.4196  -28.8200   23.3027 O   0  0  0  0  0  0
  -28.3937  -26.7296   20.0427 O   0  0  0  0  0  0
  -26.5573  -34.8952   22.4692 O   0  0  0  0  0  0
  -23.5297  -32.1434   23.7525 O   0  0  0  0  0  0
  -31.5097  -18.4496   21.1651 C   0  0  0  0  0  0
  -29.8376  -20.1556   20.5851 C   0  0  0  0  0  0
  -30.5169  -17.5976   21.6795 C   0  0  0  0  0  0
  -31.1895  -19.7109   20.6326 C   0  0  0  0  0  0
  -28.8303  -19.2848   21.0988 C   0  0  0  0  0  0
  -29.1695  -18.0241   21.6495 C   0  0  0  0  0  0
  -29.2937  -23.0501   17.9927 C   0  0  0  0  0  0
  -29.7684  -21.6820   18.5012 C   0  0  0  0  0  0
  -29.8788  -24.1929   18.8409 C   0  0  0  0  0  0
  -30.0037  -22.7361   20.8266 C   0  0  0  0  0  0
  -29.4586  -21.5371   20.0066 C   0  0  2  0  0  0
  -30.9448  -16.2703   22.3011 C   0  0  0  0  0  0
  -29.9505  -25.2085   21.1049 C   0  0  0  0  0  0
  -28.8128  -26.2263   21.3067 C   0  0  0  0  0  0
  -30.3134  -15.0898   21.7215 N   0  0  0  0  0  0
  -29.5299  -24.0394   20.2804 N   0  3  1  0  0  0
  -32.5178  -20.6648   20.0698 Cl  0  0  0  0  0  0
  -27.1536  -19.7363   21.0859 Cl  0  0  0  0  0  0
  -27.9235  -17.0181   22.3150 Cl  0  0  0  0  0  0
  -31.4600  -12.4044   19.0804 H   0  0  0  0  0  0
  -30.3218  -11.2691   19.7442 H   0  0  0  0  0  0
  -29.7127  -11.8338   17.3824 H   0  0  0  0  0  0
  -29.6490  -13.5329   17.7816 H   0  0  0  0  0  0
  -27.8118  -11.3275   18.7777 H   0  0  0  0  0  0
  -27.3514  -12.6832   17.7838 H   0  0  0  0  0  0
  -27.7258  -14.2589   19.6168 H   0  0  0  0  0  0
  -28.6656  -11.8804   21.2852 H   0  0  0  0  0  0
  -28.4433  -13.4867   21.8896 H   0  0  0  0  0  0
  -25.2754   -9.5684   22.4748 H   0  0  0  0  0  0
  -23.9985   -7.4639   22.7485 H   0  0  0  0  0  0
  -21.0827   -8.8755   19.8956 H   0  0  0  0  0  0
  -22.3682  -10.9654   19.6147 H   0  0  0  0  0  0
  -21.1998   -7.6139   23.9708 H   0  0  0  0  0  0
  -21.1487   -6.0520   25.9076 H   0  0  0  0  0  0
  -22.0595   -2.7598   23.2846 H   0  0  0  0  0  0
  -22.4112  -11.9883   22.4741 H   0  0  0  0  0  0
  -21.1128  -13.1266   22.2584 H   0  0  0  0  0  0
  -24.6771  -15.8465   20.5571 H   0  0  0  0  0  0
  -26.3104  -15.6329   20.1838 H   0  0  0  0  0  0
  -26.7069  -32.5593   23.1166 H   0  0  0  0  0  0
  -25.0073  -33.9810   25.0516 H   0  0  0  0  0  0
  -22.6847  -31.3056   21.4088 H   0  0  0  0  0  0
  -23.3765  -35.9615   23.3280 H   0  0  0  0  0  0
  -24.3595  -36.8923   22.2059 H   0  0  0  0  0  0
  -23.7196  -37.6502   23.6647 H   0  0  0  0  0  0
  -26.0164  -31.6090   20.5854 H   0  0  0  0  0  0
  -26.8130  -30.9107   21.9695 H   0  0  0  0  0  0
  -28.0982  -29.1478   21.1622 H   0  0  0  0  0  0
  -26.1058  -25.9932   19.0011 H   0  0  0  0  0  0
  -23.9934  -27.2879   19.0325 H   0  0  0  0  0  0
  -23.7109  -30.5929   19.4044 H   0  0  0  0  0  0
  -22.7325  -29.2355   19.8738 H   0  0  0  0  0  0
  -25.1261  -36.1983   25.0850 H   0  0  0  0  0  0
  -20.9946  -28.3184   24.1446 H   0  0  0  0  0  0
  -20.5668  -26.2244   23.3590 H   0  0  0  0  0  0
  -21.6640  -26.7415   22.1214 H   0  0  0  0  0  0
  -19.6930  -25.6286   21.1223 H   0  0  0  0  0  0
  -19.6720  -27.3194   20.6759 H   0  0  0  0  0  0
  -17.4207  -26.6672   21.4005 H   0  0  0  0  0  0
  -18.0319  -26.0037   22.8987 H   0  0  0  0  0  0
  -19.7944  -30.7242   24.2270 H   0  0  0  0  0  0
  -17.5028  -31.6262   24.5149 H   0  0  0  0  0  0
  -15.5358  -30.2993   23.7639 H   0  0  0  0  0  0
  -15.8667  -28.0836   22.7021 H   0  0  0  0  0  0
  -24.5918  -30.7046   25.7820 H   0  0  0  0  0  0
  -24.8910  -32.2892   26.4890 H   0  0  0  0  0  0
  -25.8097  -30.8944   27.0240 H   0  0  0  0  0  0
  -26.2784  -29.6882   24.1054 H   0  0  0  0  0  0
  -27.4045  -29.7264   25.4428 H   0  0  0  0  0  0
  -27.8600  -30.4431   23.9132 H   0  0  0  0  0  0
  -27.2638  -33.3625   26.2073 H   0  0  0  0  0  0
  -28.3831  -32.6905   25.0303 H   0  0  0  0  0  0
  -28.0691  -31.8451   26.5384 H   0  0  0  0  0  0
  -28.2558  -38.0136   24.7561 H   0  0  0  0  0  0
  -28.1123  -36.2672   24.6195 H   0  0  0  0  0  0
  -27.2335  -37.1315   25.8870 H   0  0  0  0  0  0
  -20.9276  -29.8749   21.6993 H   0  0  0  0  0  0
  -26.0180  -38.2871   24.1476 H   0  0  0  0  0  0
  -32.5451  -18.1430   21.1900 H   0  0  0  0  0  0
  -28.2035  -23.0957   18.0062 H   0  0  0  0  0  0
  -29.5900  -23.1794   16.9509 H   0  0  0  0  0  0
  -30.8318  -21.5864   18.2930 H   0  0  0  0  0  0
  -29.2748  -20.8878   17.9393 H   0  0  0  0  0  0
  -29.5081  -25.1439   18.4583 H   0  0  0  0  0  0
  -30.9645  -24.2183   18.7291 H   0  0  0  0  0  0
  -31.0925  -22.7485   20.8504 H   0  0  0  0  0  0
  -29.6714  -22.6378   21.8609 H   0  0  0  0  0  0
  -28.3789  -21.6442   20.0625 H   0  0  0  0  0  0
  -30.6935  -16.2989   23.3622 H   0  0  0  0  0  0
  -32.0304  -16.1625   22.2617 H   0  0  0  0  0  0
  -30.2623  -24.8754   22.0962 H   0  0  0  0  0  0
  -30.8251  -25.6946   20.6707 H   0  0  0  0  0  0
  -29.1581  -27.0443   21.9408 H   0  0  0  0  0  0
  -27.9741  -25.7538   21.8220 H   0  0  0  0  0  0
  -29.4749  -14.7593   22.1744 H   0  0  0  0  0  0
  -28.5215  -24.0148   20.3295 H   0  0  0  0  0  0
  1 25  1  0  0  0
  1 30  2  0  0  0
  1 85  1  0  0  0
  2  3  1  0  0  0
  2 25  1  0  0  0
  2 90  1  0  0  0
  2 91  1  0  0  0
  3  4  1  0  0  0
  3 92  1  0  0  0
  3 93  1  0  0  0
  4  5  1  0  0  0
  4 94  1  0  0  0
  4 95  1  0  0  0
  5  6  1  0  0  0
  5 26  1  0  0  0
  5 96  1  0  0  0
  6 25  1  0  0  0
  6 97  1  0  0  0
  6 98  1  0  0  0
  7  8  2  0  0  0
  7 26  1  0  0  0
  7 29  1  0  0  0
  8  9  1  0  0  0
  8 22  1  0  0  0
  9 10  1  0  0  0
  9 27  2  0  0  0
 10 11  2  0  0  0
 10 15  1  0  0  0
 11 12  1  0  0  0
 11 99  1  0  0  0
 12 13  2  0  0  0
 12100  1  0  0  0
 13 14  1  0  0  0
 13 31  1  0  0  0
 14 15  2  0  0  0
 14101  1  0  0  0
 15102  1  0  0  0
 16 17  2  0  0  0
 16 21  1  0  0  0
 16 31  1  0  0  0
 17 18  1  0  0  0
 17103  1  0  0  0
 18 19  2  0  0  0
 18104  1  0  0  0
 19 20  1  0  0  0
 19 24  1  0  0  0
 20 21  2  0  0  0
 20105  1  0  0  0
 21 23  1  0  0  0
 22 28  1  0  0  0
 22 32  2  0  0  0
 26 27  1  0  0  0
 28106  1  0  0  0
 28107  1  0  0  0
 29108  1  0  0  0
 29109  1  0  0  0
 33 34  1  0  0  0
 33 66  1  0  0  0
 33 70  2  0  0  0
 34 36  1  0  0  0
 34 59  1  0  0  0
 34110  1  0  0  0
 35 44  2  0  0  0
 35 45  1  0  0  0
 35 68  1  0  0  0
 36 56  1  0  0  0
 36111  1  0  0  0
 37 39  1  0  0  0
 37 47  1  0  0  0
 37 66  1  0  0  0
 37112  1  0  0  0
 38 43  2  0  0  0
 38 46  1  0  0  0
 38 47  1  0  0  0
 39 64  1  0  0  0
 39 67  2  0  0  0
 40 52  1  0  0  0
 40 53  2  0  0  0
 40 58  1  0  0  0
 41113  1  0  0  0
 41114  1  0  0  0
 41115  1  0  0  0
 41 48  1  0  0  0
 42 43  1  0  0  0
 42 66  1  0  0  0
 42116  1  0  0  0
 42117  1  0  0  0
 43 44  1  0  0  0
 44118  1  0  0  0
 45 46  2  0  0  0
 45119  1  0  0  0
 46120  1  0  0  0
 47121  1  0  0  0
 47122  1  0  0  0
 48 56  1  0  0  0
 48 65  1  0  0  0
 48123  1  0  0  0
 49 50  1  0  0  0
 49 53  1  0  0  0
 49 64  1  0  0  0
 49124  1  0  0  0
 50 51  1  0  0  0
 50125  1  0  0  0
 50126  1  0  0  0
 51 52  1  0  0  0
 51127  1  0  0  0
 51128  1  0  0  0
 52129  1  0  0  0
 52130  1  0  0  0
 53 54  1  0  0  0
 54 55  2  0  0  0
 54131  1  0  0  0
 55 57  1  0  0  0
 55132  1  0  0  0
 56 69  2  0  0  0
 57 58  2  0  0  0
 57133  1  0  0  0
 58134  1  0  0  0
 59 60  1  0  0  0
 59 61  1  0  0  0
 59 62  1  0  0  0
 60135  1  0  0  0
 60136  1  0  0  0
 60137  1  0  0  0
 61138  1  0  0  0
 61139  1  0  0  0
 61140  1  0  0  0
 62141  1  0  0  0
 62142  1  0  0  0
 62143  1  0  0  0
 63 65  1  0  0  0
 63144  1  0  0  0
 63145  1  0  0  0
 63146  1  0  0  0
 64147  1  0  0  0
 65148  1  0  0  0
 68 84  1  0  0  0
 71 73  2  0  0  0
 71 74  1  0  0  0
 71149  1  0  0  0
 72 74  2  0  0  0
 72 75  1  0  0  0
 72 81  1  0  0  0
 73 76  1  0  0  0
 73 82  1  0  0  0
 74 87  1  0  0  0
 75 76  2  0  0  0
 75 88  1  0  0  0
 76 89  1  0  0  0
 77 78  1  0  0  0
 77 79  1  0  0  0
 77150  1  0  0  0
 77151  1  0  0  0
 78 81  1  0  0  0
 78152  1  0  0  0
 78153  1  0  0  0
 79 86  1  0  0  0
 79154  1  0  0  0
 79155  1  0  0  0
 80 81  1  0  0  0
 80 86  1  0  0  0
 80156  1  0  0  0
 80157  1  0  0  0
 81158  1  0  0  0
 82 85  1  0  0  0
 82159  1  0  0  0
 82160  1  0  0  0
 83 84  1  0  0  0
 83161  1  0  0  0
 83162  1  0  0  0
 83 86  1  0  0  0
 84163  1  0  0  0
 84164  1  0  0  0
 85165  1  0  0  0
 86166  1  0  0  0
M  CHG  1  86   1
M  ISO  4   1 100  68 101  84 101  85 100
M  END
> <chiral flag>
0

> <version>
0

> <s_m_source_file>
/data/baiqing/PycharmProjects/Reinvent-master-3.2/result/LINK_invent/BTK/process_docking_weight1_custom_sum_contain_oxygen_bond_distance_aromatic_linkinvent_7_9_3/rearranged_h_0026.sdf

> <i_m_source_file_index>
16

> <r_mmod_Potential_Energy-OPLS-2005>
-140.727447509766

> <r_mmod_Stretch_Energy-OPLS-2005>
37.0294418334961

> <r_mmod_Bend_Energy-OPLS-2005>
94.2930297851562

> <r_mmod_Torsional_Energy-OPLS-2005>
257.419036865234

> <r_mmod_Improper_Torsional_Energy-OPLS-2005>
1.87782025337219

> <r_mmod_Van_der_Waal_Energy-OPLS-2005>
160.019104003906

> <r_mmod_Electrostatic_Energy-OPLS-2005>
-289.1416015625

> <r_mmod_Solvation_Energy-OPLS-2005>
-408.493804931641

> <b_mmod_Minimization_Converged-OPLS-2005>
0

> <r_mmod_RMS_Derivative-OPLS-2005>
1.46467351913452

$$$$
16
                    3D
 Structure written by MMmdl.
159167  0  0  1  0            999 V2000
  -30.6763  -14.4850   20.5465 C   0  0  0  0  0  0
  -30.4341  -12.3004   19.4382 C   0  0  0  0  0  0
  -29.5026  -12.4980   18.2208 C   0  0  0  0  0  0
  -28.0213  -12.3613   18.6254 C   0  0  0  0  0  0
  -27.6655  -13.1947   19.8831 C   0  0  2  0  0  0
  -28.7069  -12.9650   21.0069 C   0  0  0  0  0  0
  -25.2605  -13.8122   20.5656 C   0  0  0  0  0  0
  -24.1837  -13.0421   20.9143 C   0  0  0  0  0  0
  -24.6390  -11.6888   20.8777 C   0  0  0  0  0  0
  -23.9066  -10.4279   21.0463 C   0  0  0  0  0  0
  -24.3612   -9.4163   21.9211 C   0  0  0  0  0  0
  -23.6271   -8.2204   22.0761 C   0  0  0  0  0  0
  -22.4256   -8.0270   21.3543 C   0  0  0  0  0  0
  -21.9909   -9.0249   20.4646 C   0  0  0  0  0  0
  -22.7268  -10.2107   20.3069 C   0  0  0  0  0  0
  -21.6832   -6.0717   22.5269 C   0  0  0  0  0  0
  -21.4008   -6.5632   23.8188 C   0  0  0  0  0  0
  -21.3668   -5.6796   24.9166 C   0  0  0  0  0  0
  -21.6036   -4.3056   24.7225 C   0  0  0  0  0  0
  -21.8827   -3.8134   23.4347 C   0  0  0  0  0  0
  -21.9176   -4.6942   22.3398 C   0  0  0  0  0  0
  -22.7871  -13.5222   21.1853 C   0  0  0  0  0  0
  -22.1659   -4.2130   21.0984 F   0  0  0  0  0  0
  -21.5627   -3.4541   25.7739 F   0  0  0  0  0  0
  -30.0483  -13.2780   20.4694 N   0  0  0  0  0  0
  -26.3027  -12.9257   20.3382 N   0  0  0  0  0  0
  -25.9307  -11.6437   20.5794 N   0  0  0  0  0  0
  -22.0508  -12.8192   22.0396 N   0  0  0  0  0  0
  -25.4356  -15.1861   20.4080 N   0  0  0  0  0  0
  -31.7369  -14.7299   19.9673 O   0  0  0  0  0  0
  -21.6619   -6.8858   21.4234 O   0  0  0  0  0  0
  -22.3559  -14.5539   20.6716 O   0  0  0  0  0  0
  -24.6152  -31.8679   23.2090 C   0  0  0  0  0  0
  -25.9054  -32.4811   23.8368 C   0  0  1  0  0  0
  -27.2253  -27.4214   20.0620 C   0  0  0  0  0  0
  -25.5900  -33.8607   24.2308 N   0  0  0  0  0  0
  -23.4031  -30.4938   21.5499 C   0  0  2  0  0  0
  -24.8424  -28.9614   20.1100 C   0  0  0  0  0  0
  -22.7424  -29.4661   22.4959 C   0  0  0  0  0  0
  -18.0301  -28.1349   22.8546 C   0  0  0  0  0  0
  -24.1462  -36.7281   23.2649 C   0  0  0  0  0  0
  -25.9346  -30.8237   21.3679 C   0  0  0  0  0  0
  -26.0065  -29.4585   20.7073 C   0  0  0  0  0  0
  -27.1982  -28.6976   20.6782 C   0  0  0  0  0  0
  -26.0322  -26.9347   19.4765 C   0  0  0  0  0  0
  -24.8504  -27.6980   19.4958 C   0  0  0  0  0  0
  -23.6077  -29.8330   20.1634 C   0  0  0  0  0  0
  -25.4085  -36.3085   24.0340 C   0  0  1  0  0  0
  -20.5887  -28.3650   23.1307 C   0  0  2  0  0  0
  -20.6757  -26.9377   22.5421 C   0  0  0  0  0  0
  -19.5734  -26.6366   21.5233 C   0  0  0  0  0  0
  -18.1920  -26.7901   22.1654 C   0  0  0  0  0  0
  -19.1538  -28.8824   23.2941 C   0  0  0  0  0  0
  -18.9489  -30.1451   23.8925 C   0  0  0  0  0  0
  -17.6477  -30.6570   24.0607 C   0  0  0  0  0  0
  -25.9032  -34.9472   23.5114 C   0  0  0  0  0  0
  -16.5380  -29.9086   23.6339 C   0  0  0  0  0  0
  -16.7290  -28.6493   23.0365 C   0  0  0  0  0  0
  -26.4451  -31.6621   25.0735 C   0  0  0  0  0  0
  -25.3716  -31.3762   26.1494 C   0  0  0  0  0  0
  -27.0292  -30.3057   24.6180 C   0  0  0  0  0  0
  -27.6011  -32.4363   25.7493 C   0  0  0  0  0  0
  -27.5580  -37.1770   24.8484 C   0  0  0  0  0  0
  -21.4144  -29.3043   22.3725 N   0  0  0  0  0  0
  -26.4286  -37.3777   23.9428 N   0  0  0  0  0  0
  -24.6704  -31.0774   22.0983 N   0  0  0  0  0  0
  -23.4195  -28.8179   23.2989 O   0  0  0  0  0  0
  -28.4106  -26.7064   20.0459 O   0  0  0  0  0  0
  -26.5626  -34.8927   22.4689 O   0  0  0  0  0  0
  -23.5348  -32.1445   23.7458 O   0  0  0  0  0  0
  -31.9006  -19.5973   20.1321 C   0  0  0  0  0  0
  -30.1045  -19.8167   18.5279 C   0  0  0  0  0  0
  -31.2809  -20.3346   19.0954 C   0  0  0  0  0  0
  -30.1504  -17.8604   20.0457 C   0  0  0  0  0  0
  -31.3477  -18.3798   20.6112 C   0  0  0  0  0  0
  -29.5388  -18.6137   18.9998 C   0  0  0  0  0  0
  -29.3836  -16.6236   20.5833 C   0  0  0  0  0  0
  -31.8841  -21.6434   18.5535 C   0  0  0  0  0  0
  -29.8460  -24.8019   19.5555 C   0  0  0  0  0  0
  -30.0968  -23.4437   18.8394 C   0  0  0  0  0  0
  -28.4506  -25.4327   19.3732 C   0  0  0  0  0  0
  -30.0074  -15.4401   21.2127 N   0  0  0  0  0  0
  -31.4188  -22.8808   19.2261 N   0  3  0  0  0  0
  -32.1582  -17.6025   21.9259 Cl  0  0  0  0  0  0
  -28.0374  -18.1317   18.2831 Cl  0  0  0  0  0  0
  -31.4824  -12.3917   19.1470 H   0  0  0  0  0  0
  -30.3238  -11.2904   19.8330 H   0  0  0  0  0  0
  -29.7419  -11.7658   17.4477 H   0  0  0  0  0  0
  -29.6763  -13.4783   17.7723 H   0  0  0  0  0  0
  -27.8284  -11.3056   18.8172 H   0  0  0  0  0  0
  -27.3757  -12.6380   17.7922 H   0  0  0  0  0  0
  -27.7060  -14.2397   19.5900 H   0  0  0  0  0  0
  -28.6830  -11.9194   21.3216 H   0  0  0  0  0  0
  -28.4586  -13.5328   21.9036 H   0  0  0  0  0  0
  -25.2776   -9.5574   22.4752 H   0  0  0  0  0  0
  -23.9957   -7.4581   22.7470 H   0  0  0  0  0  0
  -21.0825   -8.8793   19.8936 H   0  0  0  0  0  0
  -22.3799  -10.9633   19.6134 H   0  0  0  0  0  0
  -21.2019   -7.6149   23.9686 H   0  0  0  0  0  0
  -21.1490   -6.0539   25.9065 H   0  0  0  0  0  0
  -22.0596   -2.7593   23.2869 H   0  0  0  0  0  0
  -22.4162  -11.9872   22.4789 H   0  0  0  0  0  0
  -21.1111  -13.1140   22.2577 H   0  0  0  0  0  0
  -24.6720  -15.8456   20.5248 H   0  0  0  0  0  0
  -26.2895  -15.6233   20.0873 H   0  0  0  0  0  0
  -26.7116  -32.5511   23.1120 H   0  0  0  0  0  0
  -25.0039  -33.9782   25.0448 H   0  0  0  0  0  0
  -22.6927  -31.3129   21.4092 H   0  0  0  0  0  0
  -23.3756  -35.9601   23.3344 H   0  0  0  0  0  0
  -24.3552  -36.8871   22.2071 H   0  0  0  0  0  0
  -23.7204  -37.6480   23.6624 H   0  0  0  0  0  0
  -26.0666  -31.5954   20.6051 H   0  0  0  0  0  0
  -26.8125  -30.8623   22.0020 H   0  0  0  0  0  0
  -28.1020  -29.0859   21.1246 H   0  0  0  0  0  0
  -25.9887  -25.9699   18.9939 H   0  0  0  0  0  0
  -23.9520  -27.3135   19.0365 H   0  0  0  0  0  0
  -23.7101  -30.6079   19.4044 H   0  0  0  0  0  0
  -22.7280  -29.2588   19.8727 H   0  0  0  0  0  0
  -25.1250  -36.1936   25.0835 H   0  0  0  0  0  0
  -21.0065  -28.3211   24.1390 H   0  0  0  0  0  0
  -20.5612  -26.2282   23.3626 H   0  0  0  0  0  0
  -21.6613  -26.7335   22.1240 H   0  0  0  0  0  0
  -19.6869  -25.6288   21.1247 H   0  0  0  0  0  0
  -19.6624  -27.3208   20.6785 H   0  0  0  0  0  0
  -17.4180  -26.6754   21.4060 H   0  0  0  0  0  0
  -18.0273  -25.9976   22.8976 H   0  0  0  0  0  0
  -19.7965  -30.7312   24.2217 H   0  0  0  0  0  0
  -17.5033  -31.6239   24.5250 H   0  0  0  0  0  0
  -15.5389  -30.3012   23.7591 H   0  0  0  0  0  0
  -15.8701  -28.0851   22.6983 H   0  0  0  0  0  0
  -24.5899  -30.7071   25.7879 H   0  0  0  0  0  0
  -24.8895  -32.2935   26.4871 H   0  0  0  0  0  0
  -25.8058  -30.9010   27.0313 H   0  0  0  0  0  0
  -26.2860  -29.6845   24.1178 H   0  0  0  0  0  0
  -27.4000  -29.7248   25.4652 H   0  0  0  0  0  0
  -27.8701  -30.4358   23.9364 H   0  0  0  0  0  0
  -27.2587  -33.3670   26.2010 H   0  0  0  0  0  0
  -28.3792  -32.6951   25.0305 H   0  0  0  0  0  0
  -28.0696  -31.8575   26.5452 H   0  0  0  0  0  0
  -28.2576  -38.0092   24.7538 H   0  0  0  0  0  0
  -28.1065  -36.2613   24.6233 H   0  0  0  0  0  0
  -27.2307  -37.1368   25.8896 H   0  0  0  0  0  0
  -20.9272  -29.8830   21.7033 H   0  0  0  0  0  0
  -26.0180  -38.2851   24.1457 H   0  0  0  0  0  0
  -32.8095  -19.9670   20.5834 H   0  0  0  0  0  0
  -29.6171  -20.3512   17.7258 H   0  0  0  0  0  0
  -28.7802  -16.2127   19.7789 H   0  0  0  0  0  0
  -28.6661  -17.0117   21.3077 H   0  0  0  0  0  0
  -31.7282  -21.7314   17.4756 H   0  0  0  0  0  0
  -32.9666  -21.6019   18.6826 H   0  0  0  0  0  0
  -30.5896  -25.5180   19.2064 H   0  0  0  0  0  0
  -30.0241  -24.6783   20.6215 H   0  0  0  0  0  0
  -30.0808  -23.6022   17.7598 H   0  0  0  0  0  0
  -29.3088  -22.7249   19.0673 H   0  0  0  0  0  0
  -27.6999  -24.7575   19.7899 H   0  0  0  0  0  0
  -28.2358  -25.5779   18.3131 H   0  0  0  0  0  0
  -29.4017  -15.0427   21.9154 H   0  0  0  0  0  0
  -32.0991  -23.5906   19.0092 H   0  0  0  0  0  0
  -31.4505  -22.7377   20.2218 H   0  0  0  0  0  0
  1 25  1  0  0  0
  1 30  2  0  0  0
  1 82  1  0  0  0
  2  3  1  0  0  0
  2 25  1  0  0  0
  2 86  1  0  0  0
  2 87  1  0  0  0
  3  4  1  0  0  0
  3 88  1  0  0  0
  3 89  1  0  0  0
  4  5  1  0  0  0
  4 90  1  0  0  0
  4 91  1  0  0  0
  5  6  1  0  0  0
  5 26  1  0  0  0
  5 92  1  0  0  0
  6 25  1  0  0  0
  6 93  1  0  0  0
  6 94  1  0  0  0
  7  8  2  0  0  0
  7 26  1  0  0  0
  7 29  1  0  0  0
  8  9  1  0  0  0
  8 22  1  0  0  0
  9 10  1  0  0  0
  9 27  2  0  0  0
 10 11  2  0  0  0
 10 15  1  0  0  0
 11 12  1  0  0  0
 11 95  1  0  0  0
 12 13  2  0  0  0
 12 96  1  0  0  0
 13 14  1  0  0  0
 13 31  1  0  0  0
 14 15  2  0  0  0
 14 97  1  0  0  0
 15 98  1  0  0  0
 16 17  2  0  0  0
 16 21  1  0  0  0
 16 31  1  0  0  0
 17 18  1  0  0  0
 17 99  1  0  0  0
 18 19  2  0  0  0
 18100  1  0  0  0
 19 20  1  0  0  0
 19 24  1  0  0  0
 20 21  2  0  0  0
 20101  1  0  0  0
 21 23  1  0  0  0
 22 28  1  0  0  0
 22 32  2  0  0  0
 26 27  1  0  0  0
 28102  1  0  0  0
 28103  1  0  0  0
 29104  1  0  0  0
 29105  1  0  0  0
 33 34  1  0  0  0
 33 66  1  0  0  0
 33 70  2  0  0  0
 34 36  1  0  0  0
 34 59  1  0  0  0
 34106  1  0  0  0
 35 44  2  0  0  0
 35 45  1  0  0  0
 35 68  1  0  0  0
 36 56  1  0  0  0
 36107  1  0  0  0
 37 39  1  0  0  0
 37 47  1  0  0  0
 37 66  1  0  0  0
 37108  1  0  0  0
 38 43  2  0  0  0
 38 46  1  0  0  0
 38 47  1  0  0  0
 39 64  1  0  0  0
 39 67  2  0  0  0
 40 52  1  0  0  0
 40 53  2  0  0  0
 40 58  1  0  0  0
 41109  1  0  0  0
 41110  1  0  0  0
 41111  1  0  0  0
 41 48  1  0  0  0
 42 43  1  0  0  0
 42 66  1  0  0  0
 42112  1  0  0  0
 42113  1  0  0  0
 43 44  1  0  0  0
 44114  1  0  0  0
 45 46  2  0  0  0
 45115  1  0  0  0
 46116  1  0  0  0
 47117  1  0  0  0
 47118  1  0  0  0
 48 56  1  0  0  0
 48 65  1  0  0  0
 48119  1  0  0  0
 49 50  1  0  0  0
 49 53  1  0  0  0
 49 64  1  0  0  0
 49120  1  0  0  0
 50 51  1  0  0  0
 50121  1  0  0  0
 50122  1  0  0  0
 51 52  1  0  0  0
 51123  1  0  0  0
 51124  1  0  0  0
 52125  1  0  0  0
 52126  1  0  0  0
 53 54  1  0  0  0
 54 55  2  0  0  0
 54127  1  0  0  0
 55 57  1  0  0  0
 55128  1  0  0  0
 56 69  2  0  0  0
 57 58  2  0  0  0
 57129  1  0  0  0
 58130  1  0  0  0
 59 60  1  0  0  0
 59 61  1  0  0  0
 59 62  1  0  0  0
 60131  1  0  0  0
 60132  1  0  0  0
 60133  1  0  0  0
 61134  1  0  0  0
 61135  1  0  0  0
 61136  1  0  0  0
 62137  1  0  0  0
 62138  1  0  0  0
 62139  1  0  0  0
 63 65  1  0  0  0
 63140  1  0  0  0
 63141  1  0  0  0
 63142  1  0  0  0
 64143  1  0  0  0
 65144  1  0  0  0
 68 81  1  0  0  0
 71 73  2  0  0  0
 71 75  1  0  0  0
 71145  1  0  0  0
 72 73  1  0  0  0
 72 76  2  0  0  0
 72146  1  0  0  0
 73 78  1  0  0  0
 74 75  2  0  0  0
 74 76  1  0  0  0
 74 77  1  0  0  0
 75 84  1  0  0  0
 76 85  1  0  0  0
 77 82  1  0  0  0
 77147  1  0  0  0
 77148  1  0  0  0
 78 83  1  0  0  0
 78149  1  0  0  0
 78150  1  0  0  0
 79 80  1  0  0  0
 79 81  1  0  0  0
 79151  1  0  0  0
 79152  1  0  0  0
 80 83  1  0  0  0
 80153  1  0  0  0
 80154  1  0  0  0
 81155  1  0  0  0
 81156  1  0  0  0
 82157  1  0  0  0
 83158  1  0  0  0
 83159  1  0  0  0
M  CHG  1  83   1
M  ISO  4   1 100  68 101  81 101  82 100
M  END
> <chiral flag>
0

> <version>
0

> <s_m_source_file>
/data/baiqing/PycharmProjects/Reinvent-master-3.2/result/LINK_invent/BTK/process_docking_weight1_custom_sum_contain_oxygen_bond_distance_aromatic_linkinvent_7_9_3/rearranged_h_0026.sdf

> <i_m_source_file_index>
17

> <r_mmod_Potential_Energy-OPLS-2005>
-250.067504882812

> <r_mmod_Stretch_Energy-OPLS-2005>
43.073112487793

> <r_mmod_Bend_Energy-OPLS-2005>
125.831512451172

> <r_mmod_Torsional_Energy-OPLS-2005>
218.998291015625

> <r_mmod_Improper_Torsional_Energy-OPLS-2005>
7.38544273376465

> <r_mmod_Van_der_Waal_Energy-OPLS-2005>
145.669174194336

> <r_mmod_Electrostatic_Energy-OPLS-2005>
-303.341827392578

> <r_mmod_Solvation_Energy-OPLS-2005>
-503.593017578125

> <b_mmod_Minimization_Converged-OPLS-2005>
0

> <r_mmod_RMS_Derivative-OPLS-2005>
5.41471576690674

$$$$
17
                    3D
 Structure written by MMmdl.
176184  0  0  1  0            999 V2000
  -30.8076  -14.3044   20.7358 C   0  0  0  0  0  0
  -30.4129  -12.2865   19.3754 C   0  0  0  0  0  0
  -29.4746  -12.5349   18.1827 C   0  0  0  0  0  0
  -28.0035  -12.3818   18.6068 C   0  0  0  0  0  0
  -27.6669  -13.2018   19.8785 C   0  0  2  0  0  0
  -28.7047  -12.9411   20.9919 C   0  0  0  0  0  0
  -25.2610  -13.8158   20.5675 C   0  0  0  0  0  0
  -24.1847  -13.0443   20.9158 C   0  0  0  0  0  0
  -24.6394  -11.6909   20.8720 C   0  0  0  0  0  0
  -23.9055  -10.4296   21.0399 C   0  0  0  0  0  0
  -24.3607   -9.4214   21.9181 C   0  0  0  0  0  0
  -23.6286   -8.2247   22.0755 C   0  0  0  0  0  0
  -22.4269   -8.0281   21.3545 C   0  0  0  0  0  0
  -21.9900   -9.0254   20.4646 C   0  0  0  0  0  0
  -22.7226  -10.2135   20.3053 C   0  0  0  0  0  0
  -21.6853   -6.0734   22.5278 C   0  0  0  0  0  0
  -21.4014   -6.5639   23.8212 C   0  0  0  0  0  0
  -21.3659   -5.6791   24.9172 C   0  0  0  0  0  0
  -21.6043   -4.3054   24.7223 C   0  0  0  0  0  0
  -21.8820   -3.8146   23.4345 C   0  0  0  0  0  0
  -21.9193   -4.6962   22.3402 C   0  0  0  0  0  0
  -22.7871  -13.5245   21.1830 C   0  0  0  0  0  0
  -22.1661   -4.2148   21.0980 F   0  0  0  0  0  0
  -21.5629   -3.4538   25.7737 F   0  0  0  0  0  0
  -30.0550  -13.2113   20.4591 N   0  0  0  0  0  0
  -26.3052  -12.9322   20.3381 N   0  0  0  0  0  0
  -25.9318  -11.6482   20.5754 N   0  0  0  0  0  0
  -22.0508  -12.8242   22.0389 N   0  0  0  0  0  0
  -25.4349  -15.1871   20.4092 N   0  0  0  0  0  0
  -31.7569  -14.6784   20.0398 O   0  0  0  0  0  0
  -21.6638   -6.8876   21.4240 O   0  0  0  0  0  0
  -22.3555  -14.5556   20.6687 O   0  0  0  0  0  0
  -24.6108  -31.8705   23.2120 C   0  0  0  0  0  0
  -25.9018  -32.4836   23.8407 C   0  0  1  0  0  0
  -27.2397  -27.4800   20.0725 C   0  0  0  0  0  0
  -25.5890  -33.8635   24.2341 N   0  0  0  0  0  0
  -23.3978  -30.4940   21.5508 C   0  0  2  0  0  0
  -24.8454  -28.9630   20.1145 C   0  0  0  0  0  0
  -22.7393  -29.4673   22.4992 C   0  0  0  0  0  0
  -18.0270  -28.1377   22.8494 C   0  0  0  0  0  0
  -24.1487  -36.7325   23.2637 C   0  0  0  0  0  0
  -25.9222  -30.8470   21.3596 C   0  0  0  0  0  0
  -26.0016  -29.4830   20.7101 C   0  0  0  0  0  0
  -27.2020  -28.7436   20.6967 C   0  0  0  0  0  0
  -26.0671  -26.9545   19.4917 C   0  0  0  0  0  0
  -24.8699  -27.6943   19.5075 C   0  0  0  0  0  0
  -23.6056  -29.8256   20.1650 C   0  0  0  0  0  0
  -25.4105  -36.3123   24.0340 C   0  0  1  0  0  0
  -20.5858  -28.3662   23.1324 C   0  0  2  0  0  0
  -20.6762  -26.9402   22.5418 C   0  0  0  0  0  0
  -19.5743  -26.6389   21.5211 C   0  0  0  0  0  0
  -18.1920  -26.7925   22.1622 C   0  0  0  0  0  0
  -19.1520  -28.8835   23.2911 C   0  0  0  0  0  0
  -18.9450  -30.1441   23.8923 C   0  0  0  0  0  0
  -17.6455  -30.6583   24.0574 C   0  0  0  0  0  0
  -25.9030  -34.9486   23.5138 C   0  0  0  0  0  0
  -16.5347  -29.9088   23.6328 C   0  0  0  0  0  0
  -16.7262  -28.6508   23.0345 C   0  0  0  0  0  0
  -26.4456  -31.6599   25.0717 C   0  0  0  0  0  0
  -25.3735  -31.3688   26.1475 C   0  0  0  0  0  0
  -27.0275  -30.3049   24.6055 C   0  0  0  0  0  0
  -27.6046  -32.4302   25.7474 C   0  0  0  0  0  0
  -27.5585  -37.1815   24.8467 C   0  0  0  0  0  0
  -21.4124  -29.3035   22.3735 N   0  0  0  0  0  0
  -26.4296  -37.3800   23.9414 N   0  0  0  0  0  0
  -24.6619  -31.0837   22.1003 N   0  0  0  0  0  0
  -23.4177  -28.8214   23.3023 O   0  0  0  0  0  0
  -28.3960  -26.7461   20.0686 O   0  0  0  0  0  0
  -26.5588  -34.8929   22.4694 O   0  0  0  0  0  0
  -23.5309  -32.1437   23.7532 O   0  0  0  0  0  0
  -28.9860  -23.7939   21.6659 C   0  0  0  0  0  0
  -28.4054  -21.7240   22.8081 C   0  0  0  0  0  0
  -28.5048  -23.1284   22.8076 C   0  0  0  0  0  0
  -29.3569  -23.0679   20.5134 C   0  0  0  0  0  0
  -28.7953  -20.9756   21.6730 C   0  0  0  0  0  0
  -29.2693  -21.6528   20.5212 C   0  0  0  0  0  0
  -28.0961  -23.9272   24.0299 C   0  0  0  0  0  0
  -30.0113  -25.6641   16.8099 C   0  0  0  0  0  0
  -27.8910  -23.5062   17.7702 C   0  0  0  0  0  0
  -29.8231  -23.8468   19.2883 C   0  0  0  0  0  0
  -29.1658  -17.3876   22.7315 C   0  0  0  0  0  0
  -30.6495  -17.3183   22.3229 C   0  0  0  0  0  0
  -28.6650  -18.8267   22.9022 C   0  0  0  0  0  0
  -31.2890  -15.9412   22.5585 C   0  0  0  0  0  0
  -29.2192  -26.8986   18.9150 C   0  0  0  0  0  0
  -28.9266  -25.7668   17.9029 C   0  0  2  0  0  0
  -28.7188  -19.5734   21.6520 N   0  0  0  0  0  0
  -30.5368  -14.8673   21.9177 N   0  0  0  0  0  0
  -28.6630  -24.4681   18.5961 N   0  3  1  0  0  0
  -29.7294  -20.7306   19.1260 Cl  0  0  0  0  0  0
  -31.4540  -12.3935   19.0648 H   0  0  0  0  0  0
  -30.3149  -11.2585   19.7280 H   0  0  0  0  0  0
  -29.7030  -11.8409   17.3729 H   0  0  0  0  0  0
  -29.6408  -13.5373   17.7850 H   0  0  0  0  0  0
  -27.8148  -11.3227   18.7867 H   0  0  0  0  0  0
  -27.3439  -12.6725   17.7882 H   0  0  0  0  0  0
  -27.7276  -14.2565   19.6087 H   0  0  0  0  0  0
  -28.6553  -11.9018   21.3196 H   0  0  0  0  0  0
  -28.4490  -13.5361   21.8689 H   0  0  0  0  0  0
  -25.2753   -9.5692   22.4753 H   0  0  0  0  0  0
  -23.9997   -7.4640   22.7476 H   0  0  0  0  0  0
  -21.0830   -8.8768   19.8954 H   0  0  0  0  0  0
  -22.3682  -10.9671   19.6159 H   0  0  0  0  0  0
  -21.2006   -7.6147   23.9713 H   0  0  0  0  0  0
  -21.1480   -6.0523   25.9075 H   0  0  0  0  0  0
  -22.0599   -2.7609   23.2846 H   0  0  0  0  0  0
  -22.4116  -11.9895   22.4772 H   0  0  0  0  0  0
  -21.1130  -13.1277   22.2599 H   0  0  0  0  0  0
  -24.6760  -15.8490   20.5284 H   0  0  0  0  0  0
  -26.2999  -15.6248   20.1173 H   0  0  0  0  0  0
  -26.7093  -32.5566   23.1185 H   0  0  0  0  0  0
  -25.0067  -33.9809   25.0504 H   0  0  0  0  0  0
  -22.6853  -31.3097   21.4113 H   0  0  0  0  0  0
  -23.3744  -35.9665   23.3311 H   0  0  0  0  0  0
  -24.3590  -36.8924   22.2051 H   0  0  0  0  0  0
  -23.7244  -37.6537   23.6638 H   0  0  0  0  0  0
  -26.0260  -31.6114   20.5877 H   0  0  0  0  0  0
  -26.8135  -30.9049   21.9725 H   0  0  0  0  0  0
  -28.0961  -29.1402   21.1575 H   0  0  0  0  0  0
  -26.0709  -25.9793   19.0277 H   0  0  0  0  0  0
  -23.9780  -27.2860   19.0521 H   0  0  0  0  0  0
  -23.7107  -30.6000   19.4043 H   0  0  0  0  0  0
  -22.7311  -29.2423   19.8708 H   0  0  0  0  0  0
  -25.1274  -36.1996   25.0831 H   0  0  0  0  0  0
  -20.9956  -28.3223   24.1441 H   0  0  0  0  0  0
  -20.5664  -26.2271   23.3601 H   0  0  0  0  0  0
  -21.6634  -26.7442   22.1213 H   0  0  0  0  0  0
  -19.6908  -25.6302   21.1235 H   0  0  0  0  0  0
  -19.6684  -27.3211   20.6747 H   0  0  0  0  0  0
  -17.4190  -26.6683   21.4021 H   0  0  0  0  0  0
  -18.0320  -26.0052   22.9003 H   0  0  0  0  0  0
  -19.7926  -30.7254   24.2301 H   0  0  0  0  0  0
  -17.5009  -31.6268   24.5167 H   0  0  0  0  0  0
  -15.5350  -30.3006   23.7624 H   0  0  0  0  0  0
  -15.8663  -28.0838   22.7040 H   0  0  0  0  0  0
  -24.5933  -30.6999   25.7825 H   0  0  0  0  0  0
  -24.8893  -32.2828   26.4920 H   0  0  0  0  0  0
  -25.8104  -30.8879   27.0237 H   0  0  0  0  0  0
  -26.2802  -29.6829   24.1112 H   0  0  0  0  0  0
  -27.4069  -29.7261   25.4487 H   0  0  0  0  0  0
  -27.8624  -30.4385   23.9173 H   0  0  0  0  0  0
  -27.2688  -33.3602   26.2074 H   0  0  0  0  0  0
  -28.3846  -32.6858   25.0289 H   0  0  0  0  0  0
  -28.0725  -31.8405   26.5368 H   0  0  0  0  0  0
  -28.2602  -38.0113   24.7513 H   0  0  0  0  0  0
  -28.1075  -36.2641   24.6282 H   0  0  0  0  0  0
  -27.2308  -37.1461   25.8873 H   0  0  0  0  0  0
  -20.9277  -29.8773   21.6977 H   0  0  0  0  0  0
  -26.0189  -38.2883   24.1405 H   0  0  0  0  0  0
  -29.0613  -24.8727   21.6783 H   0  0  0  0  0  0
  -28.0243  -21.2328   23.6918 H   0  0  0  0  0  0
  -27.6676  -24.8878   23.7415 H   0  0  0  0  0  0
  -28.9621  -24.1179   24.6643 H   0  0  0  0  0  0
  -27.3505  -23.3949   24.6219 H   0  0  0  0  0  0
  -30.1218  -26.6157   16.2883 H   0  0  0  0  0  0
  -29.7605  -24.9182   16.0555 H   0  0  0  0  0  0
  -30.9879  -25.4078   17.2221 H   0  0  0  0  0  0
  -27.5356  -22.6685   18.3698 H   0  0  0  0  0  0
  -28.4964  -23.1018   16.9583 H   0  0  0  0  0  0
  -27.0104  -23.9762   17.3318 H   0  0  0  0  0  0
  -30.4041  -23.2366   18.5966 H   0  0  0  0  0  0
  -30.5173  -24.6076   19.6440 H   0  0  0  0  0  0
  -29.0331  -16.8712   23.6833 H   0  0  0  0  0  0
  -28.5470  -16.8512   22.0099 H   0  0  0  0  0  0
  -31.2167  -18.0576   22.8908 H   0  0  0  0  0  0
  -30.7570  -17.6020   21.2750 H   0  0  0  0  0  0
  -29.2645  -19.3193   23.6699 H   0  0  0  0  0  0
  -27.6352  -18.8150   23.2632 H   0  0  0  0  0  0
  -31.3235  -15.7333   23.6288 H   0  0  0  0  0  0
  -32.3279  -15.9476   22.2226 H   0  0  0  0  0  0
  -29.0932  -27.8794   18.4513 H   0  0  0  0  0  0
  -30.2570  -26.8567   19.2456 H   0  0  0  0  0  0
  -27.9978  -26.0526   17.4066 H   0  0  0  0  0  0
  -29.1344  -19.1150   20.8460 H   0  0  0  0  0  0
  -29.7838  -14.4519   22.4463 H   0  0  0  0  0  0
  -28.0460  -24.7268   19.3540 H   0  0  0  0  0  0
  1 25  1  0  0  0
  1 30  2  0  0  0
  1 88  1  0  0  0
  2  3  1  0  0  0
  2 25  1  0  0  0
  2 91  1  0  0  0
  2 92  1  0  0  0
  3  4  1  0  0  0
  3 93  1  0  0  0
  3 94  1  0  0  0
  4  5  1  0  0  0
  4 95  1  0  0  0
  4 96  1  0  0  0
  5  6  1  0  0  0
  5 26  1  0  0  0
  5 97  1  0  0  0
  6 25  1  0  0  0
  6 98  1  0  0  0
  6 99  1  0  0  0
  7  8  2  0  0  0
  7 26  1  0  0  0
  7 29  1  0  0  0
  8  9  1  0  0  0
  8 22  1  0  0  0
  9 10  1  0  0  0
  9 27  2  0  0  0
 10 11  2  0  0  0
 10 15  1  0  0  0
 11 12  1  0  0  0
 11100  1  0  0  0
 12 13  2  0  0  0
 12101  1  0  0  0
 13 14  1  0  0  0
 13 31  1  0  0  0
 14 15  2  0  0  0
 14102  1  0  0  0
 15103  1  0  0  0
 16 17  2  0  0  0
 16 21  1  0  0  0
 16 31  1  0  0  0
 17 18  1  0  0  0
 17104  1  0  0  0
 18 19  2  0  0  0
 18105  1  0  0  0
 19 20  1  0  0  0
 19 24  1  0  0  0
 20 21  2  0  0  0
 20106  1  0  0  0
 21 23  1  0  0  0
 22 28  1  0  0  0
 22 32  2  0  0  0
 26 27  1  0  0  0
 28107  1  0  0  0
 28108  1  0  0  0
 29109  1  0  0  0
 29110  1  0  0  0
 33 34  1  0  0  0
 33 66  1  0  0  0
 33 70  2  0  0  0
 34 36  1  0  0  0
 34 59  1  0  0  0
 34111  1  0  0  0
 35 44  2  0  0  0
 35 45  1  0  0  0
 35 68  1  0  0  0
 36 56  1  0  0  0
 36112  1  0  0  0
 37 39  1  0  0  0
 37 47  1  0  0  0
 37 66  1  0  0  0
 37113  1  0  0  0
 38 43  2  0  0  0
 38 46  1  0  0  0
 38 47  1  0  0  0
 39 64  1  0  0  0
 39 67  2  0  0  0
 40 52  1  0  0  0
 40 53  2  0  0  0
 40 58  1  0  0  0
 41114  1  0  0  0
 41115  1  0  0  0
 41116  1  0  0  0
 41 48  1  0  0  0
 42 43  1  0  0  0
 42 66  1  0  0  0
 42117  1  0  0  0
 42118  1  0  0  0
 43 44  1  0  0  0
 44119  1  0  0  0
 45 46  2  0  0  0
 45120  1  0  0  0
 46121  1  0  0  0
 47122  1  0  0  0
 47123  1  0  0  0
 48 56  1  0  0  0
 48 65  1  0  0  0
 48124  1  0  0  0
 49 50  1  0  0  0
 49 53  1  0  0  0
 49 64  1  0  0  0
 49125  1  0  0  0
 50 51  1  0  0  0
 50126  1  0  0  0
 50127  1  0  0  0
 51 52  1  0  0  0
 51128  1  0  0  0
 51129  1  0  0  0
 52130  1  0  0  0
 52131  1  0  0  0
 53 54  1  0  0  0
 54 55  2  0  0  0
 54132  1  0  0  0
 55 57  1  0  0  0
 55133  1  0  0  0
 56 69  2  0  0  0
 57 58  2  0  0  0
 57134  1  0  0  0
 58135  1  0  0  0
 59 60  1  0  0  0
 59 61  1  0  0  0
 59 62  1  0  0  0
 60136  1  0  0  0
 60137  1  0  0  0
 60138  1  0  0  0
 61139  1  0  0  0
 61140  1  0  0  0
 61141  1  0  0  0
 62142  1  0  0  0
 62143  1  0  0  0
 62144  1  0  0  0
 63 65  1  0  0  0
 63145  1  0  0  0
 63146  1  0  0  0
 63147  1  0  0  0
 64148  1  0  0  0
 65149  1  0  0  0
 68 85  1  0  0  0
 71 73  2  0  0  0
 71 74  1  0  0  0
 71150  1  0  0  0
 72 73  1  0  0  0
 72 75  2  0  0  0
 72151  1  0  0  0
 73 77  1  0  0  0
 74 76  2  0  0  0
 74 80  1  0  0  0
 75 76  1  0  0  0
 75 87  1  0  0  0
 76 90  1  0  0  0
 77152  1  0  0  0
 77153  1  0  0  0
 77154  1  0  0  0
 78155  1  0  0  0
 78156  1  0  0  0
 78157  1  0  0  0
 78 86  1  0  0  0
 79158  1  0  0  0
 79159  1  0  0  0
 79160  1  0  0  0
 79 89  1  0  0  0
 80 89  1  0  0  0
 80161  1  0  0  0
 80162  1  0  0  0
 81 82  1  0  0  0
 81 83  1  0  0  0
 81163  1  0  0  0
 81164  1  0  0  0
 82 84  1  0  0  0
 82165  1  0  0  0
 82166  1  0  0  0
 83 87  1  0  0  0
 83167  1  0  0  0
 83168  1  0  0  0
 84 88  1  0  0  0
 84169  1  0  0  0
 84170  1  0  0  0
 85 86  1  0  0  0
 85171  1  0  0  0
 85172  1  0  0  0
 86 89  1  0  0  0
 86173  1  0  0  0
 87174  1  0  0  0
 88175  1  0  0  0
 89176  1  0  0  0
M  CHG  1  89   1
M  ISO  4   1 100  68 101  85 101  88 100
M  END
> <chiral flag>
0

> <version>
0

> <s_m_source_file>
/data/baiqing/PycharmProjects/Reinvent-master-3.2/result/LINK_invent/BTK/process_docking_weight1_custom_sum_contain_oxygen_bond_distance_aromatic_linkinvent_7_9_3/rearranged_h_0026.sdf

> <i_m_source_file_index>
18

> <r_mmod_Potential_Energy-OPLS-2005>
-163.854156494141

> <r_mmod_Stretch_Energy-OPLS-2005>
33.7330513000488

> <r_mmod_Bend_Energy-OPLS-2005>
99.8976211547852

> <r_mmod_Torsional_Energy-OPLS-2005>
242.581634521484

> <r_mmod_Improper_Torsional_Energy-OPLS-2005>
4.83131122589111

> <r_mmod_Van_der_Waal_Energy-OPLS-2005>
147.890914916992

> <r_mmod_Electrostatic_Energy-OPLS-2005>
-303.126556396484

> <r_mmod_Solvation_Energy-OPLS-2005>
-397.170104980469

> <b_mmod_Minimization_Converged-OPLS-2005>
0

> <r_mmod_RMS_Derivative-OPLS-2005>
0.764896273612976

$$$$
18
                    3D
 Structure written by MMmdl.
193202  0  0  1  0            999 V2000
  -30.7506  -14.3980   20.6219 C   0  0  0  0  0  0
  -30.4113  -12.2767   19.4198 C   0  0  0  0  0  0
  -29.4894  -12.5104   18.2076 C   0  0  0  0  0  0
  -28.0114  -12.3755   18.6182 C   0  0  0  0  0  0
  -27.6656  -13.2065   19.8826 C   0  0  2  0  0  0
  -28.7026  -12.9678   21.0041 C   0  0  0  0  0  0
  -25.2598  -13.8171   20.5679 C   0  0  0  0  0  0
  -24.1845  -13.0456   20.9163 C   0  0  0  0  0  0
  -24.6388  -11.6911   20.8730 C   0  0  0  0  0  0
  -23.9057  -10.4302   21.0407 C   0  0  0  0  0  0
  -24.3611   -9.4211   21.9181 C   0  0  0  0  0  0
  -23.6292   -8.2245   22.0751 C   0  0  0  0  0  0
  -22.4274   -8.0280   21.3540 C   0  0  0  0  0  0
  -21.9905   -9.0253   20.4643 C   0  0  0  0  0  0
  -22.7229  -10.2139   20.3051 C   0  0  0  0  0  0
  -21.6851   -6.0735   22.5281 C   0  0  0  0  0  0
  -21.4015   -6.5637   23.8213 C   0  0  0  0  0  0
  -21.3661   -5.6794   24.9174 C   0  0  0  0  0  0
  -21.6045   -4.3055   24.7227 C   0  0  0  0  0  0
  -21.8821   -3.8146   23.4346 C   0  0  0  0  0  0
  -21.9193   -4.6963   22.3400 C   0  0  0  0  0  0
  -22.7864  -13.5240   21.1839 C   0  0  0  0  0  0
  -22.1662   -4.2150   21.0978 F   0  0  0  0  0  0
  -21.5630   -3.4535   25.7738 F   0  0  0  0  0  0
  -30.0446  -13.2472   20.4628 N   0  0  0  0  0  0
  -26.3037  -12.9342   20.3392 N   0  0  0  0  0  0
  -25.9320  -11.6498   20.5773 N   0  0  0  0  0  0
  -22.0507  -12.8234   22.0393 N   0  0  0  0  0  0
  -25.4340  -15.1888   20.4107 N   0  0  0  0  0  0
  -31.8350  -14.5883   20.0658 O   0  0  0  0  0  0
  -21.6639   -6.8875   21.4236 O   0  0  0  0  0  0
  -22.3552  -14.5551   20.6689 O   0  0  0  0  0  0
  -24.6081  -31.8726   23.2142 C   0  0  0  0  0  0
  -25.9010  -32.4838   23.8417 C   0  0  1  0  0  0
  -27.2548  -27.5013   20.0752 C   0  0  0  0  0  0
  -25.5883  -33.8638   24.2332 N   0  0  0  0  0  0
  -23.3920  -30.4919   21.5547 C   0  0  2  0  0  0
  -24.8399  -28.9628   20.1192 C   0  0  0  0  0  0
  -22.7386  -29.4647   22.5057 C   0  0  0  0  0  0
  -18.0252  -28.1336   22.8472 C   0  0  0  0  0  0
  -24.1490  -36.7321   23.2627 C   0  0  0  0  0  0
  -25.9121  -30.8567   21.3582 C   0  0  0  0  0  0
  -25.9939  -29.4957   20.7053 C   0  0  0  0  0  0
  -27.2022  -28.7744   20.6880 C   0  0  0  0  0  0
  -26.0802  -26.9619   19.5129 C   0  0  0  0  0  0
  -24.8727  -27.6884   19.5262 C   0  0  0  0  0  0
  -23.5971  -29.8213   20.1687 C   0  0  0  0  0  0
  -25.4098  -36.3108   24.0334 C   0  0  1  0  0  0
  -20.5825  -28.3610   23.1342 C   0  0  2  0  0  0
  -20.6731  -26.9352   22.5419 C   0  0  0  0  0  0
  -19.5719  -26.6344   21.5193 C   0  0  0  0  0  0
  -18.1895  -26.7881   22.1600 C   0  0  0  0  0  0
  -19.1496  -28.8797   23.2897 C   0  0  0  0  0  0
  -18.9436  -30.1405   23.8894 C   0  0  0  0  0  0
  -17.6442  -30.6545   24.0550 C   0  0  0  0  0  0
  -25.9032  -34.9482   23.5124 C   0  0  0  0  0  0
  -16.5329  -29.9051   23.6304 C   0  0  0  0  0  0
  -16.7247  -28.6471   23.0318 C   0  0  0  0  0  0
  -26.4466  -31.6603   25.0730 C   0  0  0  0  0  0
  -25.3761  -31.3722   26.1511 C   0  0  0  0  0  0
  -27.0268  -30.3040   24.6061 C   0  0  0  0  0  0
  -27.6030  -32.4349   25.7488 C   0  0  0  0  0  0
  -27.5586  -37.1808   24.8449 C   0  0  0  0  0  0
  -21.4121  -29.2998   22.3796 N   0  0  0  0  0  0
  -26.4274  -37.3808   23.9421 N   0  0  0  0  0  0
  -24.6548  -31.0875   22.1014 N   0  0  0  0  0  0
  -23.4190  -28.8210   23.3095 O   0  0  0  0  0  0
  -28.3955  -26.7389   19.9851 O   0  0  0  0  0  0
  -26.5592  -34.8935   22.4683 O   0  0  0  0  0  0
  -23.5301  -32.1470   23.7584 O   0  0  0  0  0  0
  -31.1874  -17.4087   20.4801 C   0  0  0  0  0  0
  -31.4715  -18.7799   20.5907 C   0  0  0  0  0  0
  -31.0495  -19.5002   21.7364 C   0  0  0  0  0  0
  -30.3304  -18.8241   22.7621 C   0  0  0  0  0  0
  -30.4959  -16.7171   21.5003 C   0  0  0  0  0  0
  -30.0492  -17.4363   22.6320 C   0  0  0  0  0  0
  -34.4431  -27.7715   16.6975 C   0  0  0  0  0  0
  -35.0137  -26.6808   17.6291 C   0  0  0  0  0  0
  -33.5059  -28.7578   17.4337 C   0  0  0  0  0  0
  -33.0964  -27.1070   19.1689 C   0  0  0  0  0  0
  -33.8808  -26.0024   18.4265 C   0  0  2  0  0  0
  -32.2125  -19.4468   19.4400 C   0  0  0  0  0  0
  -29.8393  -19.5958   23.9861 C   0  0  0  0  0  0
  -32.0368  -23.7635   19.5196 C   0  0  0  0  0  0
  -31.3537  -20.9958   21.8289 C   0  0  0  0  0  0
  -34.3802  -24.8513   19.3444 C   0  0  0  0  0  0
  -32.7379  -21.2881   22.4445 C   0  0  0  0  0  0
  -29.9977  -28.1910   18.8105 C   0  0  0  0  0  0
  -31.3871  -28.8842   18.7623 C   0  0  0  0  0  0
  -33.1800  -22.7633   22.3310 C   0  0  0  0  0  0
  -29.6683  -27.3723   20.0831 C   0  0  0  0  0  0
  -33.3090  -24.2071   20.2729 C   0  0  2  0  0  0
  -30.1786  -15.3282   21.4027 N   0  0  0  0  0  0
  -32.4594  -28.0213   18.1897 N   0  3  1  0  0  0
  -33.8706  -23.0739   21.0526 N   0  3  0  0  0  0
  -29.1408  -16.5896   23.8434 Cl  0  0  0  0  0  0
  -31.4578  -12.3525   19.1202 H   0  0  0  0  0  0
  -30.2901  -11.2622   19.8014 H   0  0  0  0  0  0
  -29.7230  -11.7994   17.4145 H   0  0  0  0  0  0
  -29.6687  -13.5032   17.7919 H   0  0  0  0  0  0
  -27.8155  -11.3188   18.8036 H   0  0  0  0  0  0
  -27.3627  -12.6624   17.7897 H   0  0  0  0  0  0
  -27.7188  -14.2576   19.5985 H   0  0  0  0  0  0
  -28.6615  -11.9311   21.3415 H   0  0  0  0  0  0
  -28.4590  -13.5645   21.8836 H   0  0  0  0  0  0
  -25.2760   -9.5692   22.4750 H   0  0  0  0  0  0
  -24.0004   -7.4639   22.7473 H   0  0  0  0  0  0
  -21.0834   -8.8770   19.8951 H   0  0  0  0  0  0
  -22.3683  -10.9676   19.6158 H   0  0  0  0  0  0
  -21.2007   -7.6146   23.9716 H   0  0  0  0  0  0
  -21.1481   -6.0523   25.9083 H   0  0  0  0  0  0
  -22.0598   -2.7606   23.2847 H   0  0  0  0  0  0
  -22.4115  -11.9887   22.4780 H   0  0  0  0  0  0
  -21.1123  -13.1259   22.2607 H   0  0  0  0  0  0
  -24.6738  -15.8498   20.5260 H   0  0  0  0  0  0
  -26.2982  -15.6257   20.1170 H   0  0  0  0  0  0
  -26.7090  -32.5570   23.1198 H   0  0  0  0  0  0
  -25.0051  -33.9818   25.0487 H   0  0  0  0  0  0
  -22.6748  -31.3029   21.4183 H   0  0  0  0  0  0
  -23.3752  -35.9660   23.3278 H   0  0  0  0  0  0
  -24.3599  -36.8963   22.2046 H   0  0  0  0  0  0
  -23.7263  -37.6522   23.6670 H   0  0  0  0  0  0
  -26.0186  -31.6298   20.5959 H   0  0  0  0  0  0
  -26.7996  -30.9053   21.9767 H   0  0  0  0  0  0
  -28.0761  -29.2195   21.1391 H   0  0  0  0  0  0
  -26.1079  -25.9851   19.0501 H   0  0  0  0  0  0
  -23.9837  -27.2635   19.0797 H   0  0  0  0  0  0
  -23.6991  -30.5949   19.4058 H   0  0  0  0  0  0
  -22.7237  -29.2339   19.8784 H   0  0  0  0  0  0
  -25.1278  -36.1952   25.0828 H   0  0  0  0  0  0
  -20.9877  -28.3137   24.1475 H   0  0  0  0  0  0
  -20.5590  -26.2225   23.3602 H   0  0  0  0  0  0
  -21.6619  -26.7382   22.1247 H   0  0  0  0  0  0
  -19.6896  -25.6260   21.1202 H   0  0  0  0  0  0
  -19.6660  -27.3177   20.6735 H   0  0  0  0  0  0
  -17.4174  -26.6615   21.3990 H   0  0  0  0  0  0
  -18.0297  -26.0021   22.8988 H   0  0  0  0  0  0
  -19.7917  -30.7197   24.2267 H   0  0  0  0  0  0
  -17.5004  -31.6228   24.5143 H   0  0  0  0  0  0
  -15.5326  -30.2953   23.7628 H   0  0  0  0  0  0
  -15.8647  -28.0803   22.7006 H   0  0  0  0  0  0
  -24.5867  -30.7140   25.7876 H   0  0  0  0  0  0
  -24.9041  -32.2897   26.5037 H   0  0  0  0  0  0
  -25.8136  -30.8830   27.0220 H   0  0  0  0  0  0
  -26.2783  -29.6830   24.1125 H   0  0  0  0  0  0
  -27.4052  -29.7242   25.4485 H   0  0  0  0  0  0
  -27.8619  -30.4351   23.9178 H   0  0  0  0  0  0
  -27.2594  -33.3602   26.2134 H   0  0  0  0  0  0
  -28.3789  -32.7015   25.0298 H   0  0  0  0  0  0
  -28.0767  -31.8464   26.5361 H   0  0  0  0  0  0
  -28.2563  -38.0145   24.7551 H   0  0  0  0  0  0
  -28.1120  -36.2682   24.6177 H   0  0  0  0  0  0
  -27.2327  -37.1335   25.8856 H   0  0  0  0  0  0
  -20.9277  -29.8790   21.7074 H   0  0  0  0  0  0
  -26.0142  -38.2872   24.1469 H   0  0  0  0  0  0
  -31.5006  -16.9017   19.5805 H   0  0  0  0  0  0
  -33.8905  -27.3001   15.8834 H   0  0  0  0  0  0
  -35.2593  -28.3196   16.2239 H   0  0  0  0  0  0
  -35.7384  -27.1322   18.3080 H   0  0  0  0  0  0
  -35.5626  -25.9429   17.0410 H   0  0  0  0  0  0
  -33.0443  -29.4228   16.7029 H   0  0  0  0  0  0
  -34.0776  -29.3928   18.1131 H   0  0  0  0  0  0
  -33.7479  -27.6631   19.8452 H   0  0  0  0  0  0
  -32.3383  -26.6678   19.7978 H   0  0  0  0  0  0
  -33.2177  -25.5446   17.6910 H   0  0  0  0  0  0
  -32.6383  -18.7086   18.7593 H   0  0  0  0  0  0
  -33.0368  -20.0634   19.7925 H   0  0  0  0  0  0
  -31.5326  -20.0734   18.8623 H   0  0  0  0  0  0
  -30.5996  -20.2853   24.3502 H   0  0  0  0  0  0
  -29.5882  -18.9573   24.8313 H   0  0  0  0  0  0
  -28.9494  -20.1729   23.7318 H   0  0  0  0  0  0
  -31.6288  -24.5458   18.8814 H   0  0  0  0  0  0
  -31.2403  -23.5110   20.2169 H   0  0  0  0  0  0
  -32.2221  -22.8958   18.8853 H   0  0  0  0  0  0
  -30.5736  -21.5175   22.3834 H   0  0  0  0  0  0
  -31.2894  -21.4129   20.8285 H   0  0  0  0  0  0
  -35.1979  -25.2262   19.9614 H   0  0  0  0  0  0
  -34.8150  -24.0789   18.7094 H   0  0  0  0  0  0
  -33.4981  -20.6390   22.0099 H   0  0  0  0  0  0
  -32.7020  -21.0185   23.5006 H   0  0  0  0  0  0
  -29.8637  -27.5649   17.9280 H   0  0  0  0  0  0
  -29.2439  -28.9739   18.7210 H   0  0  0  0  0  0
  -31.6780  -29.2963   19.7296 H   0  0  0  0  0  0
  -31.2713  -29.7476   18.1047 H   0  0  0  0  0  0
  -33.8957  -22.9742   23.1259 H   0  0  0  0  0  0
  -32.3355  -23.4288   22.5150 H   0  0  0  0  0  0
  -29.7803  -27.9603   20.9940 H   0  0  0  0  0  0
  -30.3497  -26.5367   20.1916 H   0  0  0  0  0  0
  -33.0291  -24.9715   20.9983 H   0  0  0  0  0  0
  -29.3978  -15.0210   21.9625 H   0  0  0  0  0  0
  -31.9957  -27.4451   17.5033 H   0  0  0  0  0  0
  -33.9202  -22.2496   20.4772 H   0  0  0  0  0  0
  -34.8195  -23.3079   21.2999 H   0  0  0  0  0  0
  1 25  1  0  0  0
  1 30  2  0  0  0
  1 93  1  0  0  0
  2  3  1  0  0  0
  2 25  1  0  0  0
  2 97  1  0  0  0
  2 98  1  0  0  0
  3  4  1  0  0  0
  3 99  1  0  0  0
  3100  1  0  0  0
  4  5  1  0  0  0
  4101  1  0  0  0
  4102  1  0  0  0
  5  6  1  0  0  0
  5 26  1  0  0  0
  5103  1  0  0  0
  6 25  1  0  0  0
  6104  1  0  0  0
  6105  1  0  0  0
  7  8  2  0  0  0
  7 26  1  0  0  0
  7 29  1  0  0  0
  8  9  1  0  0  0
  8 22  1  0  0  0
  9 10  1  0  0  0
  9 27  2  0  0  0
 10 11  2  0  0  0
 10 15  1  0  0  0
 11 12  1  0  0  0
 11106  1  0  0  0
 12 13  2  0  0  0
 12107  1  0  0  0
 13 14  1  0  0  0
 13 31  1  0  0  0
 14 15  2  0  0  0
 14108  1  0  0  0
 15109  1  0  0  0
 16 17  2  0  0  0
 16 21  1  0  0  0
 16 31  1  0  0  0
 17 18  1  0  0  0
 17110  1  0  0  0
 18 19  2  0  0  0
 18111  1  0  0  0
 19 20  1  0  0  0
 19 24  1  0  0  0
 20 21  2  0  0  0
 20112  1  0  0  0
 21 23  1  0  0  0
 22 28  1  0  0  0
 22 32  2  0  0  0
 26 27  1  0  0  0
 28113  1  0  0  0
 28114  1  0  0  0
 29115  1  0  0  0
 29116  1  0  0  0
 33 34  1  0  0  0
 33 66  1  0  0  0
 33 70  2  0  0  0
 34 36  1  0  0  0
 34 59  1  0  0  0
 34117  1  0  0  0
 35 44  2  0  0  0
 35 45  1  0  0  0
 35 68  1  0  0  0
 36 56  1  0  0  0
 36118  1  0  0  0
 37 39  1  0  0  0
 37 47  1  0  0  0
 37 66  1  0  0  0
 37119  1  0  0  0
 38 43  2  0  0  0
 38 46  1  0  0  0
 38 47  1  0  0  0
 39 64  1  0  0  0
 39 67  2  0  0  0
 40 52  1  0  0  0
 40 53  2  0  0  0
 40 58  1  0  0  0
 41120  1  0  0  0
 41121  1  0  0  0
 41122  1  0  0  0
 41 48  1  0  0  0
 42 43  1  0  0  0
 42 66  1  0  0  0
 42123  1  0  0  0
 42124  1  0  0  0
 43 44  1  0  0  0
 44125  1  0  0  0
 45 46  2  0  0  0
 45126  1  0  0  0
 46127  1  0  0  0
 47128  1  0  0  0
 47129  1  0  0  0
 48 56  1  0  0  0
 48 65  1  0  0  0
 48130  1  0  0  0
 49 50  1  0  0  0
 49 53  1  0  0  0
 49 64  1  0  0  0
 49131  1  0  0  0
 50 51  1  0  0  0
 50132  1  0  0  0
 50133  1  0  0  0
 51 52  1  0  0  0
 51134  1  0  0  0
 51135  1  0  0  0
 52136  1  0  0  0
 52137  1  0  0  0
 53 54  1  0  0  0
 54 55  2  0  0  0
 54138  1  0  0  0
 55 57  1  0  0  0
 55139  1  0  0  0
 56 69  2  0  0  0
 57 58  2  0  0  0
 57140  1  0  0  0
 58141  1  0  0  0
 59 60  1  0  0  0
 59 61  1  0  0  0
 59 62  1  0  0  0
 60142  1  0  0  0
 60143  1  0  0  0
 60144  1  0  0  0
 61145  1  0  0  0
 61146  1  0  0  0
 61147  1  0  0  0
 62148  1  0  0  0
 62149  1  0  0  0
 62150  1  0  0  0
 63 65  1  0  0  0
 63151  1  0  0  0
 63152  1  0  0  0
 63153  1  0  0  0
 64154  1  0  0  0
 65155  1  0  0  0
 68 91  1  0  0  0
 71 72  2  0  0  0
 71 75  1  0  0  0
 71156  1  0  0  0
 72 73  1  0  0  0
 72 82  1  0  0  0
 73 74  2  0  0  0
 73 85  1  0  0  0
 74 76  1  0  0  0
 74 83  1  0  0  0
 75 76  2  0  0  0
 75 93  1  0  0  0
 76 96  1  0  0  0
 77 78  1  0  0  0
 77 79  1  0  0  0
 77157  1  0  0  0
 77158  1  0  0  0
 78 81  1  0  0  0
 78159  1  0  0  0
 78160  1  0  0  0
 79 94  1  0  0  0
 79161  1  0  0  0
 79162  1  0  0  0
 80 81  1  0  0  0
 80 94  1  0  0  0
 80163  1  0  0  0
 80164  1  0  0  0
 81 86  1  0  0  0
 81165  1  0  0  0
 82166  1  0  0  0
 82167  1  0  0  0
 82168  1  0  0  0
 83169  1  0  0  0
 83170  1  0  0  0
 83171  1  0  0  0
 84172  1  0  0  0
 84173  1  0  0  0
 84174  1  0  0  0
 84 92  1  0  0  0
 85 87  1  0  0  0
 85175  1  0  0  0
 85176  1  0  0  0
 86 92  1  0  0  0
 86177  1  0  0  0
 86178  1  0  0  0
 87 90  1  0  0  0
 87179  1  0  0  0
 87180  1  0  0  0
 88 89  1  0  0  0
 88 91  1  0  0  0
 88181  1  0  0  0
 88182  1  0  0  0
 89183  1  0  0  0
 89184  1  0  0  0
 89 94  1  0  0  0
 90 95  1  0  0  0
 90185  1  0  0  0
 90186  1  0  0  0
 91187  1  0  0  0
 91188  1  0  0  0
 92 95  1  0  0  0
 92189  1  0  0  0
 93190  1  0  0  0
 94191  1  0  0  0
 95192  1  0  0  0
 95193  1  0  0  0
M  CHG  2  94   1  95   1
M  ISO  4   1 100  68 101  91 101  93 100
M  END
> <chiral flag>
0

> <version>
0

> <s_m_source_file>
/data/baiqing/PycharmProjects/Reinvent-master-3.2/result/LINK_invent/BTK/process_docking_weight1_custom_sum_contain_oxygen_bond_distance_aromatic_linkinvent_7_9_3/rearranged_h_0026.sdf

> <i_m_source_file_index>
19

> <r_mmod_Potential_Energy-OPLS-2005>
-231.157150268555

> <r_mmod_Stretch_Energy-OPLS-2005>
41.2300338745117

> <r_mmod_Bend_Energy-OPLS-2005>
121.012840270996

> <r_mmod_Torsional_Energy-OPLS-2005>
279.200622558594

> <r_mmod_Improper_Torsional_Energy-OPLS-2005>
1.9726585149765

> <r_mmod_Van_der_Waal_Energy-OPLS-2005>
178.119476318359

> <r_mmod_Electrostatic_Energy-OPLS-2005>
59.8885345458984

> <r_mmod_Solvation_Energy-OPLS-2005>
-919.883911132812

> <b_mmod_Minimization_Converged-OPLS-2005>
0

> <r_mmod_RMS_Derivative-OPLS-2005>
2.108647108078

$$$$
19
                    3D
 Structure written by MMmdl.
150158  0  0  1  0            999 V2000
  -30.5267  -14.9624   20.4007 C   0  0  0  0  0  0
  -30.4418  -12.5888   19.5121 C   0  0  0  0  0  0
  -29.5310  -12.5357   18.2631 C   0  0  0  0  0  0
  -28.0605  -12.3265   18.6734 C   0  0  0  0  0  0
  -27.6319  -13.2527   19.8439 C   0  0  2  0  0  0
  -28.6733  -13.2799   20.9839 C   0  0  0  0  0  0
  -25.2465  -13.8217   20.5717 C   0  0  0  0  0  0
  -24.1793  -13.0429   20.9241 C   0  0  0  0  0  0
  -24.6417  -11.6918   20.8764 C   0  0  0  0  0  0
  -23.9091  -10.4292   21.0398 C   0  0  0  0  0  0
  -24.3641   -9.4210   21.9182 C   0  0  0  0  0  0
  -23.6316   -8.2241   22.0749 C   0  0  0  0  0  0
  -22.4292   -8.0280   21.3545 C   0  0  0  0  0  0
  -21.9932   -9.0248   20.4647 C   0  0  0  0  0  0
  -22.7257  -10.2131   20.3055 C   0  0  0  0  0  0
  -21.6853   -6.0754   22.5283 C   0  0  0  0  0  0
  -21.4009   -6.5648   23.8219 C   0  0  0  0  0  0
  -21.3670   -5.6793   24.9178 C   0  0  0  0  0  0
  -21.6048   -4.3058   24.7215 C   0  0  0  0  0  0
  -21.8820   -3.8162   23.4329 C   0  0  0  0  0  0
  -21.9190   -4.6984   22.3396 C   0  0  0  0  0  0
  -22.7813  -13.5201   21.1885 C   0  0  0  0  0  0
  -22.1659   -4.2183   21.0968 F   0  0  0  0  0  0
  -21.5640   -3.4533   25.7720 F   0  0  0  0  0  0
  -29.9513  -13.6916   20.3885 N   0  0  0  0  0  0
  -26.2905  -12.9457   20.3276 N   0  0  0  0  0  0
  -25.9353  -11.6580   20.5760 N   0  0  0  0  0  0
  -22.0451  -12.8205   22.0446 N   0  0  0  0  0  0
  -25.4084  -15.1950   20.4095 N   0  0  0  0  0  0
  -31.7240  -15.0409   20.1034 O   0  0  0  0  0  0
  -21.6639   -6.8895   21.4243 O   0  0  0  0  0  0
  -22.3499  -14.5497   20.6711 O   0  0  0  0  0  0
  -24.6449  -31.8422   23.1840 C   0  0  0  0  0  0
  -25.9204  -32.4682   23.8253 C   0  0  1  0  0  0
  -27.2180  -27.1136   20.1436 C   0  0  0  0  0  0
  -25.5951  -33.8491   24.2180 N   0  0  0  0  0  0
  -23.4504  -30.4592   21.5315 C   0  0  2  0  0  0
  -24.9006  -28.8846   20.1041 C   0  0  0  0  0  0
  -22.7572  -29.4530   22.4845 C   0  0  0  0  0  0
  -18.0316  -28.1401   22.8459 C   0  0  0  0  0  0
  -24.1505  -36.7233   23.2638 C   0  0  0  0  0  0
  -26.0083  -30.7045   21.3909 C   0  0  0  0  0  0
  -26.0768  -29.3148   20.7306 C   0  0  0  0  0  0
  -27.2320  -28.4438   20.7370 C   0  0  0  0  0  0
  -26.0212  -26.7995   19.4620 C   0  0  0  0  0  0
  -24.8887  -27.6417   19.4554 C   0  0  0  0  0  0
  -23.6761  -29.7859   20.1516 C   0  0  0  0  0  0
  -25.4143  -36.3027   24.0319 C   0  0  1  0  0  0
  -20.5928  -28.3726   23.1225 C   0  0  2  0  0  0
  -20.6804  -26.9425   22.5408 C   0  0  0  0  0  0
  -19.5780  -26.6381   21.5215 C   0  0  0  0  0  0
  -18.1955  -26.7941   22.1618 C   0  0  0  0  0  0
  -19.1573  -28.8883   23.2832 C   0  0  0  0  0  0
  -18.9482  -30.1474   23.8869 C   0  0  0  0  0  0
  -17.6485  -30.6586   24.0562 C   0  0  0  0  0  0
  -25.9096  -34.9401   23.5062 C   0  0  0  0  0  0
  -16.5368  -29.9088   23.6335 C   0  0  0  0  0  0
  -16.7300  -28.6507   23.0341 C   0  0  0  0  0  0
  -26.4527  -31.6543   25.0688 C   0  0  0  0  0  0
  -25.3688  -31.3740   26.1350 C   0  0  0  0  0  0
  -27.0384  -30.2937   24.6275 C   0  0  0  0  0  0
  -27.6073  -32.4294   25.7471 C   0  0  0  0  0  0
  -27.5597  -37.1761   24.8464 C   0  0  0  0  0  0
  -21.4266  -29.3036   22.3581 N   0  0  0  0  0  0
  -26.4309  -37.3741   23.9408 N   0  0  0  0  0  0
  -24.7214  -31.0240   22.0899 N   0  0  0  0  0  0
  -23.4191  -28.8105   23.3037 O   0  0  0  0  0  0
  -28.2700  -26.1211   20.2478 O   0  0  0  0  0  0
  -26.5678  -34.8902   22.4640 O   0  0  0  0  0  0
  -23.5564  -32.1333   23.7024 O   0  0  0  0  0  0
  -28.7563  -18.5655   22.3973 C   0  0  0  0  0  0
  -29.2075  -18.8747   21.1321 C   0  0  0  0  0  0
  -28.2206  -19.7348   22.9606 C   0  0  0  0  0  0
  -29.8924  -17.6874   20.2331 C   0  0  0  0  0  0
  -28.7965  -23.2386   20.6284 C   0  0  0  0  0  0
  -28.9376  -21.6220   20.0600 C   0  0  0  0  0  0
  -28.1499  -24.6030   19.8515 C   0  0  0  0  0  0
  -28.2987  -20.7730   22.1739 N   0  0  0  0  0  0
  -28.9077  -20.3673   21.0274 N   0  0  0  0  0  0
  -29.7205  -16.1282   20.5297 N   0  0  0  0  0  0
  -28.8011  -17.0442   23.2254 Cl  0  0  0  0  0  0
  -27.5120  -19.8492   24.5307 Cl  0  0  0  0  0  0
  -31.4809  -12.7365   19.2143 H   0  0  0  0  0  0
  -30.4166  -11.6371   20.0454 H   0  0  0  0  0  0
  -29.8543  -11.7357   17.5970 H   0  0  0  0  0  0
  -29.6303  -13.4649   17.6989 H   0  0  0  0  0  0
  -27.9527  -11.2829   18.9725 H   0  0  0  0  0  0
  -27.4031  -12.4674   17.8152 H   0  0  0  0  0  0
  -27.5940  -14.2578   19.4224 H   0  0  0  0  0  0
  -28.7601  -12.3037   21.4617 H   0  0  0  0  0  0
  -28.3726  -13.9820   21.7638 H   0  0  0  0  0  0
  -25.2775   -9.5693   22.4777 H   0  0  0  0  0  0
  -24.0031   -7.4625   22.7457 H   0  0  0  0  0  0
  -21.0880   -8.8765   19.8943 H   0  0  0  0  0  0
  -22.3707  -10.9678   19.6184 H   0  0  0  0  0  0
  -21.1984   -7.6152   23.9742 H   0  0  0  0  0  0
  -21.1504   -6.0512   25.9090 H   0  0  0  0  0  0
  -22.0589   -2.7622   23.2804 H   0  0  0  0  0  0
  -22.4039  -11.9859   22.4853 H   0  0  0  0  0  0
  -21.1070  -13.1247   22.2629 H   0  0  0  0  0  0
  -24.6298  -15.8369   20.5113 H   0  0  0  0  0  0
  -26.2370  -15.6374   20.0353 H   0  0  0  0  0  0
  -26.7258  -32.5287   23.0967 H   0  0  0  0  0  0
  -25.0060  -33.9616   25.0299 H   0  0  0  0  0  0
  -22.7551  -31.2865   21.3740 H   0  0  0  0  0  0
  -23.3795  -35.9526   23.3280 H   0  0  0  0  0  0
  -24.3595  -36.8895   22.2058 H   0  0  0  0  0  0
  -23.7227  -37.6412   23.6683 H   0  0  0  0  0  0
  -26.1737  -31.4585   20.6200 H   0  0  0  0  0  0
  -26.8755  -30.7509   22.0376 H   0  0  0  0  0  0
  -28.1242  -28.7638   21.2555 H   0  0  0  0  0  0
  -25.9171  -25.8627   18.9374 H   0  0  0  0  0  0
  -23.9954  -27.3087   18.9459 H   0  0  0  0  0  0
  -23.8078  -30.5584   19.3940 H   0  0  0  0  0  0
  -22.7913  -29.2250   19.8446 H   0  0  0  0  0  0
  -25.1333  -36.1860   25.0810 H   0  0  0  0  0  0
  -21.0019  -28.3327   24.1350 H   0  0  0  0  0  0
  -20.5720  -26.2333   23.3629 H   0  0  0  0  0  0
  -21.6665  -26.7443   22.1190 H   0  0  0  0  0  0
  -19.6955  -25.6289   21.1258 H   0  0  0  0  0  0
  -19.6742  -27.3179   20.6730 H   0  0  0  0  0  0
  -17.4232  -26.6672   21.4017 H   0  0  0  0  0  0
  -18.0356  -26.0108   22.9038 H   0  0  0  0  0  0
  -19.7959  -30.7291   24.2226 H   0  0  0  0  0  0
  -17.5035  -31.6266   24.5157 H   0  0  0  0  0  0
  -15.5368  -30.2970   23.7683 H   0  0  0  0  0  0
  -15.8701  -28.0820   22.7062 H   0  0  0  0  0  0
  -24.5855  -30.7128   25.7612 H   0  0  0  0  0  0
  -24.8878  -32.2936   26.4708 H   0  0  0  0  0  0
  -25.7910  -30.8910   27.0169 H   0  0  0  0  0  0
  -26.2990  -29.6661   24.1276 H   0  0  0  0  0  0
  -27.4012  -29.7234   25.4837 H   0  0  0  0  0  0
  -27.8908  -30.4199   23.9587 H   0  0  0  0  0  0
  -27.2683  -33.3617   26.1996 H   0  0  0  0  0  0
  -28.3887  -32.6811   25.0284 H   0  0  0  0  0  0
  -28.0720  -31.8443   26.5420 H   0  0  0  0  0  0
  -28.2571  -38.0100   24.7541 H   0  0  0  0  0  0
  -28.1144  -36.2624   24.6254 H   0  0  0  0  0  0
  -27.2303  -37.1344   25.8863 H   0  0  0  0  0  0
  -20.9475  -29.8699   21.6719 H   0  0  0  0  0  0
  -26.0189  -38.2814   24.1407 H   0  0  0  0  0  0
  -30.9661  -17.8760   20.2045 H   0  0  0  0  0  0
  -29.5650  -17.8279   19.2036 H   0  0  0  0  0  0
  -29.8072  -23.5159   20.9283 H   0  0  0  0  0  0
  -28.2514  -23.2040   21.5697 H   0  0  0  0  0  0
  -29.8510  -21.5478   19.4684 H   0  0  0  0  0  0
  -28.1292  -21.4622   19.3451 H   0  0  0  0  0  0
  -27.0912  -24.3655   19.7717 H   0  0  0  0  0  0
  -28.5164  -24.5622   18.8261 H   0  0  0  0  0  0
  -28.7777  -15.8991   20.8053 H   0  0  0  0  0  0
  1 25  1  0  0  0
  1 30  2  0  0  0
  1 80  1  0  0  0
  2  3  1  0  0  0
  2 25  1  0  0  0
  2 83  1  0  0  0
  2 84  1  0  0  0
  3  4  1  0  0  0
  3 85  1  0  0  0
  3 86  1  0  0  0
  4  5  1  0  0  0
  4 87  1  0  0  0
  4 88  1  0  0  0
  5  6  1  0  0  0
  5 26  1  0  0  0
  5 89  1  0  0  0
  6 25  1  0  0  0
  6 90  1  0  0  0
  6 91  1  0  0  0
  7  8  2  0  0  0
  7 26  1  0  0  0
  7 29  1  0  0  0
  8  9  1  0  0  0
  8 22  1  0  0  0
  9 10  1  0  0  0
  9 27  2  0  0  0
 10 11  2  0  0  0
 10 15  1  0  0  0
 11 12  1  0  0  0
 11 92  1  0  0  0
 12 13  2  0  0  0
 12 93  1  0  0  0
 13 14  1  0  0  0
 13 31  1  0  0  0
 14 15  2  0  0  0
 14 94  1  0  0  0
 15 95  1  0  0  0
 16 17  2  0  0  0
 16 21  1  0  0  0
 16 31  1  0  0  0
 17 18  1  0  0  0
 17 96  1  0  0  0
 18 19  2  0  0  0
 18 97  1  0  0  0
 19 20  1  0  0  0
 19 24  1  0  0  0
 20 21  2  0  0  0
 20 98  1  0  0  0
 21 23  1  0  0  0
 22 28  1  0  0  0
 22 32  2  0  0  0
 26 27  1  0  0  0
 28 99  1  0  0  0
 28100  1  0  0  0
 29101  1  0  0  0
 29102  1  0  0  0
 33 34  1  0  0  0
 33 66  1  0  0  0
 33 70  2  0  0  0
 34 36  1  0  0  0
 34 59  1  0  0  0
 34103  1  0  0  0
 35 44  2  0  0  0
 35 45  1  0  0  0
 35 68  1  0  0  0
 36 56  1  0  0  0
 36104  1  0  0  0
 37 39  1  0  0  0
 37 47  1  0  0  0
 37 66  1  0  0  0
 37105  1  0  0  0
 38 43  2  0  0  0
 38 46  1  0  0  0
 38 47  1  0  0  0
 39 64  1  0  0  0
 39 67  2  0  0  0
 40 52  1  0  0  0
 40 53  2  0  0  0
 40 58  1  0  0  0
 41106  1  0  0  0
 41107  1  0  0  0
 41108  1  0  0  0
 41 48  1  0  0  0
 42 43  1  0  0  0
 42 66  1  0  0  0
 42109  1  0  0  0
 42110  1  0  0  0
 43 44  1  0  0  0
 44111  1  0  0  0
 45 46  2  0  0  0
 45112  1  0  0  0
 46113  1  0  0  0
 47114  1  0  0  0
 47115  1  0  0  0
 48 56  1  0  0  0
 48 65  1  0  0  0
 48116  1  0  0  0
 49 50  1  0  0  0
 49 53  1  0  0  0
 49 64  1  0  0  0
 49117  1  0  0  0
 50 51  1  0  0  0
 50118  1  0  0  0
 50119  1  0  0  0
 51 52  1  0  0  0
 51120  1  0  0  0
 51121  1  0  0  0
 52122  1  0  0  0
 52123  1  0  0  0
 53 54  1  0  0  0
 54 55  2  0  0  0
 54124  1  0  0  0
 55 57  1  0  0  0
 55125  1  0  0  0
 56 69  2  0  0  0
 57 58  2  0  0  0
 57126  1  0  0  0
 58127  1  0  0  0
 59 60  1  0  0  0
 59 61  1  0  0  0
 59 62  1  0  0  0
 60128  1  0  0  0
 60129  1  0  0  0
 60130  1  0  0  0
 61131  1  0  0  0
 61132  1  0  0  0
 61133  1  0  0  0
 62134  1  0  0  0
 62135  1  0  0  0
 62136  1  0  0  0
 63 65  1  0  0  0
 63137  1  0  0  0
 63138  1  0  0  0
 63139  1  0  0  0
 64140  1  0  0  0
 65141  1  0  0  0
 68 77  1  0  0  0
 71 72  2  0  0  0
 71 73  1  0  0  0
 71 81  1  0  0  0
 72 74  1  0  0  0
 72 79  1  0  0  0
 73 78  2  0  0  0
 73 82  1  0  0  0
 74 80  1  0  0  0
 74142  1  0  0  0
 74143  1  0  0  0
 75 76  1  0  0  0
 75 77  1  0  0  0
 75144  1  0  0  0
 75145  1  0  0  0
 76 79  1  0  0  0
 76146  1  0  0  0
 76147  1  0  0  0
 77148  1  0  0  0
 77149  1  0  0  0
 78 79  1  0  0  0
 80150  1  0  0  0
M  ISO  4   1 100  68 101  77 101  80 100
M  END
> <chiral flag>
0

> <version>
0

> <s_m_source_file>
/data/baiqing/PycharmProjects/Reinvent-master-3.2/result/LINK_invent/BTK/process_docking_weight1_custom_sum_contain_oxygen_bond_distance_aromatic_linkinvent_7_9_3/rearranged_h_0026.sdf

> <i_m_source_file_index>
20

> <r_mmod_Potential_Energy-OPLS-2005>
573.043518066406

> <r_mmod_Stretch_Energy-OPLS-2005>
314.191650390625

> <r_mmod_Bend_Energy-OPLS-2005>
322.93603515625

> <r_mmod_Torsional_Energy-OPLS-2005>
213.572662353516

> <r_mmod_Improper_Torsional_Energy-OPLS-2005>
5.2019510269165

> <r_mmod_Van_der_Waal_Energy-OPLS-2005>
116.509872436523

> <r_mmod_Electrostatic_Energy-OPLS-2005>
-385.90625

> <r_mmod_Solvation_Energy-OPLS-2005>
-221.760314941406

> <b_mmod_Minimization_Converged-OPLS-2005>
0

> <r_mmod_RMS_Derivative-OPLS-2005>
2.22911882400513

$$$$
20
                    3D
 Structure written by MMmdl.
183191  0  0  1  0            999 V2000
  -30.9269  -14.2838   20.7025 C   0  0  0  0  0  0
  -30.4207  -12.2909   19.3630 C   0  0  0  0  0  0
  -29.4655  -12.5132   18.1791 C   0  0  0  0  0  0
  -28.0058  -12.3568   18.6294 C   0  0  0  0  0  0
  -27.6834  -13.2044   19.8840 C   0  0  2  0  0  0
  -28.7484  -13.0022   20.9965 C   0  0  0  0  0  0
  -25.2685  -13.8118   20.5650 C   0  0  0  0  0  0
  -24.1889  -13.0444   20.9003 C   0  0  0  0  0  0
  -24.6384  -11.6885   20.8556 C   0  0  0  0  0  0
  -23.9001  -10.4296   21.0243 C   0  0  0  0  0  0
  -24.3515   -9.4262   21.9087 C   0  0  0  0  0  0
  -23.6186   -8.2321   22.0773 C   0  0  0  0  0  0
  -22.4210   -8.0260   21.3526 C   0  0  0  0  0  0
  -21.9827   -9.0191   20.4615 C   0  0  0  0  0  0
  -22.7121  -10.2081   20.2952 C   0  0  0  0  0  0
  -21.6870   -6.0642   22.5270 C   0  0  0  0  0  0
  -21.4009   -6.5570   23.8178 C   0  0  0  0  0  0
  -21.3685   -5.6744   24.9183 C   0  0  0  0  0  0
  -21.6039   -4.3016   24.7241 C   0  0  0  0  0  0
  -21.8851   -3.8068   23.4392 C   0  0  0  0  0  0
  -21.9188   -4.6856   22.3409 C   0  0  0  0  0  0
  -22.7904  -13.5181   21.1637 C   0  0  0  0  0  0
  -22.1652   -4.2011   21.1009 F   0  0  0  0  0  0
  -21.5687   -3.4546   25.7815 F   0  0  0  0  0  0
  -30.1032  -13.2248   20.4550 N   0  0  0  0  0  0
  -26.3197  -12.9343   20.3516 N   0  0  0  0  0  0
  -25.9365  -11.6494   20.5807 N   0  0  0  0  0  0
  -22.0574  -12.8210   22.0245 N   0  0  0  0  0  0
  -25.4477  -15.1838   20.4033 N   0  0  0  0  0  0
  -31.6306  -14.7535   19.8094 O   0  0  0  0  0  0
  -21.6638   -6.8797   21.4236 O   0  0  0  0  0  0
  -22.3583  -14.5516   20.6515 O   0  0  0  0  0  0
  -24.6127  -31.8697   23.2192 C   0  0  0  0  0  0
  -25.9037  -32.4832   23.8454 C   0  0  1  0  0  0
  -27.2138  -27.4667   20.0851 C   0  0  0  0  0  0
  -25.5875  -33.8625   24.2382 N   0  0  0  0  0  0
  -23.3936  -30.4979   21.5644 C   0  0  2  0  0  0
  -24.8298  -28.9764   20.1110 C   0  0  0  0  0  0
  -22.7378  -29.4670   22.5071 C   0  0  0  0  0  0
  -18.0230  -28.1368   22.8510 C   0  0  0  0  0  0
  -24.1426  -36.7319   23.2673 C   0  0  0  0  0  0
  -25.9117  -30.8595   21.3423 C   0  0  0  0  0  0
  -25.9955  -29.4942   20.6891 C   0  0  0  0  0  0
  -27.1985  -28.7548   20.6591 C   0  0  0  0  0  0
  -26.0365  -26.9561   19.4928 C   0  0  0  0  0  0
  -24.8445  -27.7082   19.5069 C   0  0  0  0  0  0
  -23.5890  -29.8398   20.1772 C   0  0  0  0  0  0
  -25.4089  -36.3133   24.0326 C   0  0  1  0  0  0
  -20.5819  -28.3663   23.1326 C   0  0  2  0  0  0
  -20.6738  -26.9431   22.5393 C   0  0  0  0  0  0
  -19.5729  -26.6411   21.5193 C   0  0  0  0  0  0
  -18.1896  -26.7931   22.1584 C   0  0  0  0  0  0
  -19.1479  -28.8835   23.2907 C   0  0  0  0  0  0
  -18.9435  -30.1427   23.8948 C   0  0  0  0  0  0
  -17.6444  -30.6602   24.0575 C   0  0  0  0  0  0
  -25.9033  -34.9482   23.5172 C   0  0  0  0  0  0
  -16.5342  -29.9124   23.6344 C   0  0  0  0  0  0
  -16.7224  -28.6491   23.0435 C   0  0  0  0  0  0
  -26.4520  -31.6590   25.0729 C   0  0  0  0  0  0
  -25.3801  -31.3334   26.1393 C   0  0  0  0  0  0
  -27.0608  -30.3216   24.5932 C   0  0  0  0  0  0
  -27.5996  -32.4398   25.7571 C   0  0  0  0  0  0
  -27.5527  -37.1868   24.8492 C   0  0  0  0  0  0
  -21.4107  -29.3049   22.3768 N   0  0  0  0  0  0
  -26.4280  -37.3837   23.9386 N   0  0  0  0  0  0
  -24.6615  -31.0832   22.1060 N   0  0  0  0  0  0
  -23.4145  -28.8220   23.3130 O   0  0  0  0  0  0
  -28.3635  -26.7163   20.1384 O   0  0  0  0  0  0
  -26.5625  -34.8906   22.4735 O   0  0  0  0  0  0
  -23.5339  -32.1437   23.7614 O   0  0  0  0  0  0
  -32.4152  -16.7967   21.4986 C   0  0  0  0  0  0
  -32.8946  -18.1310   22.0655 C   0  0  0  0  0  0
  -30.9577  -18.2695   23.5291 C   0  0  0  0  0  0
  -30.5803  -16.7348   23.3495 C   0  0  1  0  0  0
  -31.6805  -15.9114   22.5540 C   0  0  1  0  0  0
  -32.5615  -20.8255   23.8354 C   0  0  0  0  0  0
  -29.5546  -14.6581   24.6511 C   0  0  0  0  0  0
  -28.9159  -16.9573   25.3227 C   0  0  0  0  0  0
  -31.1920  -16.1118   25.8318 C   0  0  0  0  0  0
  -31.8078  -13.4360   22.7137 C   0  0  0  0  0  0
  -29.4793  -23.3578   21.5004 C   0  0  0  0  0  0
  -30.8104  -22.7212   21.9542 C   0  0  0  0  0  0
  -29.5599  -24.8543   21.1600 C   0  0  0  0  0  0
  -30.6516  -21.1958   22.1560 C   0  0  0  0  0  0
  -28.1888  -25.4498   20.7820 C   0  0  0  0  0  0
  -31.9363  -20.3938   22.4921 C   0  0  2  0  0  0
  -30.0884  -16.1144   24.7466 C   0  0  0  0  0  0
  -31.1949  -14.5810   22.0090 N   0  0  0  0  0  0
  -31.6908  -18.9115   22.3976 N   0  3  1  0  0  0
  -31.4563  -12.3852   19.0243 H   0  0  0  0  0  0
  -30.3300  -11.2701   19.7371 H   0  0  0  0  0  0
  -29.6831  -11.7867   17.3956 H   0  0  0  0  0  0
  -29.6220  -13.4982   17.7283 H   0  0  0  0  0  0
  -27.8262  -11.3030   18.8404 H   0  0  0  0  0  0
  -27.3320  -12.6183   17.8152 H   0  0  0  0  0  0
  -27.7294  -14.2476   19.5728 H   0  0  0  0  0  0
  -28.7063  -11.9864   21.3880 H   0  0  0  0  0  0
  -28.5471  -13.6694   21.8316 H   0  0  0  0  0  0
  -25.2693   -9.5742   22.4606 H   0  0  0  0  0  0
  -23.9855   -7.4785   22.7603 H   0  0  0  0  0  0
  -21.0752   -8.8610   19.8942 H   0  0  0  0  0  0
  -22.3517  -10.9518   19.5993 H   0  0  0  0  0  0
  -21.2003   -7.6074   23.9620 H   0  0  0  0  0  0
  -21.1499   -6.0524   25.9052 H   0  0  0  0  0  0
  -22.0614   -2.7514   23.2984 H   0  0  0  0  0  0
  -22.4241  -11.9784   22.4470 H   0  0  0  0  0  0
  -21.1200  -13.1226   22.2551 H   0  0  0  0  0  0
  -24.6857  -15.8479   20.4716 H   0  0  0  0  0  0
  -26.3289  -15.6081   20.1474 H   0  0  0  0  0  0
  -26.7070  -32.5580   23.1213 H   0  0  0  0  0  0
  -24.9966  -33.9754   25.0479 H   0  0  0  0  0  0
  -22.6832  -31.3173   21.4400 H   0  0  0  0  0  0
  -23.3705  -35.9637   23.3336 H   0  0  0  0  0  0
  -24.3496  -36.9001   22.2095 H   0  0  0  0  0  0
  -23.7116  -37.6461   23.6760 H   0  0  0  0  0  0
  -25.9706  -31.6231   20.5632 H   0  0  0  0  0  0
  -26.8187  -30.9486   21.9296 H   0  0  0  0  0  0
  -28.1014  -29.1613   21.0940 H   0  0  0  0  0  0
  -26.0261  -25.9828   19.0207 H   0  0  0  0  0  0
  -23.9436  -27.3063   19.0692 H   0  0  0  0  0  0
  -23.6840  -30.6251   19.4280 H   0  0  0  0  0  0
  -22.7049  -29.2681   19.8869 H   0  0  0  0  0  0
  -25.1258  -36.2066   25.0829 H   0  0  0  0  0  0
  -20.9847  -28.3227   24.1472 H   0  0  0  0  0  0
  -20.5720  -26.2286   23.3565 H   0  0  0  0  0  0
  -21.6597  -26.7563   22.1160 H   0  0  0  0  0  0
  -19.6949  -25.6340   21.1223 H   0  0  0  0  0  0
  -19.6659  -27.3197   20.6717 H   0  0  0  0  0  0
  -17.4180  -26.6717   21.3961 H   0  0  0  0  0  0
  -18.0274  -26.0022   22.8918 H   0  0  0  0  0  0
  -19.7875  -30.7209   24.2430 H   0  0  0  0  0  0
  -17.5010  -31.6301   24.5143 H   0  0  0  0  0  0
  -15.5363  -30.3102   23.7648 H   0  0  0  0  0  0
  -15.8564  -28.0839   22.7290 H   0  0  0  0  0  0
  -24.6109  -30.6638   25.7512 H   0  0  0  0  0  0
  -24.8815  -32.2291   26.5095 H   0  0  0  0  0  0
  -25.8206  -30.8258   26.9984 H   0  0  0  0  0  0
  -26.3184  -29.6657   24.1376 H   0  0  0  0  0  0
  -27.5061  -29.7730   25.4236 H   0  0  0  0  0  0
  -27.8576  -30.4822   23.8676 H   0  0  0  0  0  0
  -27.2594  -33.3765   26.2008 H   0  0  0  0  0  0
  -28.3905  -32.6864   25.0474 H   0  0  0  0  0  0
  -28.0549  -31.8619   26.5617 H   0  0  0  0  0  0
  -28.2547  -38.0184   24.7642 H   0  0  0  0  0  0
  -28.1056  -36.2709   24.6306 H   0  0  0  0  0  0
  -27.2214  -37.1494   25.8897 H   0  0  0  0  0  0
  -20.9362  -29.8694   21.6862 H   0  0  0  0  0  0
  -26.0147  -38.2910   24.1422 H   0  0  0  0  0  0
  -33.2790  -16.2591   21.1002 H   0  0  0  0  0  0
  -31.7706  -17.0321   20.6479 H   0  0  0  0  0  0
  -33.5038  -18.6392   21.3153 H   0  0  0  0  0  0
  -33.5369  -17.9845   22.9396 H   0  0  0  0  0  0
  -31.5660  -18.4062   24.4196 H   0  0  0  0  0  0
  -30.0438  -18.8391   23.6877 H   0  0  0  0  0  0
  -29.7085  -16.7396   22.6979 H   0  0  0  0  0  0
  -32.4735  -15.7185   23.2734 H   0  0  0  0  0  0
  -32.8728  -21.8701   23.7984 H   0  0  0  0  0  0
  -33.4531  -20.2362   24.0624 H   0  0  0  0  0  0
  -31.8668  -20.7125   24.6702 H   0  0  0  0  0  0
  -29.0884  -14.4515   23.6936 H   0  0  0  0  0  0
  -28.8192  -14.4244   25.4226 H   0  0  0  0  0  0
  -30.3395  -13.9200   24.8080 H   0  0  0  0  0  0
  -28.0942  -17.0679   24.6178 H   0  0  0  0  0  0
  -29.2393  -17.9558   25.6164 H   0  0  0  0  0  0
  -28.4988  -16.5185   26.2317 H   0  0  0  0  0  0
  -32.0680  -15.5258   25.5476 H   0  0  0  0  0  0
  -30.8158  -15.6989   26.7719 H   0  0  0  0  0  0
  -31.5485  -17.1105   26.0817 H   0  0  0  0  0  0
  -32.1787  -13.6810   23.7064 H   0  0  0  0  0  0
  -32.6676  -13.0433   22.1644 H   0  0  0  0  0  0
  -31.0923  -12.6179   22.8455 H   0  0  0  0  0  0
  -28.7236  -23.2033   22.2739 H   0  0  0  0  0  0
  -29.1175  -22.8264   20.6201 H   0  0  0  0  0  0
  -31.1412  -23.2012   22.8771 H   0  0  0  0  0  0
  -31.5826  -22.9209   21.2114 H   0  0  0  0  0  0
  -30.2494  -24.9949   20.3294 H   0  0  0  0  0  0
  -29.9696  -25.4053   22.0059 H   0  0  0  0  0  0
  -30.2450  -20.7866   21.2301 H   0  0  0  0  0  0
  -29.8934  -21.0292   22.9203 H   0  0  0  0  0  0
  -27.5873  -25.5634   21.6944 H   0  0  0  0  0  0
  -27.6385  -24.7657   20.1312 H   0  0  0  0  0  0
  -32.6514  -20.6614   21.7096 H   0  0  0  0  0  0
  -31.1101  -18.8029   21.5804 H   0  0  0  0  0  0
  1 25  1  0  0  0
  1 30  2  0  0  0
  1 88  1  0  0  0
  2  3  1  0  0  0
  2 25  1  0  0  0
  2 90  1  0  0  0
  2 91  1  0  0  0
  3  4  1  0  0  0
  3 92  1  0  0  0
  3 93  1  0  0  0
  4  5  1  0  0  0
  4 94  1  0  0  0
  4 95  1  0  0  0
  5  6  1  0  0  0
  5 26  1  0  0  0
  5 96  1  0  0  0
  6 25  1  0  0  0
  6 97  1  0  0  0
  6 98  1  0  0  0
  7  8  2  0  0  0
  7 26  1  0  0  0
  7 29  1  0  0  0
  8  9  1  0  0  0
  8 22  1  0  0  0
  9 10  1  0  0  0
  9 27  2  0  0  0
 10 11  2  0  0  0
 10 15  1  0  0  0
 11 12  1  0  0  0
 11 99  1  0  0  0
 12 13  2  0  0  0
 12100  1  0  0  0
 13 14  1  0  0  0
 13 31  1  0  0  0
 14 15  2  0  0  0
 14101  1  0  0  0
 15102  1  0  0  0
 16 17  2  0  0  0
 16 21  1  0  0  0
 16 31  1  0  0  0
 17 18  1  0  0  0
 17103  1  0  0  0
 18 19  2  0  0  0
 18104  1  0  0  0
 19 20  1  0  0  0
 19 24  1  0  0  0
 20 21  2  0  0  0
 20105  1  0  0  0
 21 23  1  0  0  0
 22 28  1  0  0  0
 22 32  2  0  0  0
 26 27  1  0  0  0
 28106  1  0  0  0
 28107  1  0  0  0
 29108  1  0  0  0
 29109  1  0  0  0
 33 34  1  0  0  0
 33 66  1  0  0  0
 33 70  2  0  0  0
 34 36  1  0  0  0
 34 59  1  0  0  0
 34110  1  0  0  0
 35 44  2  0  0  0
 35 45  1  0  0  0
 35 68  1  0  0  0
 36 56  1  0  0  0
 36111  1  0  0  0
 37 39  1  0  0  0
 37 47  1  0  0  0
 37 66  1  0  0  0
 37112  1  0  0  0
 38 43  2  0  0  0
 38 46  1  0  0  0
 38 47  1  0  0  0
 39 64  1  0  0  0
 39 67  2  0  0  0
 40 52  1  0  0  0
 40 53  2  0  0  0
 40 58  1  0  0  0
 41113  1  0  0  0
 41114  1  0  0  0
 41115  1  0  0  0
 41 48  1  0  0  0
 42 43  1  0  0  0
 42 66  1  0  0  0
 42116  1  0  0  0
 42117  1  0  0  0
 43 44  1  0  0  0
 44118  1  0  0  0
 45 46  2  0  0  0
 45119  1  0  0  0
 46120  1  0  0  0
 47121  1  0  0  0
 47122  1  0  0  0
 48 56  1  0  0  0
 48 65  1  0  0  0
 48123  1  0  0  0
 49 50  1  0  0  0
 49 53  1  0  0  0
 49 64  1  0  0  0
 49124  1  0  0  0
 50 51  1  0  0  0
 50125  1  0  0  0
 50126  1  0  0  0
 51 52  1  0  0  0
 51127  1  0  0  0
 51128  1  0  0  0
 52129  1  0  0  0
 52130  1  0  0  0
 53 54  1  0  0  0
 54 55  2  0  0  0
 54131  1  0  0  0
 55 57  1  0  0  0
 55132  1  0  0  0
 56 69  2  0  0  0
 57 58  2  0  0  0
 57133  1  0  0  0
 58134  1  0  0  0
 59 60  1  0  0  0
 59 61  1  0  0  0
 59 62  1  0  0  0
 60135  1  0  0  0
 60136  1  0  0  0
 60137  1  0  0  0
 61138  1  0  0  0
 61139  1  0  0  0
 61140  1  0  0  0
 62141  1  0  0  0
 62142  1  0  0  0
 62143  1  0  0  0
 63 65  1  0  0  0
 63144  1  0  0  0
 63145  1  0  0  0
 63146  1  0  0  0
 64147  1  0  0  0
 65148  1  0  0  0
 68 85  1  0  0  0
 71 72  1  0  0  0
 71 75  1  0  0  0
 71149  1  0  0  0
 71150  1  0  0  0
 72151  1  0  0  0
 72152  1  0  0  0
 72 89  1  0  0  0
 73 89  1  0  0  0
 73153  1  0  0  0
 73154  1  0  0  0
 73 74  1  0  0  0
 74 75  1  0  0  0
 74 87  1  0  0  0
 74155  1  0  0  0
 75 88  1  0  0  0
 75156  1  0  0  0
 76157  1  0  0  0
 76158  1  0  0  0
 76159  1  0  0  0
 76 86  1  0  0  0
 77160  1  0  0  0
 77161  1  0  0  0
 77162  1  0  0  0
 77 87  1  0  0  0
 78 87  1  0  0  0
 78163  1  0  0  0
 78164  1  0  0  0
 78165  1  0  0  0
 79 87  1  0  0  0
 79166  1  0  0  0
 79167  1  0  0  0
 79168  1  0  0  0
 80 88  1  0  0  0
 80169  1  0  0  0
 80170  1  0  0  0
 80171  1  0  0  0
 81 82  1  0  0  0
 81 83  1  0  0  0
 81172  1  0  0  0
 81173  1  0  0  0
 82 84  1  0  0  0
 82174  1  0  0  0
 82175  1  0  0  0
 83 85  1  0  0  0
 83176  1  0  0  0
 83177  1  0  0  0
 84 86  1  0  0  0
 84178  1  0  0  0
 84179  1  0  0  0
 85180  1  0  0  0
 85181  1  0  0  0
 86 89  1  0  0  0
 86182  1  0  0  0
 89183  1  0  0  0
M  CHG  1  89   1
M  ISO  4   1 100  68 101  85 101  88 100
M  END
> <chiral flag>
0

> <version>
0

> <s_m_source_file>
/data/baiqing/PycharmProjects/Reinvent-master-3.2/result/LINK_invent/BTK/process_docking_weight1_custom_sum_contain_oxygen_bond_distance_aromatic_linkinvent_7_9_3/rearranged_h_0026.sdf

> <i_m_source_file_index>
21

> <r_mmod_Potential_Energy-OPLS-2005>
245.893127441406

> <r_mmod_Stretch_Energy-OPLS-2005>
62.434253692627

> <r_mmod_Bend_Energy-OPLS-2005>
138.9384765625

> <r_mmod_Torsional_Energy-OPLS-2005>
375.229064941406

> <r_mmod_Improper_Torsional_Energy-OPLS-2005>
11.2675085067749

> <r_mmod_Van_der_Waal_Energy-OPLS-2005>
159.364044189453

> <r_mmod_Electrostatic_Energy-OPLS-2005>
-140.722015380859

> <r_mmod_Solvation_Energy-OPLS-2005>
-383.480895996094

> <b_mmod_Minimization_Converged-OPLS-2005>
0

> <r_mmod_RMS_Derivative-OPLS-2005>
8.20919609069824

$$$$
21
                    3D
 Structure written by MMmdl.
160168  0  0  1  0            999 V2000
  -30.7360  -14.5191   20.5922 C   0  0  0  0  0  0
  -30.4318  -12.3449   19.4450 C   0  0  0  0  0  0
  -29.5058  -12.5121   18.2256 C   0  0  0  0  0  0
  -28.0314  -12.3507   18.6408 C   0  0  0  0  0  0
  -27.6673  -13.2129   19.8789 C   0  0  2  0  0  0
  -28.7106  -13.0482   21.0069 C   0  0  0  0  0  0
  -25.2642  -13.8164   20.5694 C   0  0  0  0  0  0
  -24.1889  -13.0438   20.9171 C   0  0  0  0  0  0
  -24.6433  -11.6913   20.8719 C   0  0  0  0  0  0
  -23.9074  -10.4311   21.0373 C   0  0  0  0  0  0
  -24.3627   -9.4230   21.9158 C   0  0  0  0  0  0
  -23.6328   -8.2255   22.0734 C   0  0  0  0  0  0
  -22.4307   -8.0282   21.3545 C   0  0  0  0  0  0
  -21.9921   -9.0254   20.4640 C   0  0  0  0  0  0
  -22.7240  -10.2143   20.3040 C   0  0  0  0  0  0
  -21.6862   -6.0748   22.5295 C   0  0  0  0  0  0
  -21.4026   -6.5660   23.8221 C   0  0  0  0  0  0
  -21.3660   -5.6793   24.9182 C   0  0  0  0  0  0
  -21.6031   -4.3062   24.7222 C   0  0  0  0  0  0
  -21.8826   -3.8160   23.4353 C   0  0  0  0  0  0
  -21.9212   -4.6990   22.3409 C   0  0  0  0  0  0
  -22.7912  -13.5234   21.1825 C   0  0  0  0  0  0
  -22.1674   -4.2177   21.0987 F   0  0  0  0  0  0
  -21.5612   -3.4537   25.7733 F   0  0  0  0  0  0
  -30.0424  -13.3503   20.4525 N   0  0  0  0  0  0
  -26.3086  -12.9346   20.3388 N   0  0  0  0  0  0
  -25.9376  -11.6505   20.5779 N   0  0  0  0  0  0
  -22.0551  -12.8230   22.0381 N   0  0  0  0  0  0
  -25.4366  -15.1876   20.4115 N   0  0  0  0  0  0
  -31.8392  -14.6933   20.0704 O   0  0  0  0  0  0
  -21.6669   -6.8886   21.4240 O   0  0  0  0  0  0
  -22.3603  -14.5538   20.6689 O   0  0  0  0  0  0
  -24.6177  -31.8671   23.2109 C   0  0  0  0  0  0
  -25.9063  -32.4817   23.8404 C   0  0  1  0  0  0
  -27.2276  -27.4024   20.0862 C   0  0  0  0  0  0
  -25.5913  -33.8625   24.2315 N   0  0  0  0  0  0
  -23.4061  -30.4956   21.5499 C   0  0  2  0  0  0
  -24.8520  -28.9627   20.1113 C   0  0  0  0  0  0
  -22.7415  -29.4671   22.4943 C   0  0  0  0  0  0
  -18.0271  -28.1399   22.8470 C   0  0  0  0  0  0
  -24.1481  -36.7305   23.2638 C   0  0  0  0  0  0
  -25.9425  -30.8189   21.3756 C   0  0  0  0  0  0
  -26.0159  -29.4546   20.7136 C   0  0  0  0  0  0
  -27.2061  -28.6839   20.6969 C   0  0  0  0  0  0
  -26.0451  -26.9481   19.4578 C   0  0  0  0  0  0
  -24.8632  -27.7103   19.4787 C   0  0  0  0  0  0
  -23.6196  -29.8393   20.1613 C   0  0  0  0  0  0
  -25.4106  -36.3106   24.0329 C   0  0  1  0  0  0
  -20.5864  -28.3696   23.1283 C   0  0  2  0  0  0
  -20.6768  -26.9425   22.5412 C   0  0  0  0  0  0
  -19.5761  -26.6398   21.5197 C   0  0  0  0  0  0
  -18.1930  -26.7949   22.1590 C   0  0  0  0  0  0
  -19.1522  -28.8860   23.2882 C   0  0  0  0  0  0
  -18.9458  -30.1456   23.8912 C   0  0  0  0  0  0
  -17.6465  -30.6596   24.0577 C   0  0  0  0  0  0
  -25.9048  -34.9475   23.5113 C   0  0  0  0  0  0
  -16.5352  -29.9108   23.6326 C   0  0  0  0  0  0
  -16.7261  -28.6528   23.0335 C   0  0  0  0  0  0
  -26.4497  -31.6625   25.0758 C   0  0  0  0  0  0
  -25.3765  -31.3783   26.1516 C   0  0  0  0  0  0
  -27.0324  -30.3045   24.6198 C   0  0  0  0  0  0
  -27.6055  -32.4378   25.7508 C   0  0  0  0  0  0
  -27.5581  -37.1794   24.8445 C   0  0  0  0  0  0
  -21.4141  -29.3061   22.3680 N   0  0  0  0  0  0
  -26.4279  -37.3795   23.9420 N   0  0  0  0  0  0
  -24.6731  -31.0744   22.1033 N   0  0  0  0  0  0
  -23.4174  -28.8201   23.2986 O   0  0  0  0  0  0
  -28.3868  -26.6372   20.0709 O   0  0  0  0  0  0
  -26.5598  -34.8915   22.4674 O   0  0  0  0  0  0
  -23.5355  -32.1463   23.7467 O   0  0  0  0  0  0
  -28.3216  -21.9989   19.0474 C   0  0  0  0  0  0
  -28.5886  -20.6761   19.4899 C   0  0  0  0  0  0
  -29.1923  -22.8244   19.7148 C   0  0  0  0  0  0
  -29.6150  -20.6530   20.3934 C   0  0  0  0  0  0
  -27.2682  -22.3842   18.0413 C   0  0  0  0  0  0
  -31.0563  -22.4613   21.4227 C   0  0  0  0  0  0
  -29.3360  -24.3438   19.5801 C   0  0  0  0  0  0
  -30.2964  -19.5091   21.1555 C   0  0  0  0  0  0
  -29.8719  -18.0426   20.8040 C   0  0  0  0  0  0
  -30.6623  -16.8935   21.5073 C   0  0  0  0  0  0
  -28.2608  -25.2053   20.3061 C   0  0  0  0  0  0
  -29.9868  -22.0022   20.5417 N   0  0  0  0  0  0
  -30.1256  -15.5275   21.2543 N   0  0  0  0  0  0
  -27.6946  -19.3097   18.9232 Cl  0  0  0  0  0  0
  -31.4745  -12.4451   19.1361 H   0  0  0  0  0  0
  -30.3442  -11.3413   19.8638 H   0  0  0  0  0  0
  -29.7616  -11.7865   17.4536 H   0  0  0  0  0  0
  -29.6588  -13.4976   17.7824 H   0  0  0  0  0  0
  -27.8636  -11.2957   18.8618 H   0  0  0  0  0  0
  -27.3742  -12.5910   17.8069 H   0  0  0  0  0  0
  -27.6954  -14.2531   19.5545 H   0  0  0  0  0  0
  -28.7018  -12.0262   21.3886 H   0  0  0  0  0  0
  -28.4580  -13.6844   21.8562 H   0  0  0  0  0  0
  -25.2753   -9.5733   22.4757 H   0  0  0  0  0  0
  -24.0056   -7.4641   22.7450 H   0  0  0  0  0  0
  -21.0848   -8.8763   19.8971 H   0  0  0  0  0  0
  -22.3650  -10.9692   19.6176 H   0  0  0  0  0  0
  -21.2022   -7.6164   23.9732 H   0  0  0  0  0  0
  -21.1457   -6.0525   25.9073 H   0  0  0  0  0  0
  -22.0607   -2.7634   23.2840 H   0  0  0  0  0  0
  -22.4158  -11.9902   22.4784 H   0  0  0  0  0  0
  -21.1182  -13.1281   22.2580 H   0  0  0  0  0  0
  -24.6659  -15.8391   20.5101 H   0  0  0  0  0  0
  -26.2903  -15.6308   20.0977 H   0  0  0  0  0  0
  -26.7124  -32.5493   23.1146 H   0  0  0  0  0  0
  -25.0077  -33.9814   25.0459 H   0  0  0  0  0  0
  -22.6965  -31.3144   21.4139 H   0  0  0  0  0  0
  -23.3768  -35.9607   23.3259 H   0  0  0  0  0  0
  -24.3584  -36.8988   22.2065 H   0  0  0  0  0  0
  -23.7200  -37.6473   23.6699 H   0  0  0  0  0  0
  -26.0708  -31.5898   20.6146 H   0  0  0  0  0  0
  -26.8225  -30.8592   22.0056 H   0  0  0  0  0  0
  -28.1006  -29.0688   21.1668 H   0  0  0  0  0  0
  -26.0167  -26.0139   18.9176 H   0  0  0  0  0  0
  -23.9755  -27.3365   18.9873 H   0  0  0  0  0  0
  -23.7425  -30.6245   19.4129 H   0  0  0  0  0  0
  -22.7407  -29.2726   19.8501 H   0  0  0  0  0  0
  -25.1285  -36.1958   25.0820 H   0  0  0  0  0  0
  -20.9957  -28.3286   24.1398 H   0  0  0  0  0  0
  -20.5654  -26.2321   23.3616 H   0  0  0  0  0  0
  -21.6650  -26.7468   22.1222 H   0  0  0  0  0  0
  -19.6940  -25.6304   21.1238 H   0  0  0  0  0  0
  -19.6727  -27.3199   20.6721 H   0  0  0  0  0  0
  -17.4219  -26.6697   21.3975 H   0  0  0  0  0  0
  -18.0325  -26.0085   22.8978 H   0  0  0  0  0  0
  -19.7947  -30.7253   24.2299 H   0  0  0  0  0  0
  -17.5037  -31.6283   24.5177 H   0  0  0  0  0  0
  -15.5359  -30.3035   23.7648 H   0  0  0  0  0  0
  -15.8651  -28.0867   22.7037 H   0  0  0  0  0  0
  -24.5859  -30.7231   25.7860 H   0  0  0  0  0  0
  -24.9067  -32.2979   26.5016 H   0  0  0  0  0  0
  -25.8106  -30.8889   27.0242 H   0  0  0  0  0  0
  -26.2888  -29.6802   24.1237 H   0  0  0  0  0  0
  -27.4042  -29.7309   25.4699 H   0  0  0  0  0  0
  -27.8750  -30.4338   23.9403 H   0  0  0  0  0  0
  -27.2645  -33.3656   26.2113 H   0  0  0  0  0  0
  -28.3827  -32.6998   25.0319 H   0  0  0  0  0  0
  -28.0767  -31.8515   26.5406 H   0  0  0  0  0  0
  -28.2564  -38.0123   24.7533 H   0  0  0  0  0  0
  -28.1110  -36.2659   24.6199 H   0  0  0  0  0  0
  -27.2315  -37.1355   25.8849 H   0  0  0  0  0  0
  -20.9288  -29.8831   21.6946 H   0  0  0  0  0  0
  -26.0162  -38.2857   24.1479 H   0  0  0  0  0  0
  -27.2323  -21.6587   17.2273 H   0  0  0  0  0  0
  -27.4623  -23.3645   17.6084 H   0  0  0  0  0  0
  -26.2907  -22.4020   18.5221 H   0  0  0  0  0  0
  -31.0014  -23.5339   21.5967 H   0  0  0  0  0  0
  -32.0270  -22.2279   20.9844 H   0  0  0  0  0  0
  -30.9825  -21.9742   22.3936 H   0  0  0  0  0  0
  -29.2907  -24.5970   18.5202 H   0  0  0  0  0  0
  -30.3299  -24.6671   19.8812 H   0  0  0  0  0  0
  -30.1160  -19.6638   22.2218 H   0  0  0  0  0  0
  -31.3758  -19.5968   21.0322 H   0  0  0  0  0  0
  -29.9547  -17.8956   19.7256 H   0  0  0  0  0  0
  -28.8192  -17.9314   21.0585 H   0  0  0  0  0  0
  -30.6509  -17.0606   22.5862 H   0  0  0  0  0  0
  -31.7127  -16.9552   21.2179 H   0  0  0  0  0  0
  -28.3377  -25.0381   21.3796 H   0  0  0  0  0  0
  -27.2879  -24.8063   20.0273 H   0  0  0  0  0  0
  -29.2315  -15.3059   21.6654 H   0  0  0  0  0  0
  1 25  1  0  0  0
  1 30  2  0  0  0
  1 83  1  0  0  0
  2  3  1  0  0  0
  2 25  1  0  0  0
  2 85  1  0  0  0
  2 86  1  0  0  0
  3  4  1  0  0  0
  3 87  1  0  0  0
  3 88  1  0  0  0
  4  5  1  0  0  0
  4 89  1  0  0  0
  4 90  1  0  0  0
  5  6  1  0  0  0
  5 26  1  0  0  0
  5 91  1  0  0  0
  6 25  1  0  0  0
  6 92  1  0  0  0
  6 93  1  0  0  0
  7  8  2  0  0  0
  7 26  1  0  0  0
  7 29  1  0  0  0
  8  9  1  0  0  0
  8 22  1  0  0  0
  9 10  1  0  0  0
  9 27  2  0  0  0
 10 11  2  0  0  0
 10 15  1  0  0  0
 11 12  1  0  0  0
 11 94  1  0  0  0
 12 13  2  0  0  0
 12 95  1  0  0  0
 13 14  1  0  0  0
 13 31  1  0  0  0
 14 15  2  0  0  0
 14 96  1  0  0  0
 15 97  1  0  0  0
 16 17  2  0  0  0
 16 21  1  0  0  0
 16 31  1  0  0  0
 17 18  1  0  0  0
 17 98  1  0  0  0
 18 19  2  0  0  0
 18 99  1  0  0  0
 19 20  1  0  0  0
 19 24  1  0  0  0
 20 21  2  0  0  0
 20100  1  0  0  0
 21 23  1  0  0  0
 22 28  1  0  0  0
 22 32  2  0  0  0
 26 27  1  0  0  0
 28101  1  0  0  0
 28102  1  0  0  0
 29103  1  0  0  0
 29104  1  0  0  0
 33 34  1  0  0  0
 33 66  1  0  0  0
 33 70  2  0  0  0
 34 36  1  0  0  0
 34 59  1  0  0  0
 34105  1  0  0  0
 35 44  2  0  0  0
 35 45  1  0  0  0
 35 68  1  0  0  0
 36 56  1  0  0  0
 36106  1  0  0  0
 37 39  1  0  0  0
 37 47  1  0  0  0
 37 66  1  0  0  0
 37107  1  0  0  0
 38 43  2  0  0  0
 38 46  1  0  0  0
 38 47  1  0  0  0
 39 64  1  0  0  0
 39 67  2  0  0  0
 40 52  1  0  0  0
 40 53  2  0  0  0
 40 58  1  0  0  0
 41108  1  0  0  0
 41109  1  0  0  0
 41110  1  0  0  0
 41 48  1  0  0  0
 42 43  1  0  0  0
 42 66  1  0  0  0
 42111  1  0  0  0
 42112  1  0  0  0
 43 44  1  0  0  0
 44113  1  0  0  0
 45 46  2  0  0  0
 45114  1  0  0  0
 46115  1  0  0  0
 47116  1  0  0  0
 47117  1  0  0  0
 48 56  1  0  0  0
 48 65  1  0  0  0
 48118  1  0  0  0
 49 50  1  0  0  0
 49 53  1  0  0  0
 49 64  1  0  0  0
 49119  1  0  0  0
 50 51  1  0  0  0
 50120  1  0  0  0
 50121  1  0  0  0
 51 52  1  0  0  0
 51122  1  0  0  0
 51123  1  0  0  0
 52124  1  0  0  0
 52125  1  0  0  0
 53 54  1  0  0  0
 54 55  2  0  0  0
 54126  1  0  0  0
 55 57  1  0  0  0
 55127  1  0  0  0
 56 69  2  0  0  0
 57 58  2  0  0  0
 57128  1  0  0  0
 58129  1  0  0  0
 59 60  1  0  0  0
 59 61  1  0  0  0
 59 62  1  0  0  0
 60130  1  0  0  0
 60131  1  0  0  0
 60132  1  0  0  0
 61133  1  0  0  0
 61134  1  0  0  0
 61135  1  0  0  0
 62136  1  0  0  0
 62137  1  0  0  0
 62138  1  0  0  0
 63 65  1  0  0  0
 63139  1  0  0  0
 63140  1  0  0  0
 63141  1  0  0  0
 64142  1  0  0  0
 65143  1  0  0  0
 68 81  1  0  0  0
 71 72  1  0  0  0
 71 73  2  0  0  0
 71 75  1  0  0  0
 72 74  2  0  0  0
 72 84  1  0  0  0
 73 77  1  0  0  0
 73 82  1  0  0  0
 74 78  1  0  0  0
 74 82  1  0  0  0
 75144  1  0  0  0
 75145  1  0  0  0
 75146  1  0  0  0
 76 82  1  0  0  0
 76147  1  0  0  0
 76148  1  0  0  0
 76149  1  0  0  0
 77 81  1  0  0  0
 77150  1  0  0  0
 77151  1  0  0  0
 78 79  1  0  0  0
 78152  1  0  0  0
 78153  1  0  0  0
 79 80  1  0  0  0
 79154  1  0  0  0
 79155  1  0  0  0
 80 83  1  0  0  0
 80156  1  0  0  0
 80157  1  0  0  0
 81158  1  0  0  0
 81159  1  0  0  0
 83160  1  0  0  0
M  ISO  4   1 100  68 101  81 101  83 100
M  END
> <chiral flag>
0

> <version>
0

> <s_m_source_file>
/data/baiqing/PycharmProjects/Reinvent-master-3.2/result/LINK_invent/BTK/process_docking_weight1_custom_sum_contain_oxygen_bond_distance_aromatic_linkinvent_7_9_3/rearranged_h_0026.sdf

> <i_m_source_file_index>
22

> <r_mmod_Potential_Energy-OPLS-2005>
-71.3422775268555

> <r_mmod_Stretch_Energy-OPLS-2005>
49.7413787841797

> <r_mmod_Bend_Energy-OPLS-2005>
113.89917755127

> <r_mmod_Torsional_Energy-OPLS-2005>
202.945739746094

> <r_mmod_Improper_Torsional_Energy-OPLS-2005>
2.36331343650818

> <r_mmod_Van_der_Waal_Energy-OPLS-2005>
128.958221435547

> <r_mmod_Electrostatic_Energy-OPLS-2005>
-378.965606689453

> <r_mmod_Solvation_Energy-OPLS-2005>
-209.471572875977

> <b_mmod_Minimization_Converged-OPLS-2005>
0

> <r_mmod_RMS_Derivative-OPLS-2005>
3.53377866744995

$$$$
22
                    3D
 Structure written by MMmdl.
158166  0  0  1  0            999 V2000
  -30.7454  -14.3600   20.6964 C   0  0  0  0  0  0
  -30.4191  -12.2928   19.3893 C   0  0  0  0  0  0
  -29.4815  -12.5263   18.1895 C   0  0  0  0  0  0
  -28.0066  -12.3770   18.6073 C   0  0  0  0  0  0
  -27.6646  -13.1955   19.8793 C   0  0  2  0  0  0
  -28.6977  -12.9230   20.9919 C   0  0  0  0  0  0
  -25.2603  -13.8144   20.5641 C   0  0  0  0  0  0
  -24.1842  -13.0439   20.9159 C   0  0  0  0  0  0
  -24.6379  -11.6901   20.8730 C   0  0  0  0  0  0
  -23.9045  -10.4291   21.0410 C   0  0  0  0  0  0
  -24.3603   -9.4215   21.9190 C   0  0  0  0  0  0
  -23.6279   -8.2250   22.0764 C   0  0  0  0  0  0
  -22.4267   -8.0283   21.3551 C   0  0  0  0  0  0
  -21.9900   -9.0253   20.4655 C   0  0  0  0  0  0
  -22.7221  -10.2133   20.3058 C   0  0  0  0  0  0
  -21.6851   -6.0737   22.5283 C   0  0  0  0  0  0
  -21.4004   -6.5632   23.8218 C   0  0  0  0  0  0
  -21.3651   -5.6780   24.9176 C   0  0  0  0  0  0
  -21.6044   -4.3045   24.7222 C   0  0  0  0  0  0
  -21.8818   -3.8145   23.4341 C   0  0  0  0  0  0
  -21.9188   -4.6966   22.3401 C   0  0  0  0  0  0
  -22.7879  -13.5260   21.1825 C   0  0  0  0  0  0
  -22.1663   -4.2158   21.0977 F   0  0  0  0  0  0
  -21.5624   -3.4529   25.7735 F   0  0  0  0  0  0
  -30.0399  -13.2258   20.4595 N   0  0  0  0  0  0
  -26.3023  -12.9290   20.3352 N   0  0  0  0  0  0
  -25.9293  -11.6463   20.5745 N   0  0  0  0  0  0
  -22.0513  -12.8254   22.0387 N   0  0  0  0  0  0
  -25.4348  -15.1857   20.4023 N   0  0  0  0  0  0
  -31.7741  -14.6640   20.0839 O   0  0  0  0  0  0
  -21.6627   -6.8884   21.4246 O   0  0  0  0  0  0
  -22.3572  -14.5573   20.6682 O   0  0  0  0  0  0
  -24.6118  -31.8684   23.2146 C   0  0  0  0  0  0
  -25.9037  -32.4805   23.8417 C   0  0  1  0  0  0
  -27.2375  -27.4610   20.0737 C   0  0  0  0  0  0
  -25.5937  -33.8603   24.2359 N   0  0  0  0  0  0
  -23.3962  -30.4924   21.5547 C   0  0  2  0  0  0
  -24.8389  -28.9585   20.1185 C   0  0  0  0  0  0
  -22.7384  -29.4655   22.5034 C   0  0  0  0  0  0
  -18.0257  -28.1374   22.8493 C   0  0  0  0  0  0
  -24.1488  -36.7286   23.2648 C   0  0  0  0  0  0
  -25.9229  -30.8365   21.3672 C   0  0  0  0  0  0
  -25.9964  -29.4732   20.7132 C   0  0  0  0  0  0
  -27.1928  -28.7280   20.6933 C   0  0  0  0  0  0
  -26.0522  -26.9401   19.5022 C   0  0  0  0  0  0
  -24.8595  -27.6882   19.5165 C   0  0  0  0  0  0
  -23.6010  -29.8241   20.1687 C   0  0  0  0  0  0
  -25.4112  -36.3091   24.0360 C   0  0  1  0  0  0
  -20.5842  -28.3648   23.1346 C   0  0  2  0  0  0
  -20.6745  -26.9384   22.5456 C   0  0  0  0  0  0
  -19.5751  -26.6376   21.5225 C   0  0  0  0  0  0
  -18.1898  -26.7948   22.1570 C   0  0  0  0  0  0
  -19.1506  -28.8830   23.2911 C   0  0  0  0  0  0
  -18.9438  -30.1443   23.8914 C   0  0  0  0  0  0
  -17.6438  -30.6582   24.0574 C   0  0  0  0  0  0
  -25.9042  -34.9455   23.5143 C   0  0  0  0  0  0
  -16.5330  -29.9081   23.6344 C   0  0  0  0  0  0
  -16.7247  -28.6497   23.0368 C   0  0  0  0  0  0
  -26.4488  -31.6577   25.0727 C   0  0  0  0  0  0
  -25.3779  -31.3639   26.1488 C   0  0  0  0  0  0
  -27.0323  -30.3033   24.6083 C   0  0  0  0  0  0
  -27.6077  -32.4314   25.7442 C   0  0  0  0  0  0
  -27.5589  -37.1787   24.8466 C   0  0  0  0  0  0
  -21.4124  -29.3004   22.3751 N   0  0  0  0  0  0
  -26.4293  -37.3779   23.9424 N   0  0  0  0  0  0
  -24.6609  -31.0809   22.1032 N   0  0  0  0  0  0
  -23.4169  -28.8218   23.3079 O   0  0  0  0  0  0
  -28.4521  -26.8120   20.0492 O   0  0  0  0  0  0
  -26.5568  -34.8904   22.4683 O   0  0  0  0  0  0
  -23.5331  -32.1429   23.7577 O   0  0  0  0  0  0
  -27.2481  -22.4092   20.1349 C   0  0  0  0  0  0
  -28.1891  -21.8440   21.0179 C   0  0  0  0  0  0
  -29.3122  -22.6237   21.3709 C   0  0  0  0  0  0
  -29.4791  -23.8974   20.7945 C   0  0  0  0  0  0
  -28.4941  -24.3543   19.8912 C   0  0  0  0  0  0
  -27.9864  -20.4384   21.5835 C   0  0  0  0  0  0
  -28.6524  -25.6943   19.1832 C   0  0  0  0  0  0
  -30.5108  -17.6024   21.4135 C   0  0  0  0  0  0
  -30.8752  -16.3366   22.2137 C   0  0  0  0  0  0
  -29.1305  -18.2089   21.7410 C   0  0  0  0  0  0
  -27.3935  -23.6302   19.5766 N   0  0  0  0  0  0
  -30.2537  -15.1286   21.6779 N   0  0  0  0  0  0
  -28.9336  -19.4671   20.9864 N   0  3  0  0  0  0
  -30.5061  -21.9951   22.4597 Cl  0  0  0  0  0  0
  -30.8739  -24.8546   21.1711 Cl  0  0  0  0  0  0
  -31.4601  -12.4121   19.0833 H   0  0  0  0  0  0
  -30.3334  -11.2663   19.7481 H   0  0  0  0  0  0
  -29.7156  -11.8250   17.3875 H   0  0  0  0  0  0
  -29.6475  -13.5245   17.7820 H   0  0  0  0  0  0
  -27.8154  -11.3182   18.7859 H   0  0  0  0  0  0
  -27.3513  -12.6688   17.7856 H   0  0  0  0  0  0
  -27.7278  -14.2508   19.6139 H   0  0  0  0  0  0
  -28.6622  -11.8741   21.2909 H   0  0  0  0  0  0
  -28.4362  -13.4799   21.8918 H   0  0  0  0  0  0
  -25.2753   -9.5691   22.4760 H   0  0  0  0  0  0
  -23.9992   -7.4647   22.7491 H   0  0  0  0  0  0
  -21.0830   -8.8769   19.8965 H   0  0  0  0  0  0
  -22.3685  -10.9669   19.6160 H   0  0  0  0  0  0
  -21.1992   -7.6138   23.9727 H   0  0  0  0  0  0
  -21.1461   -6.0503   25.9080 H   0  0  0  0  0  0
  -22.0596   -2.7608   23.2832 H   0  0  0  0  0  0
  -22.4129  -11.9910   22.4765 H   0  0  0  0  0  0
  -21.1133  -13.1279   22.2589 H   0  0  0  0  0  0
  -24.6643  -15.8394   20.4888 H   0  0  0  0  0  0
  -26.2829  -15.6141   20.0530 H   0  0  0  0  0  0
  -26.7102  -32.5509   23.1172 H   0  0  0  0  0  0
  -25.0216  -33.9776   25.0596 H   0  0  0  0  0  0
  -22.6821  -31.3074   21.4184 H   0  0  0  0  0  0
  -23.3765  -35.9601   23.3290 H   0  0  0  0  0  0
  -24.3583  -36.8920   22.2065 H   0  0  0  0  0  0
  -23.7216  -37.6478   23.6670 H   0  0  0  0  0  0
  -26.0425  -31.6072   20.6052 H   0  0  0  0  0  0
  -26.8090  -30.8799   21.9881 H   0  0  0  0  0  0
  -28.0919  -29.1320   21.1365 H   0  0  0  0  0  0
  -26.0239  -25.9629   19.0432 H   0  0  0  0  0  0
  -23.9662  -27.2818   19.0629 H   0  0  0  0  0  0
  -23.7059  -30.5994   19.4085 H   0  0  0  0  0  0
  -22.7251  -29.2423   19.8748 H   0  0  0  0  0  0
  -25.1288  -36.1957   25.0855 H   0  0  0  0  0  0
  -20.9919  -28.3222   24.1473 H   0  0  0  0  0  0
  -20.5628  -26.2255   23.3640 H   0  0  0  0  0  0
  -21.6624  -26.7415   22.1270 H   0  0  0  0  0  0
  -19.6910  -25.6285   21.1256 H   0  0  0  0  0  0
  -19.6751  -27.3190   20.6764 H   0  0  0  0  0  0
  -17.4220  -26.6801   21.3900 H   0  0  0  0  0  0
  -18.0198  -26.0038   22.8888 H   0  0  0  0  0  0
  -19.7908  -30.7264   24.2286 H   0  0  0  0  0  0
  -17.4988  -31.6263   24.5178 H   0  0  0  0  0  0
  -15.5336  -30.2989   23.7667 H   0  0  0  0  0  0
  -15.8640  -28.0829   22.7088 H   0  0  0  0  0  0
  -24.6168  -30.6688   25.7921 H   0  0  0  0  0  0
  -24.8690  -32.2719   26.4730 H   0  0  0  0  0  0
  -25.8228  -30.9101   27.0358 H   0  0  0  0  0  0
  -26.2836  -29.6764   24.1223 H   0  0  0  0  0  0
  -27.4200  -29.7298   25.4514 H   0  0  0  0  0  0
  -27.8629  -30.4362   23.9146 H   0  0  0  0  0  0
  -27.2718  -33.3616   26.2035 H   0  0  0  0  0  0
  -28.3836  -32.6879   25.0214 H   0  0  0  0  0  0
  -28.0806  -31.8440   26.5323 H   0  0  0  0  0  0
  -28.2612  -38.0077   24.7514 H   0  0  0  0  0  0
  -28.1082  -36.2610   24.6286 H   0  0  0  0  0  0
  -27.2314  -37.1444   25.8873 H   0  0  0  0  0  0
  -20.9296  -29.8690   21.6939 H   0  0  0  0  0  0
  -26.0185  -38.2855   24.1453 H   0  0  0  0  0  0
  -26.3590  -21.8630   19.8533 H   0  0  0  0  0  0
  -26.9617  -20.1005   21.4180 H   0  0  0  0  0  0
  -28.1181  -20.4859   22.6660 H   0  0  0  0  0  0
  -28.0491  -25.7423   18.2762 H   0  0  0  0  0  0
  -29.6767  -25.7580   18.8175 H   0  0  0  0  0  0
  -30.5951  -17.4022   20.3439 H   0  0  0  0  0  0
  -31.2719  -18.3532   21.6342 H   0  0  0  0  0  0
  -30.5916  -16.4497   23.2610 H   0  0  0  0  0  0
  -31.9596  -16.2076   22.2153 H   0  0  0  0  0  0
  -29.0819  -18.4082   22.8126 H   0  0  0  0  0  0
  -28.3242  -17.5083   21.5176 H   0  0  0  0  0  0
  -29.4210  -14.7880   22.1368 H   0  0  0  0  0  0
  -29.8343  -19.9133   20.9416 H   0  0  0  0  0  0
  -28.6519  -19.2480   20.0430 H   0  0  0  0  0  0
  1 25  1  0  0  0
  1 30  2  0  0  0
  1 82  1  0  0  0
  2  3  1  0  0  0
  2 25  1  0  0  0
  2 86  1  0  0  0
  2 87  1  0  0  0
  3  4  1  0  0  0
  3 88  1  0  0  0
  3 89  1  0  0  0
  4  5  1  0  0  0
  4 90  1  0  0  0
  4 91  1  0  0  0
  5  6  1  0  0  0
  5 26  1  0  0  0
  5 92  1  0  0  0
  6 25  1  0  0  0
  6 93  1  0  0  0
  6 94  1  0  0  0
  7  8  2  0  0  0
  7 26  1  0  0  0
  7 29  1  0  0  0
  8  9  1  0  0  0
  8 22  1  0  0  0
  9 10  1  0  0  0
  9 27  2  0  0  0
 10 11  2  0  0  0
 10 15  1  0  0  0
 11 12  1  0  0  0
 11 95  1  0  0  0
 12 13  2  0  0  0
 12 96  1  0  0  0
 13 14  1  0  0  0
 13 31  1  0  0  0
 14 15  2  0  0  0
 14 97  1  0  0  0
 15 98  1  0  0  0
 16 17  2  0  0  0
 16 21  1  0  0  0
 16 31  1  0  0  0
 17 18  1  0  0  0
 17 99  1  0  0  0
 18 19  2  0  0  0
 18100  1  0  0  0
 19 20  1  0  0  0
 19 24  1  0  0  0
 20 21  2  0  0  0
 20101  1  0  0  0
 21 23  1  0  0  0
 22 28  1  0  0  0
 22 32  2  0  0  0
 26 27  1  0  0  0
 28102  1  0  0  0
 28103  1  0  0  0
 29104  1  0  0  0
 29105  1  0  0  0
 33 34  1  0  0  0
 33 66  1  0  0  0
 33 70  2  0  0  0
 34 36  1  0  0  0
 34 59  1  0  0  0
 34106  1  0  0  0
 35 44  2  0  0  0
 35 45  1  0  0  0
 35 68  1  0  0  0
 36 56  1  0  0  0
 36107  1  0  0  0
 37 39  1  0  0  0
 37 47  1  0  0  0
 37 66  1  0  0  0
 37108  1  0  0  0
 38 43  2  0  0  0
 38 46  1  0  0  0
 38 47  1  0  0  0
 39 64  1  0  0  0
 39 67  2  0  0  0
 40 52  1  0  0  0
 40 53  2  0  0  0
 40 58  1  0  0  0
 41109  1  0  0  0
 41110  1  0  0  0
 41111  1  0  0  0
 41 48  1  0  0  0
 42 43  1  0  0  0
 42 66  1  0  0  0
 42112  1  0  0  0
 42113  1  0  0  0
 43 44  1  0  0  0
 44114  1  0  0  0
 45 46  2  0  0  0
 45115  1  0  0  0
 46116  1  0  0  0
 47117  1  0  0  0
 47118  1  0  0  0
 48 56  1  0  0  0
 48 65  1  0  0  0
 48119  1  0  0  0
 49 50  1  0  0  0
 49 53  1  0  0  0
 49 64  1  0  0  0
 49120  1  0  0  0
 50 51  1  0  0  0
 50121  1  0  0  0
 50122  1  0  0  0
 51 52  1  0  0  0
 51123  1  0  0  0
 51124  1  0  0  0
 52125  1  0  0  0
 52126  1  0  0  0
 53 54  1  0  0  0
 54 55  2  0  0  0
 54127  1  0  0  0
 55 57  1  0  0  0
 55128  1  0  0  0
 56 69  2  0  0  0
 57 58  2  0  0  0
 57129  1  0  0  0
 58130  1  0  0  0
 59 60  1  0  0  0
 59 61  1  0  0  0
 59 62  1  0  0  0
 60131  1  0  0  0
 60132  1  0  0  0
 60133  1  0  0  0
 61134  1  0  0  0
 61135  1  0  0  0
 61136  1  0  0  0
 62137  1  0  0  0
 62138  1  0  0  0
 62139  1  0  0  0
 63 65  1  0  0  0
 63140  1  0  0  0
 63141  1  0  0  0
 63142  1  0  0  0
 64143  1  0  0  0
 65144  1  0  0  0
 68 77  1  0  0  0
 71 72  2  0  0  0
 71 81  1  0  0  0
 71145  1  0  0  0
 72 73  1  0  0  0
 72 76  1  0  0  0
 73 74  2  0  0  0
 73 84  1  0  0  0
 74 75  1  0  0  0
 74 85  1  0  0  0
 75 77  1  0  0  0
 75 81  2  0  0  0
 76 83  1  0  0  0
 76146  1  0  0  0
 76147  1  0  0  0
 77148  1  0  0  0
 77149  1  0  0  0
 78 79  1  0  0  0
 78 80  1  0  0  0
 78150  1  0  0  0
 78151  1  0  0  0
 79 82  1  0  0  0
 79152  1  0  0  0
 79153  1  0  0  0
 80 83  1  0  0  0
 80154  1  0  0  0
 80155  1  0  0  0
 82156  1  0  0  0
 83157  1  0  0  0
 83158  1  0  0  0
M  CHG  1  83   1
M  ISO  4   1 100  68 101  77 101  82 100
M  END
> <chiral flag>
0

> <version>
0

> <s_m_source_file>
/data/baiqing/PycharmProjects/Reinvent-master-3.2/result/LINK_invent/BTK/process_docking_weight1_custom_sum_contain_oxygen_bond_distance_aromatic_linkinvent_7_9_3/rearranged_h_0026.sdf

> <i_m_source_file_index>
23

> <r_mmod_Potential_Energy-OPLS-2005>
-348.752197265625

> <r_mmod_Stretch_Energy-OPLS-2005>
32.1442260742188

> <r_mmod_Bend_Energy-OPLS-2005>
95.0312881469727

> <r_mmod_Torsional_Energy-OPLS-2005>
194.702438354492

> <r_mmod_Improper_Torsional_Energy-OPLS-2005>
2.04364895820618

> <r_mmod_Van_der_Waal_Energy-OPLS-2005>
155.893035888672

> <r_mmod_Electrostatic_Energy-OPLS-2005>
-338.563842773438

> <r_mmod_Solvation_Energy-OPLS-2005>
-498.090301513672

> <b_mmod_Minimization_Converged-OPLS-2005>
0

> <r_mmod_RMS_Derivative-OPLS-2005>
1.49189937114716

$$$$
23
                    3D
 Structure written by MMmdl.
190199  0  0  1  0            999 V2000
  -30.7307  -14.4204   20.5276 C   0  0  0  0  0  0
  -30.4113  -12.2606   19.4111 C   0  0  0  0  0  0
  -29.4804  -12.4719   18.1988 C   0  0  0  0  0  0
  -28.0023  -12.3567   18.6212 C   0  0  0  0  0  0
  -27.6615  -13.2048   19.8765 C   0  0  2  0  0  0
  -28.7112  -12.9995   20.9944 C   0  0  0  0  0  0
  -25.2589  -13.8161   20.5704 C   0  0  0  0  0  0
  -24.1827  -13.0437   20.9173 C   0  0  0  0  0  0
  -24.6390  -11.6901   20.8766 C   0  0  0  0  0  0
  -23.9063  -10.4288   21.0424 C   0  0  0  0  0  0
  -24.3603   -9.4203   21.9207 C   0  0  0  0  0  0
  -23.6274   -8.2234   22.0770 C   0  0  0  0  0  0
  -22.4263   -8.0276   21.3543 C   0  0  0  0  0  0
  -21.9908   -9.0251   20.4640 C   0  0  0  0  0  0
  -22.7241  -10.2138   20.3062 C   0  0  0  0  0  0
  -21.6837   -6.0737   22.5278 C   0  0  0  0  0  0
  -21.4005   -6.5639   23.8213 C   0  0  0  0  0  0
  -21.3653   -5.6786   24.9167 C   0  0  0  0  0  0
  -21.6043   -4.3054   24.7222 C   0  0  0  0  0  0
  -21.8815   -3.8152   23.4344 C   0  0  0  0  0  0
  -21.9187   -4.6966   22.3400 C   0  0  0  0  0  0
  -22.7855  -13.5253   21.1840 C   0  0  0  0  0  0
  -22.1654   -4.2148   21.0972 F   0  0  0  0  0  0
  -21.5633   -3.4538   25.7742 F   0  0  0  0  0  0
  -30.0391  -13.2574   20.4212 N   0  0  0  0  0  0
  -26.3035  -12.9333   20.3450 N   0  0  0  0  0  0
  -25.9337  -11.6500   20.5861 N   0  0  0  0  0  0
  -22.0484  -12.8232   22.0375 N   0  0  0  0  0  0
  -25.4301  -15.1868   20.4077 N   0  0  0  0  0  0
  -31.9117  -14.5407   20.1917 O   0  0  0  0  0  0
  -21.6629   -6.8881   21.4242 O   0  0  0  0  0  0
  -22.3556  -14.5562   20.6691 O   0  0  0  0  0  0
  -24.6091  -31.8719   23.2167 C   0  0  0  0  0  0
  -25.9003  -32.4840   23.8433 C   0  0  1  0  0  0
  -27.2310  -27.4855   20.0958 C   0  0  0  0  0  0
  -25.5907  -33.8638   24.2387 N   0  0  0  0  0  0
  -23.3947  -30.4971   21.5558 C   0  0  2  0  0  0
  -24.8460  -28.9797   20.1033 C   0  0  0  0  0  0
  -22.7384  -29.4670   22.5011 C   0  0  0  0  0  0
  -18.0279  -28.1358   22.8475 C   0  0  0  0  0  0
  -24.1477  -36.7297   23.2636 C   0  0  0  0  0  0
  -25.9177  -30.8525   21.3646 C   0  0  0  0  0  0
  -25.9969  -29.4888   20.7195 C   0  0  0  0  0  0
  -27.1916  -28.7416   20.7323 C   0  0  0  0  0  0
  -26.0943  -27.0150   19.4162 C   0  0  0  0  0  0
  -24.8855  -27.7344   19.4509 C   0  0  0  0  0  0
  -23.5999  -29.8337   20.1653 C   0  0  0  0  0  0
  -25.4088  -36.3114   24.0361 C   0  0  1  0  0  0
  -20.5853  -28.3638   23.1327 C   0  0  2  0  0  0
  -20.6783  -26.9390   22.5404 C   0  0  0  0  0  0
  -19.5775  -26.6396   21.5179 C   0  0  0  0  0  0
  -18.1936  -26.7915   22.1574 C   0  0  0  0  0  0
  -19.1518  -28.8821   23.2901 C   0  0  0  0  0  0
  -18.9436  -30.1437   23.8916 C   0  0  0  0  0  0
  -17.6437  -30.6580   24.0540 C   0  0  0  0  0  0
  -25.9028  -34.9481   23.5168 C   0  0  0  0  0  0
  -16.5347  -29.9071   23.6304 C   0  0  0  0  0  0
  -16.7268  -28.6487   23.0332 C   0  0  0  0  0  0
  -26.4466  -31.6586   25.0722 C   0  0  0  0  0  0
  -25.3738  -31.3582   26.1440 C   0  0  0  0  0  0
  -27.0330  -30.3072   24.6038 C   0  0  0  0  0  0
  -27.6078  -32.4276   25.7460 C   0  0  0  0  0  0
  -27.5569  -37.1782   24.8459 C   0  0  0  0  0  0
  -21.4122  -29.3018   22.3749 N   0  0  0  0  0  0
  -26.4261  -37.3809   23.9447 N   0  0  0  0  0  0
  -24.6589  -31.0852   22.1060 N   0  0  0  0  0  0
  -23.4181  -28.8215   23.3038 O   0  0  0  0  0  0
  -28.3543  -26.7061   20.1436 O   0  0  0  0  0  0
  -26.5552  -34.8911   22.4706 O   0  0  0  0  0  0
  -23.5306  -32.1479   23.7589 O   0  0  0  0  0  0
  -22.9985  -23.7817   21.5231 C   0  0  0  0  0  0
  -23.4746  -22.1300   19.6542 C   0  0  0  0  0  0
  -21.7903  -22.9300   21.9560 C   0  0  0  0  0  0
  -22.2708  -21.2858   20.1005 C   0  0  0  0  0  0
  -28.8549  -17.4224   19.4313 C   0  0  0  0  0  0
  -29.0942  -17.5019   21.9021 C   0  0  0  0  0  0
  -29.9098  -16.3148   19.3794 C   0  0  0  0  0  0
  -30.0987  -16.3317   21.8417 C   0  0  0  0  0  0
  -24.0846  -22.9405   20.8169 C   0  0  1  0  0  0
  -29.1440  -18.3440   20.6168 C   0  0  0  0  0  0
  -21.1795  -22.1410   20.7753 C   0  0  1  0  0  0
  -28.5531  -23.3587   23.0847 C   0  0  0  0  0  0
  -25.2316  -23.8242   20.2902 C   0  0  0  0  0  0
  -28.1897  -19.5469   20.6399 C   0  0  0  0  0  0
  -19.9922  -21.2521   21.1962 C   0  0  0  0  0  0
  -26.1321  -24.4629   21.3797 C   0  0  0  0  0  0
  -28.8013  -20.8047   21.2833 C   0  0  0  0  0  0
  -27.8449  -21.9987   21.1358 C   0  0  0  0  0  0
  -28.3841  -25.8267   21.2781 C   0  0  0  0  0  0
  -27.6538  -24.4737   21.0155 C   0  0  1  0  0  0
  -29.9583  -15.5205   20.6218 N   0  0  0  0  0  0
  -28.3855  -23.3038   21.6074 N   0  3  1  0  0  0
  -20.7252  -23.0143   19.8722 F   0  0  0  0  0  0
  -18.6736  -22.2021   21.9422 Cl  0  0  0  0  0  0
  -31.4561  -12.3399   19.1051 H   0  0  0  0  0  0
  -30.2921  -11.2541   19.8141 H   0  0  0  0  0  0
  -29.7007  -11.7401   17.4203 H   0  0  0  0  0  0
  -29.6587  -13.4503   17.7507 H   0  0  0  0  0  0
  -27.8010  -11.3039   18.8214 H   0  0  0  0  0  0
  -27.3499  -12.6359   17.7925 H   0  0  0  0  0  0
  -27.6985  -14.2501   19.5691 H   0  0  0  0  0  0
  -28.6747  -11.9791   21.3818 H   0  0  0  0  0  0
  -28.5100  -13.6535   21.8448 H   0  0  0  0  0  0
  -25.2737   -9.5663   22.4809 H   0  0  0  0  0  0
  -23.9954   -7.4637   22.7506 H   0  0  0  0  0  0
  -21.0848   -8.8781   19.8951 H   0  0  0  0  0  0
  -22.3709  -10.9683   19.6173 H   0  0  0  0  0  0
  -21.1990   -7.6141   23.9710 H   0  0  0  0  0  0
  -21.1484   -6.0519   25.9066 H   0  0  0  0  0  0
  -22.0606   -2.7611   23.2838 H   0  0  0  0  0  0
  -22.4063  -11.9835   22.4681 H   0  0  0  0  0  0
  -21.1122  -13.1279   22.2616 H   0  0  0  0  0  0
  -24.6634  -15.8412   20.5123 H   0  0  0  0  0  0
  -26.2910  -15.6277   20.1102 H   0  0  0  0  0  0
  -26.7100  -32.5594   23.1233 H   0  0  0  0  0  0
  -25.0145  -33.9849   25.0587 H   0  0  0  0  0  0
  -22.6817  -31.3135   21.4211 H   0  0  0  0  0  0
  -23.3762  -35.9597   23.3252 H   0  0  0  0  0  0
  -24.3603  -36.8959   22.2063 H   0  0  0  0  0  0
  -23.7179  -37.6470   23.6677 H   0  0  0  0  0  0
  -26.0142  -31.6163   20.5908 H   0  0  0  0  0  0
  -26.8121  -30.9165   21.9731 H   0  0  0  0  0  0
  -28.0700  -29.1210   21.2355 H   0  0  0  0  0  0
  -26.1489  -26.0848   18.8737 H   0  0  0  0  0  0
  -24.0082  -27.3452   18.9537 H   0  0  0  0  0  0
  -23.6893  -30.6131   19.4077 H   0  0  0  0  0  0
  -22.7303  -29.2407   19.8773 H   0  0  0  0  0  0
  -25.1248  -36.1998   25.0856 H   0  0  0  0  0  0
  -20.9935  -28.3207   24.1447 H   0  0  0  0  0  0
  -20.5721  -26.2218   23.3555 H   0  0  0  0  0  0
  -21.6641  -26.7487   22.1134 H   0  0  0  0  0  0
  -19.6988  -25.6343   21.1128 H   0  0  0  0  0  0
  -19.6738  -27.3290   20.6782 H   0  0  0  0  0  0
  -17.4244  -26.6678   21.3942 H   0  0  0  0  0  0
  -18.0343  -26.0015   22.8919 H   0  0  0  0  0  0
  -19.7891  -30.7245   24.2338 H   0  0  0  0  0  0
  -17.4940  -31.6253   24.5148 H   0  0  0  0  0  0
  -15.5342  -30.2946   23.7594 H   0  0  0  0  0  0
  -15.8660  -28.0810   22.7058 H   0  0  0  0  0  0
  -24.6025  -30.6835   25.7704 H   0  0  0  0  0  0
  -24.8779  -32.2668   26.4873 H   0  0  0  0  0  0
  -25.8086  -30.8753   27.0202 H   0  0  0  0  0  0
  -26.2887  -29.6786   24.1147 H   0  0  0  0  0  0
  -27.4231  -29.7333   25.4448 H   0  0  0  0  0  0
  -27.8646  -30.4439   23.9120 H   0  0  0  0  0  0
  -27.2792  -33.3630   26.1990 H   0  0  0  0  0  0
  -28.3901  -32.6728   25.0264 H   0  0  0  0  0  0
  -28.0724  -31.8401   26.5395 H   0  0  0  0  0  0
  -28.2526  -38.0135   24.7611 H   0  0  0  0  0  0
  -28.1132  -36.2685   24.6159 H   0  0  0  0  0  0
  -27.2303  -37.1270   25.8856 H   0  0  0  0  0  0
  -20.9271  -29.8718   21.6966 H   0  0  0  0  0  0
  -26.0153  -38.2880   24.1498 H   0  0  0  0  0  0
  -23.4210  -24.2820   22.3955 H   0  0  0  0  0  0
  -22.6555  -24.5751   20.8565 H   0  0  0  0  0  0
  -23.1646  -22.7985   18.8498 H   0  0  0  0  0  0
  -24.2317  -21.4702   19.2245 H   0  0  0  0  0  0
  -21.0417  -23.5860   22.4050 H   0  0  0  0  0  0
  -22.0953  -22.2361   22.7397 H   0  0  0  0  0  0
  -22.6088  -20.5108   20.7891 H   0  0  0  0  0  0
  -21.8546  -20.7633   19.2391 H   0  0  0  0  0  0
  -27.8534  -16.9972   19.5088 H   0  0  0  0  0  0
  -28.8819  -17.9837   18.4957 H   0  0  0  0  0  0
  -29.3104  -18.1221   22.7730 H   0  0  0  0  0  0
  -28.0860  -17.1095   22.0464 H   0  0  0  0  0  0
  -30.8901  -16.7567   19.1875 H   0  0  0  0  0  0
  -29.6981  -15.6689   18.5253 H   0  0  0  0  0  0
  -29.9608  -15.7003   22.7217 H   0  0  0  0  0  0
  -31.1162  -16.7231   21.8961 H   0  0  0  0  0  0
  -24.4922  -22.2268   21.5347 H   0  0  0  0  0  0
  -30.1594  -18.7214   20.4872 H   0  0  0  0  0  0
  -29.2449  -22.5893   23.4212 H   0  0  0  0  0  0
  -27.6145  -23.2005   23.6125 H   0  0  0  0  0  0
  -28.9662  -24.3083   23.4218 H   0  0  0  0  0  0
  -24.7989  -24.6010   19.6607 H   0  0  0  0  0  0
  -25.8292  -23.2339   19.5981 H   0  0  0  0  0  0
  -27.2570  -19.2753   21.1343 H   0  0  0  0  0  0
  -27.9154  -19.7944   19.6135 H   0  0  0  0  0  0
  -20.3018  -20.4892   21.9097 H   0  0  0  0  0  0
  -19.5720  -20.7359   20.3325 H   0  0  0  0  0  0
  -25.9652  -23.9702   22.3366 H   0  0  0  0  0  0
  -25.7758  -25.4766   21.5632 H   0  0  0  0  0  0
  -29.7469  -21.0380   20.7899 H   0  0  0  0  0  0
  -29.0274  -20.6058   22.3316 H   0  0  0  0  0  0
  -26.9036  -21.7833   21.6429 H   0  0  0  0  0  0
  -27.6183  -22.0829   20.0738 H   0  0  0  0  0  0
  -29.4428  -25.6518   21.4706 H   0  0  0  0  0  0
  -28.0013  -26.3100   22.1797 H   0  0  0  0  0  0
  -27.7400  -24.3465   19.9357 H   0  0  0  0  0  0
  -29.3216  -23.3622   21.2299 H   0  0  0  0  0  0
  1 25  1  0  0  0
  1 30  2  0  0  0
  1 91  1  0  0  0
  2  3  1  0  0  0
  2 25  1  0  0  0
  2 95  1  0  0  0
  2 96  1  0  0  0
  3  4  1  0  0  0
  3 97  1  0  0  0
  3 98  1  0  0  0
  4  5  1  0  0  0
  4 99  1  0  0  0
  4100  1  0  0  0
  5  6  1  0  0  0
  5 26  1  0  0  0
  5101  1  0  0  0
  6 25  1  0  0  0
  6102  1  0  0  0
  6103  1  0  0  0
  7  8  2  0  0  0
  7 26  1  0  0  0
  7 29  1  0  0  0
  8  9  1  0  0  0
  8 22  1  0  0  0
  9 10  1  0  0  0
  9 27  2  0  0  0
 10 11  2  0  0  0
 10 15  1  0  0  0
 11 12  1  0  0  0
 11104  1  0  0  0
 12 13  2  0  0  0
 12105  1  0  0  0
 13 14  1  0  0  0
 13 31  1  0  0  0
 14 15  2  0  0  0
 14106  1  0  0  0
 15107  1  0  0  0
 16 17  2  0  0  0
 16 21  1  0  0  0
 16 31  1  0  0  0
 17 18  1  0  0  0
 17108  1  0  0  0
 18 19  2  0  0  0
 18109  1  0  0  0
 19 20  1  0  0  0
 19 24  1  0  0  0
 20 21  2  0  0  0
 20110  1  0  0  0
 21 23  1  0  0  0
 22 28  1  0  0  0
 22 32  2  0  0  0
 26 27  1  0  0  0
 28111  1  0  0  0
 28112  1  0  0  0
 29113  1  0  0  0
 29114  1  0  0  0
 33 34  1  0  0  0
 33 66  1  0  0  0
 33 70  2  0  0  0
 34 36  1  0  0  0
 34 59  1  0  0  0
 34115  1  0  0  0
 35 44  2  0  0  0
 35 45  1  0  0  0
 35 68  1  0  0  0
 36 56  1  0  0  0
 36116  1  0  0  0
 37 39  1  0  0  0
 37 47  1  0  0  0
 37 66  1  0  0  0
 37117  1  0  0  0
 38 43  2  0  0  0
 38 46  1  0  0  0
 38 47  1  0  0  0
 39 64  1  0  0  0
 39 67  2  0  0  0
 40 52  1  0  0  0
 40 53  2  0  0  0
 40 58  1  0  0  0
 41118  1  0  0  0
 41119  1  0  0  0
 41120  1  0  0  0
 41 48  1  0  0  0
 42 43  1  0  0  0
 42 66  1  0  0  0
 42121  1  0  0  0
 42122  1  0  0  0
 43 44  1  0  0  0
 44123  1  0  0  0
 45 46  2  0  0  0
 45124  1  0  0  0
 46125  1  0  0  0
 47126  1  0  0  0
 47127  1  0  0  0
 48 56  1  0  0  0
 48 65  1  0  0  0
 48128  1  0  0  0
 49 50  1  0  0  0
 49 53  1  0  0  0
 49 64  1  0  0  0
 49129  1  0  0  0
 50 51  1  0  0  0
 50130  1  0  0  0
 50131  1  0  0  0
 51 52  1  0  0  0
 51132  1  0  0  0
 51133  1  0  0  0
 52134  1  0  0  0
 52135  1  0  0  0
 53 54  1  0  0  0
 54 55  2  0  0  0
 54136  1  0  0  0
 55 57  1  0  0  0
 55137  1  0  0  0
 56 69  2  0  0  0
 57 58  2  0  0  0
 57138  1  0  0  0
 58139  1  0  0  0
 59 60  1  0  0  0
 59 61  1  0  0  0
 59 62  1  0  0  0
 60140  1  0  0  0
 60141  1  0  0  0
 60142  1  0  0  0
 61143  1  0  0  0
 61144  1  0  0  0
 61145  1  0  0  0
 62146  1  0  0  0
 62147  1  0  0  0
 62148  1  0  0  0
 63 65  1  0  0  0
 63149  1  0  0  0
 63150  1  0  0  0
 63151  1  0  0  0
 64152  1  0  0  0
 65153  1  0  0  0
 68 89  1  0  0  0
 71 73  1  0  0  0
 71 79  1  0  0  0
 71154  1  0  0  0
 71155  1  0  0  0
 72 74  1  0  0  0
 72 79  1  0  0  0
 72156  1  0  0  0
 72157  1  0  0  0
 73 81  1  0  0  0
 73158  1  0  0  0
 73159  1  0  0  0
 74 81  1  0  0  0
 74160  1  0  0  0
 74161  1  0  0  0
 75 77  1  0  0  0
 75 80  1  0  0  0
 75162  1  0  0  0
 75163  1  0  0  0
 76 78  1  0  0  0
 76 80  1  0  0  0
 76164  1  0  0  0
 76165  1  0  0  0
 77 91  1  0  0  0
 77166  1  0  0  0
 77167  1  0  0  0
 78 91  1  0  0  0
 78168  1  0  0  0
 78169  1  0  0  0
 79 83  1  0  0  0
 79170  1  0  0  0
 80 84  1  0  0  0
 80171  1  0  0  0
 81 85  1  0  0  0
 81 93  1  0  0  0
 82172  1  0  0  0
 82173  1  0  0  0
 82174  1  0  0  0
 82 92  1  0  0  0
 83 86  1  0  0  0
 83175  1  0  0  0
 83176  1  0  0  0
 84 87  1  0  0  0
 84177  1  0  0  0
 84178  1  0  0  0
 85 94  1  0  0  0
 85179  1  0  0  0
 85180  1  0  0  0
 86181  1  0  0  0
 86182  1  0  0  0
 86 90  1  0  0  0
 87 88  1  0  0  0
 87183  1  0  0  0
 87184  1  0  0  0
 88 92  1  0  0  0
 88185  1  0  0  0
 88186  1  0  0  0
 89 90  1  0  0  0
 89187  1  0  0  0
 89188  1  0  0  0
 90 92  1  0  0  0
 90189  1  0  0  0
 92190  1  0  0  0
M  CHG  1  92   1
M  ISO  4   1 100  68 101  89 101  91 100
M  END
> <chiral flag>
0

> <version>
0

> <s_m_source_file>
/data/baiqing/PycharmProjects/Reinvent-master-3.2/result/LINK_invent/BTK/process_docking_weight1_custom_sum_contain_oxygen_bond_distance_aromatic_linkinvent_7_9_3/rearranged_h_0026.sdf

> <i_m_source_file_index>
24

> <r_mmod_Potential_Energy-OPLS-2005>
198.903839111328

> <r_mmod_Stretch_Energy-OPLS-2005>
37.6117935180664

> <r_mmod_Bend_Energy-OPLS-2005>
112.136154174805

> <r_mmod_Torsional_Energy-OPLS-2005>
427.766052246094

> <r_mmod_Improper_Torsional_Energy-OPLS-2005>
15.1594562530518

> <r_mmod_Van_der_Waal_Energy-OPLS-2005>
130.546798706055

> <r_mmod_Electrostatic_Energy-OPLS-2005>
-140.419799804688

> <r_mmod_Solvation_Energy-OPLS-2005>
-401.793975830078

> <b_mmod_Minimization_Converged-OPLS-2005>
0

> <r_mmod_RMS_Derivative-OPLS-2005>
3.53870224952698

$$$$
24
                    3D
 Structure written by MMmdl.
171179  0  0  1  0            999 V2000
  -30.5687  -14.9440   20.3805 C   0  0  0  0  0  0
  -30.4447  -12.5814   19.5043 C   0  0  0  0  0  0
  -29.5371  -12.5692   18.2563 C   0  0  0  0  0  0
  -28.0635  -12.3607   18.6548 C   0  0  0  0  0  0
  -27.6394  -13.2618   19.8460 C   0  0  2  0  0  0
  -28.6843  -13.2934   20.9852 C   0  0  0  0  0  0
  -25.2500  -13.8200   20.5723 C   0  0  0  0  0  0
  -24.1832  -13.0432   20.9199 C   0  0  0  0  0  0
  -24.6443  -11.6892   20.8679 C   0  0  0  0  0  0
  -23.9098  -10.4280   21.0323 C   0  0  0  0  0  0
  -24.3645   -9.4209   21.9129 C   0  0  0  0  0  0
  -23.6329   -8.2251   22.0734 C   0  0  0  0  0  0
  -22.4298   -8.0268   21.3530 C   0  0  0  0  0  0
  -21.9921   -9.0220   20.4623 C   0  0  0  0  0  0
  -22.7243  -10.2114   20.2997 C   0  0  0  0  0  0
  -21.6883   -6.0722   22.5259 C   0  0  0  0  0  0
  -21.4033   -6.5622   23.8193 C   0  0  0  0  0  0
  -21.3671   -5.6789   24.9157 C   0  0  0  0  0  0
  -21.6050   -4.3051   24.7221 C   0  0  0  0  0  0
  -21.8821   -3.8131   23.4342 C   0  0  0  0  0  0
  -21.9220   -4.6935   22.3401 C   0  0  0  0  0  0
  -22.7832  -13.5164   21.1820 C   0  0  0  0  0  0
  -22.1669   -4.2122   21.0976 F   0  0  0  0  0  0
  -21.5630   -3.4529   25.7733 F   0  0  0  0  0  0
  -29.9665  -13.6872   20.3867 N   0  0  0  0  0  0
  -26.2978  -12.9487   20.3295 N   0  0  0  0  0  0
  -25.9403  -11.6585   20.5698 N   0  0  0  0  0  0
  -22.0513  -12.8183   22.0381 N   0  0  0  0  0  0
  -25.4095  -15.1977   20.4155 N   0  0  0  0  0  0
  -31.7601  -14.9918   20.0603 O   0  0  0  0  0  0
  -21.6687   -6.8845   21.4226 O   0  0  0  0  0  0
  -22.3485  -14.5461   20.6606 O   0  0  0  0  0  0
  -24.6531  -31.8396   23.1814 C   0  0  0  0  0  0
  -25.9292  -32.4650   23.8244 C   0  0  1  0  0  0
  -27.2126  -27.1101   20.1387 C   0  0  0  0  0  0
  -25.6026  -33.8452   24.2185 N   0  0  0  0  0  0
  -23.4552  -30.4607   21.5260 C   0  0  2  0  0  0
  -24.8998  -28.8760   20.1023 C   0  0  0  0  0  0
  -22.7586  -29.4581   22.4803 C   0  0  0  0  0  0
  -18.0343  -28.1401   22.8462 C   0  0  0  0  0  0
  -24.1507  -36.7241   23.2635 C   0  0  0  0  0  0
  -26.0134  -30.7006   21.3824 C   0  0  0  0  0  0
  -26.0785  -29.3105   20.7195 C   0  0  0  0  0  0
  -27.2421  -28.4506   20.7048 C   0  0  0  0  0  0
  -26.0160  -26.7825   19.4738 C   0  0  0  0  0  0
  -24.8853  -27.6298   19.4517 C   0  0  0  0  0  0
  -23.6779  -29.7847   20.1469 C   0  0  0  0  0  0
  -25.4130  -36.3003   24.0322 C   0  0  1  0  0  0
  -20.5955  -28.3754   23.1181 C   0  0  2  0  0  0
  -20.6824  -26.9458   22.5363 C   0  0  0  0  0  0
  -19.5796  -26.6391   21.5180 C   0  0  0  0  0  0
  -18.1983  -26.7936   22.1597 C   0  0  0  0  0  0
  -19.1592  -28.8881   23.2824 C   0  0  0  0  0  0
  -18.9506  -30.1475   23.8866 C   0  0  0  0  0  0
  -17.6497  -30.6595   24.0545 C   0  0  0  0  0  0
  -25.9088  -34.9378   23.5055 C   0  0  0  0  0  0
  -16.5396  -29.9076   23.6332 C   0  0  0  0  0  0
  -16.7321  -28.6492   23.0354 C   0  0  0  0  0  0
  -26.4577  -31.6523   25.0702 C   0  0  0  0  0  0
  -25.3764  -31.3667   26.1391 C   0  0  0  0  0  0
  -27.0468  -30.2933   24.6295 C   0  0  0  0  0  0
  -27.6117  -32.4262   25.7504 C   0  0  0  0  0  0
  -27.5581  -37.1788   24.8472 C   0  0  0  0  0  0
  -21.4286  -29.3080   22.3530 N   0  0  0  0  0  0
  -26.4283  -37.3729   23.9427 N   0  0  0  0  0  0
  -24.7272  -31.0228   22.0855 N   0  0  0  0  0  0
  -23.4197  -28.8126   23.3001 O   0  0  0  0  0  0
  -28.2759  -26.1352   20.1457 O   0  0  0  0  0  0
  -26.5641  -34.8892   22.4613 O   0  0  0  0  0  0
  -23.5648  -32.1306   23.6999 O   0  0  0  0  0  0
  -28.1624  -19.4164   20.7895 C   0  0  0  0  0  0
  -27.9115  -20.9676   20.6546 C   0  0  0  0  0  0
  -29.6306  -19.1323   20.4026 C   0  0  1  0  0  0
  -29.2428  -21.7033   20.3292 C   0  0  2  0  0  0
  -28.5159  -23.2513   18.3085 C   0  0  0  0  0  0
  -30.4282  -24.0791   19.8888 C   0  0  0  0  0  0
  -31.8535  -21.8742   18.4829 C   0  0  0  0  0  0
  -32.4295  -20.2188   20.2309 C   0  0  0  0  0  0
  -31.6188  -19.5958   17.8602 C   0  0  0  0  0  0
  -30.0716  -17.5753   19.8622 C   0  0  0  0  0  0
  -28.0920  -24.5936   20.4116 C   0  0  0  0  0  0
  -29.0599  -23.3501   19.7563 C   0  0  0  0  0  0
  -31.4185  -20.5317   19.0991 C   0  0  0  0  0  0
  -29.8149  -16.1469   20.4931 N   0  0  0  0  0  0
  -29.9773  -20.4667   19.6229 N   0  3  1  0  0  0
  -31.4831  -12.7157   19.1932 H   0  0  0  0  0  0
  -30.4129  -11.6214   20.0187 H   0  0  0  0  0  0
  -29.8602  -11.7993   17.5560 H   0  0  0  0  0  0
  -29.6468  -13.5230   17.7378 H   0  0  0  0  0  0
  -27.9334  -11.3086   18.9078 H   0  0  0  0  0  0
  -27.4201  -12.5545   17.7966 H   0  0  0  0  0  0
  -27.5979  -14.2725   19.4377 H   0  0  0  0  0  0
  -28.7650  -12.3265   21.4816 H   0  0  0  0  0  0
  -28.3905  -14.0140   21.7521 H   0  0  0  0  0  0
  -25.2777   -9.5741   22.4698 H   0  0  0  0  0  0
  -24.0053   -7.4668   22.7468 H   0  0  0  0  0  0
  -21.0848   -8.8702   19.8933 H   0  0  0  0  0  0
  -22.3648  -10.9636   19.6104 H   0  0  0  0  0  0
  -21.2019   -7.6132   23.9679 H   0  0  0  0  0  0
  -21.1497   -6.0522   25.9061 H   0  0  0  0  0  0
  -22.0603   -2.7589   23.2862 H   0  0  0  0  0  0
  -22.4151  -11.9923   22.4934 H   0  0  0  0  0  0
  -21.1061  -13.1103   22.2417 H   0  0  0  0  0  0
  -24.6243  -15.8334   20.5015 H   0  0  0  0  0  0
  -26.2498  -15.6549   20.0893 H   0  0  0  0  0  0
  -26.7336  -32.5216   23.0940 H   0  0  0  0  0  0
  -25.0251  -33.9541   25.0386 H   0  0  0  0  0  0
  -22.7657  -31.2929   21.3672 H   0  0  0  0  0  0
  -23.3782  -35.9559   23.3242 H   0  0  0  0  0  0
  -24.3610  -36.8922   22.2064 H   0  0  0  0  0  0
  -23.7240  -37.6413   23.6698 H   0  0  0  0  0  0
  -26.1843  -31.4547   20.6121 H   0  0  0  0  0  0
  -26.8786  -30.7367   22.0339 H   0  0  0  0  0  0
  -28.1560  -28.7965   21.1661 H   0  0  0  0  0  0
  -25.9499  -25.8428   18.9471 H   0  0  0  0  0  0
  -24.0009  -27.3006   18.9256 H   0  0  0  0  0  0
  -23.8189  -30.5590   19.3918 H   0  0  0  0  0  0
  -22.7899  -29.2330   19.8329 H   0  0  0  0  0  0
  -25.1311  -36.1818   25.0810 H   0  0  0  0  0  0
  -21.0078  -28.3376   24.1285 H   0  0  0  0  0  0
  -20.5719  -26.2401   23.3603 H   0  0  0  0  0  0
  -21.6699  -26.7459   22.1165 H   0  0  0  0  0  0
  -19.6967  -25.6283   21.1261 H   0  0  0  0  0  0
  -19.6718  -27.3156   20.6670 H   0  0  0  0  0  0
  -17.4257  -26.6681   21.4007 H   0  0  0  0  0  0
  -18.0403  -26.0070   22.8983 H   0  0  0  0  0  0
  -19.7979  -30.7308   24.2227 H   0  0  0  0  0  0
  -17.5044  -31.6273   24.5153 H   0  0  0  0  0  0
  -15.5389  -30.2957   23.7666 H   0  0  0  0  0  0
  -15.8728  -28.0783   22.7085 H   0  0  0  0  0  0
  -24.5990  -30.6954   25.7720 H   0  0  0  0  0  0
  -24.8880  -32.2799   26.4800 H   0  0  0  0  0  0
  -25.8073  -30.8879   27.0194 H   0  0  0  0  0  0
  -26.3089  -29.6601   24.1349 H   0  0  0  0  0  0
  -27.4156  -29.7280   25.4867 H   0  0  0  0  0  0
  -27.8967  -30.4202   23.9582 H   0  0  0  0  0  0
  -27.2771  -33.3626   26.1985 H   0  0  0  0  0  0
  -28.4008  -32.6696   25.0372 H   0  0  0  0  0  0
  -28.0691  -31.8411   26.5493 H   0  0  0  0  0  0
  -28.2567  -38.0116   24.7538 H   0  0  0  0  0  0
  -28.1107  -36.2643   24.6266 H   0  0  0  0  0  0
  -27.2302  -37.1392   25.8872 H   0  0  0  0  0  0
  -20.9515  -29.8766   21.6662 H   0  0  0  0  0  0
  -26.0143  -38.2806   24.1386 H   0  0  0  0  0  0
  -27.4623  -18.8664   20.1574 H   0  0  0  0  0  0
  -27.9713  -19.0827   21.8094 H   0  0  0  0  0  0
  -27.4272  -21.3724   21.5413 H   0  0  0  0  0  0
  -27.2084  -21.1288   19.8390 H   0  0  0  0  0  0
  -30.1516  -19.2111   21.3558 H   0  0  0  0  0  0
  -29.7600  -21.7895   21.2870 H   0  0  0  0  0  0
  -28.4796  -24.2234   17.8220 H   0  0  0  0  0  0
  -27.4923  -22.8763   18.3131 H   0  0  0  0  0  0
  -29.0522  -22.5758   17.6477 H   0  0  0  0  0  0
  -31.0420  -23.6290   20.6690 H   0  0  0  0  0  0
  -30.3746  -25.1145   20.2125 H   0  0  0  0  0  0
  -30.9773  -24.1666   18.9559 H   0  0  0  0  0  0
  -32.6997  -21.7943   17.7971 H   0  0  0  0  0  0
  -32.2421  -22.5565   19.2290 H   0  0  0  0  0  0
  -31.0652  -22.3192   17.8874 H   0  0  0  0  0  0
  -33.4580  -20.2544   19.8732 H   0  0  0  0  0  0
  -32.2990  -19.2414   20.6886 H   0  0  0  0  0  0
  -32.3455  -20.9574   21.0286 H   0  0  0  0  0  0
  -32.6219  -19.6929   17.4347 H   0  0  0  0  0  0
  -30.9226  -19.8487   17.0572 H   0  0  0  0  0  0
  -31.5423  -18.5323   18.0187 H   0  0  0  0  0  0
  -31.1552  -17.5794   19.7831 H   0  0  0  0  0  0
  -29.6980  -17.4865   18.8409 H   0  0  0  0  0  0
  -28.2043  -24.5100   21.4925 H   0  0  0  0  0  0
  -27.0468  -24.3329   20.2527 H   0  0  0  0  0  0
  -28.8917  -16.0227   20.8821 H   0  0  0  0  0  0
  -29.4415  -20.3713   18.7743 H   0  0  0  0  0  0
  1 25  1  0  0  0
  1 30  2  0  0  0
  1 84  1  0  0  0
  2  3  1  0  0  0
  2 25  1  0  0  0
  2 86  1  0  0  0
  2 87  1  0  0  0
  3  4  1  0  0  0
  3 88  1  0  0  0
  3 89  1  0  0  0
  4  5  1  0  0  0
  4 90  1  0  0  0
  4 91  1  0  0  0
  5  6  1  0  0  0
  5 26  1  0  0  0
  5 92  1  0  0  0
  6 25  1  0  0  0
  6 93  1  0  0  0
  6 94  1  0  0  0
  7  8  2  0  0  0
  7 26  1  0  0  0
  7 29  1  0  0  0
  8  9  1  0  0  0
  8 22  1  0  0  0
  9 10  1  0  0  0
  9 27  2  0  0  0
 10 11  2  0  0  0
 10 15  1  0  0  0
 11 12  1  0  0  0
 11 95  1  0  0  0
 12 13  2  0  0  0
 12 96  1  0  0  0
 13 14  1  0  0  0
 13 31  1  0  0  0
 14 15  2  0  0  0
 14 97  1  0  0  0
 15 98  1  0  0  0
 16 17  2  0  0  0
 16 21  1  0  0  0
 16 31  1  0  0  0
 17 18  1  0  0  0
 17 99  1  0  0  0
 18 19  2  0  0  0
 18100  1  0  0  0
 19 20  1  0  0  0
 19 24  1  0  0  0
 20 21  2  0  0  0
 20101  1  0  0  0
 21 23  1  0  0  0
 22 28  1  0  0  0
 22 32  2  0  0  0
 26 27  1  0  0  0
 28102  1  0  0  0
 28103  1  0  0  0
 29104  1  0  0  0
 29105  1  0  0  0
 33 34  1  0  0  0
 33 66  1  0  0  0
 33 70  2  0  0  0
 34 36  1  0  0  0
 34 59  1  0  0  0
 34106  1  0  0  0
 35 44  2  0  0  0
 35 45  1  0  0  0
 35 68  1  0  0  0
 36 56  1  0  0  0
 36107  1  0  0  0
 37 39  1  0  0  0
 37 47  1  0  0  0
 37 66  1  0  0  0
 37108  1  0  0  0
 38 43  2  0  0  0
 38 46  1  0  0  0
 38 47  1  0  0  0
 39 64  1  0  0  0
 39 67  2  0  0  0
 40 52  1  0  0  0
 40 53  2  0  0  0
 40 58  1  0  0  0
 41109  1  0  0  0
 41110  1  0  0  0
 41111  1  0  0  0
 41 48  1  0  0  0
 42 43  1  0  0  0
 42 66  1  0  0  0
 42112  1  0  0  0
 42113  1  0  0  0
 43 44  1  0  0  0
 44114  1  0  0  0
 45 46  2  0  0  0
 45115  1  0  0  0
 46116  1  0  0  0
 47117  1  0  0  0
 47118  1  0  0  0
 48 56  1  0  0  0
 48 65  1  0  0  0
 48119  1  0  0  0
 49 50  1  0  0  0
 49 53  1  0  0  0
 49 64  1  0  0  0
 49120  1  0  0  0
 50 51  1  0  0  0
 50121  1  0  0  0
 50122  1  0  0  0
 51 52  1  0  0  0
 51123  1  0  0  0
 51124  1  0  0  0
 52125  1  0  0  0
 52126  1  0  0  0
 53 54  1  0  0  0
 54 55  2  0  0  0
 54127  1  0  0  0
 55 57  1  0  0  0
 55128  1  0  0  0
 56 69  2  0  0  0
 57 58  2  0  0  0
 57129  1  0  0  0
 58130  1  0  0  0
 59 60  1  0  0  0
 59 61  1  0  0  0
 59 62  1  0  0  0
 60131  1  0  0  0
 60132  1  0  0  0
 60133  1  0  0  0
 61134  1  0  0  0
 61135  1  0  0  0
 61136  1  0  0  0
 62137  1  0  0  0
 62138  1  0  0  0
 62139  1  0  0  0
 63 65  1  0  0  0
 63140  1  0  0  0
 63141  1  0  0  0
 63142  1  0  0  0
 64143  1  0  0  0
 65144  1  0  0  0
 68 81  1  0  0  0
 71 72  1  0  0  0
 71 73  1  0  0  0
 71145  1  0  0  0
 71146  1  0  0  0
 72147  1  0  0  0
 72148  1  0  0  0
 72 74  1  0  0  0
 73 80  1  0  0  0
 73 85  1  0  0  0
 73149  1  0  0  0
 74 82  1  0  0  0
 74 85  1  0  0  0
 74150  1  0  0  0
 75151  1  0  0  0
 75152  1  0  0  0
 75153  1  0  0  0
 75 82  1  0  0  0
 76 82  1  0  0  0
 76154  1  0  0  0
 76155  1  0  0  0
 76156  1  0  0  0
 77157  1  0  0  0
 77158  1  0  0  0
 77159  1  0  0  0
 77 83  1  0  0  0
 78 83  1  0  0  0
 78160  1  0  0  0
 78161  1  0  0  0
 78162  1  0  0  0
 79 83  1  0  0  0
 79163  1  0  0  0
 79164  1  0  0  0
 79165  1  0  0  0
 80 84  1  0  0  0
 80166  1  0  0  0
 80167  1  0  0  0
 81 82  1  0  0  0
 81168  1  0  0  0
 81169  1  0  0  0
 83 85  1  0  0  0
 84170  1  0  0  0
 85171  1  0  0  0
M  CHG  1  85   1
M  ISO  4   1 100  68 101  81 101  84 100
M  END
> <chiral flag>
0

> <version>
0

> <s_m_source_file>
/data/baiqing/PycharmProjects/Reinvent-master-3.2/result/LINK_invent/BTK/process_docking_weight1_custom_sum_contain_oxygen_bond_distance_aromatic_linkinvent_7_9_3/rearranged_h_0026.sdf

> <i_m_source_file_index>
25

> <r_mmod_Potential_Energy-OPLS-2005>
730.27197265625

> <r_mmod_Stretch_Energy-OPLS-2005>
328.401580810547

> <r_mmod_Bend_Energy-OPLS-2005>
398.856658935547

> <r_mmod_Torsional_Energy-OPLS-2005>
344.911499023438

> <r_mmod_Improper_Torsional_Energy-OPLS-2005>
5.84176206588745

> <r_mmod_Van_der_Waal_Energy-OPLS-2005>
145.842163085938

> <r_mmod_Electrostatic_Energy-OPLS-2005>
-264.485504150391

> <r_mmod_Solvation_Energy-OPLS-2005>
-425.930480957031

> <b_mmod_Minimization_Converged-OPLS-2005>
0

> <r_mmod_RMS_Derivative-OPLS-2005>
6.95982503890991

$$$$
25
                    3D
 Structure written by MMmdl.
154163  0  0  1  0            999 V2000
  -30.3010  -15.6037   20.3303 C   0  0  0  0  0  0
  -30.4354  -13.0567   19.5277 C   0  0  0  0  0  0
  -29.5499  -12.6438   18.3156 C   0  0  0  0  0  0
  -28.1153  -12.3053   18.7504 C   0  0  0  0  0  0
  -27.6034  -13.3007   19.8154 C   0  0  2  0  0  0
  -28.6285  -13.6007   20.9340 C   0  0  0  0  0  0
  -25.2389  -13.8292   20.5768 C   0  0  0  0  0  0
  -24.1758  -13.0458   20.9261 C   0  0  0  0  0  0
  -24.6439  -11.6959   20.8798 C   0  0  0  0  0  0
  -23.9128  -10.4315   21.0430 C   0  0  0  0  0  0
  -24.3669   -9.4230   21.9203 C   0  0  0  0  0  0
  -23.6329   -8.2283   22.0772 C   0  0  0  0  0  0
  -22.4312   -8.0334   21.3554 C   0  0  0  0  0  0
  -21.9968   -9.0304   20.4642 C   0  0  0  0  0  0
  -22.7312  -10.2174   20.3060 C   0  0  0  0  0  0
  -21.6853   -6.0777   22.5280 C   0  0  0  0  0  0
  -21.4022   -6.5672   23.8211 C   0  0  0  0  0  0
  -21.3652   -5.6815   24.9171 C   0  0  0  0  0  0
  -21.6051   -4.3084   24.7215 C   0  0  0  0  0  0
  -21.8816   -3.8169   23.4325 C   0  0  0  0  0  0
  -21.9188   -4.6996   22.3389 C   0  0  0  0  0  0
  -22.7763  -13.5223   21.1864 C   0  0  0  0  0  0
  -22.1668   -4.2184   21.0965 F   0  0  0  0  0  0
  -21.5599   -3.4544   25.7709 F   0  0  0  0  0  0
  -29.8036  -14.2290   20.2825 N   0  0  0  0  0  0
  -26.2822  -12.9590   20.3257 N   0  0  0  0  0  0
  -25.9378  -11.6680   20.5753 N   0  0  0  0  0  0
  -22.0393  -12.8224   22.0401 N   0  0  0  0  0  0
  -25.4036  -15.2032   20.4159 N   0  0  0  0  0  0
  -31.5369  -15.5745   20.1571 O   0  0  0  0  0  0
  -21.6674   -6.8937   21.4250 O   0  0  0  0  0  0
  -22.3463  -14.5527   20.6695 O   0  0  0  0  0  0
  -24.6833  -31.8019   23.1529 C   0  0  0  0  0  0
  -25.9397  -32.4504   23.8082 C   0  0  1  0  0  0
  -27.2298  -26.7015   20.2322 C   0  0  0  0  0  0
  -25.5989  -33.8336   24.1990 N   0  0  0  0  0  0
  -23.5108  -30.3975   21.5117 C   0  0  2  0  0  0
  -24.9682  -28.7360   20.1307 C   0  0  0  0  0  0
  -22.7754  -29.4311   22.4792 C   0  0  0  0  0  0
  -18.0337  -28.1436   22.8455 C   0  0  0  0  0  0
  -24.1481  -36.7173   23.2644 C   0  0  0  0  0  0
  -26.0898  -30.5379   21.4106 C   0  0  0  0  0  0
  -26.1590  -29.0977   20.7716 C   0  0  0  0  0  0
  -27.2782  -28.1112   20.7854 C   0  0  0  0  0  0
  -26.0020  -26.5505   19.5391 C   0  0  0  0  0  0
  -24.9265  -27.4883   19.4913 C   0  0  0  0  0  0
  -23.7619  -29.6899   20.1512 C   0  0  0  0  0  0
  -25.4134  -36.2942   24.0291 C   0  0  1  0  0  0
  -20.5949  -28.3795   23.1169 C   0  0  2  0  0  0
  -20.6786  -26.9449   22.5416 C   0  0  0  0  0  0
  -19.5762  -26.6381   21.5213 C   0  0  0  0  0  0
  -18.1956  -26.7958   22.1628 C   0  0  0  0  0  0
  -19.1590  -28.8943   23.2791 C   0  0  0  0  0  0
  -18.9496  -30.1531   23.8825 C   0  0  0  0  0  0
  -17.6493  -30.6631   24.0543 C   0  0  0  0  0  0
  -25.9131  -34.9325   23.4988 C   0  0  0  0  0  0
  -16.5386  -29.9110   23.6352 C   0  0  0  0  0  0
  -16.7310  -28.6523   23.0367 C   0  0  0  0  0  0
  -26.4563  -31.6518   25.0692 C   0  0  0  0  0  0
  -25.3648  -31.3837   26.1332 C   0  0  0  0  0  0
  -27.0446  -30.2861   24.6499 C   0  0  0  0  0  0
  -27.6090  -32.4286   25.7500 C   0  0  0  0  0  0
  -27.5573  -37.1737   24.8454 C   0  0  0  0  0  0
  -21.4412  -29.3027   22.3510 N   0  0  0  0  0  0
  -26.4268  -37.3697   23.9421 N   0  0  0  0  0  0
  -24.7864  -30.9425   22.0808 N   0  0  0  0  0  0
  -23.4189  -28.7931   23.3150 O   0  0  0  0  0  0
  -28.1948  -25.4826   20.2468 O   0  0  0  0  0  0
  -26.5757  -34.8889   22.4602 O   0  0  0  0  0  0
  -23.5854  -32.1133   23.6456 O   0  0  0  0  0  0
  -28.4664  -21.0237   19.2700 C   0  0  0  0  0  0
  -29.5719  -19.7021   21.3476 C   0  0  0  0  0  0
  -28.6501  -22.0754   20.3085 C   0  0  0  0  0  0
  -29.2283  -21.2020   21.3681 C   0  0  0  0  0  0
  -28.7748  -19.5189   19.2622 C   0  0  0  0  0  0
  -29.3950  -18.6438   20.3054 C   0  0  0  0  0  0
  -29.3888  -21.8850   22.7286 C   0  0  0  0  0  0
  -28.9756  -23.3835   22.8085 C   0  0  0  0  0  0
  -27.6891  -23.7720   22.0344 C   0  0  0  0  0  0
  -27.9068  -23.7710   20.5071 C   0  0  1  0  0  0
  -28.3144  -18.8095   17.9955 C   0  0  0  0  0  0
  -29.4751  -16.9200   20.3846 N   0  0  0  0  0  0
  -31.4214  -13.3338   19.1530 H   0  0  0  0  0  0
  -30.6143  -12.2069   20.1915 H   0  0  0  0  0  0
  -29.9886  -11.7940   17.7920 H   0  0  0  0  0  0
  -29.5214  -13.4672   17.5993 H   0  0  0  0  0  0
  -28.1162  -11.2923   19.1569 H   0  0  0  0  0  0
  -27.4515  -12.2910   17.8851 H   0  0  0  0  0  0
  -27.4740  -14.2315   19.2604 H   0  0  0  0  0  0
  -28.8890  -12.6996   21.4929 H   0  0  0  0  0  0
  -28.2126  -14.3002   21.6595 H   0  0  0  0  0  0
  -25.2791   -9.5700   22.4803 H   0  0  0  0  0  0
  -23.9987   -7.4691   22.7532 H   0  0  0  0  0  0
  -21.0869   -8.8872   19.8954 H   0  0  0  0  0  0
  -22.3785  -10.9746   19.6189 H   0  0  0  0  0  0
  -21.2049   -7.6184   23.9739 H   0  0  0  0  0  0
  -21.1457   -6.0533   25.9076 H   0  0  0  0  0  0
  -22.0591   -2.7618   23.2817 H   0  0  0  0  0  0
  -22.3973  -11.9894   22.4832 H   0  0  0  0  0  0
  -21.0997  -13.1290   22.2565 H   0  0  0  0  0  0
  -24.6367  -15.8607   20.5212 H   0  0  0  0  0  0
  -26.2365  -15.6297   20.0349 H   0  0  0  0  0  0
  -26.7456  -32.4971   23.0783 H   0  0  0  0  0  0
  -25.0032  -33.9381   25.0056 H   0  0  0  0  0  0
  -22.8339  -31.2324   21.3185 H   0  0  0  0  0  0
  -23.3819  -35.9427   23.3242 H   0  0  0  0  0  0
  -24.3556  -36.8881   22.2069 H   0  0  0  0  0  0
  -23.7138  -37.6304   23.6738 H   0  0  0  0  0  0
  -26.2610  -31.2561   20.6083 H   0  0  0  0  0  0
  -26.9530  -30.6298   22.0580 H   0  0  0  0  0  0
  -28.1814  -28.3999   21.3033 H   0  0  0  0  0  0
  -25.8391  -25.6053   19.0451 H   0  0  0  0  0  0
  -24.0260  -27.1980   18.9682 H   0  0  0  0  0  0
  -23.9347  -30.4485   19.3874 H   0  0  0  0  0  0
  -22.8650  -29.1541   19.8356 H   0  0  0  0  0  0
  -25.1304  -36.1763   25.0773 H   0  0  0  0  0  0
  -21.0003  -28.3429   24.1310 H   0  0  0  0  0  0
  -20.5645  -26.2418   23.3696 H   0  0  0  0  0  0
  -21.6650  -26.7396   22.1220 H   0  0  0  0  0  0
  -19.6945  -25.6279   21.1280 H   0  0  0  0  0  0
  -19.6701  -27.3164   20.6718 H   0  0  0  0  0  0
  -17.4205  -26.6708   21.4066 H   0  0  0  0  0  0
  -18.0355  -26.0134   22.9045 H   0  0  0  0  0  0
  -19.7967  -30.7358   24.2182 H   0  0  0  0  0  0
  -17.5033  -31.6293   24.5170 H   0  0  0  0  0  0
  -15.5375  -30.2979   23.7714 H   0  0  0  0  0  0
  -15.8716  -28.0818   22.7123 H   0  0  0  0  0  0
  -24.5840  -30.7167   25.7642 H   0  0  0  0  0  0
  -24.8838  -32.3061   26.4594 H   0  0  0  0  0  0
  -25.7836  -30.9114   27.0225 H   0  0  0  0  0  0
  -26.3145  -29.6555   24.1410 H   0  0  0  0  0  0
  -27.3830  -29.7208   25.5195 H   0  0  0  0  0  0
  -27.9124  -30.4026   24.0010 H   0  0  0  0  0  0
  -27.2734  -33.3683   26.1886 H   0  0  0  0  0  0
  -28.4016  -32.6639   25.0385 H   0  0  0  0  0  0
  -28.0601  -31.8503   26.5574 H   0  0  0  0  0  0
  -28.2514  -38.0105   24.7569 H   0  0  0  0  0  0
  -28.1128  -36.2639   24.6170 H   0  0  0  0  0  0
  -27.2300  -37.1210   25.8849 H   0  0  0  0  0  0
  -20.9790  -29.8685   21.6539 H   0  0  0  0  0  0
  -26.0140  -38.2745   24.1499 H   0  0  0  0  0  0
  -27.9559  -21.3895   18.3907 H   0  0  0  0  0  0
  -29.9501  -19.3233   22.2887 H   0  0  0  0  0  0
  -30.4210  -21.7748   23.0662 H   0  0  0  0  0  0
  -28.7837  -21.3244   23.4441 H   0  0  0  0  0  0
  -29.7939  -23.9986   22.4331 H   0  0  0  0  0  0
  -28.8728  -23.6562   23.8616 H   0  0  0  0  0  0
  -27.3149  -24.7373   22.3772 H   0  0  0  0  0  0
  -26.9125  -23.0497   22.2906 H   0  0  0  0  0  0
  -26.9352  -23.6373   20.0280 H   0  0  0  0  0  0
  -28.9280  -19.1142   17.1446 H   0  0  0  0  0  0
  -27.2761  -19.0616   17.7688 H   0  0  0  0  0  0
  -28.3720  -17.7236   18.0826 H   0  0  0  0  0  0
  -28.5277  -16.5860   20.4690 H   0  0  0  0  0  0
  1 25  1  0  0  0
  1 30  2  0  0  0
  1 82  1  0  0  0
  2  3  1  0  0  0
  2 25  1  0  0  0
  2 83  1  0  0  0
  2 84  1  0  0  0
  3  4  1  0  0  0
  3 85  1  0  0  0
  3 86  1  0  0  0
  4  5  1  0  0  0
  4 87  1  0  0  0
  4 88  1  0  0  0
  5  6  1  0  0  0
  5 26  1  0  0  0
  5 89  1  0  0  0
  6 25  1  0  0  0
  6 90  1  0  0  0
  6 91  1  0  0  0
  7  8  2  0  0  0
  7 26  1  0  0  0
  7 29  1  0  0  0
  8  9  1  0  0  0
  8 22  1  0  0  0
  9 10  1  0  0  0
  9 27  2  0  0  0
 10 11  2  0  0  0
 10 15  1  0  0  0
 11 12  1  0  0  0
 11 92  1  0  0  0
 12 13  2  0  0  0
 12 93  1  0  0  0
 13 14  1  0  0  0
 13 31  1  0  0  0
 14 15  2  0  0  0
 14 94  1  0  0  0
 15 95  1  0  0  0
 16 17  2  0  0  0
 16 21  1  0  0  0
 16 31  1  0  0  0
 17 18  1  0  0  0
 17 96  1  0  0  0
 18 19  2  0  0  0
 18 97  1  0  0  0
 19 20  1  0  0  0
 19 24  1  0  0  0
 20 21  2  0  0  0
 20 98  1  0  0  0
 21 23  1  0  0  0
 22 28  1  0  0  0
 22 32  2  0  0  0
 26 27  1  0  0  0
 28 99  1  0  0  0
 28100  1  0  0  0
 29101  1  0  0  0
 29102  1  0  0  0
 33 34  1  0  0  0
 33 66  1  0  0  0
 33 70  2  0  0  0
 34 36  1  0  0  0
 34 59  1  0  0  0
 34103  1  0  0  0
 35 44  2  0  0  0
 35 45  1  0  0  0
 35 68  1  0  0  0
 36 56  1  0  0  0
 36104  1  0  0  0
 37 39  1  0  0  0
 37 47  1  0  0  0
 37 66  1  0  0  0
 37105  1  0  0  0
 38 43  2  0  0  0
 38 46  1  0  0  0
 38 47  1  0  0  0
 39 64  1  0  0  0
 39 67  2  0  0  0
 40 52  1  0  0  0
 40 53  2  0  0  0
 40 58  1  0  0  0
 41106  1  0  0  0
 41107  1  0  0  0
 41108  1  0  0  0
 41 48  1  0  0  0
 42 43  1  0  0  0
 42 66  1  0  0  0
 42109  1  0  0  0
 42110  1  0  0  0
 43 44  1  0  0  0
 44111  1  0  0  0
 45 46  2  0  0  0
 45112  1  0  0  0
 46113  1  0  0  0
 47114  1  0  0  0
 47115  1  0  0  0
 48 56  1  0  0  0
 48 65  1  0  0  0
 48116  1  0  0  0
 49 50  1  0  0  0
 49 53  1  0  0  0
 49 64  1  0  0  0
 49117  1  0  0  0
 50 51  1  0  0  0
 50118  1  0  0  0
 50119  1  0  0  0
 51 52  1  0  0  0
 51120  1  0  0  0
 51121  1  0  0  0
 52122  1  0  0  0
 52123  1  0  0  0
 53 54  1  0  0  0
 54 55  2  0  0  0
 54124  1  0  0  0
 55 57  1  0  0  0
 55125  1  0  0  0
 56 69  2  0  0  0
 57 58  2  0  0  0
 57126  1  0  0  0
 58127  1  0  0  0
 59 60  1  0  0  0
 59 61  1  0  0  0
 59 62  1  0  0  0
 60128  1  0  0  0
 60129  1  0  0  0
 60130  1  0  0  0
 61131  1  0  0  0
 61132  1  0  0  0
 61133  1  0  0  0
 62134  1  0  0  0
 62135  1  0  0  0
 62136  1  0  0  0
 63 65  1  0  0  0
 63137  1  0  0  0
 63138  1  0  0  0
 63139  1  0  0  0
 64140  1  0  0  0
 65141  1  0  0  0
 68 80  1  0  0  0
 71 73  2  0  0  0
 71 75  1  0  0  0
 71142  1  0  0  0
 72 74  2  0  0  0
 72 76  1  0  0  0
 72143  1  0  0  0
 73 74  1  0  0  0
 73 80  1  0  0  0
 74 77  1  0  0  0
 75 76  2  0  0  0
 75 81  1  0  0  0
 76 82  1  0  0  0
 77 78  1  0  0  0
 77144  1  0  0  0
 77145  1  0  0  0
 78 79  1  0  0  0
 78146  1  0  0  0
 78147  1  0  0  0
 79 80  1  0  0  0
 79148  1  0  0  0
 79149  1  0  0  0
 80150  1  0  0  0
 81151  1  0  0  0
 81152  1  0  0  0
 81153  1  0  0  0
 82154  1  0  0  0
M  ISO  4   1 100  68 101  80 101  82 100
M  END
> <chiral flag>
0

> <version>
0

> <s_m_source_file>
/data/baiqing/PycharmProjects/Reinvent-master-3.2/result/LINK_invent/BTK/process_docking_weight1_custom_sum_contain_oxygen_bond_distance_aromatic_linkinvent_7_9_3/rearranged_h_0026.sdf

> <i_m_source_file_index>
26

> <r_mmod_Potential_Energy-OPLS-2005>
2309.2392578125

> <r_mmod_Stretch_Energy-OPLS-2005>
925.623840332031

> <r_mmod_Bend_Energy-OPLS-2005>
658.510131835938

> <r_mmod_Torsional_Energy-OPLS-2005>
284.329284667969

> <r_mmod_Improper_Torsional_Energy-OPLS-2005>
12.8286752700806

> <r_mmod_Van_der_Waal_Energy-OPLS-2005>
132.554473876953

> <r_mmod_Electrostatic_Energy-OPLS-2005>
-366.351470947266

> <r_mmod_Solvation_Energy-OPLS-2005>
-209.450759887695

> <b_mmod_Minimization_Converged-OPLS-2005>
0

> <r_mmod_RMS_Derivative-OPLS-2005>
4.89136648178101

$$$$
26
                    3D
 Structure written by MMmdl.
156164  0  0  1  0            999 V2000
  -30.7071  -14.5214   20.4660 C   0  0  0  0  0  0
  -30.4101  -12.3049   19.4505 C   0  0  0  0  0  0
  -29.4991  -12.4964   18.2197 C   0  0  0  0  0  0
  -28.0162  -12.3737   18.6256 C   0  0  0  0  0  0
  -27.6559  -13.2247   19.8749 C   0  0  2  0  0  0
  -28.7041  -13.0620   21.0020 C   0  0  0  0  0  0
  -25.2576  -13.8208   20.5786 C   0  0  0  0  0  0
  -24.1815  -13.0440   20.9254 C   0  0  0  0  0  0
  -24.6386  -11.6928   20.8760 C   0  0  0  0  0  0
  -23.9064  -10.4306   21.0409 C   0  0  0  0  0  0
  -24.3615   -9.4217   21.9169 C   0  0  0  0  0  0
  -23.6302   -8.2245   22.0734 C   0  0  0  0  0  0
  -22.4284   -8.0281   21.3537 C   0  0  0  0  0  0
  -21.9922   -9.0259   20.4649 C   0  0  0  0  0  0
  -22.7246  -10.2145   20.3058 C   0  0  0  0  0  0
  -21.6851   -6.0756   22.5275 C   0  0  0  0  0  0
  -21.4016   -6.5652   23.8210 C   0  0  0  0  0  0
  -21.3675   -5.6797   24.9169 C   0  0  0  0  0  0
  -21.6050   -4.3056   24.7204 C   0  0  0  0  0  0
  -21.8815   -3.8154   23.4325 C   0  0  0  0  0  0
  -21.9201   -4.6986   22.3397 C   0  0  0  0  0  0
  -22.7846  -13.5250   21.1892 C   0  0  0  0  0  0
  -22.1659   -4.2174   21.0971 F   0  0  0  0  0  0
  -21.5636   -3.4531   25.7720 F   0  0  0  0  0  0
  -30.0322  -13.3367   20.4351 N   0  0  0  0  0  0
  -26.3013  -12.9393   20.3439 N   0  0  0  0  0  0
  -25.9322  -11.6541   20.5804 N   0  0  0  0  0  0
  -22.0482  -12.8230   22.0461 N   0  0  0  0  0  0
  -25.4275  -15.1932   20.4216 N   0  0  0  0  0  0
  -31.8609  -14.6069   20.0560 O   0  0  0  0  0  0
  -21.6640   -6.8884   21.4238 O   0  0  0  0  0  0
  -22.3537  -14.5549   20.6750 O   0  0  0  0  0  0
  -24.6212  -31.8645   23.2086 C   0  0  0  0  0  0
  -25.9095  -32.4800   23.8393 C   0  0  1  0  0  0
  -27.2227  -27.3769   20.0680 C   0  0  0  0  0  0
  -25.5941  -33.8593   24.2342 N   0  0  0  0  0  0
  -23.4060  -30.4941   21.5503 C   0  0  2  0  0  0
  -24.8425  -28.9512   20.1130 C   0  0  0  0  0  0
  -22.7418  -29.4667   22.4955 C   0  0  0  0  0  0
  -18.0267  -28.1359   22.8478 C   0  0  0  0  0  0
  -24.1480  -36.7294   23.2637 C   0  0  0  0  0  0
  -25.9424  -30.8043   21.3714 C   0  0  0  0  0  0
  -26.0094  -29.4356   20.7160 C   0  0  0  0  0  0
  -27.1922  -28.6536   20.6936 C   0  0  0  0  0  0
  -26.0272  -26.9222   19.4565 C   0  0  0  0  0  0
  -24.8499  -27.6956   19.4853 C   0  0  0  0  0  0
  -23.6143  -29.8350   20.1629 C   0  0  0  0  0  0
  -25.4097  -36.3110   24.0350 C   0  0  1  0  0  0
  -20.5856  -28.3661   23.1293 C   0  0  2  0  0  0
  -20.6754  -26.9401   22.5369 C   0  0  0  0  0  0
  -19.5763  -26.6393   21.5154 C   0  0  0  0  0  0
  -18.1935  -26.7907   22.1575 C   0  0  0  0  0  0
  -19.1515  -28.8828   23.2890 C   0  0  0  0  0  0
  -18.9461  -30.1417   23.8936 C   0  0  0  0  0  0
  -17.6481  -30.6583   24.0553 C   0  0  0  0  0  0
  -25.9046  -34.9469   23.5141 C   0  0  0  0  0  0
  -16.5363  -29.9088   23.6324 C   0  0  0  0  0  0
  -16.7258  -28.6472   23.0390 C   0  0  0  0  0  0
  -26.4514  -31.6582   25.0733 C   0  0  0  0  0  0
  -25.3795  -31.3652   26.1498 C   0  0  0  0  0  0
  -27.0328  -30.3029   24.6074 C   0  0  0  0  0  0
  -27.6115  -32.4273   25.7486 C   0  0  0  0  0  0
  -27.5574  -37.1800   24.8485 C   0  0  0  0  0  0
  -21.4141  -29.3059   22.3710 N   0  0  0  0  0  0
  -26.4288  -37.3793   23.9436 N   0  0  0  0  0  0
  -24.6753  -31.0705   22.1010 N   0  0  0  0  0  0
  -23.4173  -28.8200   23.3002 O   0  0  0  0  0  0
  -28.4177  -26.6580   20.0736 O   0  0  0  0  0  0
  -26.5599  -34.8928   22.4700 O   0  0  0  0  0  0
  -23.5398  -32.1417   23.7472 O   0  0  0  0  0  0
  -31.6172  -20.7572   21.3691 C   0  0  0  0  0  0
  -30.2378  -20.6284   21.0981 C   0  0  0  0  0  0
  -30.6222  -18.2314   20.4693 C   0  0  0  0  0  0
  -32.4950  -19.6806   21.1626 C   0  0  0  0  0  0
  -29.7448  -19.3513   20.6734 C   0  0  0  0  0  0
  -32.0144  -18.4389   20.6887 C   0  0  0  0  0  0
  -30.1182  -16.8879   19.8531 C   0  0  0  0  0  0
  -29.3336  -21.8643   21.3541 C   0  0  0  0  0  0
  -28.9057  -24.2918   20.7588 C   0  0  0  0  0  0
  -28.5457  -25.2827   19.5989 C   0  0  0  0  0  0
  -29.9718  -15.6414   20.6685 N   0  0  0  0  0  0
  -29.3507  -22.9285   20.3032 N   0  3  0  0  0  0
  -34.1817  -19.9187   21.4741 Cl  0  0  0  0  0  0
  -28.0474  -19.1818   20.3753 Cl  0  0  0  0  0  0
  -33.1827  -17.2194   20.3176 Cl  0  0  0  0  0  0
  -31.4641  -12.3504   19.1618 H   0  0  0  0  0  0
  -30.2612  -11.3101   19.8727 H   0  0  0  0  0  0
  -29.7316  -11.7549   17.4541 H   0  0  0  0  0  0
  -29.6858  -13.4723   17.7666 H   0  0  0  0  0  0
  -27.8072  -11.3219   18.8179 H   0  0  0  0  0  0
  -27.3767  -12.6627   17.7911 H   0  0  0  0  0  0
  -27.6780  -14.2650   19.5509 H   0  0  0  0  0  0
  -28.6720  -12.0435   21.3922 H   0  0  0  0  0  0
  -28.4901  -13.7188   21.8462 H   0  0  0  0  0  0
  -25.2753   -9.5707   22.4744 H   0  0  0  0  0  0
  -24.0041   -7.4625   22.7414 H   0  0  0  0  0  0
  -21.0866   -8.8766   19.8937 H   0  0  0  0  0  0
  -22.3680  -10.9682   19.6181 H   0  0  0  0  0  0
  -21.1980   -7.6139   23.9740 H   0  0  0  0  0  0
  -21.1517   -6.0507   25.9095 H   0  0  0  0  0  0
  -22.0581   -2.7624   23.2816 H   0  0  0  0  0  0
  -22.4088  -11.9904   22.4848 H   0  0  0  0  0  0
  -21.1085  -13.1245   22.2595 H   0  0  0  0  0  0
  -24.6656  -15.8514   20.5415 H   0  0  0  0  0  0
  -26.2784  -15.6388   20.1005 H   0  0  0  0  0  0
  -26.7134  -32.5455   23.1111 H   0  0  0  0  0  0
  -25.0175  -33.9750   25.0542 H   0  0  0  0  0  0
  -22.6982  -31.3151   21.4161 H   0  0  0  0  0  0
  -23.3756  -35.9614   23.3327 H   0  0  0  0  0  0
  -24.3589  -36.8869   22.2053 H   0  0  0  0  0  0
  -23.7205  -37.6498   23.6618 H   0  0  0  0  0  0
  -26.0693  -31.5698   20.6054 H   0  0  0  0  0  0
  -26.8274  -30.8549   21.9929 H   0  0  0  0  0  0
  -28.0930  -29.0211   21.1635 H   0  0  0  0  0  0
  -25.9580  -25.9851   18.9279 H   0  0  0  0  0  0
  -23.9514  -27.3271   19.0057 H   0  0  0  0  0  0
  -23.7344  -30.6194   19.4130 H   0  0  0  0  0  0
  -22.7273  -29.2754   19.8613 H   0  0  0  0  0  0
  -25.1248  -36.1979   25.0836 H   0  0  0  0  0  0
  -20.9933  -28.3202   24.1427 H   0  0  0  0  0  0
  -20.5616  -26.2271   23.3529 H   0  0  0  0  0  0
  -21.6629  -26.7437   22.1202 H   0  0  0  0  0  0
  -19.6947  -25.6313   21.1186 H   0  0  0  0  0  0
  -19.6724  -27.3193   20.6680 H   0  0  0  0  0  0
  -17.4186  -26.6646   21.3988 H   0  0  0  0  0  0
  -18.0387  -26.0018   22.8957 H   0  0  0  0  0  0
  -19.7954  -30.7177   24.2347 H   0  0  0  0  0  0
  -17.5063  -31.6277   24.5131 H   0  0  0  0  0  0
  -15.5375  -30.3035   23.7626 H   0  0  0  0  0  0
  -15.8634  -28.0785   22.7185 H   0  0  0  0  0  0
  -24.6019  -30.6913   25.7875 H   0  0  0  0  0  0
  -24.8917  -32.2775   26.4951 H   0  0  0  0  0  0
  -25.8199  -30.8869   27.0255 H   0  0  0  0  0  0
  -26.2831  -29.6798   24.1177 H   0  0  0  0  0  0
  -27.4197  -29.7252   25.4479 H   0  0  0  0  0  0
  -27.8633  -30.4381   23.9137 H   0  0  0  0  0  0
  -27.2789  -33.3595   26.2053 H   0  0  0  0  0  0
  -28.3940  -32.6785   25.0313 H   0  0  0  0  0  0
  -28.0759  -31.8382   26.5407 H   0  0  0  0  0  0
  -28.2616  -38.0084   24.7540 H   0  0  0  0  0  0
  -28.1054  -36.2623   24.6294 H   0  0  0  0  0  0
  -27.2308  -37.1423   25.8896 H   0  0  0  0  0  0
  -20.9260  -29.8818   21.6981 H   0  0  0  0  0  0
  -26.0190  -38.2868   24.1452 H   0  0  0  0  0  0
  -32.0231  -21.6916   21.7350 H   0  0  0  0  0  0
  -30.7540  -16.6796   18.9903 H   0  0  0  0  0  0
  -29.1522  -17.0453   19.3782 H   0  0  0  0  0  0
  -29.6648  -22.3096   22.2929 H   0  0  0  0  0  0
  -28.3013  -21.5693   21.5414 H   0  0  0  0  0  0
  -28.0396  -24.1968   21.4169 H   0  0  0  0  0  0
  -29.7040  -24.7214   21.3693 H   0  0  0  0  0  0
  -29.3665  -25.2867   18.8749 H   0  0  0  0  0  0
  -27.6968  -24.8970   19.0315 H   0  0  0  0  0  0
  -29.0491  -15.4781   21.0430 H   0  0  0  0  0  0
  -28.7564  -22.6207   19.5496 H   0  0  0  0  0  0
  -30.2880  -23.0006   19.9349 H   0  0  0  0  0  0
  1 25  1  0  0  0
  1 30  2  0  0  0
  1 81  1  0  0  0
  2  3  1  0  0  0
  2 25  1  0  0  0
  2 86  1  0  0  0
  2 87  1  0  0  0
  3  4  1  0  0  0
  3 88  1  0  0  0
  3 89  1  0  0  0
  4  5  1  0  0  0
  4 90  1  0  0  0
  4 91  1  0  0  0
  5  6  1  0  0  0
  5 26  1  0  0  0
  5 92  1  0  0  0
  6 25  1  0  0  0
  6 93  1  0  0  0
  6 94  1  0  0  0
  7  8  2  0  0  0
  7 26  1  0  0  0
  7 29  1  0  0  0
  8  9  1  0  0  0
  8 22  1  0  0  0
  9 10  1  0  0  0
  9 27  2  0  0  0
 10 11  2  0  0  0
 10 15  1  0  0  0
 11 12  1  0  0  0
 11 95  1  0  0  0
 12 13  2  0  0  0
 12 96  1  0  0  0
 13 14  1  0  0  0
 13 31  1  0  0  0
 14 15  2  0  0  0
 14 97  1  0  0  0
 15 98  1  0  0  0
 16 17  2  0  0  0
 16 21  1  0  0  0
 16 31  1  0  0  0
 17 18  1  0  0  0
 17 99  1  0  0  0
 18 19  2  0  0  0
 18100  1  0  0  0
 19 20  1  0  0  0
 19 24  1  0  0  0
 20 21  2  0  0  0
 20101  1  0  0  0
 21 23  1  0  0  0
 22 28  1  0  0  0
 22 32  2  0  0  0
 26 27  1  0  0  0
 28102  1  0  0  0
 28103  1  0  0  0
 29104  1  0  0  0
 29105  1  0  0  0
 33 34  1  0  0  0
 33 66  1  0  0  0
 33 70  2  0  0  0
 34 36  1  0  0  0
 34 59  1  0  0  0
 34106  1  0  0  0
 35 44  2  0  0  0
 35 45  1  0  0  0
 35 68  1  0  0  0
 36 56  1  0  0  0
 36107  1  0  0  0
 37 39  1  0  0  0
 37 47  1  0  0  0
 37 66  1  0  0  0
 37108  1  0  0  0
 38 43  2  0  0  0
 38 46  1  0  0  0
 38 47  1  0  0  0
 39 64  1  0  0  0
 39 67  2  0  0  0
 40 52  1  0  0  0
 40 53  2  0  0  0
 40 58  1  0  0  0
 41109  1  0  0  0
 41110  1  0  0  0
 41111  1  0  0  0
 41 48  1  0  0  0
 42 43  1  0  0  0
 42 66  1  0  0  0
 42112  1  0  0  0
 42113  1  0  0  0
 43 44  1  0  0  0
 44114  1  0  0  0
 45 46  2  0  0  0
 45115  1  0  0  0
 46116  1  0  0  0
 47117  1  0  0  0
 47118  1  0  0  0
 48 56  1  0  0  0
 48 65  1  0  0  0
 48119  1  0  0  0
 49 50  1  0  0  0
 49 53  1  0  0  0
 49 64  1  0  0  0
 49120  1  0  0  0
 50 51  1  0  0  0
 50121  1  0  0  0
 50122  1  0  0  0
 51 52  1  0  0  0
 51123  1  0  0  0
 51124  1  0  0  0
 52125  1  0  0  0
 52126  1  0  0  0
 53 54  1  0  0  0
 54 55  2  0  0  0
 54127  1  0  0  0
 55 57  1  0  0  0
 55128  1  0  0  0
 56 69  2  0  0  0
 57 58  2  0  0  0
 57129  1  0  0  0
 58130  1  0  0  0
 59 60  1  0  0  0
 59 61  1  0  0  0
 59 62  1  0  0  0
 60131  1  0  0  0
 60132  1  0  0  0
 60133  1  0  0  0
 61134  1  0  0  0
 61135  1  0  0  0
 61136  1  0  0  0
 62137  1  0  0  0
 62138  1  0  0  0
 62139  1  0  0  0
 63 65  1  0  0  0
 63140  1  0  0  0
 63141  1  0  0  0
 63142  1  0  0  0
 64143  1  0  0  0
 65144  1  0  0  0
 68 80  1  0  0  0
 71 72  2  0  0  0
 71 74  1  0  0  0
 71145  1  0  0  0
 72 75  1  0  0  0
 72 78  1  0  0  0
 73 75  2  0  0  0
 73 76  1  0  0  0
 73 77  1  0  0  0
 74 76  2  0  0  0
 74 83  1  0  0  0
 75 84  1  0  0  0
 76 85  1  0  0  0
 77 81  1  0  0  0
 77146  1  0  0  0
 77147  1  0  0  0
 78 82  1  0  0  0
 78148  1  0  0  0
 78149  1  0  0  0
 79 80  1  0  0  0
 79 82  1  0  0  0
 79150  1  0  0  0
 79151  1  0  0  0
 80152  1  0  0  0
 80153  1  0  0  0
 81154  1  0  0  0
 82155  1  0  0  0
 82156  1  0  0  0
M  CHG  1  82   1
M  ISO  4   1 100  68 101  80 101  81 100
M  END
> <chiral flag>
0

> <version>
0

> <s_m_source_file>
/data/baiqing/PycharmProjects/Reinvent-master-3.2/result/LINK_invent/BTK/process_docking_weight1_custom_sum_contain_oxygen_bond_distance_aromatic_linkinvent_7_9_3/rearranged_h_0026.sdf

> <i_m_source_file_index>
27

> <r_mmod_Potential_Energy-OPLS-2005>
-183.774536132812

> <r_mmod_Stretch_Energy-OPLS-2005>
57.9387054443359

> <r_mmod_Bend_Energy-OPLS-2005>
128.983184814453

> <r_mmod_Torsional_Energy-OPLS-2005>
210.129821777344

> <r_mmod_Improper_Torsional_Energy-OPLS-2005>
10.6436777114868

> <r_mmod_Van_der_Waal_Energy-OPLS-2005>
150.722778320312

> <r_mmod_Electrostatic_Energy-OPLS-2005>
-270.407592773438

> <r_mmod_Solvation_Energy-OPLS-2005>
-496.182861328125

> <b_mmod_Minimization_Converged-OPLS-2005>
0

> <r_mmod_RMS_Derivative-OPLS-2005>
5.33609247207642

$$$$
27
                    3D
 Structure written by MMmdl.
171179  0  0  1  0            999 V2000
  -30.7401  -14.5013   20.5003 C   0  0  0  0  0  0
  -30.4227  -12.3179   19.4180 C   0  0  0  0  0  0
  -29.4968  -12.5011   18.1989 C   0  0  0  0  0  0
  -28.0169  -12.3751   18.6086 C   0  0  0  0  0  0
  -27.6636  -13.2217   19.8620 C   0  0  2  0  0  0
  -28.7196  -13.0643   20.9855 C   0  0  0  0  0  0
  -25.2627  -13.8196   20.5683 C   0  0  0  0  0  0
  -24.1872  -13.0438   20.9174 C   0  0  0  0  0  0
  -24.6469  -11.6923   20.8738 C   0  0  0  0  0  0
  -23.9145  -10.4296   21.0400 C   0  0  0  0  0  0
  -24.3668   -9.4223   21.9211 C   0  0  0  0  0  0
  -23.6334   -8.2258   22.0769 C   0  0  0  0  0  0
  -22.4302   -8.0329   21.3574 C   0  0  0  0  0  0
  -21.9977   -9.0286   20.4655 C   0  0  0  0  0  0
  -22.7316  -10.2170   20.3071 C   0  0  0  0  0  0
  -21.6867   -6.0778   22.5284 C   0  0  0  0  0  0
  -21.4036   -6.5671   23.8222 C   0  0  0  0  0  0
  -21.3644   -5.6816   24.9186 C   0  0  0  0  0  0
  -21.6041   -4.3067   24.7228 C   0  0  0  0  0  0
  -21.8809   -3.8184   23.4337 C   0  0  0  0  0  0
  -21.9201   -4.7015   22.3410 C   0  0  0  0  0  0
  -22.7915  -13.5261   21.1842 C   0  0  0  0  0  0
  -22.1660   -4.2211   21.0975 F   0  0  0  0  0  0
  -21.5618   -3.4538   25.7724 F   0  0  0  0  0  0
  -30.0479  -13.3371   20.4102 N   0  0  0  0  0  0
  -26.3077  -12.9398   20.3376 N   0  0  0  0  0  0
  -25.9405  -11.6530   20.5797 N   0  0  0  0  0  0
  -22.0506  -12.8225   22.0356 N   0  0  0  0  0  0
  -25.4203  -15.1921   20.4057 N   0  0  0  0  0  0
  -31.9006  -14.6278   20.1037 O   0  0  0  0  0  0
  -21.6662   -6.8933   21.4248 O   0  0  0  0  0  0
  -22.3601  -14.5543   20.6695 O   0  0  0  0  0  0
  -24.6142  -31.8734   23.2221 C   0  0  0  0  0  0
  -25.9050  -32.4883   23.8447 C   0  0  1  0  0  0
  -27.1269  -27.3942   20.0702 C   0  0  0  0  0  0
  -25.5915  -33.8654   24.2392 N   0  0  0  0  0  0
  -23.3925  -30.5193   21.5748 C   0  0  2  0  0  0
  -24.8101  -29.0140   20.1044 C   0  0  0  0  0  0
  -22.7411  -29.4718   22.5125 C   0  0  0  0  0  0
  -18.0218  -28.1466   22.8427 C   0  0  0  0  0  0
  -24.1483  -36.7269   23.2663 C   0  0  0  0  0  0
  -25.9306  -30.8386   21.3681 C   0  0  0  0  0  0
  -25.9890  -29.4784   20.6969 C   0  0  0  0  0  0
  -27.1620  -28.6742   20.6769 C   0  0  0  0  0  0
  -25.9205  -26.9741   19.4599 C   0  0  0  0  0  0
  -24.7709  -27.7641   19.4877 C   0  0  0  0  0  0
  -23.5803  -29.8883   20.1767 C   0  0  0  0  0  0
  -25.4135  -36.3091   24.0331 C   0  0  1  0  0  0
  -20.5816  -28.3723   23.1345 C   0  0  2  0  0  0
  -20.6772  -26.9500   22.5438 C   0  0  0  0  0  0
  -19.5754  -26.6451   21.5229 C   0  0  0  0  0  0
  -18.1897  -26.7989   22.1603 C   0  0  0  0  0  0
  -19.1474  -28.8924   23.2840 C   0  0  0  0  0  0
  -18.9432  -30.1525   23.8884 C   0  0  0  0  0  0
  -17.6453  -30.6676   24.0598 C   0  0  0  0  0  0
  -25.9063  -34.9479   23.5169 C   0  0  0  0  0  0
  -16.5333  -29.9205   23.6346 C   0  0  0  0  0  0
  -16.7207  -28.6630   23.0314 C   0  0  0  0  0  0
  -26.4451  -31.6510   25.0684 C   0  0  0  0  0  0
  -25.3648  -31.3548   26.1381 C   0  0  0  0  0  0
  -27.0272  -30.2963   24.5961 C   0  0  0  0  0  0
  -27.6113  -32.4144   25.7388 C   0  0  0  0  0  0
  -27.5558  -37.1812   24.8498 C   0  0  0  0  0  0
  -21.4145  -29.3060   22.3806 N   0  0  0  0  0  0
  -26.4303  -37.3779   23.9425 N   0  0  0  0  0  0
  -24.6696  -31.0812   22.1183 N   0  0  0  0  0  0
  -23.4224  -28.8205   23.3116 O   0  0  0  0  0  0
  -28.2319  -26.5596   20.0964 O   0  0  0  0  0  0
  -26.5583  -34.8862   22.4711 O   0  0  0  0  0  0
  -23.5338  -32.1577   23.7640 O   0  0  0  0  0  0
  -24.6932  -21.4907   18.4963 C   0  0  0  0  0  0
  -26.0474  -21.1839   18.7084 C   0  0  0  0  0  0
  -26.8014  -22.0413   19.5772 C   0  0  0  0  0  0
  -26.2319  -23.2590   20.0754 C   0  0  0  0  0  0
  -24.8148  -23.4589   19.9367 C   0  0  0  0  0  0
  -24.0705  -22.5716   19.1282 C   0  0  0  0  0  0
  -28.2044  -21.6590   20.0361 C   0  0  0  0  0  0
  -24.0190  -24.5732   20.6264 C   0  0  0  0  0  0
  -27.1529  -24.3321   20.7253 C   0  0  0  0  0  0
  -26.5470  -19.9269   17.9485 C   0  0  0  0  0  0
  -29.2920  -17.9902   20.6884 C   0  0  0  0  0  0
  -28.1975  -17.7511   19.6023 C   0  0  0  0  0  0
  -30.4723  -16.9905   20.7040 C   0  0  0  0  0  0
  -28.4531  -18.2781   18.1616 C   0  0  0  0  0  0
  -28.0249  -25.1686   19.7235 C   0  0  0  0  0  0
  -30.0267  -15.5941   20.8349 N   0  0  0  0  0  0
  -28.0098  -19.6767   17.8949 N   0  3  0  0  0  0
  -22.3754  -22.8009   18.8533 Cl  0  0  0  0  0  0
  -31.4651  -12.3977   19.1075 H   0  0  0  0  0  0
  -30.3155  -11.3200   19.8422 H   0  0  0  0  0  0
  -29.7369  -11.7596   17.4352 H   0  0  0  0  0  0
  -29.6698  -13.4772   17.7452 H   0  0  0  0  0  0
  -27.8021  -11.3202   18.7880 H   0  0  0  0  0  0
  -27.3843  -12.6765   17.7717 H   0  0  0  0  0  0
  -27.6862  -14.2629   19.5389 H   0  0  0  0  0  0
  -28.7023  -12.0603   21.4050 H   0  0  0  0  0  0
  -28.5046  -13.7391   21.8174 H   0  0  0  0  0  0
  -25.2822   -9.5697   22.4782 H   0  0  0  0  0  0
  -24.0047   -7.4665   22.7495 H   0  0  0  0  0  0
  -21.0915   -8.8829   19.8942 H   0  0  0  0  0  0
  -22.3807  -10.9715   19.6167 H   0  0  0  0  0  0
  -21.2017   -7.6177   23.9763 H   0  0  0  0  0  0
  -21.1473   -6.0533   25.9097 H   0  0  0  0  0  0
  -22.0591   -2.7653   23.2817 H   0  0  0  0  0  0
  -22.4129  -11.9903   22.4713 H   0  0  0  0  0  0
  -21.1129  -13.1263   22.2510 H   0  0  0  0  0  0
  -24.6334  -15.8230   20.5187 H   0  0  0  0  0  0
  -26.2638  -15.6544   20.0920 H   0  0  0  0  0  0
  -26.7117  -32.5586   23.1193 H   0  0  0  0  0  0
  -24.9901  -33.9880   25.0425 H   0  0  0  0  0  0
  -22.6845  -31.3441   21.4679 H   0  0  0  0  0  0
  -23.3728  -35.9611   23.3409 H   0  0  0  0  0  0
  -24.3560  -36.8823   22.2052 H   0  0  0  0  0  0
  -23.7234  -37.6503   23.6647 H   0  0  0  0  0  0
  -26.0263  -31.6267   20.6184 H   0  0  0  0  0  0
  -26.8305  -30.8914   21.9704 H   0  0  0  0  0  0
  -28.0767  -29.0057   21.1500 H   0  0  0  0  0  0
  -25.7811  -26.0156   18.9895 H   0  0  0  0  0  0
  -23.8478  -27.4122   19.0498 H   0  0  0  0  0  0
  -23.6832  -30.6905   19.4408 H   0  0  0  0  0  0
  -22.6857  -29.3315   19.8754 H   0  0  0  0  0  0
  -25.1302  -36.1988   25.0810 H   0  0  0  0  0  0
  -20.9742  -28.3293   24.1527 H   0  0  0  0  0  0
  -20.5749  -26.2349   23.3635 H   0  0  0  0  0  0
  -21.6646  -26.7701   22.1191 H   0  0  0  0  0  0
  -19.6996  -25.6339   21.1306 H   0  0  0  0  0  0
  -19.6705  -27.3217   20.6720 H   0  0  0  0  0  0
  -17.4185  -26.6660   21.3989 H   0  0  0  0  0  0
  -18.0324  -26.0230   22.9097 H   0  0  0  0  0  0
  -19.7928  -30.7315   24.2273 H   0  0  0  0  0  0
  -17.5036  -31.6324   24.5232 H   0  0  0  0  0  0
  -15.5315  -30.3125   23.7753 H   0  0  0  0  0  0
  -15.8583  -28.0994   22.7038 H   0  0  0  0  0  0
  -24.5950  -30.6806   25.7641 H   0  0  0  0  0  0
  -24.8641  -32.2612   26.4740 H   0  0  0  0  0  0
  -25.7864  -30.8758   27.0213 H   0  0  0  0  0  0
  -26.2779  -29.6709   24.1092 H   0  0  0  0  0  0
  -27.4193  -29.7200   25.4351 H   0  0  0  0  0  0
  -27.8527  -30.4360   23.8992 H   0  0  0  0  0  0
  -27.2930  -33.3580   26.1817 H   0  0  0  0  0  0
  -28.3881  -32.6426   25.0083 H   0  0  0  0  0  0
  -28.0731  -31.8267   26.5332 H   0  0  0  0  0  0
  -28.2628  -38.0056   24.7509 H   0  0  0  0  0  0
  -28.0960  -36.2578   24.6378 H   0  0  0  0  0  0
  -27.2242  -37.1535   25.8890 H   0  0  0  0  0  0
  -20.9436  -29.8755   21.6943 H   0  0  0  0  0  0
  -26.0157  -38.2854   24.1424 H   0  0  0  0  0  0
  -24.0996  -20.8562   17.8557 H   0  0  0  0  0  0
  -28.2877  -20.5809   20.1243 H   0  0  0  0  0  0
  -28.4195  -21.9649   21.0614 H   0  0  0  0  0  0
  -28.9715  -22.0776   19.3830 H   0  0  0  0  0  0
  -24.5949  -25.2510   21.2409 H   0  0  0  0  0  0
  -23.2599  -24.1510   21.2918 H   0  0  0  0  0  0
  -23.4902  -25.1820   19.8920 H   0  0  0  0  0  0
  -27.8107  -23.8909   21.4665 H   0  0  0  0  0  0
  -26.5784  -24.9992   21.3469 H   0  0  0  0  0  0
  -26.2253  -20.0265   16.9060 H   0  0  0  0  0  0
  -26.0058  -19.0483   18.3079 H   0  0  0  0  0  0
  -28.8140  -17.9279   21.6696 H   0  0  0  0  0  0
  -29.7006  -18.9985   20.6337 H   0  0  0  0  0  0
  -27.2243  -18.0992   19.9534 H   0  0  0  0  0  0
  -28.0605  -16.6778   19.5129 H   0  0  0  0  0  0
  -31.1369  -17.2431   21.5356 H   0  0  0  0  0  0
  -31.0755  -17.1318   19.8038 H   0  0  0  0  0  0
  -27.9380  -17.6255   17.4502 H   0  0  0  0  0  0
  -29.5134  -18.1865   17.9223 H   0  0  0  0  0  0
  -27.6148  -25.1159   18.7148 H   0  0  0  0  0  0
  -29.0022  -24.6992   19.6159 H   0  0  0  0  0  0
  -29.0638  -15.4411   21.0812 H   0  0  0  0  0  0
  -28.4622  -20.3070   18.5345 H   0  0  0  0  0  0
  -28.3238  -19.9252   16.9669 H   0  0  0  0  0  0
  1 25  1  0  0  0
  1 30  2  0  0  0
  1 86  1  0  0  0
  2  3  1  0  0  0
  2 25  1  0  0  0
  2 89  1  0  0  0
  2 90  1  0  0  0
  3  4  1  0  0  0
  3 91  1  0  0  0
  3 92  1  0  0  0
  4  5  1  0  0  0
  4 93  1  0  0  0
  4 94  1  0  0  0
  5  6  1  0  0  0
  5 26  1  0  0  0
  5 95  1  0  0  0
  6 25  1  0  0  0
  6 96  1  0  0  0
  6 97  1  0  0  0
  7  8  2  0  0  0
  7 26  1  0  0  0
  7 29  1  0  0  0
  8  9  1  0  0  0
  8 22  1  0  0  0
  9 10  1  0  0  0
  9 27  2  0  0  0
 10 11  2  0  0  0
 10 15  1  0  0  0
 11 12  1  0  0  0
 11 98  1  0  0  0
 12 13  2  0  0  0
 12 99  1  0  0  0
 13 14  1  0  0  0
 13 31  1  0  0  0
 14 15  2  0  0  0
 14100  1  0  0  0
 15101  1  0  0  0
 16 17  2  0  0  0
 16 21  1  0  0  0
 16 31  1  0  0  0
 17 18  1  0  0  0
 17102  1  0  0  0
 18 19  2  0  0  0
 18103  1  0  0  0
 19 20  1  0  0  0
 19 24  1  0  0  0
 20 21  2  0  0  0
 20104  1  0  0  0
 21 23  1  0  0  0
 22 28  1  0  0  0
 22 32  2  0  0  0
 26 27  1  0  0  0
 28105  1  0  0  0
 28106  1  0  0  0
 29107  1  0  0  0
 29108  1  0  0  0
 33 34  1  0  0  0
 33 66  1  0  0  0
 33 70  2  0  0  0
 34 36  1  0  0  0
 34 59  1  0  0  0
 34109  1  0  0  0
 35 44  2  0  0  0
 35 45  1  0  0  0
 35 68  1  0  0  0
 36 56  1  0  0  0
 36110  1  0  0  0
 37 39  1  0  0  0
 37 47  1  0  0  0
 37 66  1  0  0  0
 37111  1  0  0  0
 38 43  2  0  0  0
 38 46  1  0  0  0
 38 47  1  0  0  0
 39 64  1  0  0  0
 39 67  2  0  0  0
 40 52  1  0  0  0
 40 53  2  0  0  0
 40 58  1  0  0  0
 41112  1  0  0  0
 41113  1  0  0  0
 41114  1  0  0  0
 41 48  1  0  0  0
 42 43  1  0  0  0
 42 66  1  0  0  0
 42115  1  0  0  0
 42116  1  0  0  0
 43 44  1  0  0  0
 44117  1  0  0  0
 45 46  2  0  0  0
 45118  1  0  0  0
 46119  1  0  0  0
 47120  1  0  0  0
 47121  1  0  0  0
 48 56  1  0  0  0
 48 65  1  0  0  0
 48122  1  0  0  0
 49 50  1  0  0  0
 49 53  1  0  0  0
 49 64  1  0  0  0
 49123  1  0  0  0
 50 51  1  0  0  0
 50124  1  0  0  0
 50125  1  0  0  0
 51 52  1  0  0  0
 51126  1  0  0  0
 51127  1  0  0  0
 52128  1  0  0  0
 52129  1  0  0  0
 53 54  1  0  0  0
 54 55  2  0  0  0
 54130  1  0  0  0
 55 57  1  0  0  0
 55131  1  0  0  0
 56 69  2  0  0  0
 57 58  2  0  0  0
 57132  1  0  0  0
 58133  1  0  0  0
 59 60  1  0  0  0
 59 61  1  0  0  0
 59 62  1  0  0  0
 60134  1  0  0  0
 60135  1  0  0  0
 60136  1  0  0  0
 61137  1  0  0  0
 61138  1  0  0  0
 61139  1  0  0  0
 62140  1  0  0  0
 62141  1  0  0  0
 62142  1  0  0  0
 63 65  1  0  0  0
 63143  1  0  0  0
 63144  1  0  0  0
 63145  1  0  0  0
 64146  1  0  0  0
 65147  1  0  0  0
 68 85  1  0  0  0
 71 72  2  0  0  0
 71 76  1  0  0  0
 71148  1  0  0  0
 72 73  1  0  0  0
 72 80  1  0  0  0
 73 74  2  0  0  0
 73 77  1  0  0  0
 74 75  1  0  0  0
 74 79  1  0  0  0
 75 76  2  0  0  0
 75 78  1  0  0  0
 76 88  1  0  0  0
 77149  1  0  0  0
 77150  1  0  0  0
 77151  1  0  0  0
 78152  1  0  0  0
 78153  1  0  0  0
 78154  1  0  0  0
 79 85  1  0  0  0
 79155  1  0  0  0
 79156  1  0  0  0
 80 87  1  0  0  0
 80157  1  0  0  0
 80158  1  0  0  0
 81 82  1  0  0  0
 81 83  1  0  0  0
 81159  1  0  0  0
 81160  1  0  0  0
 82 84  1  0  0  0
 82161  1  0  0  0
 82162  1  0  0  0
 83 86  1  0  0  0
 83163  1  0  0  0
 83164  1  0  0  0
 84 87  1  0  0  0
 84165  1  0  0  0
 84166  1  0  0  0
 85167  1  0  0  0
 85168  1  0  0  0
 86169  1  0  0  0
 87170  1  0  0  0
 87171  1  0  0  0
M  CHG  1  87   1
M  ISO  4   1 100  68 101  85 101  86 100
M  END
> <chiral flag>
0

> <version>
0

> <s_m_source_file>
/data/baiqing/PycharmProjects/Reinvent-master-3.2/result/LINK_invent/BTK/process_docking_weight1_custom_sum_contain_oxygen_bond_distance_aromatic_linkinvent_7_9_3/rearranged_h_0026.sdf

> <i_m_source_file_index>
28

> <r_mmod_Potential_Energy-OPLS-2005>
-147.225723266602

> <r_mmod_Stretch_Energy-OPLS-2005>
54.06298828125

> <r_mmod_Bend_Energy-OPLS-2005>
132.5439453125

> <r_mmod_Torsional_Energy-OPLS-2005>
249.971786499023

> <r_mmod_Improper_Torsional_Energy-OPLS-2005>
5.29789972305298

> <r_mmod_Van_der_Waal_Energy-OPLS-2005>
168.525970458984

> <r_mmod_Electrostatic_Energy-OPLS-2005>
-303.804626464844

> <r_mmod_Solvation_Energy-OPLS-2005>
-487.731597900391

> <b_mmod_Minimization_Converged-OPLS-2005>
0

> <r_mmod_RMS_Derivative-OPLS-2005>
9.77796936035156

$$$$
28
                    3D
 Structure written by MMmdl.
177185  0  0  1  0            999 V2000
  -30.7131  -14.5016   20.5864 C   0  0  0  0  0  0
  -30.4239  -12.3396   19.4169 C   0  0  0  0  0  0
  -29.4911  -12.5044   18.2005 C   0  0  0  0  0  0
  -28.0132  -12.3656   18.6166 C   0  0  0  0  0  0
  -27.6581  -13.2141   19.8670 C   0  0  2  0  0  0
  -28.7031  -13.0191   20.9870 C   0  0  0  0  0  0
  -25.2580  -13.8175   20.5679 C   0  0  0  0  0  0
  -24.1833  -13.0440   20.9182 C   0  0  0  0  0  0
  -24.6393  -11.6917   20.8728 C   0  0  0  0  0  0
  -23.9058  -10.4292   21.0395 C   0  0  0  0  0  0
  -24.3608   -9.4213   21.9181 C   0  0  0  0  0  0
  -23.6279   -8.2247   22.0753 C   0  0  0  0  0  0
  -22.4266   -8.0275   21.3543 C   0  0  0  0  0  0
  -21.9899   -9.0248   20.4646 C   0  0  0  0  0  0
  -22.7224  -10.2129   20.3051 C   0  0  0  0  0  0
  -21.6852   -6.0725   22.5276 C   0  0  0  0  0  0
  -21.4010   -6.5630   23.8209 C   0  0  0  0  0  0
  -21.3662   -5.6788   24.9173 C   0  0  0  0  0  0
  -21.6043   -4.3050   24.7232 C   0  0  0  0  0  0
  -21.8825   -3.8139   23.4352 C   0  0  0  0  0  0
  -21.9192   -4.6954   22.3402 C   0  0  0  0  0  0
  -22.7856  -13.5241   21.1831 C   0  0  0  0  0  0
  -22.1665   -4.2136   21.0985 F   0  0  0  0  0  0
  -21.5631   -3.4539   25.7746 F   0  0  0  0  0  0
  -30.0261  -13.3357   20.4267 N   0  0  0  0  0  0
  -26.3008  -12.9359   20.3339 N   0  0  0  0  0  0
  -25.9321  -11.6512   20.5755 N   0  0  0  0  0  0
  -22.0494  -12.8230   22.0389 N   0  0  0  0  0  0
  -25.4299  -15.1891   20.4103 N   0  0  0  0  0  0
  -31.8387  -14.6732   20.1123 O   0  0  0  0  0  0
  -21.6638   -6.8868   21.4238 O   0  0  0  0  0  0
  -22.3545  -14.5538   20.6670 O   0  0  0  0  0  0
  -24.6177  -31.8658   23.2093 C   0  0  0  0  0  0
  -25.9050  -32.4804   23.8381 C   0  0  1  0  0  0
  -27.2246  -27.3729   20.0963 C   0  0  0  0  0  0
  -25.5890  -33.8605   24.2333 N   0  0  0  0  0  0
  -23.4077  -30.4914   21.5515 C   0  0  2  0  0  0
  -24.8538  -28.9596   20.1101 C   0  0  0  0  0  0
  -22.7412  -29.4656   22.4974 C   0  0  0  0  0  0
  -18.0276  -28.1365   22.8484 C   0  0  0  0  0  0
  -24.1495  -36.7315   23.2637 C   0  0  0  0  0  0
  -25.9448  -30.8034   21.3836 C   0  0  0  0  0  0
  -26.0164  -29.4352   20.7286 C   0  0  0  0  0  0
  -27.1945  -28.6422   20.7368 C   0  0  0  0  0  0
  -26.0526  -26.9610   19.4191 C   0  0  0  0  0  0
  -24.8703  -27.7200   19.4557 C   0  0  0  0  0  0
  -23.6193  -29.8325   20.1648 C   0  0  0  0  0  0
  -25.4111  -36.3110   24.0348 C   0  0  1  0  0  0
  -20.5873  -28.3655   23.1311 C   0  0  2  0  0  0
  -20.6794  -26.9392   22.5414 C   0  0  0  0  0  0
  -19.5767  -26.6383   21.5209 C   0  0  0  0  0  0
  -18.1934  -26.7916   22.1606 C   0  0  0  0  0  0
  -19.1525  -28.8826   23.2890 C   0  0  0  0  0  0
  -18.9444  -30.1428   23.8900 C   0  0  0  0  0  0
  -17.6456  -30.6579   24.0541 C   0  0  0  0  0  0
  -25.9029  -34.9465   23.5142 C   0  0  0  0  0  0
  -16.5344  -29.9073   23.6326 C   0  0  0  0  0  0
  -16.7264  -28.6490   23.0348 C   0  0  0  0  0  0
  -26.4471  -31.6569   25.0705 C   0  0  0  0  0  0
  -25.3730  -31.3653   26.1445 C   0  0  0  0  0  0
  -27.0301  -30.2994   24.6108 C   0  0  0  0  0  0
  -27.6059  -32.4285   25.7443 C   0  0  0  0  0  0
  -27.5599  -37.1808   24.8457 C   0  0  0  0  0  0
  -21.4143  -29.3017   22.3690 N   0  0  0  0  0  0
  -26.4312  -37.3785   23.9398 N   0  0  0  0  0  0
  -24.6749  -31.0692   22.1047 N   0  0  0  0  0  0
  -23.4155  -28.8211   23.3051 O   0  0  0  0  0  0
  -28.3686  -26.5784   20.1779 O   0  0  0  0  0  0
  -26.5588  -34.8912   22.4701 O   0  0  0  0  0  0
  -23.5357  -32.1484   23.7428 O   0  0  0  0  0  0
  -26.2882  -22.3032   20.3029 C   0  0  0  0  0  0
  -26.7655  -23.7549   20.4128 C   0  0  0  0  0  0
  -27.2491  -21.3272   20.9871 C   0  0  0  0  0  0
  -28.1725  -23.9186   19.8039 C   0  0  2  0  0  0
  -29.1699  -22.9817   20.6125 C   0  0  1  0  0  0
  -28.7100  -21.4583   20.4900 C   0  0  1  0  0  0
  -31.6749  -24.0019   22.4524 C   0  0  0  0  0  0
  -32.6199  -24.8136   20.2578 C   0  0  0  0  0  0
  -28.4749  -18.6184   22.4685 C   0  0  0  0  0  0
  -30.6629  -23.1915   20.2313 C   0  0  0  0  0  0
  -28.5402  -25.3986   19.3416 C   0  0  0  0  0  0
  -30.5214  -18.0859   20.9727 C   0  0  0  0  0  0
  -30.7027  -16.7366   21.7600 C   0  0  0  0  0  0
  -31.3493  -24.3566   20.9890 C   0  0  0  0  0  0
  -29.2584  -19.0008   21.1913 C   0  0  2  0  0  0
  -30.0710  -15.5061   21.2270 N   0  0  0  0  0  0
  -29.6138  -20.4693   21.1852 N   0  3  0  0  0  0
  -31.4640  -12.4511   19.1047 H   0  0  0  0  0  0
  -30.3465  -11.3328   19.8307 H   0  0  0  0  0  0
  -29.7333  -11.7630   17.4377 H   0  0  0  0  0  0
  -29.6535  -13.4806   17.7401 H   0  0  0  0  0  0
  -27.8239  -11.3105   18.8183 H   0  0  0  0  0  0
  -27.3617  -12.6345   17.7840 H   0  0  0  0  0  0
  -27.6943  -14.2589   19.5575 H   0  0  0  0  0  0
  -28.6925  -11.9857   21.3398 H   0  0  0  0  0  0
  -28.4593  -13.6288   21.8577 H   0  0  0  0  0  0
  -25.2752   -9.5692   22.4757 H   0  0  0  0  0  0
  -23.9993   -7.4640   22.7481 H   0  0  0  0  0  0
  -21.0832   -8.8757   19.8953 H   0  0  0  0  0  0
  -22.3673  -10.9664   19.6156 H   0  0  0  0  0  0
  -21.1998   -7.6142   23.9705 H   0  0  0  0  0  0
  -21.1479   -6.0521   25.9073 H   0  0  0  0  0  0
  -22.0601   -2.7598   23.2860 H   0  0  0  0  0  0
  -22.4116  -11.9903   22.4790 H   0  0  0  0  0  0
  -21.1101  -13.1250   22.2562 H   0  0  0  0  0  0
  -24.6648  -15.8463   20.5149 H   0  0  0  0  0  0
  -26.2848  -15.6239   20.0858 H   0  0  0  0  0  0
  -26.7102  -32.5494   23.1119 H   0  0  0  0  0  0
  -24.9990  -33.9746   25.0449 H   0  0  0  0  0  0
  -22.6974  -31.3098   21.4159 H   0  0  0  0  0  0
  -23.3766  -35.9636   23.3288 H   0  0  0  0  0  0
  -24.3583  -36.8944   22.2049 H   0  0  0  0  0  0
  -23.7263  -37.6519   23.6665 H   0  0  0  0  0  0
  -26.0794  -31.5663   20.6157 H   0  0  0  0  0  0
  -26.8264  -30.8493   22.0108 H   0  0  0  0  0  0
  -28.0827  -28.9921   21.2451 H   0  0  0  0  0  0
  -26.0150  -26.0587   18.8357 H   0  0  0  0  0  0
  -23.9860  -27.3606   18.9485 H   0  0  0  0  0  0
  -23.7252  -30.6129   19.4105 H   0  0  0  0  0  0
  -22.7410  -29.2554   19.8679 H   0  0  0  0  0  0
  -25.1300  -36.1979   25.0854 H   0  0  0  0  0  0
  -20.9943  -28.3253   24.1440 H   0  0  0  0  0  0
  -20.5743  -26.2244   23.3592 H   0  0  0  0  0  0
  -21.6660  -26.7471   22.1180 H   0  0  0  0  0  0
  -19.6915  -25.6299   21.1227 H   0  0  0  0  0  0
  -19.6720  -27.3194   20.6741 H   0  0  0  0  0  0
  -17.4214  -26.6651   21.3997 H   0  0  0  0  0  0
  -18.0320  -26.0052   22.8992 H   0  0  0  0  0  0
  -19.7922  -30.7222   24.2302 H   0  0  0  0  0  0
  -17.5018  -31.6268   24.5113 H   0  0  0  0  0  0
  -15.5342  -30.2970   23.7675 H   0  0  0  0  0  0
  -15.8663  -28.0814   22.7070 H   0  0  0  0  0  0
  -24.5928  -30.6970   25.7787 H   0  0  0  0  0  0
  -24.8861  -32.2767   26.4903 H   0  0  0  0  0  0
  -25.8089  -30.8823   27.0198 H   0  0  0  0  0  0
  -26.2834  -29.6724   24.1213 H   0  0  0  0  0  0
  -27.4106  -29.7264   25.4577 H   0  0  0  0  0  0
  -27.8681  -30.4285   23.9259 H   0  0  0  0  0  0
  -27.2722  -33.3629   26.1965 H   0  0  0  0  0  0
  -28.3877  -32.6761   25.0252 H   0  0  0  0  0  0
  -28.0702  -31.8416   26.5371 H   0  0  0  0  0  0
  -28.2617  -38.0109   24.7533 H   0  0  0  0  0  0
  -28.1127  -36.2646   24.6298 H   0  0  0  0  0  0
  -27.2292  -37.1466   25.8852 H   0  0  0  0  0  0
  -20.9296  -29.8701   21.6886 H   0  0  0  0  0  0
  -26.0218  -38.2878   24.1365 H   0  0  0  0  0  0
  -26.1808  -22.0341   19.2505 H   0  0  0  0  0  0
  -25.2933  -22.2068   20.7385 H   0  0  0  0  0  0
  -26.7612  -24.0863   21.4521 H   0  0  0  0  0  0
  -26.0253  -24.3523   19.8988 H   0  0  0  0  0  0
  -26.8675  -20.3229   20.8023 H   0  0  0  0  0  0
  -27.2116  -21.4902   22.0634 H   0  0  0  0  0  0
  -28.1194  -23.4278   18.8320 H   0  0  0  0  0  0
  -29.0649  -23.2474   21.6647 H   0  0  0  0  0  0
  -28.7280  -21.1889   19.4317 H   0  0  0  0  0  0
  -32.0502  -24.8751   22.9887 H   0  0  0  0  0  0
  -32.4377  -23.2253   22.5210 H   0  0  0  0  0  0
  -30.7998  -23.6549   23.0008 H   0  0  0  0  0  0
  -33.0736  -25.6742   20.7502 H   0  0  0  0  0  0
  -32.3997  -25.1101   19.2318 H   0  0  0  0  0  0
  -33.3677  -24.0204   20.2237 H   0  0  0  0  0  0
  -28.1590  -17.5752   22.4305 H   0  0  0  0  0  0
  -27.5642  -19.1980   22.6026 H   0  0  0  0  0  0
  -29.0728  -18.7516   23.3704 H   0  0  0  0  0  0
  -30.7374  -23.3317   19.1521 H   0  0  0  0  0  0
  -31.2529  -22.2978   20.4269 H   0  0  0  0  0  0
  -28.0411  -25.5825   18.3910 H   0  0  0  0  0  0
  -29.5838  -25.4118   19.0335 H   0  0  0  0  0  0
  -30.6494  -17.8970   19.9063 H   0  0  0  0  0  0
  -31.3931  -18.6821   21.2471 H   0  0  0  0  0  0
  -30.4031  -16.8537   22.8013 H   0  0  0  0  0  0
  -31.7767  -16.5518   21.8306 H   0  0  0  0  0  0
  -30.6702  -25.2089   21.0168 H   0  0  0  0  0  0
  -28.6030  -18.8103   20.3407 H   0  0  0  0  0  0
  -29.1286  -15.3065   21.5279 H   0  0  0  0  0  0
  -29.7700  -20.7662   22.1357 H   0  0  0  0  0  0
  -30.5021  -20.5433   20.7145 H   0  0  0  0  0  0
  1 25  1  0  0  0
  1 30  2  0  0  0
  1 86  1  0  0  0
  2  3  1  0  0  0
  2 25  1  0  0  0
  2 88  1  0  0  0
  2 89  1  0  0  0
  3  4  1  0  0  0
  3 90  1  0  0  0
  3 91  1  0  0  0
  4  5  1  0  0  0
  4 92  1  0  0  0
  4 93  1  0  0  0
  5  6  1  0  0  0
  5 26  1  0  0  0
  5 94  1  0  0  0
  6 25  1  0  0  0
  6 95  1  0  0  0
  6 96  1  0  0  0
  7  8  2  0  0  0
  7 26  1  0  0  0
  7 29  1  0  0  0
  8  9  1  0  0  0
  8 22  1  0  0  0
  9 10  1  0  0  0
  9 27  2  0  0  0
 10 11  2  0  0  0
 10 15  1  0  0  0
 11 12  1  0  0  0
 11 97  1  0  0  0
 12 13  2  0  0  0
 12 98  1  0  0  0
 13 14  1  0  0  0
 13 31  1  0  0  0
 14 15  2  0  0  0
 14 99  1  0  0  0
 15100  1  0  0  0
 16 17  2  0  0  0
 16 21  1  0  0  0
 16 31  1  0  0  0
 17 18  1  0  0  0
 17101  1  0  0  0
 18 19  2  0  0  0
 18102  1  0  0  0
 19 20  1  0  0  0
 19 24  1  0  0  0
 20 21  2  0  0  0
 20103  1  0  0  0
 21 23  1  0  0  0
 22 28  1  0  0  0
 22 32  2  0  0  0
 26 27  1  0  0  0
 28104  1  0  0  0
 28105  1  0  0  0
 29106  1  0  0  0
 29107  1  0  0  0
 33 34  1  0  0  0
 33 66  1  0  0  0
 33 70  2  0  0  0
 34 36  1  0  0  0
 34 59  1  0  0  0
 34108  1  0  0  0
 35 44  2  0  0  0
 35 45  1  0  0  0
 35 68  1  0  0  0
 36 56  1  0  0  0
 36109  1  0  0  0
 37 39  1  0  0  0
 37 47  1  0  0  0
 37 66  1  0  0  0
 37110  1  0  0  0
 38 43  2  0  0  0
 38 46  1  0  0  0
 38 47  1  0  0  0
 39 64  1  0  0  0
 39 67  2  0  0  0
 40 52  1  0  0  0
 40 53  2  0  0  0
 40 58  1  0  0  0
 41111  1  0  0  0
 41112  1  0  0  0
 41113  1  0  0  0
 41 48  1  0  0  0
 42 43  1  0  0  0
 42 66  1  0  0  0
 42114  1  0  0  0
 42115  1  0  0  0
 43 44  1  0  0  0
 44116  1  0  0  0
 45 46  2  0  0  0
 45117  1  0  0  0
 46118  1  0  0  0
 47119  1  0  0  0
 47120  1  0  0  0
 48 56  1  0  0  0
 48 65  1  0  0  0
 48121  1  0  0  0
 49 50  1  0  0  0
 49 53  1  0  0  0
 49 64  1  0  0  0
 49122  1  0  0  0
 50 51  1  0  0  0
 50123  1  0  0  0
 50124  1  0  0  0
 51 52  1  0  0  0
 51125  1  0  0  0
 51126  1  0  0  0
 52127  1  0  0  0
 52128  1  0  0  0
 53 54  1  0  0  0
 54 55  2  0  0  0
 54129  1  0  0  0
 55 57  1  0  0  0
 55130  1  0  0  0
 56 69  2  0  0  0
 57 58  2  0  0  0
 57131  1  0  0  0
 58132  1  0  0  0
 59 60  1  0  0  0
 59 61  1  0  0  0
 59 62  1  0  0  0
 60133  1  0  0  0
 60134  1  0  0  0
 60135  1  0  0  0
 61136  1  0  0  0
 61137  1  0  0  0
 61138  1  0  0  0
 62139  1  0  0  0
 62140  1  0  0  0
 62141  1  0  0  0
 63 65  1  0  0  0
 63142  1  0  0  0
 63143  1  0  0  0
 63144  1  0  0  0
 64145  1  0  0  0
 65146  1  0  0  0
 68 81  1  0  0  0
 71 72  1  0  0  0
 71 73  1  0  0  0
 71147  1  0  0  0
 71148  1  0  0  0
 72 74  1  0  0  0
 72149  1  0  0  0
 72150  1  0  0  0
 73 76  1  0  0  0
 73151  1  0  0  0
 73152  1  0  0  0
 74 75  1  0  0  0
 74 81  1  0  0  0
 74153  1  0  0  0
 75 76  1  0  0  0
 75 80  1  0  0  0
 75154  1  0  0  0
 76 87  1  0  0  0
 76155  1  0  0  0
 77156  1  0  0  0
 77157  1  0  0  0
 77158  1  0  0  0
 77 84  1  0  0  0
 78 84  1  0  0  0
 78159  1  0  0  0
 78160  1  0  0  0
 78161  1  0  0  0
 79162  1  0  0  0
 79163  1  0  0  0
 79164  1  0  0  0
 79 85  1  0  0  0
 80 84  1  0  0  0
 80165  1  0  0  0
 80166  1  0  0  0
 81167  1  0  0  0
 81168  1  0  0  0
 82 83  1  0  0  0
 82 85  1  0  0  0
 82169  1  0  0  0
 82170  1  0  0  0
 83 86  1  0  0  0
 83171  1  0  0  0
 83172  1  0  0  0
 84173  1  0  0  0
 85 87  1  0  0  0
 85174  1  0  0  0
 86175  1  0  0  0
 87176  1  0  0  0
 87177  1  0  0  0
M  CHG  1  87   1
M  ISO  4   1 100  68 101  81 101  86 100
M  END
> <chiral flag>
0

> <version>
0

> <s_m_source_file>
/data/baiqing/PycharmProjects/Reinvent-master-3.2/result/LINK_invent/BTK/process_docking_weight1_custom_sum_contain_oxygen_bond_distance_aromatic_linkinvent_7_9_3/rearranged_h_0026.sdf

> <i_m_source_file_index>
29

> <r_mmod_Potential_Energy-OPLS-2005>
2.53344035148621

> <r_mmod_Stretch_Energy-OPLS-2005>
62.9938812255859

> <r_mmod_Bend_Energy-OPLS-2005>
168.661209106445

> <r_mmod_Torsional_Energy-OPLS-2005>
278.523651123047

> <r_mmod_Improper_Torsional_Energy-OPLS-2005>
2.51820302009583

> <r_mmod_Van_der_Waal_Energy-OPLS-2005>
142.655319213867

> <r_mmod_Electrostatic_Energy-OPLS-2005>
-231.263458251953

> <r_mmod_Solvation_Energy-OPLS-2005>
-445.591979980469

> <b_mmod_Minimization_Converged-OPLS-2005>
0

> <r_mmod_RMS_Derivative-OPLS-2005>
2.38801383972168

$$$$
29
                    3D
 Structure written by MMmdl.
169178  0  0  1  0            999 V2000
  -30.6389  -14.6562   20.3009 C   0  0  0  0  0  0
  -30.4510  -12.3284   19.4899 C   0  0  0  0  0  0
  -29.5232  -12.2113   18.2596 C   0  0  0  0  0  0
  -28.0177  -12.2661   18.6367 C   0  0  0  0  0  0
  -27.6374  -13.1884   19.8370 C   0  0  2  0  0  0
  -28.7000  -13.1650   20.9538 C   0  0  0  0  0  0
  -25.2582  -13.8091   20.5763 C   0  0  0  0  0  0
  -24.1811  -13.0405   20.9235 C   0  0  0  0  0  0
  -24.6338  -11.6869   20.8823 C   0  0  0  0  0  0
  -23.9005  -10.4278   21.0459 C   0  0  0  0  0  0
  -24.3582   -9.4194   21.9215 C   0  0  0  0  0  0
  -23.6277   -8.2218   22.0758 C   0  0  0  0  0  0
  -22.4264   -8.0260   21.3534 C   0  0  0  0  0  0
  -21.9891   -9.0238   20.4646 C   0  0  0  0  0  0
  -22.7202  -10.2128   20.3081 C   0  0  0  0  0  0
  -21.6846   -6.0732   22.5280 C   0  0  0  0  0  0
  -21.4010   -6.5641   23.8213 C   0  0  0  0  0  0
  -21.3649   -5.6791   24.9179 C   0  0  0  0  0  0
  -21.6040   -4.3053   24.7230 C   0  0  0  0  0  0
  -21.8818   -3.8148   23.4353 C   0  0  0  0  0  0
  -21.9199   -4.6964   22.3413 C   0  0  0  0  0  0
  -22.7845  -13.5236   21.1875 C   0  0  0  0  0  0
  -22.1666   -4.2147   21.0987 F   0  0  0  0  0  0
  -21.5629   -3.4539   25.7747 F   0  0  0  0  0  0
  -29.9951  -13.4492   20.3267 N   0  0  0  0  0  0
  -26.2946  -12.9190   20.3366 N   0  0  0  0  0  0
  -25.9260  -11.6393   20.5900 N   0  0  0  0  0  0
  -22.0458  -12.8236   22.0416 N   0  0  0  0  0  0
  -25.4326  -15.1815   20.4183 N   0  0  0  0  0  0
  -31.8696  -14.7150   20.2929 O   0  0  0  0  0  0
  -21.6617   -6.8870   21.4240 O   0  0  0  0  0  0
  -22.3564  -14.5562   20.6739 O   0  0  0  0  0  0
  -24.6152  -31.8672   23.2079 C   0  0  0  0  0  0
  -25.9051  -32.4817   23.8387 C   0  0  1  0  0  0
  -27.2364  -27.4220   20.1144 C   0  0  0  0  0  0
  -25.5912  -33.8611   24.2323 N   0  0  0  0  0  0
  -23.4044  -30.4882   21.5463 C   0  0  2  0  0  0
  -24.8560  -28.9488   20.1182 C   0  0  0  0  0  0
  -22.7424  -29.4637   22.4962 C   0  0  0  0  0  0
  -18.0282  -28.1371   22.8469 C   0  0  0  0  0  0
  -24.1497  -36.7316   23.2636 C   0  0  0  0  0  0
  -25.9328  -30.8307   21.3617 C   0  0  0  0  0  0
  -26.0146  -29.4622   20.7151 C   0  0  0  0  0  0
  -27.2108  -28.7054   20.7097 C   0  0  0  0  0  0
  -26.0659  -26.9242   19.5089 C   0  0  0  0  0  0
  -24.8755  -27.6784   19.5147 C   0  0  0  0  0  0
  -23.6180  -29.8182   20.1623 C   0  0  0  0  0  0
  -25.4119  -36.3094   24.0329 C   0  0  1  0  0  0
  -20.5870  -28.3662   23.1315 C   0  0  2  0  0  0
  -20.6773  -26.9395   22.5408 C   0  0  0  0  0  0
  -19.5750  -26.6374   21.5199 C   0  0  0  0  0  0
  -18.1928  -26.7924   22.1602 C   0  0  0  0  0  0
  -19.1530  -28.8829   23.2885 C   0  0  0  0  0  0
  -18.9458  -30.1441   23.8891 C   0  0  0  0  0  0
  -17.6461  -30.6573   24.0561 C   0  0  0  0  0  0
  -25.9048  -34.9465   23.5117 C   0  0  0  0  0  0
  -16.5346  -29.9077   23.6314 C   0  0  0  0  0  0
  -16.7273  -28.6502   23.0317 C   0  0  0  0  0  0
  -26.4478  -31.6601   25.0706 C   0  0  0  0  0  0
  -25.3729  -31.3715   26.1449 C   0  0  0  0  0  0
  -27.0317  -30.3049   24.6070 C   0  0  0  0  0  0
  -27.6056  -32.4322   25.7474 C   0  0  0  0  0  0
  -27.5584  -37.1799   24.8457 C   0  0  0  0  0  0
  -21.4143  -29.3026   22.3716 N   0  0  0  0  0  0
  -26.4303  -37.3775   23.9401 N   0  0  0  0  0  0
  -24.6694  -31.0762   22.0989 N   0  0  0  0  0  0
  -23.4193  -28.8164   23.2998 O   0  0  0  0  0  0
  -28.3854  -26.6604   20.1014 O   0  0  0  0  0  0
  -26.5594  -34.8917   22.4667 O   0  0  0  0  0  0
  -23.5339  -32.1431   23.7461 O   0  0  0  0  0  0
  -30.7171  -17.4996   18.5327 C   0  0  0  0  0  0
  -31.1050  -19.7833   19.2433 C   0  0  0  0  0  0
  -30.4764  -19.4813   20.4930 C   0  0  0  0  0  0
  -30.3693  -17.1033   19.8329 C   0  0  0  0  0  0
  -31.2005  -18.7882   18.2430 C   0  0  0  0  0  0
  -30.1997  -18.1079   20.8245 C   0  0  0  0  0  0
  -29.3809  -15.6296   18.4613 C   0  0  0  0  0  0
  -30.3129  -16.4366   17.5429 C   0  0  0  0  0  0
  -31.6080  -21.1881   18.9041 C   0  0  0  0  0  0
  -29.4862  -16.9471   16.3442 C   0  0  0  0  0  0
  -31.5225  -15.6200   17.0480 C   0  0  0  0  0  0
  -30.0616  -20.6540   21.4165 C   0  0  0  0  0  0
  -28.6995  -24.1755   20.3485 C   0  0  0  0  0  0
  -29.1209  -23.0343   21.3366 C   0  0  0  0  0  0
  -28.4059  -25.5484   21.0216 C   0  0  0  0  0  0
  -29.9093  -15.7335   19.8312 N   0  0  0  0  0  0
  -29.2623  -21.6940   20.6878 N   0  3  0  0  0  0
  -31.8285  -19.1734   16.6738 Cl  0  0  0  0  0  0
  -29.5332  -17.6632   22.3554 Cl  0  0  0  0  0  0
  -31.4872  -12.4478   19.1654 H   0  0  0  0  0  0
  -30.4248  -11.4074   20.0736 H   0  0  0  0  0  0
  -29.7109  -11.2422   17.7932 H   0  0  0  0  0  0
  -29.8059  -12.8928   17.4633 H   0  0  0  0  0  0
  -27.7441  -11.2407   18.8813 H   0  0  0  0  0  0
  -27.4163  -12.5221   17.7632 H   0  0  0  0  0  0
  -27.5813  -14.1965   19.4514 H   0  0  0  0  0  0
  -28.7210  -12.1985   21.4577 H   0  0  0  0  0  0
  -28.4721  -13.9145   21.7149 H   0  0  0  0  0  0
  -25.2727   -9.5679   22.4782 H   0  0  0  0  0  0
  -23.9995   -7.4607   22.7468 H   0  0  0  0  0  0
  -21.0821   -8.8757   19.8947 H   0  0  0  0  0  0
  -22.3662  -10.9676   19.6195 H   0  0  0  0  0  0
  -21.1988   -7.6143   23.9720 H   0  0  0  0  0  0
  -21.1469   -6.0518   25.9079 H   0  0  0  0  0  0
  -22.0608   -2.7607   23.2855 H   0  0  0  0  0  0
  -22.4048  -11.9885   22.4793 H   0  0  0  0  0  0
  -21.1080  -13.1282   22.2598 H   0  0  0  0  0  0
  -24.6766  -15.8446   20.5523 H   0  0  0  0  0  0
  -26.3020  -15.6228   20.1464 H   0  0  0  0  0  0
  -26.7114  -32.5525   23.1149 H   0  0  0  0  0  0
  -25.0048  -33.9783   25.0453 H   0  0  0  0  0  0
  -22.6918  -31.3028   21.4051 H   0  0  0  0  0  0
  -23.3747  -35.9664   23.3296 H   0  0  0  0  0  0
  -24.3590  -36.8921   22.2049 H   0  0  0  0  0  0
  -23.7277  -37.6522   23.6667 H   0  0  0  0  0  0
  -26.0374  -31.5938   20.5893 H   0  0  0  0  0  0
  -26.8225  -30.8910   21.9766 H   0  0  0  0  0  0
  -28.1064  -29.0927   21.1739 H   0  0  0  0  0  0
  -26.0771  -25.9504   19.0378 H   0  0  0  0  0  0
  -23.9834  -27.2772   19.0571 H   0  0  0  0  0  0
  -23.7306  -30.5948   19.4051 H   0  0  0  0  0  0
  -22.7429  -29.2391   19.8626 H   0  0  0  0  0  0
  -25.1283  -36.1943   25.0818 H   0  0  0  0  0  0
  -20.9959  -28.3234   24.1441 H   0  0  0  0  0  0
  -20.5689  -26.2250   23.3589 H   0  0  0  0  0  0
  -21.6642  -26.7435   22.1192 H   0  0  0  0  0  0
  -19.6923  -25.6287   21.1216 H   0  0  0  0  0  0
  -19.6728  -27.3194   20.6745 H   0  0  0  0  0  0
  -17.4199  -26.6667   21.4002 H   0  0  0  0  0  0
  -18.0338  -26.0070   22.9008 H   0  0  0  0  0  0
  -19.7934  -30.7250   24.2262 H   0  0  0  0  0  0
  -17.5012  -31.6256   24.5155 H   0  0  0  0  0  0
  -15.5342  -30.2963   23.7665 H   0  0  0  0  0  0
  -15.8671  -28.0838   22.7005 H   0  0  0  0  0  0
  -24.5926  -30.7037   25.7783 H   0  0  0  0  0  0
  -24.8896  -32.2872   26.4853 H   0  0  0  0  0  0
  -25.8067  -30.8919   27.0236 H   0  0  0  0  0  0
  -26.2855  -29.6797   24.1159 H   0  0  0  0  0  0
  -27.4116  -29.7291   25.4516 H   0  0  0  0  0  0
  -27.8678  -30.4358   23.9201 H   0  0  0  0  0  0
  -27.2694  -33.3633   26.2055 H   0  0  0  0  0  0
  -28.3891  -32.6854   25.0319 H   0  0  0  0  0  0
  -28.0715  -31.8447   26.5385 H   0  0  0  0  0  0
  -28.2568  -38.0119   24.7493 H   0  0  0  0  0  0
  -28.1103  -36.2639   24.6291 H   0  0  0  0  0  0
  -27.2297  -37.1434   25.8856 H   0  0  0  0  0  0
  -20.9302  -29.8758   21.6946 H   0  0  0  0  0  0
  -26.0176  -38.2843   24.1422 H   0  0  0  0  0  0
  -29.1734  -14.6634   18.0567 H   0  0  0  0  0  0
  -28.4026  -16.1158   18.4964 H   0  0  0  0  0  0
  -31.8511  -21.7855   19.7814 H   0  0  0  0  0  0
  -30.8685  -21.7225   18.3084 H   0  0  0  0  0  0
  -32.5287  -21.1482   18.3210 H   0  0  0  0  0  0
  -28.6793  -17.6086   16.6627 H   0  0  0  0  0  0
  -29.0333  -16.1123   15.8072 H   0  0  0  0  0  0
  -30.0871  -17.4884   15.6158 H   0  0  0  0  0  0
  -32.1498  -15.2601   17.8593 H   0  0  0  0  0  0
  -32.1652  -16.2180   16.4021 H   0  0  0  0  0  0
  -31.2010  -14.7493   16.4760 H   0  0  0  0  0  0
  -30.9677  -21.0973   21.8279 H   0  0  0  0  0  0
  -29.4861  -20.3076   22.2748 H   0  0  0  0  0  0
  -27.8209  -23.8744   19.7766 H   0  0  0  0  0  0
  -29.4996  -24.3158   19.6229 H   0  0  0  0  0  0
  -28.4057  -22.9521   22.1563 H   0  0  0  0  0  0
  -30.0737  -23.3137   21.7877 H   0  0  0  0  0  0
  -29.1879  -25.7655   21.7501 H   0  0  0  0  0  0
  -27.4782  -25.4828   21.5950 H   0  0  0  0  0  0
  -28.3457  -21.3229   20.4931 H   0  0  0  0  0  0
  -29.7270  -21.8252   19.8036 H   0  0  0  0  0  0
  1 25  1  0  0  0
  1 30  2  0  0  0
  1 86  1  0  0  0
  2  3  1  0  0  0
  2 25  1  0  0  0
  2 90  1  0  0  0
  2 91  1  0  0  0
  3  4  1  0  0  0
  3 92  1  0  0  0
  3 93  1  0  0  0
  4  5  1  0  0  0
  4 94  1  0  0  0
  4 95  1  0  0  0
  5  6  1  0  0  0
  5 26  1  0  0  0
  5 96  1  0  0  0
  6 25  1  0  0  0
  6 97  1  0  0  0
  6 98  1  0  0  0
  7  8  2  0  0  0
  7 26  1  0  0  0
  7 29  1  0  0  0
  8  9  1  0  0  0
  8 22  1  0  0  0
  9 10  1  0  0  0
  9 27  2  0  0  0
 10 11  2  0  0  0
 10 15  1  0  0  0
 11 12  1  0  0  0
 11 99  1  0  0  0
 12 13  2  0  0  0
 12100  1  0  0  0
 13 14  1  0  0  0
 13 31  1  0  0  0
 14 15  2  0  0  0
 14101  1  0  0  0
 15102  1  0  0  0
 16 17  2  0  0  0
 16 21  1  0  0  0
 16 31  1  0  0  0
 17 18  1  0  0  0
 17103  1  0  0  0
 18 19  2  0  0  0
 18104  1  0  0  0
 19 20  1  0  0  0
 19 24  1  0  0  0
 20 21  2  0  0  0
 20105  1  0  0  0
 21 23  1  0  0  0
 22 28  1  0  0  0
 22 32  2  0  0  0
 26 27  1  0  0  0
 28106  1  0  0  0
 28107  1  0  0  0
 29108  1  0  0  0
 29109  1  0  0  0
 33 34  1  0  0  0
 33 66  1  0  0  0
 33 70  2  0  0  0
 34 36  1  0  0  0
 34 59  1  0  0  0
 34110  1  0  0  0
 35 44  2  0  0  0
 35 45  1  0  0  0
 35 68  1  0  0  0
 36 56  1  0  0  0
 36111  1  0  0  0
 37 39  1  0  0  0
 37 47  1  0  0  0
 37 66  1  0  0  0
 37112  1  0  0  0
 38 43  2  0  0  0
 38 46  1  0  0  0
 38 47  1  0  0  0
 39 64  1  0  0  0
 39 67  2  0  0  0
 40 52  1  0  0  0
 40 53  2  0  0  0
 40 58  1  0  0  0
 41113  1  0  0  0
 41114  1  0  0  0
 41115  1  0  0  0
 41 48  1  0  0  0
 42 43  1  0  0  0
 42 66  1  0  0  0
 42116  1  0  0  0
 42117  1  0  0  0
 43 44  1  0  0  0
 44118  1  0  0  0
 45 46  2  0  0  0
 45119  1  0  0  0
 46120  1  0  0  0
 47121  1  0  0  0
 47122  1  0  0  0
 48 56  1  0  0  0
 48 65  1  0  0  0
 48123  1  0  0  0
 49 50  1  0  0  0
 49 53  1  0  0  0
 49 64  1  0  0  0
 49124  1  0  0  0
 50 51  1  0  0  0
 50125  1  0  0  0
 50126  1  0  0  0
 51 52  1  0  0  0
 51127  1  0  0  0
 51128  1  0  0  0
 52129  1  0  0  0
 52130  1  0  0  0
 53 54  1  0  0  0
 54 55  2  0  0  0
 54131  1  0  0  0
 55 57  1  0  0  0
 55132  1  0  0  0
 56 69  2  0  0  0
 57 58  2  0  0  0
 57133  1  0  0  0
 58134  1  0  0  0
 59 60  1  0  0  0
 59 61  1  0  0  0
 59 62  1  0  0  0
 60135  1  0  0  0
 60136  1  0  0  0
 60137  1  0  0  0
 61138  1  0  0  0
 61139  1  0  0  0
 61140  1  0  0  0
 62141  1  0  0  0
 62142  1  0  0  0
 62143  1  0  0  0
 63 65  1  0  0  0
 63144  1  0  0  0
 63145  1  0  0  0
 63146  1  0  0  0
 64147  1  0  0  0
 65148  1  0  0  0
 68 85  1  0  0  0
 71 74  1  0  0  0
 71 75  2  0  0  0
 71 78  1  0  0  0
 72 73  2  0  0  0
 72 75  1  0  0  0
 72 79  1  0  0  0
 73 76  1  0  0  0
 73 82  1  0  0  0
 74 76  2  0  0  0
 74 86  1  0  0  0
 75 88  1  0  0  0
 76 89  1  0  0  0
 77 78  1  0  0  0
 77 86  1  0  0  0
 77149  1  0  0  0
 77150  1  0  0  0
 78 80  1  0  0  0
 78 81  1  0  0  0
 79151  1  0  0  0
 79152  1  0  0  0
 79153  1  0  0  0
 80154  1  0  0  0
 80155  1  0  0  0
 80156  1  0  0  0
 81157  1  0  0  0
 81158  1  0  0  0
 81159  1  0  0  0
 82 87  1  0  0  0
 82160  1  0  0  0
 82161  1  0  0  0
 83 84  1  0  0  0
 83 85  1  0  0  0
 83162  1  0  0  0
 83163  1  0  0  0
 84 87  1  0  0  0
 84164  1  0  0  0
 84165  1  0  0  0
 85166  1  0  0  0
 85167  1  0  0  0
 87168  1  0  0  0
 87169  1  0  0  0
M  CHG  1  87   1
M  ISO  4   1 100  68 101  85 101  86 100
M  END
> <chiral flag>
0

> <version>
0

> <s_m_source_file>
/data/baiqing/PycharmProjects/Reinvent-master-3.2/result/LINK_invent/BTK/process_docking_weight1_custom_sum_contain_oxygen_bond_distance_aromatic_linkinvent_7_9_3/rearranged_h_0026.sdf

> <i_m_source_file_index>
30

> <r_mmod_Potential_Energy-OPLS-2005>
140.253295898438

> <r_mmod_Stretch_Energy-OPLS-2005>
55.8083801269531

> <r_mmod_Bend_Energy-OPLS-2005>
195.230941772461

> <r_mmod_Torsional_Energy-OPLS-2005>
384.9853515625

> <r_mmod_Improper_Torsional_Energy-OPLS-2005>
22.4246387481689

> <r_mmod_Van_der_Waal_Energy-OPLS-2005>
156.851516723633

> <r_mmod_Electrostatic_Energy-OPLS-2005>
-279.566650390625

> <r_mmod_Solvation_Energy-OPLS-2005>
-461.981842041016

> <b_mmod_Minimization_Converged-OPLS-2005>
0

> <r_mmod_RMS_Derivative-OPLS-2005>
2.59879064559937

$$$$
30
                    3D
 Structure written by MMmdl.
159167  0  0  1  0            999 V2000
  -30.6146  -14.6166   20.4662 C   0  0  0  0  0  0
  -30.4358  -12.3728   19.4324 C   0  0  0  0  0  0
  -29.4995  -12.4959   18.2120 C   0  0  0  0  0  0
  -28.0225  -12.3415   18.6280 C   0  0  0  0  0  0
  -27.6505  -13.2107   19.8572 C   0  0  2  0  0  0
  -28.6986  -13.0634   20.9823 C   0  0  0  0  0  0
  -25.2567  -13.8171   20.5676 C   0  0  0  0  0  0
  -24.1844  -13.0437   20.9191 C   0  0  0  0  0  0
  -24.6424  -11.6914   20.8783 C   0  0  0  0  0  0
  -23.9094  -10.4301   21.0429 C   0  0  0  0  0  0
  -24.3643   -9.4217   21.9206 C   0  0  0  0  0  0
  -23.6311   -8.2256   22.0770 C   0  0  0  0  0  0
  -22.4294   -8.0298   21.3548 C   0  0  0  0  0  0
  -21.9932   -9.0282   20.4656 C   0  0  0  0  0  0
  -22.7268  -10.2155   20.3071 C   0  0  0  0  0  0
  -21.6848   -6.0765   22.5295 C   0  0  0  0  0  0
  -21.4012   -6.5663   23.8234 C   0  0  0  0  0  0
  -21.3653   -5.6807   24.9188 C   0  0  0  0  0  0
  -21.6037   -4.3071   24.7234 C   0  0  0  0  0  0
  -21.8815   -3.8172   23.4352 C   0  0  0  0  0  0
  -21.9198   -4.6994   22.3411 C   0  0  0  0  0  0
  -22.7875  -13.5242   21.1858 C   0  0  0  0  0  0
  -22.1663   -4.2192   21.0986 F   0  0  0  0  0  0
  -21.5625   -3.4543   25.7738 F   0  0  0  0  0  0
  -30.0109  -13.3917   20.4066 N   0  0  0  0  0  0
  -26.2988  -12.9349   20.3293 N   0  0  0  0  0  0
  -25.9341  -11.6522   20.5775 N   0  0  0  0  0  0
  -22.0495  -12.8242   22.0396 N   0  0  0  0  0  0
  -25.4259  -15.1900   20.4096 N   0  0  0  0  0  0
  -31.7924  -14.7797   20.1369 O   0  0  0  0  0  0
  -21.6640   -6.8908   21.4256 O   0  0  0  0  0  0
  -22.3580  -14.5561   20.6702 O   0  0  0  0  0  0
  -24.6220  -31.8566   23.2018 C   0  0  0  0  0  0
  -25.9061  -32.4762   23.8329 C   0  0  1  0  0  0
  -27.2331  -27.3382   20.0784 C   0  0  0  0  0  0
  -25.5867  -33.8562   24.2246 N   0  0  0  0  0  0
  -23.4159  -30.4835   21.5445 C   0  0  2  0  0  0
  -24.8632  -28.9336   20.1144 C   0  0  0  0  0  0
  -22.7436  -29.4614   22.4926 C   0  0  0  0  0  0
  -18.0271  -28.1390   22.8487 C   0  0  0  0  0  0
  -24.1498  -36.7324   23.2643 C   0  0  0  0  0  0
  -25.9587  -30.7876   21.3762 C   0  0  0  0  0  0
  -26.0320  -29.4188   20.7128 C   0  0  0  0  0  0
  -27.2149  -28.6305   20.6855 C   0  0  0  0  0  0
  -26.0315  -26.8820   19.4903 C   0  0  0  0  0  0
  -24.8618  -27.6710   19.5021 C   0  0  0  0  0  0
  -23.6348  -29.8170   20.1614 C   0  0  0  0  0  0
  -25.4098  -36.3063   24.0333 C   0  0  1  0  0  0
  -20.5868  -28.3677   23.1321 C   0  0  2  0  0  0
  -20.6782  -26.9425   22.5407 C   0  0  0  0  0  0
  -19.5770  -26.6408   21.5199 C   0  0  0  0  0  0
  -18.1925  -26.7935   22.1600 C   0  0  0  0  0  0
  -19.1523  -28.8845   23.2904 C   0  0  0  0  0  0
  -18.9439  -30.1436   23.8947 C   0  0  0  0  0  0
  -17.6447  -30.6607   24.0549 C   0  0  0  0  0  0
  -25.9037  -34.9425   23.5100 C   0  0  0  0  0  0
  -16.5335  -29.9108   23.6326 C   0  0  0  0  0  0
  -16.7253  -28.6515   23.0360 C   0  0  0  0  0  0
  -26.4455  -31.6563   25.0681 C   0  0  0  0  0  0
  -25.3670  -31.3717   26.1395 C   0  0  0  0  0  0
  -27.0302  -30.2953   24.6150 C   0  0  0  0  0  0
  -27.6038  -32.4295   25.7417 C   0  0  0  0  0  0
  -27.5594  -37.1780   24.8457 C   0  0  0  0  0  0
  -21.4143  -29.3029   22.3682 N   0  0  0  0  0  0
  -26.4299  -37.3729   23.9409 N   0  0  0  0  0  0
  -24.6838  -31.0600   22.0977 N   0  0  0  0  0  0
  -23.4160  -28.8148   23.3006 O   0  0  0  0  0  0
  -28.4050  -26.5742   20.0812 O   0  0  0  0  0  0
  -26.5639  -34.8908   22.4693 O   0  0  0  0  0  0
  -23.5389  -32.1391   23.7359 O   0  0  0  0  0  0
  -29.6872  -21.8552   20.9046 C   0  0  0  0  0  0
  -28.6680  -22.5271   20.1814 C   0  0  0  0  0  0
  -27.9362  -21.7175   19.2657 C   0  0  0  0  0  0
  -29.2191  -19.6319   19.8818 C   0  0  0  0  0  0
  -29.9699  -20.4667   20.7629 C   0  0  0  0  0  0
  -28.2100  -20.3135   19.1243 C   0  0  0  0  0  0
  -26.8286  -22.3399   18.4211 C   0  0  0  0  0  0
  -30.2481  -17.8221   18.3690 C   0  0  0  0  0  0
  -28.3097  -24.0238   20.5425 C   0  0  0  0  0  0
  -30.0418  -17.1440   20.8136 C   0  0  0  0  0  0
  -28.4979  -25.2150   19.5168 C   0  0  0  0  0  0
  -29.4517  -18.0690   19.6651 C   0  0  1  0  0  0
  -29.7809  -15.6680   20.7138 N   0  0  0  0  0  0
  -31.2732  -19.8528   21.7151 Cl  0  0  0  0  0  0
  -27.2612  -19.4175   17.9769 Cl  0  0  0  0  0  0
  -31.4723  -12.5061   19.1199 H   0  0  0  0  0  0
  -30.3828  -11.3738   19.8681 H   0  0  0  0  0  0
  -29.7570  -11.7503   17.4586 H   0  0  0  0  0  0
  -29.6453  -13.4695   17.7433 H   0  0  0  0  0  0
  -27.8500  -11.2884   18.8530 H   0  0  0  0  0  0
  -27.3723  -12.5819   17.7873 H   0  0  0  0  0  0
  -27.6695  -14.2445   19.5146 H   0  0  0  0  0  0
  -28.7044  -12.0481   21.3819 H   0  0  0  0  0  0
  -28.4571  -13.7113   21.8261 H   0  0  0  0  0  0
  -25.2793   -9.5692   22.4779 H   0  0  0  0  0  0
  -24.0028   -7.4645   22.7483 H   0  0  0  0  0  0
  -21.0871   -8.8813   19.8951 H   0  0  0  0  0  0
  -22.3748  -10.9708   19.6186 H   0  0  0  0  0  0
  -21.1993   -7.6170   23.9751 H   0  0  0  0  0  0
  -21.1467   -6.0531   25.9094 H   0  0  0  0  0  0
  -22.0593   -2.7640   23.2838 H   0  0  0  0  0  0
  -22.4086  -11.9891   22.4788 H   0  0  0  0  0  0
  -21.1112  -13.1285   22.2589 H   0  0  0  0  0  0
  -24.6480  -15.8317   20.5149 H   0  0  0  0  0  0
  -26.2636  -15.6377   20.0634 H   0  0  0  0  0  0
  -26.7069  -32.5439   23.1035 H   0  0  0  0  0  0
  -24.9865  -33.9706   25.0281 H   0  0  0  0  0  0
  -22.7080  -31.2995   21.3966 H   0  0  0  0  0  0
  -23.3734  -35.9690   23.3279 H   0  0  0  0  0  0
  -24.3587  -36.8980   22.2069 H   0  0  0  0  0  0
  -23.7288  -37.6534   23.6680 H   0  0  0  0  0  0
  -26.0940  -31.5528   20.6126 H   0  0  0  0  0  0
  -26.8420  -30.8355   22.0025 H   0  0  0  0  0  0
  -28.1205  -29.0043   21.1428 H   0  0  0  0  0  0
  -25.9660  -25.9147   19.0170 H   0  0  0  0  0  0
  -23.9585  -27.2983   19.0379 H   0  0  0  0  0  0
  -23.7473  -30.5950   19.4039 H   0  0  0  0  0  0
  -22.7591  -29.2410   19.8606 H   0  0  0  0  0  0
  -25.1254  -36.1909   25.0823 H   0  0  0  0  0  0
  -20.9922  -28.3261   24.1464 H   0  0  0  0  0  0
  -20.5685  -26.2272   23.3575 H   0  0  0  0  0  0
  -21.6655  -26.7493   22.1197 H   0  0  0  0  0  0
  -19.6954  -25.6310   21.1258 H   0  0  0  0  0  0
  -19.6769  -27.3201   20.6721 H   0  0  0  0  0  0
  -17.4194  -26.6658   21.4011 H   0  0  0  0  0  0
  -18.0368  -26.0066   22.9002 H   0  0  0  0  0  0
  -19.7908  -30.7199   24.2413 H   0  0  0  0  0  0
  -17.5008  -31.6322   24.5097 H   0  0  0  0  0  0
  -15.5338  -30.3020   23.7681 H   0  0  0  0  0  0
  -15.8624  -28.0851   22.7114 H   0  0  0  0  0  0
  -24.5886  -30.7011   25.7727 H   0  0  0  0  0  0
  -24.8795  -32.2892   26.4712 H   0  0  0  0  0  0
  -25.7971  -30.8979   27.0213 H   0  0  0  0  0  0
  -26.2890  -29.6674   24.1191 H   0  0  0  0  0  0
  -27.3995  -29.7234   25.4659 H   0  0  0  0  0  0
  -27.8737  -30.4213   23.9368 H   0  0  0  0  0  0
  -27.2673  -33.3606   26.1994 H   0  0  0  0  0  0
  -28.3831  -32.6841   25.0227 H   0  0  0  0  0  0
  -28.0685  -31.8390   26.5319 H   0  0  0  0  0  0
  -28.2564  -38.0108   24.7496 H   0  0  0  0  0  0
  -28.1137  -36.2647   24.6270 H   0  0  0  0  0  0
  -27.2336  -37.1415   25.8860 H   0  0  0  0  0  0
  -20.9283  -29.8714   21.6884 H   0  0  0  0  0  0
  -26.0198  -38.2815   24.1357 H   0  0  0  0  0  0
  -30.2666  -22.4110   21.6282 H   0  0  0  0  0  0
  -26.4891  -23.2997   18.7987 H   0  0  0  0  0  0
  -25.9443  -21.7020   18.3848 H   0  0  0  0  0  0
  -27.1798  -22.4859   17.3993 H   0  0  0  0  0  0
  -29.7966  -18.3215   17.5126 H   0  0  0  0  0  0
  -30.3100  -16.7601   18.1228 H   0  0  0  0  0  0
  -31.2669  -18.1962   18.4687 H   0  0  0  0  0  0
  -28.9033  -24.2928   21.4169 H   0  0  0  0  0  0
  -27.2784  -24.0349   20.8948 H   0  0  0  0  0  0
  -29.5950  -17.4513   21.7582 H   0  0  0  0  0  0
  -31.1161  -17.2964   20.9183 H   0  0  0  0  0  0
  -27.8711  -25.0987   18.6363 H   0  0  0  0  0  0
  -29.5145  -25.1454   19.1259 H   0  0  0  0  0  0
  -28.4523  -17.6658   19.5076 H   0  0  0  0  0  0
  -28.8410  -15.3892   20.9475 H   0  0  0  0  0  0
  1 25  1  0  0  0
  1 30  2  0  0  0
  1 83  1  0  0  0
  2  3  1  0  0  0
  2 25  1  0  0  0
  2 86  1  0  0  0
  2 87  1  0  0  0
  3  4  1  0  0  0
  3 88  1  0  0  0
  3 89  1  0  0  0
  4  5  1  0  0  0
  4 90  1  0  0  0
  4 91  1  0  0  0
  5  6  1  0  0  0
  5 26  1  0  0  0
  5 92  1  0  0  0
  6 25  1  0  0  0
  6 93  1  0  0  0
  6 94  1  0  0  0
  7  8  2  0  0  0
  7 26  1  0  0  0
  7 29  1  0  0  0
  8  9  1  0  0  0
  8 22  1  0  0  0
  9 10  1  0  0  0
  9 27  2  0  0  0
 10 11  2  0  0  0
 10 15  1  0  0  0
 11 12  1  0  0  0
 11 95  1  0  0  0
 12 13  2  0  0  0
 12 96  1  0  0  0
 13 14  1  0  0  0
 13 31  1  0  0  0
 14 15  2  0  0  0
 14 97  1  0  0  0
 15 98  1  0  0  0
 16 17  2  0  0  0
 16 21  1  0  0  0
 16 31  1  0  0  0
 17 18  1  0  0  0
 17 99  1  0  0  0
 18 19  2  0  0  0
 18100  1  0  0  0
 19 20  1  0  0  0
 19 24  1  0  0  0
 20 21  2  0  0  0
 20101  1  0  0  0
 21 23  1  0  0  0
 22 28  1  0  0  0
 22 32  2  0  0  0
 26 27  1  0  0  0
 28102  1  0  0  0
 28103  1  0  0  0
 29104  1  0  0  0
 29105  1  0  0  0
 33 34  1  0  0  0
 33 66  1  0  0  0
 33 70  2  0  0  0
 34 36  1  0  0  0
 34 59  1  0  0  0
 34106  1  0  0  0
 35 44  2  0  0  0
 35 45  1  0  0  0
 35 68  1  0  0  0
 36 56  1  0  0  0
 36107  1  0  0  0
 37 39  1  0  0  0
 37 47  1  0  0  0
 37 66  1  0  0  0
 37108  1  0  0  0
 38 43  2  0  0  0
 38 46  1  0  0  0
 38 47  1  0  0  0
 39 64  1  0  0  0
 39 67  2  0  0  0
 40 52  1  0  0  0
 40 53  2  0  0  0
 40 58  1  0  0  0
 41109  1  0  0  0
 41110  1  0  0  0
 41111  1  0  0  0
 41 48  1  0  0  0
 42 43  1  0  0  0
 42 66  1  0  0  0
 42112  1  0  0  0
 42113  1  0  0  0
 43 44  1  0  0  0
 44114  1  0  0  0
 45 46  2  0  0  0
 45115  1  0  0  0
 46116  1  0  0  0
 47117  1  0  0  0
 47118  1  0  0  0
 48 56  1  0  0  0
 48 65  1  0  0  0
 48119  1  0  0  0
 49 50  1  0  0  0
 49 53  1  0  0  0
 49 64  1  0  0  0
 49120  1  0  0  0
 50 51  1  0  0  0
 50121  1  0  0  0
 50122  1  0  0  0
 51 52  1  0  0  0
 51123  1  0  0  0
 51124  1  0  0  0
 52125  1  0  0  0
 52126  1  0  0  0
 53 54  1  0  0  0
 54 55  2  0  0  0
 54127  1  0  0  0
 55 57  1  0  0  0
 55128  1  0  0  0
 56 69  2  0  0  0
 57 58  2  0  0  0
 57129  1  0  0  0
 58130  1  0  0  0
 59 60  1  0  0  0
 59 61  1  0  0  0
 59 62  1  0  0  0
 60131  1  0  0  0
 60132  1  0  0  0
 60133  1  0  0  0
 61134  1  0  0  0
 61135  1  0  0  0
 61136  1  0  0  0
 62137  1  0  0  0
 62138  1  0  0  0
 62139  1  0  0  0
 63 65  1  0  0  0
 63140  1  0  0  0
 63141  1  0  0  0
 63142  1  0  0  0
 64143  1  0  0  0
 65144  1  0  0  0
 68 81  1  0  0  0
 71 72  2  0  0  0
 71 75  1  0  0  0
 71145  1  0  0  0
 72 73  1  0  0  0
 72 79  1  0  0  0
 73 76  2  0  0  0
 73 77  1  0  0  0
 74 75  2  0  0  0
 74 76  1  0  0  0
 74 82  1  0  0  0
 75 84  1  0  0  0
 76 85  1  0  0  0
 77146  1  0  0  0
 77147  1  0  0  0
 77148  1  0  0  0
 78149  1  0  0  0
 78150  1  0  0  0
 78151  1  0  0  0
 78 82  1  0  0  0
 79 81  1  0  0  0
 79152  1  0  0  0
 79153  1  0  0  0
 80 82  1  0  0  0
 80 83  1  0  0  0
 80154  1  0  0  0
 80155  1  0  0  0
 81156  1  0  0  0
 81157  1  0  0  0
 82158  1  0  0  0
 83159  1  0  0  0
M  ISO  4   1 100  68 101  81 101  83 100
M  END
> <chiral flag>
0

> <version>
0

> <s_m_source_file>
/data/baiqing/PycharmProjects/Reinvent-master-3.2/result/LINK_invent/BTK/process_docking_weight1_custom_sum_contain_oxygen_bond_distance_aromatic_linkinvent_7_9_3/rearranged_h_0026.sdf

> <i_m_source_file_index>
31

> <r_mmod_Potential_Energy-OPLS-2005>
36.2555313110352

> <r_mmod_Stretch_Energy-OPLS-2005>
79.8354187011719

> <r_mmod_Bend_Energy-OPLS-2005>
153.178787231445

> <r_mmod_Torsional_Energy-OPLS-2005>
202.959838867188

> <r_mmod_Improper_Torsional_Energy-OPLS-2005>
5.22749900817871

> <r_mmod_Van_der_Waal_Energy-OPLS-2005>
148.318023681641

> <r_mmod_Electrostatic_Energy-OPLS-2005>
-389.930603027344

> <r_mmod_Solvation_Energy-OPLS-2005>
-203.031478881836

> <b_mmod_Minimization_Converged-OPLS-2005>
0

> <r_mmod_RMS_Derivative-OPLS-2005>
3.79685282707214

$$$$
31
                    3D
 Structure written by MMmdl.
174182  0  0  1  0            999 V2000
  -30.7445  -14.3867   20.6524 C   0  0  0  0  0  0
  -30.4114  -12.2765   19.4233 C   0  0  0  0  0  0
  -29.4947  -12.5090   18.2069 C   0  0  0  0  0  0
  -28.0165  -12.3648   18.6151 C   0  0  0  0  0  0
  -27.6630  -13.2003   19.8754 C   0  0  2  0  0  0
  -28.6911  -12.9613   21.0015 C   0  0  0  0  0  0
  -25.2580  -13.8149   20.5647 C   0  0  0  0  0  0
  -24.1821  -13.0448   20.9131 C   0  0  0  0  0  0
  -24.6364  -11.6904   20.8692 C   0  0  0  0  0  0
  -23.9031  -10.4299   21.0386 C   0  0  0  0  0  0
  -24.3594   -9.4227   21.9174 C   0  0  0  0  0  0
  -23.6274   -8.2263   22.0765 C   0  0  0  0  0  0
  -22.4249   -8.0294   21.3558 C   0  0  0  0  0  0
  -21.9877   -9.0258   20.4644 C   0  0  0  0  0  0
  -22.7201  -10.2138   20.3041 C   0  0  0  0  0  0
  -21.6855   -6.0735   22.5287 C   0  0  0  0  0  0
  -21.4021   -6.5636   23.8223 C   0  0  0  0  0  0
  -21.3660   -5.6784   24.9177 C   0  0  0  0  0  0
  -21.6034   -4.3050   24.7228 C   0  0  0  0  0  0
  -21.8812   -3.8143   23.4352 C   0  0  0  0  0  0
  -21.9190   -4.6959   22.3408 C   0  0  0  0  0  0
  -22.7846  -13.5252   21.1818 C   0  0  0  0  0  0
  -22.1658   -4.2149   21.0987 F   0  0  0  0  0  0
  -21.5627   -3.4534   25.7745 F   0  0  0  0  0  0
  -30.0362  -13.2416   20.4681 N   0  0  0  0  0  0
  -26.3009  -12.9315   20.3302 N   0  0  0  0  0  0
  -25.9287  -11.6480   20.5693 N   0  0  0  0  0  0
  -22.0464  -12.8274   22.0366 N   0  0  0  0  0  0
  -25.4326  -15.1880   20.4104 N   0  0  0  0  0  0
  -31.8059  -14.6207   20.0653 O   0  0  0  0  0  0
  -21.6631   -6.8883   21.4254 O   0  0  0  0  0  0
  -22.3550  -14.5571   20.6675 O   0  0  0  0  0  0
  -24.6098  -31.8738   23.2146 C   0  0  0  0  0  0
  -25.9019  -32.4866   23.8417 C   0  0  1  0  0  0
  -27.2368  -27.4897   20.0688 C   0  0  0  0  0  0
  -25.5910  -33.8663   24.2348 N   0  0  0  0  0  0
  -23.3948  -30.4928   21.5542 C   0  0  2  0  0  0
  -24.8400  -28.9631   20.1155 C   0  0  0  0  0  0
  -22.7386  -29.4669   22.5047 C   0  0  0  0  0  0
  -18.0270  -28.1344   22.8408 C   0  0  0  0  0  0
  -24.1475  -36.7312   23.2623 C   0  0  0  0  0  0
  -25.9174  -30.8492   21.3635 C   0  0  0  0  0  0
  -25.9951  -29.4855   20.7135 C   0  0  0  0  0  0
  -27.1963  -28.7509   20.6973 C   0  0  0  0  0  0
  -26.0751  -26.9763   19.4588 C   0  0  0  0  0  0
  -24.8696  -27.7035   19.4899 C   0  0  0  0  0  0
  -23.5996  -29.8224   20.1685 C   0  0  0  0  0  0
  -25.4106  -36.3135   24.0320 C   0  0  1  0  0  0
  -20.5837  -28.3666   23.1271 C   0  0  2  0  0  0
  -20.6802  -26.9416   22.5365 C   0  0  0  0  0  0
  -19.5771  -26.6299   21.5207 C   0  0  0  0  0  0
  -18.1958  -26.7842   22.1627 C   0  0  0  0  0  0
  -19.1498  -28.8831   23.2821 C   0  0  0  0  0  0
  -18.9401  -30.1429   23.8835 C   0  0  0  0  0  0
  -17.6391  -30.6541   24.0487 C   0  0  0  0  0  0
  -25.9033  -34.9496   23.5120 C   0  0  0  0  0  0
  -16.5303  -29.9014   23.6240 C   0  0  0  0  0  0
  -16.7248  -28.6451   23.0243 C   0  0  0  0  0  0
  -26.4452  -31.6655   25.0747 C   0  0  0  0  0  0
  -25.3696  -31.3818   26.1498 C   0  0  0  0  0  0
  -27.0300  -30.3100   24.6135 C   0  0  0  0  0  0
  -27.6048  -32.4369   25.7498 C   0  0  0  0  0  0
  -27.5580  -37.1821   24.8464 C   0  0  0  0  0  0
  -21.4122  -29.3031   22.3723 N   0  0  0  0  0  0
  -26.4302  -37.3814   23.9397 N   0  0  0  0  0  0
  -24.6577  -31.0860   22.1035 N   0  0  0  0  0  0
  -23.4146  -28.8235   23.3110 O   0  0  0  0  0  0
  -28.3883  -26.7522   20.0136 O   0  0  0  0  0  0
  -26.5584  -34.8928   22.4677 O   0  0  0  0  0  0
  -23.5310  -32.1500   23.7566 O   0  0  0  0  0  0
  -27.9431  -20.6187   25.0098 C   0  0  0  0  0  0
  -26.7262  -21.0088   25.6119 C   0  0  0  0  0  0
  -28.2355  -19.2449   25.0488 C   0  0  0  0  0  0
  -26.3095  -18.8365   26.1964 C   0  0  0  0  0  0
  -25.4055  -17.8328   26.8724 C   0  0  0  0  0  0
  -26.2273  -22.4475   25.6069 C   0  0  0  0  0  0
  -25.0240  -22.6619   24.6574 C   0  0  0  0  0  0
  -25.1129  -23.9726   23.8565 C   0  0  0  0  0  0
  -26.1660  -23.8928   22.7377 C   0  0  0  0  0  0
  -26.8580  -25.2317   22.4579 C   0  0  0  0  0  0
  -28.1873  -25.0291   21.7088 C   0  0  0  0  0  0
  -29.8468  -17.6507   22.3341 C   0  0  0  0  0  0
  -29.5275  -17.4763   23.8332 C   0  0  0  0  0  0
  -30.8052  -16.6005   21.7346 C   0  0  0  0  0  0
  -28.8922  -26.3236   21.2720 C   0  0  0  0  0  0
  -25.9203  -20.1085   26.2145 N   0  0  0  0  0  0
  -27.4180  -18.3578   25.6379 N   0  0  0  0  0  0
  -29.4345  -18.7747   24.5041 N   0  0  0  0  0  0
  -30.2091  -15.2858   21.4919 N   0  0  0  0  0  0
  -29.0273  -21.7430   24.2537 Cl  0  0  0  0  0  0
  -31.4611  -12.3536   19.1343 H   0  0  0  0  0  0
  -30.2921  -11.2593   19.8012 H   0  0  0  0  0  0
  -29.7327  -11.7957   17.4173 H   0  0  0  0  0  0
  -29.6745  -13.5010   17.7885 H   0  0  0  0  0  0
  -27.8292  -11.3090   18.8109 H   0  0  0  0  0  0
  -27.3663  -12.6364   17.7825 H   0  0  0  0  0  0
  -27.7201  -14.2497   19.5888 H   0  0  0  0  0  0
  -28.6471  -11.9261   21.3439 H   0  0  0  0  0  0
  -28.4372  -13.5619   21.8760 H   0  0  0  0  0  0
  -25.2755   -9.5709   22.4721 H   0  0  0  0  0  0
  -23.9998   -7.4651   22.7485 H   0  0  0  0  0  0
  -21.0817   -8.8760   19.8941 H   0  0  0  0  0  0
  -22.3674  -10.9665   19.6127 H   0  0  0  0  0  0
  -21.2027   -7.6144   23.9734 H   0  0  0  0  0  0
  -21.1481   -6.0508   25.9081 H   0  0  0  0  0  0
  -22.0589   -2.7608   23.2845 H   0  0  0  0  0  0
  -22.4069  -11.9960   22.4809 H   0  0  0  0  0  0
  -21.1075  -13.1326   22.2521 H   0  0  0  0  0  0
  -24.6721  -15.8462   20.5344 H   0  0  0  0  0  0
  -26.2892  -15.6284   20.0994 H   0  0  0  0  0  0
  -26.7088  -32.5592   23.1186 H   0  0  0  0  0  0
  -25.0137  -33.9849   25.0546 H   0  0  0  0  0  0
  -22.6833  -31.3076   21.4146 H   0  0  0  0  0  0
  -23.3752  -35.9637   23.3342 H   0  0  0  0  0  0
  -24.3551  -36.8893   22.2027 H   0  0  0  0  0  0
  -23.7218  -37.6520   23.6617 H   0  0  0  0  0  0
  -26.0169  -31.6142   20.5931 H   0  0  0  0  0  0
  -26.8100  -30.9114   21.9736 H   0  0  0  0  0  0
  -28.0921  -29.1532   21.1517 H   0  0  0  0  0  0
  -26.1068  -26.0130   18.9705 H   0  0  0  0  0  0
  -23.9822  -27.3022   19.0200 H   0  0  0  0  0  0
  -23.6967  -30.5942   19.4041 H   0  0  0  0  0  0
  -22.7287  -29.2292   19.8815 H   0  0  0  0  0  0
  -25.1287  -36.1999   25.0816 H   0  0  0  0  0  0
  -20.9887  -28.3262   24.1406 H   0  0  0  0  0  0
  -20.5819  -26.2285   23.3569 H   0  0  0  0  0  0
  -21.6655  -26.7567   22.1049 H   0  0  0  0  0  0
  -19.6987  -25.6191   21.1322 H   0  0  0  0  0  0
  -19.6684  -27.3009   20.6644 H   0  0  0  0  0  0
  -17.4200  -26.6450   21.4087 H   0  0  0  0  0  0
  -18.0449  -26.0040   22.9109 H   0  0  0  0  0  0
  -19.7859  -30.7246   24.2238 H   0  0  0  0  0  0
  -17.4897  -31.6203   24.5115 H   0  0  0  0  0  0
  -15.5288  -30.2869   23.7565 H   0  0  0  0  0  0
  -15.8659  -28.0756   22.6939 H   0  0  0  0  0  0
  -24.5783  -30.7279   25.7812 H   0  0  0  0  0  0
  -24.8973  -32.3021   26.4952 H   0  0  0  0  0  0
  -25.7984  -30.8927   27.0250 H   0  0  0  0  0  0
  -26.2892  -29.6885   24.1101 H   0  0  0  0  0  0
  -27.3999  -29.7321   25.4617 H   0  0  0  0  0  0
  -27.8733  -30.4458   23.9361 H   0  0  0  0  0  0
  -27.2690  -33.3639   26.2153 H   0  0  0  0  0  0
  -28.3811  -32.7002   25.0301 H   0  0  0  0  0  0
  -28.0776  -31.8455   26.5353 H   0  0  0  0  0  0
  -28.2634  -38.0083   24.7499 H   0  0  0  0  0  0
  -28.1042  -36.2628   24.6314 H   0  0  0  0  0  0
  -27.2295  -37.1493   25.8865 H   0  0  0  0  0  0
  -20.9328  -29.8668   21.6857 H   0  0  0  0  0  0
  -26.0202  -38.2896   24.1416 H   0  0  0  0  0  0
  -24.4339  -18.2645   27.1102 H   0  0  0  0  0  0
  -25.8540  -17.4806   27.8009 H   0  0  0  0  0  0
  -25.2450  -16.9790   26.2159 H   0  0  0  0  0  0
  -27.0476  -23.1137   25.3481 H   0  0  0  0  0  0
  -25.9499  -22.7358   26.6209 H   0  0  0  0  0  0
  -24.1042  -22.6443   25.2443 H   0  0  0  0  0  0
  -24.9425  -21.8291   23.9575 H   0  0  0  0  0  0
  -25.3434  -24.7863   24.5453 H   0  0  0  0  0  0
  -24.1415  -24.2138   23.4207 H   0  0  0  0  0  0
  -25.7032  -23.5211   21.8214 H   0  0  0  0  0  0
  -26.9279  -23.1588   22.9949 H   0  0  0  0  0  0
  -27.0717  -25.7549   23.3912 H   0  0  0  0  0  0
  -26.1724  -25.8693   21.9049 H   0  0  0  0  0  0
  -28.0415  -24.3848   20.8419 H   0  0  0  0  0  0
  -28.8575  -24.4858   22.3745 H   0  0  0  0  0  0
  -30.3390  -18.6143   22.1906 H   0  0  0  0  0  0
  -28.9239  -17.7123   21.7535 H   0  0  0  0  0  0
  -30.3266  -16.9168   24.3233 H   0  0  0  0  0  0
  -28.6212  -16.8782   23.9519 H   0  0  0  0  0  0
  -31.6808  -16.4855   22.3756 H   0  0  0  0  0  0
  -31.1758  -16.9965   20.7863 H   0  0  0  0  0  0
  -29.9540  -26.1171   21.1320 H   0  0  0  0  0  0
  -28.8308  -27.0920   22.0450 H   0  0  0  0  0  0
  -30.0071  -19.5257   24.1314 H   0  0  0  0  0  0
  -29.3454  -15.0456   21.9547 H   0  0  0  0  0  0
  1 25  1  0  0  0
  1 30  2  0  0  0
  1 89  1  0  0  0
  2  3  1  0  0  0
  2 25  1  0  0  0
  2 91  1  0  0  0
  2 92  1  0  0  0
  3  4  1  0  0  0
  3 93  1  0  0  0
  3 94  1  0  0  0
  4  5  1  0  0  0
  4 95  1  0  0  0
  4 96  1  0  0  0
  5  6  1  0  0  0
  5 26  1  0  0  0
  5 97  1  0  0  0
  6 25  1  0  0  0
  6 98  1  0  0  0
  6 99  1  0  0  0
  7  8  2  0  0  0
  7 26  1  0  0  0
  7 29  1  0  0  0
  8  9  1  0  0  0
  8 22  1  0  0  0
  9 10  1  0  0  0
  9 27  2  0  0  0
 10 11  2  0  0  0
 10 15  1  0  0  0
 11 12  1  0  0  0
 11100  1  0  0  0
 12 13  2  0  0  0
 12101  1  0  0  0
 13 14  1  0  0  0
 13 31  1  0  0  0
 14 15  2  0  0  0
 14102  1  0  0  0
 15103  1  0  0  0
 16 17  2  0  0  0
 16 21  1  0  0  0
 16 31  1  0  0  0
 17 18  1  0  0  0
 17104  1  0  0  0
 18 19  2  0  0  0
 18105  1  0  0  0
 19 20  1  0  0  0
 19 24  1  0  0  0
 20 21  2  0  0  0
 20106  1  0  0  0
 21 23  1  0  0  0
 22 28  1  0  0  0
 22 32  2  0  0  0
 26 27  1  0  0  0
 28107  1  0  0  0
 28108  1  0  0  0
 29109  1  0  0  0
 29110  1  0  0  0
 33 34  1  0  0  0
 33 66  1  0  0  0
 33 70  2  0  0  0
 34 36  1  0  0  0
 34 59  1  0  0  0
 34111  1  0  0  0
 35 44  2  0  0  0
 35 45  1  0  0  0
 35 68  1  0  0  0
 36 56  1  0  0  0
 36112  1  0  0  0
 37 39  1  0  0  0
 37 47  1  0  0  0
 37 66  1  0  0  0
 37113  1  0  0  0
 38 43  2  0  0  0
 38 46  1  0  0  0
 38 47  1  0  0  0
 39 64  1  0  0  0
 39 67  2  0  0  0
 40 52  1  0  0  0
 40 53  2  0  0  0
 40 58  1  0  0  0
 41114  1  0  0  0
 41115  1  0  0  0
 41116  1  0  0  0
 41 48  1  0  0  0
 42 43  1  0  0  0
 42 66  1  0  0  0
 42117  1  0  0  0
 42118  1  0  0  0
 43 44  1  0  0  0
 44119  1  0  0  0
 45 46  2  0  0  0
 45120  1  0  0  0
 46121  1  0  0  0
 47122  1  0  0  0
 47123  1  0  0  0
 48 56  1  0  0  0
 48 65  1  0  0  0
 48124  1  0  0  0
 49 50  1  0  0  0
 49 53  1  0  0  0
 49 64  1  0  0  0
 49125  1  0  0  0
 50 51  1  0  0  0
 50126  1  0  0  0
 50127  1  0  0  0
 51 52  1  0  0  0
 51128  1  0  0  0
 51129  1  0  0  0
 52130  1  0  0  0
 52131  1  0  0  0
 53 54  1  0  0  0
 54 55  2  0  0  0
 54132  1  0  0  0
 55 57  1  0  0  0
 55133  1  0  0  0
 56 69  2  0  0  0
 57 58  2  0  0  0
 57134  1  0  0  0
 58135  1  0  0  0
 59 60  1  0  0  0
 59 61  1  0  0  0
 59 62  1  0  0  0
 60136  1  0  0  0
 60137  1  0  0  0
 60138  1  0  0  0
 61139  1  0  0  0
 61140  1  0  0  0
 61141  1  0  0  0
 62142  1  0  0  0
 62143  1  0  0  0
 62144  1  0  0  0
 63 65  1  0  0  0
 63145  1  0  0  0
 63146  1  0  0  0
 63147  1  0  0  0
 64148  1  0  0  0
 65149  1  0  0  0
 68 85  1  0  0  0
 71 72  2  0  0  0
 71 73  1  0  0  0
 71 90  1  0  0  0
 72 76  1  0  0  0
 72 86  1  0  0  0
 73 87  2  0  0  0
 73 88  1  0  0  0
 74 75  1  0  0  0
 74 86  2  0  0  0
 74 87  1  0  0  0
 75150  1  0  0  0
 75151  1  0  0  0
 75152  1  0  0  0
 76 77  1  0  0  0
 76153  1  0  0  0
 76154  1  0  0  0
 77 78  1  0  0  0
 77155  1  0  0  0
 77156  1  0  0  0
 78 79  1  0  0  0
 78157  1  0  0  0
 78158  1  0  0  0
 79 80  1  0  0  0
 79159  1  0  0  0
 79160  1  0  0  0
 80 81  1  0  0  0
 80161  1  0  0  0
 80162  1  0  0  0
 81 85  1  0  0  0
 81163  1  0  0  0
 81164  1  0  0  0
 82 83  1  0  0  0
 82 84  1  0  0  0
 82165  1  0  0  0
 82166  1  0  0  0
 83 88  1  0  0  0
 83167  1  0  0  0
 83168  1  0  0  0
 84 89  1  0  0  0
 84169  1  0  0  0
 84170  1  0  0  0
 85171  1  0  0  0
 85172  1  0  0  0
 88173  1  0  0  0
 89174  1  0  0  0
M  ISO  4   1 100  68 101  85 101  89 100
M  END
> <chiral flag>
0

> <version>
0

> <s_m_source_file>
/data/baiqing/PycharmProjects/Reinvent-master-3.2/result/LINK_invent/BTK/process_docking_weight1_custom_sum_contain_oxygen_bond_distance_aromatic_linkinvent_7_9_3/rearranged_h_0026.sdf

> <i_m_source_file_index>
32

> <r_mmod_Potential_Energy-OPLS-2005>
-423.506072998047

> <r_mmod_Stretch_Energy-OPLS-2005>
31.6568431854248

> <r_mmod_Bend_Energy-OPLS-2005>
105.890235900879

> <r_mmod_Torsional_Energy-OPLS-2005>
241.141860961914

> <r_mmod_Improper_Torsional_Energy-OPLS-2005>
4.47014713287354

> <r_mmod_Van_der_Waal_Energy-OPLS-2005>
160.494918823242

> <r_mmod_Electrostatic_Energy-OPLS-2005>
-750.153686523438

> <r_mmod_Solvation_Energy-OPLS-2005>
-224.445877075195

> <b_mmod_Minimization_Converged-OPLS-2005>
0

> <r_mmod_RMS_Derivative-OPLS-2005>
3.02984213829041

$$$$
32
                    3D
 Structure written by MMmdl.
158166  0  0  1  0            999 V2000
  -30.7101  -14.5019   20.5325 C   0  0  0  0  0  0
  -30.4154  -12.3150   19.4398 C   0  0  0  0  0  0
  -29.4936  -12.4900   18.2164 C   0  0  0  0  0  0
  -28.0169  -12.3515   18.6307 C   0  0  0  0  0  0
  -27.6570  -13.2135   19.8708 C   0  0  2  0  0  0
  -28.6994  -13.0398   20.9988 C   0  0  0  0  0  0
  -25.2569  -13.8177   20.5691 C   0  0  0  0  0  0
  -24.1824  -13.0446   20.9180 C   0  0  0  0  0  0
  -24.6385  -11.6913   20.8740 C   0  0  0  0  0  0
  -23.9050  -10.4295   21.0398 C   0  0  0  0  0  0
  -24.3602   -9.4212   21.9181 C   0  0  0  0  0  0
  -23.6281   -8.2242   22.0752 C   0  0  0  0  0  0
  -22.4266   -8.0274   21.3539 C   0  0  0  0  0  0
  -21.9901   -9.0244   20.4636 C   0  0  0  0  0  0
  -22.7223  -10.2128   20.3045 C   0  0  0  0  0  0
  -21.6856   -6.0731   22.5274 C   0  0  0  0  0  0
  -21.4008   -6.5635   23.8204 C   0  0  0  0  0  0
  -21.3658   -5.6791   24.9169 C   0  0  0  0  0  0
  -21.6046   -4.3053   24.7224 C   0  0  0  0  0  0
  -21.8823   -3.8139   23.4346 C   0  0  0  0  0  0
  -21.9191   -4.6957   22.3398 C   0  0  0  0  0  0
  -22.7847  -13.5243   21.1841 C   0  0  0  0  0  0
  -22.1665   -4.2141   21.0973 F   0  0  0  0  0  0
  -21.5632   -3.4535   25.7737 F   0  0  0  0  0  0
  -30.0268  -13.3279   20.4367 N   0  0  0  0  0  0
  -26.3007  -12.9358   20.3362 N   0  0  0  0  0  0
  -25.9317  -11.6514   20.5773 N   0  0  0  0  0  0
  -22.0481  -12.8226   22.0387 N   0  0  0  0  0  0
  -25.4293  -15.1896   20.4106 N   0  0  0  0  0  0
  -31.8529  -14.6344   20.0863 O   0  0  0  0  0  0
  -21.6636   -6.8866   21.4234 O   0  0  0  0  0  0
  -22.3525  -14.5544   20.6689 O   0  0  0  0  0  0
  -24.6181  -31.8668   23.2100 C   0  0  0  0  0  0
  -25.9061  -32.4820   23.8395 C   0  0  1  0  0  0
  -27.2220  -27.4003   20.0933 C   0  0  0  0  0  0
  -25.5899  -33.8617   24.2316 N   0  0  0  0  0  0
  -23.4066  -30.4933   21.5518 C   0  0  2  0  0  0
  -24.8507  -28.9651   20.1090 C   0  0  0  0  0  0
  -22.7423  -29.4653   22.4980 C   0  0  0  0  0  0
  -18.0270  -28.1386   22.8487 C   0  0  0  0  0  0
  -24.1482  -36.7295   23.2636 C   0  0  0  0  0  0
  -25.9413  -30.8220   21.3716 C   0  0  0  0  0  0
  -26.0165  -29.4585   20.7096 C   0  0  0  0  0  0
  -27.2060  -28.6853   20.6956 C   0  0  0  0  0  0
  -26.0337  -26.9434   19.4739 C   0  0  0  0  0  0
  -24.8551  -27.7085   19.4865 C   0  0  0  0  0  0
  -23.6151  -29.8336   20.1646 C   0  0  0  0  0  0
  -25.4104  -36.3105   24.0337 C   0  0  1  0  0  0
  -20.5865  -28.3659   23.1309 C   0  0  2  0  0  0
  -20.6764  -26.9399   22.5406 C   0  0  0  0  0  0
  -19.5739  -26.6395   21.5208 C   0  0  0  0  0  0
  -18.1911  -26.7938   22.1616 C   0  0  0  0  0  0
  -19.1527  -28.8843   23.2888 C   0  0  0  0  0  0
  -18.9458  -30.1444   23.8900 C   0  0  0  0  0  0
  -17.6466  -30.6596   24.0570 C   0  0  0  0  0  0
  -25.9034  -34.9472   23.5128 C   0  0  0  0  0  0
  -16.5349  -29.9091   23.6352 C   0  0  0  0  0  0
  -16.7264  -28.6509   23.0364 C   0  0  0  0  0  0
  -26.4482  -31.6616   25.0734 C   0  0  0  0  0  0
  -25.3738  -31.3712   26.1471 C   0  0  0  0  0  0
  -27.0344  -30.3063   24.6141 C   0  0  0  0  0  0
  -27.6035  -32.4355   25.7515 C   0  0  0  0  0  0
  -27.5575  -37.1797   24.8464 C   0  0  0  0  0  0
  -21.4150  -29.3029   22.3720 N   0  0  0  0  0  0
  -26.4293  -37.3798   23.9407 N   0  0  0  0  0  0
  -24.6741  -31.0744   22.1023 N   0  0  0  0  0  0
  -23.4183  -28.8188   23.3021 O   0  0  0  0  0  0
  -28.3659  -26.6110   20.1351 O   0  0  0  0  0  0
  -26.5607  -34.8924   22.4692 O   0  0  0  0  0  0
  -23.5370  -32.1430   23.7475 O   0  0  0  0  0  0
  -30.0649  -19.4470   20.9006 C   0  0  0  0  0  0
  -29.8503  -18.1696   21.4890 C   0  0  0  0  0  0
  -28.6447  -19.2985   23.3188 C   0  0  0  0  0  0
  -29.6308  -20.6469   21.5151 C   0  0  0  0  0  0
  -29.1295  -18.1055   22.7136 C   0  0  0  0  0  0
  -28.9203  -20.5606   22.7361 C   0  0  0  0  0  0
  -27.8725  -19.2609   24.6353 C   0  0  0  0  0  0
  -30.5467  -16.9617   20.8145 C   0  0  0  0  0  0
  -29.3099  -24.2716   20.4772 C   0  0  0  0  0  0
  -28.9789  -22.7480   20.3867 C   0  0  0  0  0  0
  -28.1721  -25.1852   19.9505 C   0  0  0  0  0  0
  -30.0206  -21.8993   20.9859 N   0  0  0  0  0  0
  -30.0269  -15.5841   20.9630 N   0  0  0  0  0  0
  -28.8906  -16.5899   23.5228 Cl  0  0  0  0  0  0
  -28.4484  -22.0139   23.5617 Cl  0  0  0  0  0  0
  -31.4611  -12.3977   19.1389 H   0  0  0  0  0  0
  -30.3096  -11.3148   19.8621 H   0  0  0  0  0  0
  -29.7370  -11.7479   17.4547 H   0  0  0  0  0  0
  -29.6616  -13.4658   17.7581 H   0  0  0  0  0  0
  -27.8381  -11.2989   18.8506 H   0  0  0  0  0  0
  -27.3641  -12.6009   17.7936 H   0  0  0  0  0  0
  -27.6887  -14.2537   19.5461 H   0  0  0  0  0  0
  -28.6778  -12.0193   21.3847 H   0  0  0  0  0  0
  -28.4661  -13.6847   21.8478 H   0  0  0  0  0  0
  -25.2743   -9.5697   22.4759 H   0  0  0  0  0  0
  -23.9990   -7.4640   22.7484 H   0  0  0  0  0  0
  -21.0832   -8.8752   19.8941 H   0  0  0  0  0  0
  -22.3676  -10.9658   19.6152 H   0  0  0  0  0  0
  -21.1999   -7.6136   23.9703 H   0  0  0  0  0  0
  -21.1482   -6.0517   25.9068 H   0  0  0  0  0  0
  -22.0603   -2.7600   23.2845 H   0  0  0  0  0  0
  -22.4081  -11.9877   22.4763 H   0  0  0  0  0  0
  -21.1098  -13.1248   22.2582 H   0  0  0  0  0  0
  -24.6660  -15.8480   20.5206 H   0  0  0  0  0  0
  -26.2870  -15.6275   20.0979 H   0  0  0  0  0  0
  -26.7129  -32.5532   23.1152 H   0  0  0  0  0  0
  -25.0055  -33.9775   25.0471 H   0  0  0  0  0  0
  -22.6969  -31.3121   21.4168 H   0  0  0  0  0  0
  -23.3760  -35.9616   23.3320 H   0  0  0  0  0  0
  -24.3566  -36.8901   22.2050 H   0  0  0  0  0  0
  -23.7222  -37.6488   23.6653 H   0  0  0  0  0  0
  -26.0633  -31.5925   20.6084 H   0  0  0  0  0  0
  -26.8262  -30.8671   21.9967 H   0  0  0  0  0  0
  -28.1038  -29.0578   21.1711 H   0  0  0  0  0  0
  -25.9827  -25.9882   18.9747 H   0  0  0  0  0  0
  -23.9606  -27.3257   19.0142 H   0  0  0  0  0  0
  -23.7211  -30.6125   19.4092 H   0  0  0  0  0  0
  -22.7387  -29.2538   19.8717 H   0  0  0  0  0  0
  -25.1285  -36.1967   25.0834 H   0  0  0  0  0  0
  -20.9938  -28.3240   24.1439 H   0  0  0  0  0  0
  -20.5690  -26.2268   23.3590 H   0  0  0  0  0  0
  -21.6632  -26.7469   22.1178 H   0  0  0  0  0  0
  -19.6912  -25.6312   21.1219 H   0  0  0  0  0  0
  -19.6698  -27.3229   20.6754 H   0  0  0  0  0  0
  -17.4188  -26.6693   21.4009 H   0  0  0  0  0  0
  -18.0293  -26.0078   22.9007 H   0  0  0  0  0  0
  -19.7941  -30.7234   24.2283 H   0  0  0  0  0  0
  -17.5042  -31.6291   24.5149 H   0  0  0  0  0  0
  -15.5352  -30.3000   23.7703 H   0  0  0  0  0  0
  -15.8649  -28.0840   22.7093 H   0  0  0  0  0  0
  -24.5922  -30.7054   25.7796 H   0  0  0  0  0  0
  -24.8904  -32.2856   26.4920 H   0  0  0  0  0  0
  -25.8063  -30.8877   27.0240 H   0  0  0  0  0  0
  -26.2913  -29.6798   24.1186 H   0  0  0  0  0  0
  -27.4117  -29.7318   25.4612 H   0  0  0  0  0  0
  -27.8746  -30.4391   23.9319 H   0  0  0  0  0  0
  -27.2646  -33.3665   26.2076 H   0  0  0  0  0  0
  -28.3856  -32.6906   25.0353 H   0  0  0  0  0  0
  -28.0696  -31.8500   26.5450 H   0  0  0  0  0  0
  -28.2577  -38.0106   24.7540 H   0  0  0  0  0  0
  -28.1084  -36.2638   24.6270 H   0  0  0  0  0  0
  -27.2284  -37.1427   25.8861 H   0  0  0  0  0  0
  -20.9309  -29.8769   21.6955 H   0  0  0  0  0  0
  -26.0180  -38.2866   24.1444 H   0  0  0  0  0  0
  -30.6418  -19.5119   19.9884 H   0  0  0  0  0  0
  -27.5186  -18.2717   24.9166 H   0  0  0  0  0  0
  -26.9858  -19.8921   24.5711 H   0  0  0  0  0  0
  -28.4994  -19.6374   25.4444 H   0  0  0  0  0  0
  -31.5798  -16.9780   21.1663 H   0  0  0  0  0  0
  -30.6005  -17.1622   19.7430 H   0  0  0  0  0  0
  -30.2239  -24.4831   19.9200 H   0  0  0  0  0  0
  -29.5113  -24.5368   21.5157 H   0  0  0  0  0  0
  -28.8574  -22.4675   19.3390 H   0  0  0  0  0  0
  -28.0167  -22.5526   20.8638 H   0  0  0  0  0  0
  -27.2655  -24.8717   20.4709 H   0  0  0  0  0  0
  -28.0223  -24.9826   18.8890 H   0  0  0  0  0  0
  -30.5001  -22.4298   21.7085 H   0  0  0  0  0  0
  -29.0948  -15.4594   21.3288 H   0  0  0  0  0  0
  1 25  1  0  0  0
  1 30  2  0  0  0
  1 83  1  0  0  0
  2  3  1  0  0  0
  2 25  1  0  0  0
  2 86  1  0  0  0
  2 87  1  0  0  0
  3  4  1  0  0  0
  3 88  1  0  0  0
  3 89  1  0  0  0
  4  5  1  0  0  0
  4 90  1  0  0  0
  4 91  1  0  0  0
  5  6  1  0  0  0
  5 26  1  0  0  0
  5 92  1  0  0  0
  6 25  1  0  0  0
  6 93  1  0  0  0
  6 94  1  0  0  0
  7  8  2  0  0  0
  7 26  1  0  0  0
  7 29  1  0  0  0
  8  9  1  0  0  0
  8 22  1  0  0  0
  9 10  1  0  0  0
  9 27  2  0  0  0
 10 11  2  0  0  0
 10 15  1  0  0  0
 11 12  1  0  0  0
 11 95  1  0  0  0
 12 13  2  0  0  0
 12 96  1  0  0  0
 13 14  1  0  0  0
 13 31  1  0  0  0
 14 15  2  0  0  0
 14 97  1  0  0  0
 15 98  1  0  0  0
 16 17  2  0  0  0
 16 21  1  0  0  0
 16 31  1  0  0  0
 17 18  1  0  0  0
 17 99  1  0  0  0
 18 19  2  0  0  0
 18100  1  0  0  0
 19 20  1  0  0  0
 19 24  1  0  0  0
 20 21  2  0  0  0
 20101  1  0  0  0
 21 23  1  0  0  0
 22 28  1  0  0  0
 22 32  2  0  0  0
 26 27  1  0  0  0
 28102  1  0  0  0
 28103  1  0  0  0
 29104  1  0  0  0
 29105  1  0  0  0
 33 34  1  0  0  0
 33 66  1  0  0  0
 33 70  2  0  0  0
 34 36  1  0  0  0
 34 59  1  0  0  0
 34106  1  0  0  0
 35 44  2  0  0  0
 35 45  1  0  0  0
 35 68  1  0  0  0
 36 56  1  0  0  0
 36107  1  0  0  0
 37 39  1  0  0  0
 37 47  1  0  0  0
 37 66  1  0  0  0
 37108  1  0  0  0
 38 43  2  0  0  0
 38 46  1  0  0  0
 38 47  1  0  0  0
 39 64  1  0  0  0
 39 67  2  0  0  0
 40 52  1  0  0  0
 40 53  2  0  0  0
 40 58  1  0  0  0
 41109  1  0  0  0
 41110  1  0  0  0
 41111  1  0  0  0
 41 48  1  0  0  0
 42 43  1  0  0  0
 42 66  1  0  0  0
 42112  1  0  0  0
 42113  1  0  0  0
 43 44  1  0  0  0
 44114  1  0  0  0
 45 46  2  0  0  0
 45115  1  0  0  0
 46116  1  0  0  0
 47117  1  0  0  0
 47118  1  0  0  0
 48 56  1  0  0  0
 48 65  1  0  0  0
 48119  1  0  0  0
 49 50  1  0  0  0
 49 53  1  0  0  0
 49 64  1  0  0  0
 49120  1  0  0  0
 50 51  1  0  0  0
 50121  1  0  0  0
 50122  1  0  0  0
 51 52  1  0  0  0
 51123  1  0  0  0
 51124  1  0  0  0
 52125  1  0  0  0
 52126  1  0  0  0
 53 54  1  0  0  0
 54 55  2  0  0  0
 54127  1  0  0  0
 55 57  1  0  0  0
 55128  1  0  0  0
 56 69  2  0  0  0
 57 58  2  0  0  0
 57129  1  0  0  0
 58130  1  0  0  0
 59 60  1  0  0  0
 59 61  1  0  0  0
 59 62  1  0  0  0
 60131  1  0  0  0
 60132  1  0  0  0
 60133  1  0  0  0
 61134  1  0  0  0
 61135  1  0  0  0
 61136  1  0  0  0
 62137  1  0  0  0
 62138  1  0  0  0
 62139  1  0  0  0
 63 65  1  0  0  0
 63140  1  0  0  0
 63141  1  0  0  0
 63142  1  0  0  0
 64143  1  0  0  0
 65144  1  0  0  0
 68 81  1  0  0  0
 71 72  2  0  0  0
 71 74  1  0  0  0
 71145  1  0  0  0
 72 75  1  0  0  0
 72 78  1  0  0  0
 73 75  2  0  0  0
 73 76  1  0  0  0
 73 77  1  0  0  0
 74 76  2  0  0  0
 74 82  1  0  0  0
 75 84  1  0  0  0
 76 85  1  0  0  0
 77146  1  0  0  0
 77147  1  0  0  0
 77148  1  0  0  0
 78 83  1  0  0  0
 78149  1  0  0  0
 78150  1  0  0  0
 79 80  1  0  0  0
 79 81  1  0  0  0
 79151  1  0  0  0
 79152  1  0  0  0
 80 82  1  0  0  0
 80153  1  0  0  0
 80154  1  0  0  0
 81155  1  0  0  0
 81156  1  0  0  0
 82157  1  0  0  0
 83158  1  0  0  0
M  ISO  4   1 100  68 101  81 101  83 100
M  END
> <chiral flag>
0

> <version>
0

> <s_m_source_file>
/data/baiqing/PycharmProjects/Reinvent-master-3.2/result/LINK_invent/BTK/process_docking_weight1_custom_sum_contain_oxygen_bond_distance_aromatic_linkinvent_7_9_3/rearranged_h_0026.sdf

> <i_m_source_file_index>
33

> <r_mmod_Potential_Energy-OPLS-2005>
-28.166934967041

> <r_mmod_Stretch_Energy-OPLS-2005>
46.173526763916

> <r_mmod_Bend_Energy-OPLS-2005>
109.034576416016

> <r_mmod_Torsional_Energy-OPLS-2005>
219.175598144531

> <r_mmod_Improper_Torsional_Energy-OPLS-2005>
10.8678798675537

> <r_mmod_Van_der_Waal_Energy-OPLS-2005>
167.019973754883

> <r_mmod_Electrostatic_Energy-OPLS-2005>
-391.928741455078

> <r_mmod_Solvation_Energy-OPLS-2005>
-209.134948730469

> <b_mmod_Minimization_Converged-OPLS-2005>
0

> <r_mmod_RMS_Derivative-OPLS-2005>
1.96400761604309

$$$$
33
                    3D
 Structure written by MMmdl.
162170  0  0  1  0            999 V2000
  -30.7511  -14.4623   20.3570 C   0  0  0  0  0  0
  -30.4357  -12.2734   19.4134 C   0  0  0  0  0  0
  -29.5092  -12.4768   18.1882 C   0  0  0  0  0  0
  -28.0231  -12.3738   18.5988 C   0  0  0  0  0  0
  -27.6702  -13.2294   19.8510 C   0  0  2  0  0  0
  -28.7361  -13.0985   20.9685 C   0  0  0  0  0  0
  -25.2659  -13.8209   20.5688 C   0  0  0  0  0  0
  -24.1897  -13.0397   20.9177 C   0  0  0  0  0  0
  -24.6523  -11.6914   20.8737 C   0  0  0  0  0  0
  -23.9159  -10.4284   21.0385 C   0  0  0  0  0  0
  -24.3680   -9.4213   21.9169 C   0  0  0  0  0  0
  -23.6328   -8.2264   22.0761 C   0  0  0  0  0  0
  -22.4289   -8.0319   21.3569 C   0  0  0  0  0  0
  -21.9949   -9.0297   20.4657 C   0  0  0  0  0  0
  -22.7317  -10.2159   20.3051 C   0  0  0  0  0  0
  -21.6861   -6.0756   22.5280 C   0  0  0  0  0  0
  -21.4021   -6.5660   23.8213 C   0  0  0  0  0  0
  -21.3657   -5.6805   24.9172 C   0  0  0  0  0  0
  -21.6041   -4.3070   24.7215 C   0  0  0  0  0  0
  -21.8822   -3.8168   23.4338 C   0  0  0  0  0  0
  -21.9199   -4.6988   22.3396 C   0  0  0  0  0  0
  -22.7929  -13.5259   21.1803 C   0  0  0  0  0  0
  -22.1668   -4.2181   21.0974 F   0  0  0  0  0  0
  -21.5621   -3.4543   25.7724 F   0  0  0  0  0  0
  -30.0722  -13.2978   20.3877 N   0  0  0  0  0  0
  -26.3143  -12.9407   20.3343 N   0  0  0  0  0  0
  -25.9480  -11.6526   20.5756 N   0  0  0  0  0  0
  -22.0564  -12.8221   22.0366 N   0  0  0  0  0  0
  -25.4288  -15.1892   20.4161 N   0  0  0  0  0  0
  -31.9696  -14.5610   20.2823 O   0  0  0  0  0  0
  -21.6650   -6.8902   21.4242 O   0  0  0  0  0  0
  -22.3585  -14.5522   20.6658 O   0  0  0  0  0  0
  -24.6192  -31.8662   23.2221 C   0  0  0  0  0  0
  -25.9084  -32.4768   23.8464 C   0  0  1  0  0  0
  -27.1343  -27.3400   20.0521 C   0  0  0  0  0  0
  -25.5962  -33.8667   24.2283 N   0  0  0  0  0  0
  -23.3959  -30.5105   21.5636 C   0  0  2  0  0  0
  -24.8107  -28.9940   20.0942 C   0  0  0  0  0  0
  -22.7412  -29.4659   22.4980 C   0  0  0  0  0  0
  -18.0285  -28.1368   22.8537 C   0  0  0  0  0  0
  -24.1496  -36.7316   23.2660 C   0  0  0  0  0  0
  -25.9506  -30.7859   21.3953 C   0  0  0  0  0  0
  -25.9949  -29.4416   20.7019 C   0  0  0  0  0  0
  -27.1574  -28.6161   20.6950 C   0  0  0  0  0  0
  -25.9434  -26.9963   19.3874 C   0  0  0  0  0  0
  -24.7875  -27.7640   19.4339 C   0  0  0  0  0  0
  -23.5985  -29.8870   20.1630 C   0  0  0  0  0  0
  -25.4120  -36.3130   24.0336 C   0  0  1  0  0  0
  -20.5873  -28.3685   23.1302 C   0  0  2  0  0  0
  -20.6786  -26.9420   22.5409 C   0  0  0  0  0  0
  -19.5789  -26.6393   21.5175 C   0  0  0  0  0  0
  -18.1954  -26.7929   22.1619 C   0  0  0  0  0  0
  -19.1538  -28.8833   23.2913 C   0  0  0  0  0  0
  -18.9470  -30.1421   23.8915 C   0  0  0  0  0  0
  -17.6484  -30.6593   24.0566 C   0  0  0  0  0  0
  -25.9097  -34.9489   23.5077 C   0  0  0  0  0  0
  -16.5367  -29.9065   23.6348 C   0  0  0  0  0  0
  -16.7264  -28.6479   23.0358 C   0  0  0  0  0  0
  -26.4502  -31.6625   25.0823 C   0  0  0  0  0  0
  -25.3733  -31.3744   26.1518 C   0  0  0  0  0  0
  -27.0305  -30.3027   24.6234 C   0  0  0  0  0  0
  -27.6081  -32.4351   25.7574 C   0  0  0  0  0  0
  -27.5547  -37.1808   24.8450 C   0  0  0  0  0  0
  -21.4151  -29.3027   22.3749 N   0  0  0  0  0  0
  -26.4273  -37.3768   23.9437 N   0  0  0  0  0  0
  -24.6732  -31.0621   22.1205 N   0  0  0  0  0  0
  -23.4109  -28.8222   23.3150 O   0  0  0  0  0  0
  -28.2256  -26.5019   19.9969 O   0  0  0  0  0  0
  -26.5603  -34.8861   22.4613 O   0  0  0  0  0  0
  -23.5399  -32.1631   23.7457 O   0  0  0  0  0  0
  -26.2888  -21.2024   18.6638 C   0  0  0  0  0  0
  -26.9287  -22.3596   18.1751 C   0  0  0  0  0  0
  -28.1854  -22.2527   17.5358 C   0  0  0  0  0  0
  -28.3723  -19.9718   18.4341 C   0  0  0  0  0  0
  -27.0082  -20.0009   18.7766 C   0  0  0  0  0  0
  -28.9031  -21.0316   17.6695 C   0  0  0  0  0  0
  -28.7893  -23.4397   16.7991 C   0  0  0  0  0  0
  -26.2936  -23.7022   18.4998 C   0  0  0  0  0  0
  -29.3107  -19.0120   19.1715 C   0  0  0  0  0  0
  -26.7634  -24.2049   19.8972 C   0  0  0  0  0  0
  -29.2721  -17.5201   18.8710 C   0  0  0  0  0  0
  -29.8661  -16.6980   20.0193 C   0  0  0  0  0  0
  -28.0962  -25.0356   20.0488 C   0  0  0  0  0  0
  -30.0975  -15.3460   19.6067 N   0  0  0  0  0  0
  -26.2156  -18.6627   19.5159 Cl  0  0  0  0  0  0
  -30.4751  -20.8444   16.9787 Cl  0  0  0  0  0  0
  -31.4839  -12.3502   19.1038 H   0  0  0  0  0  0
  -30.3001  -11.2890   19.8560 H   0  0  0  0  0  0
  -29.7418  -11.7493   17.4075 H   0  0  0  0  0  0
  -29.6801  -13.4530   17.7180 H   0  0  0  0  0  0
  -27.8090  -11.3264   18.7818 H   0  0  0  0  0  0
  -27.3822  -12.6746   17.7646 H   0  0  0  0  0  0
  -27.6674  -14.2715   19.5281 H   0  0  0  0  0  0
  -28.7035  -12.1117   21.4294 H   0  0  0  0  0  0
  -28.5483  -13.8418   21.7475 H   0  0  0  0  0  0
  -25.2827   -9.5655   22.4729 H   0  0  0  0  0  0
  -24.0034   -7.4642   22.7486 H   0  0  0  0  0  0
  -21.0871   -8.8838   19.8956 H   0  0  0  0  0  0
  -22.3802  -10.9697   19.6155 H   0  0  0  0  0  0
  -21.2019   -7.6168   23.9728 H   0  0  0  0  0  0
  -21.1464   -6.0530   25.9078 H   0  0  0  0  0  0
  -22.0602   -2.7629   23.2821 H   0  0  0  0  0  0
  -22.4222  -11.9933   22.4768 H   0  0  0  0  0  0
  -21.1181  -13.1230   22.2556 H   0  0  0  0  0  0
  -24.6551  -15.8366   20.5167 H   0  0  0  0  0  0
  -26.2854  -15.6409   20.1160 H   0  0  0  0  0  0
  -26.7038  -32.5339   23.1168 H   0  0  0  0  0  0
  -25.0168  -33.9903   25.0421 H   0  0  0  0  0  0
  -22.7136  -31.3501   21.4484 H   0  0  0  0  0  0
  -23.3684  -35.9689   23.3341 H   0  0  0  0  0  0
  -24.3622  -36.8906   22.2065 H   0  0  0  0  0  0
  -23.7229  -37.6548   23.6650 H   0  0  0  0  0  0
  -26.0876  -31.5701   20.6466 H   0  0  0  0  0  0
  -26.8369  -30.8216   22.0228 H   0  0  0  0  0  0
  -28.0565  -28.9419   21.2028 H   0  0  0  0  0  0
  -25.8365  -26.1264   18.7897 H   0  0  0  0  0  0
  -23.8984  -27.4047   18.9223 H   0  0  0  0  0  0
  -23.7584  -30.6871   19.4441 H   0  0  0  0  0  0
  -22.7058  -29.3562   19.8277 H   0  0  0  0  0  0
  -25.1248  -36.2086   25.0806 H   0  0  0  0  0  0
  -20.9877  -28.3214   24.1456 H   0  0  0  0  0  0
  -20.5665  -26.2272   23.3589 H   0  0  0  0  0  0
  -21.6679  -26.7535   22.1218 H   0  0  0  0  0  0
  -19.6946  -25.6268   21.1253 H   0  0  0  0  0  0
  -19.6681  -27.3198   20.6678 H   0  0  0  0  0  0
  -17.4210  -26.6654   21.4007 H   0  0  0  0  0  0
  -18.0395  -25.9988   22.8969 H   0  0  0  0  0  0
  -19.7920  -30.7232   24.2267 H   0  0  0  0  0  0
  -17.5024  -31.6300   24.5172 H   0  0  0  0  0  0
  -15.5354  -30.2980   23.7632 H   0  0  0  0  0  0
  -15.8660  -28.0781   22.7063 H   0  0  0  0  0  0
  -24.5939  -30.7069   25.7799 H   0  0  0  0  0  0
  -24.8929  -32.2938   26.4911 H   0  0  0  0  0  0
  -25.8097  -30.8949   27.0298 H   0  0  0  0  0  0
  -26.2875  -29.6780   24.1231 H   0  0  0  0  0  0
  -27.3975  -29.7283   25.4766 H   0  0  0  0  0  0
  -27.8769  -30.4262   23.9434 H   0  0  0  0  0  0
  -27.2686  -33.3613   26.2192 H   0  0  0  0  0  0
  -28.3872  -32.6947   25.0401 H   0  0  0  0  0  0
  -28.0748  -31.8455   26.5471 H   0  0  0  0  0  0
  -28.2543  -38.0111   24.7459 H   0  0  0  0  0  0
  -28.1062  -36.2648   24.6325 H   0  0  0  0  0  0
  -27.2308  -37.1485   25.8854 H   0  0  0  0  0  0
  -20.9367  -29.8845   21.7052 H   0  0  0  0  0  0
  -26.0165  -38.2849   24.1396 H   0  0  0  0  0  0
  -25.2859  -21.2503   19.0593 H   0  0  0  0  0  0
  -28.5708  -24.3683   17.3034 H   0  0  0  0  0  0
  -28.3939  -23.5437   15.7862 H   0  0  0  0  0  0
  -29.8744  -23.3876   16.7476 H   0  0  0  0  0  0
  -25.2107  -23.5431   18.5583 H   0  0  0  0  0  0
  -26.4173  -24.4003   17.6809 H   0  0  0  0  0  0
  -29.0952  -19.1822   20.2239 H   0  0  0  0  0  0
  -30.3346  -19.3385   19.0521 H   0  0  0  0  0  0
  -26.8612  -23.3073   20.5047 H   0  0  0  0  0  0
  -25.9350  -24.6986   20.4025 H   0  0  0  0  0  0
  -29.8041  -17.3424   17.9410 H   0  0  0  0  0  0
  -28.2665  -17.1650   18.7143 H   0  0  0  0  0  0
  -29.1274  -16.5629   20.7980 H   0  0  0  0  0  0
  -30.7555  -17.1767   20.4436 H   0  0  0  0  0  0
  -28.8554  -24.6621   19.3698 H   0  0  0  0  0  0
  -28.4972  -24.7997   21.0502 H   0  0  0  0  0  0
  -30.3748  -15.3035   18.6322 H   0  0  0  0  0  0
  1 25  1  0  0  0
  1 30  2  0  0  0
  1 84  1  0  0  0
  2  3  1  0  0  0
  2 25  1  0  0  0
  2 87  1  0  0  0
  2 88  1  0  0  0
  3  4  1  0  0  0
  3 89  1  0  0  0
  3 90  1  0  0  0
  4  5  1  0  0  0
  4 91  1  0  0  0
  4 92  1  0  0  0
  5  6  1  0  0  0
  5 26  1  0  0  0
  5 93  1  0  0  0
  6 25  1  0  0  0
  6 94  1  0  0  0
  6 95  1  0  0  0
  7  8  2  0  0  0
  7 26  1  0  0  0
  7 29  1  0  0  0
  8  9  1  0  0  0
  8 22  1  0  0  0
  9 10  1  0  0  0
  9 27  2  0  0  0
 10 11  2  0  0  0
 10 15  1  0  0  0
 11 12  1  0  0  0
 11 96  1  0  0  0
 12 13  2  0  0  0
 12 97  1  0  0  0
 13 14  1  0  0  0
 13 31  1  0  0  0
 14 15  2  0  0  0
 14 98  1  0  0  0
 15 99  1  0  0  0
 16 17  2  0  0  0
 16 21  1  0  0  0
 16 31  1  0  0  0
 17 18  1  0  0  0
 17100  1  0  0  0
 18 19  2  0  0  0
 18101  1  0  0  0
 19 20  1  0  0  0
 19 24  1  0  0  0
 20 21  2  0  0  0
 20102  1  0  0  0
 21 23  1  0  0  0
 22 28  1  0  0  0
 22 32  2  0  0  0
 26 27  1  0  0  0
 28103  1  0  0  0
 28104  1  0  0  0
 29105  1  0  0  0
 29106  1  0  0  0
 33 34  1  0  0  0
 33 66  1  0  0  0
 33 70  2  0  0  0
 34 36  1  0  0  0
 34 59  1  0  0  0
 34107  1  0  0  0
 35 44  2  0  0  0
 35 45  1  0  0  0
 35 68  1  0  0  0
 36 56  1  0  0  0
 36108  1  0  0  0
 37 39  1  0  0  0
 37 47  1  0  0  0
 37 66  1  0  0  0
 37109  1  0  0  0
 38 43  2  0  0  0
 38 46  1  0  0  0
 38 47  1  0  0  0
 39 64  1  0  0  0
 39 67  2  0  0  0
 40 52  1  0  0  0
 40 53  2  0  0  0
 40 58  1  0  0  0
 41110  1  0  0  0
 41111  1  0  0  0
 41112  1  0  0  0
 41 48  1  0  0  0
 42 43  1  0  0  0
 42 66  1  0  0  0
 42113  1  0  0  0
 42114  1  0  0  0
 43 44  1  0  0  0
 44115  1  0  0  0
 45 46  2  0  0  0
 45116  1  0  0  0
 46117  1  0  0  0
 47118  1  0  0  0
 47119  1  0  0  0
 48 56  1  0  0  0
 48 65  1  0  0  0
 48120  1  0  0  0
 49 50  1  0  0  0
 49 53  1  0  0  0
 49 64  1  0  0  0
 49121  1  0  0  0
 50 51  1  0  0  0
 50122  1  0  0  0
 50123  1  0  0  0
 51 52  1  0  0  0
 51124  1  0  0  0
 51125  1  0  0  0
 52126  1  0  0  0
 52127  1  0  0  0
 53 54  1  0  0  0
 54 55  2  0  0  0
 54128  1  0  0  0
 55 57  1  0  0  0
 55129  1  0  0  0
 56 69  2  0  0  0
 57 58  2  0  0  0
 57130  1  0  0  0
 58131  1  0  0  0
 59 60  1  0  0  0
 59 61  1  0  0  0
 59 62  1  0  0  0
 60132  1  0  0  0
 60133  1  0  0  0
 60134  1  0  0  0
 61135  1  0  0  0
 61136  1  0  0  0
 61137  1  0  0  0
 62138  1  0  0  0
 62139  1  0  0  0
 62140  1  0  0  0
 63 65  1  0  0  0
 63141  1  0  0  0
 63142  1  0  0  0
 63143  1  0  0  0
 64144  1  0  0  0
 65145  1  0  0  0
 68 83  1  0  0  0
 71 72  2  0  0  0
 71 75  1  0  0  0
 71146  1  0  0  0
 72 73  1  0  0  0
 72 78  1  0  0  0
 73 76  2  0  0  0
 73 77  1  0  0  0
 74 75  2  0  0  0
 74 76  1  0  0  0
 74 79  1  0  0  0
 75 85  1  0  0  0
 76 86  1  0  0  0
 77147  1  0  0  0
 77148  1  0  0  0
 77149  1  0  0  0
 78 80  1  0  0  0
 78150  1  0  0  0
 78151  1  0  0  0
 79 81  1  0  0  0
 79152  1  0  0  0
 79153  1  0  0  0
 80 83  1  0  0  0
 80154  1  0  0  0
 80155  1  0  0  0
 81 82  1  0  0  0
 81156  1  0  0  0
 81157  1  0  0  0
 82 84  1  0  0  0
 82158  1  0  0  0
 82159  1  0  0  0
 83160  1  0  0  0
 83161  1  0  0  0
 84162  1  0  0  0
M  ISO  4   1 100  68 101  83 101  84 100
M  END
> <chiral flag>
0

> <version>
0

> <s_m_source_file>
/data/baiqing/PycharmProjects/Reinvent-master-3.2/result/LINK_invent/BTK/process_docking_weight1_custom_sum_contain_oxygen_bond_distance_aromatic_linkinvent_7_9_3/rearranged_h_0026.sdf

> <i_m_source_file_index>
34

> <r_mmod_Potential_Energy-OPLS-2005>
255.75325012207

> <r_mmod_Stretch_Energy-OPLS-2005>
46.5355987548828

> <r_mmod_Bend_Energy-OPLS-2005>
158.879592895508

> <r_mmod_Torsional_Energy-OPLS-2005>
365.51513671875

> <r_mmod_Improper_Torsional_Energy-OPLS-2005>
38.9368209838867

> <r_mmod_Van_der_Waal_Energy-OPLS-2005>
171.733184814453

> <r_mmod_Electrostatic_Energy-OPLS-2005>
-386.876373291016

> <r_mmod_Solvation_Energy-OPLS-2005>
-194.226959228516

> <b_mmod_Minimization_Converged-OPLS-2005>
0

> <r_mmod_RMS_Derivative-OPLS-2005>
19.4066619873047

$$$$
34
                    3D
 Structure written by MMmdl.
156164  0  0  1  0            999 V2000
  -30.5146  -14.9858   20.4040 C   0  0  0  0  0  0
  -30.4414  -12.6007   19.5330 C   0  0  0  0  0  0
  -29.5342  -12.5366   18.2799 C   0  0  0  0  0  0
  -28.0652  -12.3219   18.6867 C   0  0  0  0  0  0
  -27.6340  -13.2541   19.8500 C   0  0  2  0  0  0
  -28.6682  -13.2879   20.9975 C   0  0  0  0  0  0
  -25.2463  -13.8233   20.5721 C   0  0  0  0  0  0
  -24.1775  -13.0450   20.9217 C   0  0  0  0  0  0
  -24.6401  -11.6936   20.8749 C   0  0  0  0  0  0
  -23.9090  -10.4298   21.0403 C   0  0  0  0  0  0
  -24.3641   -9.4210   21.9179 C   0  0  0  0  0  0
  -23.6305   -8.2247   22.0759 C   0  0  0  0  0  0
  -22.4282   -8.0289   21.3550 C   0  0  0  0  0  0
  -21.9917   -9.0265   20.4653 C   0  0  0  0  0  0
  -22.7260  -10.2134   20.3055 C   0  0  0  0  0  0
  -21.6848   -6.0737   22.5277 C   0  0  0  0  0  0
  -21.4022   -6.5644   23.8211 C   0  0  0  0  0  0
  -21.3660   -5.6796   24.9175 C   0  0  0  0  0  0
  -21.6042   -4.3057   24.7226 C   0  0  0  0  0  0
  -21.8818   -3.8150   23.4345 C   0  0  0  0  0  0
  -21.9193   -4.6965   22.3400 C   0  0  0  0  0  0
  -22.7790  -13.5214   21.1870 C   0  0  0  0  0  0
  -22.1657   -4.2152   21.0977 F   0  0  0  0  0  0
  -21.5625   -3.4543   25.7736 F   0  0  0  0  0  0
  -29.9524  -13.7045   20.4177 N   0  0  0  0  0  0
  -26.2903  -12.9477   20.3284 N   0  0  0  0  0  0
  -25.9339  -11.6603   20.5744 N   0  0  0  0  0  0
  -22.0443  -12.8203   22.0429 N   0  0  0  0  0  0
  -25.4127  -15.1962   20.4141 N   0  0  0  0  0  0
  -31.6791  -15.0650   19.9991 O   0  0  0  0  0  0
  -21.6647   -6.8886   21.4240 O   0  0  0  0  0  0
  -22.3467  -14.5514   20.6710 O   0  0  0  0  0  0
  -24.6438  -31.8383   23.1826 C   0  0  0  0  0  0
  -25.9197  -32.4659   23.8232 C   0  0  1  0  0  0
  -27.2321  -27.1057   20.1598 C   0  0  0  0  0  0
  -25.5938  -33.8469   24.2148 N   0  0  0  0  0  0
  -23.4505  -30.4524   21.5267 C   0  0  2  0  0  0
  -24.9041  -28.8664   20.1051 C   0  0  0  0  0  0
  -22.7572  -29.4500   22.4831 C   0  0  0  0  0  0
  -18.0306  -28.1394   22.8472 C   0  0  0  0  0  0
  -24.1495  -36.7249   23.2646 C   0  0  0  0  0  0
  -26.0054  -30.7020   21.3851 C   0  0  0  0  0  0
  -26.0768  -29.3087   20.7283 C   0  0  0  0  0  0
  -27.2347  -28.4426   20.7388 C   0  0  0  0  0  0
  -26.0352  -26.7644   19.4949 C   0  0  0  0  0  0
  -24.8983  -27.6102   19.4726 C   0  0  0  0  0  0
  -23.6790  -29.7709   20.1480 C   0  0  0  0  0  0
  -25.4127  -36.3007   24.0308 C   0  0  1  0  0  0
  -20.5916  -28.3717   23.1231 C   0  0  2  0  0  0
  -20.6782  -26.9413   22.5409 C   0  0  0  0  0  0
  -19.5762  -26.6371   21.5211 C   0  0  0  0  0  0
  -18.1942  -26.7932   22.1617 C   0  0  0  0  0  0
  -19.1563  -28.8874   23.2843 C   0  0  0  0  0  0
  -18.9478  -30.1468   23.8870 C   0  0  0  0  0  0
  -17.6473  -30.6586   24.0554 C   0  0  0  0  0  0
  -25.9073  -34.9386   23.5041 C   0  0  0  0  0  0
  -16.5364  -29.9076   23.6334 C   0  0  0  0  0  0
  -16.7289  -28.6497   23.0353 C   0  0  0  0  0  0
  -26.4520  -31.6552   25.0694 C   0  0  0  0  0  0
  -25.3712  -31.3750   26.1398 C   0  0  0  0  0  0
  -27.0392  -30.2942   24.6306 C   0  0  0  0  0  0
  -27.6031  -32.4344   25.7488 C   0  0  0  0  0  0
  -27.5570  -37.1781   24.8464 C   0  0  0  0  0  0
  -21.4262  -29.3033   22.3592 N   0  0  0  0  0  0
  -26.4283  -37.3723   23.9398 N   0  0  0  0  0  0
  -24.7192  -31.0206   22.0864 N   0  0  0  0  0  0
  -23.4206  -28.8070   23.3002 O   0  0  0  0  0  0
  -28.3088  -26.1467   20.2937 O   0  0  0  0  0  0
  -26.5670  -34.8891   22.4627 O   0  0  0  0  0  0
  -23.5550  -32.1270   23.7038 O   0  0  0  0  0  0
  -30.6129  -21.9635   20.7166 C   0  0  0  0  0  0
  -28.8730  -20.3403   20.2991 C   0  0  0  0  0  0
  -29.2382  -21.7844   20.4624 C   0  0  0  0  0  0
  -31.5340  -20.8872   20.8096 C   0  0  0  0  0  0
  -29.7955  -19.1592   20.3878 C   0  0  0  0  0  0
  -31.1381  -19.5249   20.6566 C   0  0  0  0  0  0
  -33.4362  -21.0278   22.5108 C   0  0  0  0  0  0
  -28.2908  -23.1576   20.5799 C   0  0  0  0  0  0
  -32.9990  -21.2370   21.0544 C   0  0  0  0  0  0
  -29.4971  -17.5688   19.9655 C   0  0  0  0  0  0
  -28.4373  -24.6618   19.7852 C   0  0  0  0  0  0
  -29.7347  -16.1543   20.6752 N   0  0  0  0  0  0
  -32.3440  -18.2845   20.7317 Cl  0  0  0  0  0  0
  -31.4799  -12.7453   19.2319 H   0  0  0  0  0  0
  -30.4249  -11.6505   20.0691 H   0  0  0  0  0  0
  -29.8607  -11.7341   17.6167 H   0  0  0  0  0  0
  -29.6287  -13.4622   17.7095 H   0  0  0  0  0  0
  -27.9591  -11.2805   18.9938 H   0  0  0  0  0  0
  -27.4071  -12.4536   17.8269 H   0  0  0  0  0  0
  -27.5985  -14.2568   19.4232 H   0  0  0  0  0  0
  -28.7490  -12.3133   21.4825 H   0  0  0  0  0  0
  -28.3562  -13.9898   21.7720 H   0  0  0  0  0  0
  -25.2783   -9.5676   22.4760 H   0  0  0  0  0  0
  -24.0004   -7.4636   22.7481 H   0  0  0  0  0  0
  -21.0842   -8.8799   19.8961 H   0  0  0  0  0  0
  -22.3727  -10.9679   19.6172 H   0  0  0  0  0  0
  -21.2021   -7.6153   23.9716 H   0  0  0  0  0  0
  -21.1481   -6.0526   25.9075 H   0  0  0  0  0  0
  -22.0594   -2.7611   23.2847 H   0  0  0  0  0  0
  -22.4064  -11.9890   22.4854 H   0  0  0  0  0  0
  -21.1054  -13.1218   22.2625 H   0  0  0  0  0  0
  -24.6437  -15.8479   20.5272 H   0  0  0  0  0  0
  -26.2538  -15.6352   20.0646 H   0  0  0  0  0  0
  -26.7258  -32.5250   23.0954 H   0  0  0  0  0  0
  -25.0050  -33.9575   25.0271 H   0  0  0  0  0  0
  -22.7543  -31.2779   21.3660 H   0  0  0  0  0  0
  -23.3745  -35.9591   23.3300 H   0  0  0  0  0  0
  -24.3571  -36.8894   22.2060 H   0  0  0  0  0  0
  -23.7271  -37.6449   23.6696 H   0  0  0  0  0  0
  -26.1640  -31.4546   20.6116 H   0  0  0  0  0  0
  -26.8742  -30.7546   22.0295 H   0  0  0  0  0  0
  -28.1255  -28.7741   21.2537 H   0  0  0  0  0  0
  -25.9483  -25.7950   19.0270 H   0  0  0  0  0  0
  -24.0011  -27.2661   18.9766 H   0  0  0  0  0  0
  -23.8149  -30.5415   19.3885 H   0  0  0  0  0  0
  -22.7944  -29.2110   19.8387 H   0  0  0  0  0  0
  -25.1321  -36.1824   25.0799 H   0  0  0  0  0  0
  -21.0011  -28.3314   24.1352 H   0  0  0  0  0  0
  -20.5663  -26.2328   23.3634 H   0  0  0  0  0  0
  -21.6648  -26.7405   22.1217 H   0  0  0  0  0  0
  -19.6919  -25.6275   21.1260 H   0  0  0  0  0  0
  -19.6703  -27.3163   20.6730 H   0  0  0  0  0  0
  -17.4210  -26.6674   21.4021 H   0  0  0  0  0  0
  -18.0340  -26.0081   22.9022 H   0  0  0  0  0  0
  -19.7952  -30.7293   24.2227 H   0  0  0  0  0  0
  -17.5023  -31.6265   24.5160 H   0  0  0  0  0  0
  -15.5362  -30.2968   23.7674 H   0  0  0  0  0  0
  -15.8691  -28.0805   22.7085 H   0  0  0  0  0  0
  -24.5890  -30.7094   25.7731 H   0  0  0  0  0  0
  -24.8909  -32.2937   26.4775 H   0  0  0  0  0  0
  -25.8010  -30.8961   27.0207 H   0  0  0  0  0  0
  -26.3010  -29.6655   24.1314 H   0  0  0  0  0  0
  -27.3982  -29.7252   25.4893 H   0  0  0  0  0  0
  -27.8927  -30.4153   23.9635 H   0  0  0  0  0  0
  -27.2591  -33.3657   26.1997 H   0  0  0  0  0  0
  -28.3879  -32.6892   25.0354 H   0  0  0  0  0  0
  -28.0662  -31.8528   26.5468 H   0  0  0  0  0  0
  -28.2584  -38.0078   24.7477 H   0  0  0  0  0  0
  -28.1067  -36.2602   24.6330 H   0  0  0  0  0  0
  -27.2281  -37.1476   25.8866 H   0  0  0  0  0  0
  -20.9479  -29.8732   21.6754 H   0  0  0  0  0  0
  -26.0146  -38.2787   24.1391 H   0  0  0  0  0  0
  -30.9750  -22.9703   20.8734 H   0  0  0  0  0  0
  -27.8342  -20.1263   20.0890 H   0  0  0  0  0  0
  -34.4854  -21.2954   22.6414 H   0  0  0  0  0  0
  -33.3240  -19.9882   22.8192 H   0  0  0  0  0  0
  -32.8494  -21.6449   23.1911 H   0  0  0  0  0  0
  -28.3498  -23.4032   21.6406 H   0  0  0  0  0  0
  -27.2593  -22.8296   20.4500 H   0  0  0  0  0  0
  -33.1767  -22.2763   20.7744 H   0  0  0  0  0  0
  -33.6323  -20.6527   20.3862 H   0  0  0  0  0  0
  -29.9776  -17.4617   18.9926 H   0  0  0  0  0  0
  -28.4342  -17.5597   19.7241 H   0  0  0  0  0  0
  -27.8861  -24.5879   18.8480 H   0  0  0  0  0  0
  -29.4749  -24.6577   19.4514 H   0  0  0  0  0  0
  -28.9202  -15.8971   21.2134 H   0  0  0  0  0  0
  1 25  1  0  0  0
  1 30  2  0  0  0
  1 82  1  0  0  0
  2  3  1  0  0  0
  2 25  1  0  0  0
  2 84  1  0  0  0
  2 85  1  0  0  0
  3  4  1  0  0  0
  3 86  1  0  0  0
  3 87  1  0  0  0
  4  5  1  0  0  0
  4 88  1  0  0  0
  4 89  1  0  0  0
  5  6  1  0  0  0
  5 26  1  0  0  0
  5 90  1  0  0  0
  6 25  1  0  0  0
  6 91  1  0  0  0
  6 92  1  0  0  0
  7  8  2  0  0  0
  7 26  1  0  0  0
  7 29  1  0  0  0
  8  9  1  0  0  0
  8 22  1  0  0  0
  9 10  1  0  0  0
  9 27  2  0  0  0
 10 11  2  0  0  0
 10 15  1  0  0  0
 11 12  1  0  0  0
 11 93  1  0  0  0
 12 13  2  0  0  0
 12 94  1  0  0  0
 13 14  1  0  0  0
 13 31  1  0  0  0
 14 15  2  0  0  0
 14 95  1  0  0  0
 15 96  1  0  0  0
 16 17  2  0  0  0
 16 21  1  0  0  0
 16 31  1  0  0  0
 17 18  1  0  0  0
 17 97  1  0  0  0
 18 19  2  0  0  0
 18 98  1  0  0  0
 19 20  1  0  0  0
 19 24  1  0  0  0
 20 21  2  0  0  0
 20 99  1  0  0  0
 21 23  1  0  0  0
 22 28  1  0  0  0
 22 32  2  0  0  0
 26 27  1  0  0  0
 28100  1  0  0  0
 28101  1  0  0  0
 29102  1  0  0  0
 29103  1  0  0  0
 33 34  1  0  0  0
 33 66  1  0  0  0
 33 70  2  0  0  0
 34 36  1  0  0  0
 34 59  1  0  0  0
 34104  1  0  0  0
 35 44  2  0  0  0
 35 45  1  0  0  0
 35 68  1  0  0  0
 36 56  1  0  0  0
 36105  1  0  0  0
 37 39  1  0  0  0
 37 47  1  0  0  0
 37 66  1  0  0  0
 37106  1  0  0  0
 38 43  2  0  0  0
 38 46  1  0  0  0
 38 47  1  0  0  0
 39 64  1  0  0  0
 39 67  2  0  0  0
 40 52  1  0  0  0
 40 53  2  0  0  0
 40 58  1  0  0  0
 41107  1  0  0  0
 41108  1  0  0  0
 41109  1  0  0  0
 41 48  1  0  0  0
 42 43  1  0  0  0
 42 66  1  0  0  0
 42110  1  0  0  0
 42111  1  0  0  0
 43 44  1  0  0  0
 44112  1  0  0  0
 45 46  2  0  0  0
 45113  1  0  0  0
 46114  1  0  0  0
 47115  1  0  0  0
 47116  1  0  0  0
 48 56  1  0  0  0
 48 65  1  0  0  0
 48117  1  0  0  0
 49 50  1  0  0  0
 49 53  1  0  0  0
 49 64  1  0  0  0
 49118  1  0  0  0
 50 51  1  0  0  0
 50119  1  0  0  0
 50120  1  0  0  0
 51 52  1  0  0  0
 51121  1  0  0  0
 51122  1  0  0  0
 52123  1  0  0  0
 52124  1  0  0  0
 53 54  1  0  0  0
 54 55  2  0  0  0
 54125  1  0  0  0
 55 57  1  0  0  0
 55126  1  0  0  0
 56 69  2  0  0  0
 57 58  2  0  0  0
 57127  1  0  0  0
 58128  1  0  0  0
 59 60  1  0  0  0
 59 61  1  0  0  0
 59 62  1  0  0  0
 60129  1  0  0  0
 60130  1  0  0  0
 60131  1  0  0  0
 61132  1  0  0  0
 61133  1  0  0  0
 61134  1  0  0  0
 62135  1  0  0  0
 62136  1  0  0  0
 62137  1  0  0  0
 63 65  1  0  0  0
 63138  1  0  0  0
 63139  1  0  0  0
 63140  1  0  0  0
 64141  1  0  0  0
 65142  1  0  0  0
 68 81  1  0  0  0
 71 73  2  0  0  0
 71 74  1  0  0  0
 71143  1  0  0  0
 72 73  1  0  0  0
 72 75  2  0  0  0
 72144  1  0  0  0
 73 78  1  0  0  0
 74 76  2  0  0  0
 74 79  1  0  0  0
 75 76  1  0  0  0
 75 80  1  0  0  0
 76 83  1  0  0  0
 77 79  1  0  0  0
 77145  1  0  0  0
 77146  1  0  0  0
 77147  1  0  0  0
 78 81  1  0  0  0
 78148  1  0  0  0
 78149  1  0  0  0
 79150  1  0  0  0
 79151  1  0  0  0
 80 82  1  0  0  0
 80152  1  0  0  0
 80153  1  0  0  0
 81154  1  0  0  0
 81155  1  0  0  0
 82156  1  0  0  0
M  ISO  4   1 100  68 101  81 101  82 100
M  END
> <chiral flag>
0

> <version>
0

> <s_m_source_file>
/data/baiqing/PycharmProjects/Reinvent-master-3.2/result/LINK_invent/BTK/process_docking_weight1_custom_sum_contain_oxygen_bond_distance_aromatic_linkinvent_7_9_3/rearranged_h_0026.sdf

> <i_m_source_file_index>
35

> <r_mmod_Potential_Energy-OPLS-2005>
641.440246582031

> <r_mmod_Stretch_Energy-OPLS-2005>
303.157012939453

> <r_mmod_Bend_Energy-OPLS-2005>
331.856536865234

> <r_mmod_Torsional_Energy-OPLS-2005>
232.377639770508

> <r_mmod_Improper_Torsional_Energy-OPLS-2005>
7.95365715026855

> <r_mmod_Van_der_Waal_Energy-OPLS-2005>
124.979042053223

> <r_mmod_Electrostatic_Energy-OPLS-2005>
-360.05810546875

> <r_mmod_Solvation_Energy-OPLS-2005>
-217.705551147461

> <b_mmod_Minimization_Converged-OPLS-2005>
0

> <r_mmod_RMS_Derivative-OPLS-2005>
1.42022788524628

$$$$
35
                    3D
 Structure written by MMmdl.
175185  0  0  1  0            999 V2000
  -30.5541  -15.0170   20.3762 C   0  0  0  0  0  0
  -30.4370  -12.6399   19.4745 C   0  0  0  0  0  0
  -29.5107  -12.5075   18.2438 C   0  0  0  0  0  0
  -28.0517  -12.2894   18.6820 C   0  0  0  0  0  0
  -27.6210  -13.2428   19.8265 C   0  0  2  0  0  0
  -28.6740  -13.3441   20.9477 C   0  0  0  0  0  0
  -25.2465  -13.8207   20.5744 C   0  0  0  0  0  0
  -24.1773  -13.0446   20.9249 C   0  0  0  0  0  0
  -24.6383  -11.6927   20.8780 C   0  0  0  0  0  0
  -23.9065  -10.4300   21.0411 C   0  0  0  0  0  0
  -24.3626   -9.4218   21.9179 C   0  0  0  0  0  0
  -23.6306   -8.2247   22.0739 C   0  0  0  0  0  0
  -22.4291   -8.0273   21.3530 C   0  0  0  0  0  0
  -21.9928   -9.0248   20.4637 C   0  0  0  0  0  0
  -22.7246  -10.2133   20.3054 C   0  0  0  0  0  0
  -21.6854   -6.0732   22.5276 C   0  0  0  0  0  0
  -21.4013   -6.5637   23.8209 C   0  0  0  0  0  0
  -21.3679   -5.6789   24.9176 C   0  0  0  0  0  0
  -21.6052   -4.3048   24.7218 C   0  0  0  0  0  0
  -21.8822   -3.8142   23.4339 C   0  0  0  0  0  0
  -21.9193   -4.6961   22.3400 C   0  0  0  0  0  0
  -22.7797  -13.5226   21.1877 C   0  0  0  0  0  0
  -22.1653   -4.2152   21.0975 F   0  0  0  0  0  0
  -21.5647   -3.4522   25.7723 F   0  0  0  0  0  0
  -29.9229  -13.7713   20.3016 N   0  0  0  0  0  0
  -26.2863  -12.9411   20.3264 N   0  0  0  0  0  0
  -25.9317  -11.6551   20.5780 N   0  0  0  0  0  0
  -22.0419  -12.8227   22.0419 N   0  0  0  0  0  0
  -25.4193  -15.1929   20.4216 N   0  0  0  0  0  0
  -31.7878  -14.9857   20.2809 O   0  0  0  0  0  0
  -21.6649   -6.8873   21.4235 O   0  0  0  0  0  0
  -22.3502  -14.5528   20.6703 O   0  0  0  0  0  0
  -24.6469  -31.8397   23.1815 C   0  0  0  0  0  0
  -25.9222  -32.4671   23.8224 C   0  0  1  0  0  0
  -27.2216  -27.0890   20.1760 C   0  0  0  0  0  0
  -25.5956  -33.8479   24.2145 N   0  0  0  0  0  0
  -23.4535  -30.4540   21.5289 C   0  0  2  0  0  0
  -24.9032  -28.8611   20.1200 C   0  0  0  0  0  0
  -22.7582  -29.4528   22.4860 C   0  0  0  0  0  0
  -18.0310  -28.1395   22.8478 C   0  0  0  0  0  0
  -24.1495  -36.7250   23.2645 C   0  0  0  0  0  0
  -26.0113  -30.6991   21.3844 C   0  0  0  0  0  0
  -26.0829  -29.3026   20.7335 C   0  0  0  0  0  0
  -27.2446  -28.4366   20.7330 C   0  0  0  0  0  0
  -26.0122  -26.7471   19.5372 C   0  0  0  0  0  0
  -24.8819  -27.5977   19.5056 C   0  0  0  0  0  0
  -23.6826  -29.7710   20.1536 C   0  0  0  0  0  0
  -25.4131  -36.3020   24.0310 C   0  0  1  0  0  0
  -20.5924  -28.3726   23.1233 C   0  0  2  0  0  0
  -20.6793  -26.9427   22.5411 C   0  0  0  0  0  0
  -19.5766  -26.6377   21.5220 C   0  0  0  0  0  0
  -18.1946  -26.7936   22.1623 C   0  0  0  0  0  0
  -19.1568  -28.8879   23.2848 C   0  0  0  0  0  0
  -18.9480  -30.1475   23.8874 C   0  0  0  0  0  0
  -17.6475  -30.6592   24.0557 C   0  0  0  0  0  0
  -25.9084  -34.9399   23.5042 C   0  0  0  0  0  0
  -16.5367  -29.9085   23.6334 C   0  0  0  0  0  0
  -16.7293  -28.6504   23.0355 C   0  0  0  0  0  0
  -26.4515  -31.6559   25.0695 C   0  0  0  0  0  0
  -25.3675  -31.3785   26.1375 C   0  0  0  0  0  0
  -27.0383  -30.2945   24.6320 C   0  0  0  0  0  0
  -27.6037  -32.4332   25.7493 C   0  0  0  0  0  0
  -27.5575  -37.1783   24.8460 C   0  0  0  0  0  0
  -21.4272  -29.3041   22.3594 N   0  0  0  0  0  0
  -26.4289  -37.3736   23.9399 N   0  0  0  0  0  0
  -24.7245  -31.0204   22.0868 N   0  0  0  0  0  0
  -23.4202  -28.8091   23.3039 O   0  0  0  0  0  0
  -28.2943  -26.1139   20.1698 O   0  0  0  0  0  0
  -26.5678  -34.8907   22.4628 O   0  0  0  0  0  0
  -23.5574  -32.1292   23.7009 O   0  0  0  0  0  0
  -28.5697  -20.3093   20.1857 C   0  0  0  0  0  0
  -29.5065  -19.1850   20.5082 C   0  0  0  0  0  0
  -30.6444  -19.9271   20.7361 C   0  0  0  0  0  0
  -29.1048  -21.6355   20.2206 C   0  0  0  0  0  0
  -31.9893  -19.4042   21.1573 C   0  0  0  0  0  0
  -33.1298  -20.4287   21.0575 C   0  0  0  0  0  0
  -29.5931  -17.7315   15.8556 C   0  0  0  0  0  0
  -30.9867  -17.4395   16.4415 C   0  0  0  0  0  0
  -28.5441  -16.7410   16.3864 C   0  0  0  0  0  0
  -30.9611  -17.4329   17.9833 C   0  0  0  0  0  0
  -28.4961  -16.7785   17.9225 C   0  0  0  0  0  0
  -31.4874  -22.3246   20.7042 C   0  0  0  0  0  0
  -29.8862  -16.4519   18.5045 C   0  0  0  0  0  0
  -32.6978  -21.8287   21.5178 C   0  0  1  0  0  0
  -29.3510  -17.5193   20.7657 C   0  0  0  0  0  0
  -28.6760  -23.1903   19.7460 C   0  0  0  0  0  0
  -28.1726  -24.5934   20.5850 C   0  0  0  0  0  0
  -30.4244  -21.3250   20.5844 N   0  0  0  0  0  0
  -29.8817  -16.2360   19.9738 N   0  0  0  0  0  0
  -32.3765  -21.7888   22.9006 O   0  0  0  0  0  0
  -31.4646  -12.8076   19.1445 H   0  0  0  0  0  0
  -30.4512  -11.7144   20.0526 H   0  0  0  0  0  0
  -29.8384  -11.6804   17.6139 H   0  0  0  0  0  0
  -29.5738  -13.4009   17.6222 H   0  0  0  0  0  0
  -27.9638  -11.2550   19.0175 H   0  0  0  0  0  0
  -27.3806  -12.3882   17.8271 H   0  0  0  0  0  0
  -27.5603  -14.2256   19.3691 H   0  0  0  0  0  0
  -28.7953  -12.3958   21.4717 H   0  0  0  0  0  0
  -28.3692  -14.0823   21.6909 H   0  0  0  0  0  0
  -25.2755   -9.5700   22.4771 H   0  0  0  0  0  0
  -24.0012   -7.4646   22.7467 H   0  0  0  0  0  0
  -21.0849   -8.8777   19.8948 H   0  0  0  0  0  0
  -22.3689  -10.9682   19.6179 H   0  0  0  0  0  0
  -21.1986   -7.6140   23.9715 H   0  0  0  0  0  0
  -21.1506   -6.0510   25.9084 H   0  0  0  0  0  0
  -22.0581   -2.7599   23.2834 H   0  0  0  0  0  0
  -22.4040  -11.9932   22.4880 H   0  0  0  0  0  0
  -21.1027  -13.1258   22.2571 H   0  0  0  0  0  0
  -24.6576  -15.8506   20.5492 H   0  0  0  0  0  0
  -26.2802  -15.6327   20.1254 H   0  0  0  0  0  0
  -26.7296  -32.5261   23.0953 H   0  0  0  0  0  0
  -25.0047  -33.9574   25.0255 H   0  0  0  0  0  0
  -22.7592  -31.2813   21.3665 H   0  0  0  0  0  0
  -23.3759  -35.9579   23.3296 H   0  0  0  0  0  0
  -24.3574  -36.8899   22.2060 H   0  0  0  0  0  0
  -23.7246  -37.6441   23.6695 H   0  0  0  0  0  0
  -26.1682  -31.4471   20.6057 H   0  0  0  0  0  0
  -26.8805  -30.7549   22.0283 H   0  0  0  0  0  0
  -28.1504  -28.7770   21.2146 H   0  0  0  0  0  0
  -25.9299  -25.7759   19.0707 H   0  0  0  0  0  0
  -23.9804  -27.2512   19.0194 H   0  0  0  0  0  0
  -23.8238  -30.5382   19.3919 H   0  0  0  0  0  0
  -22.7965  -29.2143   19.8446 H   0  0  0  0  0  0
  -25.1325  -36.1839   25.0801 H   0  0  0  0  0  0
  -21.0016  -28.3318   24.1354 H   0  0  0  0  0  0
  -20.5679  -26.2343   23.3632 H   0  0  0  0  0  0
  -21.6658  -26.7423   22.1208 H   0  0  0  0  0  0
  -19.6926  -25.6279   21.1266 H   0  0  0  0  0  0
  -19.6707  -27.3171   20.6737 H   0  0  0  0  0  0
  -17.4220  -26.6688   21.4020 H   0  0  0  0  0  0
  -18.0339  -26.0081   22.9018 H   0  0  0  0  0  0
  -19.7959  -30.7300   24.2226 H   0  0  0  0  0  0
  -17.5029  -31.6269   24.5167 H   0  0  0  0  0  0
  -15.5364  -30.2973   23.7680 H   0  0  0  0  0  0
  -15.8695  -28.0812   22.7080 H   0  0  0  0  0  0
  -24.5858  -30.7133   25.7686 H   0  0  0  0  0  0
  -24.8856  -32.2984   26.4701 H   0  0  0  0  0  0
  -25.7923  -30.9012   27.0215 H   0  0  0  0  0  0
  -26.3010  -29.6657   24.1316 H   0  0  0  0  0  0
  -27.3956  -29.7264   25.4917 H   0  0  0  0  0  0
  -27.8933  -30.4156   23.9667 H   0  0  0  0  0  0
  -27.2624  -33.3657   26.1997 H   0  0  0  0  0  0
  -28.3890  -32.6850   25.0356 H   0  0  0  0  0  0
  -28.0655  -31.8503   26.5468 H   0  0  0  0  0  0
  -28.2588  -38.0083   24.7501 H   0  0  0  0  0  0
  -28.1078  -36.2613   24.6299 H   0  0  0  0  0  0
  -27.2295  -37.1440   25.8864 H   0  0  0  0  0  0
  -20.9497  -29.8732   21.6745 H   0  0  0  0  0  0
  -26.0156  -38.2808   24.1388 H   0  0  0  0  0  0
  -27.5341  -20.1383   19.9228 H   0  0  0  0  0  0
  -32.2475  -18.5220   20.5708 H   0  0  0  0  0  0
  -31.9181  -19.0552   22.1886 H   0  0  0  0  0  0
  -33.4373  -20.4991   20.0126 H   0  0  0  0  0  0
  -34.0061  -20.0803   21.6061 H   0  0  0  0  0  0
  -29.6255  -17.6915   14.7656 H   0  0  0  0  0  0
  -29.2944  -18.7484   16.1162 H   0  0  0  0  0  0
  -31.6993  -18.1832   16.0821 H   0  0  0  0  0  0
  -31.3392  -16.4754   16.0721 H   0  0  0  0  0  0
  -28.7847  -15.7312   16.0487 H   0  0  0  0  0  0
  -27.5613  -16.9733   15.9745 H   0  0  0  0  0  0
  -30.7648  -18.4454   18.3289 H   0  0  0  0  0  0
  -31.9458  -17.1621   18.3670 H   0  0  0  0  0  0
  -27.7523  -16.0660   18.2706 H   0  0  0  0  0  0
  -28.1590  -17.7612   18.2514 H   0  0  0  0  0  0
  -31.8167  -22.5740   19.6948 H   0  0  0  0  0  0
  -31.0874  -23.2432   21.1363 H   0  0  0  0  0  0
  -30.1531  -15.5017   18.0400 H   0  0  0  0  0  0
  -33.5271  -22.5245   21.3861 H   0  0  0  0  0  0
  -28.2775  -17.3538   20.8470 H   0  0  0  0  0  0
  -29.7111  -17.3709   21.7843 H   0  0  0  0  0  0
  -27.9214  -23.0575   18.9703 H   0  0  0  0  0  0
  -29.5336  -23.5444   19.1755 H   0  0  0  0  0  0
  -28.7338  -24.5685   21.5193 H   0  0  0  0  0  0
  -27.1424  -24.4246   20.8992 H   0  0  0  0  0  0
  -31.5640  -21.2965   22.9792 H   0  0  0  0  0  0
  1 25  1  0  0  0
  1 30  2  0  0  0
  1 89  1  0  0  0
  2  3  1  0  0  0
  2 25  1  0  0  0
  2 91  1  0  0  0
  2 92  1  0  0  0
  3  4  1  0  0  0
  3 93  1  0  0  0
  3 94  1  0  0  0
  4  5  1  0  0  0
  4 95  1  0  0  0
  4 96  1  0  0  0
  5  6  1  0  0  0
  5 26  1  0  0  0
  5 97  1  0  0  0
  6 25  1  0  0  0
  6 98  1  0  0  0
  6 99  1  0  0  0
  7  8  2  0  0  0
  7 26  1  0  0  0
  7 29  1  0  0  0
  8  9  1  0  0  0
  8 22  1  0  0  0
  9 10  1  0  0  0
  9 27  2  0  0  0
 10 11  2  0  0  0
 10 15  1  0  0  0
 11 12  1  0  0  0
 11100  1  0  0  0
 12 13  2  0  0  0
 12101  1  0  0  0
 13 14  1  0  0  0
 13 31  1  0  0  0
 14 15  2  0  0  0
 14102  1  0  0  0
 15103  1  0  0  0
 16 17  2  0  0  0
 16 21  1  0  0  0
 16 31  1  0  0  0
 17 18  1  0  0  0
 17104  1  0  0  0
 18 19  2  0  0  0
 18105  1  0  0  0
 19 20  1  0  0  0
 19 24  1  0  0  0
 20 21  2  0  0  0
 20106  1  0  0  0
 21 23  1  0  0  0
 22 28  1  0  0  0
 22 32  2  0  0  0
 26 27  1  0  0  0
 28107  1  0  0  0
 28108  1  0  0  0
 29109  1  0  0  0
 29110  1  0  0  0
 33 34  1  0  0  0
 33 66  1  0  0  0
 33 70  2  0  0  0
 34 36  1  0  0  0
 34 59  1  0  0  0
 34111  1  0  0  0
 35 44  2  0  0  0
 35 45  1  0  0  0
 35 68  1  0  0  0
 36 56  1  0  0  0
 36112  1  0  0  0
 37 39  1  0  0  0
 37 47  1  0  0  0
 37 66  1  0  0  0
 37113  1  0  0  0
 38 43  2  0  0  0
 38 46  1  0  0  0
 38 47  1  0  0  0
 39 64  1  0  0  0
 39 67  2  0  0  0
 40 52  1  0  0  0
 40 53  2  0  0  0
 40 58  1  0  0  0
 41114  1  0  0  0
 41115  1  0  0  0
 41116  1  0  0  0
 41 48  1  0  0  0
 42 43  1  0  0  0
 42 66  1  0  0  0
 42117  1  0  0  0
 42118  1  0  0  0
 43 44  1  0  0  0
 44119  1  0  0  0
 45 46  2  0  0  0
 45120  1  0  0  0
 46121  1  0  0  0
 47122  1  0  0  0
 47123  1  0  0  0
 48 56  1  0  0  0
 48 65  1  0  0  0
 48124  1  0  0  0
 49 50  1  0  0  0
 49 53  1  0  0  0
 49 64  1  0  0  0
 49125  1  0  0  0
 50 51  1  0  0  0
 50126  1  0  0  0
 50127  1  0  0  0
 51 52  1  0  0  0
 51128  1  0  0  0
 51129  1  0  0  0
 52130  1  0  0  0
 52131  1  0  0  0
 53 54  1  0  0  0
 54 55  2  0  0  0
 54132  1  0  0  0
 55 57  1  0  0  0
 55133  1  0  0  0
 56 69  2  0  0  0
 57 58  2  0  0  0
 57134  1  0  0  0
 58135  1  0  0  0
 59 60  1  0  0  0
 59 61  1  0  0  0
 59 62  1  0  0  0
 60136  1  0  0  0
 60137  1  0  0  0
 60138  1  0  0  0
 61139  1  0  0  0
 61140  1  0  0  0
 61141  1  0  0  0
 62142  1  0  0  0
 62143  1  0  0  0
 62144  1  0  0  0
 63 65  1  0  0  0
 63145  1  0  0  0
 63146  1  0  0  0
 63147  1  0  0  0
 64148  1  0  0  0
 65149  1  0  0  0
 68 87  1  0  0  0
 71 72  1  0  0  0
 71 74  2  0  0  0
 71150  1  0  0  0
 72 73  2  0  0  0
 72 85  1  0  0  0
 73 75  1  0  0  0
 73 88  1  0  0  0
 74 86  1  0  0  0
 74 88  1  0  0  0
 75 76  1  0  0  0
 75151  1  0  0  0
 75152  1  0  0  0
 76 84  1  0  0  0
 76153  1  0  0  0
 76154  1  0  0  0
 77 78  1  0  0  0
 77 79  1  0  0  0
 77155  1  0  0  0
 77156  1  0  0  0
 78 80  1  0  0  0
 78157  1  0  0  0
 78158  1  0  0  0
 79 81  1  0  0  0
 79159  1  0  0  0
 79160  1  0  0  0
 80 83  1  0  0  0
 80161  1  0  0  0
 80162  1  0  0  0
 81 83  1  0  0  0
 81163  1  0  0  0
 81164  1  0  0  0
 82 84  1  0  0  0
 82 88  1  0  0  0
 82165  1  0  0  0
 82166  1  0  0  0
 83 89  1  0  0  0
 83167  1  0  0  0
 84 90  1  0  0  0
 84168  1  0  0  0
 85 89  1  0  0  0
 85169  1  0  0  0
 85170  1  0  0  0
 86 87  1  0  0  0
 86171  1  0  0  0
 86172  1  0  0  0
 87173  1  0  0  0
 87174  1  0  0  0
 90175  1  0  0  0
M  ISO  4   1 100  68 101  87 101  89 100
M  END
> <chiral flag>
0

> <version>
0

> <s_m_source_file>
/data/baiqing/PycharmProjects/Reinvent-master-3.2/result/LINK_invent/BTK/process_docking_weight1_custom_sum_contain_oxygen_bond_distance_aromatic_linkinvent_7_9_3/rearranged_h_0026.sdf

> <i_m_source_file_index>
36

> <r_mmod_Potential_Energy-OPLS-2005>
911.069763183594

> <r_mmod_Stretch_Energy-OPLS-2005>
319.701324462891

> <r_mmod_Bend_Energy-OPLS-2005>
333.765075683594

> <r_mmod_Torsional_Energy-OPLS-2005>
392.944549560547

> <r_mmod_Improper_Torsional_Energy-OPLS-2005>
23.1343193054199

> <r_mmod_Van_der_Waal_Energy-OPLS-2005>
102.677230834961

> <r_mmod_Electrostatic_Energy-OPLS-2005>
-290.903778076172

> <r_mmod_Solvation_Energy-OPLS-2005>
-209.627853393555

> <b_mmod_Minimization_Converged-OPLS-2005>
0

> <r_mmod_RMS_Derivative-OPLS-2005>
2.25041627883911

$$$$
36
                    3D
 Structure written by MMmdl.
161169  0  0  1  0            999 V2000
  -30.7185  -14.4674   20.5630 C   0  0  0  0  0  0
  -30.4101  -12.2950   19.4470 C   0  0  0  0  0  0
  -29.5011  -12.4853   18.2184 C   0  0  0  0  0  0
  -28.0235  -12.3367   18.6264 C   0  0  0  0  0  0
  -27.6548  -13.2060   19.8594 C   0  0  2  0  0  0
  -28.6875  -13.0330   20.9952 C   0  0  0  0  0  0
  -25.2564  -13.8164   20.5650 C   0  0  0  0  0  0
  -24.1826  -13.0453   20.9159 C   0  0  0  0  0  0
  -24.6364  -11.6904   20.8691 C   0  0  0  0  0  0
  -23.9038  -10.4293   21.0372 C   0  0  0  0  0  0
  -24.3601   -9.4224   21.9163 C   0  0  0  0  0  0
  -23.6281   -8.2258   22.0746 C   0  0  0  0  0  0
  -22.4267   -8.0281   21.3536 C   0  0  0  0  0  0
  -21.9890   -9.0249   20.4642 C   0  0  0  0  0  0
  -22.7206  -10.2129   20.3039 C   0  0  0  0  0  0
  -21.6857   -6.0732   22.5275 C   0  0  0  0  0  0
  -21.4022   -6.5638   23.8213 C   0  0  0  0  0  0
  -21.3655   -5.6785   24.9172 C   0  0  0  0  0  0
  -21.6049   -4.3050   24.7215 C   0  0  0  0  0  0
  -21.8822   -3.8140   23.4338 C   0  0  0  0  0  0
  -21.9199   -4.6960   22.3394 C   0  0  0  0  0  0
  -22.7857  -13.5251   21.1852 C   0  0  0  0  0  0
  -22.1668   -4.2150   21.0966 F   0  0  0  0  0  0
  -21.5627   -3.4533   25.7727 F   0  0  0  0  0  0
  -30.0230  -13.3075   20.4412 N   0  0  0  0  0  0
  -26.2972  -12.9324   20.3246 N   0  0  0  0  0  0
  -25.9281  -11.6488   20.5674 N   0  0  0  0  0  0
  -22.0491  -12.8246   22.0400 N   0  0  0  0  0  0
  -25.4309  -15.1882   20.4113 N   0  0  0  0  0  0
  -31.8561  -14.6090   20.1053 O   0  0  0  0  0  0
  -21.6638   -6.8873   21.4242 O   0  0  0  0  0  0
  -22.3538  -14.5566   20.6713 O   0  0  0  0  0  0
  -24.6198  -31.8647   23.2016 C   0  0  0  0  0  0
  -25.9081  -32.4807   23.8296 C   0  0  1  0  0  0
  -27.2383  -27.4258   20.0654 C   0  0  0  0  0  0
  -25.5922  -33.8590   24.2280 N   0  0  0  0  0  0
  -23.4004  -30.4870   21.5484 C   0  0  2  0  0  0
  -24.8411  -28.9417   20.1122 C   0  0  0  0  0  0
  -22.7362  -29.4680   22.5025 C   0  0  0  0  0  0
  -18.0276  -28.1401   22.8461 C   0  0  0  0  0  0
  -24.1486  -36.7323   23.2629 C   0  0  0  0  0  0
  -25.9248  -30.8319   21.3367 C   0  0  0  0  0  0
  -26.0024  -29.4568   20.7001 C   0  0  0  0  0  0
  -27.1992  -28.7028   20.6774 C   0  0  0  0  0  0
  -26.0530  -26.9262   19.4767 C   0  0  0  0  0  0
  -24.8607  -27.6747   19.5040 C   0  0  0  0  0  0
  -23.6000  -29.8051   20.1664 C   0  0  0  0  0  0
  -25.4106  -36.3101   24.0320 C   0  0  1  0  0  0
  -20.5855  -28.3606   23.1307 C   0  0  2  0  0  0
  -20.6672  -26.9319   22.5444 C   0  0  0  0  0  0
  -19.5731  -26.6476   21.5109 C   0  0  0  0  0  0
  -18.1881  -26.8010   22.1466 C   0  0  0  0  0  0
  -19.1540  -28.8804   23.2914 C   0  0  0  0  0  0
  -18.9512  -30.1389   23.8970 C   0  0  0  0  0  0
  -17.6535  -30.6562   24.0672 C   0  0  0  0  0  0
  -25.9038  -34.9466   23.5110 C   0  0  0  0  0  0
  -16.5401  -29.9116   23.6397 C   0  0  0  0  0  0
  -16.7273  -28.6555   23.0351 C   0  0  0  0  0  0
  -26.4497  -31.6553   25.0603 C   0  0  0  0  0  0
  -25.3797  -31.3602   26.1374 C   0  0  0  0  0  0
  -27.0277  -30.3019   24.5857 C   0  0  0  0  0  0
  -27.6084  -32.4216   25.7400 C   0  0  0  0  0  0
  -27.5581  -37.1803   24.8461 C   0  0  0  0  0  0
  -21.4108  -29.2969   22.3678 N   0  0  0  0  0  0
  -26.4295  -37.3779   23.9403 N   0  0  0  0  0  0
  -24.6692  -31.0729   22.0908 N   0  0  0  0  0  0
  -23.4115  -28.8317   23.3152 O   0  0  0  0  0  0
  -28.4342  -26.7310   20.0712 O   0  0  0  0  0  0
  -26.5591  -34.8928   22.4663 O   0  0  0  0  0  0
  -23.5414  -32.1387   23.7462 O   0  0  0  0  0  0
  -29.1077  -20.3902   21.4609 C   0  0  0  0  0  0
  -28.6105  -19.4745   19.2623 C   0  0  0  0  0  0
  -29.8310  -18.0983   20.9284 C   0  0  0  0  0  0
  -28.5135  -20.5424   20.1973 C   0  0  0  0  0  0
  -29.7540  -19.1948   21.8296 C   0  0  0  0  0  0
  -29.2610  -18.2598   19.6332 C   0  0  0  0  0  0
  -28.0386  -19.6184   17.8519 C   0  0  0  0  0  0
  -26.3610  -21.5900   19.7407 C   0  0  0  0  0  0
  -30.6433  -16.8423   21.3295 C   0  0  0  0  0  0
  -28.1328  -24.2348   20.1211 C   0  0  0  0  0  0
  -28.5001  -22.9039   19.4087 C   0  0  0  0  0  0
  -28.5830  -25.4976   19.3445 C   0  0  0  0  0  0
  -30.0574  -15.5068   21.1061 N   0  0  0  0  0  0
  -27.7969  -21.7371   19.9591 N   0  0  0  0  0  0
  -30.4406  -19.1333   23.4163 Cl  0  0  0  0  0  0
  -29.3747  -16.9833   18.4638 Cl  0  0  0  0  0  0
  -31.4612  -12.3582   19.1619 H   0  0  0  0  0  0
  -30.2779  -11.2984   19.8733 H   0  0  0  0  0  0
  -29.7515  -11.7553   17.4477 H   0  0  0  0  0  0
  -29.6742  -13.4670   17.7741 H   0  0  0  0  0  0
  -27.8532  -11.2834   18.8546 H   0  0  0  0  0  0
  -27.3704  -12.5694   17.7861 H   0  0  0  0  0  0
  -27.6877  -14.2447   19.5293 H   0  0  0  0  0  0
  -28.6542  -12.0169   21.3887 H   0  0  0  0  0  0
  -28.4380  -13.6814   21.8362 H   0  0  0  0  0  0
  -25.2750   -9.5708   22.4738 H   0  0  0  0  0  0
  -23.9992   -7.4651   22.7475 H   0  0  0  0  0  0
  -21.0815   -8.8769   19.8949 H   0  0  0  0  0  0
  -22.3660  -10.9665   19.6148 H   0  0  0  0  0  0
  -21.2026   -7.6150   23.9715 H   0  0  0  0  0  0
  -21.1461   -6.0513   25.9071 H   0  0  0  0  0  0
  -22.0599   -2.7602   23.2835 H   0  0  0  0  0  0
  -22.4086  -11.9905   22.4792 H   0  0  0  0  0  0
  -21.1113  -13.1288   22.2600 H   0  0  0  0  0  0
  -24.6675  -15.8435   20.5326 H   0  0  0  0  0  0
  -26.2828  -15.6247   20.0835 H   0  0  0  0  0  0
  -26.7146  -32.5513   23.1058 H   0  0  0  0  0  0
  -25.0072  -33.9665   25.0438 H   0  0  0  0  0  0
  -22.6935  -31.3087   21.4092 H   0  0  0  0  0  0
  -23.3728  -35.9678   23.3300 H   0  0  0  0  0  0
  -24.3587  -36.8941   22.2045 H   0  0  0  0  0  0
  -23.7254  -37.6533   23.6646 H   0  0  0  0  0  0
  -25.9955  -31.5776   20.5429 H   0  0  0  0  0  0
  -26.8328  -30.9221   21.9217 H   0  0  0  0  0  0
  -28.1027  -29.1032   21.1167 H   0  0  0  0  0  0
  -26.0305  -25.9607   18.9935 H   0  0  0  0  0  0
  -23.9636  -27.2706   19.0528 H   0  0  0  0  0  0
  -23.6876  -30.5711   19.3951 H   0  0  0  0  0  0
  -22.7259  -29.2135   19.8880 H   0  0  0  0  0  0
  -25.1295  -36.1944   25.0807 H   0  0  0  0  0  0
  -20.9974  -28.3141   24.1415 H   0  0  0  0  0  0
  -20.5293  -26.2199   23.3600 H   0  0  0  0  0  0
  -21.6595  -26.7193   22.1431 H   0  0  0  0  0  0
  -19.6745  -27.3435   20.6769 H   0  0  0  0  0  0
  -19.6851  -25.6460   21.0968 H   0  0  0  0  0  0
  -17.4192  -26.6935   21.3803 H   0  0  0  0  0  0
  -18.0181  -26.0091   22.8763 H   0  0  0  0  0  0
  -19.8029  -30.7141   24.2349 H   0  0  0  0  0  0
  -17.5147  -31.6211   24.5355 H   0  0  0  0  0  0
  -15.5418  -30.3051   23.7776 H   0  0  0  0  0  0
  -15.8652  -28.0941   22.7005 H   0  0  0  0  0  0
  -24.6048  -30.6843   25.7737 H   0  0  0  0  0  0
  -24.8896  -32.2722   26.4779 H   0  0  0  0  0  0
  -25.8219  -30.8848   27.0143 H   0  0  0  0  0  0
  -26.2728  -29.6815   24.1014 H   0  0  0  0  0  0
  -27.4223  -29.7188   25.4185 H   0  0  0  0  0  0
  -27.8488  -30.4366   23.8815 H   0  0  0  0  0  0
  -27.2729  -33.3533   26.1957 H   0  0  0  0  0  0
  -28.3942  -32.6718   25.0261 H   0  0  0  0  0  0
  -28.0687  -31.8315   26.5339 H   0  0  0  0  0  0
  -28.2616  -38.0082   24.7527 H   0  0  0  0  0  0
  -28.1068  -36.2628   24.6301 H   0  0  0  0  0  0
  -27.2293  -37.1472   25.8856 H   0  0  0  0  0  0
  -20.9293  -29.8459   21.6681 H   0  0  0  0  0  0
  -26.0200  -38.2862   24.1396 H   0  0  0  0  0  0
  -29.0551  -21.1984   22.1759 H   0  0  0  0  0  0
  -27.9292  -20.6598   17.5532 H   0  0  0  0  0  0
  -27.0637  -19.1363   17.7865 H   0  0  0  0  0  0
  -28.6880  -19.1653   17.1028 H   0  0  0  0  0  0
  -26.0236  -20.5625   19.8952 H   0  0  0  0  0  0
  -26.0910  -21.8825   18.7254 H   0  0  0  0  0  0
  -25.8055  -22.2216   20.4359 H   0  0  0  0  0  0
  -30.9004  -16.8520   22.3871 H   0  0  0  0  0  0
  -31.5974  -16.9409   20.8139 H   0  0  0  0  0  0
  -28.5848  -24.2390   21.1133 H   0  0  0  0  0  0
  -27.0559  -24.2885   20.2796 H   0  0  0  0  0  0
  -29.5812  -22.7480   19.4446 H   0  0  0  0  0  0
  -28.2463  -22.9919   18.3515 H   0  0  0  0  0  0
  -28.1035  -25.5420   18.3660 H   0  0  0  0  0  0
  -29.6473  -25.4073   19.1280 H   0  0  0  0  0  0
  -29.1170  -15.3432   21.4304 H   0  0  0  0  0  0
  1 25  1  0  0  0
  1 30  2  0  0  0
  1 83  1  0  0  0
  2  3  1  0  0  0
  2 25  1  0  0  0
  2 87  1  0  0  0
  2 88  1  0  0  0
  3  4  1  0  0  0
  3 89  1  0  0  0
  3 90  1  0  0  0
  4  5  1  0  0  0
  4 91  1  0  0  0
  4 92  1  0  0  0
  5  6  1  0  0  0
  5 26  1  0  0  0
  5 93  1  0  0  0
  6 25  1  0  0  0
  6 94  1  0  0  0
  6 95  1  0  0  0
  7  8  2  0  0  0
  7 26  1  0  0  0
  7 29  1  0  0  0
  8  9  1  0  0  0
  8 22  1  0  0  0
  9 10  1  0  0  0
  9 27  2  0  0  0
 10 11  2  0  0  0
 10 15  1  0  0  0
 11 12  1  0  0  0
 11 96  1  0  0  0
 12 13  2  0  0  0
 12 97  1  0  0  0
 13 14  1  0  0  0
 13 31  1  0  0  0
 14 15  2  0  0  0
 14 98  1  0  0  0
 15 99  1  0  0  0
 16 17  2  0  0  0
 16 21  1  0  0  0
 16 31  1  0  0  0
 17 18  1  0  0  0
 17100  1  0  0  0
 18 19  2  0  0  0
 18101  1  0  0  0
 19 20  1  0  0  0
 19 24  1  0  0  0
 20 21  2  0  0  0
 20102  1  0  0  0
 21 23  1  0  0  0
 22 28  1  0  0  0
 22 32  2  0  0  0
 26 27  1  0  0  0
 28103  1  0  0  0
 28104  1  0  0  0
 29105  1  0  0  0
 29106  1  0  0  0
 33 34  1  0  0  0
 33 66  1  0  0  0
 33 70  2  0  0  0
 34 36  1  0  0  0
 34 59  1  0  0  0
 34107  1  0  0  0
 35 44  2  0  0  0
 35 45  1  0  0  0
 35 68  1  0  0  0
 36 56  1  0  0  0
 36108  1  0  0  0
 37 39  1  0  0  0
 37 47  1  0  0  0
 37 66  1  0  0  0
 37109  1  0  0  0
 38 43  2  0  0  0
 38 46  1  0  0  0
 38 47  1  0  0  0
 39 64  1  0  0  0
 39 67  2  0  0  0
 40 52  1  0  0  0
 40 53  2  0  0  0
 40 58  1  0  0  0
 41110  1  0  0  0
 41111  1  0  0  0
 41112  1  0  0  0
 41 48  1  0  0  0
 42 43  1  0  0  0
 42 66  1  0  0  0
 42113  1  0  0  0
 42114  1  0  0  0
 43 44  1  0  0  0
 44115  1  0  0  0
 45 46  2  0  0  0
 45116  1  0  0  0
 46117  1  0  0  0
 47118  1  0  0  0
 47119  1  0  0  0
 48 56  1  0  0  0
 48 65  1  0  0  0
 48120  1  0  0  0
 49 50  1  0  0  0
 49 53  1  0  0  0
 49 64  1  0  0  0
 49121  1  0  0  0
 50 51  1  0  0  0
 50122  1  0  0  0
 50123  1  0  0  0
 51 52  1  0  0  0
 51124  1  0  0  0
 51125  1  0  0  0
 52126  1  0  0  0
 52127  1  0  0  0
 53 54  1  0  0  0
 54 55  2  0  0  0
 54128  1  0  0  0
 55 57  1  0  0  0
 55129  1  0  0  0
 56 69  2  0  0  0
 57 58  2  0  0  0
 57130  1  0  0  0
 58131  1  0  0  0
 59 60  1  0  0  0
 59 61  1  0  0  0
 59 62  1  0  0  0
 60132  1  0  0  0
 60133  1  0  0  0
 60134  1  0  0  0
 61135  1  0  0  0
 61136  1  0  0  0
 61137  1  0  0  0
 62138  1  0  0  0
 62139  1  0  0  0
 62140  1  0  0  0
 63 65  1  0  0  0
 63141  1  0  0  0
 63142  1  0  0  0
 63143  1  0  0  0
 64144  1  0  0  0
 65145  1  0  0  0
 68 82  1  0  0  0
 71 74  2  0  0  0
 71 75  1  0  0  0
 71146  1  0  0  0
 72 74  1  0  0  0
 72 76  2  0  0  0
 72 77  1  0  0  0
 73 75  2  0  0  0
 73 76  1  0  0  0
 73 79  1  0  0  0
 74 84  1  0  0  0
 75 85  1  0  0  0
 76 86  1  0  0  0
 77147  1  0  0  0
 77148  1  0  0  0
 77149  1  0  0  0
 78 84  1  0  0  0
 78150  1  0  0  0
 78151  1  0  0  0
 78152  1  0  0  0
 79 83  1  0  0  0
 79153  1  0  0  0
 79154  1  0  0  0
 80 81  1  0  0  0
 80 82  1  0  0  0
 80155  1  0  0  0
 80156  1  0  0  0
 81 84  1  0  0  0
 81157  1  0  0  0
 81158  1  0  0  0
 82159  1  0  0  0
 82160  1  0  0  0
 83161  1  0  0  0
M  ISO  4   1 100  68 101  82 101  83 100
M  END
> <chiral flag>
0

> <version>
0

> <s_m_source_file>
/data/baiqing/PycharmProjects/Reinvent-master-3.2/result/LINK_invent/BTK/process_docking_weight1_custom_sum_contain_oxygen_bond_distance_aromatic_linkinvent_7_9_3/rearranged_h_0026.sdf

> <i_m_source_file_index>
37

> <r_mmod_Potential_Energy-OPLS-2005>
-47.1671752929688

> <r_mmod_Stretch_Energy-OPLS-2005>
42.5337905883789

> <r_mmod_Bend_Energy-OPLS-2005>
118.269073486328

> <r_mmod_Torsional_Energy-OPLS-2005>
213.328964233398

> <r_mmod_Improper_Torsional_Energy-OPLS-2005>
4.69869995117188

> <r_mmod_Van_der_Waal_Energy-OPLS-2005>
157.524047851562

> <r_mmod_Electrostatic_Energy-OPLS-2005>
-388.569061279297

> <r_mmod_Solvation_Energy-OPLS-2005>
-210.396759033203

> <b_mmod_Minimization_Converged-OPLS-2005>
0

> <r_mmod_RMS_Derivative-OPLS-2005>
3.43040156364441

$$$$
37
                    3D
 Structure written by MMmdl.
179188  0  0  1  0            999 V2000
  -30.6382  -14.4353   20.6659 C   0  0  0  0  0  0
  -30.4249  -12.3111   19.4087 C   0  0  0  0  0  0
  -29.4799  -12.5351   18.2071 C   0  0  0  0  0  0
  -28.0000  -12.3941   18.6157 C   0  0  0  0  0  0
  -27.6588  -13.1937   19.9006 C   0  0  2  0  0  0
  -28.6952  -12.8589   20.9894 C   0  0  0  0  0  0
  -25.2500  -13.8095   20.5669 C   0  0  0  0  0  0
  -24.1735  -13.0366   20.9120 C   0  0  0  0  0  0
  -24.6311  -11.6862   20.8727 C   0  0  0  0  0  0
  -23.8995  -10.4248   21.0432 C   0  0  0  0  0  0
  -24.3575   -9.4165   21.9198 C   0  0  0  0  0  0
  -23.6258   -8.2187   22.0753 C   0  0  0  0  0  0
  -22.4250   -8.0218   21.3540 C   0  0  0  0  0  0
  -21.9895   -9.0177   20.4667 C   0  0  0  0  0  0
  -22.7190  -10.2053   20.3076 C   0  0  0  0  0  0
  -21.6843   -6.0683   22.5245 C   0  0  0  0  0  0
  -21.4027   -6.5616   23.8166 C   0  0  0  0  0  0
  -21.3689   -5.6781   24.9139 C   0  0  0  0  0  0
  -21.6081   -4.3047   24.7218 C   0  0  0  0  0  0
  -21.8821   -3.8117   23.4357 C   0  0  0  0  0  0
  -21.9196   -4.6920   22.3398 C   0  0  0  0  0  0
  -22.7787  -13.5176   21.1811 C   0  0  0  0  0  0
  -22.1645   -4.2101   21.0975 F   0  0  0  0  0  0
  -21.5661   -3.4552   25.7754 F   0  0  0  0  0  0
  -30.0200  -13.2377   20.4781 N   0  0  0  0  0  0
  -26.2972  -12.9253   20.3481 N   0  0  0  0  0  0
  -25.9236  -11.6438   20.5786 N   0  0  0  0  0  0
  -22.0489  -12.8096   22.0419 N   0  0  0  0  0  0
  -25.4168  -15.1790   20.4064 N   0  0  0  0  0  0
  -31.7261  -14.7102   20.1505 O   0  0  0  0  0  0
  -21.6646   -6.8796   21.4184 O   0  0  0  0  0  0
  -22.3427  -14.5482   20.6712 O   0  0  0  0  0  0
  -24.6191  -31.8708   23.2146 C   0  0  0  0  0  0
  -25.9121  -32.4827   23.8443 C   0  0  1  0  0  0
  -27.2287  -27.4721   20.1031 C   0  0  0  0  0  0
  -25.6024  -33.8634   24.2413 N   0  0  0  0  0  0
  -23.4013  -30.4887   21.5543 C   0  0  2  0  0  0
  -24.8463  -28.9654   20.1147 C   0  0  0  0  0  0
  -22.7350  -29.4700   22.5045 C   0  0  0  0  0  0
  -18.0247  -28.1422   22.8484 C   0  0  0  0  0  0
  -24.1451  -36.7364   23.2638 C   0  0  0  0  0  0
  -25.9232  -30.8532   21.3544 C   0  0  0  0  0  0
  -26.0050  -29.4930   20.6985 C   0  0  0  0  0  0
  -27.2063  -28.7561   20.6872 C   0  0  0  0  0  0
  -26.0562  -26.9418   19.5312 C   0  0  0  0  0  0
  -24.8659  -27.6881   19.5280 C   0  0  0  0  0  0
  -23.5987  -29.8140   20.1713 C   0  0  0  0  0  0
  -25.4057  -36.3136   24.0353 C   0  0  1  0  0  0
  -20.5820  -28.3721   23.1297 C   0  0  2  0  0  0
  -20.6772  -26.9452   22.5415 C   0  0  0  0  0  0
  -19.5765  -26.6395   21.5201 C   0  0  0  0  0  0
  -18.1919  -26.7977   22.1605 C   0  0  0  0  0  0
  -19.1486  -28.8886   23.2885 C   0  0  0  0  0  0
  -18.9421  -30.1472   23.8917 C   0  0  0  0  0  0
  -17.6440  -30.6617   24.0568 C   0  0  0  0  0  0
  -25.8958  -34.9505   23.5140 C   0  0  0  0  0  0
  -16.5319  -29.9119   23.6358 C   0  0  0  0  0  0
  -16.7233  -28.6547   23.0377 C   0  0  0  0  0  0
  -26.4556  -31.6533   25.0758 C   0  0  0  0  0  0
  -25.3757  -31.3477   26.1463 C   0  0  0  0  0  0
  -27.0466  -30.3024   24.6058 C   0  0  0  0  0  0
  -27.6123  -32.4247   25.7511 C   0  0  0  0  0  0
  -27.5557  -37.1814   24.8469 C   0  0  0  0  0  0
  -21.4085  -29.3081   22.3717 N   0  0  0  0  0  0
  -26.4268  -37.3791   23.9438 N   0  0  0  0  0  0
  -24.6647  -31.0822   22.1033 N   0  0  0  0  0  0
  -23.4104  -28.8252   23.3094 O   0  0  0  0  0  0
  -28.3359  -26.6715   20.1326 O   0  0  0  0  0  0
  -26.5432  -34.8944   22.4632 O   0  0  0  0  0  0
  -23.5386  -32.1445   23.7539 O   0  0  0  0  0  0
  -31.1028  -16.3984   25.1688 C   0  0  0  0  0  0
  -30.2301  -15.8128   22.6215 C   0  0  0  0  0  0
  -29.8439  -15.8013   25.0350 C   0  0  0  0  0  0
  -29.3793  -15.5442   23.7285 C   0  0  0  0  0  0
  -31.3651  -16.6170   22.8747 C   0  0  0  0  0  0
  -33.7076  -20.7336   21.5039 C   0  0  0  0  0  0
  -31.1549  -21.0980   22.0449 C   0  0  0  0  0  0
  -33.3582  -19.2759   21.1529 C   0  0  0  0  0  0
  -30.9530  -19.5958   21.7337 C   0  0  0  0  0  0
  -32.5070  -21.7189   21.5786 C   0  0  2  0  0  0
  -32.2136  -18.7512   22.0246 C   0  0  1  0  0  0
  -32.4817  -22.8323   20.4876 C   0  0  0  0  0  0
  -29.4217  -24.9495   18.1679 C   0  0  0  0  0  0
  -30.1116  -23.6173   17.8216 C   0  0  0  0  0  0
  -30.2711  -25.9070   19.0381 C   0  0  0  0  0  0
  -30.4142  -22.7154   19.0481 C   0  0  0  0  0  0
  -29.4964  -27.1547   19.4905 C   0  0  0  0  0  0
  -31.8175  -16.8581   24.1208 N   0  0  0  0  0  0
  -29.9191  -15.3973   21.2871 N   0  0  0  0  0  0
  -32.0127  -17.3024   21.8402 N   0  0  0  0  0  0
  -31.8717  -22.4662   19.1897 N   0  3  0  0  0  0
  -28.8934  -15.4349   26.4356 Cl  0  0  0  0  0  0
  -27.7324  -15.0565   23.5208 Cl  0  0  0  0  0  0
  -31.4647  -12.4531   19.1120 H   0  0  0  0  0  0
  -30.3464  -11.2792   19.7532 H   0  0  0  0  0  0
  -29.7097  -11.8260   17.4137 H   0  0  0  0  0  0
  -29.6340  -13.5315   17.7887 H   0  0  0  0  0  0
  -27.7897  -11.3335   18.7665 H   0  0  0  0  0  0
  -27.3613  -12.7239   17.7944 H   0  0  0  0  0  0
  -27.7309  -14.2596   19.6808 H   0  0  0  0  0  0
  -28.6607  -11.7847   21.1922 H   0  0  0  0  0  0
  -28.4652  -13.3033   21.9431 H   0  0  0  0  0  0
  -25.2697   -9.5654   22.4789 H   0  0  0  0  0  0
  -23.9998   -7.4567   22.7474 H   0  0  0  0  0  0
  -21.0850   -8.8704   19.8920 H   0  0  0  0  0  0
  -22.3682  -10.9607   19.6214 H   0  0  0  0  0  0
  -21.2000   -7.6130   23.9636 H   0  0  0  0  0  0
  -21.1534   -6.0544   25.9038 H   0  0  0  0  0  0
  -22.0592   -2.7582   23.2873 H   0  0  0  0  0  0
  -22.4214  -11.9797   22.4749 H   0  0  0  0  0  0
  -21.1115  -13.1049   22.2715 H   0  0  0  0  0  0
  -24.6493  -15.8348   20.5100 H   0  0  0  0  0  0
  -26.2957  -15.6231   20.1662 H   0  0  0  0  0  0
  -26.7151  -32.5564   23.1127 H   0  0  0  0  0  0
  -25.0461  -33.9776   25.0746 H   0  0  0  0  0  0
  -22.6965  -31.3096   21.4077 H   0  0  0  0  0  0
  -23.3670  -35.9744   23.3344 H   0  0  0  0  0  0
  -24.3547  -36.8922   22.2041 H   0  0  0  0  0  0
  -23.7228  -37.6628   23.6571 H   0  0  0  0  0  0
  -26.0189  -31.6241   20.5881 H   0  0  0  0  0  0
  -26.8121  -30.9013   21.9722 H   0  0  0  0  0  0
  -28.1015  -29.1558   21.1432 H   0  0  0  0  0  0
  -26.0578  -25.9490   19.1017 H   0  0  0  0  0  0
  -23.9747  -27.2655   19.0855 H   0  0  0  0  0  0
  -23.6713  -30.5823   19.4000 H   0  0  0  0  0  0
  -22.7270  -29.2129   19.9039 H   0  0  0  0  0  0
  -25.1180  -36.2014   25.0832 H   0  0  0  0  0  0
  -20.9872  -28.3274   24.1424 H   0  0  0  0  0  0
  -20.5693  -26.2325   23.3609 H   0  0  0  0  0  0
  -21.6647  -26.7549   22.1161 H   0  0  0  0  0  0
  -19.6967  -25.6283   21.1261 H   0  0  0  0  0  0
  -19.6721  -27.3177   20.6699 H   0  0  0  0  0  0
  -17.4198  -26.6652   21.3991 H   0  0  0  0  0  0
  -18.0367  -26.0106   22.9004 H   0  0  0  0  0  0
  -19.7884  -30.7270   24.2304 H   0  0  0  0  0  0
  -17.5007  -31.6304   24.5159 H   0  0  0  0  0  0
  -15.5332  -30.3054   23.7718 H   0  0  0  0  0  0
  -15.8612  -28.0870   22.7156 H   0  0  0  0  0  0
  -24.5578  -30.7439   25.7449 H   0  0  0  0  0  0
  -24.9432  -32.2640   26.5495 H   0  0  0  0  0  0
  -25.7926  -30.7844   26.9844 H   0  0  0  0  0  0
  -26.2983  -29.6732   24.1237 H   0  0  0  0  0  0
  -27.4334  -29.7225   25.4454 H   0  0  0  0  0  0
  -27.8828  -30.4328   23.9150 H   0  0  0  0  0  0
  -27.2587  -33.3187   26.2655 H   0  0  0  0  0  0
  -28.3578  -32.7423   25.0213 H   0  0  0  0  0  0
  -28.1289  -31.8188   26.4965 H   0  0  0  0  0  0
  -28.2573  -38.0083   24.7381 H   0  0  0  0  0  0
  -28.0993  -36.2591   24.6349 H   0  0  0  0  0  0
  -27.2298  -37.1524   25.8876 H   0  0  0  0  0  0
  -20.9343  -29.8709   21.6792 H   0  0  0  0  0  0
  -26.0186  -38.2902   24.1345 H   0  0  0  0  0  0
  -31.5110  -16.5905   26.1521 H   0  0  0  0  0  0
  -34.4769  -21.0959   20.8185 H   0  0  0  0  0  0
  -34.1943  -20.7263   22.4844 H   0  0  0  0  0  0
  -31.0680  -21.2165   23.1273 H   0  0  0  0  0  0
  -30.3142  -21.6631   21.6470 H   0  0  0  0  0  0
  -34.2471  -18.6629   21.3028 H   0  0  0  0  0  0
  -33.0939  -19.1905   20.1001 H   0  0  0  0  0  0
  -30.6689  -19.4932   20.6875 H   0  0  0  0  0  0
  -30.1066  -19.2265   22.3148 H   0  0  0  0  0  0
  -32.7874  -22.3461   22.4281 H   0  0  0  0  0  0
  -32.5010  -18.9274   23.0639 H   0  0  0  0  0  0
  -33.5109  -23.1363   20.2794 H   0  0  0  0  0  0
  -32.0177  -23.7411   20.8728 H   0  0  0  0  0  0
  -28.4726  -24.7187   18.6513 H   0  0  0  0  0  0
  -29.1537  -25.4592   17.2433 H   0  0  0  0  0  0
  -31.0081  -23.8178   17.2342 H   0  0  0  0  0  0
  -29.4463  -23.0581   17.1570 H   0  0  0  0  0  0
  -30.6220  -25.3860   19.9255 H   0  0  0  0  0  0
  -31.1686  -26.2137   18.4982 H   0  0  0  0  0  0
  -29.9042  -21.7580   18.9318 H   0  0  0  0  0  0
  -29.9958  -23.1435   19.9575 H   0  0  0  0  0  0
  -29.2567  -27.8040   18.6436 H   0  0  0  0  0  0
  -30.0927  -27.7237   20.2014 H   0  0  0  0  0  0
  -29.8622  -16.2046   20.6800 H   0  0  0  0  0  0
  -31.7900  -16.9816   20.9042 H   0  0  0  0  0  0
  -32.1151  -21.5204   18.9443 H   0  0  0  0  0  0
  -32.3036  -23.0589   18.4982 H   0  0  0  0  0  0
  1 25  1  0  0  0
  1 30  2  0  0  0
  1 89  1  0  0  0
  2  3  1  0  0  0
  2 25  1  0  0  0
  2 94  1  0  0  0
  2 95  1  0  0  0
  3  4  1  0  0  0
  3 96  1  0  0  0
  3 97  1  0  0  0
  4  5  1  0  0  0
  4 98  1  0  0  0
  4 99  1  0  0  0
  5  6  1  0  0  0
  5 26  1  0  0  0
  5100  1  0  0  0
  6 25  1  0  0  0
  6101  1  0  0  0
  6102  1  0  0  0
  7  8  2  0  0  0
  7 26  1  0  0  0
  7 29  1  0  0  0
  8  9  1  0  0  0
  8 22  1  0  0  0
  9 10  1  0  0  0
  9 27  2  0  0  0
 10 11  2  0  0  0
 10 15  1  0  0  0
 11 12  1  0  0  0
 11103  1  0  0  0
 12 13  2  0  0  0
 12104  1  0  0  0
 13 14  1  0  0  0
 13 31  1  0  0  0
 14 15  2  0  0  0
 14105  1  0  0  0
 15106  1  0  0  0
 16 17  2  0  0  0
 16 21  1  0  0  0
 16 31  1  0  0  0
 17 18  1  0  0  0
 17107  1  0  0  0
 18 19  2  0  0  0
 18108  1  0  0  0
 19 20  1  0  0  0
 19 24  1  0  0  0
 20 21  2  0  0  0
 20109  1  0  0  0
 21 23  1  0  0  0
 22 28  1  0  0  0
 22 32  2  0  0  0
 26 27  1  0  0  0
 28110  1  0  0  0
 28111  1  0  0  0
 29112  1  0  0  0
 29113  1  0  0  0
 33 34  1  0  0  0
 33 66  1  0  0  0
 33 70  2  0  0  0
 34 36  1  0  0  0
 34 59  1  0  0  0
 34114  1  0  0  0
 35 44  2  0  0  0
 35 45  1  0  0  0
 35 68  1  0  0  0
 36 56  1  0  0  0
 36115  1  0  0  0
 37 39  1  0  0  0
 37 47  1  0  0  0
 37 66  1  0  0  0
 37116  1  0  0  0
 38 43  2  0  0  0
 38 46  1  0  0  0
 38 47  1  0  0  0
 39 64  1  0  0  0
 39 67  2  0  0  0
 40 52  1  0  0  0
 40 53  2  0  0  0
 40 58  1  0  0  0
 41117  1  0  0  0
 41118  1  0  0  0
 41119  1  0  0  0
 41 48  1  0  0  0
 42 43  1  0  0  0
 42 66  1  0  0  0
 42120  1  0  0  0
 42121  1  0  0  0
 43 44  1  0  0  0
 44122  1  0  0  0
 45 46  2  0  0  0
 45123  1  0  0  0
 46124  1  0  0  0
 47125  1  0  0  0
 47126  1  0  0  0
 48 56  1  0  0  0
 48 65  1  0  0  0
 48127  1  0  0  0
 49 50  1  0  0  0
 49 53  1  0  0  0
 49 64  1  0  0  0
 49128  1  0  0  0
 50 51  1  0  0  0
 50129  1  0  0  0
 50130  1  0  0  0
 51 52  1  0  0  0
 51131  1  0  0  0
 51132  1  0  0  0
 52133  1  0  0  0
 52134  1  0  0  0
 53 54  1  0  0  0
 54 55  2  0  0  0
 54135  1  0  0  0
 55 57  1  0  0  0
 55136  1  0  0  0
 56 69  2  0  0  0
 57 58  2  0  0  0
 57137  1  0  0  0
 58138  1  0  0  0
 59 60  1  0  0  0
 59 61  1  0  0  0
 59 62  1  0  0  0
 60139  1  0  0  0
 60140  1  0  0  0
 60141  1  0  0  0
 61142  1  0  0  0
 61143  1  0  0  0
 61144  1  0  0  0
 62145  1  0  0  0
 62146  1  0  0  0
 62147  1  0  0  0
 63 65  1  0  0  0
 63148  1  0  0  0
 63149  1  0  0  0
 63150  1  0  0  0
 64151  1  0  0  0
 65152  1  0  0  0
 68 87  1  0  0  0
 71 73  2  0  0  0
 71 88  1  0  0  0
 71153  1  0  0  0
 72 74  2  0  0  0
 72 75  1  0  0  0
 72 89  1  0  0  0
 73 74  1  0  0  0
 73 92  1  0  0  0
 74 93  1  0  0  0
 75 88  2  0  0  0
 75 90  1  0  0  0
 76 78  1  0  0  0
 76 80  1  0  0  0
 76154  1  0  0  0
 76155  1  0  0  0
 77 79  1  0  0  0
 77 80  1  0  0  0
 77156  1  0  0  0
 77157  1  0  0  0
 78 81  1  0  0  0
 78158  1  0  0  0
 78159  1  0  0  0
 79 81  1  0  0  0
 79160  1  0  0  0
 79161  1  0  0  0
 80 82  1  0  0  0
 80162  1  0  0  0
 81 90  1  0  0  0
 81163  1  0  0  0
 82 91  1  0  0  0
 82164  1  0  0  0
 82165  1  0  0  0
 83 84  1  0  0  0
 83 85  1  0  0  0
 83166  1  0  0  0
 83167  1  0  0  0
 84 86  1  0  0  0
 84168  1  0  0  0
 84169  1  0  0  0
 85 87  1  0  0  0
 85170  1  0  0  0
 85171  1  0  0  0
 86 91  1  0  0  0
 86172  1  0  0  0
 86173  1  0  0  0
 87174  1  0  0  0
 87175  1  0  0  0
 89176  1  0  0  0
 90177  1  0  0  0
 91178  1  0  0  0
 91179  1  0  0  0
M  CHG  1  91   1
M  ISO  4   1 100  68 101  87 101  89 100
M  END
> <chiral flag>
0

> <version>
0

> <s_m_source_file>
/data/baiqing/PycharmProjects/Reinvent-master-3.2/result/LINK_invent/BTK/process_docking_weight1_custom_sum_contain_oxygen_bond_distance_aromatic_linkinvent_7_9_3/rearranged_h_0026.sdf

> <i_m_source_file_index>
38

> <r_mmod_Potential_Energy-OPLS-2005>
-239.713485717773

> <r_mmod_Stretch_Energy-OPLS-2005>
38.6570091247559

> <r_mmod_Bend_Energy-OPLS-2005>
142.524658203125

> <r_mmod_Torsional_Energy-OPLS-2005>
408.141784667969

> <r_mmod_Improper_Torsional_Energy-OPLS-2005>
13.389030456543

> <r_mmod_Van_der_Waal_Energy-OPLS-2005>
154.961288452148

> <r_mmod_Electrostatic_Energy-OPLS-2005>
-538.374450683594

> <r_mmod_Solvation_Energy-OPLS-2005>
-472.514892578125

> <b_mmod_Minimization_Converged-OPLS-2005>
0

> <r_mmod_RMS_Derivative-OPLS-2005>
8.38189315795898

$$$$
38
                    3D
 Structure written by MMmdl.
153161  0  0  1  0            999 V2000
  -30.5705  -14.9709   20.4831 C   0  0  0  0  0  0
  -30.4409  -12.6151   19.5170 C   0  0  0  0  0  0
  -29.5366  -12.5639   18.2632 C   0  0  0  0  0  0
  -28.0641  -12.3458   18.6620 C   0  0  0  0  0  0
  -27.6307  -13.2612   19.8399 C   0  0  2  0  0  0
  -28.6699  -13.2934   20.9803 C   0  0  0  0  0  0
  -25.2449  -13.8225   20.5736 C   0  0  0  0  0  0
  -24.1788  -13.0415   20.9185 C   0  0  0  0  0  0
  -24.6407  -11.6917   20.8674 C   0  0  0  0  0  0
  -23.9062  -10.4281   21.0322 C   0  0  0  0  0  0
  -24.3614   -9.4219   21.9121 C   0  0  0  0  0  0
  -23.6304   -8.2251   22.0730 C   0  0  0  0  0  0
  -22.4300   -8.0255   21.3529 C   0  0  0  0  0  0
  -21.9890   -9.0207   20.4631 C   0  0  0  0  0  0
  -22.7204  -10.2099   20.3016 C   0  0  0  0  0  0
  -21.6872   -6.0710   22.5283 C   0  0  0  0  0  0
  -21.4017   -6.5626   23.8204 C   0  0  0  0  0  0
  -21.3678   -5.6776   24.9162 C   0  0  0  0  0  0
  -21.6049   -4.3031   24.7214 C   0  0  0  0  0  0
  -21.8828   -3.8119   23.4344 C   0  0  0  0  0  0
  -21.9203   -4.6936   22.3403 C   0  0  0  0  0  0
  -22.7809  -13.5193   21.1826 C   0  0  0  0  0  0
  -22.1650   -4.2153   21.0967 F   0  0  0  0  0  0
  -21.5659   -3.4500   25.7708 F   0  0  0  0  0  0
  -29.9508  -13.7188   20.3983 N   0  0  0  0  0  0
  -26.2897  -12.9495   20.3228 N   0  0  0  0  0  0
  -25.9361  -11.6605   20.5679 N   0  0  0  0  0  0
  -22.0465  -12.8227   22.0432 N   0  0  0  0  0  0
  -25.4065  -15.1978   20.4310 N   0  0  0  0  0  0
  -31.7568  -15.0106   20.1394 O   0  0  0  0  0  0
  -21.6661   -6.8862   21.4256 O   0  0  0  0  0  0
  -22.3492  -14.5437   20.6579 O   0  0  0  0  0  0
  -24.6456  -31.8426   23.1889 C   0  0  0  0  0  0
  -25.9212  -32.4703   23.8318 C   0  0  1  0  0  0
  -27.2302  -27.1232   20.1728 C   0  0  0  0  0  0
  -25.5961  -33.8512   24.2214 N   0  0  0  0  0  0
  -23.4531  -30.4590   21.5336 C   0  0  2  0  0  0
  -24.9088  -28.8847   20.1122 C   0  0  0  0  0  0
  -22.7602  -29.4527   22.4853 C   0  0  0  0  0  0
  -18.0329  -28.1396   22.8502 C   0  0  0  0  0  0
  -24.1486  -36.7236   23.2634 C   0  0  0  0  0  0
  -26.0097  -30.7124   21.3967 C   0  0  0  0  0  0
  -26.0838  -29.3242   20.7362 C   0  0  0  0  0  0
  -27.2448  -28.4608   20.7445 C   0  0  0  0  0  0
  -26.0326  -26.7907   19.5004 C   0  0  0  0  0  0
  -24.8995  -27.6335   19.4753 C   0  0  0  0  0  0
  -23.6845  -29.7851   20.1543 C   0  0  0  0  0  0
  -25.4122  -36.3041   24.0317 C   0  0  1  0  0  0
  -20.5946  -28.3723   23.1241 C   0  0  2  0  0  0
  -20.6808  -26.9418   22.5424 C   0  0  0  0  0  0
  -19.5772  -26.6369   21.5241 C   0  0  0  0  0  0
  -18.1951  -26.7936   22.1637 C   0  0  0  0  0  0
  -19.1584  -28.8881   23.2857 C   0  0  0  0  0  0
  -18.9474  -30.1485   23.8883 C   0  0  0  0  0  0
  -17.6458  -30.6588   24.0561 C   0  0  0  0  0  0
  -25.9090  -34.9419   23.5080 C   0  0  0  0  0  0
  -16.5362  -29.9073   23.6340 C   0  0  0  0  0  0
  -16.7300  -28.6487   23.0369 C   0  0  0  0  0  0
  -26.4531  -31.6572   25.0768 C   0  0  0  0  0  0
  -25.3694  -31.3772   26.1451 C   0  0  0  0  0  0
  -27.0398  -30.2966   24.6379 C   0  0  0  0  0  0
  -27.6094  -32.4339   25.7539 C   0  0  0  0  0  0
  -27.5604  -37.1753   24.8445 C   0  0  0  0  0  0
  -21.4296  -29.3024   22.3600 N   0  0  0  0  0  0
  -26.4263  -37.3773   23.9449 N   0  0  0  0  0  0
  -24.7223  -31.0258   22.0959 N   0  0  0  0  0  0
  -23.4227  -28.8077   23.3029 O   0  0  0  0  0  0
  -28.2853  -26.1377   20.2774 O   0  0  0  0  0  0
  -26.5657  -34.8902   22.4653 O   0  0  0  0  0  0
  -23.5564  -32.1300   23.7098 O   0  0  0  0  0  0
  -29.7289  -20.3022   20.7701 C   0  0  0  0  0  0
  -31.7761  -19.3761   21.8599 C   0  0  0  0  0  0
  -30.2076  -17.6687   20.9330 C   0  0  0  0  0  0
  -29.3963  -18.8620   20.5395 C   0  0  0  0  0  0
  -30.9870  -20.4749   21.4121 C   0  0  0  0  0  0
  -31.3741  -18.0164   21.6778 C   0  0  0  0  0  0
  -33.0783  -19.7070   22.6099 C   0  0  0  0  0  0
  -28.7900  -21.6273   20.3402 C   0  0  0  0  0  0
  -29.0352  -23.3043   20.6024 C   0  0  0  0  0  0
  -28.0618  -24.5996   20.0806 C   0  0  0  0  0  0
  -29.8381  -16.1738   20.7323 N   0  0  0  0  0  0
  -28.2204  -18.6065   19.9200 F   0  0  0  0  0  0
  -31.5931  -22.0617   21.7453 Cl  0  0  0  0  0  0
  -32.2709  -16.7923   22.5204 Cl  0  0  0  0  0  0
  -31.4781  -12.7705   19.2138 H   0  0  0  0  0  0
  -30.4287  -11.6599   20.0473 H   0  0  0  0  0  0
  -29.8685  -11.7807   17.5843 H   0  0  0  0  0  0
  -29.6304  -13.5034   17.7164 H   0  0  0  0  0  0
  -27.9487  -11.2939   18.9343 H   0  0  0  0  0  0
  -27.4170  -12.5093   17.7983 H   0  0  0  0  0  0
  -27.5847  -14.2692   19.4197 H   0  0  0  0  0  0
  -28.7647  -12.3113   21.4448 H   0  0  0  0  0  0
  -28.3569  -13.9848   21.7651 H   0  0  0  0  0  0
  -25.2766   -9.5721   22.4666 H   0  0  0  0  0  0
  -24.0029   -7.4657   22.7459 H   0  0  0  0  0  0
  -21.0824   -8.8683   19.8951 H   0  0  0  0  0  0
  -22.3622  -10.9597   19.6106 H   0  0  0  0  0  0
  -21.1999   -7.6128   23.9723 H   0  0  0  0  0  0
  -21.1508   -6.0480   25.9068 H   0  0  0  0  0  0
  -22.0604   -2.7584   23.2825 H   0  0  0  0  0  0
  -22.4031  -11.9947   22.4951 H   0  0  0  0  0  0
  -21.1038  -13.1211   22.2490 H   0  0  0  0  0  0
  -24.6323  -15.8361   20.5788 H   0  0  0  0  0  0
  -26.2581  -15.6653   20.1476 H   0  0  0  0  0  0
  -26.7289  -32.5309   23.1064 H   0  0  0  0  0  0
  -25.0120  -33.9648   25.0371 H   0  0  0  0  0  0
  -22.7588  -31.2866   21.3757 H   0  0  0  0  0  0
  -23.3809  -35.9503   23.3216 H   0  0  0  0  0  0
  -24.3596  -36.8952   22.2073 H   0  0  0  0  0  0
  -23.7151  -37.6362   23.6720 H   0  0  0  0  0  0
  -26.1750  -31.4706   20.6311 H   0  0  0  0  0  0
  -26.8772  -30.7605   22.0429 H   0  0  0  0  0  0
  -28.1398  -28.7903   21.2530 H   0  0  0  0  0  0
  -25.9434  -25.8324   19.0079 H   0  0  0  0  0  0
  -24.0026  -27.2980   18.9713 H   0  0  0  0  0  0
  -23.8275  -30.5592   19.4009 H   0  0  0  0  0  0
  -22.8026  -29.2250   19.8374 H   0  0  0  0  0  0
  -25.1305  -36.1873   25.0800 H   0  0  0  0  0  0
  -21.0034  -28.3315   24.1361 H   0  0  0  0  0  0
  -20.5730  -26.2329   23.3648 H   0  0  0  0  0  0
  -21.6659  -26.7444   22.1188 H   0  0  0  0  0  0
  -19.6922  -25.6264   21.1306 H   0  0  0  0  0  0
  -19.6711  -27.3163   20.6757 H   0  0  0  0  0  0
  -17.4235  -26.6736   21.4020 H   0  0  0  0  0  0
  -18.0310  -26.0067   22.9011 H   0  0  0  0  0  0
  -19.7936  -30.7332   24.2223 H   0  0  0  0  0  0
  -17.4992  -31.6269   24.5150 H   0  0  0  0  0  0
  -15.5353  -30.2952   23.7647 H   0  0  0  0  0  0
  -15.8710  -28.0780   22.7089 H   0  0  0  0  0  0
  -24.5865  -30.7149   25.7719 H   0  0  0  0  0  0
  -24.8893  -32.2958   26.4845 H   0  0  0  0  0  0
  -25.7937  -30.8927   27.0251 H   0  0  0  0  0  0
  -26.3015  -29.6700   24.1362 H   0  0  0  0  0  0
  -27.3953  -29.7280   25.4972 H   0  0  0  0  0  0
  -27.8959  -30.4193   23.9752 H   0  0  0  0  0  0
  -27.2715  -33.3653   26.2094 H   0  0  0  0  0  0
  -28.3906  -32.6867   25.0358 H   0  0  0  0  0  0
  -28.0759  -31.8478   26.5463 H   0  0  0  0  0  0
  -28.2517  -38.0152   24.7664 H   0  0  0  0  0  0
  -28.1206  -36.2711   24.6053 H   0  0  0  0  0  0
  -27.2359  -37.1116   25.8838 H   0  0  0  0  0  0
  -20.9517  -29.8684   21.6724 H   0  0  0  0  0  0
  -26.0146  -38.2818   24.1548 H   0  0  0  0  0  0
  -33.6949  -20.3945   22.0249 H   0  0  0  0  0  0
  -33.7184  -18.8584   22.8433 H   0  0  0  0  0  0
  -32.8506  -20.2008   23.5560 H   0  0  0  0  0  0
  -27.8119  -21.4052   20.7672 H   0  0  0  0  0  0
  -28.6515  -21.5150   19.2657 H   0  0  0  0  0  0
  -30.0153  -23.5352   20.1883 H   0  0  0  0  0  0
  -29.1346  -23.4338   21.6813 H   0  0  0  0  0  0
  -27.0627  -24.3901   20.4603 H   0  0  0  0  0  0
  -27.9854  -24.4781   19.0003 H   0  0  0  0  0  0
  -28.8468  -16.0025   20.8120 H   0  0  0  0  0  0
  1 25  1  0  0  0
  1 30  2  0  0  0
  1 81  1  0  0  0
  2  3  1  0  0  0
  2 25  1  0  0  0
  2 85  1  0  0  0
  2 86  1  0  0  0
  3  4  1  0  0  0
  3 87  1  0  0  0
  3 88  1  0  0  0
  4  5  1  0  0  0
  4 89  1  0  0  0
  4 90  1  0  0  0
  5  6  1  0  0  0
  5 26  1  0  0  0
  5 91  1  0  0  0
  6 25  1  0  0  0
  6 92  1  0  0  0
  6 93  1  0  0  0
  7  8  2  0  0  0
  7 26  1  0  0  0
  7 29  1  0  0  0
  8  9  1  0  0  0
  8 22  1  0  0  0
  9 10  1  0  0  0
  9 27  2  0  0  0
 10 11  2  0  0  0
 10 15  1  0  0  0
 11 12  1  0  0  0
 11 94  1  0  0  0
 12 13  2  0  0  0
 12 95  1  0  0  0
 13 14  1  0  0  0
 13 31  1  0  0  0
 14 15  2  0  0  0
 14 96  1  0  0  0
 15 97  1  0  0  0
 16 17  2  0  0  0
 16 21  1  0  0  0
 16 31  1  0  0  0
 17 18  1  0  0  0
 17 98  1  0  0  0
 18 19  2  0  0  0
 18 99  1  0  0  0
 19 20  1  0  0  0
 19 24  1  0  0  0
 20 21  2  0  0  0
 20100  1  0  0  0
 21 23  1  0  0  0
 22 28  1  0  0  0
 22 32  2  0  0  0
 26 27  1  0  0  0
 28101  1  0  0  0
 28102  1  0  0  0
 29103  1  0  0  0
 29104  1  0  0  0
 33 34  1  0  0  0
 33 66  1  0  0  0
 33 70  2  0  0  0
 34 36  1  0  0  0
 34 59  1  0  0  0
 34105  1  0  0  0
 35 44  2  0  0  0
 35 45  1  0  0  0
 35 68  1  0  0  0
 36 56  1  0  0  0
 36106  1  0  0  0
 37 39  1  0  0  0
 37 47  1  0  0  0
 37 66  1  0  0  0
 37107  1  0  0  0
 38 43  2  0  0  0
 38 46  1  0  0  0
 38 47  1  0  0  0
 39 64  1  0  0  0
 39 67  2  0  0  0
 40 52  1  0  0  0
 40 53  2  0  0  0
 40 58  1  0  0  0
 41108  1  0  0  0
 41109  1  0  0  0
 41110  1  0  0  0
 41 48  1  0  0  0
 42 43  1  0  0  0
 42 66  1  0  0  0
 42111  1  0  0  0
 42112  1  0  0  0
 43 44  1  0  0  0
 44113  1  0  0  0
 45 46  2  0  0  0
 45114  1  0  0  0
 46115  1  0  0  0
 47116  1  0  0  0
 47117  1  0  0  0
 48 56  1  0  0  0
 48 65  1  0  0  0
 48118  1  0  0  0
 49 50  1  0  0  0
 49 53  1  0  0  0
 49 64  1  0  0  0
 49119  1  0  0  0
 50 51  1  0  0  0
 50120  1  0  0  0
 50121  1  0  0  0
 51 52  1  0  0  0
 51122  1  0  0  0
 51123  1  0  0  0
 52124  1  0  0  0
 52125  1  0  0  0
 53 54  1  0  0  0
 54 55  2  0  0  0
 54126  1  0  0  0
 55 57  1  0  0  0
 55127  1  0  0  0
 56 69  2  0  0  0
 57 58  2  0  0  0
 57128  1  0  0  0
 58129  1  0  0  0
 59 60  1  0  0  0
 59 61  1  0  0  0
 59 62  1  0  0  0
 60130  1  0  0  0
 60131  1  0  0  0
 60132  1  0  0  0
 61133  1  0  0  0
 61134  1  0  0  0
 61135  1  0  0  0
 62136  1  0  0  0
 62137  1  0  0  0
 62138  1  0  0  0
 63 65  1  0  0  0
 63139  1  0  0  0
 63140  1  0  0  0
 63141  1  0  0  0
 64142  1  0  0  0
 65143  1  0  0  0
 68 80  1  0  0  0
 71 74  2  0  0  0
 71 75  1  0  0  0
 71 78  1  0  0  0
 72 75  2  0  0  0
 72 76  1  0  0  0
 72 77  1  0  0  0
 73 74  1  0  0  0
 73 76  2  0  0  0
 73 81  1  0  0  0
 74 82  1  0  0  0
 75 83  1  0  0  0
 76 84  1  0  0  0
 77144  1  0  0  0
 77145  1  0  0  0
 77146  1  0  0  0
 78 79  1  0  0  0
 78147  1  0  0  0
 78148  1  0  0  0
 79 80  1  0  0  0
 79149  1  0  0  0
 79150  1  0  0  0
 80151  1  0  0  0
 80152  1  0  0  0
 81153  1  0  0  0
M  ISO  4   1 100  68 101  80 101  81 100
M  END
> <chiral flag>
0

> <version>
0

> <s_m_source_file>
/data/baiqing/PycharmProjects/Reinvent-master-3.2/result/LINK_invent/BTK/process_docking_weight1_custom_sum_contain_oxygen_bond_distance_aromatic_linkinvent_7_9_3/rearranged_h_0026.sdf

> <i_m_source_file_index>
39

> <r_mmod_Potential_Energy-OPLS-2005>
509.374877929688

> <r_mmod_Stretch_Energy-OPLS-2005>
304.242706298828

> <r_mmod_Bend_Energy-OPLS-2005>
263.430084228516

> <r_mmod_Torsional_Energy-OPLS-2005>
220.874404907227

> <r_mmod_Improper_Torsional_Energy-OPLS-2005>
5.18919563293457

> <r_mmod_Van_der_Waal_Energy-OPLS-2005>
151.716323852539

> <r_mmod_Electrostatic_Energy-OPLS-2005>
-437.377319335938

> <r_mmod_Solvation_Energy-OPLS-2005>
-203.345840454102

> <b_mmod_Minimization_Converged-OPLS-2005>
0

> <r_mmod_RMS_Derivative-OPLS-2005>
5.66837120056152

$$$$
39
                    3D
 Structure written by MMmdl.
174182  0  0  1  0            999 V2000
  -30.6972  -14.4274   20.5025 C   0  0  0  0  0  0
  -30.4200  -12.2626   19.3954 C   0  0  0  0  0  0
  -29.4818  -12.4749   18.1884 C   0  0  0  0  0  0
  -28.0011  -12.3657   18.6081 C   0  0  0  0  0  0
  -27.6633  -13.1927   19.8793 C   0  0  2  0  0  0
  -28.7189  -12.9395   20.9850 C   0  0  0  0  0  0
  -25.2577  -13.8130   20.5570 C   0  0  0  0  0  0
  -24.1854  -13.0442   20.9175 C   0  0  0  0  0  0
  -24.6407  -11.6903   20.8800 C   0  0  0  0  0  0
  -23.9077  -10.4299   21.0467 C   0  0  0  0  0  0
  -24.3623   -9.4201   21.9227 C   0  0  0  0  0  0
  -23.6301   -8.2234   22.0768 C   0  0  0  0  0  0
  -22.4288   -8.0283   21.3553 C   0  0  0  0  0  0
  -21.9926   -9.0274   20.4675 C   0  0  0  0  0  0
  -22.7254  -10.2155   20.3100 C   0  0  0  0  0  0
  -21.6857   -6.0742   22.5280 C   0  0  0  0  0  0
  -21.4023   -6.5642   23.8215 C   0  0  0  0  0  0
  -21.3657   -5.6793   24.9174 C   0  0  0  0  0  0
  -21.6029   -4.3052   24.7223 C   0  0  0  0  0  0
  -21.8823   -3.8150   23.4341 C   0  0  0  0  0  0
  -21.9196   -4.6971   22.3398 C   0  0  0  0  0  0
  -22.7865  -13.5258   21.1805 C   0  0  0  0  0  0
  -22.1667   -4.2152   21.0978 F   0  0  0  0  0  0
  -21.5615   -3.4537   25.7738 F   0  0  0  0  0  0
  -30.0394  -13.2433   20.4194 N   0  0  0  0  0  0
  -26.3048  -12.9284   20.3422 N   0  0  0  0  0  0
  -25.9339  -11.6463   20.5879 N   0  0  0  0  0  0
  -22.0497  -12.8278   22.0370 N   0  0  0  0  0  0
  -25.4191  -15.1825   20.3689 N   0  0  0  0  0  0
  -31.8767  -14.5552   20.1658 O   0  0  0  0  0  0
  -21.6641   -6.8884   21.4248 O   0  0  0  0  0  0
  -22.3555  -14.5561   20.6645 O   0  0  0  0  0  0
  -24.6095  -31.8709   23.2142 C   0  0  0  0  0  0
  -25.9017  -32.4834   23.8417 C   0  0  1  0  0  0
  -27.2334  -27.4762   20.0808 C   0  0  0  0  0  0
  -25.5899  -33.8632   24.2372 N   0  0  0  0  0  0
  -23.3961  -30.4951   21.5526 C   0  0  2  0  0  0
  -24.8422  -28.9650   20.1172 C   0  0  0  0  0  0
  -22.7385  -29.4671   22.4991 C   0  0  0  0  0  0
  -18.0270  -28.1369   22.8497 C   0  0  0  0  0  0
  -24.1475  -36.7308   23.2637 C   0  0  0  0  0  0
  -25.9197  -30.8464   21.3626 C   0  0  0  0  0  0
  -25.9983  -29.4814   20.7167 C   0  0  0  0  0  0
  -27.1974  -28.7407   20.7027 C   0  0  0  0  0  0
  -26.0704  -26.9737   19.4604 C   0  0  0  0  0  0
  -24.8703  -27.7073   19.4909 C   0  0  0  0  0  0
  -23.6029  -29.8281   20.1656 C   0  0  0  0  0  0
  -25.4100  -36.3119   24.0345 C   0  0  1  0  0  0
  -20.5866  -28.3663   23.1328 C   0  0  2  0  0  0
  -20.6759  -26.9409   22.5422 C   0  0  0  0  0  0
  -19.5746  -26.6391   21.5211 C   0  0  0  0  0  0
  -18.1919  -26.7922   22.1623 C   0  0  0  0  0  0
  -19.1520  -28.8835   23.2903 C   0  0  0  0  0  0
  -18.9446  -30.1434   23.8929 C   0  0  0  0  0  0
  -17.6453  -30.6586   24.0569 C   0  0  0  0  0  0
  -25.9017  -34.9481   23.5146 C   0  0  0  0  0  0
  -16.5342  -29.9103   23.6303 C   0  0  0  0  0  0
  -16.7263  -28.6503   23.0350 C   0  0  0  0  0  0
  -26.4481  -31.6595   25.0720 C   0  0  0  0  0  0
  -25.3780  -31.3694   26.1494 C   0  0  0  0  0  0
  -27.0297  -30.3044   24.6044 C   0  0  0  0  0  0
  -27.6063  -32.4311   25.7482 C   0  0  0  0  0  0
  -27.5581  -37.1811   24.8475 C   0  0  0  0  0  0
  -21.4123  -29.3036   22.3735 N   0  0  0  0  0  0
  -26.4292  -37.3811   23.9419 N   0  0  0  0  0  0
  -24.6597  -31.0846   22.1023 N   0  0  0  0  0  0
  -23.4165  -28.8212   23.3021 O   0  0  0  0  0  0
  -28.3967  -26.7523   20.0617 O   0  0  0  0  0  0
  -26.5560  -34.8933   22.4700 O   0  0  0  0  0  0
  -23.5296  -32.1443   23.7560 O   0  0  0  0  0  0
  -28.2923  -16.2030   22.1719 C   0  0  0  0  0  0
  -30.0187  -18.2740   22.9817 C   0  0  0  0  0  0
  -28.6562  -18.2822   23.3987 C   0  0  0  0  0  0
  -29.5840  -16.2812   21.6187 C   0  0  0  0  0  0
  -27.8344  -17.1734   23.0759 C   0  0  0  0  0  0
  -30.4754  -17.2828   22.0796 C   0  0  0  0  0  0
  -31.0127  -19.3418   23.4322 C   0  0  0  0  0  0
  -25.6503  -21.4838   23.0303 C   0  0  0  0  0  0
  -26.5553  -19.8210   21.4028 C   0  0  0  0  0  0
  -29.8548  -16.2559   19.2055 C   0  0  0  0  0  0
  -28.0571  -19.5055   24.1022 C   0  0  0  0  0  0
  -28.0948  -20.7874   23.2244 C   0  0  0  0  0  0
  -27.9913  -24.4180   20.6410 C   0  0  0  0  0  0
  -27.8207  -23.4047   21.7837 C   0  0  0  0  0  0
  -28.4894  -25.7942   21.1138 C   0  0  0  0  0  0
  -26.9119  -21.0618   22.2443 C   0  0  0  0  0  0
  -29.8792  -15.5023   20.4677 N   0  0  0  0  0  0
  -27.2890  -22.1209   21.2679 N   0  3  0  0  0  0
  -26.2320  -16.9921   23.7041 Cl  0  0  0  0  0  0
  -32.0992  -17.3776   21.4765 Cl  0  0  0  0  0  0
  -31.4618  -12.3552   19.0838 H   0  0  0  0  0  0
  -30.3135  -11.2479   19.7803 H   0  0  0  0  0  0
  -29.7026  -11.7425   17.4110 H   0  0  0  0  0  0
  -29.6631  -13.4486   17.7340 H   0  0  0  0  0  0
  -27.7904  -11.3110   18.7869 H   0  0  0  0  0  0
  -27.3547  -12.6689   17.7834 H   0  0  0  0  0  0
  -27.7077  -14.2421   19.5939 H   0  0  0  0  0  0
  -28.6945  -11.8953   21.3005 H   0  0  0  0  0  0
  -28.5277  -13.5104   21.8900 H   0  0  0  0  0  0
  -25.2775   -9.5656   22.4798 H   0  0  0  0  0  0
  -24.0016   -7.4619   22.7475 H   0  0  0  0  0  0
  -21.0846   -8.8813   19.8980 H   0  0  0  0  0  0
  -22.3736  -10.9710   19.6208 H   0  0  0  0  0  0
  -21.2032   -7.6152   23.9720 H   0  0  0  0  0  0
  -21.1466   -6.0520   25.9075 H   0  0  0  0  0  0
  -22.0607   -2.7613   23.2842 H   0  0  0  0  0  0
  -22.4146  -11.9988   22.4816 H   0  0  0  0  0  0
  -21.1131  -13.1346   22.2599 H   0  0  0  0  0  0
  -24.6323  -15.8180   20.4329 H   0  0  0  0  0  0
  -26.2432  -15.6131   19.9719 H   0  0  0  0  0  0
  -26.7092  -32.5559   23.1182 H   0  0  0  0  0  0
  -25.0122  -33.9830   25.0567 H   0  0  0  0  0  0
  -22.6835  -31.3105   21.4156 H   0  0  0  0  0  0
  -23.3737  -35.9640   23.3319 H   0  0  0  0  0  0
  -24.3564  -36.8888   22.2044 H   0  0  0  0  0  0
  -23.7224  -37.6526   23.6624 H   0  0  0  0  0  0
  -26.0243  -31.6126   20.5923 H   0  0  0  0  0  0
  -26.8122  -30.9040   21.9724 H   0  0  0  0  0  0
  -28.0932  -29.1348   21.1611 H   0  0  0  0  0  0
  -26.0873  -26.0267   18.9408 H   0  0  0  0  0  0
  -23.9847  -27.3127   19.0117 H   0  0  0  0  0  0
  -23.7081  -30.6040   19.4057 H   0  0  0  0  0  0
  -22.7289  -29.2459   19.8667 H   0  0  0  0  0  0
  -25.1270  -36.1997   25.0839 H   0  0  0  0  0  0
  -20.9952  -28.3219   24.1451 H   0  0  0  0  0  0
  -20.5646  -26.2284   23.3605 H   0  0  0  0  0  0
  -21.6626  -26.7445   22.1225 H   0  0  0  0  0  0
  -19.6902  -25.6307   21.1222 H   0  0  0  0  0  0
  -19.6672  -27.3210   20.6743 H   0  0  0  0  0  0
  -17.4192  -26.6675   21.4017 H   0  0  0  0  0  0
  -18.0315  -26.0054   22.9009 H   0  0  0  0  0  0
  -19.7921  -30.7230   24.2321 H   0  0  0  0  0  0
  -17.5019  -31.6274   24.5164 H   0  0  0  0  0  0
  -15.5350  -30.3030   23.7614 H   0  0  0  0  0  0
  -15.8648  -28.0835   22.7075 H   0  0  0  0  0  0
  -24.5949  -30.7031   25.7863 H   0  0  0  0  0  0
  -24.8978  -32.2849   26.4955 H   0  0  0  0  0  0
  -25.8169  -30.8880   27.0239 H   0  0  0  0  0  0
  -26.2809  -29.6813   24.1134 H   0  0  0  0  0  0
  -27.4138  -29.7268   25.4461 H   0  0  0  0  0  0
  -27.8621  -30.4389   23.9131 H   0  0  0  0  0  0
  -27.2677  -33.3599   26.2086 H   0  0  0  0  0  0
  -28.3858  -32.6879   25.0300 H   0  0  0  0  0  0
  -28.0736  -31.8415   26.5381 H   0  0  0  0  0  0
  -28.2616  -38.0089   24.7507 H   0  0  0  0  0  0
  -28.1054  -36.2626   24.6309 H   0  0  0  0  0  0
  -27.2296  -37.1467   25.8877 H   0  0  0  0  0  0
  -20.9283  -29.8767   21.6968 H   0  0  0  0  0  0
  -26.0173  -38.2886   24.1437 H   0  0  0  0  0  0
  -27.5938  -15.4480   21.8485 H   0  0  0  0  0  0
  -30.6425  -19.9871   24.2256 H   0  0  0  0  0  0
  -31.2924  -19.9722   22.5865 H   0  0  0  0  0  0
  -31.9212  -18.8784   23.8172 H   0  0  0  0  0  0
  -25.8470  -22.3029   23.7217 H   0  0  0  0  0  0
  -25.2616  -20.6580   23.6264 H   0  0  0  0  0  0
  -24.8458  -21.7964   22.3624 H   0  0  0  0  0  0
  -26.0842  -19.0484   22.0027 H   0  0  0  0  0  0
  -27.4309  -19.3837   20.9209 H   0  0  0  0  0  0
  -25.8319  -20.0576   20.6199 H   0  0  0  0  0  0
  -29.1468  -17.0846   19.2512 H   0  0  0  0  0  0
  -29.5548  -15.6230   18.3708 H   0  0  0  0  0  0
  -30.8319  -16.6796   18.9697 H   0  0  0  0  0  0
  -28.6160  -19.6672   25.0223 H   0  0  0  0  0  0
  -27.0386  -19.3352   24.4420 H   0  0  0  0  0  0
  -29.0253  -20.8188   22.6623 H   0  0  0  0  0  0
  -28.1537  -21.6307   23.9128 H   0  0  0  0  0  0
  -27.0316  -24.5244   20.1413 H   0  0  0  0  0  0
  -28.6845  -24.0269   19.8940 H   0  0  0  0  0  0
  -27.1401  -23.8134   22.5310 H   0  0  0  0  0  0
  -28.7823  -23.2473   22.2752 H   0  0  0  0  0  0
  -27.9430  -26.1231   22.0008 H   0  0  0  0  0  0
  -29.5343  -25.7207   21.4150 H   0  0  0  0  0  0
  -27.9841  -21.7354   20.6461 H   0  0  0  0  0  0
  -26.4779  -22.3205   20.7021 H   0  0  0  0  0  0
  1 25  1  0  0  0
  1 30  2  0  0  0
  1 87  1  0  0  0
  2  3  1  0  0  0
  2 25  1  0  0  0
  2 91  1  0  0  0
  2 92  1  0  0  0
  3  4  1  0  0  0
  3 93  1  0  0  0
  3 94  1  0  0  0
  4  5  1  0  0  0
  4 95  1  0  0  0
  4 96  1  0  0  0
  5  6  1  0  0  0
  5 26  1  0  0  0
  5 97  1  0  0  0
  6 25  1  0  0  0
  6 98  1  0  0  0
  6 99  1  0  0  0
  7  8  2  0  0  0
  7 26  1  0  0  0
  7 29  1  0  0  0
  8  9  1  0  0  0
  8 22  1  0  0  0
  9 10  1  0  0  0
  9 27  2  0  0  0
 10 11  2  0  0  0
 10 15  1  0  0  0
 11 12  1  0  0  0
 11100  1  0  0  0
 12 13  2  0  0  0
 12101  1  0  0  0
 13 14  1  0  0  0
 13 31  1  0  0  0
 14 15  2  0  0  0
 14102  1  0  0  0
 15103  1  0  0  0
 16 17  2  0  0  0
 16 21  1  0  0  0
 16 31  1  0  0  0
 17 18  1  0  0  0
 17104  1  0  0  0
 18 19  2  0  0  0
 18105  1  0  0  0
 19 20  1  0  0  0
 19 24  1  0  0  0
 20 21  2  0  0  0
 20106  1  0  0  0
 21 23  1  0  0  0
 22 28  1  0  0  0
 22 32  2  0  0  0
 26 27  1  0  0  0
 28107  1  0  0  0
 28108  1  0  0  0
 29109  1  0  0  0
 29110  1  0  0  0
 33 34  1  0  0  0
 33 66  1  0  0  0
 33 70  2  0  0  0
 34 36  1  0  0  0
 34 59  1  0  0  0
 34111  1  0  0  0
 35 44  2  0  0  0
 35 45  1  0  0  0
 35 68  1  0  0  0
 36 56  1  0  0  0
 36112  1  0  0  0
 37 39  1  0  0  0
 37 47  1  0  0  0
 37 66  1  0  0  0
 37113  1  0  0  0
 38 43  2  0  0  0
 38 46  1  0  0  0
 38 47  1  0  0  0
 39 64  1  0  0  0
 39 67  2  0  0  0
 40 52  1  0  0  0
 40 53  2  0  0  0
 40 58  1  0  0  0
 41114  1  0  0  0
 41115  1  0  0  0
 41116  1  0  0  0
 41 48  1  0  0  0
 42 43  1  0  0  0
 42 66  1  0  0  0
 42117  1  0  0  0
 42118  1  0  0  0
 43 44  1  0  0  0
 44119  1  0  0  0
 45 46  2  0  0  0
 45120  1  0  0  0
 46121  1  0  0  0
 47122  1  0  0  0
 47123  1  0  0  0
 48 56  1  0  0  0
 48 65  1  0  0  0
 48124  1  0  0  0
 49 50  1  0  0  0
 49 53  1  0  0  0
 49 64  1  0  0  0
 49125  1  0  0  0
 50 51  1  0  0  0
 50126  1  0  0  0
 50127  1  0  0  0
 51 52  1  0  0  0
 51128  1  0  0  0
 51129  1  0  0  0
 52130  1  0  0  0
 52131  1  0  0  0
 53 54  1  0  0  0
 54 55  2  0  0  0
 54132  1  0  0  0
 55 57  1  0  0  0
 55133  1  0  0  0
 56 69  2  0  0  0
 57 58  2  0  0  0
 57134  1  0  0  0
 58135  1  0  0  0
 59 60  1  0  0  0
 59 61  1  0  0  0
 59 62  1  0  0  0
 60136  1  0  0  0
 60137  1  0  0  0
 60138  1  0  0  0
 61139  1  0  0  0
 61140  1  0  0  0
 61141  1  0  0  0
 62142  1  0  0  0
 62143  1  0  0  0
 62144  1  0  0  0
 63 65  1  0  0  0
 63145  1  0  0  0
 63146  1  0  0  0
 63147  1  0  0  0
 64148  1  0  0  0
 65149  1  0  0  0
 68 85  1  0  0  0
 71 74  2  0  0  0
 71 75  1  0  0  0
 71150  1  0  0  0
 72 73  1  0  0  0
 72 76  2  0  0  0
 72 77  1  0  0  0
 73 75  2  0  0  0
 73 81  1  0  0  0
 74 76  1  0  0  0
 74 87  1  0  0  0
 75 89  1  0  0  0
 76 90  1  0  0  0
 77151  1  0  0  0
 77152  1  0  0  0
 77153  1  0  0  0
 78154  1  0  0  0
 78155  1  0  0  0
 78156  1  0  0  0
 78 86  1  0  0  0
 79 86  1  0  0  0
 79157  1  0  0  0
 79158  1  0  0  0
 79159  1  0  0  0
 80 87  1  0  0  0
 80160  1  0  0  0
 80161  1  0  0  0
 80162  1  0  0  0
 81 82  1  0  0  0
 81163  1  0  0  0
 81164  1  0  0  0
 82 86  1  0  0  0
 82165  1  0  0  0
 82166  1  0  0  0
 83 84  1  0  0  0
 83 85  1  0  0  0
 83167  1  0  0  0
 83168  1  0  0  0
 84 88  1  0  0  0
 84169  1  0  0  0
 84170  1  0  0  0
 85171  1  0  0  0
 85172  1  0  0  0
 86 88  1  0  0  0
 88173  1  0  0  0
 88174  1  0  0  0
M  CHG  1  88   1
M  ISO  4   1 100  68 101  85 101  87 100
M  END
> <chiral flag>
0

> <version>
0

> <s_m_source_file>
/data/baiqing/PycharmProjects/Reinvent-master-3.2/result/LINK_invent/BTK/process_docking_weight1_custom_sum_contain_oxygen_bond_distance_aromatic_linkinvent_7_9_3/rearranged_h_0026.sdf

> <i_m_source_file_index>
40

> <r_mmod_Potential_Energy-OPLS-2005>
51.160945892334

> <r_mmod_Stretch_Energy-OPLS-2005>
37.2395401000977

> <r_mmod_Bend_Energy-OPLS-2005>
105.786743164062

> <r_mmod_Torsional_Energy-OPLS-2005>
369.117431640625

> <r_mmod_Improper_Torsional_Energy-OPLS-2005>
20.4629421234131

> <r_mmod_Van_der_Waal_Energy-OPLS-2005>
155.29345703125

> <r_mmod_Electrostatic_Energy-OPLS-2005>
-205.120101928711

> <r_mmod_Solvation_Energy-OPLS-2005>
-446.020416259766

> <b_mmod_Minimization_Converged-OPLS-2005>
0

> <r_mmod_RMS_Derivative-OPLS-2005>
2.74896001815796

$$$$
40
                    3D
 Structure written by MMmdl.
181190  0  0  1  0            999 V2000
  -30.6503  -14.4505   20.6124 C   0  0  0  0  0  0
  -30.4326  -12.3055   19.4014 C   0  0  0  0  0  0
  -29.5022  -12.5381   18.1900 C   0  0  0  0  0  0
  -28.0138  -12.3997   18.5903 C   0  0  0  0  0  0
  -27.6655  -13.1978   19.8767 C   0  0  2  0  0  0
  -28.7010  -12.9170   20.9888 C   0  0  0  0  0  0
  -25.2656  -13.8163   20.5643 C   0  0  0  0  0  0
  -24.1897  -13.0465   20.9103 C   0  0  0  0  0  0
  -24.6424  -11.6903   20.8716 C   0  0  0  0  0  0
  -23.9082  -10.4294   21.0395 C   0  0  0  0  0  0
  -24.3638   -9.4221   21.9173 C   0  0  0  0  0  0
  -23.6308   -8.2267   22.0779 C   0  0  0  0  0  0
  -22.4292   -8.0316   21.3565 C   0  0  0  0  0  0
  -21.9904   -9.0279   20.4673 C   0  0  0  0  0  0
  -22.7253  -10.2155   20.3049 C   0  0  0  0  0  0
  -21.6868   -6.0763   22.5262 C   0  0  0  0  0  0
  -21.4018   -6.5653   23.8206 C   0  0  0  0  0  0
  -21.3646   -5.6820   24.9162 C   0  0  0  0  0  0
  -21.6026   -4.3068   24.7227 C   0  0  0  0  0  0
  -21.8830   -3.8165   23.4341 C   0  0  0  0  0  0
  -21.9198   -4.6975   22.3405 C   0  0  0  0  0  0
  -22.7921  -13.5288   21.1788 C   0  0  0  0  0  0
  -22.1673   -4.2181   21.0972 F   0  0  0  0  0  0
  -21.5618   -3.4546   25.7721 F   0  0  0  0  0  0
  -30.0319  -13.2527   20.4523 N   0  0  0  0  0  0
  -26.3049  -12.9300   20.3309 N   0  0  0  0  0  0
  -25.9343  -11.6458   20.5703 N   0  0  0  0  0  0
  -22.0560  -12.8293   22.0335 N   0  0  0  0  0  0
  -25.4381  -15.1892   20.4047 N   0  0  0  0  0  0
  -31.7512  -14.7185   20.1175 O   0  0  0  0  0  0
  -21.6658   -6.8919   21.4252 O   0  0  0  0  0  0
  -22.3614  -14.5579   20.6613 O   0  0  0  0  0  0
  -24.6112  -31.8740   23.2114 C   0  0  0  0  0  0
  -25.9026  -32.4851   23.8394 C   0  0  1  0  0  0
  -27.2327  -27.4781   20.0951 C   0  0  0  0  0  0
  -25.5890  -33.8653   24.2313 N   0  0  0  0  0  0
  -23.3939  -30.5045   21.5572 C   0  0  2  0  0  0
  -24.8352  -28.9695   20.1230 C   0  0  0  0  0  0
  -22.7319  -29.4819   22.5102 C   0  0  0  0  0  0
  -18.0232  -28.1419   22.8506 C   0  0  0  0  0  0
  -24.1500  -36.7312   23.2628 C   0  0  0  0  0  0
  -25.9220  -30.8462   21.3608 C   0  0  0  0  0  0
  -25.9989  -29.4924   20.7037 C   0  0  0  0  0  0
  -27.2032  -28.7566   20.6849 C   0  0  0  0  0  0
  -26.0545  -26.9617   19.5030 C   0  0  0  0  0  0
  -24.8571  -27.7003   19.5169 C   0  0  0  0  0  0
  -23.5927  -29.8281   20.1755 C   0  0  0  0  0  0
  -25.4114  -36.3128   24.0320 C   0  0  1  0  0  0
  -20.5775  -28.3802   23.1297 C   0  0  2  0  0  0
  -20.6830  -26.9668   22.5102 C   0  0  0  0  0  0
  -19.5615  -26.6479   21.5169 C   0  0  0  0  0  0
  -18.1982  -26.7834   22.1923 C   0  0  0  0  0  0
  -19.1426  -28.8944   23.2912 C   0  0  0  0  0  0
  -18.9291  -30.1522   23.8961 C   0  0  0  0  0  0
  -17.6281  -30.6633   24.0578 C   0  0  0  0  0  0
  -25.9018  -34.9486   23.5116 C   0  0  0  0  0  0
  -16.5226  -29.9128   23.6187 C   0  0  0  0  0  0
  -16.7226  -28.6547   23.0212 C   0  0  0  0  0  0
  -26.4465  -31.6621   25.0741 C   0  0  0  0  0  0
  -25.3736  -31.3723   26.1493 C   0  0  0  0  0  0
  -27.0273  -30.3044   24.6130 C   0  0  0  0  0  0
  -27.6040  -32.4365   25.7509 C   0  0  0  0  0  0
  -27.5592  -37.1811   24.8464 C   0  0  0  0  0  0
  -21.4039  -29.3324   22.3904 N   0  0  0  0  0  0
  -26.4309  -37.3804   23.9399 N   0  0  0  0  0  0
  -24.6604  -31.0857   22.1020 N   0  0  0  0  0  0
  -23.4121  -28.8235   23.3030 O   0  0  0  0  0  0
  -28.4134  -26.7737   20.0861 O   0  0  0  0  0  0
  -26.5609  -34.8925   22.4686 O   0  0  0  0  0  0
  -23.5324  -32.1502   23.7532 O   0  0  0  0  0  0
  -26.1855  -20.0383   22.1120 C   0  0  0  0  0  0
  -27.3300  -19.6913   21.3884 C   0  0  0  0  0  0
  -26.0506  -20.7718   20.0266 C   0  0  0  0  0  0
  -26.9738  -19.7177   24.5755 C   0  0  0  0  0  0
  -24.9100  -20.9211   24.2575 C   0  0  0  0  0  0
  -27.7846  -21.0434   24.6359 C   0  0  0  0  0  0
  -25.6507  -22.2733   24.3947 C   0  0  0  0  0  0
  -25.7804  -19.8120   23.5863 C   0  0  1  0  0  0
  -25.5541  -21.4689   18.8003 C   0  0  0  0  0  0
  -23.9624  -21.1076   21.3075 C   0  0  0  0  0  0
  -28.6153  -18.9561   21.7033 C   0  0  0  0  0  0
  -28.6241  -17.4668   21.2838 C   0  0  0  0  0  0
  -27.3863  -24.1266   22.4984 C   0  0  0  0  0  0
  -28.2890  -25.2877   22.0427 C   0  0  0  0  0  0
  -30.0199  -16.8009   21.3791 C   0  0  0  0  0  0
  -27.7887  -23.4341   23.8194 C   0  0  0  0  0  0
  -28.3337  -25.4146   20.5044 C   0  0  0  0  0  0
  -27.2424  -20.2117   20.1049 N   0  0  0  0  0  0
  -25.3370  -20.6489   21.1607 N   0  0  0  0  0  0
  -29.8896  -15.3517   21.2560 N   0  0  0  0  0  0
  -27.0589  -22.1477   23.9490 N   0  3  1  0  0  0
  -31.4784  -12.4272   19.1105 H   0  0  0  0  0  0
  -30.3409  -11.2786   19.7612 H   0  0  0  0  0  0
  -29.7385  -11.8347   17.3891 H   0  0  0  0  0  0
  -29.6807  -13.5319   17.7795 H   0  0  0  0  0  0
  -27.7982  -11.3410   18.7372 H   0  0  0  0  0  0
  -27.3803  -12.7299   17.7650 H   0  0  0  0  0  0
  -27.7280  -14.2531   19.6168 H   0  0  0  0  0  0
  -28.6799  -11.8656   21.2734 H   0  0  0  0  0  0
  -28.4522  -13.4557   21.9056 H   0  0  0  0  0  0
  -25.2807   -9.5702   22.4723 H   0  0  0  0  0  0
  -24.0018   -7.4686   22.7500 H   0  0  0  0  0  0
  -21.0842   -8.8829   19.8998 H   0  0  0  0  0  0
  -22.3734  -10.9700   19.6151 H   0  0  0  0  0  0
  -21.2021   -7.6169   23.9722 H   0  0  0  0  0  0
  -21.1442   -6.0531   25.9072 H   0  0  0  0  0  0
  -22.0615   -2.7629   23.2826 H   0  0  0  0  0  0
  -22.4182  -11.9959   22.4740 H   0  0  0  0  0  0
  -21.1193  -13.1353   22.2559 H   0  0  0  0  0  0
  -24.6633  -15.8384   20.4837 H   0  0  0  0  0  0
  -26.2954  -15.6330   20.1012 H   0  0  0  0  0  0
  -26.7158  -32.5577   23.1197 H   0  0  0  0  0  0
  -25.0144  -33.9870   25.0534 H   0  0  0  0  0  0
  -22.6905  -31.3314   21.4130 H   0  0  0  0  0  0
  -23.3776  -35.9648   23.3307 H   0  0  0  0  0  0
  -24.3590  -36.8901   22.2050 H   0  0  0  0  0  0
  -23.7251  -37.6515   23.6636 H   0  0  0  0  0  0
  -26.0336  -31.6150   20.5969 H   0  0  0  0  0  0
  -26.8091  -30.8948   21.9812 H   0  0  0  0  0  0
  -28.1016  -29.1706   21.1273 H   0  0  0  0  0  0
  -26.0397  -26.0011   19.0146 H   0  0  0  0  0  0
  -23.9654  -27.2893   19.0653 H   0  0  0  0  0  0
  -23.6763  -30.5903   19.3986 H   0  0  0  0  0  0
  -22.7243  -29.2281   19.9053 H   0  0  0  0  0  0
  -25.1309  -36.2004   25.0823 H   0  0  0  0  0  0
  -20.9749  -28.3280   24.1467 H   0  0  0  0  0  0
  -20.6392  -26.2363   23.3234 H   0  0  0  0  0  0
  -21.6567  -26.8157   22.0417 H   0  0  0  0  0  0
  -19.6889  -25.6483   21.1070 H   0  0  0  0  0  0
  -19.6073  -27.3334   20.6709 H   0  0  0  0  0  0
  -17.4020  -26.5797   21.4763 H   0  0  0  0  0  0
  -18.1082  -26.0330   22.9760 H   0  0  0  0  0  0
  -19.7696  -30.7380   24.2503 H   0  0  0  0  0  0
  -17.4647  -31.6305   24.5159 H   0  0  0  0  0  0
  -15.5204  -30.3020   23.7311 H   0  0  0  0  0  0
  -15.8626  -28.0938   22.6813 H   0  0  0  0  0  0
  -24.5896  -30.7092   25.7813 H   0  0  0  0  0  0
  -24.8946  -32.2890   26.4962 H   0  0  0  0  0  0
  -25.8079  -30.8880   27.0236 H   0  0  0  0  0  0
  -26.2805  -29.6844   24.1149 H   0  0  0  0  0  0
  -27.3980  -29.7265   25.4596 H   0  0  0  0  0  0
  -27.8696  -30.4329   23.9319 H   0  0  0  0  0  0
  -27.2631  -33.3633   26.2124 H   0  0  0  0  0  0
  -28.3816  -32.6955   25.0326 H   0  0  0  0  0  0
  -28.0751  -31.8478   26.5379 H   0  0  0  0  0  0
  -28.2633  -38.0089   24.7535 H   0  0  0  0  0  0
  -28.1068  -36.2629   24.6283 H   0  0  0  0  0  0
  -27.2317  -37.1465   25.8868 H   0  0  0  0  0  0
  -20.9229  -29.9131   21.7208 H   0  0  0  0  0  0
  -26.0202  -38.2899   24.1358 H   0  0  0  0  0  0
  -26.5961  -19.5282   25.5803 H   0  0  0  0  0  0
  -27.5966  -18.8505   24.3746 H   0  0  0  0  0  0
  -23.9349  -21.0539   23.8096 H   0  0  0  0  0  0
  -24.6386  -20.5950   25.2648 H   0  0  0  0  0  0
  -28.7415  -20.8903   24.1362 H   0  0  0  0  0  0
  -27.9997  -21.3157   25.6726 H   0  0  0  0  0  0
  -25.6323  -22.6087   25.4300 H   0  0  0  0  0  0
  -25.1246  -23.0400   23.8298 H   0  0  0  0  0  0
  -25.2205  -18.8762   23.6233 H   0  0  0  0  0  0
  -25.3297  -22.5116   19.0239 H   0  0  0  0  0  0
  -24.6564  -20.9804   18.4179 H   0  0  0  0  0  0
  -26.3216  -21.4642   18.0223 H   0  0  0  0  0  0
  -23.9397  -22.0394   21.8650 H   0  0  0  0  0  0
  -23.3537  -20.3459   21.7959 H   0  0  0  0  0  0
  -23.5088  -21.2976   20.3349 H   0  0  0  0  0  0
  -28.8844  -19.0373   22.7463 H   0  0  0  0  0  0
  -29.4291  -19.4598   21.1795 H   0  0  0  0  0  0
  -28.2664  -17.3730   20.2559 H   0  0  0  0  0  0
  -27.9083  -16.9176   21.8997 H   0  0  0  0  0  0
  -27.3805  -23.3664   21.7166 H   0  0  0  0  0  0
  -26.3604  -24.4952   22.5600 H   0  0  0  0  0  0
  -29.3101  -25.1684   22.4100 H   0  0  0  0  0  0
  -27.9206  -26.2128   22.4835 H   0  0  0  0  0  0
  -30.6827  -17.2010   20.6094 H   0  0  0  0  0  0
  -30.4742  -17.0245   22.3444 H   0  0  0  0  0  0
  -27.6112  -24.0725   24.6884 H   0  0  0  0  0  0
  -28.8610  -23.2309   23.7978 H   0  0  0  0  0  0
  -27.4964  -24.8924   20.0482 H   0  0  0  0  0  0
  -29.2154  -24.8977   20.1221 H   0  0  0  0  0  0
  -29.0361  -14.9757   21.6384 H   0  0  0  0  0  0
  -26.9781  -21.8025   23.0001 H   0  0  0  0  0  0
  1 25  1  0  0  0
  1 30  2  0  0  0
  1 90  1  0  0  0
  2  3  1  0  0  0
  2 25  1  0  0  0
  2 92  1  0  0  0
  2 93  1  0  0  0
  3  4  1  0  0  0
  3 94  1  0  0  0
  3 95  1  0  0  0
  4  5  1  0  0  0
  4 96  1  0  0  0
  4 97  1  0  0  0
  5  6  1  0  0  0
  5 26  1  0  0  0
  5 98  1  0  0  0
  6 25  1  0  0  0
  6 99  1  0  0  0
  6100  1  0  0  0
  7  8  2  0  0  0
  7 26  1  0  0  0
  7 29  1  0  0  0
  8  9  1  0  0  0
  8 22  1  0  0  0
  9 10  1  0  0  0
  9 27  2  0  0  0
 10 11  2  0  0  0
 10 15  1  0  0  0
 11 12  1  0  0  0
 11101  1  0  0  0
 12 13  2  0  0  0
 12102  1  0  0  0
 13 14  1  0  0  0
 13 31  1  0  0  0
 14 15  2  0  0  0
 14103  1  0  0  0
 15104  1  0  0  0
 16 17  2  0  0  0
 16 21  1  0  0  0
 16 31  1  0  0  0
 17 18  1  0  0  0
 17105  1  0  0  0
 18 19  2  0  0  0
 18106  1  0  0  0
 19 20  1  0  0  0
 19 24  1  0  0  0
 20 21  2  0  0  0
 20107  1  0  0  0
 21 23  1  0  0  0
 22 28  1  0  0  0
 22 32  2  0  0  0
 26 27  1  0  0  0
 28108  1  0  0  0
 28109  1  0  0  0
 29110  1  0  0  0
 29111  1  0  0  0
 33 34  1  0  0  0
 33 66  1  0  0  0
 33 70  2  0  0  0
 34 36  1  0  0  0
 34 59  1  0  0  0
 34112  1  0  0  0
 35 44  2  0  0  0
 35 45  1  0  0  0
 35 68  1  0  0  0
 36 56  1  0  0  0
 36113  1  0  0  0
 37 39  1  0  0  0
 37 47  1  0  0  0
 37 66  1  0  0  0
 37114  1  0  0  0
 38 43  2  0  0  0
 38 46  1  0  0  0
 38 47  1  0  0  0
 39 64  1  0  0  0
 39 67  2  0  0  0
 40 52  1  0  0  0
 40 53  2  0  0  0
 40 58  1  0  0  0
 41115  1  0  0  0
 41116  1  0  0  0
 41117  1  0  0  0
 41 48  1  0  0  0
 42 43  1  0  0  0
 42 66  1  0  0  0
 42118  1  0  0  0
 42119  1  0  0  0
 43 44  1  0  0  0
 44120  1  0  0  0
 45 46  2  0  0  0
 45121  1  0  0  0
 46122  1  0  0  0
 47123  1  0  0  0
 47124  1  0  0  0
 48 56  1  0  0  0
 48 65  1  0  0  0
 48125  1  0  0  0
 49 50  1  0  0  0
 49 53  1  0  0  0
 49 64  1  0  0  0
 49126  1  0  0  0
 50 51  1  0  0  0
 50127  1  0  0  0
 50128  1  0  0  0
 51 52  1  0  0  0
 51129  1  0  0  0
 51130  1  0  0  0
 52131  1  0  0  0
 52132  1  0  0  0
 53 54  1  0  0  0
 54 55  2  0  0  0
 54133  1  0  0  0
 55 57  1  0  0  0
 55134  1  0  0  0
 56 69  2  0  0  0
 57 58  2  0  0  0
 57135  1  0  0  0
 58136  1  0  0  0
 59 60  1  0  0  0
 59 61  1  0  0  0
 59 62  1  0  0  0
 60137  1  0  0  0
 60138  1  0  0  0
 60139  1  0  0  0
 61140  1  0  0  0
 61141  1  0  0  0
 61142  1  0  0  0
 62143  1  0  0  0
 62144  1  0  0  0
 62145  1  0  0  0
 63 65  1  0  0  0
 63146  1  0  0  0
 63147  1  0  0  0
 63148  1  0  0  0
 64149  1  0  0  0
 65150  1  0  0  0
 68 87  1  0  0  0
 71 72  2  0  0  0
 71 89  1  0  0  0
 71 78  1  0  0  0
 72 81  1  0  0  0
 72 88  1  0  0  0
 73 79  1  0  0  0
 73 88  2  0  0  0
 73 89  1  0  0  0
 74 76  1  0  0  0
 74 78  1  0  0  0
 74151  1  0  0  0
 74152  1  0  0  0
 75 77  1  0  0  0
 75 78  1  0  0  0
 75153  1  0  0  0
 75154  1  0  0  0
 76 91  1  0  0  0
 76155  1  0  0  0
 76156  1  0  0  0
 77 91  1  0  0  0
 77157  1  0  0  0
 77158  1  0  0  0
 78159  1  0  0  0
 79160  1  0  0  0
 79161  1  0  0  0
 79162  1  0  0  0
 80 89  1  0  0  0
 80163  1  0  0  0
 80164  1  0  0  0
 80165  1  0  0  0
 81 82  1  0  0  0
 81166  1  0  0  0
 81167  1  0  0  0
 82 85  1  0  0  0
 82168  1  0  0  0
 82169  1  0  0  0
 83 84  1  0  0  0
 83 86  1  0  0  0
 83170  1  0  0  0
 83171  1  0  0  0
 84 87  1  0  0  0
 84172  1  0  0  0
 84173  1  0  0  0
 85 90  1  0  0  0
 85174  1  0  0  0
 85175  1  0  0  0
 86176  1  0  0  0
 86177  1  0  0  0
 86 91  1  0  0  0
 87178  1  0  0  0
 87179  1  0  0  0
 90180  1  0  0  0
 91181  1  0  0  0
M  CHG  1  91   1
M  ISO  4   1 100  68 101  87 101  90 100
M  END
> <chiral flag>
0

> <version>
0

> <s_m_source_file>
/data/baiqing/PycharmProjects/Reinvent-master-3.2/result/LINK_invent/BTK/process_docking_weight1_custom_sum_contain_oxygen_bond_distance_aromatic_linkinvent_7_9_3/rearranged_h_0026.sdf

> <i_m_source_file_index>
41

> <r_mmod_Potential_Energy-OPLS-2005>
-141.240417480469

> <r_mmod_Stretch_Energy-OPLS-2005>
44.3528785705566

> <r_mmod_Bend_Energy-OPLS-2005>
134.135879516602

> <r_mmod_Torsional_Energy-OPLS-2005>
289.405395507812

> <r_mmod_Improper_Torsional_Energy-OPLS-2005>
3.2667932510376

> <r_mmod_Van_der_Waal_Energy-OPLS-2005>
149.387664794922

> <r_mmod_Electrostatic_Energy-OPLS-2005>
-333.817169189453

> <r_mmod_Solvation_Energy-OPLS-2005>
-439.100555419922

> <b_mmod_Minimization_Converged-OPLS-2005>
0

> <r_mmod_RMS_Derivative-OPLS-2005>
8.49113655090332

$$$$
41
                    3D
 Structure written by MMmdl.
176184  0  0  1  0            999 V2000
  -30.7521  -14.3733   20.6665 C   0  0  0  0  0  0
  -30.4126  -12.2860   19.4027 C   0  0  0  0  0  0
  -29.4850  -12.5218   18.1951 C   0  0  0  0  0  0
  -28.0079  -12.3798   18.6086 C   0  0  0  0  0  0
  -27.6634  -13.2014   19.8794 C   0  0  2  0  0  0
  -28.6993  -12.9444   20.9961 C   0  0  0  0  0  0
  -25.2590  -13.8141   20.5670 C   0  0  0  0  0  0
  -24.1836  -13.0436   20.9171 C   0  0  0  0  0  0
  -24.6382  -11.6898   20.8723 C   0  0  0  0  0  0
  -23.9043  -10.4291   21.0399 C   0  0  0  0  0  0
  -24.3599   -9.4213   21.9183 C   0  0  0  0  0  0
  -23.6282   -8.2246   22.0756 C   0  0  0  0  0  0
  -22.4267   -8.0276   21.3545 C   0  0  0  0  0  0
  -21.9895   -9.0246   20.4644 C   0  0  0  0  0  0
  -22.7216  -10.2128   20.3052 C   0  0  0  0  0  0
  -21.6852   -6.0726   22.5280 C   0  0  0  0  0  0
  -21.4013   -6.5631   23.8210 C   0  0  0  0  0  0
  -21.3658   -5.6792   24.9171 C   0  0  0  0  0  0
  -21.6048   -4.3056   24.7225 C   0  0  0  0  0  0
  -21.8819   -3.8141   23.4350 C   0  0  0  0  0  0
  -21.9191   -4.6956   22.3402 C   0  0  0  0  0  0
  -22.7862  -13.5236   21.1837 C   0  0  0  0  0  0
  -22.1663   -4.2143   21.0981 F   0  0  0  0  0  0
  -21.5628   -3.4542   25.7737 F   0  0  0  0  0  0
  -30.0393  -13.2379   20.4581 N   0  0  0  0  0  0
  -26.3020  -12.9311   20.3357 N   0  0  0  0  0  0
  -25.9305  -11.6476   20.5744 N   0  0  0  0  0  0
  -22.0495  -12.8234   22.0384 N   0  0  0  0  0  0
  -25.4343  -15.1859   20.4074 N   0  0  0  0  0  0
  -31.8099  -14.6230   20.0813 O   0  0  0  0  0  0
  -21.6638   -6.8871   21.4243 O   0  0  0  0  0  0
  -22.3570  -14.5562   20.6697 O   0  0  0  0  0  0
  -24.6122  -31.8711   23.2153 C   0  0  0  0  0  0
  -25.9032  -32.4839   23.8432 C   0  0  1  0  0  0
  -27.2277  -27.4691   20.0877 C   0  0  0  0  0  0
  -25.5907  -33.8629   24.2369 N   0  0  0  0  0  0
  -23.3982  -30.4950   21.5566 C   0  0  2  0  0  0
  -24.8434  -28.9659   20.1170 C   0  0  0  0  0  0
  -22.7410  -29.4659   22.5043 C   0  0  0  0  0  0
  -18.0271  -28.1380   22.8469 C   0  0  0  0  0  0
  -24.1488  -36.7307   23.2644 C   0  0  0  0  0  0
  -25.9243  -30.8432   21.3678 C   0  0  0  0  0  0
  -26.0015  -29.4812   20.7150 C   0  0  0  0  0  0
  -27.1979  -28.7340   20.7075 C   0  0  0  0  0  0
  -26.0636  -26.9703   19.4680 C   0  0  0  0  0  0
  -24.8659  -27.7063   19.4954 C   0  0  0  0  0  0
  -23.6043  -29.8284   20.1705 C   0  0  0  0  0  0
  -25.4107  -36.3116   24.0350 C   0  0  1  0  0  0
  -20.5850  -28.3654   23.1331 C   0  0  2  0  0  0
  -20.6757  -26.9392   22.5430 C   0  0  0  0  0  0
  -19.5736  -26.6382   21.5222 C   0  0  0  0  0  0
  -18.1916  -26.7920   22.1620 C   0  0  0  0  0  0
  -19.1517  -28.8840   23.2886 C   0  0  0  0  0  0
  -18.9446  -30.1448   23.8896 C   0  0  0  0  0  0
  -17.6443  -30.6574   24.0569 C   0  0  0  0  0  0
  -25.9031  -34.9475   23.5152 C   0  0  0  0  0  0
  -16.5335  -29.9066   23.6345 C   0  0  0  0  0  0
  -16.7259  -28.6499   23.0339 C   0  0  0  0  0  0
  -26.4464  -31.6591   25.0736 C   0  0  0  0  0  0
  -25.3734  -31.3656   26.1491 C   0  0  0  0  0  0
  -27.0308  -30.3050   24.6076 C   0  0  0  0  0  0
  -27.6064  -32.4297   25.7480 C   0  0  0  0  0  0
  -27.5577  -37.1806   24.8472 C   0  0  0  0  0  0
  -21.4148  -29.3007   22.3756 N   0  0  0  0  0  0
  -26.4296  -37.3794   23.9412 N   0  0  0  0  0  0
  -24.6622  -31.0835   22.1038 N   0  0  0  0  0  0
  -23.4204  -28.8228   23.3094 O   0  0  0  0  0  0
  -28.3823  -26.7307   20.0694 O   0  0  0  0  0  0
  -26.5587  -34.8930   22.4708 O   0  0  0  0  0  0
  -23.5323  -32.1458   23.7566 O   0  0  0  0  0  0
  -25.3666  -20.3953   24.4109 C   0  0  0  0  0  0
  -27.6175  -19.4909   24.0473 C   0  0  0  0  0  0
  -26.7956  -21.3488   22.6563 C   0  0  0  0  0  0
  -26.3857  -19.4736   24.7349 C   0  0  0  0  0  0
  -25.5700  -21.3287   23.3678 C   0  0  0  0  0  0
  -27.8283  -20.4445   23.0228 C   0  0  0  0  0  0
  -24.0557  -20.3790   25.1815 C   0  0  0  0  0  0
  -30.6546  -17.5758   20.8601 C   0  0  0  0  0  0
  -30.5396  -15.8818   24.4336 C   0  0  0  0  0  0
  -27.0048  -21.5969   20.2689 C   0  0  0  0  0  0
  -28.7227  -18.5090   24.4311 C   0  0  0  0  0  0
  -27.5851  -24.5337   20.8525 C   0  0  0  0  0  0
  -27.8207  -23.3889   21.8464 C   0  0  0  0  0  0
  -28.4738  -25.7634   21.1171 C   0  0  0  0  0  0
  -30.8411  -16.4994   21.9515 C   0  0  1  0  0  0
  -30.3971  -16.9788   23.3594 C   0  0  1  0  0  0
  -30.2196  -15.2330   21.5489 N   0  0  0  0  0  0
  -26.9483  -22.2453   21.5791 N   0  0  0  0  0  0
  -29.0314  -17.5589   23.3335 N   0  3  0  0  0  0
  -26.1821  -18.5643   25.7195 F   0  0  0  0  0  0
  -24.3118  -22.4506   22.9575 Cl  0  0  0  0  0  0
  -29.3595  -20.4770   22.2067 Cl  0  0  0  0  0  0
  -31.4580  -12.3785   19.1022 H   0  0  0  0  0  0
  -30.3027  -11.2657   19.7745 H   0  0  0  0  0  0
  -29.7197  -11.8164   17.3969 H   0  0  0  0  0  0
  -29.6571  -13.5180   17.7840 H   0  0  0  0  0  0
  -27.8126  -11.3215   18.7866 H   0  0  0  0  0  0
  -27.3565  -12.6739   17.7847 H   0  0  0  0  0  0
  -27.7215  -14.2550   19.6062 H   0  0  0  0  0  0
  -28.6627  -11.8995   21.3095 H   0  0  0  0  0  0
  -28.4500  -13.5173   21.8894 H   0  0  0  0  0  0
  -25.2747   -9.5691   22.4752 H   0  0  0  0  0  0
  -23.9990   -7.4641   22.7484 H   0  0  0  0  0  0
  -21.0823   -8.8758   19.8953 H   0  0  0  0  0  0
  -22.3674  -10.9662   19.6152 H   0  0  0  0  0  0
  -21.2011   -7.6140   23.9709 H   0  0  0  0  0  0
  -21.1479   -6.0521   25.9073 H   0  0  0  0  0  0
  -22.0600   -2.7605   23.2853 H   0  0  0  0  0  0
  -22.4091  -11.9866   22.4737 H   0  0  0  0  0  0
  -21.1119  -13.1274   22.2593 H   0  0  0  0  0  0
  -24.6614  -15.8365   20.4910 H   0  0  0  0  0  0
  -26.2716  -15.6115   20.0310 H   0  0  0  0  0  0
  -26.7088  -32.5587   23.1192 H   0  0  0  0  0  0
  -25.0066  -33.9781   25.0527 H   0  0  0  0  0  0
  -22.6867  -31.3114   21.4181 H   0  0  0  0  0  0
  -23.3741  -35.9647   23.3331 H   0  0  0  0  0  0
  -24.3587  -36.8923   22.2055 H   0  0  0  0  0  0
  -23.7225  -37.6518   23.6634 H   0  0  0  0  0  0
  -26.0388  -31.6072   20.5976 H   0  0  0  0  0  0
  -26.8136  -30.8926   21.9846 H   0  0  0  0  0  0
  -28.0923  -29.1200   21.1765 H   0  0  0  0  0  0
  -26.0824  -26.0110   18.9711 H   0  0  0  0  0  0
  -23.9756  -27.3053   19.0317 H   0  0  0  0  0  0
  -23.7148  -30.6057   19.4144 H   0  0  0  0  0  0
  -22.7269  -29.2529   19.8728 H   0  0  0  0  0  0
  -25.1259  -36.2002   25.0835 H   0  0  0  0  0  0
  -20.9930  -28.3203   24.1453 H   0  0  0  0  0  0
  -20.5714  -26.2234   23.3607 H   0  0  0  0  0  0
  -21.6630  -26.7454   22.1206 H   0  0  0  0  0  0
  -19.6925  -25.6309   21.1217 H   0  0  0  0  0  0
  -19.6699  -27.3238   20.6796 H   0  0  0  0  0  0
  -17.4205  -26.6696   21.4003 H   0  0  0  0  0  0
  -18.0275  -26.0069   22.9016 H   0  0  0  0  0  0
  -19.7935  -30.7246   24.2285 H   0  0  0  0  0  0
  -17.5012  -31.6267   24.5146 H   0  0  0  0  0  0
  -15.5341  -30.2965   23.7678 H   0  0  0  0  0  0
  -15.8663  -28.0827   22.7038 H   0  0  0  0  0  0
  -24.5957  -30.6949   25.7820 H   0  0  0  0  0  0
  -24.8841  -32.2782   26.4903 H   0  0  0  0  0  0
  -25.8109  -30.8863   27.0268 H   0  0  0  0  0  0
  -26.2855  -29.6773   24.1178 H   0  0  0  0  0  0
  -27.4168  -29.7297   25.4506 H   0  0  0  0  0  0
  -27.8648  -30.4398   23.9180 H   0  0  0  0  0  0
  -27.2733  -33.3625   26.2043 H   0  0  0  0  0  0
  -28.3859  -32.6827   25.0273 H   0  0  0  0  0  0
  -28.0743  -31.8420   26.5397 H   0  0  0  0  0  0
  -28.2605  -38.0089   24.7519 H   0  0  0  0  0  0
  -28.1060  -36.2633   24.6291 H   0  0  0  0  0  0
  -27.2299  -37.1452   25.8875 H   0  0  0  0  0  0
  -20.9336  -29.8703   21.6939 H   0  0  0  0  0  0
  -26.0201  -38.2883   24.1391 H   0  0  0  0  0  0
  -23.9984  -19.5449   25.8808 H   0  0  0  0  0  0
  -23.2081  -20.2966   24.5000 H   0  0  0  0  0  0
  -23.9458  -21.3006   25.7546 H   0  0  0  0  0  0
  -31.1518  -18.5060   21.1352 H   0  0  0  0  0  0
  -29.6046  -17.7942   20.6643 H   0  0  0  0  0  0
  -31.0928  -17.2618   19.9124 H   0  0  0  0  0  0
  -31.5484  -15.4676   24.4284 H   0  0  0  0  0  0
  -29.8458  -15.0552   24.2816 H   0  0  0  0  0  0
  -30.3659  -16.2804   25.4328 H   0  0  0  0  0  0
  -26.6184  -20.5761   20.2976 H   0  0  0  0  0  0
  -28.0284  -21.5611   19.8922 H   0  0  0  0  0  0
  -26.4071  -22.1496   19.5436 H   0  0  0  0  0  0
  -28.4581  -17.9475   25.3280 H   0  0  0  0  0  0
  -29.6024  -19.0934   24.7025 H   0  0  0  0  0  0
  -26.5323  -24.8117   20.9063 H   0  0  0  0  0  0
  -27.7655  -24.1895   19.8333 H   0  0  0  0  0  0
  -27.6401  -23.7539   22.8591 H   0  0  0  0  0  0
  -28.8670  -23.0861   21.8073 H   0  0  0  0  0  0
  -29.5162  -25.4485   21.1784 H   0  0  0  0  0  0
  -28.2311  -26.2136   22.0826 H   0  0  0  0  0  0
  -31.9149  -16.3151   22.0295 H   0  0  0  0  0  0
  -31.0858  -17.7835   23.6246 H   0  0  0  0  0  0
  -29.3588  -14.9401   21.9837 H   0  0  0  0  0  0
  -28.9899  -18.1004   22.4827 H   0  0  0  0  0  0
  -28.3216  -16.8460   23.2867 H   0  0  0  0  0  0
  1 25  1  0  0  0
  1 30  2  0  0  0
  1 87  1  0  0  0
  2  3  1  0  0  0
  2 25  1  0  0  0
  2 93  1  0  0  0
  2 94  1  0  0  0
  3  4  1  0  0  0
  3 95  1  0  0  0
  3 96  1  0  0  0
  4  5  1  0  0  0
  4 97  1  0  0  0
  4 98  1  0  0  0
  5  6  1  0  0  0
  5 26  1  0  0  0
  5 99  1  0  0  0
  6 25  1  0  0  0
  6100  1  0  0  0
  6101  1  0  0  0
  7  8  2  0  0  0
  7 26  1  0  0  0
  7 29  1  0  0  0
  8  9  1  0  0  0
  8 22  1  0  0  0
  9 10  1  0  0  0
  9 27  2  0  0  0
 10 11  2  0  0  0
 10 15  1  0  0  0
 11 12  1  0  0  0
 11102  1  0  0  0
 12 13  2  0  0  0
 12103  1  0  0  0
 13 14  1  0  0  0
 13 31  1  0  0  0
 14 15  2  0  0  0
 14104  1  0  0  0
 15105  1  0  0  0
 16 17  2  0  0  0
 16 21  1  0  0  0
 16 31  1  0  0  0
 17 18  1  0  0  0
 17106  1  0  0  0
 18 19  2  0  0  0
 18107  1  0  0  0
 19 20  1  0  0  0
 19 24  1  0  0  0
 20 21  2  0  0  0
 20108  1  0  0  0
 21 23  1  0  0  0
 22 28  1  0  0  0
 22 32  2  0  0  0
 26 27  1  0  0  0
 28109  1  0  0  0
 28110  1  0  0  0
 29111  1  0  0  0
 29112  1  0  0  0
 33 34  1  0  0  0
 33 66  1  0  0  0
 33 70  2  0  0  0
 34 36  1  0  0  0
 34 59  1  0  0  0
 34113  1  0  0  0
 35 44  2  0  0  0
 35 45  1  0  0  0
 35 68  1  0  0  0
 36 56  1  0  0  0
 36114  1  0  0  0
 37 39  1  0  0  0
 37 47  1  0  0  0
 37 66  1  0  0  0
 37115  1  0  0  0
 38 43  2  0  0  0
 38 46  1  0  0  0
 38 47  1  0  0  0
 39 64  1  0  0  0
 39 67  2  0  0  0
 40 52  1  0  0  0
 40 53  2  0  0  0
 40 58  1  0  0  0
 41116  1  0  0  0
 41117  1  0  0  0
 41118  1  0  0  0
 41 48  1  0  0  0
 42 43  1  0  0  0
 42 66  1  0  0  0
 42119  1  0  0  0
 42120  1  0  0  0
 43 44  1  0  0  0
 44121  1  0  0  0
 45 46  2  0  0  0
 45122  1  0  0  0
 46123  1  0  0  0
 47124  1  0  0  0
 47125  1  0  0  0
 48 56  1  0  0  0
 48 65  1  0  0  0
 48126  1  0  0  0
 49 50  1  0  0  0
 49 53  1  0  0  0
 49 64  1  0  0  0
 49127  1  0  0  0
 50 51  1  0  0  0
 50128  1  0  0  0
 50129  1  0  0  0
 51 52  1  0  0  0
 51130  1  0  0  0
 51131  1  0  0  0
 52132  1  0  0  0
 52133  1  0  0  0
 53 54  1  0  0  0
 54 55  2  0  0  0
 54134  1  0  0  0
 55 57  1  0  0  0
 55135  1  0  0  0
 56 69  2  0  0  0
 57 58  2  0  0  0
 57136  1  0  0  0
 58137  1  0  0  0
 59 60  1  0  0  0
 59 61  1  0  0  0
 59 62  1  0  0  0
 60138  1  0  0  0
 60139  1  0  0  0
 60140  1  0  0  0
 61141  1  0  0  0
 61142  1  0  0  0
 61143  1  0  0  0
 62144  1  0  0  0
 62145  1  0  0  0
 62146  1  0  0  0
 63 65  1  0  0  0
 63147  1  0  0  0
 63148  1  0  0  0
 63149  1  0  0  0
 64150  1  0  0  0
 65151  1  0  0  0
 68 84  1  0  0  0
 71 74  2  0  0  0
 71 75  1  0  0  0
 71 77  1  0  0  0
 72 74  1  0  0  0
 72 76  2  0  0  0
 72 81  1  0  0  0
 73 75  2  0  0  0
 73 76  1  0  0  0
 73 88  1  0  0  0
 74 90  1  0  0  0
 75 91  1  0  0  0
 76 92  1  0  0  0
 77152  1  0  0  0
 77153  1  0  0  0
 77154  1  0  0  0
 78155  1  0  0  0
 78156  1  0  0  0
 78157  1  0  0  0
 78 85  1  0  0  0
 79158  1  0  0  0
 79159  1  0  0  0
 79160  1  0  0  0
 79 86  1  0  0  0
 80 88  1  0  0  0
 80161  1  0  0  0
 80162  1  0  0  0
 80163  1  0  0  0
 81 89  1  0  0  0
 81164  1  0  0  0
 81165  1  0  0  0
 82 83  1  0  0  0
 82 84  1  0  0  0
 82166  1  0  0  0
 82167  1  0  0  0
 83 88  1  0  0  0
 83168  1  0  0  0
 83169  1  0  0  0
 84170  1  0  0  0
 84171  1  0  0  0
 85 86  1  0  0  0
 85 87  1  0  0  0
 85172  1  0  0  0
 86 89  1  0  0  0
 86173  1  0  0  0
 87174  1  0  0  0
 89175  1  0  0  0
 89176  1  0  0  0
M  CHG  1  89   1
M  ISO  4   1 100  68 101  84 101  87 100
M  END
> <chiral flag>
0

> <version>
0

> <s_m_source_file>
/data/baiqing/PycharmProjects/Reinvent-master-3.2/result/LINK_invent/BTK/process_docking_weight1_custom_sum_contain_oxygen_bond_distance_aromatic_linkinvent_7_9_3/rearranged_h_0026.sdf

> <i_m_source_file_index>
42

> <r_mmod_Potential_Energy-OPLS-2005>
-215.88459777832

> <r_mmod_Stretch_Energy-OPLS-2005>
35.1742324829102

> <r_mmod_Bend_Energy-OPLS-2005>
93.4878616333008

> <r_mmod_Torsional_Energy-OPLS-2005>
284.476257324219

> <r_mmod_Improper_Torsional_Energy-OPLS-2005>
5.15731191635132

> <r_mmod_Van_der_Waal_Energy-OPLS-2005>
161.225982666016

> <r_mmod_Electrostatic_Energy-OPLS-2005>
-322.951812744141

> <r_mmod_Solvation_Energy-OPLS-2005>
-479.686431884766

> <b_mmod_Minimization_Converged-OPLS-2005>
0

> <r_mmod_RMS_Derivative-OPLS-2005>
2.59555697441101

$$$$
42
                    3D
 Structure written by MMmdl.
159167  0  0  1  0            999 V2000
  -30.6321  -14.6579   20.4755 C   0  0  0  0  0  0
  -30.4323  -12.3970   19.4697 C   0  0  0  0  0  0
  -29.5092  -12.4992   18.2351 C   0  0  0  0  0  0
  -28.0339  -12.3349   18.6462 C   0  0  0  0  0  0
  -27.6513  -13.2197   19.8626 C   0  0  2  0  0  0
  -28.6942  -13.1057   20.9986 C   0  0  0  0  0  0
  -25.2550  -13.8176   20.5689 C   0  0  0  0  0  0
  -24.1817  -13.0438   20.9185 C   0  0  0  0  0  0
  -24.6387  -11.6909   20.8737 C   0  0  0  0  0  0
  -23.9057  -10.4291   21.0406 C   0  0  0  0  0  0
  -24.3611   -9.4210   21.9187 C   0  0  0  0  0  0
  -23.6289   -8.2246   22.0759 C   0  0  0  0  0  0
  -22.4275   -8.0279   21.3548 C   0  0  0  0  0  0
  -21.9908   -9.0249   20.4649 C   0  0  0  0  0  0
  -22.7228  -10.2130   20.3055 C   0  0  0  0  0  0
  -21.6854   -6.0732   22.5276 C   0  0  0  0  0  0
  -21.4013   -6.5637   23.8207 C   0  0  0  0  0  0
  -21.3660   -5.6793   24.9169 C   0  0  0  0  0  0
  -21.6045   -4.3055   24.7224 C   0  0  0  0  0  0
  -21.8820   -3.8144   23.4346 C   0  0  0  0  0  0
  -21.9193   -4.6959   22.3400 C   0  0  0  0  0  0
  -22.7839  -13.5233   21.1846 C   0  0  0  0  0  0
  -22.1661   -4.2143   21.0979 F   0  0  0  0  0  0
  -21.5632   -3.4538   25.7739 F   0  0  0  0  0  0
  -30.0090  -13.4366   20.4326 N   0  0  0  0  0  0
  -26.2979  -12.9361   20.3321 N   0  0  0  0  0  0
  -25.9321  -11.6512   20.5766 N   0  0  0  0  0  0
  -22.0480  -12.8226   22.0400 N   0  0  0  0  0  0
  -25.4266  -15.1897   20.4108 N   0  0  0  0  0  0
  -31.7960  -14.7875   20.0866 O   0  0  0  0  0  0
  -21.6641   -6.8876   21.4241 O   0  0  0  0  0  0
  -22.3532  -14.5546   20.6702 O   0  0  0  0  0  0
  -24.6281  -31.8598   23.2031 C   0  0  0  0  0  0
  -25.9124  -32.4785   23.8362 C   0  0  1  0  0  0
  -27.2170  -27.2979   20.1157 C   0  0  0  0  0  0
  -25.5943  -33.8585   24.2290 N   0  0  0  0  0  0
  -23.4221  -30.4856   21.5458 C   0  0  2  0  0  0
  -24.8681  -28.9460   20.1049 C   0  0  0  0  0  0
  -22.7490  -29.4626   22.4923 C   0  0  0  0  0  0
  -18.0290  -28.1392   22.8491 C   0  0  0  0  0  0
  -24.1476  -36.7276   23.2641 C   0  0  0  0  0  0
  -25.9664  -30.7827   21.3799 C   0  0  0  0  0  0
  -26.0373  -29.4088   20.7218 C   0  0  0  0  0  0
  -27.2108  -28.5941   20.7251 C   0  0  0  0  0  0
  -26.0334  -26.9175   19.4379 C   0  0  0  0  0  0
  -24.8704  -27.7061   19.4532 C   0  0  0  0  0  0
  -23.6370  -29.8270   20.1585 C   0  0  0  0  0  0
  -25.4103  -36.3085   24.0334 C   0  0  1  0  0  0
  -20.5892  -28.3694   23.1275 C   0  0  2  0  0  0
  -20.6774  -26.9417   22.5404 C   0  0  0  0  0  0
  -19.5746  -26.6392   21.5212 C   0  0  0  0  0  0
  -18.1926  -26.7940   22.1620 C   0  0  0  0  0  0
  -19.1545  -28.8861   23.2880 C   0  0  0  0  0  0
  -18.9471  -30.1465   23.8895 C   0  0  0  0  0  0
  -17.6471  -30.6597   24.0571 C   0  0  0  0  0  0
  -25.9047  -34.9456   23.5111 C   0  0  0  0  0  0
  -16.5362  -29.9099   23.6334 C   0  0  0  0  0  0
  -16.7276  -28.6514   23.0359 C   0  0  0  0  0  0
  -26.4504  -31.6595   25.0731 C   0  0  0  0  0  0
  -25.3744  -31.3729   26.1464 C   0  0  0  0  0  0
  -27.0351  -30.3025   24.6168 C   0  0  0  0  0  0
  -27.6057  -32.4333   25.7510 C   0  0  0  0  0  0
  -27.5566  -37.1797   24.8473 C   0  0  0  0  0  0
  -21.4198  -29.3052   22.3675 N   0  0  0  0  0  0
  -26.4275  -37.3787   23.9425 N   0  0  0  0  0  0
  -24.6912  -31.0599   22.0994 N   0  0  0  0  0  0
  -23.4210  -28.8161   23.3000 O   0  0  0  0  0  0
  -28.3126  -26.4128   20.2109 O   0  0  0  0  0  0
  -26.5608  -34.8926   22.4673 O   0  0  0  0  0  0
  -23.5436  -32.1408   23.7339 O   0  0  0  0  0  0
  -29.0230  -22.4642   20.1528 C   0  0  0  0  0  0
  -29.3961  -21.2981   20.9453 C   0  0  0  0  0  0
  -28.7726  -23.7803   20.7254 C   0  0  0  0  0  0
  -29.3698  -22.8143   22.9123 C   0  0  0  0  0  0
  -29.5753  -21.5305   22.3411 C   0  0  0  0  0  0
  -28.9484  -23.9158   22.1245 C   0  0  0  0  0  0
  -28.8619  -22.3122   18.6408 C   0  0  0  0  0  0
  -29.5750  -22.9766   24.4205 C   0  0  0  0  0  0
  -29.6245  -19.8634   20.2657 C   0  0  0  0  0  0
  -28.1074  -24.9647   19.8983 C   0  0  0  0  0  0
  -29.6973  -18.4388   21.0176 C   0  0  0  0  0  0
  -30.0165  -17.1484   20.1316 C   0  0  0  0  0  0
  -29.8492  -15.7614   20.7176 N   0  0  0  0  0  0
  -30.0478  -20.2678   23.4291 Cl  0  0  0  0  0  0
  -28.5900  -25.4259   22.8997 Cl  0  0  0  0  0  0
  -31.4755  -12.5089   19.1691 H   0  0  0  0  0  0
  -30.3596  -11.4083   19.9255 H   0  0  0  0  0  0
  -29.7792  -11.7409   17.4989 H   0  0  0  0  0  0
  -29.6494  -13.4640   17.7455 H   0  0  0  0  0  0
  -27.8794  -11.2839   18.8927 H   0  0  0  0  0  0
  -27.3782  -12.5470   17.8013 H   0  0  0  0  0  0
  -27.6624  -14.2495   19.5050 H   0  0  0  0  0  0
  -28.7066  -12.0954   21.4113 H   0  0  0  0  0  0
  -28.4408  -13.7679   21.8281 H   0  0  0  0  0  0
  -25.2754   -9.5691   22.4759 H   0  0  0  0  0  0
  -23.9996   -7.4644   22.7485 H   0  0  0  0  0  0
  -21.0837   -8.8760   19.8957 H   0  0  0  0  0  0
  -22.3682  -10.9666   19.6162 H   0  0  0  0  0  0
  -21.2002   -7.6145   23.9707 H   0  0  0  0  0  0
  -21.1483   -6.0524   25.9073 H   0  0  0  0  0  0
  -22.0600   -2.7605   23.2844 H   0  0  0  0  0  0
  -22.4096  -11.9873   22.4764 H   0  0  0  0  0  0
  -21.1106  -13.1261   22.2620 H   0  0  0  0  0  0
  -24.6609  -15.8447   20.5232 H   0  0  0  0  0  0
  -26.2758  -15.6288   20.0794 H   0  0  0  0  0  0
  -26.7190  -32.5442   23.1105 H   0  0  0  0  0  0
  -25.0147  -33.9737   25.0480 H   0  0  0  0  0  0
  -22.7165  -31.3071   21.4055 H   0  0  0  0  0  0
  -23.3749  -35.9597   23.3316 H   0  0  0  0  0  0
  -24.3570  -36.8876   22.2053 H   0  0  0  0  0  0
  -23.7206  -37.6475   23.6651 H   0  0  0  0  0  0
  -26.1008  -31.5449   20.6112 H   0  0  0  0  0  0
  -26.8469  -30.8322   22.0082 H   0  0  0  0  0  0
  -28.1002  -28.9381   21.2342 H   0  0  0  0  0  0
  -25.9627  -25.9940   18.8847 H   0  0  0  0  0  0
  -23.9817  -27.3532   18.9479 H   0  0  0  0  0  0
  -23.7572  -30.6085   19.4070 H   0  0  0  0  0  0
  -22.7560  -29.2598   19.8526 H   0  0  0  0  0  0
  -25.1274  -36.1938   25.0823 H   0  0  0  0  0  0
  -20.9981  -28.3263   24.1396 H   0  0  0  0  0  0
  -20.5673  -26.2305   23.3603 H   0  0  0  0  0  0
  -21.6641  -26.7448   22.1192 H   0  0  0  0  0  0
  -19.6905  -25.6303   21.1236 H   0  0  0  0  0  0
  -19.6679  -27.3205   20.6744 H   0  0  0  0  0  0
  -17.4194  -26.6699   21.4023 H   0  0  0  0  0  0
  -18.0319  -26.0082   22.9012 H   0  0  0  0  0  0
  -19.7953  -30.7282   24.2251 H   0  0  0  0  0  0
  -17.5035  -31.6272   24.5180 H   0  0  0  0  0  0
  -15.5363  -30.3008   23.7666 H   0  0  0  0  0  0
  -15.8672  -28.0838   22.7077 H   0  0  0  0  0  0
  -24.5933  -30.7050   25.7818 H   0  0  0  0  0  0
  -24.8918  -32.2894   26.4876 H   0  0  0  0  0  0
  -25.8086  -30.8944   27.0254 H   0  0  0  0  0  0
  -26.2928  -29.6788   24.1174 H   0  0  0  0  0  0
  -27.4065  -29.7255   25.4647 H   0  0  0  0  0  0
  -27.8787  -30.4337   23.9384 H   0  0  0  0  0  0
  -27.2664  -33.3647   26.2062 H   0  0  0  0  0  0
  -28.3891  -32.6874   25.0356 H   0  0  0  0  0  0
  -28.0702  -31.8476   26.5457 H   0  0  0  0  0  0
  -28.2593  -38.0088   24.7532 H   0  0  0  0  0  0
  -28.1055  -36.2626   24.6286 H   0  0  0  0  0  0
  -27.2297  -37.1422   25.8880 H   0  0  0  0  0  0
  -20.9371  -29.8804   21.6911 H   0  0  0  0  0  0
  -26.0152  -38.2855   24.1456 H   0  0  0  0  0  0
  -29.2980  -21.4026   18.2356 H   0  0  0  0  0  0
  -29.3732  -23.1186   18.1155 H   0  0  0  0  0  0
  -27.8070  -22.3325   18.3649 H   0  0  0  0  0  0
  -28.8169  -22.4093   24.9610 H   0  0  0  0  0  0
  -29.5315  -24.0007   24.7806 H   0  0  0  0  0  0
  -30.5553  -22.6023   24.7162 H   0  0  0  0  0  0
  -30.5349  -19.9575   19.6739 H   0  0  0  0  0  0
  -28.8151  -19.7420   19.5466 H   0  0  0  0  0  0
  -27.0606  -24.7007   20.0284 H   0  0  0  0  0  0
  -28.3144  -24.8616   18.8359 H   0  0  0  0  0  0
  -28.7646  -18.2825   21.5615 H   0  0  0  0  0  0
  -30.4972  -18.4507   21.7528 H   0  0  0  0  0  0
  -31.0288  -17.2503   19.7370 H   0  0  0  0  0  0
  -29.3684  -17.1781   19.2553 H   0  0  0  0  0  0
  -28.9277  -15.5468   21.0688 H   0  0  0  0  0  0
  1 25  1  0  0  0
  1 30  2  0  0  0
  1 83  1  0  0  0
  2  3  1  0  0  0
  2 25  1  0  0  0
  2 86  1  0  0  0
  2 87  1  0  0  0
  3  4  1  0  0  0
  3 88  1  0  0  0
  3 89  1  0  0  0
  4  5  1  0  0  0
  4 90  1  0  0  0
  4 91  1  0  0  0
  5  6  1  0  0  0
  5 26  1  0  0  0
  5 92  1  0  0  0
  6 25  1  0  0  0
  6 93  1  0  0  0
  6 94  1  0  0  0
  7  8  2  0  0  0
  7 26  1  0  0  0
  7 29  1  0  0  0
  8  9  1  0  0  0
  8 22  1  0  0  0
  9 10  1  0  0  0
  9 27  2  0  0  0
 10 11  2  0  0  0
 10 15  1  0  0  0
 11 12  1  0  0  0
 11 95  1  0  0  0
 12 13  2  0  0  0
 12 96  1  0  0  0
 13 14  1  0  0  0
 13 31  1  0  0  0
 14 15  2  0  0  0
 14 97  1  0  0  0
 15 98  1  0  0  0
 16 17  2  0  0  0
 16 21  1  0  0  0
 16 31  1  0  0  0
 17 18  1  0  0  0
 17 99  1  0  0  0
 18 19  2  0  0  0
 18100  1  0  0  0
 19 20  1  0  0  0
 19 24  1  0  0  0
 20 21  2  0  0  0
 20101  1  0  0  0
 21 23  1  0  0  0
 22 28  1  0  0  0
 22 32  2  0  0  0
 26 27  1  0  0  0
 28102  1  0  0  0
 28103  1  0  0  0
 29104  1  0  0  0
 29105  1  0  0  0
 33 34  1  0  0  0
 33 66  1  0  0  0
 33 70  2  0  0  0
 34 36  1  0  0  0
 34 59  1  0  0  0
 34106  1  0  0  0
 35 44  2  0  0  0
 35 45  1  0  0  0
 35 68  1  0  0  0
 36 56  1  0  0  0
 36107  1  0  0  0
 37 39  1  0  0  0
 37 47  1  0  0  0
 37 66  1  0  0  0
 37108  1  0  0  0
 38 43  2  0  0  0
 38 46  1  0  0  0
 38 47  1  0  0  0
 39 64  1  0  0  0
 39 67  2  0  0  0
 40 52  1  0  0  0
 40 53  2  0  0  0
 40 58  1  0  0  0
 41109  1  0  0  0
 41110  1  0  0  0
 41111  1  0  0  0
 41 48  1  0  0  0
 42 43  1  0  0  0
 42 66  1  0  0  0
 42112  1  0  0  0
 42113  1  0  0  0
 43 44  1  0  0  0
 44114  1  0  0  0
 45 46  2  0  0  0
 45115  1  0  0  0
 46116  1  0  0  0
 47117  1  0  0  0
 47118  1  0  0  0
 48 56  1  0  0  0
 48 65  1  0  0  0
 48119  1  0  0  0
 49 50  1  0  0  0
 49 53  1  0  0  0
 49 64  1  0  0  0
 49120  1  0  0  0
 50 51  1  0  0  0
 50121  1  0  0  0
 50122  1  0  0  0
 51 52  1  0  0  0
 51123  1  0  0  0
 51124  1  0  0  0
 52125  1  0  0  0
 52126  1  0  0  0
 53 54  1  0  0  0
 54 55  2  0  0  0
 54127  1  0  0  0
 55 57  1  0  0  0
 55128  1  0  0  0
 56 69  2  0  0  0
 57 58  2  0  0  0
 57129  1  0  0  0
 58130  1  0  0  0
 59 60  1  0  0  0
 59 61  1  0  0  0
 59 62  1  0  0  0
 60131  1  0  0  0
 60132  1  0  0  0
 60133  1  0  0  0
 61134  1  0  0  0
 61135  1  0  0  0
 61136  1  0  0  0
 62137  1  0  0  0
 62138  1  0  0  0
 62139  1  0  0  0
 63 65  1  0  0  0
 63140  1  0  0  0
 63141  1  0  0  0
 63142  1  0  0  0
 64143  1  0  0  0
 65144  1  0  0  0
 68 80  1  0  0  0
 71 72  2  0  0  0
 71 73  1  0  0  0
 71 77  1  0  0  0
 72 75  1  0  0  0
 72 79  1  0  0  0
 73 76  2  0  0  0
 73 80  1  0  0  0
 74 75  2  0  0  0
 74 76  1  0  0  0
 74 78  1  0  0  0
 75 84  1  0  0  0
 76 85  1  0  0  0
 77145  1  0  0  0
 77146  1  0  0  0
 77147  1  0  0  0
 78148  1  0  0  0
 78149  1  0  0  0
 78150  1  0  0  0
 79 81  1  0  0  0
 79151  1  0  0  0
 79152  1  0  0  0
 80153  1  0  0  0
 80154  1  0  0  0
 81 82  1  0  0  0
 81155  1  0  0  0
 81156  1  0  0  0
 82 83  1  0  0  0
 82157  1  0  0  0
 82158  1  0  0  0
 83159  1  0  0  0
M  ISO  4   1 100  68 101  80 101  83 100
M  END
> <chiral flag>
0

> <version>
0

> <s_m_source_file>
/data/baiqing/PycharmProjects/Reinvent-master-3.2/result/LINK_invent/BTK/process_docking_weight1_custom_sum_contain_oxygen_bond_distance_aromatic_linkinvent_7_9_3/rearranged_h_0026.sdf

> <i_m_source_file_index>
43

> <r_mmod_Potential_Energy-OPLS-2005>
183.941040039062

> <r_mmod_Stretch_Energy-OPLS-2005>
109.701049804688

> <r_mmod_Bend_Energy-OPLS-2005>
162.536193847656

> <r_mmod_Torsional_Energy-OPLS-2005>
219.634170532227

> <r_mmod_Improper_Torsional_Energy-OPLS-2005>
8.13773632049561

> <r_mmod_Van_der_Waal_Energy-OPLS-2005>
174.990310668945

> <r_mmod_Electrostatic_Energy-OPLS-2005>
-341.369659423828

> <r_mmod_Solvation_Energy-OPLS-2005>
-210.110046386719

> <b_mmod_Minimization_Converged-OPLS-2005>
0

> <r_mmod_RMS_Derivative-OPLS-2005>
1.25568461418152

$$$$
43
                    3D
 Structure written by MMmdl.
173181  0  0  1  0            999 V2000
  -30.8107  -14.3087   20.7388 C   0  0  0  0  0  0
  -30.4041  -12.2935   19.3769 C   0  0  0  0  0  0
  -29.4735  -12.5414   18.1790 C   0  0  0  0  0  0
  -28.0007  -12.3881   18.5994 C   0  0  0  0  0  0
  -27.6600  -13.2058   19.8718 C   0  0  2  0  0  0
  -28.6959  -12.9526   20.9870 C   0  0  0  0  0  0
  -25.2572  -13.8169   20.5662 C   0  0  0  0  0  0
  -24.1821  -13.0439   20.9166 C   0  0  0  0  0  0
  -24.6375  -11.6908   20.8724 C   0  0  0  0  0  0
  -23.9048  -10.4296   21.0408 C   0  0  0  0  0  0
  -24.3603   -9.4216   21.9186 C   0  0  0  0  0  0
  -23.6285   -8.2246   22.0747 C   0  0  0  0  0  0
  -22.4271   -8.0282   21.3533 C   0  0  0  0  0  0
  -21.9904   -9.0256   20.4637 C   0  0  0  0  0  0
  -22.7228  -10.2138   20.3053 C   0  0  0  0  0  0
  -21.6852   -6.0736   22.5271 C   0  0  0  0  0  0
  -21.4015   -6.5636   23.8207 C   0  0  0  0  0  0
  -21.3664   -5.6787   24.9171 C   0  0  0  0  0  0
  -21.6049   -4.3050   24.7220 C   0  0  0  0  0  0
  -21.8821   -3.8145   23.4339 C   0  0  0  0  0  0
  -21.9189   -4.6962   22.3396 C   0  0  0  0  0  0
  -22.7851  -13.5239   21.1855 C   0  0  0  0  0  0
  -22.1659   -4.2146   21.0976 F   0  0  0  0  0  0
  -21.5632   -3.4537   25.7737 F   0  0  0  0  0  0
  -30.0425  -13.2299   20.4495 N   0  0  0  0  0  0
  -26.2999  -12.9327   20.3331 N   0  0  0  0  0  0
  -25.9290  -11.6484   20.5723 N   0  0  0  0  0  0
  -22.0486  -12.8220   22.0405 N   0  0  0  0  0  0
  -25.4325  -15.1886   20.4090 N   0  0  0  0  0  0
  -31.8004  -14.6343   20.0783 O   0  0  0  0  0  0
  -21.6635   -6.8883   21.4234 O   0  0  0  0  0  0
  -22.3538  -14.5555   20.6730 O   0  0  0  0  0  0
  -24.6126  -31.8652   23.2133 C   0  0  0  0  0  0
  -25.9043  -32.4782   23.8406 C   0  0  1  0  0  0
  -27.2293  -27.4714   20.0724 C   0  0  0  0  0  0
  -25.5888  -33.8585   24.2324 N   0  0  0  0  0  0
  -23.3967  -30.4933   21.5522 C   0  0  2  0  0  0
  -24.8416  -28.9648   20.1125 C   0  0  0  0  0  0
  -22.7379  -29.4656   22.4992 C   0  0  0  0  0  0
  -18.0254  -28.1341   22.8483 C   0  0  0  0  0  0
  -24.1496  -36.7355   23.2637 C   0  0  0  0  0  0
  -25.9248  -30.8411   21.3631 C   0  0  0  0  0  0
  -26.0024  -29.4833   20.7022 C   0  0  0  0  0  0
  -27.2039  -28.7436   20.6796 C   0  0  0  0  0  0
  -26.0565  -26.9588   19.4812 C   0  0  0  0  0  0
  -24.8591  -27.6979   19.5046 C   0  0  0  0  0  0
  -23.6008  -29.8268   20.1667 C   0  0  0  0  0  0
  -25.4082  -36.3073   24.0333 C   0  0  1  0  0  0
  -20.5847  -28.3622   23.1311 C   0  0  2  0  0  0
  -20.6743  -26.9373   22.5389 C   0  0  0  0  0  0
  -19.5732  -26.6370   21.5172 C   0  0  0  0  0  0
  -18.1907  -26.7897   22.1595 C   0  0  0  0  0  0
  -19.1506  -28.8794   23.2901 C   0  0  0  0  0  0
  -18.9453  -30.1402   23.8901 C   0  0  0  0  0  0
  -17.6464  -30.6566   24.0530 C   0  0  0  0  0  0
  -25.9016  -34.9437   23.5128 C   0  0  0  0  0  0
  -16.5336  -29.9063   23.6325 C   0  0  0  0  0  0
  -16.7245  -28.6472   23.0347 C   0  0  0  0  0  0
  -26.4464  -31.6570   25.0743 C   0  0  0  0  0  0
  -25.3742  -31.3683   26.1508 C   0  0  0  0  0  0
  -27.0277  -30.2984   24.6155 C   0  0  0  0  0  0
  -27.6031  -32.4290   25.7518 C   0  0  0  0  0  0
  -27.5557  -37.1802   24.8445 C   0  0  0  0  0  0
  -21.4110  -29.3006   22.3734 N   0  0  0  0  0  0
  -26.4257  -37.3756   23.9406 N   0  0  0  0  0  0
  -24.6625  -31.0795   22.1014 N   0  0  0  0  0  0
  -23.4176  -28.8196   23.3010 O   0  0  0  0  0  0
  -28.3789  -26.7243   20.0843 O   0  0  0  0  0  0
  -26.5607  -34.8894   22.4708 O   0  0  0  0  0  0
  -23.5332  -32.1376   23.7580 O   0  0  0  0  0  0
  -29.9817  -21.9269   23.8365 C   0  0  0  0  0  0
  -29.2712  -22.0708   22.6209 C   0  0  0  0  0  0
  -29.6074  -22.7280   24.9398 C   0  0  0  0  0  0
  -28.2117  -23.0026   22.5684 C   0  0  0  0  0  0
  -28.5272  -23.6239   24.7815 C   0  0  0  0  0  0
  -31.1324  -20.9355   23.9342 C   0  0  0  0  0  0
  -27.4301  -23.2503   21.2864 C   0  0  0  0  0  0
  -32.4565  -21.5165   23.3972 C   0  0  0  0  0  0
  -28.0850  -24.2913   20.3577 C   0  0  0  0  0  0
  -31.7232  -17.0617   22.4177 C   0  0  0  0  0  0
  -32.8536  -17.2516   21.3797 C   0  0  0  0  0  0
  -31.4321  -15.5965   22.7927 C   0  0  0  0  0  0
  -33.4989  -20.4249   23.1113 C   0  0  0  0  0  0
  -33.8510  -18.3662   21.7472 C   0  0  0  0  0  0
  -28.3275  -25.6563   21.0303 C   0  0  0  0  0  0
  -27.8476  -23.7623   23.6225 N   0  0  0  0  0  0
  -30.5109  -14.8924   21.9042 N   0  0  0  0  0  0
  -33.1828  -19.6770   21.8716 N   0  3  0  0  0  0
  -29.7046  -21.1476   21.2195 Cl  0  0  0  0  0  0
  -30.4550  -22.6294   26.4493 Cl  0  0  0  0  0  0
  -28.0246  -24.6212   26.1002 Cl  0  0  0  0  0  0
  -31.4488  -12.3882   19.0739 H   0  0  0  0  0  0
  -30.2909  -11.2692   19.7359 H   0  0  0  0  0  0
  -29.7061  -11.8490   17.3692 H   0  0  0  0  0  0
  -29.6418  -13.5438   17.7818 H   0  0  0  0  0  0
  -27.8109  -11.3292   18.7771 H   0  0  0  0  0  0
  -27.3443  -12.6817   17.7788 H   0  0  0  0  0  0
  -27.7164  -14.2606   19.6010 H   0  0  0  0  0  0
  -28.6519  -11.9133   21.3154 H   0  0  0  0  0  0
  -28.4346  -13.5457   21.8637 H   0  0  0  0  0  0
  -25.2743   -9.5687   22.4769 H   0  0  0  0  0  0
  -23.9993   -7.4632   22.7458 H   0  0  0  0  0  0
  -21.0839   -8.8772   19.8944 H   0  0  0  0  0  0
  -22.3686  -10.9674   19.6164 H   0  0  0  0  0  0
  -21.2015   -7.6146   23.9708 H   0  0  0  0  0  0
  -21.1490   -6.0522   25.9073 H   0  0  0  0  0  0
  -22.0603   -2.7607   23.2838 H   0  0  0  0  0  0
  -22.4081  -11.9865   22.4770 H   0  0  0  0  0  0
  -21.1103  -13.1247   22.2615 H   0  0  0  0  0  0
  -24.6727  -15.8523   20.5169 H   0  0  0  0  0  0
  -26.2997  -15.6232   20.1168 H   0  0  0  0  0  0
  -26.7118  -32.5468   23.1172 H   0  0  0  0  0  0
  -24.9910  -33.9731   25.0382 H   0  0  0  0  0  0
  -22.6829  -31.3087   21.4167 H   0  0  0  0  0  0
  -23.3688  -35.9758   23.3271 H   0  0  0  0  0  0
  -24.3609  -36.9013   22.2061 H   0  0  0  0  0  0
  -23.7342  -37.6592   23.6683 H   0  0  0  0  0  0
  -26.0400  -31.6120   20.6001 H   0  0  0  0  0  0
  -26.8118  -30.8835   21.9838 H   0  0  0  0  0  0
  -28.1033  -29.1396   21.1310 H   0  0  0  0  0  0
  -26.0601  -25.9941   18.9975 H   0  0  0  0  0  0
  -23.9631  -27.2908   19.0542 H   0  0  0  0  0  0
  -23.7037  -30.6016   19.4054 H   0  0  0  0  0  0
  -22.7240  -29.2454   19.8761 H   0  0  0  0  0  0
  -25.1246  -36.1902   25.0823 H   0  0  0  0  0  0
  -20.9925  -28.3180   24.1433 H   0  0  0  0  0  0
  -20.5600  -26.2234   23.3560 H   0  0  0  0  0  0
  -21.6626  -26.7392   22.1210 H   0  0  0  0  0  0
  -19.6896  -25.6290   21.1184 H   0  0  0  0  0  0
  -19.6685  -27.3189   20.6719 H   0  0  0  0  0  0
  -17.4171  -26.6619   21.4005 H   0  0  0  0  0  0
  -18.0340  -26.0023   22.8991 H   0  0  0  0  0  0
  -19.7938  -30.7193   24.2302 H   0  0  0  0  0  0
  -17.5023  -31.6258   24.5111 H   0  0  0  0  0  0
  -15.5338  -30.2941   23.7694 H   0  0  0  0  0  0
  -15.8644  -28.0790   22.7079 H   0  0  0  0  0  0
  -24.5926  -30.6993   25.7889 H   0  0  0  0  0  0
  -24.8911  -32.2833   26.4942 H   0  0  0  0  0  0
  -25.8120  -30.8885   27.0277 H   0  0  0  0  0  0
  -26.2833  -29.6739   24.1191 H   0  0  0  0  0  0
  -27.3984  -29.7208   25.4638 H   0  0  0  0  0  0
  -27.8703  -30.4244   23.9347 H   0  0  0  0  0  0
  -27.2651  -33.3576   26.2127 H   0  0  0  0  0  0
  -28.3856  -32.6872   25.0374 H   0  0  0  0  0  0
  -28.0686  -31.8381   26.5417 H   0  0  0  0  0  0
  -28.2540  -38.0127   24.7469 H   0  0  0  0  0  0
  -28.1081  -36.2646   24.6263 H   0  0  0  0  0  0
  -27.2289  -37.1464   25.8854 H   0  0  0  0  0  0
  -20.9251  -29.8763   21.7002 H   0  0  0  0  0  0
  -26.0120  -38.2831   24.1375 H   0  0  0  0  0  0
  -30.8508  -20.0380   23.3840 H   0  0  0  0  0  0
  -31.2650  -20.5865   24.9583 H   0  0  0  0  0  0
  -26.4270  -23.5906   21.5471 H   0  0  0  0  0  0
  -27.2794  -22.3116   20.7554 H   0  0  0  0  0  0
  -32.8553  -22.2212   24.1287 H   0  0  0  0  0  0
  -32.2877  -22.0976   22.4898 H   0  0  0  0  0  0
  -27.4442  -24.4093   19.4884 H   0  0  0  0  0  0
  -29.0307  -23.9056   19.9748 H   0  0  0  0  0  0
  -30.8103  -17.5593   22.0863 H   0  0  0  0  0  0
  -32.0110  -17.5596   23.3450 H   0  0  0  0  0  0
  -32.4317  -17.4241   20.3888 H   0  0  0  0  0  0
  -33.4276  -16.3282   21.2949 H   0  0  0  0  0  0
  -30.9691  -15.5830   23.7811 H   0  0  0  0  0  0
  -32.3582  -15.0287   22.9002 H   0  0  0  0  0  0
  -33.5467  -19.7530   23.9710 H   0  0  0  0  0  0
  -34.4895  -20.8687   23.0102 H   0  0  0  0  0  0
  -34.6292  -18.4426   20.9869 H   0  0  0  0  0  0
  -34.3606  -18.0931   22.6726 H   0  0  0  0  0  0
  -29.2734  -25.6311   21.5709 H   0  0  0  0  0  0
  -27.5614  -25.8456   21.7865 H   0  0  0  0  0  0
  -29.6570  -14.5628   22.3310 H   0  0  0  0  0  0
  -33.4267  -20.2416   21.0721 H   0  0  0  0  0  0
  -32.1921  -19.5085   21.8280 H   0  0  0  0  0  0
  1 25  1  0  0  0
  1 30  2  0  0  0
  1 87  1  0  0  0
  2  3  1  0  0  0
  2 25  1  0  0  0
  2 92  1  0  0  0
  2 93  1  0  0  0
  3  4  1  0  0  0
  3 94  1  0  0  0
  3 95  1  0  0  0
  4  5  1  0  0  0
  4 96  1  0  0  0
  4 97  1  0  0  0
  5  6  1  0  0  0
  5 26  1  0  0  0
  5 98  1  0  0  0
  6 25  1  0  0  0
  6 99  1  0  0  0
  6100  1  0  0  0
  7  8  2  0  0  0
  7 26  1  0  0  0
  7 29  1  0  0  0
  8  9  1  0  0  0
  8 22  1  0  0  0
  9 10  1  0  0  0
  9 27  2  0  0  0
 10 11  2  0  0  0
 10 15  1  0  0  0
 11 12  1  0  0  0
 11101  1  0  0  0
 12 13  2  0  0  0
 12102  1  0  0  0
 13 14  1  0  0  0
 13 31  1  0  0  0
 14 15  2  0  0  0
 14103  1  0  0  0
 15104  1  0  0  0
 16 17  2  0  0  0
 16 21  1  0  0  0
 16 31  1  0  0  0
 17 18  1  0  0  0
 17105  1  0  0  0
 18 19  2  0  0  0
 18106  1  0  0  0
 19 20  1  0  0  0
 19 24  1  0  0  0
 20 21  2  0  0  0
 20107  1  0  0  0
 21 23  1  0  0  0
 22 28  1  0  0  0
 22 32  2  0  0  0
 26 27  1  0  0  0
 28108  1  0  0  0
 28109  1  0  0  0
 29110  1  0  0  0
 29111  1  0  0  0
 33 34  1  0  0  0
 33 66  1  0  0  0
 33 70  2  0  0  0
 34 36  1  0  0  0
 34 59  1  0  0  0
 34112  1  0  0  0
 35 44  2  0  0  0
 35 45  1  0  0  0
 35 68  1  0  0  0
 36 56  1  0  0  0
 36113  1  0  0  0
 37 39  1  0  0  0
 37 47  1  0  0  0
 37 66  1  0  0  0
 37114  1  0  0  0
 38 43  2  0  0  0
 38 46  1  0  0  0
 38 47  1  0  0  0
 39 64  1  0  0  0
 39 67  2  0  0  0
 40 52  1  0  0  0
 40 53  2  0  0  0
 40 58  1  0  0  0
 41115  1  0  0  0
 41116  1  0  0  0
 41117  1  0  0  0
 41 48  1  0  0  0
 42 43  1  0  0  0
 42 66  1  0  0  0
 42118  1  0  0  0
 42119  1  0  0  0
 43 44  1  0  0  0
 44120  1  0  0  0
 45 46  2  0  0  0
 45121  1  0  0  0
 46122  1  0  0  0
 47123  1  0  0  0
 47124  1  0  0  0
 48 56  1  0  0  0
 48 65  1  0  0  0
 48125  1  0  0  0
 49 50  1  0  0  0
 49 53  1  0  0  0
 49 64  1  0  0  0
 49126  1  0  0  0
 50 51  1  0  0  0
 50127  1  0  0  0
 50128  1  0  0  0
 51 52  1  0  0  0
 51129  1  0  0  0
 51130  1  0  0  0
 52131  1  0  0  0
 52132  1  0  0  0
 53 54  1  0  0  0
 54 55  2  0  0  0
 54133  1  0  0  0
 55 57  1  0  0  0
 55134  1  0  0  0
 56 69  2  0  0  0
 57 58  2  0  0  0
 57135  1  0  0  0
 58136  1  0  0  0
 59 60  1  0  0  0
 59 61  1  0  0  0
 59 62  1  0  0  0
 60137  1  0  0  0
 60138  1  0  0  0
 60139  1  0  0  0
 61140  1  0  0  0
 61141  1  0  0  0
 61142  1  0  0  0
 62143  1  0  0  0
 62144  1  0  0  0
 62145  1  0  0  0
 63 65  1  0  0  0
 63146  1  0  0  0
 63147  1  0  0  0
 63148  1  0  0  0
 64149  1  0  0  0
 65150  1  0  0  0
 68 85  1  0  0  0
 71 72  2  0  0  0
 71 73  1  0  0  0
 71 76  1  0  0  0
 72 74  1  0  0  0
 72 89  1  0  0  0
 73 75  2  0  0  0
 73 90  1  0  0  0
 74 77  1  0  0  0
 74 86  2  0  0  0
 75 86  1  0  0  0
 75 91  1  0  0  0
 76 78  1  0  0  0
 76151  1  0  0  0
 76152  1  0  0  0
 77 79  1  0  0  0
 77153  1  0  0  0
 77154  1  0  0  0
 78 83  1  0  0  0
 78155  1  0  0  0
 78156  1  0  0  0
 79 85  1  0  0  0
 79157  1  0  0  0
 79158  1  0  0  0
 80 81  1  0  0  0
 80 82  1  0  0  0
 80159  1  0  0  0
 80160  1  0  0  0
 81 84  1  0  0  0
 81161  1  0  0  0
 81162  1  0  0  0
 82 87  1  0  0  0
 82163  1  0  0  0
 82164  1  0  0  0
 83 88  1  0  0  0
 83165  1  0  0  0
 83166  1  0  0  0
 84 88  1  0  0  0
 84167  1  0  0  0
 84168  1  0  0  0
 85169  1  0  0  0
 85170  1  0  0  0
 87171  1  0  0  0
 88172  1  0  0  0
 88173  1  0  0  0
M  CHG  1  88   1
M  ISO  4   1 100  68 101  85 101  87 100
M  END
> <chiral flag>
0

> <version>
0

> <s_m_source_file>
/data/baiqing/PycharmProjects/Reinvent-master-3.2/result/LINK_invent/BTK/process_docking_weight1_custom_sum_contain_oxygen_bond_distance_aromatic_linkinvent_7_9_3/rearranged_h_0026.sdf

> <i_m_source_file_index>
44

> <r_mmod_Potential_Energy-OPLS-2005>
-288.080963134766

> <r_mmod_Stretch_Energy-OPLS-2005>
32.3179702758789

> <r_mmod_Bend_Energy-OPLS-2005>
91.8278656005859

> <r_mmod_Torsional_Energy-OPLS-2005>
268.9091796875

> <r_mmod_Improper_Torsional_Energy-OPLS-2005>
4.28871440887451

> <r_mmod_Van_der_Waal_Energy-OPLS-2005>
151.606018066406

> <r_mmod_Electrostatic_Energy-OPLS-2005>
-374.554382324219

> <r_mmod_Solvation_Energy-OPLS-2005>
-471.112884521484

> <b_mmod_Minimization_Converged-OPLS-2005>
0

> <r_mmod_RMS_Derivative-OPLS-2005>
2.364914894104

$$$$
44
                    3D
 Structure written by MMmdl.
178186  0  0  1  0            999 V2000
  -30.6948  -14.5572   20.5489 C   0  0  0  0  0  0
  -30.4142  -12.3540   19.4422 C   0  0  0  0  0  0
  -29.4939  -12.5153   18.2157 C   0  0  0  0  0  0
  -28.0179  -12.3612   18.6299 C   0  0  0  0  0  0
  -27.6503  -13.2221   19.8699 C   0  0  2  0  0  0
  -28.6948  -13.0566   20.9933 C   0  0  0  0  0  0
  -25.2510  -13.8160   20.5733 C   0  0  0  0  0  0
  -24.1783  -13.0407   20.9199 C   0  0  0  0  0  0
  -24.6355  -11.6879   20.8730 C   0  0  0  0  0  0
  -23.9022  -10.4269   21.0403 C   0  0  0  0  0  0
  -24.3560   -9.4192   21.9197 C   0  0  0  0  0  0
  -23.6241   -8.2221   22.0765 C   0  0  0  0  0  0
  -22.4236   -8.0245   21.3537 C   0  0  0  0  0  0
  -21.9855   -9.0228   20.4661 C   0  0  0  0  0  0
  -22.7174  -10.2111   20.3078 C   0  0  0  0  0  0
  -21.6853   -6.0697   22.5264 C   0  0  0  0  0  0
  -21.4025   -6.5609   23.8191 C   0  0  0  0  0  0
  -21.3665   -5.6763   24.9155 C   0  0  0  0  0  0
  -21.6053   -4.3031   24.7209 C   0  0  0  0  0  0
  -21.8820   -3.8112   23.4336 C   0  0  0  0  0  0
  -21.9188   -4.6927   22.3387 C   0  0  0  0  0  0
  -22.7800  -13.5222   21.1824 C   0  0  0  0  0  0
  -22.1647   -4.2103   21.0965 F   0  0  0  0  0  0
  -21.5618   -3.4522   25.7735 F   0  0  0  0  0  0
  -30.0100  -13.3793   20.4250 N   0  0  0  0  0  0
  -26.2958  -12.9366   20.3365 N   0  0  0  0  0  0
  -25.9290  -11.6505   20.5731 N   0  0  0  0  0  0
  -22.0415  -12.8292   22.0429 N   0  0  0  0  0  0
  -25.4133  -15.1889   20.4200 N   0  0  0  0  0  0
  -31.8452  -14.6545   20.1207 O   0  0  0  0  0  0
  -21.6622   -6.8834   21.4223 O   0  0  0  0  0  0
  -22.3503  -14.5512   20.6615 O   0  0  0  0  0  0
  -24.6168  -31.8644   23.2066 C   0  0  0  0  0  0
  -25.9047  -32.4792   23.8363 C   0  0  1  0  0  0
  -27.2414  -27.3761   20.0944 C   0  0  0  0  0  0
  -25.5898  -33.8599   24.2297 N   0  0  0  0  0  0
  -23.4071  -30.4826   21.5501 C   0  0  2  0  0  0
  -24.8565  -28.9381   20.1170 C   0  0  0  0  0  0
  -22.7424  -29.4605   22.5007 C   0  0  0  0  0  0
  -18.0251  -28.1355   22.8478 C   0  0  0  0  0  0
  -24.1490  -36.7294   23.2640 C   0  0  0  0  0  0
  -25.9406  -30.8066   21.3703 C   0  0  0  0  0  0
  -26.0179  -29.4340   20.7188 C   0  0  0  0  0  0
  -27.2049  -28.6576   20.7116 C   0  0  0  0  0  0
  -26.0551  -26.9084   19.4822 C   0  0  0  0  0  0
  -24.8727  -27.6755   19.4976 C   0  0  0  0  0  0
  -23.6210  -29.8110   20.1670 C   0  0  0  0  0  0
  -25.4109  -36.3083   24.0333 C   0  0  1  0  0  0
  -20.5848  -28.3626   23.1338 C   0  0  2  0  0  0
  -20.6743  -26.9362   22.5428 C   0  0  0  0  0  0
  -19.5737  -26.6353   21.5210 C   0  0  0  0  0  0
  -18.1917  -26.7905   22.1618 C   0  0  0  0  0  0
  -19.1507  -28.8816   23.2903 C   0  0  0  0  0  0
  -18.9442  -30.1434   23.8890 C   0  0  0  0  0  0
  -17.6450  -30.6577   24.0553 C   0  0  0  0  0  0
  -25.9042  -34.9453   23.5112 C   0  0  0  0  0  0
  -16.5329  -29.9074   23.6332 C   0  0  0  0  0  0
  -16.7249  -28.6491   23.0350 C   0  0  0  0  0  0
  -26.4486  -31.6573   25.0696 C   0  0  0  0  0  0
  -25.3748  -31.3668   26.1439 C   0  0  0  0  0  0
  -27.0332  -30.3018   24.6083 C   0  0  0  0  0  0
  -27.6065  -32.4300   25.7448 C   0  0  0  0  0  0
  -27.5576  -37.1799   24.8463 C   0  0  0  0  0  0
  -21.4143  -29.3011   22.3768 N   0  0  0  0  0  0
  -26.4290  -37.3771   23.9407 N   0  0  0  0  0  0
  -24.6732  -31.0673   22.0998 N   0  0  0  0  0  0
  -23.4191  -28.8148   23.3049 O   0  0  0  0  0  0
  -28.4074  -26.6159   20.1443 O   0  0  0  0  0  0
  -26.5625  -34.8909   22.4674 O   0  0  0  0  0  0
  -23.5345  -32.1426   23.7426 O   0  0  0  0  0  0
  -29.0261  -20.7511   20.3428 C   0  0  0  0  0  0
  -27.1136  -18.8603   22.4341 C   0  0  0  0  0  0
  -27.6609  -17.7235   23.2285 C   0  0  0  0  0  0
  -28.6307  -18.6638   22.5173 C   0  0  0  0  0  0
  -32.0472  -19.2903   17.8277 C   0  0  0  0  0  0
  -31.8701  -17.3893   20.9865 C   0  0  0  0  0  0
  -30.7395  -16.7376   23.0489 C   0  0  0  0  0  0
  -30.5446  -19.5857   17.7319 C   0  0  0  0  0  0
  -29.6855  -18.8454   18.7793 C   0  0  0  0  0  0
  -28.3382  -23.9967   19.7626 C   0  0  0  0  0  0
  -29.4184  -23.3108   20.6644 C   0  0  0  0  0  0
  -28.6135  -25.4699   19.2695 C   0  0  0  0  0  0
  -29.7780  -19.3636   20.2407 C   0  0  2  0  0  0
  -29.3815  -18.1663   21.2514 C   0  0  1  0  0  0
  -29.4411  -19.6372   23.3950 C   0  0  0  0  0  0
  -30.4772  -16.9881   21.5397 C   0  0  0  0  0  0
  -29.7729  -21.8803   20.4133 N   0  0  0  0  0  0
  -30.0123  -15.6350   21.0479 N   0  0  0  0  0  0
  -27.7964  -20.8021   20.3013 O   0  0  0  0  0  0
  -28.8043  -20.7977   23.5530 F   0  0  0  0  0  0
  -30.6669  -19.8974   22.9379 F   0  0  0  0  0  0
  -31.4606  -12.4343   19.1468 H   0  0  0  0  0  0
  -30.3088  -11.3563   19.8728 H   0  0  0  0  0  0
  -29.7460  -11.7750   17.4557 H   0  0  0  0  0  0
  -29.6563  -13.4929   17.7595 H   0  0  0  0  0  0
  -27.8531  -11.3054   18.8500 H   0  0  0  0  0  0
  -27.3600  -12.6020   17.7957 H   0  0  0  0  0  0
  -27.6761  -14.2663   19.5524 H   0  0  0  0  0  0
  -28.6943  -12.0302   21.3664 H   0  0  0  0  0  0
  -28.4524  -13.6817   21.8525 H   0  0  0  0  0  0
  -25.2696   -9.5688   22.4761 H   0  0  0  0  0  0
  -23.9957   -7.4639   22.7501 H   0  0  0  0  0  0
  -21.0773   -8.8730   19.8989 H   0  0  0  0  0  0
  -22.3616  -10.9633   19.6183 H   0  0  0  0  0  0
  -21.2032   -7.6123   23.9687 H   0  0  0  0  0  0
  -21.1499   -6.0491   25.9058 H   0  0  0  0  0  0
  -22.0605   -2.7576   23.2831 H   0  0  0  0  0  0
  -22.3999  -11.9986   22.4925 H   0  0  0  0  0  0
  -21.1037  -13.1347   22.2595 H   0  0  0  0  0  0
  -24.6267  -15.8193   20.5327 H   0  0  0  0  0  0
  -26.2509  -15.6542   20.0962 H   0  0  0  0  0  0
  -26.7091  -32.5497   23.1093 H   0  0  0  0  0  0
  -25.0034  -33.9772   25.0437 H   0  0  0  0  0  0
  -22.6958  -31.2996   21.4083 H   0  0  0  0  0  0
  -23.3750  -35.9631   23.3306 H   0  0  0  0  0  0
  -24.3573  -36.8915   22.2055 H   0  0  0  0  0  0
  -23.7271  -37.6501   23.6665 H   0  0  0  0  0  0
  -26.0601  -31.5701   20.6006 H   0  0  0  0  0  0
  -26.8261  -30.8641   21.9922 H   0  0  0  0  0  0
  -28.0966  -29.0410   21.1886 H   0  0  0  0  0  0
  -26.0200  -25.9416   19.0015 H   0  0  0  0  0  0
  -23.9787  -27.2853   19.0329 H   0  0  0  0  0  0
  -23.7379  -30.5854   19.4084 H   0  0  0  0  0  0
  -22.7430  -29.2365   19.8669 H   0  0  0  0  0  0
  -25.1300  -36.1920   25.0833 H   0  0  0  0  0  0
  -20.9924  -28.3167   24.1472 H   0  0  0  0  0  0
  -20.5605  -26.2239   23.3610 H   0  0  0  0  0  0
  -21.6627  -26.7380   22.1260 H   0  0  0  0  0  0
  -19.6904  -25.6267   21.1256 H   0  0  0  0  0  0
  -19.6703  -27.3143   20.6726 H   0  0  0  0  0  0
  -17.4193  -26.6627   21.4024 H   0  0  0  0  0  0
  -18.0326  -26.0047   22.9011 H   0  0  0  0  0  0
  -19.7918  -30.7247   24.2273 H   0  0  0  0  0  0
  -17.5003  -31.6264   24.5144 H   0  0  0  0  0  0
  -15.5344  -30.2976   23.7676 H   0  0  0  0  0  0
  -15.8637  -28.0815   22.7072 H   0  0  0  0  0  0
  -24.5931  -30.7018   25.7745 H   0  0  0  0  0  0
  -24.8925  -32.2816   26.4894 H   0  0  0  0  0  0
  -25.8109  -30.8812   27.0180 H   0  0  0  0  0  0
  -26.2871  -29.6759   24.1179 H   0  0  0  0  0  0
  -27.4153  -29.7283   25.4535 H   0  0  0  0  0  0
  -27.8678  -30.4344   23.9200 H   0  0  0  0  0  0
  -27.2698  -33.3598   26.2042 H   0  0  0  0  0  0
  -28.3853  -32.6873   25.0255 H   0  0  0  0  0  0
  -28.0753  -31.8411   26.5344 H   0  0  0  0  0  0
  -28.2604  -38.0089   24.7496 H   0  0  0  0  0  0
  -28.1076  -36.2626   24.6302 H   0  0  0  0  0  0
  -27.2298  -37.1442   25.8870 H   0  0  0  0  0  0
  -20.9309  -29.8771   21.7014 H   0  0  0  0  0  0
  -26.0172  -38.2848   24.1399 H   0  0  0  0  0  0
  -26.6744  -19.6959   22.9759 H   0  0  0  0  0  0
  -26.6011  -18.6029   21.5082 H   0  0  0  0  0  0
  -27.5351  -16.7245   22.8159 H   0  0  0  0  0  0
  -27.5740  -17.7867   24.3123 H   0  0  0  0  0  0
  -32.5882  -19.7957   17.0272 H   0  0  0  0  0  0
  -32.2442  -18.2224   17.7294 H   0  0  0  0  0  0
  -32.4719  -19.6216   18.7765 H   0  0  0  0  0  0
  -32.2139  -18.3409   21.3897 H   0  0  0  0  0  0
  -31.8764  -17.4541   19.9032 H   0  0  0  0  0  0
  -32.6492  -16.6815   21.2627 H   0  0  0  0  0  0
  -31.1334  -17.6109   23.5640 H   0  0  0  0  0  0
  -31.4859  -15.9553   23.1937 H   0  0  0  0  0  0
  -29.8538  -16.3960   23.5806 H   0  0  0  0  0  0
  -30.2086  -19.2756   16.7411 H   0  0  0  0  0  0
  -30.3759  -20.6624   17.7783 H   0  0  0  0  0  0
  -29.9286  -17.7844   18.7419 H   0  0  0  0  0  0
  -28.6399  -18.8964   18.4675 H   0  0  0  0  0  0
  -27.3639  -23.9437   20.2493 H   0  0  0  0  0  0
  -28.2400  -23.3865   18.8637 H   0  0  0  0  0  0
  -29.1408  -23.4237   21.7131 H   0  0  0  0  0  0
  -30.3514  -23.8658   20.5530 H   0  0  0  0  0  0
  -29.6568  -25.5181   18.9586 H   0  0  0  0  0  0
  -28.0745  -25.6286   18.3352 H   0  0  0  0  0  0
  -30.8124  -19.6311   20.4319 H   0  0  0  0  0  0
  -28.5938  -17.6489   20.7009 H   0  0  0  0  0  0
  -29.5711  -19.2218   24.3956 H   0  0  0  0  0  0
  -30.7708  -21.7153   20.3693 H   0  0  0  0  0  0
  -29.0422  -15.4369   21.2367 H   0  0  0  0  0  0
  1 25  1  0  0  0
  1 30  2  0  0  0
  1 88  1  0  0  0
  2  3  1  0  0  0
  2 25  1  0  0  0
  2 92  1  0  0  0
  2 93  1  0  0  0
  3  4  1  0  0  0
  3 94  1  0  0  0
  3 95  1  0  0  0
  4  5  1  0  0  0
  4 96  1  0  0  0
  4 97  1  0  0  0
  5  6  1  0  0  0
  5 26  1  0  0  0
  5 98  1  0  0  0
  6 25  1  0  0  0
  6 99  1  0  0  0
  6100  1  0  0  0
  7  8  2  0  0  0
  7 26  1  0  0  0
  7 29  1  0  0  0
  8  9  1  0  0  0
  8 22  1  0  0  0
  9 10  1  0  0  0
  9 27  2  0  0  0
 10 11  2  0  0  0
 10 15  1  0  0  0
 11 12  1  0  0  0
 11101  1  0  0  0
 12 13  2  0  0  0
 12102  1  0  0  0
 13 14  1  0  0  0
 13 31  1  0  0  0
 14 15  2  0  0  0
 14103  1  0  0  0
 15104  1  0  0  0
 16 17  2  0  0  0
 16 21  1  0  0  0
 16 31  1  0  0  0
 17 18  1  0  0  0
 17105  1  0  0  0
 18 19  2  0  0  0
 18106  1  0  0  0
 19 20  1  0  0  0
 19 24  1  0  0  0
 20 21  2  0  0  0
 20107  1  0  0  0
 21 23  1  0  0  0
 22 28  1  0  0  0
 22 32  2  0  0  0
 26 27  1  0  0  0
 28108  1  0  0  0
 28109  1  0  0  0
 29110  1  0  0  0
 29111  1  0  0  0
 33 34  1  0  0  0
 33 66  1  0  0  0
 33 70  2  0  0  0
 34 36  1  0  0  0
 34 59  1  0  0  0
 34112  1  0  0  0
 35 44  2  0  0  0
 35 45  1  0  0  0
 35 68  1  0  0  0
 36 56  1  0  0  0
 36113  1  0  0  0
 37 39  1  0  0  0
 37 47  1  0  0  0
 37 66  1  0  0  0
 37114  1  0  0  0
 38 43  2  0  0  0
 38 46  1  0  0  0
 38 47  1  0  0  0
 39 64  1  0  0  0
 39 67  2  0  0  0
 40 52  1  0  0  0
 40 53  2  0  0  0
 40 58  1  0  0  0
 41115  1  0  0  0
 41116  1  0  0  0
 41117  1  0  0  0
 41 48  1  0  0  0
 42 43  1  0  0  0
 42 66  1  0  0  0
 42118  1  0  0  0
 42119  1  0  0  0
 43 44  1  0  0  0
 44120  1  0  0  0
 45 46  2  0  0  0
 45121  1  0  0  0
 46122  1  0  0  0
 47123  1  0  0  0
 47124  1  0  0  0
 48 56  1  0  0  0
 48 65  1  0  0  0
 48125  1  0  0  0
 49 50  1  0  0  0
 49 53  1  0  0  0
 49 64  1  0  0  0
 49126  1  0  0  0
 50 51  1  0  0  0
 50127  1  0  0  0
 50128  1  0  0  0
 51 52  1  0  0  0
 51129  1  0  0  0
 51130  1  0  0  0
 52131  1  0  0  0
 52132  1  0  0  0
 53 54  1  0  0  0
 54 55  2  0  0  0
 54133  1  0  0  0
 55 57  1  0  0  0
 55134  1  0  0  0
 56 69  2  0  0  0
 57 58  2  0  0  0
 57135  1  0  0  0
 58136  1  0  0  0
 59 60  1  0  0  0
 59 61  1  0  0  0
 59 62  1  0  0  0
 60137  1  0  0  0
 60138  1  0  0  0
 60139  1  0  0  0
 61140  1  0  0  0
 61141  1  0  0  0
 61142  1  0  0  0
 62143  1  0  0  0
 62144  1  0  0  0
 62145  1  0  0  0
 63 65  1  0  0  0
 63146  1  0  0  0
 63147  1  0  0  0
 63148  1  0  0  0
 64149  1  0  0  0
 65150  1  0  0  0
 68 82  1  0  0  0
 71 83  1  0  0  0
 71 87  1  0  0  0
 71 89  2  0  0  0
 72 73  1  0  0  0
 72151  1  0  0  0
 72152  1  0  0  0
 72 74  1  0  0  0
 73 74  1  0  0  0
 73153  1  0  0  0
 73154  1  0  0  0
 74 84  1  0  0  0
 74 85  1  0  0  0
 75 78  1  0  0  0
 75155  1  0  0  0
 75156  1  0  0  0
 75157  1  0  0  0
 76158  1  0  0  0
 76159  1  0  0  0
 76160  1  0  0  0
 76 86  1  0  0  0
 77 86  1  0  0  0
 77161  1  0  0  0
 77162  1  0  0  0
 77163  1  0  0  0
 78 79  1  0  0  0
 78164  1  0  0  0
 78165  1  0  0  0
 79166  1  0  0  0
 79167  1  0  0  0
 79 83  1  0  0  0
 80 81  1  0  0  0
 80 82  1  0  0  0
 80168  1  0  0  0
 80169  1  0  0  0
 81 87  1  0  0  0
 81170  1  0  0  0
 81171  1  0  0  0
 82172  1  0  0  0
 82173  1  0  0  0
 83174  1  0  0  0
 83 84  1  0  0  0
 84 86  1  0  0  0
 84175  1  0  0  0
 85 90  1  0  0  0
 85 91  1  0  0  0
 85176  1  0  0  0
 86 88  1  0  0  0
 87177  1  0  0  0
 88178  1  0  0  0
M  ISO  4   1 100  68 101  82 101  88 100
M  END
> <chiral flag>
0

> <version>
0

> <s_m_source_file>
/data/baiqing/PycharmProjects/Reinvent-master-3.2/result/LINK_invent/BTK/process_docking_weight1_custom_sum_contain_oxygen_bond_distance_aromatic_linkinvent_7_9_3/rearranged_h_0026.sdf

> <i_m_source_file_index>
45

> <r_mmod_Potential_Energy-OPLS-2005>
149.175018310547

> <r_mmod_Stretch_Energy-OPLS-2005>
85.1553115844727

> <r_mmod_Bend_Energy-OPLS-2005>
180.797744750977

> <r_mmod_Torsional_Energy-OPLS-2005>
317.703552246094

> <r_mmod_Improper_Torsional_Energy-OPLS-2005>
3.22318863868713

> <r_mmod_Van_der_Waal_Energy-OPLS-2005>
140.048294067383

> <r_mmod_Electrostatic_Energy-OPLS-2005>
-392.360748291016

> <r_mmod_Solvation_Energy-OPLS-2005>
-211.723281860352

> <b_mmod_Minimization_Converged-OPLS-2005>
0

> <r_mmod_RMS_Derivative-OPLS-2005>
3.6517653465271

$$$$
45
                    3D
 Structure written by MMmdl.
172181  0  0  1  0            999 V2000
  -30.6117  -14.8446   20.4259 C   0  0  0  0  0  0
  -30.4313  -12.5184   19.4907 C   0  0  0  0  0  0
  -29.5130  -12.5112   18.2483 C   0  0  0  0  0  0
  -28.0427  -12.3236   18.6649 C   0  0  0  0  0  0
  -27.6330  -13.2459   19.8435 C   0  0  2  0  0  0
  -28.6801  -13.2481   20.9795 C   0  0  0  0  0  0
  -25.2421  -13.8135   20.5777 C   0  0  0  0  0  0
  -24.1750  -13.0363   20.9266 C   0  0  0  0  0  0
  -24.6387  -11.6874   20.8764 C   0  0  0  0  0  0
  -23.9070  -10.4262   21.0406 C   0  0  0  0  0  0
  -24.3623   -9.4176   21.9181 C   0  0  0  0  0  0
  -23.6307   -8.2215   22.0755 C   0  0  0  0  0  0
  -22.4286   -8.0263   21.3554 C   0  0  0  0  0  0
  -21.9916   -9.0227   20.4644 C   0  0  0  0  0  0
  -22.7239  -10.2102   20.3055 C   0  0  0  0  0  0
  -21.6844   -6.0735   22.5284 C   0  0  0  0  0  0
  -21.3992   -6.5640   23.8215 C   0  0  0  0  0  0
  -21.3662   -5.6791   24.9182 C   0  0  0  0  0  0
  -21.6049   -4.3060   24.7224 C   0  0  0  0  0  0
  -21.8817   -3.8147   23.4350 C   0  0  0  0  0  0
  -21.9183   -4.6965   22.3402 C   0  0  0  0  0  0
  -22.7767  -13.5153   21.1902 C   0  0  0  0  0  0
  -22.1664   -4.2144   21.0988 F   0  0  0  0  0  0
  -21.5639   -3.4545   25.7747 F   0  0  0  0  0  0
  -29.9734  -13.6136   20.3888 N   0  0  0  0  0  0
  -26.2890  -12.9421   20.3286 N   0  0  0  0  0  0
  -25.9329  -11.6539   20.5742 N   0  0  0  0  0  0
  -22.0416  -12.8162   22.0463 N   0  0  0  0  0  0
  -25.3912  -15.1837   20.4273 N   0  0  0  0  0  0
  -31.8027  -14.8870   20.1073 O   0  0  0  0  0  0
  -21.6635   -6.8874   21.4249 O   0  0  0  0  0  0
  -22.3464  -14.5453   20.6725 O   0  0  0  0  0  0
  -24.6361  -31.8486   23.1921 C   0  0  0  0  0  0
  -25.9150  -32.4724   23.8304 C   0  0  1  0  0  0
  -27.2210  -27.1956   20.1651 C   0  0  0  0  0  0
  -25.5922  -33.8529   24.2226 N   0  0  0  0  0  0
  -23.4380  -30.4668   21.5358 C   0  0  2  0  0  0
  -24.8879  -28.9021   20.1109 C   0  0  0  0  0  0
  -22.7521  -29.4566   22.4887 C   0  0  0  0  0  0
  -18.0299  -28.1409   22.8486 C   0  0  0  0  0  0
  -24.1485  -36.7284   23.2651 C   0  0  0  0  0  0
  -25.9873  -30.7437   21.3813 C   0  0  0  0  0  0
  -26.0600  -29.3575   20.7300 C   0  0  0  0  0  0
  -27.2273  -28.5179   20.7449 C   0  0  0  0  0  0
  -26.0337  -26.8329   19.4931 C   0  0  0  0  0  0
  -24.8842  -27.6500   19.4760 C   0  0  0  0  0  0
  -23.6619  -29.7968   20.1537 C   0  0  0  0  0  0
  -25.4113  -36.3056   24.0337 C   0  0  1  0  0  0
  -20.5900  -28.3717   23.1267 C   0  0  2  0  0  0
  -20.6795  -26.9427   22.5417 C   0  0  0  0  0  0
  -19.5766  -26.6389   21.5227 C   0  0  0  0  0  0
  -18.1944  -26.7954   22.1625 C   0  0  0  0  0  0
  -19.1551  -28.8884   23.2870 C   0  0  0  0  0  0
  -18.9472  -30.1485   23.8879 C   0  0  0  0  0  0
  -17.6468  -30.6603   24.0567 C   0  0  0  0  0  0
  -25.9047  -34.9430   23.5088 C   0  0  0  0  0  0
  -16.5365  -29.9099   23.6332 C   0  0  0  0  0  0
  -16.7280  -28.6527   23.0341 C   0  0  0  0  0  0
  -26.4495  -31.6564   25.0707 C   0  0  0  0  0  0
  -25.3705  -31.3772   26.1427 C   0  0  0  0  0  0
  -27.0337  -30.2965   24.6241 C   0  0  0  0  0  0
  -27.6064  -32.4304   25.7451 C   0  0  0  0  0  0
  -27.5574  -37.1794   24.8461 C   0  0  0  0  0  0
  -21.4216  -29.3052   22.3636 N   0  0  0  0  0  0
  -26.4287  -37.3756   23.9411 N   0  0  0  0  0  0
  -24.7066  -31.0409   22.0915 N   0  0  0  0  0  0
  -23.4189  -28.8127   23.3020 O   0  0  0  0  0  0
  -28.2900  -26.2514   20.2646 O   0  0  0  0  0  0
  -26.5635  -34.8913   22.4661 O   0  0  0  0  0  0
  -23.5500  -32.1339   23.7167 O   0  0  0  0  0  0
  -30.6409  -19.9554   20.7713 C   0  0  0  0  0  0
  -28.1291  -21.0002   20.3100 C   0  0  0  0  0  0
  -28.3946  -19.5634   20.0296 C   0  0  0  0  0  0
  -29.6953  -18.9675   20.3624 C   0  0  0  0  0  0
  -29.1588  -21.9811   20.5691 C   0  0  0  0  0  0
  -30.4168  -21.3656   20.8167 C   0  0  0  0  0  0
  -26.7083  -21.5173   20.5348 C   0  0  0  0  0  0
  -25.0711  -20.1923   19.1701 C   0  0  0  0  0  0
  -25.8538  -18.9672   19.6851 C   0  0  0  0  0  0
  -25.7994  -21.5341   19.3068 C   0  0  1  0  0  0
  -27.3223  -18.7665   19.1983 C   0  0  0  0  0  0
  -24.8022  -22.7015   19.3619 C   0  0  0  0  0  0
  -27.4864  -19.1435   17.7080 C   0  0  0  0  0  0
  -27.5022  -17.2411   19.2149 C   0  0  0  0  0  0
  -29.0609  -23.6111   20.7804 C   0  0  0  0  0  0
  -30.3449  -17.4675   20.1337 C   0  0  0  0  0  0
  -28.0507  -24.7417   20.1239 C   0  0  0  0  0  0
  -29.8947  -16.0428   20.5830 N   0  0  0  0  0  0
  -31.4634  -22.1509   21.1705 F   0  0  0  0  0  0
  -31.4699  -12.6394   19.1797 H   0  0  0  0  0  0
  -30.3918  -11.5572   20.0059 H   0  0  0  0  0  0
  -29.8134  -11.7173   17.5623 H   0  0  0  0  0  0
  -29.6241  -13.4486   17.7001 H   0  0  0  0  0  0
  -27.9192  -11.2806   18.9560 H   0  0  0  0  0  0
  -27.3818  -12.4779   17.8116 H   0  0  0  0  0  0
  -27.6040  -14.2536   19.4308 H   0  0  0  0  0  0
  -28.7395  -12.2708   21.4581 H   0  0  0  0  0  0
  -28.4005  -13.9591   21.7579 H   0  0  0  0  0  0
  -25.2758   -9.5662   22.4762 H   0  0  0  0  0  0
  -24.0009   -7.4595   22.7479 H   0  0  0  0  0  0
  -21.0840   -8.8723   19.8959 H   0  0  0  0  0  0
  -22.3674  -10.9643   19.6173 H   0  0  0  0  0  0
  -21.1966   -7.6143   23.9716 H   0  0  0  0  0  0
  -21.1502   -6.0530   25.9086 H   0  0  0  0  0  0
  -22.0594   -2.7611   23.2844 H   0  0  0  0  0  0
  -22.4036  -11.9828   22.4857 H   0  0  0  0  0  0
  -21.1020  -13.1168   22.2650 H   0  0  0  0  0  0
  -24.6037  -15.8134   20.5324 H   0  0  0  0  0  0
  -26.2120  -15.6321   20.0458 H   0  0  0  0  0  0
  -26.7220  -32.5357   23.1047 H   0  0  0  0  0  0
  -25.0036  -33.9659   25.0356 H   0  0  0  0  0  0
  -22.7392  -31.2913   21.3835 H   0  0  0  0  0  0
  -23.3752  -35.9603   23.3276 H   0  0  0  0  0  0
  -24.3594  -36.8919   22.2066 H   0  0  0  0  0  0
  -23.7218  -37.6477   23.6689 H   0  0  0  0  0  0
  -26.1354  -31.4982   20.6077 H   0  0  0  0  0  0
  -26.8641  -30.7975   22.0156 H   0  0  0  0  0  0
  -28.1151  -28.8576   21.2613 H   0  0  0  0  0  0
  -25.9695  -25.8800   18.9929 H   0  0  0  0  0  0
  -23.9937  -27.2947   18.9771 H   0  0  0  0  0  0
  -23.7963  -30.5727   19.3992 H   0  0  0  0  0  0
  -22.7795  -29.2345   19.8418 H   0  0  0  0  0  0
  -25.1295  -36.1890   25.0833 H   0  0  0  0  0  0
  -21.0011  -28.3307   24.1383 H   0  0  0  0  0  0
  -20.5717  -26.2325   23.3629 H   0  0  0  0  0  0
  -21.6664  -26.7463   22.1193 H   0  0  0  0  0  0
  -19.6921  -25.6296   21.1268 H   0  0  0  0  0  0
  -19.6710  -27.3201   20.6759 H   0  0  0  0  0  0
  -17.4216  -26.6710   21.4016 H   0  0  0  0  0  0
  -18.0323  -26.0119   22.9029 H   0  0  0  0  0  0
  -19.7948  -30.7317   24.2240 H   0  0  0  0  0  0
  -17.5018  -31.6269   24.5188 H   0  0  0  0  0  0
  -15.5366  -30.2991   23.7684 H   0  0  0  0  0  0
  -15.8682  -28.0844   22.7054 H   0  0  0  0  0  0
  -24.5838  -30.7162   25.7763 H   0  0  0  0  0  0
  -24.8962  -32.2980   26.4840 H   0  0  0  0  0  0
  -25.8005  -30.8933   27.0205 H   0  0  0  0  0  0
  -26.2930  -29.6690   24.1271 H   0  0  0  0  0  0
  -27.3998  -29.7246   25.4777 H   0  0  0  0  0  0
  -27.8816  -30.4214   23.9507 H   0  0  0  0  0  0
  -27.2707  -33.3650   26.1962 H   0  0  0  0  0  0
  -28.3903  -32.6768   25.0274 H   0  0  0  0  0  0
  -28.0700  -31.8449   26.5401 H   0  0  0  0  0  0
  -28.2603  -38.0079   24.7507 H   0  0  0  0  0  0
  -28.1058  -36.2619   24.6284 H   0  0  0  0  0  0
  -27.2311  -37.1429   25.8868 H   0  0  0  0  0  0
  -20.9411  -29.8747   21.6814 H   0  0  0  0  0  0
  -26.0154  -38.2827   24.1403 H   0  0  0  0  0  0
  -31.6476  -19.6372   21.0009 H   0  0  0  0  0  0
  -26.7508  -22.5135   20.9558 H   0  0  0  0  0  0
  -26.2569  -20.9622   21.3556 H   0  0  0  0  0  0
  -24.1345  -20.2321   19.7291 H   0  0  0  0  0  0
  -24.7781  -20.0429   18.1297 H   0  0  0  0  0  0
  -25.2360  -18.1247   19.3725 H   0  0  0  0  0  0
  -25.8237  -18.9038   20.7730 H   0  0  0  0  0  0
  -26.4048  -21.7254   18.4251 H   0  0  0  0  0  0
  -24.2590  -22.7197   20.3071 H   0  0  0  0  0  0
  -24.0712  -22.6439   18.5556 H   0  0  0  0  0  0
  -25.3171  -23.6551   19.2571 H   0  0  0  0  0  0
  -27.5170  -20.2143   17.5355 H   0  0  0  0  0  0
  -26.6779  -18.7380   17.0994 H   0  0  0  0  0  0
  -28.4227  -18.7613   17.2997 H   0  0  0  0  0  0
  -27.5033  -16.8686   20.2373 H   0  0  0  0  0  0
  -28.3921  -16.9153   18.6851 H   0  0  0  0  0  0
  -26.7040  -16.7349   18.6709 H   0  0  0  0  0  0
  -30.0523  -23.9757   20.5141 H   0  0  0  0  0  0
  -29.0066  -23.7472   21.8598 H   0  0  0  0  0  0
  -31.3616  -17.5316   20.5242 H   0  0  0  0  0  0
  -30.5123  -17.3995   19.0579 H   0  0  0  0  0  0
  -27.0625  -24.5595   20.5429 H   0  0  0  0  0  0
  -27.9686  -24.5363   19.0567 H   0  0  0  0  0  0
  -28.9259  -15.9486   20.8463 H   0  0  0  0  0  0
  1 25  1  0  0  0
  1 30  2  0  0  0
  1 88  1  0  0  0
  2  3  1  0  0  0
  2 25  1  0  0  0
  2 90  1  0  0  0
  2 91  1  0  0  0
  3  4  1  0  0  0
  3 92  1  0  0  0
  3 93  1  0  0  0
  4  5  1  0  0  0
  4 94  1  0  0  0
  4 95  1  0  0  0
  5  6  1  0  0  0
  5 26  1  0  0  0
  5 96  1  0  0  0
  6 25  1  0  0  0
  6 97  1  0  0  0
  6 98  1  0  0  0
  7  8  2  0  0  0
  7 26  1  0  0  0
  7 29  1  0  0  0
  8  9  1  0  0  0
  8 22  1  0  0  0
  9 10  1  0  0  0
  9 27  2  0  0  0
 10 11  2  0  0  0
 10 15  1  0  0  0
 11 12  1  0  0  0
 11 99  1  0  0  0
 12 13  2  0  0  0
 12100  1  0  0  0
 13 14  1  0  0  0
 13 31  1  0  0  0
 14 15  2  0  0  0
 14101  1  0  0  0
 15102  1  0  0  0
 16 17  2  0  0  0
 16 21  1  0  0  0
 16 31  1  0  0  0
 17 18  1  0  0  0
 17103  1  0  0  0
 18 19  2  0  0  0
 18104  1  0  0  0
 19 20  1  0  0  0
 19 24  1  0  0  0
 20 21  2  0  0  0
 20105  1  0  0  0
 21 23  1  0  0  0
 22 28  1  0  0  0
 22 32  2  0  0  0
 26 27  1  0  0  0
 28106  1  0  0  0
 28107  1  0  0  0
 29108  1  0  0  0
 29109  1  0  0  0
 33 34  1  0  0  0
 33 66  1  0  0  0
 33 70  2  0  0  0
 34 36  1  0  0  0
 34 59  1  0  0  0
 34110  1  0  0  0
 35 44  2  0  0  0
 35 45  1  0  0  0
 35 68  1  0  0  0
 36 56  1  0  0  0
 36111  1  0  0  0
 37 39  1  0  0  0
 37 47  1  0  0  0
 37 66  1  0  0  0
 37112  1  0  0  0
 38 43  2  0  0  0
 38 46  1  0  0  0
 38 47  1  0  0  0
 39 64  1  0  0  0
 39 67  2  0  0  0
 40 52  1  0  0  0
 40 53  2  0  0  0
 40 58  1  0  0  0
 41113  1  0  0  0
 41114  1  0  0  0
 41115  1  0  0  0
 41 48  1  0  0  0
 42 43  1  0  0  0
 42 66  1  0  0  0
 42116  1  0  0  0
 42117  1  0  0  0
 43 44  1  0  0  0
 44118  1  0  0  0
 45 46  2  0  0  0
 45119  1  0  0  0
 46120  1  0  0  0
 47121  1  0  0  0
 47122  1  0  0  0
 48 56  1  0  0  0
 48 65  1  0  0  0
 48123  1  0  0  0
 49 50  1  0  0  0
 49 53  1  0  0  0
 49 64  1  0  0  0
 49124  1  0  0  0
 50 51  1  0  0  0
 50125  1  0  0  0
 50126  1  0  0  0
 51 52  1  0  0  0
 51127  1  0  0  0
 51128  1  0  0  0
 52129  1  0  0  0
 52130  1  0  0  0
 53 54  1  0  0  0
 54 55  2  0  0  0
 54131  1  0  0  0
 55 57  1  0  0  0
 55132  1  0  0  0
 56 69  2  0  0  0
 57 58  2  0  0  0
 57133  1  0  0  0
 58134  1  0  0  0
 59 60  1  0  0  0
 59 61  1  0  0  0
 59 62  1  0  0  0
 60135  1  0  0  0
 60136  1  0  0  0
 60137  1  0  0  0
 61138  1  0  0  0
 61139  1  0  0  0
 61140  1  0  0  0
 62141  1  0  0  0
 62142  1  0  0  0
 62143  1  0  0  0
 63 65  1  0  0  0
 63144  1  0  0  0
 63145  1  0  0  0
 63146  1  0  0  0
 64147  1  0  0  0
 65148  1  0  0  0
 68 87  1  0  0  0
 71 74  2  0  0  0
 71 76  1  0  0  0
 71149  1  0  0  0
 72 73  2  0  0  0
 72 75  1  0  0  0
 72 77  1  0  0  0
 73 74  1  0  0  0
 73 81  1  0  0  0
 74 86  1  0  0  0
 75 76  2  0  0  0
 75 85  1  0  0  0
 76 89  1  0  0  0
 77 80  1  0  0  0
 77150  1  0  0  0
 77151  1  0  0  0
 78 79  1  0  0  0
 78 80  1  0  0  0
 78152  1  0  0  0
 78153  1  0  0  0
 79 81  1  0  0  0
 79154  1  0  0  0
 79155  1  0  0  0
 80 82  1  0  0  0
 80156  1  0  0  0
 81 83  1  0  0  0
 81 84  1  0  0  0
 82157  1  0  0  0
 82158  1  0  0  0
 82159  1  0  0  0
 83160  1  0  0  0
 83161  1  0  0  0
 83162  1  0  0  0
 84163  1  0  0  0
 84164  1  0  0  0
 84165  1  0  0  0
 85 87  1  0  0  0
 85166  1  0  0  0
 85167  1  0  0  0
 86 88  1  0  0  0
 86168  1  0  0  0
 86169  1  0  0  0
 87170  1  0  0  0
 87171  1  0  0  0
 88172  1  0  0  0
M  ISO  4   1 100  68 101  87 101  88 100
M  END
> <chiral flag>
0

> <version>
0

> <s_m_source_file>
/data/baiqing/PycharmProjects/Reinvent-master-3.2/result/LINK_invent/BTK/process_docking_weight1_custom_sum_contain_oxygen_bond_distance_aromatic_linkinvent_7_9_3/rearranged_h_0026.sdf

> <i_m_source_file_index>
46

> <r_mmod_Potential_Energy-OPLS-2005>
453.620330810547

> <r_mmod_Stretch_Energy-OPLS-2005>
208.038330078125

> <r_mmod_Bend_Energy-OPLS-2005>
294.800842285156

> <r_mmod_Torsional_Energy-OPLS-2005>
278.113677978516

> <r_mmod_Improper_Torsional_Energy-OPLS-2005>
9.2304859161377

> <r_mmod_Van_der_Waal_Energy-OPLS-2005>
167.048294067383

> <r_mmod_Electrostatic_Energy-OPLS-2005>
-446.710021972656

> <r_mmod_Solvation_Energy-OPLS-2005>
-193.262893676758

> <b_mmod_Minimization_Converged-OPLS-2005>
0

> <r_mmod_RMS_Derivative-OPLS-2005>
2.87354183197021

$$$$
46
                    3D
 Structure written by MMmdl.
162170  0  0  1  0            999 V2000
  -30.7791  -14.4800   20.6344 C   0  0  0  0  0  0
  -30.4164  -12.3359   19.4403 C   0  0  0  0  0  0
  -29.4988  -12.5098   18.2154 C   0  0  0  0  0  0
  -28.0225  -12.3583   18.6231 C   0  0  0  0  0  0
  -27.6578  -13.2162   19.8612 C   0  0  2  0  0  0
  -28.6924  -13.0491   20.9940 C   0  0  0  0  0  0
  -25.2585  -13.8192   20.5670 C   0  0  0  0  0  0
  -24.1851  -13.0453   20.9183 C   0  0  0  0  0  0
  -24.6396  -11.6930   20.8698 C   0  0  0  0  0  0
  -23.9056  -10.4315   21.0382 C   0  0  0  0  0  0
  -24.3604   -9.4239   21.9158 C   0  0  0  0  0  0
  -23.6275   -8.2271   22.0747 C   0  0  0  0  0  0
  -22.4269   -8.0286   21.3528 C   0  0  0  0  0  0
  -21.9889   -9.0273   20.4642 C   0  0  0  0  0  0
  -22.7221  -10.2158   20.3047 C   0  0  0  0  0  0
  -21.6863   -6.0734   22.5285 C   0  0  0  0  0  0
  -21.4020   -6.5638   23.8217 C   0  0  0  0  0  0
  -21.3646   -5.6800   24.9181 C   0  0  0  0  0  0
  -21.6037   -4.3065   24.7232 C   0  0  0  0  0  0
  -21.8811   -3.8147   23.4365 C   0  0  0  0  0  0
  -21.9192   -4.6954   22.3414 C   0  0  0  0  0  0
  -22.7872  -13.5269   21.1855 C   0  0  0  0  0  0
  -22.1656   -4.2149   21.0981 F   0  0  0  0  0  0
  -21.5615   -3.4534   25.7738 F   0  0  0  0  0  0
  -30.0385  -13.3369   20.4619 N   0  0  0  0  0  0
  -26.3005  -12.9374   20.3262 N   0  0  0  0  0  0
  -25.9319  -11.6523   20.5656 N   0  0  0  0  0  0
  -22.0510  -12.8256   22.0404 N   0  0  0  0  0  0
  -25.4291  -15.1910   20.4100 N   0  0  0  0  0  0
  -31.8162  -14.6560   19.9879 O   0  0  0  0  0  0
  -21.6636   -6.8882   21.4252 O   0  0  0  0  0  0
  -22.3552  -14.5580   20.6736 O   0  0  0  0  0  0
  -24.6144  -31.8650   23.2083 C   0  0  0  0  0  0
  -25.9031  -32.4804   23.8402 C   0  0  1  0  0  0
  -27.2485  -27.4124   20.1011 C   0  0  0  0  0  0
  -25.5868  -33.8597   24.2332 N   0  0  0  0  0  0
  -23.4040  -30.4872   21.5478 C   0  0  2  0  0  0
  -24.8531  -28.9439   20.1219 C   0  0  0  0  0  0
  -22.7405  -29.4662   22.5004 C   0  0  0  0  0  0
  -18.0272  -28.1349   22.8454 C   0  0  0  0  0  0
  -24.1482  -36.7282   23.2646 C   0  0  0  0  0  0
  -25.9333  -30.8300   21.3601 C   0  0  0  0  0  0
  -26.0139  -29.4608   20.7075 C   0  0  0  0  0  0
  -27.2107  -28.7047   20.6868 C   0  0  0  0  0  0
  -26.0582  -26.9089   19.5271 C   0  0  0  0  0  0
  -24.8707  -27.6694   19.5313 C   0  0  0  0  0  0
  -23.6136  -29.8082   20.1686 C   0  0  0  0  0  0
  -25.4099  -36.3098   24.0366 C   0  0  1  0  0  0
  -20.5859  -28.3677   23.1281 C   0  0  2  0  0  0
  -20.6767  -26.9407   22.5395 C   0  0  0  0  0  0
  -19.5762  -26.6388   21.5180 C   0  0  0  0  0  0
  -18.1941  -26.7898   22.1589 C   0  0  0  0  0  0
  -19.1517  -28.8824   23.2864 C   0  0  0  0  0  0
  -18.9425  -30.1424   23.8868 C   0  0  0  0  0  0
  -17.6427  -30.6549   24.0531 C   0  0  0  0  0  0
  -25.9026  -34.9466   23.5152 C   0  0  0  0  0  0
  -16.5317  -29.9031   23.6304 C   0  0  0  0  0  0
  -16.7261  -28.6450   23.0320 C   0  0  0  0  0  0
  -26.4465  -31.6566   25.0721 C   0  0  0  0  0  0
  -25.3754  -31.3640   26.1492 C   0  0  0  0  0  0
  -27.0275  -30.3003   24.6069 C   0  0  0  0  0  0
  -27.6047  -32.4288   25.7450 C   0  0  0  0  0  0
  -27.5577  -37.1794   24.8483 C   0  0  0  0  0  0
  -21.4134  -29.3041   22.3684 N   0  0  0  0  0  0
  -26.4283  -37.3786   23.9437 N   0  0  0  0  0  0
  -24.6677  -31.0769   22.0956 N   0  0  0  0  0  0
  -23.4154  -28.8237   23.3089 O   0  0  0  0  0  0
  -28.4497  -26.7159   20.1293 O   0  0  0  0  0  0
  -26.5616  -34.8925   22.4732 O   0  0  0  0  0  0
  -23.5327  -32.1411   23.7488 O   0  0  0  0  0  0
  -31.2250  -19.5915   20.8908 C   0  0  0  0  0  0
  -31.9612  -17.3013   21.2958 C   0  0  0  0  0  0
  -29.5821  -17.8032   21.1587 C   0  0  0  0  0  0
  -32.2638  -18.6602   21.0828 C   0  0  0  0  0  0
  -29.8739  -19.1865   20.9524 C   0  0  0  0  0  0
  -30.6219  -16.8398   21.2983 C   0  0  0  0  0  0
  -33.7076  -19.1235   21.0523 C   0  0  0  0  0  0
  -30.2594  -15.0549   22.9347 C   0  0  0  0  0  0
  -28.7451  -20.2158   20.7280 C   0  0  0  0  0  0
  -28.9456  -21.6860   21.2488 C   0  0  0  0  0  0
  -28.7932  -22.8132   20.1761 C   0  0  0  0  0  0
  -28.5861  -24.2621   20.7222 C   0  0  0  0  0  0
  -28.5849  -25.3678   19.6224 C   0  0  0  0  0  0
  -30.3530  -15.4343   21.5195 N   0  0  0  0  0  0
  -31.4595  -12.4152   19.1324 H   0  0  0  0  0  0
  -30.3122  -11.3318   19.8531 H   0  0  0  0  0  0
  -29.7519  -11.7748   17.4500 H   0  0  0  0  0  0
  -29.6725  -13.4884   17.7644 H   0  0  0  0  0  0
  -27.8465  -11.3045   18.8382 H   0  0  0  0  0  0
  -27.3737  -12.6171   17.7850 H   0  0  0  0  0  0
  -27.6922  -14.2588   19.5463 H   0  0  0  0  0  0
  -28.6588  -12.0409   21.4082 H   0  0  0  0  0  0
  -28.4109  -13.7091   21.8085 H   0  0  0  0  0  0
  -25.2750   -9.5736   22.4716 H   0  0  0  0  0  0
  -23.9977   -7.4677   22.7492 H   0  0  0  0  0  0
  -21.0799   -8.8820   19.8958 H   0  0  0  0  0  0
  -22.3673  -10.9700   19.6156 H   0  0  0  0  0  0
  -21.2020   -7.6154   23.9712 H   0  0  0  0  0  0
  -21.1458   -6.0536   25.9087 H   0  0  0  0  0  0
  -22.0588   -2.7604   23.2876 H   0  0  0  0  0  0
  -22.4120  -11.9922   22.4815 H   0  0  0  0  0  0
  -21.1122  -13.1321   22.2559 H   0  0  0  0  0  0
  -24.6725  -15.8489   20.5628 H   0  0  0  0  0  0
  -26.2776  -15.6364   20.0804 H   0  0  0  0  0  0
  -26.7087  -32.5530   23.1157 H   0  0  0  0  0  0
  -24.9959  -33.9725   25.0436 H   0  0  0  0  0  0
  -22.6927  -31.3037   21.4032 H   0  0  0  0  0  0
  -23.3754  -35.9602   23.3318 H   0  0  0  0  0  0
  -24.3561  -36.8873   22.2049 H   0  0  0  0  0  0
  -23.7220  -37.6487   23.6639 H   0  0  0  0  0  0
  -26.0489  -31.5975   20.5944 H   0  0  0  0  0  0
  -26.8182  -30.8830   21.9821 H   0  0  0  0  0  0
  -28.1103  -29.1132   21.1261 H   0  0  0  0  0  0
  -26.0112  -25.9260   19.0856 H   0  0  0  0  0  0
  -23.9736  -27.2560   19.0919 H   0  0  0  0  0  0
  -23.7167  -30.5754   19.4002 H   0  0  0  0  0  0
  -22.7417  -29.2168   19.8789 H   0  0  0  0  0  0
  -25.1268  -36.1958   25.0857 H   0  0  0  0  0  0
  -20.9921  -28.3253   24.1420 H   0  0  0  0  0  0
  -20.5633  -26.2306   23.3598 H   0  0  0  0  0  0
  -21.6655  -26.7462   22.1226 H   0  0  0  0  0  0
  -19.6954  -25.6306   21.1180 H   0  0  0  0  0  0
  -19.6685  -27.3222   20.6724 H   0  0  0  0  0  0
  -17.4226  -26.6633   21.3967 H   0  0  0  0  0  0
  -18.0362  -26.0014   22.8963 H   0  0  0  0  0  0
  -19.7889  -30.7254   24.2241 H   0  0  0  0  0  0
  -17.4959  -31.6224   24.5130 H   0  0  0  0  0  0
  -15.5300  -30.2912   23.7622 H   0  0  0  0  0  0
  -15.8678  -28.0751   22.7043 H   0  0  0  0  0  0
  -24.5965  -30.6922   25.7856 H   0  0  0  0  0  0
  -24.8932  -32.2775   26.4976 H   0  0  0  0  0  0
  -25.8178  -30.8832   27.0229 H   0  0  0  0  0  0
  -26.2807  -29.6791   24.1111 H   0  0  0  0  0  0
  -27.4041  -29.7200   25.4505 H   0  0  0  0  0  0
  -27.8649  -30.4322   23.9220 H   0  0  0  0  0  0
  -27.2669  -33.3586   26.2034 H   0  0  0  0  0  0
  -28.3830  -32.6838   25.0244 H   0  0  0  0  0  0
  -28.0738  -31.8419   26.5353 H   0  0  0  0  0  0
  -28.2619  -38.0073   24.7510 H   0  0  0  0  0  0
  -28.1050  -36.2596   24.6323 H   0  0  0  0  0  0
  -27.2298  -37.1476   25.8894 H   0  0  0  0  0  0
  -20.9356  -29.8650   21.6766 H   0  0  0  0  0  0
  -26.0171  -38.2865   24.1432 H   0  0  0  0  0  0
  -31.4750  -20.6243   20.6960 H   0  0  0  0  0  0
  -32.7706  -16.6000   21.4517 H   0  0  0  0  0  0
  -28.5508  -17.4770   21.1981 H   0  0  0  0  0  0
  -33.8140  -20.0740   21.5765 H   0  0  0  0  0  0
  -34.0510  -19.2620   20.0264 H   0  0  0  0  0  0
  -34.3690  -18.4012   21.5360 H   0  0  0  0  0  0
  -31.0036  -15.5937   23.5250 H   0  0  0  0  0  0
  -30.4383  -13.9906   23.1108 H   0  0  0  0  0  0
  -29.2714  -15.3022   23.3221 H   0  0  0  0  0  0
  -27.8441  -19.8133   21.1949 H   0  0  0  0  0  0
  -28.5211  -20.2293   19.6618 H   0  0  0  0  0  0
  -28.1931  -21.8624   22.0189 H   0  0  0  0  0  0
  -29.8928  -21.7979   21.7782 H   0  0  0  0  0  0
  -27.9474  -22.5775   19.5283 H   0  0  0  0  0  0
  -29.6719  -22.7955   19.5307 H   0  0  0  0  0  0
  -29.3735  -24.4865   21.4432 H   0  0  0  0  0  0
  -27.6529  -24.3056   21.2818 H   0  0  0  0  0  0
  -29.5607  -25.3365   19.1363 H   0  0  0  0  0  0
  -27.8923  -25.1397   18.8152 H   0  0  0  0  0  0
  1 25  1  0  0  0
  1 30  2  0  0  0
  1 84  1  0  0  0
  2  3  1  0  0  0
  2 25  1  0  0  0
  2 85  1  0  0  0
  2 86  1  0  0  0
  3  4  1  0  0  0
  3 87  1  0  0  0
  3 88  1  0  0  0
  4  5  1  0  0  0
  4 89  1  0  0  0
  4 90  1  0  0  0
  5  6  1  0  0  0
  5 26  1  0  0  0
  5 91  1  0  0  0
  6 25  1  0  0  0
  6 92  1  0  0  0
  6 93  1  0  0  0
  7  8  2  0  0  0
  7 26  1  0  0  0
  7 29  1  0  0  0
  8  9  1  0  0  0
  8 22  1  0  0  0
  9 10  1  0  0  0
  9 27  2  0  0  0
 10 11  2  0  0  0
 10 15  1  0  0  0
 11 12  1  0  0  0
 11 94  1  0  0  0
 12 13  2  0  0  0
 12 95  1  0  0  0
 13 14  1  0  0  0
 13 31  1  0  0  0
 14 15  2  0  0  0
 14 96  1  0  0  0
 15 97  1  0  0  0
 16 17  2  0  0  0
 16 21  1  0  0  0
 16 31  1  0  0  0
 17 18  1  0  0  0
 17 98  1  0  0  0
 18 19  2  0  0  0
 18 99  1  0  0  0
 19 20  1  0  0  0
 19 24  1  0  0  0
 20 21  2  0  0  0
 20100  1  0  0  0
 21 23  1  0  0  0
 22 28  1  0  0  0
 22 32  2  0  0  0
 26 27  1  0  0  0
 28101  1  0  0  0
 28102  1  0  0  0
 29103  1  0  0  0
 29104  1  0  0  0
 33 34  1  0  0  0
 33 66  1  0  0  0
 33 70  2  0  0  0
 34 36  1  0  0  0
 34 59  1  0  0  0
 34105  1  0  0  0
 35 44  2  0  0  0
 35 45  1  0  0  0
 35 68  1  0  0  0
 36 56  1  0  0  0
 36106  1  0  0  0
 37 39  1  0  0  0
 37 47  1  0  0  0
 37 66  1  0  0  0
 37107  1  0  0  0
 38 43  2  0  0  0
 38 46  1  0  0  0
 38 47  1  0  0  0
 39 64  1  0  0  0
 39 67  2  0  0  0
 40 52  1  0  0  0
 40 53  2  0  0  0
 40 58  1  0  0  0
 41108  1  0  0  0
 41109  1  0  0  0
 41110  1  0  0  0
 41 48  1  0  0  0
 42 43  1  0  0  0
 42 66  1  0  0  0
 42111  1  0  0  0
 42112  1  0  0  0
 43 44  1  0  0  0
 44113  1  0  0  0
 45 46  2  0  0  0
 45114  1  0  0  0
 46115  1  0  0  0
 47116  1  0  0  0
 47117  1  0  0  0
 48 56  1  0  0  0
 48 65  1  0  0  0
 48118  1  0  0  0
 49 50  1  0  0  0
 49 53  1  0  0  0
 49 64  1  0  0  0
 49119  1  0  0  0
 50 51  1  0  0  0
 50120  1  0  0  0
 50121  1  0  0  0
 51 52  1  0  0  0
 51122  1  0  0  0
 51123  1  0  0  0
 52124  1  0  0  0
 52125  1  0  0  0
 53 54  1  0  0  0
 54 55  2  0  0  0
 54126  1  0  0  0
 55 57  1  0  0  0
 55127  1  0  0  0
 56 69  2  0  0  0
 57 58  2  0  0  0
 57128  1  0  0  0
 58129  1  0  0  0
 59 60  1  0  0  0
 59 61  1  0  0  0
 59 62  1  0  0  0
 60130  1  0  0  0
 60131  1  0  0  0
 60132  1  0  0  0
 61133  1  0  0  0
 61134  1  0  0  0
 61135  1  0  0  0
 62136  1  0  0  0
 62137  1  0  0  0
 62138  1  0  0  0
 63 65  1  0  0  0
 63139  1  0  0  0
 63140  1  0  0  0
 63141  1  0  0  0
 64142  1  0  0  0
 65143  1  0  0  0
 68 83  1  0  0  0
 71 74  2  0  0  0
 71 75  1  0  0  0
 71144  1  0  0  0
 72 74  1  0  0  0
 72 76  2  0  0  0
 72145  1  0  0  0
 73 75  2  0  0  0
 73 76  1  0  0  0
 73146  1  0  0  0
 74 77  1  0  0  0
 75 79  1  0  0  0
 76 84  1  0  0  0
 77147  1  0  0  0
 77148  1  0  0  0
 77149  1  0  0  0
 78 84  1  0  0  0
 78150  1  0  0  0
 78151  1  0  0  0
 78152  1  0  0  0
 79 80  1  0  0  0
 79153  1  0  0  0
 79154  1  0  0  0
 80 81  1  0  0  0
 80155  1  0  0  0
 80156  1  0  0  0
 81 82  1  0  0  0
 81157  1  0  0  0
 81158  1  0  0  0
 82 83  1  0  0  0
 82159  1  0  0  0
 82160  1  0  0  0
 83161  1  0  0  0
 83162  1  0  0  0
M  ISO  4   1 100  68 101  83 101  84 100
M  END
> <chiral flag>
0

> <version>
0

> <s_m_source_file>
/data/baiqing/PycharmProjects/Reinvent-master-3.2/result/LINK_invent/BTK/process_docking_weight1_custom_sum_contain_oxygen_bond_distance_aromatic_linkinvent_7_9_3/rearranged_h_0026.sdf

> <i_m_source_file_index>
47

> <r_mmod_Potential_Energy-OPLS-2005>
191.975128173828

> <r_mmod_Stretch_Energy-OPLS-2005>
52.5128135681152

> <r_mmod_Bend_Energy-OPLS-2005>
123.243202209473

> <r_mmod_Torsional_Energy-OPLS-2005>
303.464691162109

> <r_mmod_Improper_Torsional_Energy-OPLS-2005>
4.09681558609009

> <r_mmod_Van_der_Waal_Energy-OPLS-2005>
154.792449951172

> <r_mmod_Electrostatic_Energy-OPLS-2005>
-280.257110595703

> <r_mmod_Solvation_Energy-OPLS-2005>
-181.747711181641

> <b_mmod_Minimization_Converged-OPLS-2005>
0

> <r_mmod_RMS_Derivative-OPLS-2005>
3.74274945259094

$$$$
47
                    3D
 Structure written by MMmdl.
180188  0  0  1  0            999 V2000
  -30.6951  -14.4239   20.6139 C   0  0  0  0  0  0
  -30.4265  -12.2903   19.4078 C   0  0  0  0  0  0
  -29.4922  -12.5163   18.2008 C   0  0  0  0  0  0
  -28.0140  -12.3725   18.6147 C   0  0  0  0  0  0
  -27.6667  -13.1954   19.8827 C   0  0  2  0  0  0
  -28.7041  -12.9330   20.9978 C   0  0  0  0  0  0
  -25.2621  -13.8131   20.5670 C   0  0  0  0  0  0
  -24.1857  -13.0426   20.9178 C   0  0  0  0  0  0
  -24.6399  -11.6893   20.8731 C   0  0  0  0  0  0
  -23.9072  -10.4281   21.0402 C   0  0  0  0  0  0
  -24.3624   -9.4207   21.9183 C   0  0  0  0  0  0
  -23.6292   -8.2243   22.0762 C   0  0  0  0  0  0
  -22.4281   -8.0280   21.3542 C   0  0  0  0  0  0
  -21.9913   -9.0261   20.4657 C   0  0  0  0  0  0
  -22.7241  -10.2133   20.3056 C   0  0  0  0  0  0
  -21.6852   -6.0752   22.5283 C   0  0  0  0  0  0
  -21.4021   -6.5650   23.8221 C   0  0  0  0  0  0
  -21.3658   -5.6796   24.9176 C   0  0  0  0  0  0
  -21.6041   -4.3060   24.7225 C   0  0  0  0  0  0
  -21.8819   -3.8158   23.4340 C   0  0  0  0  0  0
  -21.9198   -4.6977   22.3402 C   0  0  0  0  0  0
  -22.7882  -13.5248   21.1830 C   0  0  0  0  0  0
  -22.1656   -4.2163   21.0978 F   0  0  0  0  0  0
  -21.5633   -3.4539   25.7742 F   0  0  0  0  0  0
  -30.0410  -13.2447   20.4574 N   0  0  0  0  0  0
  -26.3045  -12.9289   20.3385 N   0  0  0  0  0  0
  -25.9313  -11.6456   20.5754 N   0  0  0  0  0  0
  -22.0525  -12.8231   22.0391 N   0  0  0  0  0  0
  -25.4369  -15.1838   20.4102 N   0  0  0  0  0  0
  -31.7866  -14.6731   20.0908 O   0  0  0  0  0  0
  -21.6630   -6.8885   21.4243 O   0  0  0  0  0  0
  -22.3561  -14.5554   20.6700 O   0  0  0  0  0  0
  -24.6103  -31.8704   23.2110 C   0  0  0  0  0  0
  -25.9036  -32.4805   23.8374 C   0  0  1  0  0  0
  -27.2321  -27.4717   20.0833 C   0  0  0  0  0  0
  -25.5924  -33.8588   24.2341 N   0  0  0  0  0  0
  -23.3949  -30.4980   21.5501 C   0  0  2  0  0  0
  -24.8416  -28.9643   20.1141 C   0  0  0  0  0  0
  -22.7384  -29.4694   22.4993 C   0  0  0  0  0  0
  -18.0281  -28.1354   22.8487 C   0  0  0  0  0  0
  -24.1495  -36.7331   23.2639 C   0  0  0  0  0  0
  -25.9182  -30.8488   21.3535 C   0  0  0  0  0  0
  -25.9985  -29.4807   20.7119 C   0  0  0  0  0  0
  -27.1980  -28.7397   20.6994 C   0  0  0  0  0  0
  -26.0662  -26.9601   19.4788 C   0  0  0  0  0  0
  -24.8684  -27.6990   19.5012 C   0  0  0  0  0  0
  -23.5981  -29.8252   20.1652 C   0  0  0  0  0  0
  -25.4092  -36.3077   24.0342 C   0  0  1  0  0  0
  -20.5863  -28.3663   23.1286 C   0  0  2  0  0  0
  -20.6788  -26.9409   22.5388 C   0  0  0  0  0  0
  -19.5745  -26.6363   21.5216 C   0  0  0  0  0  0
  -18.1937  -26.7872   22.1686 C   0  0  0  0  0  0
  -19.1529  -28.8833   23.2874 C   0  0  0  0  0  0
  -18.9460  -30.1445   23.8865 C   0  0  0  0  0  0
  -17.6462  -30.6581   24.0504 C   0  0  0  0  0  0
  -25.9028  -34.9451   23.5127 C   0  0  0  0  0  0
  -16.5350  -29.9065   23.6301 C   0  0  0  0  0  0
  -16.7271  -28.6478   23.0340 C   0  0  0  0  0  0
  -26.4483  -31.6551   25.0681 C   0  0  0  0  0  0
  -25.3790  -31.3674   26.1483 C   0  0  0  0  0  0
  -27.0306  -30.2977   24.6027 C   0  0  0  0  0  0
  -27.6038  -32.4290   25.7455 C   0  0  0  0  0  0
  -27.5571  -37.1779   24.8452 C   0  0  0  0  0  0
  -21.4120  -29.3068   22.3718 N   0  0  0  0  0  0
  -26.4262  -37.3779   23.9430 N   0  0  0  0  0  0
  -24.6588  -31.0867   22.0966 N   0  0  0  0  0  0
  -23.4186  -28.8226   23.3008 O   0  0  0  0  0  0
  -28.3936  -26.7475   20.0448 O   0  0  0  0  0  0
  -26.5573  -34.8875   22.4681 O   0  0  0  0  0  0
  -23.5313  -32.1434   23.7537 O   0  0  0  0  0  0
  -31.6190  -17.8410   23.1400 C   0  0  0  0  0  0
  -30.3727  -17.3692   22.6974 C   0  0  0  0  0  0
  -30.6392  -18.5261   25.2775 C   0  0  0  0  0  0
  -29.3632  -18.0624   24.8375 C   0  0  0  0  0  0
  -31.7561  -18.4142   24.4126 C   0  0  0  0  0  0
  -29.2439  -17.4828   23.5425 C   0  0  0  0  0  0
  -30.8599  -19.1937   26.6356 C   0  0  0  0  0  0
  -30.2684  -16.7924   21.2928 C   0  0  0  0  0  0
  -28.1064  -18.2354   25.6973 C   0  0  0  0  0  0
  -25.7216  -22.8002   22.6739 C   0  0  0  0  0  0
  -25.2859  -21.9986   23.9081 C   0  0  0  0  0  0
  -27.1013  -22.3878   22.1140 C   0  0  0  0  0  0
  -26.1810  -22.2638   25.1359 C   0  0  0  0  0  0
  -28.1100  -23.5460   22.0966 C   0  0  0  0  0  0
  -25.9266  -21.3212   26.3298 C   0  0  0  0  0  0
  -27.7782  -24.5952   21.0222 C   0  0  0  0  0  0
  -26.2225  -19.8277   26.0795 C   0  0  0  0  0  0
  -28.5883  -25.8930   21.1673 C   0  0  0  0  0  0
  -29.9986  -15.3570   21.2732 N   0  0  0  0  0  0
  -27.5909  -19.6099   25.5622 N   0  3  0  0  0  0
  -33.3180  -18.9969   24.8751 Cl  0  0  0  0  0  0
  -27.7044  -16.9478   22.9491 Cl  0  0  0  0  0  0
  -31.4706  -12.3997   19.1083 H   0  0  0  0  0  0
  -30.3306  -11.2690   19.7797 H   0  0  0  0  0  0
  -29.7281  -11.8090   17.4037 H   0  0  0  0  0  0
  -29.6622  -13.5099   17.7836 H   0  0  0  0  0  0
  -27.8187  -11.3146   18.7931 H   0  0  0  0  0  0
  -27.3647  -12.6620   17.7880 H   0  0  0  0  0  0
  -27.7239  -14.2491   19.6071 H   0  0  0  0  0  0
  -28.6724  -11.8848   21.2971 H   0  0  0  0  0  0
  -28.4609  -13.4918   21.9029 H   0  0  0  0  0  0
  -25.2776   -9.5678   22.4756 H   0  0  0  0  0  0
  -24.0016   -7.4626   22.7465 H   0  0  0  0  0  0
  -21.0861   -8.8777   19.8943 H   0  0  0  0  0  0
  -22.3709  -10.9684   19.6168 H   0  0  0  0  0  0
  -21.2004   -7.6157   23.9731 H   0  0  0  0  0  0
  -21.1479   -6.0525   25.9086 H   0  0  0  0  0  0
  -22.0601   -2.7624   23.2840 H   0  0  0  0  0  0
  -22.4133  -11.9876   22.4748 H   0  0  0  0  0  0
  -21.1141  -13.1256   22.2588 H   0  0  0  0  0  0
  -24.6856  -15.8479   20.5584 H   0  0  0  0  0  0
  -26.3060  -15.6271   20.1441 H   0  0  0  0  0  0
  -26.7106  -32.5552   23.1130 H   0  0  0  0  0  0
  -25.0050  -33.9767   25.0462 H   0  0  0  0  0  0
  -22.6787  -31.3110   21.4115 H   0  0  0  0  0  0
  -23.3708  -35.9720   23.3298 H   0  0  0  0  0  0
  -24.3582  -36.8965   22.2057 H   0  0  0  0  0  0
  -23.7325  -37.6565   23.6656 H   0  0  0  0  0  0
  -26.0154  -31.6048   20.5720 H   0  0  0  0  0  0
  -26.8117  -30.9135   21.9615 H   0  0  0  0  0  0
  -28.0951  -29.1352   21.1526 H   0  0  0  0  0  0
  -26.0823  -25.9921   18.9957 H   0  0  0  0  0  0
  -23.9790  -27.2949   19.0428 H   0  0  0  0  0  0
  -23.6912  -30.5982   19.4009 H   0  0  0  0  0  0
  -22.7195  -29.2414   19.8812 H   0  0  0  0  0  0
  -25.1247  -36.1915   25.0831 H   0  0  0  0  0  0
  -20.9937  -28.3258   24.1409 H   0  0  0  0  0  0
  -20.5775  -26.2269   23.3584 H   0  0  0  0  0  0
  -21.6631  -26.7475   22.1140 H   0  0  0  0  0  0
  -19.6906  -25.6283   21.1228 H   0  0  0  0  0  0
  -19.6621  -27.3158   20.6730 H   0  0  0  0  0  0
  -17.4160  -26.6508   21.4157 H   0  0  0  0  0  0
  -18.0410  -26.0070   22.9160 H   0  0  0  0  0  0
  -19.7936  -30.7268   24.2228 H   0  0  0  0  0  0
  -17.5025  -31.6269   24.5083 H   0  0  0  0  0  0
  -15.5346  -30.2954   23.7669 H   0  0  0  0  0  0
  -15.8674  -28.0775   22.7077 H   0  0  0  0  0  0
  -24.5924  -30.7039   25.7884 H   0  0  0  0  0  0
  -24.9023  -32.2844   26.4941 H   0  0  0  0  0  0
  -25.8186  -30.8862   27.0232 H   0  0  0  0  0  0
  -26.2820  -29.6686   24.1179 H   0  0  0  0  0  0
  -27.4206  -29.7233   25.4449 H   0  0  0  0  0  0
  -27.8593  -30.4282   23.9058 H   0  0  0  0  0  0
  -27.2617  -33.3563   26.2050 H   0  0  0  0  0  0
  -28.3832  -32.6906   25.0296 H   0  0  0  0  0  0
  -28.0725  -31.8424   26.5371 H   0  0  0  0  0  0
  -28.2533  -38.0118   24.7476 H   0  0  0  0  0  0
  -28.1110  -36.2624   24.6254 H   0  0  0  0  0  0
  -27.2293  -37.1418   25.8859 H   0  0  0  0  0  0
  -20.9263  -29.8829   21.6966 H   0  0  0  0  0  0
  -26.0136  -38.2853   24.1422 H   0  0  0  0  0  0
  -32.4820  -17.7841   22.4914 H   0  0  0  0  0  0
  -30.0509  -19.0674   27.3487 H   0  0  0  0  0  0
  -31.0169  -20.2632   26.4979 H   0  0  0  0  0  0
  -31.7545  -18.8006   27.1212 H   0  0  0  0  0  0
  -29.4621  -17.3018   20.7643 H   0  0  0  0  0  0
  -31.1717  -17.0350   20.7323 H   0  0  0  0  0  0
  -28.2999  -18.0077   26.7441 H   0  0  0  0  0  0
  -27.3304  -17.5270   25.4146 H   0  0  0  0  0  0
  -25.7011  -23.8624   22.9245 H   0  0  0  0  0  0
  -24.9733  -22.6723   21.8890 H   0  0  0  0  0  0
  -25.2726  -20.9409   23.6527 H   0  0  0  0  0  0
  -24.2523  -22.2593   24.1491 H   0  0  0  0  0  0
  -26.9893  -21.9821   21.1080 H   0  0  0  0  0  0
  -27.5202  -21.5705   22.7005 H   0  0  0  0  0  0
  -26.0166  -23.2902   25.4655 H   0  0  0  0  0  0
  -27.2372  -22.2274   24.8677 H   0  0  0  0  0  0
  -29.1096  -23.1513   21.9119 H   0  0  0  0  0  0
  -28.1477  -24.0128   23.0825 H   0  0  0  0  0  0
  -24.8911  -21.4258   26.6589 H   0  0  0  0  0  0
  -26.5367  -21.6581   27.1689 H   0  0  0  0  0  0
  -26.7179  -24.8376   21.0598 H   0  0  0  0  0  0
  -27.9538  -24.1642   20.0357 H   0  0  0  0  0  0
  -25.4915  -19.4040   25.3891 H   0  0  0  0  0  0
  -26.1020  -19.2854   27.0188 H   0  0  0  0  0  0
  -29.6486  -25.6513   21.2217 H   0  0  0  0  0  0
  -28.3389  -26.4078   22.0987 H   0  0  0  0  0  0
  -29.1125  -15.0652   21.6578 H   0  0  0  0  0  0
  -27.5984  -19.8470   24.5844 H   0  0  0  0  0  0
  -28.2274  -20.2270   26.0384 H   0  0  0  0  0  0
  1 25  1  0  0  0
  1 30  2  0  0  0
  1 89  1  0  0  0
  2  3  1  0  0  0
  2 25  1  0  0  0
  2 93  1  0  0  0
  2 94  1  0  0  0
  3  4  1  0  0  0
  3 95  1  0  0  0
  3 96  1  0  0  0
  4  5  1  0  0  0
  4 97  1  0  0  0
  4 98  1  0  0  0
  5  6  1  0  0  0
  5 26  1  0  0  0
  5 99  1  0  0  0
  6 25  1  0  0  0
  6100  1  0  0  0
  6101  1  0  0  0
  7  8  2  0  0  0
  7 26  1  0  0  0
  7 29  1  0  0  0
  8  9  1  0  0  0
  8 22  1  0  0  0
  9 10  1  0  0  0
  9 27  2  0  0  0
 10 11  2  0  0  0
 10 15  1  0  0  0
 11 12  1  0  0  0
 11102  1  0  0  0
 12 13  2  0  0  0
 12103  1  0  0  0
 13 14  1  0  0  0
 13 31  1  0  0  0
 14 15  2  0  0  0
 14104  1  0  0  0
 15105  1  0  0  0
 16 17  2  0  0  0
 16 21  1  0  0  0
 16 31  1  0  0  0
 17 18  1  0  0  0
 17106  1  0  0  0
 18 19  2  0  0  0
 18107  1  0  0  0
 19 20  1  0  0  0
 19 24  1  0  0  0
 20 21  2  0  0  0
 20108  1  0  0  0
 21 23  1  0  0  0
 22 28  1  0  0  0
 22 32  2  0  0  0
 26 27  1  0  0  0
 28109  1  0  0  0
 28110  1  0  0  0
 29111  1  0  0  0
 29112  1  0  0  0
 33 34  1  0  0  0
 33 66  1  0  0  0
 33 70  2  0  0  0
 34 36  1  0  0  0
 34 59  1  0  0  0
 34113  1  0  0  0
 35 44  2  0  0  0
 35 45  1  0  0  0
 35 68  1  0  0  0
 36 56  1  0  0  0
 36114  1  0  0  0
 37 39  1  0  0  0
 37 47  1  0  0  0
 37 66  1  0  0  0
 37115  1  0  0  0
 38 43  2  0  0  0
 38 46  1  0  0  0
 38 47  1  0  0  0
 39 64  1  0  0  0
 39 67  2  0  0  0
 40 52  1  0  0  0
 40 53  2  0  0  0
 40 58  1  0  0  0
 41116  1  0  0  0
 41117  1  0  0  0
 41118  1  0  0  0
 41 48  1  0  0  0
 42 43  1  0  0  0
 42 66  1  0  0  0
 42119  1  0  0  0
 42120  1  0  0  0
 43 44  1  0  0  0
 44121  1  0  0  0
 45 46  2  0  0  0
 45122  1  0  0  0
 46123  1  0  0  0
 47124  1  0  0  0
 47125  1  0  0  0
 48 56  1  0  0  0
 48 65  1  0  0  0
 48126  1  0  0  0
 49 50  1  0  0  0
 49 53  1  0  0  0
 49 64  1  0  0  0
 49127  1  0  0  0
 50 51  1  0  0  0
 50128  1  0  0  0
 50129  1  0  0  0
 51 52  1  0  0  0
 51130  1  0  0  0
 51131  1  0  0  0
 52132  1  0  0  0
 52133  1  0  0  0
 53 54  1  0  0  0
 54 55  2  0  0  0
 54134  1  0  0  0
 55 57  1  0  0  0
 55135  1  0  0  0
 56 69  2  0  0  0
 57 58  2  0  0  0
 57136  1  0  0  0
 58137  1  0  0  0
 59 60  1  0  0  0
 59 61  1  0  0  0
 59 62  1  0  0  0
 60138  1  0  0  0
 60139  1  0  0  0
 60140  1  0  0  0
 61141  1  0  0  0
 61142  1  0  0  0
 61143  1  0  0  0
 62144  1  0  0  0
 62145  1  0  0  0
 62146  1  0  0  0
 63 65  1  0  0  0
 63147  1  0  0  0
 63148  1  0  0  0
 63149  1  0  0  0
 64150  1  0  0  0
 65151  1  0  0  0
 68 88  1  0  0  0
 71 72  2  0  0  0
 71 75  1  0  0  0
 71152  1  0  0  0
 72 76  1  0  0  0
 72 78  1  0  0  0
 73 74  1  0  0  0
 73 75  2  0  0  0
 73 77  1  0  0  0
 74 76  2  0  0  0
 74 79  1  0  0  0
 75 91  1  0  0  0
 76 92  1  0  0  0
 77153  1  0  0  0
 77154  1  0  0  0
 77155  1  0  0  0
 78 89  1  0  0  0
 78156  1  0  0  0
 78157  1  0  0  0
 79 90  1  0  0  0
 79158  1  0  0  0
 79159  1  0  0  0
 80 81  1  0  0  0
 80 82  1  0  0  0
 80160  1  0  0  0
 80161  1  0  0  0
 81 83  1  0  0  0
 81162  1  0  0  0
 81163  1  0  0  0
 82 84  1  0  0  0
 82164  1  0  0  0
 82165  1  0  0  0
 83 85  1  0  0  0
 83166  1  0  0  0
 83167  1  0  0  0
 84 86  1  0  0  0
 84168  1  0  0  0
 84169  1  0  0  0
 85 87  1  0  0  0
 85170  1  0  0  0
 85171  1  0  0  0
 86 88  1  0  0  0
 86172  1  0  0  0
 86173  1  0  0  0
 87 90  1  0  0  0
 87174  1  0  0  0
 87175  1  0  0  0
 88176  1  0  0  0
 88177  1  0  0  0
 89178  1  0  0  0
 90179  1  0  0  0
 90180  1  0  0  0
M  CHG  1  90   1
M  ISO  4   1 100  68 101  88 101  89 100
M  END
> <chiral flag>
0

> <version>
0

> <s_m_source_file>
/data/baiqing/PycharmProjects/Reinvent-master-3.2/result/LINK_invent/BTK/process_docking_weight1_custom_sum_contain_oxygen_bond_distance_aromatic_linkinvent_7_9_3/rearranged_h_0026.sdf

> <i_m_source_file_index>
48

> <r_mmod_Potential_Energy-OPLS-2005>
-249.461242675781

> <r_mmod_Stretch_Energy-OPLS-2005>
35.0760040283203

> <r_mmod_Bend_Energy-OPLS-2005>
93.0829772949219

> <r_mmod_Torsional_Energy-OPLS-2005>
247.212738037109

> <r_mmod_Improper_Torsional_Energy-OPLS-2005>
3.6240177154541

> <r_mmod_Van_der_Waal_Energy-OPLS-2005>
151.527420043945

> <r_mmod_Electrostatic_Energy-OPLS-2005>
-325.646270751953

> <r_mmod_Solvation_Energy-OPLS-2005>
-462.215606689453

> <b_mmod_Minimization_Converged-OPLS-2005>
0

> <r_mmod_RMS_Derivative-OPLS-2005>
3.6005711555481

$$$$
48
                    3D
 Structure written by MMmdl.
162170  0  0  1  0            999 V2000
  -30.6186  -14.6297   20.5309 C   0  0  0  0  0  0
  -30.4413  -12.3929   19.4537 C   0  0  0  0  0  0
  -29.5091  -12.5211   18.2279 C   0  0  0  0  0  0
  -28.0301  -12.3617   18.6357 C   0  0  0  0  0  0
  -27.6565  -13.2176   19.8760 C   0  0  2  0  0  0
  -28.7002  -13.0463   21.0023 C   0  0  0  0  0  0
  -25.2516  -13.8136   20.5612 C   0  0  0  0  0  0
  -24.1807  -13.0401   20.9157 C   0  0  0  0  0  0
  -24.6399  -11.6886   20.8742 C   0  0  0  0  0  0
  -23.9070  -10.4276   21.0406 C   0  0  0  0  0  0
  -24.3619   -9.4193   21.9185 C   0  0  0  0  0  0
  -23.6292   -8.2235   22.0759 C   0  0  0  0  0  0
  -22.4280   -8.0273   21.3546 C   0  0  0  0  0  0
  -21.9916   -9.0246   20.4650 C   0  0  0  0  0  0
  -22.7244  -10.2123   20.3053 C   0  0  0  0  0  0
  -21.6849   -6.0729   22.5280 C   0  0  0  0  0  0
  -21.4009   -6.5634   23.8214 C   0  0  0  0  0  0
  -21.3663   -5.6794   24.9182 C   0  0  0  0  0  0
  -21.6044   -4.3057   24.7233 C   0  0  0  0  0  0
  -21.8820   -3.8147   23.4354 C   0  0  0  0  0  0
  -21.9196   -4.6958   22.3404 C   0  0  0  0  0  0
  -22.7833  -13.5197   21.1831 C   0  0  0  0  0  0
  -22.1661   -4.2142   21.0978 F   0  0  0  0  0  0
  -21.5637   -3.4543   25.7745 F   0  0  0  0  0  0
  -30.0197  -13.3991   20.4498 N   0  0  0  0  0  0
  -26.3001  -12.9347   20.3382 N   0  0  0  0  0  0
  -25.9341  -11.6495   20.5814 N   0  0  0  0  0  0
  -22.0487  -12.8198   22.0405 N   0  0  0  0  0  0
  -25.4118  -15.1834   20.3892 N   0  0  0  0  0  0
  -31.7562  -14.8207   20.0886 O   0  0  0  0  0  0
  -21.6639   -6.8874   21.4244 O   0  0  0  0  0  0
  -22.3510  -14.5505   20.6694 O   0  0  0  0  0  0
  -24.6235  -31.8607   23.2010 C   0  0  0  0  0  0
  -25.9084  -32.4791   23.8348 C   0  0  1  0  0  0
  -27.2335  -27.3363   20.1333 C   0  0  0  0  0  0
  -25.5903  -33.8590   24.2286 N   0  0  0  0  0  0
  -23.4181  -30.4799   21.5427 C   0  0  2  0  0  0
  -24.8688  -28.9295   20.1171 C   0  0  0  0  0  0
  -22.7454  -29.4621   22.4944 C   0  0  0  0  0  0
  -18.0281  -28.1380   22.8494 C   0  0  0  0  0  0
  -24.1491  -36.7293   23.2640 C   0  0  0  0  0  0
  -25.9555  -30.7994   21.3669 C   0  0  0  0  0  0
  -26.0338  -29.4242   20.7168 C   0  0  0  0  0  0
  -27.2219  -28.6396   20.7109 C   0  0  0  0  0  0
  -26.0507  -26.8834   19.5123 C   0  0  0  0  0  0
  -24.8776  -27.6647   19.5048 C   0  0  0  0  0  0
  -23.6340  -29.8053   20.1615 C   0  0  0  0  0  0
  -25.4116  -36.3095   24.0335 C   0  0  1  0  0  0
  -20.5881  -28.3683   23.1297 C   0  0  2  0  0  0
  -20.6767  -26.9411   22.5417 C   0  0  0  0  0  0
  -19.5748  -26.6388   21.5209 C   0  0  0  0  0  0
  -18.1923  -26.7928   22.1621 C   0  0  0  0  0  0
  -19.1532  -28.8847   23.2890 C   0  0  0  0  0  0
  -18.9455  -30.1446   23.8912 C   0  0  0  0  0  0
  -17.6456  -30.6590   24.0557 C   0  0  0  0  0  0
  -25.9045  -34.9462   23.5115 C   0  0  0  0  0  0
  -16.5349  -29.9091   23.6327 C   0  0  0  0  0  0
  -16.7268  -28.6503   23.0364 C   0  0  0  0  0  0
  -26.4484  -31.6589   25.0705 C   0  0  0  0  0  0
  -25.3727  -31.3701   26.1433 C   0  0  0  0  0  0
  -27.0322  -30.3026   24.6122 C   0  0  0  0  0  0
  -27.6052  -32.4309   25.7476 C   0  0  0  0  0  0
  -27.5591  -37.1795   24.8463 C   0  0  0  0  0  0
  -21.4174  -29.3036   22.3687 N   0  0  0  0  0  0
  -26.4299  -37.3788   23.9414 N   0  0  0  0  0  0
  -24.6841  -31.0634   22.0947 N   0  0  0  0  0  0
  -23.4186  -28.8160   23.3017 O   0  0  0  0  0  0
  -28.3664  -26.5198   20.1380 O   0  0  0  0  0  0
  -26.5618  -34.8922   22.4682 O   0  0  0  0  0  0
  -23.5400  -32.1380   23.7351 O   0  0  0  0  0  0
  -30.7330  -17.8569   20.1112 C   0  0  0  0  0  0
  -30.5355  -19.2492   19.8492 C   0  0  0  0  0  0
  -29.3309  -19.9327   20.2200 C   0  0  0  0  0  0
  -28.3878  -19.1595   20.9667 C   0  0  0  0  0  0
  -29.7692  -17.0763   20.7953 C   0  0  0  0  0  0
  -28.6283  -17.7782   21.2672 C   0  0  0  0  0  0
  -31.6490  -19.9737   19.1079 C   0  0  0  0  0  0
  -27.0712  -19.7680   21.4417 C   0  0  0  0  0  0
  -30.3615  -24.3472   19.4767 C   0  0  0  0  0  0
  -28.9958  -21.3783   19.6587 C   0  0  0  0  0  0
  -28.2503  -25.1551   20.6951 C   0  0  0  0  0  0
  -28.9239  -23.9605   19.8801 C   0  0  2  0  0  0
  -29.8419  -15.6338   21.0372 N   0  0  0  0  0  0
  -28.9360  -22.5915   20.5646 N   0  3  0  0  0  0
  -27.4835  -16.9029   22.2288 Cl  0  0  0  0  0  0
  -31.4819  -12.5244   19.1507 H   0  0  0  0  0  0
  -30.3799  -11.3918   19.8829 H   0  0  0  0  0  0
  -29.7701  -11.7756   17.4755 H   0  0  0  0  0  0
  -29.6557  -13.4945   17.7576 H   0  0  0  0  0  0
  -27.8593  -11.3061   18.8493 H   0  0  0  0  0  0
  -27.3791  -12.6108   17.7967 H   0  0  0  0  0  0
  -27.6813  -14.2595   19.5558 H   0  0  0  0  0  0
  -28.7105  -12.0149   21.3575 H   0  0  0  0  0  0
  -28.4404  -13.6514   21.8714 H   0  0  0  0  0  0
  -25.2758   -9.5663   22.4770 H   0  0  0  0  0  0
  -23.9995   -7.4623   22.7480 H   0  0  0  0  0  0
  -21.0854   -8.8758   19.8956 H   0  0  0  0  0  0
  -22.3699  -10.9662   19.6166 H   0  0  0  0  0  0
  -21.1989   -7.6137   23.9710 H   0  0  0  0  0  0
  -21.1492   -6.0530   25.9084 H   0  0  0  0  0  0
  -22.0598   -2.7610   23.2864 H   0  0  0  0  0  0
  -22.4119  -11.9860   22.4782 H   0  0  0  0  0  0
  -21.1107  -13.1225   22.2618 H   0  0  0  0  0  0
  -24.6526  -15.8376   20.5389 H   0  0  0  0  0  0
  -26.2872  -15.6390   20.1678 H   0  0  0  0  0  0
  -26.7156  -32.5482   23.1103 H   0  0  0  0  0  0
  -25.0046  -33.9745   25.0432 H   0  0  0  0  0  0
  -22.7111  -31.2988   21.3938 H   0  0  0  0  0  0
  -23.3769  -35.9608   23.3286 H   0  0  0  0  0  0
  -24.3584  -36.8928   22.2056 H   0  0  0  0  0  0
  -23.7222  -37.6481   23.6668 H   0  0  0  0  0  0
  -26.0782  -31.5600   20.5942 H   0  0  0  0  0  0
  -26.8391  -30.8572   21.9912 H   0  0  0  0  0  0
  -28.1205  -29.0186   21.1773 H   0  0  0  0  0  0
  -26.0289  -25.9142   19.0342 H   0  0  0  0  0  0
  -23.9848  -27.2817   19.0307 H   0  0  0  0  0  0
  -23.7485  -30.5753   19.3981 H   0  0  0  0  0  0
  -22.7574  -29.2270   19.8643 H   0  0  0  0  0  0
  -25.1298  -36.1949   25.0829 H   0  0  0  0  0  0
  -20.9974  -28.3257   24.1418 H   0  0  0  0  0  0
  -20.5658  -26.2294   23.3609 H   0  0  0  0  0  0
  -21.6637  -26.7433   22.1217 H   0  0  0  0  0  0
  -19.6910  -25.6297   21.1239 H   0  0  0  0  0  0
  -19.6692  -27.3203   20.6741 H   0  0  0  0  0  0
  -17.4192  -26.6682   21.4021 H   0  0  0  0  0  0
  -18.0320  -26.0066   22.9015 H   0  0  0  0  0  0
  -19.7926  -30.7254   24.2304 H   0  0  0  0  0  0
  -17.5010  -31.6274   24.5149 H   0  0  0  0  0  0
  -15.5351  -30.2999   23.7640 H   0  0  0  0  0  0
  -15.8666  -28.0816   22.7101 H   0  0  0  0  0  0
  -24.5911  -30.7048   25.7747 H   0  0  0  0  0  0
  -24.8907  -32.2856   26.4870 H   0  0  0  0  0  0
  -25.8060  -30.8866   27.0196 H   0  0  0  0  0  0
  -26.2880  -29.6777   24.1172 H   0  0  0  0  0  0
  -27.4071  -29.7278   25.4599 H   0  0  0  0  0  0
  -27.8723  -30.4335   23.9298 H   0  0  0  0  0  0
  -27.2681  -33.3615   26.2052 H   0  0  0  0  0  0
  -28.3865  -32.6854   25.0304 H   0  0  0  0  0  0
  -28.0710  -31.8424   26.5388 H   0  0  0  0  0  0
  -28.2589  -38.0112   24.7546 H   0  0  0  0  0  0
  -28.1110  -36.2645   24.6255 H   0  0  0  0  0  0
  -27.2305  -37.1400   25.8863 H   0  0  0  0  0  0
  -20.9342  -29.8767   21.6908 H   0  0  0  0  0  0
  -26.0183  -38.2863   24.1429 H   0  0  0  0  0  0
  -31.6388  -17.3832   19.7608 H   0  0  0  0  0  0
  -32.5987  -19.4465   19.2117 H   0  0  0  0  0  0
  -31.8041  -20.9797   19.4998 H   0  0  0  0  0  0
  -31.4211  -20.0431   18.0435 H   0  0  0  0  0  0
  -26.8950  -20.7828   21.0949 H   0  0  0  0  0  0
  -27.0384  -19.7874   22.5316 H   0  0  0  0  0  0
  -26.2302  -19.1654   21.0956 H   0  0  0  0  0  0
  -30.3724  -25.2756   18.9052 H   0  0  0  0  0  0
  -30.8346  -23.5887   18.8531 H   0  0  0  0  0  0
  -30.9937  -24.4968   20.3530 H   0  0  0  0  0  0
  -28.0375  -21.3094   19.1422 H   0  0  0  0  0  0
  -29.6889  -21.6043   18.8520 H   0  0  0  0  0  0
  -28.7153  -25.1995   21.6810 H   0  0  0  0  0  0
  -27.2069  -24.9062   20.8936 H   0  0  0  0  0  0
  -28.3367  -23.8554   18.9666 H   0  0  0  0  0  0
  -29.0132  -15.2800   21.4928 H   0  0  0  0  0  0
  -29.7127  -22.5493   21.2056 H   0  0  0  0  0  0
  -28.0990  -22.4963   21.1182 H   0  0  0  0  0  0
  1 25  1  0  0  0
  1 30  2  0  0  0
  1 83  1  0  0  0
  2  3  1  0  0  0
  2 25  1  0  0  0
  2 86  1  0  0  0
  2 87  1  0  0  0
  3  4  1  0  0  0
  3 88  1  0  0  0
  3 89  1  0  0  0
  4  5  1  0  0  0
  4 90  1  0  0  0
  4 91  1  0  0  0
  5  6  1  0  0  0
  5 26  1  0  0  0
  5 92  1  0  0  0
  6 25  1  0  0  0
  6 93  1  0  0  0
  6 94  1  0  0  0
  7  8  2  0  0  0
  7 26  1  0  0  0
  7 29  1  0  0  0
  8  9  1  0  0  0
  8 22  1  0  0  0
  9 10  1  0  0  0
  9 27  2  0  0  0
 10 11  2  0  0  0
 10 15  1  0  0  0
 11 12  1  0  0  0
 11 95  1  0  0  0
 12 13  2  0  0  0
 12 96  1  0  0  0
 13 14  1  0  0  0
 13 31  1  0  0  0
 14 15  2  0  0  0
 14 97  1  0  0  0
 15 98  1  0  0  0
 16 17  2  0  0  0
 16 21  1  0  0  0
 16 31  1  0  0  0
 17 18  1  0  0  0
 17 99  1  0  0  0
 18 19  2  0  0  0
 18100  1  0  0  0
 19 20  1  0  0  0
 19 24  1  0  0  0
 20 21  2  0  0  0
 20101  1  0  0  0
 21 23  1  0  0  0
 22 28  1  0  0  0
 22 32  2  0  0  0
 26 27  1  0  0  0
 28102  1  0  0  0
 28103  1  0  0  0
 29104  1  0  0  0
 29105  1  0  0  0
 33 34  1  0  0  0
 33 66  1  0  0  0
 33 70  2  0  0  0
 34 36  1  0  0  0
 34 59  1  0  0  0
 34106  1  0  0  0
 35 44  2  0  0  0
 35 45  1  0  0  0
 35 68  1  0  0  0
 36 56  1  0  0  0
 36107  1  0  0  0
 37 39  1  0  0  0
 37 47  1  0  0  0
 37 66  1  0  0  0
 37108  1  0  0  0
 38 43  2  0  0  0
 38 46  1  0  0  0
 38 47  1  0  0  0
 39 64  1  0  0  0
 39 67  2  0  0  0
 40 52  1  0  0  0
 40 53  2  0  0  0
 40 58  1  0  0  0
 41109  1  0  0  0
 41110  1  0  0  0
 41111  1  0  0  0
 41 48  1  0  0  0
 42 43  1  0  0  0
 42 66  1  0  0  0
 42112  1  0  0  0
 42113  1  0  0  0
 43 44  1  0  0  0
 44114  1  0  0  0
 45 46  2  0  0  0
 45115  1  0  0  0
 46116  1  0  0  0
 47117  1  0  0  0
 47118  1  0  0  0
 48 56  1  0  0  0
 48 65  1  0  0  0
 48119  1  0  0  0
 49 50  1  0  0  0
 49 53  1  0  0  0
 49 64  1  0  0  0
 49120  1  0  0  0
 50 51  1  0  0  0
 50121  1  0  0  0
 50122  1  0  0  0
 51 52  1  0  0  0
 51123  1  0  0  0
 51124  1  0  0  0
 52125  1  0  0  0
 52126  1  0  0  0
 53 54  1  0  0  0
 54 55  2  0  0  0
 54127  1  0  0  0
 55 57  1  0  0  0
 55128  1  0  0  0
 56 69  2  0  0  0
 57 58  2  0  0  0
 57129  1  0  0  0
 58130  1  0  0  0
 59 60  1  0  0  0
 59 61  1  0  0  0
 59 62  1  0  0  0
 60131  1  0  0  0
 60132  1  0  0  0
 60133  1  0  0  0
 61134  1  0  0  0
 61135  1  0  0  0
 61136  1  0  0  0
 62137  1  0  0  0
 62138  1  0  0  0
 62139  1  0  0  0
 63 65  1  0  0  0
 63140  1  0  0  0
 63141  1  0  0  0
 63142  1  0  0  0
 64143  1  0  0  0
 65144  1  0  0  0
 68 81  1  0  0  0
 71 72  2  0  0  0
 71 75  1  0  0  0
 71145  1  0  0  0
 72 73  1  0  0  0
 72 77  1  0  0  0
 73 74  2  0  0  0
 73 80  1  0  0  0
 74 76  1  0  0  0
 74 78  1  0  0  0
 75 76  2  0  0  0
 75 83  1  0  0  0
 76 85  1  0  0  0
 77146  1  0  0  0
 77147  1  0  0  0
 77148  1  0  0  0
 78149  1  0  0  0
 78150  1  0  0  0
 78151  1  0  0  0
 79152  1  0  0  0
 79153  1  0  0  0
 79154  1  0  0  0
 79 82  1  0  0  0
 80 84  1  0  0  0
 80155  1  0  0  0
 80156  1  0  0  0
 81 82  1  0  0  0
 81157  1  0  0  0
 81158  1  0  0  0
 82 84  1  0  0  0
 82159  1  0  0  0
 83160  1  0  0  0
 84161  1  0  0  0
 84162  1  0  0  0
M  CHG  1  84   1
M  ISO  4   1 100  68 101  81 101  83 100
M  END
> <chiral flag>
0

> <version>
0

> <s_m_source_file>
/data/baiqing/PycharmProjects/Reinvent-master-3.2/result/LINK_invent/BTK/process_docking_weight1_custom_sum_contain_oxygen_bond_distance_aromatic_linkinvent_7_9_3/rearranged_h_0026.sdf

> <i_m_source_file_index>
49

> <r_mmod_Potential_Energy-OPLS-2005>
-81.4346313476562

> <r_mmod_Stretch_Energy-OPLS-2005>
81.0663681030273

> <r_mmod_Bend_Energy-OPLS-2005>
139.777770996094

> <r_mmod_Torsional_Energy-OPLS-2005>
236.088500976562

> <r_mmod_Improper_Torsional_Energy-OPLS-2005>
4.25002670288086

> <r_mmod_Van_der_Waal_Energy-OPLS-2005>
143.389785766602

> <r_mmod_Electrostatic_Energy-OPLS-2005>
-278.970611572266

> <r_mmod_Solvation_Energy-OPLS-2005>
-448.036163330078

> <b_mmod_Minimization_Converged-OPLS-2005>
0

> <r_mmod_RMS_Derivative-OPLS-2005>
1.31279218196869

$$$$
49
                    3D
 Structure written by MMmdl.
186194  0  0  1  0            999 V2000
  -30.7487  -14.5146   20.4794 C   0  0  0  0  0  0
  -30.3936  -12.3101   19.4264 C   0  0  0  0  0  0
  -29.4816  -12.4595   18.1917 C   0  0  0  0  0  0
  -28.0048  -12.2976   18.6030 C   0  0  0  0  0  0
  -27.6351  -13.1823   19.8161 C   0  0  2  0  0  0
  -28.6908  -13.0670   20.9522 C   0  0  0  0  0  0
  -25.2510  -13.8079   20.5617 C   0  0  0  0  0  0
  -24.1792  -13.0409   20.9165 C   0  0  0  0  0  0
  -24.6323  -11.6854   20.8657 C   0  0  0  0  0  0
  -23.8973  -10.4280   21.0354 C   0  0  0  0  0  0
  -24.3531   -9.4229   21.9165 C   0  0  0  0  0  0
  -23.6265   -8.2240   22.0716 C   0  0  0  0  0  0
  -22.4261   -8.0252   21.3506 C   0  0  0  0  0  0
  -21.9852   -9.0200   20.4610 C   0  0  0  0  0  0
  -22.7137  -10.2102   20.3032 C   0  0  0  0  0  0
  -21.6891   -6.0723   22.5253 C   0  0  0  0  0  0
  -21.4075   -6.5623   23.8198 C   0  0  0  0  0  0
  -21.3628   -5.6757   24.9123 C   0  0  0  0  0  0
  -21.6037   -4.3026   24.7199 C   0  0  0  0  0  0
  -21.8834   -3.8144   23.4319 C   0  0  0  0  0  0
  -21.9210   -4.6949   22.3381 C   0  0  0  0  0  0
  -22.7794  -13.5177   21.1828 C   0  0  0  0  0  0
  -22.1666   -4.2118   21.0967 F   0  0  0  0  0  0
  -21.5566   -3.4511   25.7709 F   0  0  0  0  0  0
  -30.0099  -13.3675   20.3872 N   0  0  0  0  0  0
  -26.2883  -12.9220   20.3102 N   0  0  0  0  0  0
  -25.9224  -11.6412   20.5671 N   0  0  0  0  0  0
  -22.0420  -12.8226   22.0427 N   0  0  0  0  0  0
  -25.4227  -15.1830   20.4122 N   0  0  0  0  0  0
  -31.9185  -14.4888   20.0954 O   0  0  0  0  0  0
  -21.6658   -6.8833   21.4214 O   0  0  0  0  0  0
  -22.3460  -14.5479   20.6628 O   0  0  0  0  0  0
  -24.6123  -31.8675   23.2075 C   0  0  0  0  0  0
  -25.9023  -32.4815   23.8372 C   0  0  1  0  0  0
  -27.2331  -27.4504   20.1077 C   0  0  0  0  0  0
  -25.5898  -33.8610   24.2303 N   0  0  0  0  0  0
  -23.4003  -30.4912   21.5474 C   0  0  2  0  0  0
  -24.8472  -28.9526   20.1198 C   0  0  0  0  0  0
  -22.7400  -29.4655   22.4986 C   0  0  0  0  0  0
  -18.0300  -28.1368   22.8499 C   0  0  0  0  0  0
  -24.1491  -36.7312   23.2641 C   0  0  0  0  0  0
  -25.9271  -30.8402   21.3587 C   0  0  0  0  0  0
  -26.0024  -29.4715   20.7192 C   0  0  0  0  0  0
  -27.2011  -28.7249   20.7110 C   0  0  0  0  0  0
  -26.0675  -26.9405   19.5026 C   0  0  0  0  0  0
  -24.8720  -27.6837   19.5111 C   0  0  0  0  0  0
  -23.6081  -29.8168   20.1644 C   0  0  0  0  0  0
  -25.4116  -36.3097   24.0329 C   0  0  1  0  0  0
  -20.5888  -28.3658   23.1325 C   0  0  2  0  0  0
  -20.6795  -26.9399   22.5429 C   0  0  0  0  0  0
  -19.5759  -26.6383   21.5223 C   0  0  0  0  0  0
  -18.1939  -26.7923   22.1632 C   0  0  0  0  0  0
  -19.1547  -28.8837   23.2920 C   0  0  0  0  0  0
  -18.9460  -30.1455   23.8907 C   0  0  0  0  0  0
  -17.6454  -30.6579   24.0573 C   0  0  0  0  0  0
  -25.9030  -34.9469   23.5117 C   0  0  0  0  0  0
  -16.5349  -29.9076   23.6333 C   0  0  0  0  0  0
  -16.7292  -28.6497   23.0351 C   0  0  0  0  0  0
  -26.4458  -31.6603   25.0701 C   0  0  0  0  0  0
  -25.3733  -31.3708   26.1454 C   0  0  0  0  0  0
  -27.0265  -30.3044   24.6044 C   0  0  0  0  0  0
  -27.6042  -32.4318   25.7455 C   0  0  0  0  0  0
  -27.5584  -37.1803   24.8463 C   0  0  0  0  0  0
  -21.4139  -29.3006   22.3699 N   0  0  0  0  0  0
  -26.4299  -37.3784   23.9402 N   0  0  0  0  0  0
  -24.6645  -31.0805   22.0967 N   0  0  0  0  0  0
  -23.4170  -28.8216   23.3039 O   0  0  0  0  0  0
  -28.4033  -26.7384   20.0273 O   0  0  0  0  0  0
  -26.5606  -34.8925   22.4677 O   0  0  0  0  0  0
  -23.5321  -32.1408   23.7495 O   0  0  0  0  0  0
  -30.7881  -17.0019   19.8561 C   0  0  0  0  0  0
  -29.7759  -17.1651   18.7062 C   0  0  0  0  0  0
  -28.7692  -16.2553   21.2061 C   0  0  0  0  0  0
  -30.2699  -15.9563   20.8927 C   0  0  2  0  0  0
  -28.4852  -17.8663   19.1782 C   0  0  2  0  0  0
  -28.1813  -17.5942   20.6819 C   0  0  2  0  0  0
  -27.3962  -17.9637   16.8195 C   0  0  0  0  0  0
  -26.4371  -19.8741   21.2491 C   0  0  0  0  0  0
  -28.6558  -19.2207   24.5233 C   0  0  0  0  0  0
  -28.7138  -21.6218   25.0584 C   0  0  0  0  0  0
  -26.5479  -20.5682   24.4053 C   0  0  0  0  0  0
  -27.2752  -17.5037   18.2825 C   0  0  0  0  0  0
  -28.0500  -24.4506   20.9048 C   0  0  0  0  0  0
  -28.7986  -23.2849   21.6181 C   0  0  0  0  0  0
  -28.6882  -25.8460   21.1092 C   0  0  0  0  0  0
  -27.9637  -19.9953   21.4470 C   0  0  1  0  0  0
  -28.3995  -20.9708   22.6027 C   0  0  2  0  0  0
  -28.0640  -20.5896   24.1038 C   0  0  0  0  0  0
  -28.6034  -18.6784   21.5666 N   0  0  0  0  0  0
  -27.8859  -22.3333   22.2992 N   0  3  0  0  0  0
  -31.4425  -12.3305   19.1268 H   0  0  0  0  0  0
  -30.2617  -11.3284   19.8797 H   0  0  0  0  0  0
  -29.7453  -11.7200   17.4349 H   0  0  0  0  0  0
  -29.6348  -13.4360   17.7300 H   0  0  0  0  0  0
  -27.8407  -11.2480   18.8425 H   0  0  0  0  0  0
  -27.3573  -12.5086   17.7522 H   0  0  0  0  0  0
  -27.6281  -14.1733   19.3755 H   0  0  0  0  0  0
  -28.6914  -12.0520   21.3536 H   0  0  0  0  0  0
  -28.4629  -13.7015   21.8048 H   0  0  0  0  0  0
  -25.2642   -9.5748   22.4744 H   0  0  0  0  0  0
  -23.9993   -7.4651   22.7441 H   0  0  0  0  0  0
  -21.0775   -8.8738   19.8911 H   0  0  0  0  0  0
  -22.3605  -10.9646   19.6156 H   0  0  0  0  0  0
  -21.2153   -7.6142   23.9720 H   0  0  0  0  0  0
  -21.1406   -6.0451   25.9024 H   0  0  0  0  0  0
  -22.0658   -2.7619   23.2817 H   0  0  0  0  0  0
  -22.4045  -11.9922   22.4876 H   0  0  0  0  0  0
  -21.1028  -13.1175   22.2677 H   0  0  0  0  0  0
  -24.6658  -15.8349   20.5866 H   0  0  0  0  0  0
  -26.2934  -15.6342   20.1737 H   0  0  0  0  0  0
  -26.7106  -32.5520   23.1151 H   0  0  0  0  0  0
  -25.0017  -33.9754   25.0431 H   0  0  0  0  0  0
  -22.6899  -31.3093   21.4058 H   0  0  0  0  0  0
  -23.3724  -35.9669   23.3297 H   0  0  0  0  0  0
  -24.3587  -36.8921   22.2054 H   0  0  0  0  0  0
  -23.7269  -37.6528   23.6658 H   0  0  0  0  0  0
  -26.0349  -31.6009   20.5840 H   0  0  0  0  0  0
  -26.8182  -30.8968   21.9715 H   0  0  0  0  0  0
  -28.1006  -29.1250   21.1544 H   0  0  0  0  0  0
  -26.0937  -25.9754   19.0152 H   0  0  0  0  0  0
  -23.9834  -27.2744   19.0457 H   0  0  0  0  0  0
  -23.7128  -30.5854   19.3986 H   0  0  0  0  0  0
  -22.7335  -29.2316   19.8724 H   0  0  0  0  0  0
  -25.1290  -36.1938   25.0820 H   0  0  0  0  0  0
  -21.0019  -28.3215   24.1421 H   0  0  0  0  0  0
  -20.5706  -26.2240   23.3604 H   0  0  0  0  0  0
  -21.6658  -26.7433   22.1189 H   0  0  0  0  0  0
  -19.6891  -25.6288   21.1243 H   0  0  0  0  0  0
  -19.6693  -27.3209   20.6759 H   0  0  0  0  0  0
  -17.4216  -26.6717   21.4032 H   0  0  0  0  0  0
  -18.0310  -26.0072   22.9024 H   0  0  0  0  0  0
  -19.7944  -30.7320   24.2210 H   0  0  0  0  0  0
  -17.5005  -31.6247   24.5200 H   0  0  0  0  0  0
  -15.5348  -30.2974   23.7647 H   0  0  0  0  0  0
  -15.8704  -28.0836   22.7009 H   0  0  0  0  0  0
  -24.5890  -30.7068   25.7792 H   0  0  0  0  0  0
  -24.8945  -32.2865   26.4928 H   0  0  0  0  0  0
  -25.8092  -30.8851   27.0189 H   0  0  0  0  0  0
  -26.2769  -29.6822   24.1121 H   0  0  0  0  0  0
  -27.4067  -29.7266   25.4481 H   0  0  0  0  0  0
  -27.8605  -30.4366   23.9139 H   0  0  0  0  0  0
  -27.2651  -33.3598   26.2069 H   0  0  0  0  0  0
  -28.3823  -32.6899   25.0261 H   0  0  0  0  0  0
  -28.0736  -31.8413   26.5333 H   0  0  0  0  0  0
  -28.2595  -38.0111   24.7507 H   0  0  0  0  0  0
  -28.1077  -36.2628   24.6271 H   0  0  0  0  0  0
  -27.2297  -37.1446   25.8870 H   0  0  0  0  0  0
  -20.9278  -29.8666   21.6894 H   0  0  0  0  0  0
  -26.0159  -38.2842   24.1419 H   0  0  0  0  0  0
  -30.9712  -17.9591   20.3470 H   0  0  0  0  0  0
  -31.7615  -16.7439   19.4328 H   0  0  0  0  0  0
  -29.5392  -16.1774   18.3001 H   0  0  0  0  0  0
  -30.2111  -17.7374   17.8862 H   0  0  0  0  0  0
  -28.5851  -16.1300   22.2731 H   0  0  0  0  0  0
  -28.1385  -15.5274   20.7441 H   0  0  0  0  0  0
  -30.8165  -16.1466   21.8182 H   0  0  0  0  0  0
  -28.6446  -18.9354   19.0448 H   0  0  0  0  0  0
  -27.1028  -17.4974   20.8133 H   0  0  0  0  0  0
  -26.4464  -17.8213   16.3011 H   0  0  0  0  0  0
  -28.1538  -17.3942   16.2805 H   0  0  0  0  0  0
  -27.6445  -19.0238   16.7488 H   0  0  0  0  0  0
  -25.9097  -20.7998   21.4647 H   0  0  0  0  0  0
  -26.0055  -19.0899   21.8745 H   0  0  0  0  0  0
  -26.1907  -19.6340   20.2141 H   0  0  0  0  0  0
  -28.5652  -19.0493   25.5966 H   0  0  0  0  0  0
  -29.7144  -19.1443   24.2735 H   0  0  0  0  0  0
  -28.1421  -18.3849   24.0514 H   0  0  0  0  0  0
  -28.5918  -21.3253   26.1026 H   0  0  0  0  0  0
  -28.2813  -22.6172   24.9727 H   0  0  0  0  0  0
  -29.7852  -21.7216   24.8840 H   0  0  0  0  0  0
  -26.3551  -20.3531   25.4538 H   0  0  0  0  0  0
  -26.0242  -19.7945   23.8554 H   0  0  0  0  0  0
  -26.0566  -21.5127   24.1787 H   0  0  0  0  0  0
  -26.3792  -17.9647   18.6965 H   0  0  0  0  0  0
  -27.0926  -16.4281   18.3148 H   0  0  0  0  0  0
  -27.0021  -24.4970   21.2009 H   0  0  0  0  0  0
  -28.0356  -24.2333   19.8373 H   0  0  0  0  0  0
  -29.5041  -23.6701   22.3562 H   0  0  0  0  0  0
  -29.3904  -22.7540   20.8708 H   0  0  0  0  0  0
  -29.7734  -25.7546   21.1523 H   0  0  0  0  0  0
  -28.3818  -26.2792   22.0638 H   0  0  0  0  0  0
  -28.3641  -20.4374   20.5314 H   0  0  0  0  0  0
  -29.4894  -21.0258   22.5420 H   0  0  0  0  0  0
  -29.6134  -18.7447   21.6208 H   0  0  0  0  0  0
  -27.0508  -22.2137   21.7499 H   0  0  0  0  0  0
  -27.6259  -22.7399   23.1835 H   0  0  0  0  0  0
  1 25  1  0  0  0
  1 30  2  0  0  0
  1 74  1  0  0  0
  2  3  1  0  0  0
  2 25  1  0  0  0
  2 91  1  0  0  0
  2 92  1  0  0  0
  3  4  1  0  0  0
  3 93  1  0  0  0
  3 94  1  0  0  0
  4  5  1  0  0  0
  4 95  1  0  0  0
  4 96  1  0  0  0
  5  6  1  0  0  0
  5 26  1  0  0  0
  5 97  1  0  0  0
  6 25  1  0  0  0
  6 98  1  0  0  0
  6 99  1  0  0  0
  7  8  2  0  0  0
  7 26  1  0  0  0
  7 29  1  0  0  0
  8  9  1  0  0  0
  8 22  1  0  0  0
  9 10  1  0  0  0
  9 27  2  0  0  0
 10 11  2  0  0  0
 10 15  1  0  0  0
 11 12  1  0  0  0
 11100  1  0  0  0
 12 13  2  0  0  0
 12101  1  0  0  0
 13 14  1  0  0  0
 13 31  1  0  0  0
 14 15  2  0  0  0
 14102  1  0  0  0
 15103  1  0  0  0
 16 17  2  0  0  0
 16 21  1  0  0  0
 16 31  1  0  0  0
 17 18  1  0  0  0
 17104  1  0  0  0
 18 19  2  0  0  0
 18105  1  0  0  0
 19 20  1  0  0  0
 19 24  1  0  0  0
 20 21  2  0  0  0
 20106  1  0  0  0
 21 23  1  0  0  0
 22 28  1  0  0  0
 22 32  2  0  0  0
 26 27  1  0  0  0
 28107  1  0  0  0
 28108  1  0  0  0
 29109  1  0  0  0
 29110  1  0  0  0
 33 34  1  0  0  0
 33 66  1  0  0  0
 33 70  2  0  0  0
 34 36  1  0  0  0
 34 59  1  0  0  0
 34111  1  0  0  0
 35 44  2  0  0  0
 35 45  1  0  0  0
 35 68  1  0  0  0
 36 56  1  0  0  0
 36112  1  0  0  0
 37 39  1  0  0  0
 37 47  1  0  0  0
 37 66  1  0  0  0
 37113  1  0  0  0
 38 43  2  0  0  0
 38 46  1  0  0  0
 38 47  1  0  0  0
 39 64  1  0  0  0
 39 67  2  0  0  0
 40 52  1  0  0  0
 40 53  2  0  0  0
 40 58  1  0  0  0
 41114  1  0  0  0
 41115  1  0  0  0
 41116  1  0  0  0
 41 48  1  0  0  0
 42 43  1  0  0  0
 42 66  1  0  0  0
 42117  1  0  0  0
 42118  1  0  0  0
 43 44  1  0  0  0
 44119  1  0  0  0
 45 46  2  0  0  0
 45120  1  0  0  0
 46121  1  0  0  0
 47122  1  0  0  0
 47123  1  0  0  0
 48 56  1  0  0  0
 48 65  1  0  0  0
 48124  1  0  0  0
 49 50  1  0  0  0
 49 53  1  0  0  0
 49 64  1  0  0  0
 49125  1  0  0  0
 50 51  1  0  0  0
 50126  1  0  0  0
 50127  1  0  0  0
 51 52  1  0  0  0
 51128  1  0  0  0
 51129  1  0  0  0
 52130  1  0  0  0
 52131  1  0  0  0
 53 54  1  0  0  0
 54 55  2  0  0  0
 54132  1  0  0  0
 55 57  1  0  0  0
 55133  1  0  0  0
 56 69  2  0  0  0
 57 58  2  0  0  0
 57134  1  0  0  0
 58135  1  0  0  0
 59 60  1  0  0  0
 59 61  1  0  0  0
 59 62  1  0  0  0
 60136  1  0  0  0
 60137  1  0  0  0
 60138  1  0  0  0
 61139  1  0  0  0
 61140  1  0  0  0
 61141  1  0  0  0
 62142  1  0  0  0
 62143  1  0  0  0
 62144  1  0  0  0
 63 65  1  0  0  0
 63145  1  0  0  0
 63146  1  0  0  0
 63147  1  0  0  0
 64148  1  0  0  0
 65149  1  0  0  0
 68 85  1  0  0  0
 71 72  1  0  0  0
 71 74  1  0  0  0
 71150  1  0  0  0
 71151  1  0  0  0
 72 75  1  0  0  0
 72152  1  0  0  0
 72153  1  0  0  0
 73 74  1  0  0  0
 73 76  1  0  0  0
 73154  1  0  0  0
 73155  1  0  0  0
 74156  1  0  0  0
 75 76  1  0  0  0
 75 82  1  0  0  0
 75157  1  0  0  0
 76 89  1  0  0  0
 76158  1  0  0  0
 77 82  1  0  0  0
 77159  1  0  0  0
 77160  1  0  0  0
 77161  1  0  0  0
 78162  1  0  0  0
 78163  1  0  0  0
 78164  1  0  0  0
 78 86  1  0  0  0
 79165  1  0  0  0
 79166  1  0  0  0
 79167  1  0  0  0
 79 88  1  0  0  0
 80 88  1  0  0  0
 80168  1  0  0  0
 80169  1  0  0  0
 80170  1  0  0  0
 81 88  1  0  0  0
 81171  1  0  0  0
 81172  1  0  0  0
 81173  1  0  0  0
 82174  1  0  0  0
 82175  1  0  0  0
 83 84  1  0  0  0
 83 85  1  0  0  0
 83176  1  0  0  0
 83177  1  0  0  0
 84 90  1  0  0  0
 84178  1  0  0  0
 84179  1  0  0  0
 85180  1  0  0  0
 85181  1  0  0  0
 86 87  1  0  0  0
 86 89  1  0  0  0
 86182  1  0  0  0
 87 88  1  0  0  0
 87 90  1  0  0  0
 87183  1  0  0  0
 89184  1  0  0  0
 90185  1  0  0  0
 90186  1  0  0  0
M  CHG  1  90   1
M  ISO  4   1 100  68 101  74 100  85 101
M  END
> <chiral flag>
0

> <version>
0

> <s_m_source_file>
/data/baiqing/PycharmProjects/Reinvent-master-3.2/result/LINK_invent/BTK/process_docking_weight1_custom_sum_contain_oxygen_bond_distance_aromatic_linkinvent_7_9_3/rearranged_h_0026.sdf

> <i_m_source_file_index>
50

> <r_mmod_Potential_Energy-OPLS-2005>
70.8143539428711

> <r_mmod_Stretch_Energy-OPLS-2005>
49.7950248718262

> <r_mmod_Bend_Energy-OPLS-2005>
172.884765625

> <r_mmod_Torsional_Energy-OPLS-2005>
333.889831542969

> <r_mmod_Improper_Torsional_Energy-OPLS-2005>
2.82868671417236

> <r_mmod_Van_der_Waal_Energy-OPLS-2005>
154.310455322266

> <r_mmod_Electrostatic_Energy-OPLS-2005>
-257.994964599609

> <r_mmod_Solvation_Energy-OPLS-2005>
-410.456634521484

> <b_mmod_Minimization_Converged-OPLS-2005>
0

> <r_mmod_RMS_Derivative-OPLS-2005>
5.97570610046387

$$$$
50
                    3D
 Structure written by MMmdl.
162170  0  0  1  0            999 V2000
  -30.6522  -14.5316   20.5103 C   0  0  0  0  0  0
  -30.4236  -12.3402   19.3863 C   0  0  0  0  0  0
  -29.4800  -12.5705   18.1870 C   0  0  0  0  0  0
  -28.0053  -12.4122   18.6016 C   0  0  0  0  0  0
  -27.6676  -13.2051   19.8948 C   0  0  2  0  0  0
  -28.7259  -12.9472   20.9908 C   0  0  0  0  0  0
  -25.2655  -13.8119   20.5708 C   0  0  0  0  0  0
  -24.1895  -13.0442   20.9182 C   0  0  0  0  0  0
  -24.6432  -11.6905   20.8765 C   0  0  0  0  0  0
  -23.9057  -10.4309   21.0413 C   0  0  0  0  0  0
  -24.3623   -9.4239   21.9200 C   0  0  0  0  0  0
  -23.6311   -8.2256   22.0770 C   0  0  0  0  0  0
  -22.4300   -8.0277   21.3560 C   0  0  0  0  0  0
  -21.9923   -9.0236   20.4666 C   0  0  0  0  0  0
  -22.7230  -10.2116   20.3077 C   0  0  0  0  0  0
  -21.6825   -6.0795   22.5313 C   0  0  0  0  0  0
  -21.3932   -6.5665   23.8228 C   0  0  0  0  0  0
  -21.3627   -5.6830   24.9178 C   0  0  0  0  0  0
  -21.6047   -4.3111   24.7245 C   0  0  0  0  0  0
  -21.8812   -3.8210   23.4358 C   0  0  0  0  0  0
  -21.9201   -4.7017   22.3401 C   0  0  0  0  0  0
  -22.7903  -13.5256   21.1865 C   0  0  0  0  0  0
  -22.1680   -4.2226   21.1015 F   0  0  0  0  0  0
  -21.5626   -3.4586   25.7753 F   0  0  0  0  0  0
  -30.0455  -13.3062   20.4375 N   0  0  0  0  0  0
  -26.3111  -12.9278   20.3550 N   0  0  0  0  0  0
  -25.9359  -11.6438   20.5833 N   0  0  0  0  0  0
  -22.0562  -12.8194   22.0371 N   0  0  0  0  0  0
  -25.4476  -15.1813   20.4100 N   0  0  0  0  0  0
  -31.7558  -14.7525   20.0015 O   0  0  0  0  0  0
  -21.6633   -6.8902   21.4262 O   0  0  0  0  0  0
  -22.3648  -14.5649   20.6821 O   0  0  0  0  0  0
  -24.6086  -31.8755   23.2223 C   0  0  0  0  0  0
  -25.9018  -32.4836   23.8460 C   0  0  1  0  0  0
  -27.1658  -27.4762   20.0701 C   0  0  0  0  0  0
  -25.5930  -33.8620   24.2404 N   0  0  0  0  0  0
  -23.3859  -30.5121   21.5613 C   0  0  2  0  0  0
  -24.8157  -29.0022   20.1064 C   0  0  0  0  0  0
  -22.7342  -29.4695   22.4964 C   0  0  0  0  0  0
  -18.0256  -28.1369   22.8466 C   0  0  0  0  0  0
  -24.1478  -36.7269   23.2604 C   0  0  0  0  0  0
  -25.9150  -30.8503   21.3737 C   0  0  0  0  0  0
  -25.9746  -29.4925   20.7166 C   0  0  0  0  0  0
  -27.1609  -28.7319   20.7055 C   0  0  0  0  0  0
  -25.9995  -27.0126   19.4206 C   0  0  0  0  0  0
  -24.8165  -27.7634   19.4551 C   0  0  0  0  0  0
  -23.5855  -29.8744   20.1629 C   0  0  0  0  0  0
  -25.4088  -36.3091   24.0355 C   0  0  1  0  0  0
  -20.5849  -28.3645   23.1290 C   0  0  2  0  0  0
  -20.6755  -26.9385   22.5389 C   0  0  0  0  0  0
  -19.5748  -26.6380   21.5170 C   0  0  0  0  0  0
  -18.1906  -26.7917   22.1565 C   0  0  0  0  0  0
  -19.1509  -28.8813   23.2882 C   0  0  0  0  0  0
  -18.9459  -30.1419   23.8916 C   0  0  0  0  0  0
  -17.6460  -30.6586   24.0563 C   0  0  0  0  0  0
  -25.9034  -34.9476   23.5174 C   0  0  0  0  0  0
  -16.5340  -29.9086   23.6348 C   0  0  0  0  0  0
  -16.7261  -28.6502   23.0371 C   0  0  0  0  0  0
  -26.4482  -31.6529   25.0708 C   0  0  0  0  0  0
  -25.3781  -31.3641   26.1484 C   0  0  0  0  0  0
  -27.0182  -30.2940   24.5981 C   0  0  0  0  0  0
  -27.6154  -32.4125   25.7427 C   0  0  0  0  0  0
  -27.5618  -37.1709   24.8409 C   0  0  0  0  0  0
  -21.4075  -29.3038   22.3720 N   0  0  0  0  0  0
  -26.4225  -37.3835   23.9526 N   0  0  0  0  0  0
  -24.6538  -31.0931   22.1099 N   0  0  0  0  0  0
  -23.4149  -28.8192   23.2952 O   0  0  0  0  0  0
  -28.3035  -26.7283   20.0894 O   0  0  0  0  0  0
  -26.5580  -34.8895   22.4719 O   0  0  0  0  0  0
  -23.5298  -32.1504   23.7661 O   0  0  0  0  0  0
  -30.0349  -24.1506   21.3692 C   0  0  0  0  0  0
  -29.9280  -24.5297   18.9538 C   0  0  0  0  0  0
  -29.3725  -24.6435   20.2351 C   0  0  0  0  0  0
  -31.7678  -23.2570   19.9024 C   0  0  0  0  0  0
  -31.2445  -23.4573   21.2050 C   0  0  0  0  0  0
  -31.1439  -23.8675   18.7855 C   0  0  0  0  0  0
  -32.9287  -22.3164   19.6607 C   0  0  0  0  0  0
  -28.0743  -25.3508   20.3433 C   0  0  0  0  0  0
  -30.9697  -17.9113   20.8389 C   0  0  0  0  0  0
  -30.9164  -19.2724   20.0671 C   0  0  0  0  0  0
  -29.7841  -16.9577   20.5417 C   0  0  0  0  0  0
  -32.3312  -19.8727   19.8463 C   0  0  0  0  0  0
  -29.8780  -15.5361   20.9874 N   0  0  0  0  0  0
  -32.4017  -21.0962   19.0022 N   0  3  0  0  0  0
  -32.0399  -22.8676   22.6179 Cl  0  0  0  0  0  0
  -31.8126  -23.7955   17.1902 Cl  0  0  0  0  0  0
  -31.4627  -12.4502   19.0751 H   0  0  0  0  0  0
  -30.3275  -11.3110   19.7400 H   0  0  0  0  0  0
  -29.7140  -11.8983   17.3622 H   0  0  0  0  0  0
  -29.6304  -13.5772   17.7962 H   0  0  0  0  0  0
  -27.7983  -11.3509   18.7395 H   0  0  0  0  0  0
  -27.3563  -12.7441   17.7898 H   0  0  0  0  0  0
  -27.7217  -14.2617   19.6428 H   0  0  0  0  0  0
  -28.7291  -11.8872   21.2464 H   0  0  0  0  0  0
  -28.5039  -13.4785   21.9171 H   0  0  0  0  0  0
  -25.2725   -9.5719   22.4794 H   0  0  0  0  0  0
  -24.0071   -7.4610   22.7400 H   0  0  0  0  0  0
  -21.0893   -8.8654   19.8933 H   0  0  0  0  0  0
  -22.3633  -10.9640   19.6205 H   0  0  0  0  0  0
  -21.1835   -7.6169   23.9744 H   0  0  0  0  0  0
  -21.1437   -6.0564   25.9075 H   0  0  0  0  0  0
  -22.0615   -2.7688   23.2836 H   0  0  0  0  0  0
  -22.4117  -11.9786   22.4660 H   0  0  0  0  0  0
  -21.1151  -13.1166   22.2581 H   0  0  0  0  0  0
  -24.6739  -15.8362   20.4429 H   0  0  0  0  0  0
  -26.3154  -15.6161   20.1251 H   0  0  0  0  0  0
  -26.7039  -32.5562   23.1181 H   0  0  0  0  0  0
  -25.0171  -33.9822   25.0599 H   0  0  0  0  0  0
  -22.6737  -31.3293   21.4392 H   0  0  0  0  0  0
  -23.3839  -35.9472   23.3029 H   0  0  0  0  0  0
  -24.3655  -36.9121   22.2063 H   0  0  0  0  0  0
  -23.7004  -37.6314   23.6752 H   0  0  0  0  0  0
  -26.0234  -31.6235   20.6107 H   0  0  0  0  0  0
  -26.8064  -30.8946   21.9850 H   0  0  0  0  0  0
  -28.0545  -29.0833   21.2010 H   0  0  0  0  0  0
  -25.9737  -26.0883   18.8647 H   0  0  0  0  0  0
  -23.9308  -27.4072   18.9477 H   0  0  0  0  0  0
  -23.7045  -30.6644   19.4206 H   0  0  0  0  0  0
  -22.7060  -29.3072   19.8518 H   0  0  0  0  0  0
  -25.1200  -36.1948   25.0829 H   0  0  0  0  0  0
  -20.9941  -28.3217   24.1409 H   0  0  0  0  0  0
  -20.5638  -26.2255   23.3573 H   0  0  0  0  0  0
  -21.6627  -26.7432   22.1193 H   0  0  0  0  0  0
  -19.6923  -25.6290   21.1191 H   0  0  0  0  0  0
  -19.6720  -27.3198   20.6707 H   0  0  0  0  0  0
  -17.4187  -26.6674   21.3949 H   0  0  0  0  0  0
  -18.0325  -26.0036   22.8948 H   0  0  0  0  0  0
  -19.7933  -30.7218   24.2291 H   0  0  0  0  0  0
  -17.5031  -31.6264   24.5140 H   0  0  0  0  0  0
  -15.5353  -30.3003   23.7712 H   0  0  0  0  0  0
  -15.8623  -28.0832   22.7129 H   0  0  0  0  0  0
  -24.5972  -30.6949   25.7848 H   0  0  0  0  0  0
  -24.8956  -32.2797   26.4931 H   0  0  0  0  0  0
  -25.8177  -30.8808   27.0224 H   0  0  0  0  0  0
  -26.2624  -29.6759   24.1109 H   0  0  0  0  0  0
  -27.4024  -29.7113   25.4369 H   0  0  0  0  0  0
  -27.8473  -30.4203   23.9009 H   0  0  0  0  0  0
  -27.2936  -33.3516   26.1946 H   0  0  0  0  0  0
  -28.4032  -32.6467   25.0243 H   0  0  0  0  0  0
  -28.0688  -31.8180   26.5376 H   0  0  0  0  0  0
  -28.2400  -38.0237   24.7883 H   0  0  0  0  0  0
  -28.1361  -36.2835   24.5701 H   0  0  0  0  0  0
  -27.2433  -37.0689   25.8798 H   0  0  0  0  0  0
  -20.9215  -29.8761   21.6937 H   0  0  0  0  0  0
  -26.0101  -38.2829   24.1850 H   0  0  0  0  0  0
  -29.6187  -24.2925   22.3556 H   0  0  0  0  0  0
  -29.4158  -24.9526   18.1007 H   0  0  0  0  0  0
  -33.4725  -22.0851   20.5750 H   0  0  0  0  0  0
  -33.6664  -22.8135   19.0282 H   0  0  0  0  0  0
  -27.6074  -25.1855   21.3159 H   0  0  0  0  0  0
  -27.4376  -24.8742   19.5950 H   0  0  0  0  0  0
  -31.0244  -18.1054   21.9145 H   0  0  0  0  0  0
  -31.8899  -17.3992   20.5648 H   0  0  0  0  0  0
  -30.2982  -19.9940   20.6088 H   0  0  0  0  0  0
  -30.4395  -19.1344   19.0927 H   0  0  0  0  0  0
  -29.5878  -16.9884   19.4701 H   0  0  0  0  0  0
  -28.8858  -17.3766   21.0020 H   0  0  0  0  0  0
  -32.9725  -19.1376   19.3585 H   0  0  0  0  0  0
  -32.7779  -20.0610   20.8184 H   0  0  0  0  0  0
  -29.0554  -15.2058   21.4686 H   0  0  0  0  0  0
  -33.0136  -20.8836   18.2266 H   0  0  0  0  0  0
  -31.5047  -21.3205   18.5966 H   0  0  0  0  0  0
  1 25  1  0  0  0
  1 30  2  0  0  0
  1 83  1  0  0  0
  2  3  1  0  0  0
  2 25  1  0  0  0
  2 87  1  0  0  0
  2 88  1  0  0  0
  3  4  1  0  0  0
  3 89  1  0  0  0
  3 90  1  0  0  0
  4  5  1  0  0  0
  4 91  1  0  0  0
  4 92  1  0  0  0
  5  6  1  0  0  0
  5 26  1  0  0  0
  5 93  1  0  0  0
  6 25  1  0  0  0
  6 94  1  0  0  0
  6 95  1  0  0  0
  7  8  2  0  0  0
  7 26  1  0  0  0
  7 29  1  0  0  0
  8  9  1  0  0  0
  8 22  1  0  0  0
  9 10  1  0  0  0
  9 27  2  0  0  0
 10 11  2  0  0  0
 10 15  1  0  0  0
 11 12  1  0  0  0
 11 96  1  0  0  0
 12 13  2  0  0  0
 12 97  1  0  0  0
 13 14  1  0  0  0
 13 31  1  0  0  0
 14 15  2  0  0  0
 14 98  1  0  0  0
 15 99  1  0  0  0
 16 17  2  0  0  0
 16 21  1  0  0  0
 16 31  1  0  0  0
 17 18  1  0  0  0
 17100  1  0  0  0
 18 19  2  0  0  0
 18101  1  0  0  0
 19 20  1  0  0  0
 19 24  1  0  0  0
 20 21  2  0  0  0
 20102  1  0  0  0
 21 23  1  0  0  0
 22 28  1  0  0  0
 22 32  2  0  0  0
 26 27  1  0  0  0
 28103  1  0  0  0
 28104  1  0  0  0
 29105  1  0  0  0
 29106  1  0  0  0
 33 34  1  0  0  0
 33 66  1  0  0  0
 33 70  2  0  0  0
 34 36  1  0  0  0
 34 59  1  0  0  0
 34107  1  0  0  0
 35 44  2  0  0  0
 35 45  1  0  0  0
 35 68  1  0  0  0
 36 56  1  0  0  0
 36108  1  0  0  0
 37 39  1  0  0  0
 37 47  1  0  0  0
 37 66  1  0  0  0
 37109  1  0  0  0
 38 43  2  0  0  0
 38 46  1  0  0  0
 38 47  1  0  0  0
 39 64  1  0  0  0
 39 67  2  0  0  0
 40 52  1  0  0  0
 40 53  2  0  0  0
 40 58  1  0  0  0
 41110  1  0  0  0
 41111  1  0  0  0
 41112  1  0  0  0
 41 48  1  0  0  0
 42 43  1  0  0  0
 42 66  1  0  0  0
 42113  1  0  0  0
 42114  1  0  0  0
 43 44  1  0  0  0
 44115  1  0  0  0
 45 46  2  0  0  0
 45116  1  0  0  0
 46117  1  0  0  0
 47118  1  0  0  0
 47119  1  0  0  0
 48 56  1  0  0  0
 48 65  1  0  0  0
 48120  1  0  0  0
 49 50  1  0  0  0
 49 53  1  0  0  0
 49 64  1  0  0  0
 49121  1  0  0  0
 50 51  1  0  0  0
 50122  1  0  0  0
 50123  1  0  0  0
 51 52  1  0  0  0
 51124  1  0  0  0
 51125  1  0  0  0
 52126  1  0  0  0
 52127  1  0  0  0
 53 54  1  0  0  0
 54 55  2  0  0  0
 54128  1  0  0  0
 55 57  1  0  0  0
 55129  1  0  0  0
 56 69  2  0  0  0
 57 58  2  0  0  0
 57130  1  0  0  0
 58131  1  0  0  0
 59 60  1  0  0  0
 59 61  1  0  0  0
 59 62  1  0  0  0
 60132  1  0  0  0
 60133  1  0  0  0
 60134  1  0  0  0
 61135  1  0  0  0
 61136  1  0  0  0
 61137  1  0  0  0
 62138  1  0  0  0
 62139  1  0  0  0
 62140  1  0  0  0
 63 65  1  0  0  0
 63141  1  0  0  0
 63142  1  0  0  0
 63143  1  0  0  0
 64144  1  0  0  0
 65145  1  0  0  0
 68 78  1  0  0  0
 71 73  2  0  0  0
 71 75  1  0  0  0
 71146  1  0  0  0
 72 73  1  0  0  0
 72 76  2  0  0  0
 72147  1  0  0  0
 73 78  1  0  0  0
 74 75  2  0  0  0
 74 76  1  0  0  0
 74 77  1  0  0  0
 75 85  1  0  0  0
 76 86  1  0  0  0
 77 84  1  0  0  0
 77148  1  0  0  0
 77149  1  0  0  0
 78150  1  0  0  0
 78151  1  0  0  0
 79 80  1  0  0  0
 79 81  1  0  0  0
 79152  1  0  0  0
 79153  1  0  0  0
 80 82  1  0  0  0
 80154  1  0  0  0
 80155  1  0  0  0
 81 83  1  0  0  0
 81156  1  0  0  0
 81157  1  0  0  0
 82 84  1  0  0  0
 82158  1  0  0  0
 82159  1  0  0  0
 83160  1  0  0  0
 84161  1  0  0  0
 84162  1  0  0  0
M  CHG  1  84   1
M  ISO  4   1 100  68 101  78 101  83 100
M  END
> <chiral flag>
0

> <version>
0

> <s_m_source_file>
/data/baiqing/PycharmProjects/Reinvent-master-3.2/result/LINK_invent/BTK/process_docking_weight1_custom_sum_contain_oxygen_bond_distance_aromatic_linkinvent_7_9_3/rearranged_h_0026.sdf

> <i_m_source_file_index>
51

> <r_mmod_Potential_Energy-OPLS-2005>
-219.667465209961

> <r_mmod_Stretch_Energy-OPLS-2005>
38.4667701721191

> <r_mmod_Bend_Energy-OPLS-2005>
110.30738067627

> <r_mmod_Torsional_Energy-OPLS-2005>
246.979904174805

> <r_mmod_Improper_Torsional_Energy-OPLS-2005>
6.75825929641724

> <r_mmod_Van_der_Waal_Energy-OPLS-2005>
159.173141479492

> <r_mmod_Electrostatic_Energy-OPLS-2005>
-341.106018066406

> <r_mmod_Solvation_Energy-OPLS-2005>
-463.135070800781

> <b_mmod_Minimization_Converged-OPLS-2005>
0

> <r_mmod_RMS_Derivative-OPLS-2005>
9.83677673339844

$$$$
51
                    3D
 Structure written by MMmdl.
169177  0  0  1  0            999 V2000
  -30.7883  -14.3619   20.6549 C   0  0  0  0  0  0
  -30.4060  -12.2747   19.4057 C   0  0  0  0  0  0
  -29.4827  -12.5153   18.1981 C   0  0  0  0  0  0
  -28.0062  -12.3806   18.6120 C   0  0  0  0  0  0
  -27.6645  -13.2095   19.8782 C   0  0  2  0  0  0
  -28.7036  -12.9702   20.9975 C   0  0  0  0  0  0
  -25.2577  -13.8169   20.5665 C   0  0  0  0  0  0
  -24.1832  -13.0435   20.9177 C   0  0  0  0  0  0
  -24.6396  -11.6909   20.8738 C   0  0  0  0  0  0
  -23.9062  -10.4294   21.0400 C   0  0  0  0  0  0
  -24.3612   -9.4222   21.9186 C   0  0  0  0  0  0
  -23.6291   -8.2252   22.0756 C   0  0  0  0  0  0
  -22.4274   -8.0291   21.3544 C   0  0  0  0  0  0
  -21.9913   -9.0266   20.4638 C   0  0  0  0  0  0
  -22.7239  -10.2147   20.3047 C   0  0  0  0  0  0
  -21.6856   -6.0746   22.5275 C   0  0  0  0  0  0
  -21.4020   -6.5650   23.8210 C   0  0  0  0  0  0
  -21.3662   -5.6794   24.9169 C   0  0  0  0  0  0
  -21.6041   -4.3051   24.7217 C   0  0  0  0  0  0
  -21.8823   -3.8145   23.4340 C   0  0  0  0  0  0
  -21.9197   -4.6967   22.3400 C   0  0  0  0  0  0
  -22.7851  -13.5236   21.1833 C   0  0  0  0  0  0
  -22.1662   -4.2151   21.0975 F   0  0  0  0  0  0
  -21.5633   -3.4539   25.7730 F   0  0  0  0  0  0
  -30.0473  -13.2404   20.4541 N   0  0  0  0  0  0
  -26.3030  -12.9352   20.3374 N   0  0  0  0  0  0
  -25.9328  -11.6508   20.5777 N   0  0  0  0  0  0
  -22.0489  -12.8223   22.0381 N   0  0  0  0  0  0
  -25.4295  -15.1885   20.4072 N   0  0  0  0  0  0
  -31.8295  -14.5962   20.0359 O   0  0  0  0  0  0
  -21.6643   -6.8888   21.4232 O   0  0  0  0  0  0
  -22.3540  -14.5552   20.6696 O   0  0  0  0  0  0
  -24.6143  -31.8741   23.2155 C   0  0  0  0  0  0
  -25.9068  -32.4837   23.8420 C   0  0  1  0  0  0
  -27.2271  -27.4588   20.0924 C   0  0  0  0  0  0
  -25.5921  -33.8625   24.2349 N   0  0  0  0  0  0
  -23.3994  -30.4978   21.5573 C   0  0  2  0  0  0
  -24.8453  -28.9670   20.1230 C   0  0  0  0  0  0
  -22.7404  -29.4711   22.5038 C   0  0  0  0  0  0
  -18.0254  -28.1377   22.8477 C   0  0  0  0  0  0
  -24.1499  -36.7333   23.2636 C   0  0  0  0  0  0
  -25.9251  -30.8413   21.3712 C   0  0  0  0  0  0
  -26.0032  -29.4733   20.7298 C   0  0  0  0  0  0
  -27.1999  -28.7203   20.7262 C   0  0  0  0  0  0
  -26.0682  -26.9836   19.4476 C   0  0  0  0  0  0
  -24.8678  -27.7175   19.4816 C   0  0  0  0  0  0
  -23.6047  -29.8301   20.1717 C   0  0  0  0  0  0
  -25.4087  -36.3089   24.0340 C   0  0  1  0  0  0
  -20.5853  -28.3726   23.1294 C   0  0  2  0  0  0
  -20.6773  -26.9463   22.5391 C   0  0  0  0  0  0
  -19.5761  -26.6417   21.5189 C   0  0  0  0  0  0
  -18.1930  -26.7922   22.1604 C   0  0  0  0  0  0
  -19.1502  -28.8863   23.2883 C   0  0  0  0  0  0
  -18.9429  -30.1440   23.8928 C   0  0  0  0  0  0
  -17.6440  -30.6587   24.0556 C   0  0  0  0  0  0
  -25.9032  -34.9477   23.5119 C   0  0  0  0  0  0
  -16.5317  -29.9106   23.6314 C   0  0  0  0  0  0
  -16.7244  -28.6512   23.0346 C   0  0  0  0  0  0
  -26.4486  -31.6591   25.0735 C   0  0  0  0  0  0
  -25.3713  -31.3650   26.1450 C   0  0  0  0  0  0
  -27.0341  -30.3037   24.6100 C   0  0  0  0  0  0
  -27.6065  -32.4319   25.7497 C   0  0  0  0  0  0
  -27.5559  -37.1782   24.8435 C   0  0  0  0  0  0
  -21.4147  -29.3089   22.3716 N   0  0  0  0  0  0
  -26.4273  -37.3778   23.9403 N   0  0  0  0  0  0
  -24.6634  -31.0876   22.1050 N   0  0  0  0  0  0
  -23.4179  -28.8253   23.3071 O   0  0  0  0  0  0
  -28.3740  -26.7062   20.0442 O   0  0  0  0  0  0
  -26.5615  -34.8952   22.4701 O   0  0  0  0  0  0
  -23.5355  -32.1469   23.7577 O   0  0  0  0  0  0
  -28.9065  -22.9512   22.5636 C   0  0  0  0  0  0
  -28.0679  -23.1723   21.4297 C   0  0  0  0  0  0
  -29.4820  -21.6694   22.7480 C   0  0  0  0  0  0
  -27.7804  -22.0477   20.6038 C   0  0  0  0  0  0
  -29.1702  -20.6484   21.8338 C   0  0  0  0  0  0
  -29.2142  -24.0467   23.5765 C   0  0  0  0  0  0
  -26.2125  -20.7720   18.9896 C   0  0  0  0  0  0
  -26.2270  -24.8449   21.9400 C   0  0  0  0  0  0
  -26.8517  -22.1151   19.3897 C   0  0  0  0  0  0
  -31.0265  -17.5501   20.9450 C   0  0  0  0  0  0
  -29.7401  -18.3901   20.9305 C   0  0  0  0  0  0
  -31.0583  -16.4230   22.0053 C   0  0  0  0  0  0
  -28.5347  -25.7283   21.0815 C   0  0  0  0  0  0
  -27.4911  -24.5662   21.0938 C   0  0  1  0  0  0
  -28.3427  -20.8363   20.7962 N   0  0  0  0  0  0
  -29.7312  -19.3779   22.0066 N   0  0  0  0  0  0
  -30.3427  -15.2126   21.5872 N   0  0  0  0  0  0
  -30.5787  -21.3374   24.0523 Cl  0  0  0  0  0  0
  -31.4519  -12.3474   19.1018 H   0  0  0  0  0  0
  -30.2808  -11.2600   19.7845 H   0  0  0  0  0  0
  -29.7126  -11.8088   17.4001 H   0  0  0  0  0  0
  -29.6594  -13.5108   17.7867 H   0  0  0  0  0  0
  -27.8043  -11.3246   18.7901 H   0  0  0  0  0  0
  -27.3558  -12.6753   17.7872 H   0  0  0  0  0  0
  -27.7176  -14.2624   19.5947 H   0  0  0  0  0  0
  -28.6588  -11.9356   21.3404 H   0  0  0  0  0  0
  -28.4638  -13.5751   21.8713 H   0  0  0  0  0  0
  -25.2755   -9.5700   22.4772 H   0  0  0  0  0  0
  -23.9997   -7.4647   22.7469 H   0  0  0  0  0  0
  -21.0855   -8.8789   19.8937 H   0  0  0  0  0  0
  -22.3704  -10.9691   19.6159 H   0  0  0  0  0  0
  -21.2012   -7.6156   23.9712 H   0  0  0  0  0  0
  -21.1479   -6.0529   25.9079 H   0  0  0  0  0  0
  -22.0609   -2.7613   23.2837 H   0  0  0  0  0  0
  -22.4111  -11.9869   22.4738 H   0  0  0  0  0  0
  -21.1104  -13.1246   22.2571 H   0  0  0  0  0  0
  -24.6646  -15.8461   20.5150 H   0  0  0  0  0  0
  -26.2899  -15.6295   20.1037 H   0  0  0  0  0  0
  -26.7164  -32.5558   23.1218 H   0  0  0  0  0  0
  -24.9995  -33.9773   25.0436 H   0  0  0  0  0  0
  -22.6861  -31.3135   21.4227 H   0  0  0  0  0  0
  -23.3748  -35.9676   23.3276 H   0  0  0  0  0  0
  -24.3563  -36.8979   22.2044 H   0  0  0  0  0  0
  -23.7333  -37.6557   23.6696 H   0  0  0  0  0  0
  -26.0277  -31.6034   20.5975 H   0  0  0  0  0  0
  -26.8175  -30.9036   21.9832 H   0  0  0  0  0  0
  -28.0962  -29.1036   21.1953 H   0  0  0  0  0  0
  -26.0859  -26.0446   18.9160 H   0  0  0  0  0  0
  -23.9819  -27.3293   18.9966 H   0  0  0  0  0  0
  -23.7153  -30.6035   19.4110 H   0  0  0  0  0  0
  -22.7265  -29.2511   19.8761 H   0  0  0  0  0  0
  -25.1265  -36.1902   25.0830 H   0  0  0  0  0  0
  -20.9910  -28.3322   24.1436 H   0  0  0  0  0  0
  -20.5677  -26.2356   23.3590 H   0  0  0  0  0  0
  -21.6636  -26.7502   22.1174 H   0  0  0  0  0  0
  -19.6945  -25.6327   21.1241 H   0  0  0  0  0  0
  -19.6691  -27.3200   20.6691 H   0  0  0  0  0  0
  -17.4188  -26.6645   21.4016 H   0  0  0  0  0  0
  -18.0329  -26.0034   22.8965 H   0  0  0  0  0  0
  -19.7912  -30.7190   24.2382 H   0  0  0  0  0  0
  -17.5020  -31.6272   24.5146 H   0  0  0  0  0  0
  -15.5323  -30.3032   23.7664 H   0  0  0  0  0  0
  -15.8628  -28.0850   22.7101 H   0  0  0  0  0  0
  -24.5940  -30.6962   25.7741 H   0  0  0  0  0  0
  -24.8832  -32.2771   26.4877 H   0  0  0  0  0  0
  -25.8036  -30.8822   27.0224 H   0  0  0  0  0  0
  -26.2897  -29.6756   24.1200 H   0  0  0  0  0  0
  -27.4180  -29.7289   25.4542 H   0  0  0  0  0  0
  -27.8704  -30.4361   23.9232 H   0  0  0  0  0  0
  -27.2709  -33.3663   26.2012 H   0  0  0  0  0  0
  -28.3905  -32.6788   25.0316 H   0  0  0  0  0  0
  -28.0718  -31.8478   26.5446 H   0  0  0  0  0  0
  -28.2525  -38.0130   24.7513 H   0  0  0  0  0  0
  -28.1141  -36.2654   24.6234 H   0  0  0  0  0  0
  -27.2278  -37.1361   25.8843 H   0  0  0  0  0  0
  -20.9386  -29.8816   21.6888 H   0  0  0  0  0  0
  -26.0153  -38.2856   24.1415 H   0  0  0  0  0  0
  -28.3764  -24.7221   23.7330 H   0  0  0  0  0  0
  -30.0762  -24.6287   23.2535 H   0  0  0  0  0  0
  -29.4414  -23.6459   24.5631 H   0  0  0  0  0  0
  -25.5249  -20.9091   18.1547 H   0  0  0  0  0  0
  -25.6577  -20.3372   19.8213 H   0  0  0  0  0  0
  -26.9652  -20.0510   18.6689 H   0  0  0  0  0  0
  -25.3828  -24.2575   21.5796 H   0  0  0  0  0  0
  -25.9282  -25.8919   21.9101 H   0  0  0  0  0  0
  -26.3593  -24.5877   22.9885 H   0  0  0  0  0  0
  -27.4071  -22.5397   18.5516 H   0  0  0  0  0  0
  -26.0245  -22.7914   19.6077 H   0  0  0  0  0  0
  -31.8833  -18.2106   21.0917 H   0  0  0  0  0  0
  -31.1739  -17.1282   19.9489 H   0  0  0  0  0  0
  -28.8607  -17.7503   21.0090 H   0  0  0  0  0  0
  -29.6761  -18.8951   19.9669 H   0  0  0  0  0  0
  -30.6590  -16.7751   22.9564 H   0  0  0  0  0  0
  -32.0982  -16.1526   22.2035 H   0  0  0  0  0  0
  -29.5169  -25.2971   20.8822 H   0  0  0  0  0  0
  -28.6154  -26.2259   22.0481 H   0  0  0  0  0  0
  -27.1742  -24.5276   20.0561 H   0  0  0  0  0  0
  -30.4250  -19.3099   22.7428 H   0  0  0  0  0  0
  -29.4962  -14.9644   22.0790 H   0  0  0  0  0  0
  1 25  1  0  0  0
  1 30  2  0  0  0
  1 87  1  0  0  0
  2  3  1  0  0  0
  2 25  1  0  0  0
  2 89  1  0  0  0
  2 90  1  0  0  0
  3  4  1  0  0  0
  3 91  1  0  0  0
  3 92  1  0  0  0
  4  5  1  0  0  0
  4 93  1  0  0  0
  4 94  1  0  0  0
  5  6  1  0  0  0
  5 26  1  0  0  0
  5 95  1  0  0  0
  6 25  1  0  0  0
  6 96  1  0  0  0
  6 97  1  0  0  0
  7  8  2  0  0  0
  7 26  1  0  0  0
  7 29  1  0  0  0
  8  9  1  0  0  0
  8 22  1  0  0  0
  9 10  1  0  0  0
  9 27  2  0  0  0
 10 11  2  0  0  0
 10 15  1  0  0  0
 11 12  1  0  0  0
 11 98  1  0  0  0
 12 13  2  0  0  0
 12 99  1  0  0  0
 13 14  1  0  0  0
 13 31  1  0  0  0
 14 15  2  0  0  0
 14100  1  0  0  0
 15101  1  0  0  0
 16 17  2  0  0  0
 16 21  1  0  0  0
 16 31  1  0  0  0
 17 18  1  0  0  0
 17102  1  0  0  0
 18 19  2  0  0  0
 18103  1  0  0  0
 19 20  1  0  0  0
 19 24  1  0  0  0
 20 21  2  0  0  0
 20104  1  0  0  0
 21 23  1  0  0  0
 22 28  1  0  0  0
 22 32  2  0  0  0
 26 27  1  0  0  0
 28105  1  0  0  0
 28106  1  0  0  0
 29107  1  0  0  0
 29108  1  0  0  0
 33 34  1  0  0  0
 33 66  1  0  0  0
 33 70  2  0  0  0
 34 36  1  0  0  0
 34 59  1  0  0  0
 34109  1  0  0  0
 35 44  2  0  0  0
 35 45  1  0  0  0
 35 68  1  0  0  0
 36 56  1  0  0  0
 36110  1  0  0  0
 37 39  1  0  0  0
 37 47  1  0  0  0
 37 66  1  0  0  0
 37111  1  0  0  0
 38 43  2  0  0  0
 38 46  1  0  0  0
 38 47  1  0  0  0
 39 64  1  0  0  0
 39 67  2  0  0  0
 40 52  1  0  0  0
 40 53  2  0  0  0
 40 58  1  0  0  0
 41112  1  0  0  0
 41113  1  0  0  0
 41114  1  0  0  0
 41 48  1  0  0  0
 42 43  1  0  0  0
 42 66  1  0  0  0
 42115  1  0  0  0
 42116  1  0  0  0
 43 44  1  0  0  0
 44117  1  0  0  0
 45 46  2  0  0  0
 45118  1  0  0  0
 46119  1  0  0  0
 47120  1  0  0  0
 47121  1  0  0  0
 48 56  1  0  0  0
 48 65  1  0  0  0
 48122  1  0  0  0
 49 50  1  0  0  0
 49 53  1  0  0  0
 49 64  1  0  0  0
 49123  1  0  0  0
 50 51  1  0  0  0
 50124  1  0  0  0
 50125  1  0  0  0
 51 52  1  0  0  0
 51126  1  0  0  0
 51127  1  0  0  0
 52128  1  0  0  0
 52129  1  0  0  0
 53 54  1  0  0  0
 54 55  2  0  0  0
 54130  1  0  0  0
 55 57  1  0  0  0
 55131  1  0  0  0
 56 69  2  0  0  0
 57 58  2  0  0  0
 57132  1  0  0  0
 58133  1  0  0  0
 59 60  1  0  0  0
 59 61  1  0  0  0
 59 62  1  0  0  0
 60134  1  0  0  0
 60135  1  0  0  0
 60136  1  0  0  0
 61137  1  0  0  0
 61138  1  0  0  0
 61139  1  0  0  0
 62140  1  0  0  0
 62141  1  0  0  0
 62142  1  0  0  0
 63 65  1  0  0  0
 63143  1  0  0  0
 63144  1  0  0  0
 63145  1  0  0  0
 64146  1  0  0  0
 65147  1  0  0  0
 68 83  1  0  0  0
 71 72  2  0  0  0
 71 73  1  0  0  0
 71 76  1  0  0  0
 72 74  1  0  0  0
 72 84  1  0  0  0
 73 75  2  0  0  0
 73 88  1  0  0  0
 74 79  1  0  0  0
 74 85  2  0  0  0
 75 85  1  0  0  0
 75 86  1  0  0  0
 76148  1  0  0  0
 76149  1  0  0  0
 76150  1  0  0  0
 77 79  1  0  0  0
 77151  1  0  0  0
 77152  1  0  0  0
 77153  1  0  0  0
 78154  1  0  0  0
 78155  1  0  0  0
 78156  1  0  0  0
 78 84  1  0  0  0
 79157  1  0  0  0
 79158  1  0  0  0
 80 81  1  0  0  0
 80 82  1  0  0  0
 80159  1  0  0  0
 80160  1  0  0  0
 81 86  1  0  0  0
 81161  1  0  0  0
 81162  1  0  0  0
 82 87  1  0  0  0
 82163  1  0  0  0
 82164  1  0  0  0
 83 84  1  0  0  0
 83165  1  0  0  0
 83166  1  0  0  0
 84167  1  0  0  0
 86168  1  0  0  0
 87169  1  0  0  0
M  ISO  4   1 100  68 101  83 101  87 100
M  END
> <chiral flag>
0

> <version>
0

> <s_m_source_file>
/data/baiqing/PycharmProjects/Reinvent-master-3.2/result/LINK_invent/BTK/process_docking_weight1_custom_sum_contain_oxygen_bond_distance_aromatic_linkinvent_7_9_3/rearranged_h_0026.sdf

> <i_m_source_file_index>
52

> <r_mmod_Potential_Energy-OPLS-2005>
-173.400238037109

> <r_mmod_Stretch_Energy-OPLS-2005>
38.1424407958984

> <r_mmod_Bend_Energy-OPLS-2005>
112.325500488281

> <r_mmod_Torsional_Energy-OPLS-2005>
238.288024902344

> <r_mmod_Improper_Torsional_Energy-OPLS-2005>
3.18536639213562

> <r_mmod_Van_der_Waal_Energy-OPLS-2005>
176.414962768555

> <r_mmod_Electrostatic_Energy-OPLS-2005>
-535.84716796875

> <r_mmod_Solvation_Energy-OPLS-2005>
-213.986541748047

> <b_mmod_Minimization_Converged-OPLS-2005>
0

> <r_mmod_RMS_Derivative-OPLS-2005>
4.07823896408081

$$$$
52
                    3D
 Structure written by MMmdl.
165173  0  0  1  0            999 V2000
  -30.7309  -14.5502   20.5331 C   0  0  0  0  0  0
  -30.4164  -12.3530   19.4306 C   0  0  0  0  0  0
  -29.4852  -12.4846   18.2087 C   0  0  0  0  0  0
  -28.0146  -12.2994   18.6304 C   0  0  0  0  0  0
  -27.6420  -13.1714   19.8541 C   0  0  2  0  0  0
  -28.7027  -13.0494   20.9817 C   0  0  0  0  0  0
  -25.2543  -13.8040   20.5668 C   0  0  0  0  0  0
  -24.1794  -13.0370   20.9217 C   0  0  0  0  0  0
  -24.6321  -11.6830   20.8793 C   0  0  0  0  0  0
  -23.8992  -10.4245   21.0450 C   0  0  0  0  0  0
  -24.3564   -9.4166   21.9216 C   0  0  0  0  0  0
  -23.6255   -8.2198   22.0763 C   0  0  0  0  0  0
  -22.4243   -8.0243   21.3542 C   0  0  0  0  0  0
  -21.9871   -9.0218   20.4649 C   0  0  0  0  0  0
  -22.7185  -10.2102   20.3076 C   0  0  0  0  0  0
  -21.6833   -6.0717   22.5277 C   0  0  0  0  0  0
  -21.3997   -6.5628   23.8209 C   0  0  0  0  0  0
  -21.3657   -5.6788   24.9178 C   0  0  0  0  0  0
  -21.6047   -4.3050   24.7232 C   0  0  0  0  0  0
  -21.8820   -3.8136   23.4353 C   0  0  0  0  0  0
  -21.9187   -4.6949   22.3406 C   0  0  0  0  0  0
  -22.7830  -13.5210   21.1864 C   0  0  0  0  0  0
  -22.1658   -4.2135   21.0985 F   0  0  0  0  0  0
  -21.5637   -3.4536   25.7748 F   0  0  0  0  0  0
  -30.0150  -13.3853   20.4077 N   0  0  0  0  0  0
  -26.2920  -12.9123   20.3332 N   0  0  0  0  0  0
  -25.9225  -11.6334   20.5822 N   0  0  0  0  0  0
  -22.0447  -12.8231   22.0420 N   0  0  0  0  0  0
  -25.4229  -15.1753   20.3984 N   0  0  0  0  0  0
  -31.9013  -14.6021   20.1450 O   0  0  0  0  0  0
  -21.6610   -6.8845   21.4232 O   0  0  0  0  0  0
  -22.3542  -14.5529   20.6708 O   0  0  0  0  0  0
  -24.6150  -31.8686   23.2094 C   0  0  0  0  0  0
  -25.9050  -32.4825   23.8388 C   0  0  1  0  0  0
  -27.2383  -27.4264   20.1007 C   0  0  0  0  0  0
  -25.5906  -33.8621   24.2320 N   0  0  0  0  0  0
  -23.4036  -30.4912   21.5505 C   0  0  2  0  0  0
  -24.8511  -28.9589   20.1136 C   0  0  0  0  0  0
  -22.7423  -29.4653   22.4988 C   0  0  0  0  0  0
  -18.0271  -28.1369   22.8487 C   0  0  0  0  0  0
  -24.1492  -36.7318   23.2637 C   0  0  0  0  0  0
  -25.9337  -30.8322   21.3640 C   0  0  0  0  0  0
  -26.0124  -29.4671   20.7082 C   0  0  0  0  0  0
  -27.2085  -28.7106   20.6949 C   0  0  0  0  0  0
  -26.0545  -26.9382   19.4966 C   0  0  0  0  0  0
  -24.8675  -27.6936   19.5032 C   0  0  0  0  0  0
  -23.6132  -29.8259   20.1641 C   0  0  0  0  0  0
  -25.4112  -36.3113   24.0333 C   0  0  1  0  0  0
  -20.5863  -28.3660   23.1318 C   0  0  2  0  0  0
  -20.6769  -26.9402   22.5414 C   0  0  0  0  0  0
  -19.5746  -26.6383   21.5208 C   0  0  0  0  0  0
  -18.1920  -26.7914   22.1617 C   0  0  0  0  0  0
  -19.1521  -28.8830   23.2895 C   0  0  0  0  0  0
  -18.9453  -30.1440   23.8900 C   0  0  0  0  0  0
  -17.6459  -30.6582   24.0563 C   0  0  0  0  0  0
  -25.9040  -34.9479   23.5122 C   0  0  0  0  0  0
  -16.5350  -29.9082   23.6327 C   0  0  0  0  0  0
  -16.7263  -28.6501   23.0337 C   0  0  0  0  0  0
  -26.4469  -31.6600   25.0719 C   0  0  0  0  0  0
  -25.3731  -31.3711   26.1467 C   0  0  0  0  0  0
  -27.0302  -30.3045   24.6090 C   0  0  0  0  0  0
  -27.6042  -32.4322   25.7484 C   0  0  0  0  0  0
  -27.5583  -37.1812   24.8464 C   0  0  0  0  0  0
  -21.4148  -29.3031   22.3737 N   0  0  0  0  0  0
  -26.4300  -37.3793   23.9402 N   0  0  0  0  0  0
  -24.6688  -31.0779   22.0997 N   0  0  0  0  0  0
  -23.4202  -28.8193   23.3028 O   0  0  0  0  0  0
  -28.4063  -26.6820   20.1327 O   0  0  0  0  0  0
  -26.5606  -34.8931   22.4686 O   0  0  0  0  0  0
  -23.5342  -32.1442   23.7482 O   0  0  0  0  0  0
  -32.0575  -19.0975   20.7881 C   0  0  0  0  0  0
  -31.1875  -18.7984   23.1335 C   0  0  0  0  0  0
  -31.2491  -17.8681   20.3199 C   0  0  0  0  0  0
  -30.3532  -17.5764   22.7040 C   0  0  0  0  0  0
  -31.4309  -19.8232   22.0003 C   0  0  2  0  0  0
  -30.9557  -16.8579   21.4678 C   0  0  1  0  0  0
  -28.8042  -16.1237   20.5666 C   0  0  0  0  0  0
  -30.1882  -20.6943   21.6548 C   0  0  0  0  0  0
  -30.5207  -22.1305   21.1648 C   0  0  0  0  0  0
  -29.2668  -22.9805   20.8377 C   0  0  0  0  0  0
  -29.5277  -24.4906   20.5875 C   0  0  0  0  0  0
  -28.2496  -25.2513   20.1590 C   0  0  0  0  0  0
  -30.1363  -15.6920   21.0193 N   0  0  0  0  0  0
  -31.4572  -12.4421   19.1154 H   0  0  0  0  0  0
  -30.3307  -11.3594   19.8729 H   0  0  0  0  0  0
  -29.7495  -11.7455   17.4508 H   0  0  0  0  0  0
  -29.6173  -13.4631   17.7436 H   0  0  0  0  0  0
  -27.8645  -11.2453   18.8671 H   0  0  0  0  0  0
  -27.3505  -12.5203   17.7934 H   0  0  0  0  0  0
  -27.6227  -14.1739   19.4521 H   0  0  0  0  0  0
  -28.7201  -12.0292   21.3675 H   0  0  0  0  0  0
  -28.4655  -13.6701   21.8448 H   0  0  0  0  0  0
  -25.2705   -9.5650   22.4795 H   0  0  0  0  0  0
  -23.9968   -7.4585   22.7475 H   0  0  0  0  0  0
  -21.0807   -8.8728   19.8946 H   0  0  0  0  0  0
  -22.3646  -10.9648   19.6189 H   0  0  0  0  0  0
  -21.1975   -7.6134   23.9708 H   0  0  0  0  0  0
  -21.1485   -6.0521   25.9082 H   0  0  0  0  0  0
  -22.0602   -2.7596   23.2859 H   0  0  0  0  0  0
  -22.4031  -11.9883   22.4820 H   0  0  0  0  0  0
  -21.1067  -13.1279   22.2609 H   0  0  0  0  0  0
  -24.6564  -15.8295   20.5120 H   0  0  0  0  0  0
  -26.2740  -15.6139   20.0726 H   0  0  0  0  0  0
  -26.7131  -32.5535   23.1159 H   0  0  0  0  0  0
  -25.0061  -33.9783   25.0467 H   0  0  0  0  0  0
  -22.6916  -31.3072   21.4114 H   0  0  0  0  0  0
  -23.3752  -35.9657   23.3316 H   0  0  0  0  0  0
  -24.3589  -36.8918   22.2051 H   0  0  0  0  0  0
  -23.7254  -37.6527   23.6647 H   0  0  0  0  0  0
  -26.0465  -31.6006   20.5978 H   0  0  0  0  0  0
  -26.8215  -30.8843   21.9830 H   0  0  0  0  0  0
  -28.1046  -29.0985   21.1596 H   0  0  0  0  0  0
  -26.0275  -25.9737   19.0125 H   0  0  0  0  0  0
  -23.9752  -27.2961   19.0388 H   0  0  0  0  0  0
  -23.7229  -30.6030   19.4061 H   0  0  0  0  0  0
  -22.7372  -29.2467   19.8662 H   0  0  0  0  0  0
  -25.1288  -36.1979   25.0825 H   0  0  0  0  0  0
  -20.9934  -28.3223   24.1444 H   0  0  0  0  0  0
  -20.5675  -26.2269   23.3598 H   0  0  0  0  0  0
  -21.6641  -26.7455   22.1201 H   0  0  0  0  0  0
  -19.6925  -25.6295   21.1229 H   0  0  0  0  0  0
  -19.6688  -27.3205   20.6743 H   0  0  0  0  0  0
  -17.4194  -26.6662   21.4017 H   0  0  0  0  0  0
  -18.0327  -26.0050   22.9004 H   0  0  0  0  0  0
  -19.7937  -30.7243   24.2277 H   0  0  0  0  0  0
  -17.5020  -31.6264   24.5164 H   0  0  0  0  0  0
  -15.5349  -30.2986   23.7652 H   0  0  0  0  0  0
  -15.8658  -28.0832   22.7033 H   0  0  0  0  0  0
  -24.5904  -30.7058   25.7808 H   0  0  0  0  0  0
  -24.8922  -32.2872   26.4911 H   0  0  0  0  0  0
  -25.8083  -30.8886   27.0228 H   0  0  0  0  0  0
  -26.2843  -29.6813   24.1142 H   0  0  0  0  0  0
  -27.4082  -29.7273   25.4540 H   0  0  0  0  0  0
  -27.8678  -30.4373   23.9234 H   0  0  0  0  0  0
  -27.2654  -33.3615   26.2081 H   0  0  0  0  0  0
  -28.3844  -32.6897   25.0305 H   0  0  0  0  0  0
  -28.0723  -31.8434   26.5385 H   0  0  0  0  0  0
  -28.2598  -38.0108   24.7501 H   0  0  0  0  0  0
  -28.1076  -36.2637   24.6297 H   0  0  0  0  0  0
  -27.2299  -37.1470   25.8866 H   0  0  0  0  0  0
  -20.9314  -29.8762   21.6963 H   0  0  0  0  0  0
  -26.0194  -38.2874   24.1398 H   0  0  0  0  0  0
  -32.1893  -19.7937   19.9595 H   0  0  0  0  0  0
  -33.0618  -18.7672   21.0588 H   0  0  0  0  0  0
  -32.1532  -18.4449   23.4976 H   0  0  0  0  0  0
  -30.7153  -19.2867   23.9867 H   0  0  0  0  0  0
  -31.7943  -17.3669   19.5188 H   0  0  0  0  0  0
  -30.3293  -18.2286   19.8626 H   0  0  0  0  0  0
  -29.3356  -17.9188   22.5257 H   0  0  0  0  0  0
  -30.2864  -16.8738   23.5353 H   0  0  0  0  0  0
  -32.1842  -20.5129   22.3850 H   0  0  0  0  0  0
  -31.9228  -16.4780   21.8045 H   0  0  0  0  0  0
  -28.6095  -17.1873   20.6797 H   0  0  0  0  0  0
  -28.0127  -15.6424   21.1330 H   0  0  0  0  0  0
  -28.6940  -15.9465   19.4974 H   0  0  0  0  0  0
  -29.5703  -20.7905   22.5485 H   0  0  0  0  0  0
  -29.5602  -20.1822   20.9256 H   0  0  0  0  0  0
  -31.1636  -22.0806   20.2853 H   0  0  0  0  0  0
  -31.1029  -22.6365   21.9362 H   0  0  0  0  0  0
  -28.5558  -22.8891   21.6599 H   0  0  0  0  0  0
  -28.7726  -22.5506   19.9652 H   0  0  0  0  0  0
  -30.2951  -24.6155   19.8226 H   0  0  0  0  0  0
  -29.9251  -24.9398   21.4981 H   0  0  0  0  0  0
  -27.4477  -24.9926   20.8533 H   0  0  0  0  0  0
  -27.9501  -24.8954   19.1728 H   0  0  0  0  0  0
  1 25  1  0  0  0
  1 30  2  0  0  0
  1 83  1  0  0  0
  2  3  1  0  0  0
  2 25  1  0  0  0
  2 84  1  0  0  0
  2 85  1  0  0  0
  3  4  1  0  0  0
  3 86  1  0  0  0
  3 87  1  0  0  0
  4  5  1  0  0  0
  4 88  1  0  0  0
  4 89  1  0  0  0
  5  6  1  0  0  0
  5 26  1  0  0  0
  5 90  1  0  0  0
  6 25  1  0  0  0
  6 91  1  0  0  0
  6 92  1  0  0  0
  7  8  2  0  0  0
  7 26  1  0  0  0
  7 29  1  0  0  0
  8  9  1  0  0  0
  8 22  1  0  0  0
  9 10  1  0  0  0
  9 27  2  0  0  0
 10 11  2  0  0  0
 10 15  1  0  0  0
 11 12  1  0  0  0
 11 93  1  0  0  0
 12 13  2  0  0  0
 12 94  1  0  0  0
 13 14  1  0  0  0
 13 31  1  0  0  0
 14 15  2  0  0  0
 14 95  1  0  0  0
 15 96  1  0  0  0
 16 17  2  0  0  0
 16 21  1  0  0  0
 16 31  1  0  0  0
 17 18  1  0  0  0
 17 97  1  0  0  0
 18 19  2  0  0  0
 18 98  1  0  0  0
 19 20  1  0  0  0
 19 24  1  0  0  0
 20 21  2  0  0  0
 20 99  1  0  0  0
 21 23  1  0  0  0
 22 28  1  0  0  0
 22 32  2  0  0  0
 26 27  1  0  0  0
 28100  1  0  0  0
 28101  1  0  0  0
 29102  1  0  0  0
 29103  1  0  0  0
 33 34  1  0  0  0
 33 66  1  0  0  0
 33 70  2  0  0  0
 34 36  1  0  0  0
 34 59  1  0  0  0
 34104  1  0  0  0
 35 44  2  0  0  0
 35 45  1  0  0  0
 35 68  1  0  0  0
 36 56  1  0  0  0
 36105  1  0  0  0
 37 39  1  0  0  0
 37 47  1  0  0  0
 37 66  1  0  0  0
 37106  1  0  0  0
 38 43  2  0  0  0
 38 46  1  0  0  0
 38 47  1  0  0  0
 39 64  1  0  0  0
 39 67  2  0  0  0
 40 52  1  0  0  0
 40 53  2  0  0  0
 40 58  1  0  0  0
 41107  1  0  0  0
 41108  1  0  0  0
 41109  1  0  0  0
 41 48  1  0  0  0
 42 43  1  0  0  0
 42 66  1  0  0  0
 42110  1  0  0  0
 42111  1  0  0  0
 43 44  1  0  0  0
 44112  1  0  0  0
 45 46  2  0  0  0
 45113  1  0  0  0
 46114  1  0  0  0
 47115  1  0  0  0
 47116  1  0  0  0
 48 56  1  0  0  0
 48 65  1  0  0  0
 48117  1  0  0  0
 49 50  1  0  0  0
 49 53  1  0  0  0
 49 64  1  0  0  0
 49118  1  0  0  0
 50 51  1  0  0  0
 50119  1  0  0  0
 50120  1  0  0  0
 51 52  1  0  0  0
 51121  1  0  0  0
 51122  1  0  0  0
 52123  1  0  0  0
 52124  1  0  0  0
 53 54  1  0  0  0
 54 55  2  0  0  0
 54125  1  0  0  0
 55 57  1  0  0  0
 55126  1  0  0  0
 56 69  2  0  0  0
 57 58  2  0  0  0
 57127  1  0  0  0
 58128  1  0  0  0
 59 60  1  0  0  0
 59 61  1  0  0  0
 59 62  1  0  0  0
 60129  1  0  0  0
 60130  1  0  0  0
 60131  1  0  0  0
 61132  1  0  0  0
 61133  1  0  0  0
 61134  1  0  0  0
 62135  1  0  0  0
 62136  1  0  0  0
 62137  1  0  0  0
 63 65  1  0  0  0
 63138  1  0  0  0
 63139  1  0  0  0
 63140  1  0  0  0
 64141  1  0  0  0
 65142  1  0  0  0
 68 82  1  0  0  0
 71 73  1  0  0  0
 71 75  1  0  0  0
 71143  1  0  0  0
 71144  1  0  0  0
 72 74  1  0  0  0
 72 75  1  0  0  0
 72145  1  0  0  0
 72146  1  0  0  0
 73 76  1  0  0  0
 73147  1  0  0  0
 73148  1  0  0  0
 74 76  1  0  0  0
 74149  1  0  0  0
 74150  1  0  0  0
 75 78  1  0  0  0
 75151  1  0  0  0
 76 83  1  0  0  0
 76152  1  0  0  0
 77 83  1  0  0  0
 77153  1  0  0  0
 77154  1  0  0  0
 77155  1  0  0  0
 78 79  1  0  0  0
 78156  1  0  0  0
 78157  1  0  0  0
 79 80  1  0  0  0
 79158  1  0  0  0
 79159  1  0  0  0
 80 81  1  0  0  0
 80160  1  0  0  0
 80161  1  0  0  0
 81 82  1  0  0  0
 81162  1  0  0  0
 81163  1  0  0  0
 82164  1  0  0  0
 82165  1  0  0  0
M  ISO  4   1 100  68 101  82 101  83 100
M  END
> <chiral flag>
0

> <version>
0

> <s_m_source_file>
/data/baiqing/PycharmProjects/Reinvent-master-3.2/result/LINK_invent/BTK/process_docking_weight1_custom_sum_contain_oxygen_bond_distance_aromatic_linkinvent_7_9_3/rearranged_h_0026.sdf

> <i_m_source_file_index>
53

> <r_mmod_Potential_Energy-OPLS-2005>
198.584365844727

> <r_mmod_Stretch_Energy-OPLS-2005>
45.8428344726562

> <r_mmod_Bend_Energy-OPLS-2005>
117.076354980469

> <r_mmod_Torsional_Energy-OPLS-2005>
310.374359130859

> <r_mmod_Improper_Torsional_Energy-OPLS-2005>
3.96787190437317

> <r_mmod_Van_der_Waal_Energy-OPLS-2005>
154.535369873047

> <r_mmod_Electrostatic_Energy-OPLS-2005>
-276.032867431641

> <r_mmod_Solvation_Energy-OPLS-2005>
-182.038055419922

> <b_mmod_Minimization_Converged-OPLS-2005>
0

> <r_mmod_RMS_Derivative-OPLS-2005>
1.00932157039642

$$$$
53
                    3D
 Structure written by MMmdl.
166175  0  0  1  0            999 V2000
  -30.7139  -14.3881   20.6471 C   0  0  0  0  0  0
  -30.4226  -12.2813   19.3996 C   0  0  0  0  0  0
  -29.4925  -12.5492   18.1985 C   0  0  0  0  0  0
  -28.0132  -12.4019   18.6049 C   0  0  0  0  0  0
  -27.6703  -13.2016   19.8896 C   0  0  2  0  0  0
  -28.7056  -12.9079   20.9984 C   0  0  0  0  0  0
  -25.2601  -13.8155   20.5669 C   0  0  0  0  0  0
  -24.1850  -13.0434   20.9158 C   0  0  0  0  0  0
  -24.6397  -11.6899   20.8722 C   0  0  0  0  0  0
  -23.9064  -10.4295   21.0407 C   0  0  0  0  0  0
  -24.3618   -9.4208   21.9185 C   0  0  0  0  0  0
  -23.6298   -8.2240   22.0752 C   0  0  0  0  0  0
  -22.4277   -8.0282   21.3548 C   0  0  0  0  0  0
  -21.9918   -9.0250   20.4647 C   0  0  0  0  0  0
  -22.7238  -10.2135   20.3056 C   0  0  0  0  0  0
  -21.6851   -6.0738   22.5280 C   0  0  0  0  0  0
  -21.4014   -6.5647   23.8213 C   0  0  0  0  0  0
  -21.3665   -5.6804   24.9176 C   0  0  0  0  0  0
  -21.6041   -4.3059   24.7233 C   0  0  0  0  0  0
  -21.8822   -3.8148   23.4351 C   0  0  0  0  0  0
  -21.9191   -4.6965   22.3404 C   0  0  0  0  0  0
  -22.7869  -13.5223   21.1846 C   0  0  0  0  0  0
  -22.1657   -4.2146   21.0982 F   0  0  0  0  0  0
  -21.5634   -3.4537   25.7743 F   0  0  0  0  0  0
  -30.0532  -13.2128   20.4743 N   0  0  0  0  0  0
  -26.3054  -12.9323   20.3402 N   0  0  0  0  0  0
  -25.9323  -11.6474   20.5751 N   0  0  0  0  0  0
  -22.0519  -12.8198   22.0404 N   0  0  0  0  0  0
  -25.4350  -15.1873   20.4073 N   0  0  0  0  0  0
  -31.7520  -14.6828   20.0468 O   0  0  0  0  0  0
  -21.6644   -6.8876   21.4238 O   0  0  0  0  0  0
  -22.3550  -14.5537   20.6717 O   0  0  0  0  0  0
  -24.6106  -31.8719   23.2142 C   0  0  0  0  0  0
  -25.9036  -32.4837   23.8416 C   0  0  1  0  0  0
  -27.2691  -27.4817   20.1099 C   0  0  0  0  0  0
  -25.5956  -33.8639   24.2372 N   0  0  0  0  0  0
  -23.3962  -30.4903   21.5537 C   0  0  2  0  0  0
  -24.8493  -28.9561   20.1249 C   0  0  0  0  0  0
  -22.7394  -29.4663   22.5049 C   0  0  0  0  0  0
  -18.0280  -28.1368   22.8498 C   0  0  0  0  0  0
  -24.1507  -36.7285   23.2630 C   0  0  0  0  0  0
  -25.9137  -30.8519   21.3593 C   0  0  0  0  0  0
  -25.9998  -29.4830   20.7225 C   0  0  0  0  0  0
  -27.2064  -28.7551   20.7252 C   0  0  0  0  0  0
  -26.0988  -26.9620   19.5161 C   0  0  0  0  0  0
  -24.8892  -27.6853   19.5248 C   0  0  0  0  0  0
  -23.6048  -29.8135   20.1700 C   0  0  0  0  0  0
  -25.4129  -36.3131   24.0346 C   0  0  1  0  0  0
  -20.5857  -28.3659   23.1333 C   0  0  2  0  0  0
  -20.6784  -26.9408   22.5422 C   0  0  0  0  0  0
  -19.5774  -26.6379   21.5216 C   0  0  0  0  0  0
  -18.1940  -26.7919   22.1602 C   0  0  0  0  0  0
  -19.1527  -28.8832   23.2911 C   0  0  0  0  0  0
  -18.9453  -30.1438   23.8919 C   0  0  0  0  0  0
  -17.6459  -30.6589   24.0563 C   0  0  0  0  0  0
  -25.9062  -34.9493   23.5150 C   0  0  0  0  0  0
  -16.5350  -29.9092   23.6307 C   0  0  0  0  0  0
  -16.7267  -28.6501   23.0340 C   0  0  0  0  0  0
  -26.4501  -31.6572   25.0699 C   0  0  0  0  0  0
  -25.3784  -31.3597   26.1450 C   0  0  0  0  0  0
  -27.0327  -30.3052   24.5947 C   0  0  0  0  0  0
  -27.6110  -32.4244   25.7455 C   0  0  0  0  0  0
  -27.5600  -37.1822   24.8479 C   0  0  0  0  0  0
  -21.4141  -29.3020   22.3761 N   0  0  0  0  0  0
  -26.4318  -37.3818   23.9412 N   0  0  0  0  0  0
  -24.6574  -31.0841   22.1028 N   0  0  0  0  0  0
  -23.4187  -28.8229   23.3093 O   0  0  0  0  0  0
  -28.4071  -26.7077   20.0040 O   0  0  0  0  0  0
  -26.5579  -34.8936   22.4686 O   0  0  0  0  0  0
  -23.5328  -32.1461   23.7579 O   0  0  0  0  0  0
  -28.4633  -18.4333   22.2378 C   0  0  0  0  0  0
  -30.2362  -17.3846   20.3273 C   0  0  0  0  0  0
  -28.8393  -19.2268   21.1338 C   0  0  0  0  0  0
  -29.8132  -16.5709   21.4068 C   0  0  0  0  0  0
  -28.9331  -17.1144   22.3691 C   0  0  0  0  0  0
  -29.7476  -18.7002   20.1837 C   0  0  0  0  0  0
  -27.6398  -22.7351   22.1430 C   0  0  0  0  0  0
  -29.8677  -22.4920   20.9486 C   0  0  0  0  0  0
  -28.1477  -24.0594   22.7359 C   0  0  0  0  0  0
  -30.2854  -23.8365   21.5776 C   0  0  0  0  0  0
  -28.7705  -21.7550   21.7522 C   0  0  2  0  0  0
  -28.1647  -20.5788   20.9479 C   0  0  0  0  0  0
  -29.4117  -26.1158   22.1263 C   0  0  0  0  0  0
  -29.5470  -26.9482   20.8376 C   0  0  0  0  0  0
  -30.1599  -15.1979   21.5568 N   0  0  0  0  0  0
  -29.0972  -24.7014   21.7971 N   0  3  2  0  0  0
  -28.3710  -16.1478   23.6894 Cl  0  0  0  0  0  0
  -30.2454  -19.6217   18.8082 Cl  0  0  0  0  0  0
  -31.4683  -12.3825   19.1028 H   0  0  0  0  0  0
  -30.3131  -11.2515   19.7432 H   0  0  0  0  0  0
  -29.7272  -11.8747   17.3746 H   0  0  0  0  0  0
  -29.6669  -13.5590   17.8242 H   0  0  0  0  0  0
  -27.8116  -11.3414   18.7600 H   0  0  0  0  0  0
  -27.3682  -12.7216   17.7854 H   0  0  0  0  0  0
  -27.7384  -14.2618   19.6449 H   0  0  0  0  0  0
  -28.6609  -11.8553   21.2810 H   0  0  0  0  0  0
  -28.4494  -13.4491   21.9088 H   0  0  0  0  0  0
  -25.2764   -9.5670   22.4754 H   0  0  0  0  0  0
  -24.0001   -7.4631   22.7467 H   0  0  0  0  0  0
  -21.0853   -8.8774   19.8952 H   0  0  0  0  0  0
  -22.3706  -10.9675   19.6164 H   0  0  0  0  0  0
  -21.2011   -7.6159   23.9710 H   0  0  0  0  0  0
  -21.1488   -6.0540   25.9081 H   0  0  0  0  0  0
  -22.0602   -2.7605   23.2858 H   0  0  0  0  0  0
  -22.4126  -11.9825   22.4739 H   0  0  0  0  0  0
  -21.1142  -13.1220   22.2641 H   0  0  0  0  0  0
  -24.6738  -15.8480   20.5166 H   0  0  0  0  0  0
  -26.2979  -15.6235   20.1098 H   0  0  0  0  0  0
  -26.7106  -32.5597   23.1194 H   0  0  0  0  0  0
  -25.0269  -33.9820   25.0622 H   0  0  0  0  0  0
  -22.6835  -31.3057   21.4131 H   0  0  0  0  0  0
  -23.3819  -35.9572   23.3329 H   0  0  0  0  0  0
  -24.3606  -36.8844   22.2034 H   0  0  0  0  0  0
  -23.7201  -37.6476   23.6618 H   0  0  0  0  0  0
  -26.0116  -31.6140   20.5843 H   0  0  0  0  0  0
  -26.8036  -30.9182   21.9723 H   0  0  0  0  0  0
  -28.0673  -29.2103   21.1886 H   0  0  0  0  0  0
  -26.1284  -25.9900   19.0440 H   0  0  0  0  0  0
  -24.0063  -27.2631   19.0645 H   0  0  0  0  0  0
  -23.7050  -30.5846   19.4050 H   0  0  0  0  0  0
  -22.7344  -29.2225   19.8788 H   0  0  0  0  0  0
  -25.1305  -36.2023   25.0839 H   0  0  0  0  0  0
  -20.9921  -28.3225   24.1464 H   0  0  0  0  0  0
  -20.5724  -26.2277   23.3607 H   0  0  0  0  0  0
  -21.6658  -26.7502   22.1200 H   0  0  0  0  0  0
  -19.6968  -25.6295   21.1252 H   0  0  0  0  0  0
  -19.6717  -27.3181   20.6743 H   0  0  0  0  0  0
  -17.4221  -26.6682   21.3983 H   0  0  0  0  0  0
  -18.0331  -26.0041   22.8978 H   0  0  0  0  0  0
  -19.7935  -30.7237   24.2316 H   0  0  0  0  0  0
  -17.5019  -31.6277   24.5159 H   0  0  0  0  0  0
  -15.5355  -30.3002   23.7629 H   0  0  0  0  0  0
  -15.8662  -28.0833   22.7035 H   0  0  0  0  0  0
  -24.6015  -30.6884   25.7763 H   0  0  0  0  0  0
  -24.8904  -32.2703   26.4936 H   0  0  0  0  0  0
  -25.8161  -30.8759   27.0188 H   0  0  0  0  0  0
  -26.2807  -29.6790   24.1124 H   0  0  0  0  0  0
  -27.4318  -29.7282   25.4297 H   0  0  0  0  0  0
  -27.8554  -30.4427   23.8915 H   0  0  0  0  0  0
  -27.2794  -33.3540   26.2082 H   0  0  0  0  0  0
  -28.3913  -32.6771   25.0264 H   0  0  0  0  0  0
  -28.0793  -31.8311   26.5320 H   0  0  0  0  0  0
  -28.2666  -38.0089   24.7567 H   0  0  0  0  0  0
  -28.1068  -36.2636   24.6303 H   0  0  0  0  0  0
  -27.2319  -37.1452   25.8884 H   0  0  0  0  0  0
  -20.9349  -29.8683   21.6904 H   0  0  0  0  0  0
  -26.0236  -38.2909   24.1430 H   0  0  0  0  0  0
  -27.7675  -18.8197   22.9684 H   0  0  0  0  0  0
  -30.9025  -17.0052   19.5677 H   0  0  0  0  0  0
  -27.0279  -22.9595   21.2684 H   0  0  0  0  0  0
  -26.9717  -22.2565   22.8599 H   0  0  0  0  0  0
  -30.7416  -21.8467   20.8521 H   0  0  0  0  0  0
  -29.5221  -22.6799   19.9316 H   0  0  0  0  0  0
  -28.6281  -23.8955   23.7012 H   0  0  0  0  0  0
  -27.2919  -24.7140   22.9130 H   0  0  0  0  0  0
  -31.0009  -24.3320   20.9191 H   0  0  0  0  0  0
  -30.8037  -23.6685   22.5233 H   0  0  0  0  0  0
  -29.2036  -21.3745   22.6793 H   0  0  0  0  0  0
  -27.1296  -20.4358   21.2611 H   0  0  0  0  0  0
  -28.0849  -20.8285   19.8897 H   0  0  0  0  0  0
  -28.6134  -26.5521   22.7271 H   0  0  0  0  0  0
  -30.3176  -26.1740   22.7329 H   0  0  0  0  0  0
  -30.4250  -26.6242   20.2791 H   0  0  0  0  0  0
  -29.7315  -27.9983   21.0552 H   0  0  0  0  0  0
  -29.5547  -14.7145   22.2052 H   0  0  0  0  0  0
  -28.6067  -24.7663   20.9147 H   0  0  0  0  0  0
  1 25  1  0  0  0
  1 30  2  0  0  0
  1 85  1  0  0  0
  2  3  1  0  0  0
  2 25  1  0  0  0
  2 89  1  0  0  0
  2 90  1  0  0  0
  3  4  1  0  0  0
  3 91  1  0  0  0
  3 92  1  0  0  0
  4  5  1  0  0  0
  4 93  1  0  0  0
  4 94  1  0  0  0
  5  6  1  0  0  0
  5 26  1  0  0  0
  5 95  1  0  0  0
  6 25  1  0  0  0
  6 96  1  0  0  0
  6 97  1  0  0  0
  7  8  2  0  0  0
  7 26  1  0  0  0
  7 29  1  0  0  0
  8  9  1  0  0  0
  8 22  1  0  0  0
  9 10  1  0  0  0
  9 27  2  0  0  0
 10 11  2  0  0  0
 10 15  1  0  0  0
 11 12  1  0  0  0
 11 98  1  0  0  0
 12 13  2  0  0  0
 12 99  1  0  0  0
 13 14  1  0  0  0
 13 31  1  0  0  0
 14 15  2  0  0  0
 14100  1  0  0  0
 15101  1  0  0  0
 16 17  2  0  0  0
 16 21  1  0  0  0
 16 31  1  0  0  0
 17 18  1  0  0  0
 17102  1  0  0  0
 18 19  2  0  0  0
 18103  1  0  0  0
 19 20  1  0  0  0
 19 24  1  0  0  0
 20 21  2  0  0  0
 20104  1  0  0  0
 21 23  1  0  0  0
 22 28  1  0  0  0
 22 32  2  0  0  0
 26 27  1  0  0  0
 28105  1  0  0  0
 28106  1  0  0  0
 29107  1  0  0  0
 29108  1  0  0  0
 33 34  1  0  0  0
 33 66  1  0  0  0
 33 70  2  0  0  0
 34 36  1  0  0  0
 34 59  1  0  0  0
 34109  1  0  0  0
 35 44  2  0  0  0
 35 45  1  0  0  0
 35 68  1  0  0  0
 36 56  1  0  0  0
 36110  1  0  0  0
 37 39  1  0  0  0
 37 47  1  0  0  0
 37 66  1  0  0  0
 37111  1  0  0  0
 38 43  2  0  0  0
 38 46  1  0  0  0
 38 47  1  0  0  0
 39 64  1  0  0  0
 39 67  2  0  0  0
 40 52  1  0  0  0
 40 53  2  0  0  0
 40 58  1  0  0  0
 41112  1  0  0  0
 41113  1  0  0  0
 41114  1  0  0  0
 41 48  1  0  0  0
 42 43  1  0  0  0
 42 66  1  0  0  0
 42115  1  0  0  0
 42116  1  0  0  0
 43 44  1  0  0  0
 44117  1  0  0  0
 45 46  2  0  0  0
 45118  1  0  0  0
 46119  1  0  0  0
 47120  1  0  0  0
 47121  1  0  0  0
 48 56  1  0  0  0
 48 65  1  0  0  0
 48122  1  0  0  0
 49 50  1  0  0  0
 49 53  1  0  0  0
 49 64  1  0  0  0
 49123  1  0  0  0
 50 51  1  0  0  0
 50124  1  0  0  0
 50125  1  0  0  0
 51 52  1  0  0  0
 51126  1  0  0  0
 51127  1  0  0  0
 52128  1  0  0  0
 52129  1  0  0  0
 53 54  1  0  0  0
 54 55  2  0  0  0
 54130  1  0  0  0
 55 57  1  0  0  0
 55131  1  0  0  0
 56 69  2  0  0  0
 57 58  2  0  0  0
 57132  1  0  0  0
 58133  1  0  0  0
 59 60  1  0  0  0
 59 61  1  0  0  0
 59 62  1  0  0  0
 60134  1  0  0  0
 60135  1  0  0  0
 60136  1  0  0  0
 61137  1  0  0  0
 61138  1  0  0  0
 61139  1  0  0  0
 62140  1  0  0  0
 62141  1  0  0  0
 62142  1  0  0  0
 63 65  1  0  0  0
 63143  1  0  0  0
 63144  1  0  0  0
 63145  1  0  0  0
 64146  1  0  0  0
 65147  1  0  0  0
 68 84  1  0  0  0
 71 73  2  0  0  0
 71 75  1  0  0  0
 71148  1  0  0  0
 72 74  1  0  0  0
 72 76  2  0  0  0
 72149  1  0  0  0
 73 76  1  0  0  0
 73 82  1  0  0  0
 74 75  2  0  0  0
 74 85  1  0  0  0
 75 87  1  0  0  0
 76 88  1  0  0  0
 77 79  1  0  0  0
 77 81  1  0  0  0
 77150  1  0  0  0
 77151  1  0  0  0
 78 80  1  0  0  0
 78 81  1  0  0  0
 78152  1  0  0  0
 78153  1  0  0  0
 79 86  1  0  0  0
 79154  1  0  0  0
 79155  1  0  0  0
 80 86  1  0  0  0
 80156  1  0  0  0
 80157  1  0  0  0
 81 82  1  0  0  0
 81158  1  0  0  0
 82159  1  0  0  0
 82160  1  0  0  0
 83 84  1  0  0  0
 83161  1  0  0  0
 83162  1  0  0  0
 83 86  1  0  0  0
 84163  1  0  0  0
 84164  1  0  0  0
 85165  1  0  0  0
 86166  1  0  0  0
M  CHG  1  86   1
M  ISO  4   1 100  68 101  84 101  85 100
M  END
> <chiral flag>
0

> <version>
0

> <s_m_source_file>
/data/baiqing/PycharmProjects/Reinvent-master-3.2/result/LINK_invent/BTK/process_docking_weight1_custom_sum_contain_oxygen_bond_distance_aromatic_linkinvent_7_9_3/rearranged_h_0026.sdf

> <i_m_source_file_index>
54

> <r_mmod_Potential_Energy-OPLS-2005>
-112.816459655762

> <r_mmod_Stretch_Energy-OPLS-2005>
35.0396995544434

> <r_mmod_Bend_Energy-OPLS-2005>
112.876945495605

> <r_mmod_Torsional_Energy-OPLS-2005>
266.176330566406

> <r_mmod_Improper_Torsional_Energy-OPLS-2005>
4.8548641204834

> <r_mmod_Van_der_Waal_Energy-OPLS-2005>
153.835556030273

> <r_mmod_Electrostatic_Energy-OPLS-2005>
-285.131958007812

> <r_mmod_Solvation_Energy-OPLS-2005>
-406.368621826172

> <b_mmod_Minimization_Converged-OPLS-2005>
0

> <r_mmod_RMS_Derivative-OPLS-2005>
2.48369026184082

$$$$
54
                    3D
 Structure written by MMmdl.
156164  0  0  1  0            999 V2000
  -30.7476  -14.4795   20.4883 C   0  0  0  0  0  0
  -30.4110  -12.2999   19.4205 C   0  0  0  0  0  0
  -29.4827  -12.4811   18.2031 C   0  0  0  0  0  0
  -28.0056  -12.3761   18.6240 C   0  0  0  0  0  0
  -27.6556  -13.2376   19.8702 C   0  0  2  0  0  0
  -28.7132  -13.0808   20.9914 C   0  0  0  0  0  0
  -25.2474  -13.8185   20.5726 C   0  0  0  0  0  0
  -24.1783  -13.0404   20.9156 C   0  0  0  0  0  0
  -24.6440  -11.6914   20.8728 C   0  0  0  0  0  0
  -23.9130  -10.4291   21.0368 C   0  0  0  0  0  0
  -24.3660   -9.4224   21.9167 C   0  0  0  0  0  0
  -23.6329   -8.2278   22.0766 C   0  0  0  0  0  0
  -22.4297   -8.0302   21.3542 C   0  0  0  0  0  0
  -21.9934   -9.0296   20.4659 C   0  0  0  0  0  0
  -22.7294  -10.2155   20.3043 C   0  0  0  0  0  0
  -21.6880   -6.0760   22.5270 C   0  0  0  0  0  0
  -21.4043   -6.5684   23.8209 C   0  0  0  0  0  0
  -21.3612   -5.6828   24.9151 C   0  0  0  0  0  0
  -21.6009   -4.3088   24.7215 C   0  0  0  0  0  0
  -21.8845   -3.8183   23.4348 C   0  0  0  0  0  0
  -21.9216   -4.7005   22.3403 C   0  0  0  0  0  0
  -22.7778  -13.5139   21.1865 C   0  0  0  0  0  0
  -22.1688   -4.2173   21.0981 F   0  0  0  0  0  0
  -21.5549   -3.4570   25.7722 F   0  0  0  0  0  0
  -30.0335  -13.3282   20.4054 N   0  0  0  0  0  0
  -26.3014  -12.9488   20.3434 N   0  0  0  0  0  0
  -25.9406  -11.6605   20.5867 N   0  0  0  0  0  0
  -22.0461  -12.8122   22.0432 N   0  0  0  0  0  0
  -25.3966  -15.1909   20.4251 N   0  0  0  0  0  0
  -31.9225  -14.5473   20.1291 O   0  0  0  0  0  0
  -21.6689   -6.8901   21.4221 O   0  0  0  0  0  0
  -22.3445  -14.5478   20.6787 O   0  0  0  0  0  0
  -24.6098  -31.8725   23.2142 C   0  0  0  0  0  0
  -25.9008  -32.4842   23.8439 C   0  0  1  0  0  0
  -27.2314  -27.4608   20.1060 C   0  0  0  0  0  0
  -25.5886  -33.8641   24.2371 N   0  0  0  0  0  0
  -23.3958  -30.4994   21.5531 C   0  0  2  0  0  0
  -24.8431  -28.9518   20.1329 C   0  0  0  0  0  0
  -22.7308  -29.4744   22.4993 C   0  0  0  0  0  0
  -18.0215  -28.1381   22.8433 C   0  0  0  0  0  0
  -24.1487  -36.7315   23.2644 C   0  0  0  0  0  0
  -25.9247  -30.8395   21.3694 C   0  0  0  0  0  0
  -26.0009  -29.4749   20.7234 C   0  0  0  0  0  0
  -27.2025  -28.7349   20.7097 C   0  0  0  0  0  0
  -26.0597  -26.9350   19.5247 C   0  0  0  0  0  0
  -24.8645  -27.6795   19.5356 C   0  0  0  0  0  0
  -23.6067  -29.8214   20.1707 C   0  0  0  0  0  0
  -25.4114  -36.3120   24.0344 C   0  0  1  0  0  0
  -20.5806  -28.3674   23.1231 C   0  0  2  0  0  0
  -20.6727  -26.9437   22.5266 C   0  0  0  0  0  0
  -19.5678  -26.6416   21.5085 C   0  0  0  0  0  0
  -18.1858  -26.7987   22.1467 C   0  0  0  0  0  0
  -19.1470  -28.8828   23.2846 C   0  0  0  0  0  0
  -18.9386  -30.1436   23.8851 C   0  0  0  0  0  0
  -17.6388  -30.6573   24.0512 C   0  0  0  0  0  0
  -25.9033  -34.9488   23.5159 C   0  0  0  0  0  0
  -16.5257  -29.9077   23.6292 C   0  0  0  0  0  0
  -16.7189  -28.6490   23.0320 C   0  0  0  0  0  0
  -26.4455  -31.6620   25.0763 C   0  0  0  0  0  0
  -25.3722  -31.3732   26.1506 C   0  0  0  0  0  0
  -27.0285  -30.3069   24.6134 C   0  0  0  0  0  0
  -27.6043  -32.4346   25.7513 C   0  0  0  0  0  0
  -27.5584  -37.1816   24.8471 C   0  0  0  0  0  0
  -21.4057  -29.3080   22.3654 N   0  0  0  0  0  0
  -26.4304  -37.3799   23.9396 N   0  0  0  0  0  0
  -24.6615  -31.0846   22.1044 N   0  0  0  0  0  0
  -23.4051  -28.8278   23.3053 O   0  0  0  0  0  0
  -28.3977  -26.7499   20.0302 O   0  0  0  0  0  0
  -26.5588  -34.8935   22.4713 O   0  0  0  0  0  0
  -23.5306  -32.1491   23.7549 O   0  0  0  0  0  0
  -28.2266  -19.8845   20.9772 C   0  0  0  0  0  0
  -29.0812  -20.9911   20.7612 C   0  0  0  0  0  0
  -30.0196  -18.2933   20.4120 C   0  0  0  0  0  0
  -28.6924  -18.5518   20.8461 C   0  0  0  0  0  0
  -30.4008  -20.7328   20.3203 C   0  0  0  0  0  0
  -30.8424  -19.4083   20.1021 C   0  0  0  0  0  0
  -30.6595  -16.8996   20.2269 C   0  0  0  0  0  0
  -28.6258  -22.4128   21.1290 C   0  0  0  0  0  0
  -29.5021  -24.6702   20.4704 C   0  0  0  0  0  0
  -28.5612  -25.7537   21.0350 C   0  0  0  0  0  0
  -30.0605  -15.6236   20.6882 N   0  0  0  0  0  0
  -28.8283  -23.4137   20.0506 N   0  3  0  0  0  0
  -27.6103  -17.2792   21.2729 Cl  0  0  0  0  0  0
  -31.5215  -22.0294   20.0644 Cl  0  0  0  0  0  0
  -32.4375  -19.1679   19.4660 Cl  0  0  0  0  0  0
  -31.4507  -12.3725   19.0946 H   0  0  0  0  0  0
  -30.3035  -11.3029   19.8541 H   0  0  0  0  0  0
  -29.7092  -11.7287   17.4469 H   0  0  0  0  0  0
  -29.6587  -13.4498   17.7320 H   0  0  0  0  0  0
  -27.8033  -11.3253   18.8334 H   0  0  0  0  0  0
  -27.3541  -12.6484   17.7912 H   0  0  0  0  0  0
  -27.6765  -14.2808   19.5472 H   0  0  0  0  0  0
  -28.6881  -12.0835   21.4295 H   0  0  0  0  0  0
  -28.5161  -13.7724   21.8114 H   0  0  0  0  0  0
  -25.2783   -9.5724   22.4784 H   0  0  0  0  0  0
  -24.0035   -7.4693   22.7515 H   0  0  0  0  0  0
  -21.0844   -8.8846   19.8991 H   0  0  0  0  0  0
  -22.3740  -10.9722   19.6193 H   0  0  0  0  0  0
  -21.2103   -7.6204   23.9709 H   0  0  0  0  0  0
  -21.1356   -6.0552   25.9035 H   0  0  0  0  0  0
  -22.0669   -2.7656   23.2855 H   0  0  0  0  0  0
  -22.4111  -11.9779   22.4770 H   0  0  0  0  0  0
  -21.1063  -13.1107   22.2622 H   0  0  0  0  0  0
  -24.6543  -15.8309   20.6785 H   0  0  0  0  0  0
  -26.2714  -15.6641   20.2399 H   0  0  0  0  0  0
  -26.7085  -32.5564   23.1206 H   0  0  0  0  0  0
  -25.0012  -33.9830   25.0501 H   0  0  0  0  0  0
  -22.6884  -31.3189   21.4118 H   0  0  0  0  0  0
  -23.3746  -35.9642   23.3318 H   0  0  0  0  0  0
  -24.3578  -36.8919   22.2053 H   0  0  0  0  0  0
  -23.7232  -37.6536   23.6637 H   0  0  0  0  0  0
  -26.0381  -31.6013   20.5989 H   0  0  0  0  0  0
  -26.8107  -30.8913   21.9894 H   0  0  0  0  0  0
  -28.1000  -29.1378   21.1584 H   0  0  0  0  0  0
  -26.0744  -25.9568   19.0639 H   0  0  0  0  0  0
  -23.9709  -27.2694   19.0865 H   0  0  0  0  0  0
  -23.7211  -30.5916   19.4069 H   0  0  0  0  0  0
  -22.7317  -29.2413   19.8712 H   0  0  0  0  0  0
  -25.1281  -36.2009   25.0836 H   0  0  0  0  0  0
  -20.9875  -28.3176   24.1366 H   0  0  0  0  0  0
  -20.5642  -26.2279   23.3412 H   0  0  0  0  0  0
  -21.6591  -26.7525   22.1060 H   0  0  0  0  0  0
  -19.6792  -25.6307   21.1118 H   0  0  0  0  0  0
  -19.6583  -27.3243   20.6612 H   0  0  0  0  0  0
  -17.4247  -26.6871   21.3739 H   0  0  0  0  0  0
  -18.0062  -26.0053   22.8716 H   0  0  0  0  0  0
  -19.7896  -30.7233   24.2152 H   0  0  0  0  0  0
  -17.4978  -31.6242   24.5093 H   0  0  0  0  0  0
  -15.5264  -30.2991   23.7636 H   0  0  0  0  0  0
  -15.8581  -28.0828   22.6997 H   0  0  0  0  0  0
  -24.5879  -30.7098   25.7834 H   0  0  0  0  0  0
  -24.8909  -32.2896   26.4948 H   0  0  0  0  0  0
  -25.8050  -30.8895   27.0269 H   0  0  0  0  0  0
  -26.2838  -29.6853   24.1150 H   0  0  0  0  0  0
  -27.4027  -29.7285   25.4594 H   0  0  0  0  0  0
  -27.8681  -30.4410   23.9303 H   0  0  0  0  0  0
  -27.2663  -33.3638   26.2107 H   0  0  0  0  0  0
  -28.3815  -32.6923   25.0308 H   0  0  0  0  0  0
  -28.0733  -31.8462   26.5408 H   0  0  0  0  0  0
  -28.2626  -38.0100   24.7503 H   0  0  0  0  0  0
  -28.1059  -36.2629   24.6303 H   0  0  0  0  0  0
  -27.2293  -37.1474   25.8879 H   0  0  0  0  0  0
  -20.9255  -29.8659   21.6740 H   0  0  0  0  0  0
  -26.0201  -38.2883   24.1389 H   0  0  0  0  0  0
  -27.2122  -20.0430   21.3155 H   0  0  0  0  0  0
  -31.6473  -16.9636   20.6895 H   0  0  0  0  0  0
  -30.8464  -16.8050   19.1557 H   0  0  0  0  0  0
  -29.2008  -22.6925   22.0126 H   0  0  0  0  0  0
  -27.5795  -22.4377   21.4386 H   0  0  0  0  0  0
  -30.2849  -24.4391   21.1965 H   0  0  0  0  0  0
  -30.0308  -25.0759   19.6082 H   0  0  0  0  0  0
  -29.0242  -26.2340   21.9017 H   0  0  0  0  0  0
  -27.6170  -25.3319   21.3838 H   0  0  0  0  0  0
  -29.0836  -15.5916   20.9406 H   0  0  0  0  0  0
  -29.4440  -22.9676   19.3847 H   0  0  0  0  0  0
  -27.9615  -23.6054   19.5749 H   0  0  0  0  0  0
  1 25  1  0  0  0
  1 30  2  0  0  0
  1 81  1  0  0  0
  2  3  1  0  0  0
  2 25  1  0  0  0
  2 86  1  0  0  0
  2 87  1  0  0  0
  3  4  1  0  0  0
  3 88  1  0  0  0
  3 89  1  0  0  0
  4  5  1  0  0  0
  4 90  1  0  0  0
  4 91  1  0  0  0
  5  6  1  0  0  0
  5 26  1  0  0  0
  5 92  1  0  0  0
  6 25  1  0  0  0
  6 93  1  0  0  0
  6 94  1  0  0  0
  7  8  2  0  0  0
  7 26  1  0  0  0
  7 29  1  0  0  0
  8  9  1  0  0  0
  8 22  1  0  0  0
  9 10  1  0  0  0
  9 27  2  0  0  0
 10 11  2  0  0  0
 10 15  1  0  0  0
 11 12  1  0  0  0
 11 95  1  0  0  0
 12 13  2  0  0  0
 12 96  1  0  0  0
 13 14  1  0  0  0
 13 31  1  0  0  0
 14 15  2  0  0  0
 14 97  1  0  0  0
 15 98  1  0  0  0
 16 17  2  0  0  0
 16 21  1  0  0  0
 16 31  1  0  0  0
 17 18  1  0  0  0
 17 99  1  0  0  0
 18 19  2  0  0  0
 18100  1  0  0  0
 19 20  1  0  0  0
 19 24  1  0  0  0
 20 21  2  0  0  0
 20101  1  0  0  0
 21 23  1  0  0  0
 22 28  1  0  0  0
 22 32  2  0  0  0
 26 27  1  0  0  0
 28102  1  0  0  0
 28103  1  0  0  0
 29104  1  0  0  0
 29105  1  0  0  0
 33 34  1  0  0  0
 33 66  1  0  0  0
 33 70  2  0  0  0
 34 36  1  0  0  0
 34 59  1  0  0  0
 34106  1  0  0  0
 35 44  2  0  0  0
 35 45  1  0  0  0
 35 68  1  0  0  0
 36 56  1  0  0  0
 36107  1  0  0  0
 37 39  1  0  0  0
 37 47  1  0  0  0
 37 66  1  0  0  0
 37108  1  0  0  0
 38 43  2  0  0  0
 38 46  1  0  0  0
 38 47  1  0  0  0
 39 64  1  0  0  0
 39 67  2  0  0  0
 40 52  1  0  0  0
 40 53  2  0  0  0
 40 58  1  0  0  0
 41109  1  0  0  0
 41110  1  0  0  0
 41111  1  0  0  0
 41 48  1  0  0  0
 42 43  1  0  0  0
 42 66  1  0  0  0
 42112  1  0  0  0
 42113  1  0  0  0
 43 44  1  0  0  0
 44114  1  0  0  0
 45 46  2  0  0  0
 45115  1  0  0  0
 46116  1  0  0  0
 47117  1  0  0  0
 47118  1  0  0  0
 48 56  1  0  0  0
 48 65  1  0  0  0
 48119  1  0  0  0
 49 50  1  0  0  0
 49 53  1  0  0  0
 49 64  1  0  0  0
 49120  1  0  0  0
 50 51  1  0  0  0
 50121  1  0  0  0
 50122  1  0  0  0
 51 52  1  0  0  0
 51123  1  0  0  0
 51124  1  0  0  0
 52125  1  0  0  0
 52126  1  0  0  0
 53 54  1  0  0  0
 54 55  2  0  0  0
 54127  1  0  0  0
 55 57  1  0  0  0
 55128  1  0  0  0
 56 69  2  0  0  0
 57 58  2  0  0  0
 57129  1  0  0  0
 58130  1  0  0  0
 59 60  1  0  0  0
 59 61  1  0  0  0
 59 62  1  0  0  0
 60131  1  0  0  0
 60132  1  0  0  0
 60133  1  0  0  0
 61134  1  0  0  0
 61135  1  0  0  0
 61136  1  0  0  0
 62137  1  0  0  0
 62138  1  0  0  0
 62139  1  0  0  0
 63 65  1  0  0  0
 63140  1  0  0  0
 63141  1  0  0  0
 63142  1  0  0  0
 64143  1  0  0  0
 65144  1  0  0  0
 68 80  1  0  0  0
 71 72  2  0  0  0
 71 74  1  0  0  0
 71145  1  0  0  0
 72 75  1  0  0  0
 72 78  1  0  0  0
 73 74  2  0  0  0
 73 76  1  0  0  0
 73 77  1  0  0  0
 74 83  1  0  0  0
 75 76  2  0  0  0
 75 84  1  0  0  0
 76 85  1  0  0  0
 77 81  1  0  0  0
 77146  1  0  0  0
 77147  1  0  0  0
 78 82  1  0  0  0
 78148  1  0  0  0
 78149  1  0  0  0
 79 80  1  0  0  0
 79 82  1  0  0  0
 79150  1  0  0  0
 79151  1  0  0  0
 80152  1  0  0  0
 80153  1  0  0  0
 81154  1  0  0  0
 82155  1  0  0  0
 82156  1  0  0  0
M  CHG  1  82   1
M  ISO  4   1 100  68 101  80 101  81 100
M  END
> <chiral flag>
0

> <version>
0

> <s_m_source_file>
/data/baiqing/PycharmProjects/Reinvent-master-3.2/result/LINK_invent/BTK/process_docking_weight1_custom_sum_contain_oxygen_bond_distance_aromatic_linkinvent_7_9_3/rearranged_h_0026.sdf

> <i_m_source_file_index>
55

> <r_mmod_Potential_Energy-OPLS-2005>
-183.812850952148

> <r_mmod_Stretch_Energy-OPLS-2005>
37.8037910461426

> <r_mmod_Bend_Energy-OPLS-2005>
114.426498413086

> <r_mmod_Torsional_Energy-OPLS-2005>
250.851486206055

> <r_mmod_Improper_Torsional_Energy-OPLS-2005>
8.44033336639404

> <r_mmod_Van_der_Waal_Energy-OPLS-2005>
166.355819702148

> <r_mmod_Electrostatic_Energy-OPLS-2005>
-315.209686279297

> <r_mmod_Solvation_Energy-OPLS-2005>
-465.788391113281

> <b_mmod_Minimization_Converged-OPLS-2005>
0

> <r_mmod_RMS_Derivative-OPLS-2005>
5.69947099685669

$$$$
55
                    3D
 Structure written by MMmdl.
155163  0  0  1  0            999 V2000
  -30.6458  -14.6101   20.5480 C   0  0  0  0  0  0
  -30.4350  -12.3858   19.4465 C   0  0  0  0  0  0
  -29.5063  -12.5245   18.2202 C   0  0  0  0  0  0
  -28.0278  -12.3625   18.6270 C   0  0  0  0  0  0
  -27.6567  -13.2181   19.8688 C   0  0  2  0  0  0
  -28.7017  -13.0489   20.9944 C   0  0  0  0  0  0
  -25.2574  -13.8178   20.5689 C   0  0  0  0  0  0
  -24.1839  -13.0441   20.9160 C   0  0  0  0  0  0
  -24.6404  -11.6908   20.8712 C   0  0  0  0  0  0
  -23.9065  -10.4304   21.0384 C   0  0  0  0  0  0
  -24.3620   -9.4219   21.9166 C   0  0  0  0  0  0
  -23.6304   -8.2251   22.0748 C   0  0  0  0  0  0
  -22.4287   -8.0285   21.3536 C   0  0  0  0  0  0
  -21.9913   -9.0253   20.4638 C   0  0  0  0  0  0
  -22.7233  -10.2136   20.3044 C   0  0  0  0  0  0
  -21.6860   -6.0732   22.5277 C   0  0  0  0  0  0
  -21.4019   -6.5636   23.8208 C   0  0  0  0  0  0
  -21.3664   -5.6793   24.9174 C   0  0  0  0  0  0
  -21.6051   -4.3057   24.7219 C   0  0  0  0  0  0
  -21.8827   -3.8144   23.4342 C   0  0  0  0  0  0
  -21.9201   -4.6962   22.3400 C   0  0  0  0  0  0
  -22.7869  -13.5234   21.1832 C   0  0  0  0  0  0
  -22.1671   -4.2146   21.0981 F   0  0  0  0  0  0
  -21.5627   -3.4543   25.7732 F   0  0  0  0  0  0
  -30.0183  -13.3959   20.4409 N   0  0  0  0  0  0
  -26.3011  -12.9365   20.3340 N   0  0  0  0  0  0
  -25.9328  -11.6508   20.5730 N   0  0  0  0  0  0
  -22.0519  -12.8219   22.0386 N   0  0  0  0  0  0
  -25.4313  -15.1901   20.4145 N   0  0  0  0  0  0
  -31.7791  -14.7663   20.0835 O   0  0  0  0  0  0
  -21.6652   -6.8874   21.4241 O   0  0  0  0  0  0
  -22.3542  -14.5542   20.6699 O   0  0  0  0  0  0
  -24.6259  -31.8621   23.2025 C   0  0  0  0  0  0
  -25.9113  -32.4792   23.8365 C   0  0  1  0  0  0
  -27.2350  -27.3368   20.1263 C   0  0  0  0  0  0
  -25.5940  -33.8590   24.2296 N   0  0  0  0  0  0
  -23.4187  -30.4828   21.5460 C   0  0  2  0  0  0
  -24.8667  -28.9335   20.1183 C   0  0  0  0  0  0
  -22.7473  -29.4631   22.4964 C   0  0  0  0  0  0
  -18.0284  -28.1382   22.8488 C   0  0  0  0  0  0
  -24.1488  -36.7297   23.2638 C   0  0  0  0  0  0
  -25.9574  -30.7974   21.3710 C   0  0  0  0  0  0
  -26.0331  -29.4235   20.7189 C   0  0  0  0  0  0
  -27.2209  -28.6374   20.7112 C   0  0  0  0  0  0
  -26.0484  -26.8933   19.5005 C   0  0  0  0  0  0
  -24.8742  -27.6713   19.5023 C   0  0  0  0  0  0
  -23.6336  -29.8130   20.1629 C   0  0  0  0  0  0
  -25.4115  -36.3098   24.0336 C   0  0  1  0  0  0
  -20.5884  -28.3692   23.1289 C   0  0  2  0  0  0
  -20.6780  -26.9418   22.5409 C   0  0  0  0  0  0
  -19.5757  -26.6381   21.5217 C   0  0  0  0  0  0
  -18.1932  -26.7928   22.1625 C   0  0  0  0  0  0
  -19.1536  -28.8855   23.2882 C   0  0  0  0  0  0
  -18.9461  -30.1464   23.8886 C   0  0  0  0  0  0
  -17.6461  -30.6583   24.0561 C   0  0  0  0  0  0
  -25.9056  -34.9464   23.5117 C   0  0  0  0  0  0
  -16.5354  -29.9078   23.6333 C   0  0  0  0  0  0
  -16.7274  -28.6502   23.0345 C   0  0  0  0  0  0
  -26.4493  -31.6589   25.0727 C   0  0  0  0  0  0
  -25.3725  -31.3727   26.1453 C   0  0  0  0  0  0
  -27.0345  -30.3020   24.6170 C   0  0  0  0  0  0
  -27.6063  -32.4317   25.7496 C   0  0  0  0  0  0
  -27.5587  -37.1806   24.8468 C   0  0  0  0  0  0
  -21.4189  -29.3045   22.3687 N   0  0  0  0  0  0
  -26.4293  -37.3794   23.9415 N   0  0  0  0  0  0
  -24.6859  -31.0646   22.0966 N   0  0  0  0  0  0
  -23.4207  -28.8192   23.3053 O   0  0  0  0  0  0
  -28.3752  -26.5254   20.1329 O   0  0  0  0  0  0
  -26.5616  -34.8929   22.4678 O   0  0  0  0  0  0
  -23.5428  -32.1409   23.7364 O   0  0  0  0  0  0
  -29.7484  -20.8072   22.0754 C   0  0  0  0  0  0
  -29.3455  -21.5683   19.4975 C   0  0  0  0  0  0
  -29.6307  -22.1952   21.7942 C   0  0  0  0  0  0
  -29.4074  -22.6189   20.4579 C   0  0  0  0  0  0
  -29.6783  -19.8378   21.0532 C   0  0  0  0  0  0
  -29.7737  -23.1816   22.9409 C   0  0  0  0  0  0
  -29.3839  -24.1314   20.0165 C   0  0  0  0  0  0
  -29.9358  -15.8710   21.1849 C   0  0  0  0  0  0
  -30.1630  -17.3084   20.5291 C   0  0  0  0  0  0
  -28.2288  -25.1013   20.4997 C   0  0  0  0  0  0
  -29.4814  -20.2318   19.7747 N   0  0  0  0  0  0
  -29.7844  -18.4587   21.4019 N   0  0  0  0  0  0
  -31.4771  -12.5036   19.1440 H   0  0  0  0  0  0
  -30.3654  -11.3844   19.8733 H   0  0  0  0  0  0
  -29.7685  -11.7879   17.4599 H   0  0  0  0  0  0
  -29.6537  -13.5032   17.7607 H   0  0  0  0  0  0
  -27.8571  -11.3064   18.8386 H   0  0  0  0  0  0
  -27.3775  -12.6140   17.7881 H   0  0  0  0  0  0
  -27.6823  -14.2583   19.5455 H   0  0  0  0  0  0
  -28.7086  -12.0187   21.3521 H   0  0  0  0  0  0
  -28.4465  -13.6554   21.8643 H   0  0  0  0  0  0
  -25.2771   -9.5708   22.4732 H   0  0  0  0  0  0
  -24.0031   -7.4645   22.7467 H   0  0  0  0  0  0
  -21.0847   -8.8763   19.8933 H   0  0  0  0  0  0
  -22.3693  -10.9670   19.6157 H   0  0  0  0  0  0
  -21.2013   -7.6143   23.9709 H   0  0  0  0  0  0
  -21.1478   -6.0519   25.9075 H   0  0  0  0  0  0
  -22.0602   -2.7604   23.2843 H   0  0  0  0  0  0
  -22.4157  -11.9909   22.4808 H   0  0  0  0  0  0
  -21.1122  -13.1217   22.2562 H   0  0  0  0  0  0
  -24.6721  -15.8524   20.5307 H   0  0  0  0  0  0
  -26.2964  -15.6279   20.1230 H   0  0  0  0  0  0
  -26.7190  -32.5463   23.1126 H   0  0  0  0  0  0
  -25.0117  -33.9741   25.0460 H   0  0  0  0  0  0
  -22.7120  -31.3026   21.4001 H   0  0  0  0  0  0
  -23.3761  -35.9616   23.3293 H   0  0  0  0  0  0
  -24.3585  -36.8922   22.2053 H   0  0  0  0  0  0
  -23.7220  -37.6492   23.6656 H   0  0  0  0  0  0
  -26.0847  -31.5574   20.5994 H   0  0  0  0  0  0
  -26.8398  -30.8493   21.9973 H   0  0  0  0  0  0
  -28.1183  -29.0139   21.1821 H   0  0  0  0  0  0
  -26.0159  -25.9378   18.9994 H   0  0  0  0  0  0
  -23.9815  -27.2887   19.0270 H   0  0  0  0  0  0
  -23.7547  -30.5865   19.4030 H   0  0  0  0  0  0
  -22.7545  -29.2418   19.8620 H   0  0  0  0  0  0
  -25.1286  -36.1959   25.0829 H   0  0  0  0  0  0
  -20.9971  -28.3264   24.1415 H   0  0  0  0  0  0
  -20.5702  -26.2308   23.3611 H   0  0  0  0  0  0
  -21.6651  -26.7464   22.1195 H   0  0  0  0  0  0
  -19.6921  -25.6291   21.1253 H   0  0  0  0  0  0
  -19.6682  -27.3190   20.6747 H   0  0  0  0  0  0
  -17.4209  -26.6686   21.4016 H   0  0  0  0  0  0
  -18.0319  -26.0061   22.9013 H   0  0  0  0  0  0
  -19.7937  -30.7284   24.2245 H   0  0  0  0  0  0
  -17.5013  -31.6259   24.5169 H   0  0  0  0  0  0
  -15.5355  -30.2977   23.7652 H   0  0  0  0  0  0
  -15.8681  -28.0820   22.7052 H   0  0  0  0  0  0
  -24.5890  -30.7090   25.7777 H   0  0  0  0  0  0
  -24.8918  -32.2890   26.4888 H   0  0  0  0  0  0
  -25.8037  -30.8890   27.0224 H   0  0  0  0  0  0
  -26.2924  -29.6766   24.1194 H   0  0  0  0  0  0
  -27.4060  -29.7281   25.4669 H   0  0  0  0  0  0
  -27.8779  -30.4328   23.9386 H   0  0  0  0  0  0
  -27.2685  -33.3612   26.2092 H   0  0  0  0  0  0
  -28.3860  -32.6887   25.0314 H   0  0  0  0  0  0
  -28.0744  -31.8427   26.5393 H   0  0  0  0  0  0
  -28.2606  -38.0107   24.7536 H   0  0  0  0  0  0
  -28.1084  -36.2642   24.6262 H   0  0  0  0  0  0
  -27.2314  -37.1424   25.8874 H   0  0  0  0  0  0
  -20.9382  -29.8765   21.6881 H   0  0  0  0  0  0
  -26.0182  -38.2873   24.1405 H   0  0  0  0  0  0
  -29.9115  -20.4940   23.0981 H   0  0  0  0  0  0
  -29.2151  -21.8058   18.4516 H   0  0  0  0  0  0
  -30.4510  -22.7915   23.7006 H   0  0  0  0  0  0
  -28.8066  -23.3514   23.4134 H   0  0  0  0  0  0
  -30.1788  -24.1392   22.6181 H   0  0  0  0  0  0
  -29.3959  -24.1556   18.9263 H   0  0  0  0  0  0
  -30.3411  -24.5632   20.3106 H   0  0  0  0  0  0
  -28.8611  -15.7090   21.2384 H   0  0  0  0  0  0
  -30.2821  -15.9016   22.2183 H   0  0  0  0  0  0
  -29.6017  -17.3751   19.5958 H   0  0  0  0  0  0
  -31.2145  -17.4227   20.2610 H   0  0  0  0  0  0
  -28.1701  -25.0721   21.5869 H   0  0  0  0  0  0
  -27.2872  -24.6826   20.1513 H   0  0  0  0  0  0
  -29.8934  -18.2872   22.3967 H   0  0  0  0  0  0
  1 25  1  0  0  0
  1 30  2  0  0  0
  1 78  1  0  0  0
  2  3  1  0  0  0
  2 25  1  0  0  0
  2 83  1  0  0  0
  2 84  1  0  0  0
  3  4  1  0  0  0
  3 85  1  0  0  0
  3 86  1  0  0  0
  4  5  1  0  0  0
  4 87  1  0  0  0
  4 88  1  0  0  0
  5  6  1  0  0  0
  5 26  1  0  0  0
  5 89  1  0  0  0
  6 25  1  0  0  0
  6 90  1  0  0  0
  6 91  1  0  0  0
  7  8  2  0  0  0
  7 26  1  0  0  0
  7 29  1  0  0  0
  8  9  1  0  0  0
  8 22  1  0  0  0
  9 10  1  0  0  0
  9 27  2  0  0  0
 10 11  2  0  0  0
 10 15  1  0  0  0
 11 12  1  0  0  0
 11 92  1  0  0  0
 12 13  2  0  0  0
 12 93  1  0  0  0
 13 14  1  0  0  0
 13 31  1  0  0  0
 14 15  2  0  0  0
 14 94  1  0  0  0
 15 95  1  0  0  0
 16 17  2  0  0  0
 16 21  1  0  0  0
 16 31  1  0  0  0
 17 18  1  0  0  0
 17 96  1  0  0  0
 18 19  2  0  0  0
 18 97  1  0  0  0
 19 20  1  0  0  0
 19 24  1  0  0  0
 20 21  2  0  0  0
 20 98  1  0  0  0
 21 23  1  0  0  0
 22 28  1  0  0  0
 22 32  2  0  0  0
 26 27  1  0  0  0
 28 99  1  0  0  0
 28100  1  0  0  0
 29101  1  0  0  0
 29102  1  0  0  0
 33 34  1  0  0  0
 33 66  1  0  0  0
 33 70  2  0  0  0
 34 36  1  0  0  0
 34 59  1  0  0  0
 34103  1  0  0  0
 35 44  2  0  0  0
 35 45  1  0  0  0
 35 68  1  0  0  0
 36 56  1  0  0  0
 36104  1  0  0  0
 37 39  1  0  0  0
 37 47  1  0  0  0
 37 66  1  0  0  0
 37105  1  0  0  0
 38 43  2  0  0  0
 38 46  1  0  0  0
 38 47  1  0  0  0
 39 64  1  0  0  0
 39 67  2  0  0  0
 40 52  1  0  0  0
 40 53  2  0  0  0
 40 58  1  0  0  0
 41106  1  0  0  0
 41107  1  0  0  0
 41108  1  0  0  0
 41 48  1  0  0  0
 42 43  1  0  0  0
 42 66  1  0  0  0
 42109  1  0  0  0
 42110  1  0  0  0
 43 44  1  0  0  0
 44111  1  0  0  0
 45 46  2  0  0  0
 45112  1  0  0  0
 46113  1  0  0  0
 47114  1  0  0  0
 47115  1  0  0  0
 48 56  1  0  0  0
 48 65  1  0  0  0
 48116  1  0  0  0
 49 50  1  0  0  0
 49 53  1  0  0  0
 49 64  1  0  0  0
 49117  1  0  0  0
 50 51  1  0  0  0
 50118  1  0  0  0
 50119  1  0  0  0
 51 52  1  0  0  0
 51120  1  0  0  0
 51121  1  0  0  0
 52122  1  0  0  0
 52123  1  0  0  0
 53 54  1  0  0  0
 54 55  2  0  0  0
 54124  1  0  0  0
 55 57  1  0  0  0
 55125  1  0  0  0
 56 69  2  0  0  0
 57 58  2  0  0  0
 57126  1  0  0  0
 58127  1  0  0  0
 59 60  1  0  0  0
 59 61  1  0  0  0
 59 62  1  0  0  0
 60128  1  0  0  0
 60129  1  0  0  0
 60130  1  0  0  0
 61131  1  0  0  0
 61132  1  0  0  0
 61133  1  0  0  0
 62134  1  0  0  0
 62135  1  0  0  0
 62136  1  0  0  0
 63 65  1  0  0  0
 63137  1  0  0  0
 63138  1  0  0  0
 63139  1  0  0  0
 64140  1  0  0  0
 65141  1  0  0  0
 68 80  1  0  0  0
 71 73  2  0  0  0
 71 75  1  0  0  0
 71142  1  0  0  0
 72 74  2  0  0  0
 72 81  1  0  0  0
 72143  1  0  0  0
 73 74  1  0  0  0
 73 76  1  0  0  0
 74 77  1  0  0  0
 75 81  2  0  0  0
 75 82  1  0  0  0
 76144  1  0  0  0
 76145  1  0  0  0
 76146  1  0  0  0
 77 80  1  0  0  0
 77147  1  0  0  0
 77148  1  0  0  0
 78 79  1  0  0  0
 78149  1  0  0  0
 78150  1  0  0  0
 79 82  1  0  0  0
 79151  1  0  0  0
 79152  1  0  0  0
 80153  1  0  0  0
 80154  1  0  0  0
 82155  1  0  0  0
M  ISO  4   1 100  68 101  78 100  80 101
M  END
> <chiral flag>
0

> <version>
0

> <s_m_source_file>
/data/baiqing/PycharmProjects/Reinvent-master-3.2/result/LINK_invent/BTK/process_docking_weight1_custom_sum_contain_oxygen_bond_distance_aromatic_linkinvent_7_9_3/rearranged_h_0026.sdf

> <i_m_source_file_index>
56

> <r_mmod_Potential_Energy-OPLS-2005>
-163.774536132812

> <r_mmod_Stretch_Energy-OPLS-2005>
72.2538909912109

> <r_mmod_Bend_Energy-OPLS-2005>
139.605819702148

> <r_mmod_Torsional_Energy-OPLS-2005>
174.238357543945

> <r_mmod_Improper_Torsional_Energy-OPLS-2005>
3.61872434616089

> <r_mmod_Van_der_Waal_Energy-OPLS-2005>
143.948623657227

> <r_mmod_Electrostatic_Energy-OPLS-2005>
-505.799530029297

> <r_mmod_Solvation_Energy-OPLS-2005>
-228.172714233398

> <b_mmod_Minimization_Converged-OPLS-2005>
0

> <r_mmod_RMS_Derivative-OPLS-2005>
1.84262895584106

$$$$
56
                    3D
 Structure written by MMmdl.
168176  0  0  1  0            999 V2000
  -30.4685  -15.1788   20.3767 C   0  0  0  0  0  0
  -30.4365  -12.7534   19.4929 C   0  0  0  0  0  0
  -29.5210  -12.5522   18.2597 C   0  0  0  0  0  0
  -28.0643  -12.2999   18.6925 C   0  0  0  0  0  0
  -27.6088  -13.2691   19.8139 C   0  0  2  0  0  0
  -28.6522  -13.4093   20.9413 C   0  0  0  0  0  0
  -25.2376  -13.8241   20.5744 C   0  0  0  0  0  0
  -24.1738  -13.0423   20.9265 C   0  0  0  0  0  0
  -24.6404  -11.6924   20.8780 C   0  0  0  0  0  0
  -23.9107  -10.4280   21.0406 C   0  0  0  0  0  0
  -24.3644   -9.4204   21.9181 C   0  0  0  0  0  0
  -23.6314   -8.2246   22.0755 C   0  0  0  0  0  0
  -22.4299   -8.0276   21.3544 C   0  0  0  0  0  0
  -21.9930   -9.0255   20.4651 C   0  0  0  0  0  0
  -22.7278  -10.2122   20.3060 C   0  0  0  0  0  0
  -21.6837   -6.0754   22.5295 C   0  0  0  0  0  0
  -21.4013   -6.5654   23.8225 C   0  0  0  0  0  0
  -21.3655   -5.6804   24.9181 C   0  0  0  0  0  0
  -21.6034   -4.3066   24.7227 C   0  0  0  0  0  0
  -21.8814   -3.8160   23.4341 C   0  0  0  0  0  0
  -21.9195   -4.6984   22.3407 C   0  0  0  0  0  0
  -22.7755  -13.5168   21.1904 C   0  0  0  0  0  0
  -22.1659   -4.2167   21.0985 F   0  0  0  0  0  0
  -21.5617   -3.4553   25.7734 F   0  0  0  0  0  0
  -29.8868  -13.8920   20.3056 N   0  0  0  0  0  0
  -26.2802  -12.9511   20.3203 N   0  0  0  0  0  0
  -25.9330  -11.6616   20.5727 N   0  0  0  0  0  0
  -22.0431  -12.8141   22.0465 N   0  0  0  0  0  0
  -25.4001  -15.1974   20.4157 N   0  0  0  0  0  0
  -31.6973  -15.1812   20.2209 O   0  0  0  0  0  0
  -21.6644   -6.8893   21.4248 O   0  0  0  0  0  0
  -22.3428  -14.5469   20.6755 O   0  0  0  0  0  0
  -24.6606  -31.8287   23.1719 C   0  0  0  0  0  0
  -25.9294  -32.4614   23.8193 C   0  0  1  0  0  0
  -27.2209  -26.9708   20.1491 C   0  0  0  0  0  0
  -25.6003  -33.8437   24.2083 N   0  0  0  0  0  0
  -23.4745  -30.4450   21.5202 C   0  0  2  0  0  0
  -24.9241  -28.8464   20.1062 C   0  0  0  0  0  0
  -22.7668  -29.4477   22.4742 C   0  0  0  0  0  0
  -18.0336  -28.1435   22.8485 C   0  0  0  0  0  0
  -24.1490  -36.7197   23.2651 C   0  0  0  0  0  0
  -26.0432  -30.6438   21.3997 C   0  0  0  0  0  0
  -26.1076  -29.2425   20.7359 C   0  0  0  0  0  0
  -27.2467  -28.3237   20.7384 C   0  0  0  0  0  0
  -25.9929  -26.7155   19.4977 C   0  0  0  0  0  0
  -24.8882  -27.5998   19.4690 C   0  0  0  0  0  0
  -23.7128  -29.7727   20.1432 C   0  0  0  0  0  0
  -25.4127  -36.2963   24.0304 C   0  0  1  0  0  0
  -20.5974  -28.3772   23.1176 C   0  0  2  0  0  0
  -20.6828  -26.9457   22.5383 C   0  0  0  0  0  0
  -19.5794  -26.6376   21.5217 C   0  0  0  0  0  0
  -18.1964  -26.7977   22.1617 C   0  0  0  0  0  0
  -19.1604  -28.8917   23.2833 C   0  0  0  0  0  0
  -18.9530  -30.1514   23.8854 C   0  0  0  0  0  0
  -17.6531  -30.6625   24.0577 C   0  0  0  0  0  0
  -25.9104  -34.9365   23.4984 C   0  0  0  0  0  0
  -16.5411  -29.9120   23.6359 C   0  0  0  0  0  0
  -16.7319  -28.6548   23.0353 C   0  0  0  0  0  0
  -26.4541  -31.6589   25.0727 C   0  0  0  0  0  0
  -25.3649  -31.3830   26.1358 C   0  0  0  0  0  0
  -27.0459  -30.2972   24.6462 C   0  0  0  0  0  0
  -27.6040  -32.4400   25.7502 C   0  0  0  0  0  0
  -27.5554  -37.1748   24.8473 C   0  0  0  0  0  0
  -21.4333  -29.3084   22.3515 N   0  0  0  0  0  0
  -26.4255  -37.3704   23.9430 N   0  0  0  0  0  0
  -24.7473  -31.0002   22.0839 N   0  0  0  0  0  0
  -23.4238  -28.8007   23.2948 O   0  0  0  0  0  0
  -28.2365  -25.8876   20.2788 O   0  0  0  0  0  0
  -26.5711  -34.8905   22.4569 O   0  0  0  0  0  0
  -23.5663  -32.1236   23.6816 O   0  0  0  0  0  0
  -30.1504  -20.5735   19.5069 C   0  0  0  0  0  0
  -29.8738  -22.0143   19.3417 C   0  0  0  0  0  0
  -29.4660  -19.6014   20.3212 C   0  0  0  0  0  0
  -28.8175  -22.7955   20.0003 C   0  0  0  0  0  0
  -28.4099  -20.3620   20.9913 C   0  0  0  0  0  0
  -28.1008  -21.8235   20.8282 C   0  0  0  0  0  0
  -27.6572  -24.3739   18.2034 C   0  0  0  0  0  0
  -35.2595  -24.8978   17.9814 C   0  0  0  0  0  0
  -35.3650  -22.5640   18.9708 C   0  0  0  0  0  0
  -30.8519  -22.6778   18.3771 C   0  0  0  0  0  0
  -30.1191  -18.0186   20.6153 C   0  0  0  0  0  0
  -32.1730  -23.0285   19.0843 C   0  0  0  0  0  0
  -28.3878  -24.4326   19.5554 C   0  0  1  0  0  0
  -34.5055  -23.8321   18.7892 C   0  0  0  0  0  0
  -29.7139  -16.4398   20.4186 N   0  0  0  0  0  0
  -33.2040  -23.5322   18.1514 N   0  3  0  0  0  0
  -27.4525  -19.4553   22.1106 Cl  0  0  0  0  0  0
  -26.7452  -22.4620   21.6926 Cl  0  0  0  0  0  0
  -31.4557  -12.9508   19.1562 H   0  0  0  0  0  0
  -30.4931  -11.8395   20.0864 H   0  0  0  0  0  0
  -29.8779  -11.7202   17.6508 H   0  0  0  0  0  0
  -29.5651  -13.4367   17.6209 H   0  0  0  0  0  0
  -27.9982  -11.2698   19.0451 H   0  0  0  0  0  0
  -27.3944  -12.3674   17.8343 H   0  0  0  0  0  0
  -27.5296  -14.2439   19.3293 H   0  0  0  0  0  0
  -28.8103  -12.4633   21.4616 H   0  0  0  0  0  0
  -28.3147  -14.1294   21.6878 H   0  0  0  0  0  0
  -25.2785   -9.5657   22.4766 H   0  0  0  0  0  0
  -24.0010   -7.4621   22.7457 H   0  0  0  0  0  0
  -21.0874   -8.8771   19.8950 H   0  0  0  0  0  0
  -22.3746  -10.9654   19.6169 H   0  0  0  0  0  0
  -21.2018   -7.6165   23.9728 H   0  0  0  0  0  0
  -21.1467   -6.0537   25.9075 H   0  0  0  0  0  0
  -22.0600   -2.7623   23.2839 H   0  0  0  0  0  0
  -22.4066  -11.9817   22.4869 H   0  0  0  0  0  0
  -21.1034  -13.1112   22.2675 H   0  0  0  0  0  0
  -24.6233  -15.8405   20.5213 H   0  0  0  0  0  0
  -26.2398  -15.6439   20.0721 H   0  0  0  0  0  0
  -26.7352  -32.5138   23.0900 H   0  0  0  0  0  0
  -25.0186  -33.9565   25.0255 H   0  0  0  0  0  0
  -22.7860  -31.2767   21.3529 H   0  0  0  0  0  0
  -23.3777  -35.9511   23.3294 H   0  0  0  0  0  0
  -24.3559  -36.8847   22.2067 H   0  0  0  0  0  0
  -23.7221  -37.6356   23.6734 H   0  0  0  0  0  0
  -26.2346  -31.3859   20.6247 H   0  0  0  0  0  0
  -26.8973  -30.6831   22.0643 H   0  0  0  0  0  0
  -28.1370  -28.6272   21.2690 H   0  0  0  0  0  0
  -25.8005  -25.7567   19.0552 H   0  0  0  0  0  0
  -23.9790  -27.2795   18.9806 H   0  0  0  0  0  0
  -23.8796  -30.5472   19.3941 H   0  0  0  0  0  0
  -22.8216  -29.2379   19.8122 H   0  0  0  0  0  0
  -25.1312  -36.1727   25.0791 H   0  0  0  0  0  0
  -21.0095  -28.3371   24.1292 H   0  0  0  0  0  0
  -20.5727  -26.2390   23.3625 H   0  0  0  0  0  0
  -21.6680  -26.7438   22.1180 H   0  0  0  0  0  0
  -19.6982  -25.6261   21.1296 H   0  0  0  0  0  0
  -19.6758  -27.3156   20.6737 H   0  0  0  0  0  0
  -17.4248  -26.6741   21.4013 H   0  0  0  0  0  0
  -18.0359  -26.0106   22.8998 H   0  0  0  0  0  0
  -19.8002  -30.7333   24.2201 H   0  0  0  0  0  0
  -17.5086  -31.6305   24.5167 H   0  0  0  0  0  0
  -15.5408  -30.3019   23.7727 H   0  0  0  0  0  0
  -15.8714  -28.0859   22.7096 H   0  0  0  0  0  0
  -24.5883  -30.7154   25.7612 H   0  0  0  0  0  0
  -24.8794  -32.3025   26.4629 H   0  0  0  0  0  0
  -25.7831  -30.9053   27.0233 H   0  0  0  0  0  0
  -26.3148  -29.6637   24.1433 H   0  0  0  0  0  0
  -27.3983  -29.7337   25.5116 H   0  0  0  0  0  0
  -27.9070  -30.4196   23.9896 H   0  0  0  0  0  0
  -27.2662  -33.3791   26.1903 H   0  0  0  0  0  0
  -28.3916  -32.6820   25.0358 H   0  0  0  0  0  0
  -28.0664  -31.8649   26.5533 H   0  0  0  0  0  0
  -28.2516  -38.0098   24.7507 H   0  0  0  0  0  0
  -28.1078  -36.2598   24.6264 H   0  0  0  0  0  0
  -27.2276  -37.1314   25.8880 H   0  0  0  0  0  0
  -20.9570  -29.8770   21.6652 H   0  0  0  0  0  0
  -26.0079  -38.2735   24.1493 H   0  0  0  0  0  0
  -31.0068  -20.1823   18.9740 H   0  0  0  0  0  0
  -28.1752  -23.7177   17.5040 H   0  0  0  0  0  0
  -27.5991  -25.3500   17.7237 H   0  0  0  0  0  0
  -26.6538  -23.9673   18.3161 H   0  0  0  0  0  0
  -36.1813  -25.1876   18.4857 H   0  0  0  0  0  0
  -34.6637  -25.8029   17.8591 H   0  0  0  0  0  0
  -35.5263  -24.5373   16.9877 H   0  0  0  0  0  0
  -36.2687  -22.7900   19.5388 H   0  0  0  0  0  0
  -35.6783  -22.1508   18.0115 H   0  0  0  0  0  0
  -34.8395  -21.7783   19.5138 H   0  0  0  0  0  0
  -30.4333  -23.5469   17.8750 H   0  0  0  0  0  0
  -31.0548  -21.9772   17.5653 H   0  0  0  0  0  0
  -30.3088  -18.0645   21.6873 H   0  0  0  0  0  0
  -31.1197  -18.0686   20.1827 H   0  0  0  0  0  0
  -32.5552  -22.1433   19.5924 H   0  0  0  0  0  0
  -31.9859  -23.7737   19.8596 H   0  0  0  0  0  0
  -29.3885  -24.7202   19.2514 H   0  0  0  0  0  0
  -34.3067  -24.2572   19.7747 H   0  0  0  0  0  0
  -28.7163  -16.2892   20.3994 H   0  0  0  0  0  0
  -32.8524  -24.3818   17.7408 H   0  0  0  0  0  0
  -33.3448  -22.8701   17.4031 H   0  0  0  0  0  0
  1 25  1  0  0  0
  1 30  2  0  0  0
  1 85  1  0  0  0
  2  3  1  0  0  0
  2 25  1  0  0  0
  2 89  1  0  0  0
  2 90  1  0  0  0
  3  4  1  0  0  0
  3 91  1  0  0  0
  3 92  1  0  0  0
  4  5  1  0  0  0
  4 93  1  0  0  0
  4 94  1  0  0  0
  5  6  1  0  0  0
  5 26  1  0  0  0
  5 95  1  0  0  0
  6 25  1  0  0  0
  6 96  1  0  0  0
  6 97  1  0  0  0
  7  8  2  0  0  0
  7 26  1  0  0  0
  7 29  1  0  0  0
  8  9  1  0  0  0
  8 22  1  0  0  0
  9 10  1  0  0  0
  9 27  2  0  0  0
 10 11  2  0  0  0
 10 15  1  0  0  0
 11 12  1  0  0  0
 11 98  1  0  0  0
 12 13  2  0  0  0
 12 99  1  0  0  0
 13 14  1  0  0  0
 13 31  1  0  0  0
 14 15  2  0  0  0
 14100  1  0  0  0
 15101  1  0  0  0
 16 17  2  0  0  0
 16 21  1  0  0  0
 16 31  1  0  0  0
 17 18  1  0  0  0
 17102  1  0  0  0
 18 19  2  0  0  0
 18103  1  0  0  0
 19 20  1  0  0  0
 19 24  1  0  0  0
 20 21  2  0  0  0
 20104  1  0  0  0
 21 23  1  0  0  0
 22 28  1  0  0  0
 22 32  2  0  0  0
 26 27  1  0  0  0
 28105  1  0  0  0
 28106  1  0  0  0
 29107  1  0  0  0
 29108  1  0  0  0
 33 34  1  0  0  0
 33 66  1  0  0  0
 33 70  2  0  0  0
 34 36  1  0  0  0
 34 59  1  0  0  0
 34109  1  0  0  0
 35 44  2  0  0  0
 35 45  1  0  0  0
 35 68  1  0  0  0
 36 56  1  0  0  0
 36110  1  0  0  0
 37 39  1  0  0  0
 37 47  1  0  0  0
 37 66  1  0  0  0
 37111  1  0  0  0
 38 43  2  0  0  0
 38 46  1  0  0  0
 38 47  1  0  0  0
 39 64  1  0  0  0
 39 67  2  0  0  0
 40 52  1  0  0  0
 40 53  2  0  0  0
 40 58  1  0  0  0
 41112  1  0  0  0
 41113  1  0  0  0
 41114  1  0  0  0
 41 48  1  0  0  0
 42 43  1  0  0  0
 42 66  1  0  0  0
 42115  1  0  0  0
 42116  1  0  0  0
 43 44  1  0  0  0
 44117  1  0  0  0
 45 46  2  0  0  0
 45118  1  0  0  0
 46119  1  0  0  0
 47120  1  0  0  0
 47121  1  0  0  0
 48 56  1  0  0  0
 48 65  1  0  0  0
 48122  1  0  0  0
 49 50  1  0  0  0
 49 53  1  0  0  0
 49 64  1  0  0  0
 49123  1  0  0  0
 50 51  1  0  0  0
 50124  1  0  0  0
 50125  1  0  0  0
 51 52  1  0  0  0
 51126  1  0  0  0
 51127  1  0  0  0
 52128  1  0  0  0
 52129  1  0  0  0
 53 54  1  0  0  0
 54 55  2  0  0  0
 54130  1  0  0  0
 55 57  1  0  0  0
 55131  1  0  0  0
 56 69  2  0  0  0
 57 58  2  0  0  0
 57132  1  0  0  0
 58133  1  0  0  0
 59 60  1  0  0  0
 59 61  1  0  0  0
 59 62  1  0  0  0
 60134  1  0  0  0
 60135  1  0  0  0
 60136  1  0  0  0
 61137  1  0  0  0
 61138  1  0  0  0
 61139  1  0  0  0
 62140  1  0  0  0
 62141  1  0  0  0
 62142  1  0  0  0
 63 65  1  0  0  0
 63143  1  0  0  0
 63144  1  0  0  0
 63145  1  0  0  0
 64146  1  0  0  0
 65147  1  0  0  0
 68 83  1  0  0  0
 71 72  2  0  0  0
 71 73  1  0  0  0
 71148  1  0  0  0
 72 74  1  0  0  0
 72 80  1  0  0  0
 73 75  2  0  0  0
 73 81  1  0  0  0
 74 76  2  0  0  0
 74 83  1  0  0  0
 75 76  1  0  0  0
 75 87  1  0  0  0
 76 88  1  0  0  0
 77149  1  0  0  0
 77150  1  0  0  0
 77151  1  0  0  0
 77 83  1  0  0  0
 78152  1  0  0  0
 78153  1  0  0  0
 78154  1  0  0  0
 78 84  1  0  0  0
 79 84  1  0  0  0
 79155  1  0  0  0
 79156  1  0  0  0
 79157  1  0  0  0
 80 82  1  0  0  0
 80158  1  0  0  0
 80159  1  0  0  0
 81 85  1  0  0  0
 81160  1  0  0  0
 81161  1  0  0  0
 82 86  1  0  0  0
 82162  1  0  0  0
 82163  1  0  0  0
 83164  1  0  0  0
 84 86  1  0  0  0
 84165  1  0  0  0
 85166  1  0  0  0
 86167  1  0  0  0
 86168  1  0  0  0
M  CHG  1  86   1
M  ISO  4   1 100  68 101  83 101  85 100
M  END
> <chiral flag>
0

> <version>
0

> <s_m_source_file>
/data/baiqing/PycharmProjects/Reinvent-master-3.2/result/LINK_invent/BTK/process_docking_weight1_custom_sum_contain_oxygen_bond_distance_aromatic_linkinvent_7_9_3/rearranged_h_0026.sdf

> <i_m_source_file_index>
57

> <r_mmod_Potential_Energy-OPLS-2005>
993.243774414062

> <r_mmod_Stretch_Energy-OPLS-2005>
463.645141601562

> <r_mmod_Bend_Energy-OPLS-2005>
484.318939208984

> <r_mmod_Torsional_Energy-OPLS-2005>
240.213226318359

> <r_mmod_Improper_Torsional_Energy-OPLS-2005>
9.33681297302246

> <r_mmod_Van_der_Waal_Energy-OPLS-2005>
134.934829711914

> <r_mmod_Electrostatic_Energy-OPLS-2005>
-240.366989135742

> <r_mmod_Solvation_Energy-OPLS-2005>
-485.863739013672

> <b_mmod_Minimization_Converged-OPLS-2005>
0

> <r_mmod_RMS_Derivative-OPLS-2005>
3.59013533592224

$$$$
57
                    3D
 Structure written by MMmdl.
161169  0  0  1  0            999 V2000
  -30.6781  -14.4750   20.5459 C   0  0  0  0  0  0
  -30.4187  -12.3033   19.4134 C   0  0  0  0  0  0
  -29.4807  -12.4808   18.1999 C   0  0  0  0  0  0
  -28.0018  -12.3514   18.6194 C   0  0  0  0  0  0
  -27.6516  -13.2045   19.8659 C   0  0  2  0  0  0
  -28.6948  -12.9939   20.9816 C   0  0  0  0  0  0
  -25.2571  -13.8161   20.5744 C   0  0  0  0  0  0
  -24.1823  -13.0436   20.9215 C   0  0  0  0  0  0
  -24.6374  -11.6905   20.8763 C   0  0  0  0  0  0
  -23.9048  -10.4293   21.0440 C   0  0  0  0  0  0
  -24.3604   -9.4202   21.9206 C   0  0  0  0  0  0
  -23.6293   -8.2228   22.0768 C   0  0  0  0  0  0
  -22.4277   -8.0271   21.3547 C   0  0  0  0  0  0
  -21.9906   -9.0241   20.4651 C   0  0  0  0  0  0
  -22.7225  -10.2125   20.3094 C   0  0  0  0  0  0
  -21.6835   -6.0746   22.5289 C   0  0  0  0  0  0
  -21.3998   -6.5652   23.8221 C   0  0  0  0  0  0
  -21.3667   -5.6806   24.9180 C   0  0  0  0  0  0
  -21.6038   -4.3075   24.7222 C   0  0  0  0  0  0
  -21.8817   -3.8172   23.4340 C   0  0  0  0  0  0
  -21.9191   -4.6987   22.3402 C   0  0  0  0  0  0
  -22.7842  -13.5219   21.1879 C   0  0  0  0  0  0
  -22.1677   -4.2175   21.0974 F   0  0  0  0  0  0
  -21.5634   -3.4556   25.7734 F   0  0  0  0  0  0
  -30.0185  -13.2961   20.4192 N   0  0  0  0  0  0
  -26.2979  -12.9334   20.3381 N   0  0  0  0  0  0
  -25.9297  -11.6492   20.5775 N   0  0  0  0  0  0
  -22.0494  -12.8191   22.0422 N   0  0  0  0  0  0
  -25.4294  -15.1873   20.4160 N   0  0  0  0  0  0
  -31.8588  -14.6218   20.2235 O   0  0  0  0  0  0
  -21.6624   -6.8879   21.4252 O   0  0  0  0  0  0
  -22.3517  -14.5534   20.6757 O   0  0  0  0  0  0
  -24.6121  -31.8643   23.2093 C   0  0  0  0  0  0
  -25.9032  -32.4792   23.8362 C   0  0  1  0  0  0
  -27.2403  -27.4188   20.1012 C   0  0  0  0  0  0
  -25.5911  -33.8600   24.2278 N   0  0  0  0  0  0
  -23.3999  -30.4847   21.5507 C   0  0  2  0  0  0
  -24.8468  -28.9477   20.1179 C   0  0  0  0  0  0
  -22.7395  -29.4611   22.5016 C   0  0  0  0  0  0
  -18.0248  -28.1370   22.8469 C   0  0  0  0  0  0
  -24.1508  -36.7305   23.2629 C   0  0  0  0  0  0
  -25.9281  -30.8274   21.3632 C   0  0  0  0  0  0
  -26.0051  -29.4584   20.7146 C   0  0  0  0  0  0
  -27.1975  -28.6988   20.7072 C   0  0  0  0  0  0
  -26.0524  -26.9179   19.5160 C   0  0  0  0  0  0
  -24.8643  -27.6748   19.5228 C   0  0  0  0  0  0
  -23.6084  -29.8144   20.1660 C   0  0  0  0  0  0
  -25.4130  -36.3088   24.0315 C   0  0  1  0  0  0
  -20.5831  -28.3628   23.1341 C   0  0  2  0  0  0
  -20.6759  -26.9376   22.5418 C   0  0  0  0  0  0
  -19.5749  -26.6370   21.5216 C   0  0  0  0  0  0
  -18.1916  -26.7902   22.1606 C   0  0  0  0  0  0
  -19.1495  -28.8820   23.2885 C   0  0  0  0  0  0
  -18.9435  -30.1440   23.8868 C   0  0  0  0  0  0
  -17.6446  -30.6580   24.0542 C   0  0  0  0  0  0
  -25.9052  -34.9454   23.5084 C   0  0  0  0  0  0
  -16.5335  -29.9069   23.6341 C   0  0  0  0  0  0
  -16.7242  -28.6497   23.0334 C   0  0  0  0  0  0
  -26.4460  -31.6590   25.0705 C   0  0  0  0  0  0
  -25.3746  -31.3702   26.1475 C   0  0  0  0  0  0
  -27.0276  -30.3027   24.6077 C   0  0  0  0  0  0
  -27.6014  -32.4314   25.7483 C   0  0  0  0  0  0
  -27.5581  -37.1803   24.8446 C   0  0  0  0  0  0
  -21.4120  -29.2992   22.3761 N   0  0  0  0  0  0
  -26.4287  -37.3793   23.9409 N   0  0  0  0  0  0
  -24.6644  -31.0747   22.0985 N   0  0  0  0  0  0
  -23.4165  -28.8162   23.3073 O   0  0  0  0  0  0
  -28.4412  -26.7302   20.1305 O   0  0  0  0  0  0
  -26.5610  -34.8911   22.4641 O   0  0  0  0  0  0
  -23.5325  -32.1391   23.7513 O   0  0  0  0  0  0
  -29.8436  -19.3426   20.4880 C   0  0  0  0  0  0
  -30.0607  -18.0288   20.0018 C   0  0  0  0  0  0
  -30.0062  -18.9612   17.7248 C   0  0  0  0  0  0
  -29.7601  -20.4988   19.6570 C   0  0  0  0  0  0
  -30.1223  -17.8466   18.5931 C   0  0  0  0  0  0
  -29.8599  -20.2754   18.2415 C   0  0  0  0  0  0
  -30.0971  -18.7594   16.2076 C   0  0  0  0  0  0
  -30.4817  -21.9215   21.4983 C   0  0  0  0  0  0
  -30.3441  -16.9251   21.0576 C   0  0  0  0  0  0
  -28.8246  -24.2573   20.3580 C   0  0  0  0  0  0
  -29.3057  -23.0101   19.5577 C   0  0  0  0  0  0
  -28.6408  -25.4907   19.4260 C   0  0  0  0  0  0
  -29.8980  -15.5349   20.8484 N   0  0  0  0  0  0
  -29.6416  -21.7780   20.3035 N   0  0  0  0  0  0
  -30.3987  -16.2908   17.8915 Cl  0  0  0  0  0  0
  -29.8940  -21.5631   17.0703 Cl  0  0  0  0  0  0
  -31.4602  -12.4179   19.1052 H   0  0  0  0  0  0
  -30.3349  -11.2965   19.8253 H   0  0  0  0  0  0
  -29.7114  -11.7433   17.4315 H   0  0  0  0  0  0
  -29.6467  -13.4604   17.7485 H   0  0  0  0  0  0
  -27.8070  -11.2977   18.8282 H   0  0  0  0  0  0
  -27.3489  -12.6223   17.7893 H   0  0  0  0  0  0
  -27.6924  -14.2463   19.5473 H   0  0  0  0  0  0
  -28.6699  -11.9610   21.3313 H   0  0  0  0  0  0
  -28.4658  -13.6055   21.8566 H   0  0  0  0  0  0
  -25.2760   -9.5670   22.4763 H   0  0  0  0  0  0
  -24.0017   -7.4602   22.7476 H   0  0  0  0  0  0
  -21.0848   -8.8747   19.8916 H   0  0  0  0  0  0
  -22.3705  -10.9666   19.6202 H   0  0  0  0  0  0
  -21.1981   -7.6162   23.9733 H   0  0  0  0  0  0
  -21.1496   -6.0540   25.9084 H   0  0  0  0  0  0
  -22.0586   -2.7638   23.2830 H   0  0  0  0  0  0
  -22.4126  -11.9843   22.4782 H   0  0  0  0  0  0
  -21.1130  -13.1221   22.2685 H   0  0  0  0  0  0
  -24.6573  -15.8379   20.5142 H   0  0  0  0  0  0
  -26.2706  -15.6235   20.0614 H   0  0  0  0  0  0
  -26.7105  -32.5494   23.1124 H   0  0  0  0  0  0
  -25.0113  -33.9763   25.0454 H   0  0  0  0  0  0
  -22.6857  -31.2989   21.4125 H   0  0  0  0  0  0
  -23.3769  -35.9635   23.3255 H   0  0  0  0  0  0
  -24.3613  -36.8970   22.2055 H   0  0  0  0  0  0
  -23.7272  -37.6493   23.6688 H   0  0  0  0  0  0
  -26.0458  -31.5941   20.5952 H   0  0  0  0  0  0
  -26.8116  -30.8758   21.9873 H   0  0  0  0  0  0
  -28.0900  -29.0922   21.1742 H   0  0  0  0  0  0
  -26.0031  -25.9378   19.0696 H   0  0  0  0  0  0
  -23.9680  -27.2678   19.0757 H   0  0  0  0  0  0
  -23.7206  -30.5875   19.4061 H   0  0  0  0  0  0
  -22.7318  -29.2352   19.8678 H   0  0  0  0  0  0
  -25.1326  -36.1909   25.0806 H   0  0  0  0  0  0
  -20.9889  -28.3200   24.1478 H   0  0  0  0  0  0
  -20.5722  -26.2218   23.3585 H   0  0  0  0  0  0
  -21.6626  -26.7470   22.1184 H   0  0  0  0  0  0
  -19.6918  -25.6289   21.1232 H   0  0  0  0  0  0
  -19.6712  -27.3188   20.6759 H   0  0  0  0  0  0
  -17.4188  -26.6616   21.4010 H   0  0  0  0  0  0
  -18.0328  -26.0064   22.9019 H   0  0  0  0  0  0
  -19.7923  -30.7260   24.2223 H   0  0  0  0  0  0
  -17.5010  -31.6276   24.5118 H   0  0  0  0  0  0
  -15.5334  -30.2961   23.7731 H   0  0  0  0  0  0
  -15.8625  -28.0853   22.7031 H   0  0  0  0  0  0
  -24.5920  -30.7024   25.7861 H   0  0  0  0  0  0
  -24.8940  -32.2858   26.4922 H   0  0  0  0  0  0
  -25.8136  -30.8907   27.0230 H   0  0  0  0  0  0
  -26.2805  -29.6811   24.1126 H   0  0  0  0  0  0
  -27.4038  -29.7247   25.4524 H   0  0  0  0  0  0
  -27.8647  -30.4340   23.9219 H   0  0  0  0  0  0
  -27.2601  -33.3613   26.2045 H   0  0  0  0  0  0
  -28.3839  -32.6865   25.0326 H   0  0  0  0  0  0
  -28.0645  -31.8440   26.5422 H   0  0  0  0  0  0
  -28.2559  -38.0139   24.7547 H   0  0  0  0  0  0
  -28.1111  -36.2664   24.6206 H   0  0  0  0  0  0
  -27.2286  -37.1375   25.8841 H   0  0  0  0  0  0
  -20.9290  -29.8694   21.6959 H   0  0  0  0  0  0
  -26.0144  -38.2840   24.1475 H   0  0  0  0  0  0
  -29.7782  -19.4613   21.5611 H   0  0  0  0  0  0
  -29.8344  -17.7559   15.8804 H   0  0  0  0  0  0
  -31.1113  -18.9685   15.8648 H   0  0  0  0  0  0
  -29.4102  -19.4126   15.6677 H   0  0  0  0  0  0
  -29.9058  -21.6951   22.3967 H   0  0  0  0  0  0
  -30.8855  -22.9267   21.6071 H   0  0  0  0  0  0
  -31.3448  -21.2524   21.4794 H   0  0  0  0  0  0
  -29.8859  -17.2325   21.9986 H   0  0  0  0  0  0
  -31.4173  -16.9385   21.2562 H   0  0  0  0  0  0
  -29.5584  -24.5251   21.1159 H   0  0  0  0  0  0
  -27.8946  -24.0478   20.8866 H   0  0  0  0  0  0
  -30.1894  -23.3083   18.9904 H   0  0  0  0  0  0
  -28.5106  -22.7762   18.8482 H   0  0  0  0  0  0
  -27.9130  -25.2899   18.6441 H   0  0  0  0  0  0
  -29.5756  -25.6286   18.8820 H   0  0  0  0  0  0
  -28.9208  -15.3406   21.0052 H   0  0  0  0  0  0
  1 25  1  0  0  0
  1 30  2  0  0  0
  1 83  1  0  0  0
  2  3  1  0  0  0
  2 25  1  0  0  0
  2 87  1  0  0  0
  2 88  1  0  0  0
  3  4  1  0  0  0
  3 89  1  0  0  0
  3 90  1  0  0  0
  4  5  1  0  0  0
  4 91  1  0  0  0
  4 92  1  0  0  0
  5  6  1  0  0  0
  5 26  1  0  0  0
  5 93  1  0  0  0
  6 25  1  0  0  0
  6 94  1  0  0  0
  6 95  1  0  0  0
  7  8  2  0  0  0
  7 26  1  0  0  0
  7 29  1  0  0  0
  8  9  1  0  0  0
  8 22  1  0  0  0
  9 10  1  0  0  0
  9 27  2  0  0  0
 10 11  2  0  0  0
 10 15  1  0  0  0
 11 12  1  0  0  0
 11 96  1  0  0  0
 12 13  2  0  0  0
 12 97  1  0  0  0
 13 14  1  0  0  0
 13 31  1  0  0  0
 14 15  2  0  0  0
 14 98  1  0  0  0
 15 99  1  0  0  0
 16 17  2  0  0  0
 16 21  1  0  0  0
 16 31  1  0  0  0
 17 18  1  0  0  0
 17100  1  0  0  0
 18 19  2  0  0  0
 18101  1  0  0  0
 19 20  1  0  0  0
 19 24  1  0  0  0
 20 21  2  0  0  0
 20102  1  0  0  0
 21 23  1  0  0  0
 22 28  1  0  0  0
 22 32  2  0  0  0
 26 27  1  0  0  0
 28103  1  0  0  0
 28104  1  0  0  0
 29105  1  0  0  0
 29106  1  0  0  0
 33 34  1  0  0  0
 33 66  1  0  0  0
 33 70  2  0  0  0
 34 36  1  0  0  0
 34 59  1  0  0  0
 34107  1  0  0  0
 35 44  2  0  0  0
 35 45  1  0  0  0
 35 68  1  0  0  0
 36 56  1  0  0  0
 36108  1  0  0  0
 37 39  1  0  0  0
 37 47  1  0  0  0
 37 66  1  0  0  0
 37109  1  0  0  0
 38 43  2  0  0  0
 38 46  1  0  0  0
 38 47  1  0  0  0
 39 64  1  0  0  0
 39 67  2  0  0  0
 40 52  1  0  0  0
 40 53  2  0  0  0
 40 58  1  0  0  0
 41110  1  0  0  0
 41111  1  0  0  0
 41112  1  0  0  0
 41 48  1  0  0  0
 42 43  1  0  0  0
 42 66  1  0  0  0
 42113  1  0  0  0
 42114  1  0  0  0
 43 44  1  0  0  0
 44115  1  0  0  0
 45 46  2  0  0  0
 45116  1  0  0  0
 46117  1  0  0  0
 47118  1  0  0  0
 47119  1  0  0  0
 48 56  1  0  0  0
 48 65  1  0  0  0
 48120  1  0  0  0
 49 50  1  0  0  0
 49 53  1  0  0  0
 49 64  1  0  0  0
 49121  1  0  0  0
 50 51  1  0  0  0
 50122  1  0  0  0
 50123  1  0  0  0
 51 52  1  0  0  0
 51124  1  0  0  0
 51125  1  0  0  0
 52126  1  0  0  0
 52127  1  0  0  0
 53 54  1  0  0  0
 54 55  2  0  0  0
 54128  1  0  0  0
 55 57  1  0  0  0
 55129  1  0  0  0
 56 69  2  0  0  0
 57 58  2  0  0  0
 57130  1  0  0  0
 58131  1  0  0  0
 59 60  1  0  0  0
 59 61  1  0  0  0
 59 62  1  0  0  0
 60132  1  0  0  0
 60133  1  0  0  0
 60134  1  0  0  0
 61135  1  0  0  0
 61136  1  0  0  0
 61137  1  0  0  0
 62138  1  0  0  0
 62139  1  0  0  0
 62140  1  0  0  0
 63 65  1  0  0  0
 63141  1  0  0  0
 63142  1  0  0  0
 63143  1  0  0  0
 64144  1  0  0  0
 65145  1  0  0  0
 68 82  1  0  0  0
 71 72  2  0  0  0
 71 74  1  0  0  0
 71146  1  0  0  0
 72 75  1  0  0  0
 72 79  1  0  0  0
 73 75  2  0  0  0
 73 76  1  0  0  0
 73 77  1  0  0  0
 74 76  2  0  0  0
 74 84  1  0  0  0
 75 85  1  0  0  0
 76 86  1  0  0  0
 77147  1  0  0  0
 77148  1  0  0  0
 77149  1  0  0  0
 78 84  1  0  0  0
 78150  1  0  0  0
 78151  1  0  0  0
 78152  1  0  0  0
 79 83  1  0  0  0
 79153  1  0  0  0
 79154  1  0  0  0
 80 81  1  0  0  0
 80 82  1  0  0  0
 80155  1  0  0  0
 80156  1  0  0  0
 81 84  1  0  0  0
 81157  1  0  0  0
 81158  1  0  0  0
 82159  1  0  0  0
 82160  1  0  0  0
 83161  1  0  0  0
M  ISO  4   1 100  68 101  82 101  83 100
M  END
> <chiral flag>
0

> <version>
0

> <s_m_source_file>
/data/baiqing/PycharmProjects/Reinvent-master-3.2/result/LINK_invent/BTK/process_docking_weight1_custom_sum_contain_oxygen_bond_distance_aromatic_linkinvent_7_9_3/rearranged_h_0026.sdf

> <i_m_source_file_index>
58

> <r_mmod_Potential_Energy-OPLS-2005>
5.27499485015869

> <r_mmod_Stretch_Energy-OPLS-2005>
50.339412689209

> <r_mmod_Bend_Energy-OPLS-2005>
141.146377563477

> <r_mmod_Torsional_Energy-OPLS-2005>
192.613662719727

> <r_mmod_Improper_Torsional_Energy-OPLS-2005>
7.27665615081787

> <r_mmod_Van_der_Waal_Energy-OPLS-2005>
187.893402099609

> <r_mmod_Electrostatic_Energy-OPLS-2005>
-368.809173583984

> <r_mmod_Solvation_Energy-OPLS-2005>
-223.561187744141

> <b_mmod_Minimization_Converged-OPLS-2005>
0

> <r_mmod_RMS_Derivative-OPLS-2005>
3.41041588783264

$$$$
58
                    3D
 Structure written by MMmdl.
171179  0  0  1  0            999 V2000
  -30.6938  -14.4995   20.5167 C   0  0  0  0  0  0
  -30.4164  -12.3050   19.4342 C   0  0  0  0  0  0
  -29.4928  -12.4930   18.2122 C   0  0  0  0  0  0
  -28.0123  -12.3696   18.6216 C   0  0  0  0  0  0
  -27.6591  -13.2130   19.8756 C   0  0  2  0  0  0
  -28.7040  -13.0227   20.9994 C   0  0  0  0  0  0
  -25.2578  -13.8176   20.5696 C   0  0  0  0  0  0
  -24.1835  -13.0447   20.9187 C   0  0  0  0  0  0
  -24.6399  -11.6916   20.8747 C   0  0  0  0  0  0
  -23.9067  -10.4295   21.0408 C   0  0  0  0  0  0
  -24.3619   -9.4210   21.9187 C   0  0  0  0  0  0
  -23.6293   -8.2247   22.0756 C   0  0  0  0  0  0
  -22.4280   -8.0281   21.3544 C   0  0  0  0  0  0
  -21.9919   -9.0254   20.4642 C   0  0  0  0  0  0
  -22.7246  -10.2131   20.3053 C   0  0  0  0  0  0
  -21.6855   -6.0736   22.5277 C   0  0  0  0  0  0
  -21.4011   -6.5637   23.8209 C   0  0  0  0  0  0
  -21.3652   -5.6789   24.9168 C   0  0  0  0  0  0
  -21.6051   -4.3059   24.7220 C   0  0  0  0  0  0
  -21.8820   -3.8149   23.4342 C   0  0  0  0  0  0
  -21.9192   -4.6966   22.3404 C   0  0  0  0  0  0
  -22.7856  -13.5237   21.1853 C   0  0  0  0  0  0
  -22.1665   -4.2156   21.0982 F   0  0  0  0  0  0
  -21.5631   -3.4546   25.7727 F   0  0  0  0  0  0
  -30.0310  -13.3128   20.4359 N   0  0  0  0  0  0
  -26.3020  -12.9358   20.3392 N   0  0  0  0  0  0
  -25.9332  -11.6512   20.5801 N   0  0  0  0  0  0
  -22.0509  -12.8194   22.0398 N   0  0  0  0  0  0
  -25.4303  -15.1894   20.4088 N   0  0  0  0  0  0
  -31.8500  -14.6409   20.1117 O   0  0  0  0  0  0
  -21.6641   -6.8881   21.4237 O   0  0  0  0  0  0
  -22.3539  -14.5549   20.6726 O   0  0  0  0  0  0
  -24.6155  -31.8662   23.2090 C   0  0  0  0  0  0
  -25.9046  -32.4810   23.8380 C   0  0  1  0  0  0
  -27.2335  -27.4053   20.0989 C   0  0  0  0  0  0
  -25.5898  -33.8615   24.2321 N   0  0  0  0  0  0
  -23.4028  -30.4905   21.5502 C   0  0  2  0  0  0
  -24.8486  -28.9518   20.1167 C   0  0  0  0  0  0
  -22.7407  -29.4646   22.4987 C   0  0  0  0  0  0
  -18.0271  -28.1348   22.8499 C   0  0  0  0  0  0
  -24.1473  -36.7289   23.2647 C   0  0  0  0  0  0
  -25.9352  -30.8234   21.3659 C   0  0  0  0  0  0
  -26.0097  -29.4545   20.7147 C   0  0  0  0  0  0
  -27.1999  -28.6894   20.7005 C   0  0  0  0  0  0
  -26.0479  -26.9239   19.4951 C   0  0  0  0  0  0
  -24.8644  -27.6864   19.5062 C   0  0  0  0  0  0
  -23.6119  -29.8217   20.1653 C   0  0  0  0  0  0
  -25.4102  -36.3100   24.0349 C   0  0  1  0  0  0
  -20.5869  -28.3638   23.1319 C   0  0  2  0  0  0
  -20.6761  -26.9371   22.5417 C   0  0  0  0  0  0
  -19.5735  -26.6363   21.5210 C   0  0  0  0  0  0
  -18.1911  -26.7897   22.1628 C   0  0  0  0  0  0
  -19.1528  -28.8809   23.2901 C   0  0  0  0  0  0
  -18.9463  -30.1411   23.8905 C   0  0  0  0  0  0
  -17.6471  -30.6563   24.0558 C   0  0  0  0  0  0
  -25.9048  -34.9469   23.5139 C   0  0  0  0  0  0
  -16.5360  -29.9063   23.6335 C   0  0  0  0  0  0
  -16.7264  -28.6483   23.0361 C   0  0  0  0  0  0
  -26.4480  -31.6592   25.0710 C   0  0  0  0  0  0
  -25.3743  -31.3662   26.1450 C   0  0  0  0  0  0
  -27.0348  -30.3059   24.6056 C   0  0  0  0  0  0
  -27.6030  -32.4334   25.7494 C   0  0  0  0  0  0
  -27.5570  -37.1797   24.8480 C   0  0  0  0  0  0
  -21.4142  -29.3013   22.3734 N   0  0  0  0  0  0
  -26.4285  -37.3788   23.9423 N   0  0  0  0  0  0
  -24.6693  -31.0736   22.1001 N   0  0  0  0  0  0
  -23.4182  -28.8178   23.3028 O   0  0  0  0  0  0
  -28.4322  -26.7097   20.1042 O   0  0  0  0  0  0
  -26.5600  -34.8924   22.4694 O   0  0  0  0  0  0
  -23.5349  -32.1433   23.7474 O   0  0  0  0  0  0
  -31.5167  -19.0015   21.6076 C   0  0  0  0  0  0
  -29.0709  -18.4456   22.3190 C   0  0  0  0  0  0
  -31.0294  -20.4266   21.2573 C   0  0  0  0  0  0
  -28.7082  -19.9165   21.9614 C   0  0  0  0  0  0
  -30.4189  -17.9021   21.7511 C   0  0  1  0  0  0
  -29.9091  -20.8445   22.2277 C   0  0  2  0  0  0
  -31.0156  -23.6438   25.6941 C   0  0  0  0  0  0
  -30.2700  -16.9811   20.5066 C   0  0  0  0  0  0
  -30.0804  -22.9219   24.7158 C   0  0  0  0  0  0
  -28.8613  -24.5340   21.1935 C   0  0  0  0  0  0
  -30.5660  -22.9942   23.2529 C   0  0  0  0  0  0
  -29.3994  -23.0645   21.0241 C   0  0  0  0  0  0
  -28.5065  -25.2813   19.8828 C   0  0  0  0  0  0
  -29.9411  -15.5743   20.8384 N   0  0  0  0  0  0
  -29.6130  -22.3235   22.3145 N   0  3  1  0  0  0
  -31.4631  -12.3884   19.1347 H   0  0  0  0  0  0
  -30.3050  -11.3012   19.8475 H   0  0  0  0  0  0
  -29.7268  -11.7544   17.4441 H   0  0  0  0  0  0
  -29.6686  -13.4706   17.7607 H   0  0  0  0  0  0
  -27.8084  -11.3158   18.8129 H   0  0  0  0  0  0
  -27.3683  -12.6554   17.7891 H   0  0  0  0  0  0
  -27.6934  -14.2572   19.5655 H   0  0  0  0  0  0
  -28.6803  -11.9995   21.3764 H   0  0  0  0  0  0
  -28.4802  -13.6598   21.8563 H   0  0  0  0  0  0
  -25.2761   -9.5687   22.4768 H   0  0  0  0  0  0
  -24.0003   -7.4639   22.7474 H   0  0  0  0  0  0
  -21.0859   -8.8767   19.8939 H   0  0  0  0  0  0
  -22.3708  -10.9674   19.6160 H   0  0  0  0  0  0
  -21.1998   -7.6144   23.9710 H   0  0  0  0  0  0
  -21.1476   -6.0522   25.9068 H   0  0  0  0  0  0
  -22.0606   -2.7615   23.2839 H   0  0  0  0  0  0
  -22.4138  -11.9835   22.4726 H   0  0  0  0  0  0
  -21.1135  -13.1210   22.2646 H   0  0  0  0  0  0
  -24.6650  -15.8465   20.5123 H   0  0  0  0  0  0
  -26.2813  -15.6245   20.0758 H   0  0  0  0  0  0
  -26.7113  -32.5522   23.1143 H   0  0  0  0  0  0
  -25.0039  -33.9779   25.0458 H   0  0  0  0  0  0
  -22.6922  -31.3084   21.4088 H   0  0  0  0  0  0
  -23.3749  -35.9601   23.3321 H   0  0  0  0  0  0
  -24.3555  -36.8901   22.2055 H   0  0  0  0  0  0
  -23.7211  -37.6493   23.6658 H   0  0  0  0  0  0
  -26.0481  -31.5860   20.5932 H   0  0  0  0  0  0
  -26.8246  -30.8784   21.9825 H   0  0  0  0  0  0
  -28.0992  -29.0751   21.1603 H   0  0  0  0  0  0
  -26.0028  -25.9720   18.9915 H   0  0  0  0  0  0
  -23.9720  -27.2966   19.0369 H   0  0  0  0  0  0
  -23.7183  -30.5970   19.4057 H   0  0  0  0  0  0
  -22.7350  -29.2430   19.8697 H   0  0  0  0  0  0
  -25.1267  -36.1963   25.0842 H   0  0  0  0  0  0
  -20.9962  -28.3189   24.1438 H   0  0  0  0  0  0
  -20.5667  -26.2219   23.3592 H   0  0  0  0  0  0
  -21.6622  -26.7396   22.1191 H   0  0  0  0  0  0
  -19.6894  -25.6274   21.1217 H   0  0  0  0  0  0
  -19.6692  -27.3196   20.6755 H   0  0  0  0  0  0
  -17.4182  -26.6670   21.4027 H   0  0  0  0  0  0
  -18.0299  -26.0014   22.9001 H   0  0  0  0  0  0
  -19.7947  -30.7215   24.2282 H   0  0  0  0  0  0
  -17.5033  -31.6261   24.5124 H   0  0  0  0  0  0
  -15.5361  -30.2968   23.7653 H   0  0  0  0  0  0
  -15.8666  -28.0805   22.7074 H   0  0  0  0  0  0
  -24.5922  -30.7018   25.7767 H   0  0  0  0  0  0
  -24.8920  -32.2793   26.4936 H   0  0  0  0  0  0
  -25.8084  -30.8798   27.0190 H   0  0  0  0  0  0
  -26.2886  -29.6796   24.1146 H   0  0  0  0  0  0
  -27.4220  -29.7310   25.4478 H   0  0  0  0  0  0
  -27.8659  -30.4442   23.9138 H   0  0  0  0  0  0
  -27.2630  -33.3636   26.2060 H   0  0  0  0  0  0
  -28.3843  -32.6904   25.0332 H   0  0  0  0  0  0
  -28.0679  -31.8466   26.5428 H   0  0  0  0  0  0
  -28.2580  -38.0099   24.7531 H   0  0  0  0  0  0
  -28.1077  -36.2629   24.6307 H   0  0  0  0  0  0
  -27.2278  -37.1443   25.8881 H   0  0  0  0  0  0
  -20.9272  -29.8755   21.6995 H   0  0  0  0  0  0
  -26.0178  -38.2868   24.1432 H   0  0  0  0  0  0
  -32.0389  -19.0697   22.5638 H   0  0  0  0  0  0
  -32.2876  -18.6909   20.9020 H   0  0  0  0  0  0
  -28.2506  -17.7810   22.0459 H   0  0  0  0  0  0
  -29.1270  -18.3832   23.4073 H   0  0  0  0  0  0
  -30.6814  -20.4649   20.2241 H   0  0  0  0  0  0
  -31.8745  -21.1122   21.3218 H   0  0  0  0  0  0
  -27.8512  -20.2236   22.5616 H   0  0  0  0  0  0
  -28.3926  -19.9863   20.9198 H   0  0  0  0  0  0
  -30.8164  -17.2354   22.5188 H   0  0  0  0  0  0
  -30.2467  -20.5690   23.2276 H   0  0  0  0  0  0
  -30.6341  -23.5789   26.7140 H   0  0  0  0  0  0
  -31.1095  -24.7017   25.4462 H   0  0  0  0  0  0
  -32.0168  -23.2086   25.6897 H   0  0  0  0  0  0
  -31.1849  -17.0134   19.9126 H   0  0  0  0  0  0
  -29.4985  -17.3733   19.8434 H   0  0  0  0  0  0
  -29.0893  -23.3719   24.7918 H   0  0  0  0  0  0
  -29.9715  -21.8864   25.0409 H   0  0  0  0  0  0
  -29.6074  -25.1592   21.6809 H   0  0  0  0  0  0
  -27.9920  -24.5428   21.8522 H   0  0  0  0  0  0
  -31.5604  -22.5552   23.1592 H   0  0  0  0  0  0
  -30.7187  -24.0425   23.0137 H   0  0  0  0  0  0
  -30.3319  -23.0786   20.4586 H   0  0  0  0  0  0
  -28.6860  -22.4972   20.4230 H   0  0  0  0  0  0
  -27.6302  -24.8259   19.4294 H   0  0  0  0  0  0
  -29.3121  -25.1284   19.1640 H   0  0  0  0  0  0
  -28.9999  -15.3827   21.1482 H   0  0  0  0  0  0
  -28.7244  -22.3811   22.7888 H   0  0  0  0  0  0
  1 25  1  0  0  0
  1 30  2  0  0  0
  1 84  1  0  0  0
  2  3  1  0  0  0
  2 25  1  0  0  0
  2 86  1  0  0  0
  2 87  1  0  0  0
  3  4  1  0  0  0
  3 88  1  0  0  0
  3 89  1  0  0  0
  4  5  1  0  0  0
  4 90  1  0  0  0
  4 91  1  0  0  0
  5  6  1  0  0  0
  5 26  1  0  0  0
  5 92  1  0  0  0
  6 25  1  0  0  0
  6 93  1  0  0  0
  6 94  1  0  0  0
  7  8  2  0  0  0
  7 26  1  0  0  0
  7 29  1  0  0  0
  8  9  1  0  0  0
  8 22  1  0  0  0
  9 10  1  0  0  0
  9 27  2  0  0  0
 10 11  2  0  0  0
 10 15  1  0  0  0
 11 12  1  0  0  0
 11 95  1  0  0  0
 12 13  2  0  0  0
 12 96  1  0  0  0
 13 14  1  0  0  0
 13 31  1  0  0  0
 14 15  2  0  0  0
 14 97  1  0  0  0
 15 98  1  0  0  0
 16 17  2  0  0  0
 16 21  1  0  0  0
 16 31  1  0  0  0
 17 18  1  0  0  0
 17 99  1  0  0  0
 18 19  2  0  0  0
 18100  1  0  0  0
 19 20  1  0  0  0
 19 24  1  0  0  0
 20 21  2  0  0  0
 20101  1  0  0  0
 21 23  1  0  0  0
 22 28  1  0  0  0
 22 32  2  0  0  0
 26 27  1  0  0  0
 28102  1  0  0  0
 28103  1  0  0  0
 29104  1  0  0  0
 29105  1  0  0  0
 33 34  1  0  0  0
 33 66  1  0  0  0
 33 70  2  0  0  0
 34 36  1  0  0  0
 34 59  1  0  0  0
 34106  1  0  0  0
 35 44  2  0  0  0
 35 45  1  0  0  0
 35 68  1  0  0  0
 36 56  1  0  0  0
 36107  1  0  0  0
 37 39  1  0  0  0
 37 47  1  0  0  0
 37 66  1  0  0  0
 37108  1  0  0  0
 38 43  2  0  0  0
 38 46  1  0  0  0
 38 47  1  0  0  0
 39 64  1  0  0  0
 39 67  2  0  0  0
 40 52  1  0  0  0
 40 53  2  0  0  0
 40 58  1  0  0  0
 41109  1  0  0  0
 41110  1  0  0  0
 41111  1  0  0  0
 41 48  1  0  0  0
 42 43  1  0  0  0
 42 66  1  0  0  0
 42112  1  0  0  0
 42113  1  0  0  0
 43 44  1  0  0  0
 44114  1  0  0  0
 45 46  2  0  0  0
 45115  1  0  0  0
 46116  1  0  0  0
 47117  1  0  0  0
 47118  1  0  0  0
 48 56  1  0  0  0
 48 65  1  0  0  0
 48119  1  0  0  0
 49 50  1  0  0  0
 49 53  1  0  0  0
 49 64  1  0  0  0
 49120  1  0  0  0
 50 51  1  0  0  0
 50121  1  0  0  0
 50122  1  0  0  0
 51 52  1  0  0  0
 51123  1  0  0  0
 51124  1  0  0  0
 52125  1  0  0  0
 52126  1  0  0  0
 53 54  1  0  0  0
 54 55  2  0  0  0
 54127  1  0  0  0
 55 57  1  0  0  0
 55128  1  0  0  0
 56 69  2  0  0  0
 57 58  2  0  0  0
 57129  1  0  0  0
 58130  1  0  0  0
 59 60  1  0  0  0
 59 61  1  0  0  0
 59 62  1  0  0  0
 60131  1  0  0  0
 60132  1  0  0  0
 60133  1  0  0  0
 61134  1  0  0  0
 61135  1  0  0  0
 61136  1  0  0  0
 62137  1  0  0  0
 62138  1  0  0  0
 62139  1  0  0  0
 63 65  1  0  0  0
 63140  1  0  0  0
 63141  1  0  0  0
 63142  1  0  0  0
 64143  1  0  0  0
 65144  1  0  0  0
 68 83  1  0  0  0
 71 73  1  0  0  0
 71 75  1  0  0  0
 71145  1  0  0  0
 71146  1  0  0  0
 72 74  1  0  0  0
 72 75  1  0  0  0
 72147  1  0  0  0
 72148  1  0  0  0
 73149  1  0  0  0
 73150  1  0  0  0
 73 76  1  0  0  0
 74 76  1  0  0  0
 74151  1  0  0  0
 74152  1  0  0  0
 75 78  1  0  0  0
 75153  1  0  0  0
 76 85  1  0  0  0
 76154  1  0  0  0
 77 79  1  0  0  0
 77155  1  0  0  0
 77156  1  0  0  0
 77157  1  0  0  0
 78 84  1  0  0  0
 78158  1  0  0  0
 78159  1  0  0  0
 79 81  1  0  0  0
 79160  1  0  0  0
 79161  1  0  0  0
 80 82  1  0  0  0
 80 83  1  0  0  0
 80162  1  0  0  0
 80163  1  0  0  0
 81164  1  0  0  0
 81165  1  0  0  0
 81 85  1  0  0  0
 82 85  1  0  0  0
 82166  1  0  0  0
 82167  1  0  0  0
 83168  1  0  0  0
 83169  1  0  0  0
 84170  1  0  0  0
 85171  1  0  0  0
M  CHG  1  85   1
M  ISO  4   1 100  68 101  83 101  84 100
M  END
> <chiral flag>
0

> <version>
0

> <s_m_source_file>
/data/baiqing/PycharmProjects/Reinvent-master-3.2/result/LINK_invent/BTK/process_docking_weight1_custom_sum_contain_oxygen_bond_distance_aromatic_linkinvent_7_9_3/rearranged_h_0026.sdf

> <i_m_source_file_index>
59

> <r_mmod_Potential_Energy-OPLS-2005>
-44.8708724975586

> <r_mmod_Stretch_Energy-OPLS-2005>
47.2937698364258

> <r_mmod_Bend_Energy-OPLS-2005>
135.736175537109

> <r_mmod_Torsional_Energy-OPLS-2005>
273.448547363281

> <r_mmod_Improper_Torsional_Energy-OPLS-2005>
5.97787570953369

> <r_mmod_Van_der_Waal_Energy-OPLS-2005>
141.019805908203

> <r_mmod_Electrostatic_Energy-OPLS-2005>
-237.390914916992

> <r_mmod_Solvation_Energy-OPLS-2005>
-428.108093261719

> <b_mmod_Minimization_Converged-OPLS-2005>
0

> <r_mmod_RMS_Derivative-OPLS-2005>
2.13763070106506

$$$$
59
                    3D
 Structure written by MMmdl.
163171  0  0  1  0            999 V2000
  -30.7027  -14.4319   20.6094 C   0  0  0  0  0  0
  -30.4120  -12.2874   19.4208 C   0  0  0  0  0  0
  -29.4901  -12.5134   18.2048 C   0  0  0  0  0  0
  -28.0102  -12.3685   18.6131 C   0  0  0  0  0  0
  -27.6588  -13.1987   19.8801 C   0  0  2  0  0  0
  -28.6955  -12.9501   20.9997 C   0  0  0  0  0  0
  -25.2573  -13.8118   20.5657 C   0  0  0  0  0  0
  -24.1808  -13.0409   20.9137 C   0  0  0  0  0  0
  -24.6338  -11.6865   20.8660 C   0  0  0  0  0  0
  -23.9003  -10.4259   21.0342 C   0  0  0  0  0  0
  -24.3577   -9.4202   21.9143 C   0  0  0  0  0  0
  -23.6270   -8.2227   22.0733 C   0  0  0  0  0  0
  -22.4253   -8.0236   21.3526 C   0  0  0  0  0  0
  -21.9865   -9.0189   20.4633 C   0  0  0  0  0  0
  -22.7159  -10.2088   20.3021 C   0  0  0  0  0  0
  -21.6866   -6.0703   22.5271 C   0  0  0  0  0  0
  -21.4022   -6.5615   23.8206 C   0  0  0  0  0  0
  -21.3668   -5.6778   24.9171 C   0  0  0  0  0  0
  -21.6053   -4.3034   24.7221 C   0  0  0  0  0  0
  -21.8832   -3.8120   23.4352 C   0  0  0  0  0  0
  -21.9198   -4.6937   22.3402 C   0  0  0  0  0  0
  -22.7845  -13.5216   21.1822 C   0  0  0  0  0  0
  -22.1653   -4.2121   21.0978 F   0  0  0  0  0  0
  -21.5644   -3.4527   25.7738 F   0  0  0  0  0  0
  -30.0283  -13.2594   20.4579 N   0  0  0  0  0  0
  -26.2992  -12.9276   20.3365 N   0  0  0  0  0  0
  -25.9267  -11.6432   20.5709 N   0  0  0  0  0  0
  -22.0527  -12.8178   22.0396 N   0  0  0  0  0  0
  -25.4341  -15.1843   20.4039 N   0  0  0  0  0  0
  -31.8010  -14.6429   20.0849 O   0  0  0  0  0  0
  -21.6643   -6.8825   21.4223 O   0  0  0  0  0  0
  -22.3501  -14.5507   20.6671 O   0  0  0  0  0  0
  -24.6156  -31.8664   23.2100 C   0  0  0  0  0  0
  -25.9047  -32.4806   23.8398 C   0  0  1  0  0  0
  -27.2342  -27.4232   20.0938 C   0  0  0  0  0  0
  -25.5901  -33.8599   24.2327 N   0  0  0  0  0  0
  -23.4024  -30.4914   21.5511 C   0  0  2  0  0  0
  -24.8460  -28.9536   20.1165 C   0  0  0  0  0  0
  -22.7413  -29.4658   22.4985 C   0  0  0  0  0  0
  -18.0280  -28.1377   22.8490 C   0  0  0  0  0  0
  -24.1493  -36.7312   23.2641 C   0  0  0  0  0  0
  -25.9327  -30.8284   21.3645 C   0  0  0  0  0  0
  -26.0071  -29.4639   20.7070 C   0  0  0  0  0  0
  -27.2017  -28.7064   20.6903 C   0  0  0  0  0  0
  -26.0459  -26.9259   19.5054 C   0  0  0  0  0  0
  -24.8604  -27.6846   19.5148 C   0  0  0  0  0  0
  -23.6083  -29.8211   20.1665 C   0  0  0  0  0  0
  -25.4110  -36.3101   24.0342 C   0  0  1  0  0  0
  -20.5865  -28.3665   23.1313 C   0  0  2  0  0  0
  -20.6775  -26.9398   22.5421 C   0  0  0  0  0  0
  -19.5759  -26.6387   21.5213 C   0  0  0  0  0  0
  -18.1930  -26.7925   22.1607 C   0  0  0  0  0  0
  -19.1523  -28.8839   23.2892 C   0  0  0  0  0  0
  -18.9458  -30.1445   23.8895 C   0  0  0  0  0  0
  -17.6467  -30.6588   24.0573 C   0  0  0  0  0  0
  -25.9032  -34.9463   23.5141 C   0  0  0  0  0  0
  -16.5356  -29.9082   23.6340 C   0  0  0  0  0  0
  -16.7263  -28.6505   23.0356 C   0  0  0  0  0  0
  -26.4484  -31.6588   25.0725 C   0  0  0  0  0  0
  -25.3754  -31.3690   26.1494 C   0  0  0  0  0  0
  -27.0320  -30.3026   24.6107 C   0  0  0  0  0  0
  -27.6073  -32.4307   25.7451 C   0  0  0  0  0  0
  -27.5586  -37.1795   24.8458 C   0  0  0  0  0  0
  -21.4142  -29.3031   22.3713 N   0  0  0  0  0  0
  -26.4293  -37.3789   23.9416 N   0  0  0  0  0  0
  -24.6688  -31.0759   22.1006 N   0  0  0  0  0  0
  -23.4175  -28.8229   23.3056 O   0  0  0  0  0  0
  -28.4257  -26.7175   20.1125 O   0  0  0  0  0  0
  -26.5586  -34.8914   22.4692 O   0  0  0  0  0  0
  -23.5352  -32.1419   23.7489 O   0  0  0  0  0  0
  -31.0476  -20.3186   20.1538 C   0  0  0  0  0  0
  -30.7961  -21.3027   19.1756 C   0  0  0  0  0  0
  -30.1126  -20.2345   21.2052 C   0  0  0  0  0  0
  -28.9322  -22.0053   20.3108 C   0  0  0  0  0  0
  -32.9428  -22.2969   18.2127 C   0  0  0  0  0  0
  -31.6846  -21.4602   17.9507 C   0  0  0  0  0  0
  -30.2260  -19.1914   22.3224 C   0  0  0  0  0  0
  -27.6981  -22.9095   20.3621 C   0  0  0  0  0  0
  -29.5946  -17.7980   22.0297 C   0  0  0  0  0  0
  -27.9143  -24.3784   20.8187 C   0  0  0  0  0  0
  -30.5526  -16.7934   21.3366 C   0  0  0  0  0  0
  -28.4668  -25.3304   19.7291 C   0  0  0  0  0  0
  -29.7495  -22.1520   19.2716 N   0  0  0  0  0  0
  -29.0616  -21.0877   21.2717 N   0  0  0  0  0  0
  -30.0608  -15.4080   21.2775 N   0  0  0  0  0  0
  -32.4368  -19.2855   20.0732 Cl  0  0  0  0  0  0
  -31.4606  -12.3707   19.1335 H   0  0  0  0  0  0
  -30.2908  -11.2691   19.7964 H   0  0  0  0  0  0
  -29.7290  -11.8077   17.4087 H   0  0  0  0  0  0
  -29.6614  -13.5085   17.7927 H   0  0  0  0  0  0
  -27.8138  -11.3098   18.7943 H   0  0  0  0  0  0
  -27.3648  -12.6562   17.7813 H   0  0  0  0  0  0
  -27.7128  -14.2501   19.5952 H   0  0  0  0  0  0
  -28.6666  -11.8994   21.2973 H   0  0  0  0  0  0
  -28.4564  -13.5131   21.9024 H   0  0  0  0  0  0
  -25.2737   -9.5711   22.4692 H   0  0  0  0  0  0
  -24.0013   -7.4640   22.7445 H   0  0  0  0  0  0
  -21.0816   -8.8643   19.8942 H   0  0  0  0  0  0
  -22.3565  -10.9591   19.6114 H   0  0  0  0  0  0
  -21.1994   -7.6122   23.9692 H   0  0  0  0  0  0
  -21.1499   -6.0508   25.9075 H   0  0  0  0  0  0
  -22.0609   -2.7582   23.2856 H   0  0  0  0  0  0
  -22.4183  -11.9844   22.4780 H   0  0  0  0  0  0
  -21.1151  -13.1181   22.2634 H   0  0  0  0  0  0
  -24.6733  -15.8450   20.5065 H   0  0  0  0  0  0
  -26.2979  -15.6191   20.1020 H   0  0  0  0  0  0
  -26.7111  -32.5518   23.1149 H   0  0  0  0  0  0
  -25.0074  -33.9776   25.0494 H   0  0  0  0  0  0
  -22.6920  -31.3087   21.4090 H   0  0  0  0  0  0
  -23.3750  -35.9640   23.3292 H   0  0  0  0  0  0
  -24.3601  -36.8940   22.2061 H   0  0  0  0  0  0
  -23.7240  -37.6516   23.6651 H   0  0  0  0  0  0
  -26.0488  -31.5941   20.5968 H   0  0  0  0  0  0
  -26.8203  -30.8789   21.9832 H   0  0  0  0  0  0
  -28.1014  -29.0980   21.1452 H   0  0  0  0  0  0
  -26.0060  -25.9537   19.0398 H   0  0  0  0  0  0
  -23.9634  -27.2849   19.0634 H   0  0  0  0  0  0
  -23.7103  -30.5947   19.4041 H   0  0  0  0  0  0
  -22.7326  -29.2366   19.8782 H   0  0  0  0  0  0
  -25.1267  -36.1988   25.0827 H   0  0  0  0  0  0
  -20.9937  -28.3251   24.1437 H   0  0  0  0  0  0
  -20.5718  -26.2260   23.3607 H   0  0  0  0  0  0
  -21.6654  -26.7475   22.1197 H   0  0  0  0  0  0
  -19.6950  -25.6305   21.1238 H   0  0  0  0  0  0
  -19.6740  -27.3206   20.6754 H   0  0  0  0  0  0
  -17.4223  -26.6698   21.3990 H   0  0  0  0  0  0
  -18.0321  -26.0042   22.8975 H   0  0  0  0  0  0
  -19.7940  -30.7261   24.2254 H   0  0  0  0  0  0
  -17.5027  -31.6262   24.5181 H   0  0  0  0  0  0
  -15.5361  -30.2993   23.7668 H   0  0  0  0  0  0
  -15.8656  -28.0827   22.7066 H   0  0  0  0  0  0
  -24.5937  -30.7008   25.7869 H   0  0  0  0  0  0
  -24.8927  -32.2837   26.4941 H   0  0  0  0  0  0
  -25.8140  -30.8896   27.0258 H   0  0  0  0  0  0
  -26.2866  -29.6749   24.1219 H   0  0  0  0  0  0
  -27.4166  -29.7300   25.4565 H   0  0  0  0  0  0
  -27.8653  -30.4341   23.9193 H   0  0  0  0  0  0
  -27.2716  -33.3607   26.2047 H   0  0  0  0  0  0
  -28.3854  -32.6889   25.0245 H   0  0  0  0  0  0
  -28.0766  -31.8418   26.5349 H   0  0  0  0  0  0
  -28.2598  -38.0100   24.7525 H   0  0  0  0  0  0
  -28.1093  -36.2643   24.6252 H   0  0  0  0  0  0
  -27.2305  -37.1396   25.8858 H   0  0  0  0  0  0
  -20.9306  -29.8707   21.6892 H   0  0  0  0  0  0
  -26.0197  -38.2858   24.1446 H   0  0  0  0  0  0
  -33.5672  -22.3373   17.3191 H   0  0  0  0  0  0
  -33.5452  -21.8638   19.0116 H   0  0  0  0  0  0
  -32.6870  -23.3189   18.4890 H   0  0  0  0  0  0
  -31.1079  -21.9221   17.1481 H   0  0  0  0  0  0
  -31.9570  -20.4709   17.5848 H   0  0  0  0  0  0
  -29.7324  -19.6110   23.1998 H   0  0  0  0  0  0
  -31.2680  -19.0859   22.6253 H   0  0  0  0  0  0
  -26.9899  -22.4489   21.0534 H   0  0  0  0  0  0
  -27.2001  -22.8895   19.3936 H   0  0  0  0  0  0
  -28.6632  -17.9172   21.4738 H   0  0  0  0  0  0
  -29.3081  -17.3693   22.9910 H   0  0  0  0  0  0
  -28.5341  -24.4096   21.7142 H   0  0  0  0  0  0
  -26.9365  -24.7541   21.1242 H   0  0  0  0  0  0
  -31.5180  -16.7874   21.8471 H   0  0  0  0  0  0
  -30.7400  -17.1242   20.3152 H   0  0  0  0  0  0
  -27.9758  -25.1738   18.7689 H   0  0  0  0  0  0
  -29.5133  -25.0813   19.5497 H   0  0  0  0  0  0
  -29.1717  -15.1884   21.7041 H   0  0  0  0  0  0
  1 25  1  0  0  0
  1 30  2  0  0  0
  1 85  1  0  0  0
  2  3  1  0  0  0
  2 25  1  0  0  0
  2 87  1  0  0  0
  2 88  1  0  0  0
  3  4  1  0  0  0
  3 89  1  0  0  0
  3 90  1  0  0  0
  4  5  1  0  0  0
  4 91  1  0  0  0
  4 92  1  0  0  0
  5  6  1  0  0  0
  5 26  1  0  0  0
  5 93  1  0  0  0
  6 25  1  0  0  0
  6 94  1  0  0  0
  6 95  1  0  0  0
  7  8  2  0  0  0
  7 26  1  0  0  0
  7 29  1  0  0  0
  8  9  1  0  0  0
  8 22  1  0  0  0
  9 10  1  0  0  0
  9 27  2  0  0  0
 10 11  2  0  0  0
 10 15  1  0  0  0
 11 12  1  0  0  0
 11 96  1  0  0  0
 12 13  2  0  0  0
 12 97  1  0  0  0
 13 14  1  0  0  0
 13 31  1  0  0  0
 14 15  2  0  0  0
 14 98  1  0  0  0
 15 99  1  0  0  0
 16 17  2  0  0  0
 16 21  1  0  0  0
 16 31  1  0  0  0
 17 18  1  0  0  0
 17100  1  0  0  0
 18 19  2  0  0  0
 18101  1  0  0  0
 19 20  1  0  0  0
 19 24  1  0  0  0
 20 21  2  0  0  0
 20102  1  0  0  0
 21 23  1  0  0  0
 22 28  1  0  0  0
 22 32  2  0  0  0
 26 27  1  0  0  0
 28103  1  0  0  0
 28104  1  0  0  0
 29105  1  0  0  0
 29106  1  0  0  0
 33 34  1  0  0  0
 33 66  1  0  0  0
 33 70  2  0  0  0
 34 36  1  0  0  0
 34 59  1  0  0  0
 34107  1  0  0  0
 35 44  2  0  0  0
 35 45  1  0  0  0
 35 68  1  0  0  0
 36 56  1  0  0  0
 36108  1  0  0  0
 37 39  1  0  0  0
 37 47  1  0  0  0
 37 66  1  0  0  0
 37109  1  0  0  0
 38 43  2  0  0  0
 38 46  1  0  0  0
 38 47  1  0  0  0
 39 64  1  0  0  0
 39 67  2  0  0  0
 40 52  1  0  0  0
 40 53  2  0  0  0
 40 58  1  0  0  0
 41110  1  0  0  0
 41111  1  0  0  0
 41112  1  0  0  0
 41 48  1  0  0  0
 42 43  1  0  0  0
 42 66  1  0  0  0
 42113  1  0  0  0
 42114  1  0  0  0
 43 44  1  0  0  0
 44115  1  0  0  0
 45 46  2  0  0  0
 45116  1  0  0  0
 46117  1  0  0  0
 47118  1  0  0  0
 47119  1  0  0  0
 48 56  1  0  0  0
 48 65  1  0  0  0
 48120  1  0  0  0
 49 50  1  0  0  0
 49 53  1  0  0  0
 49 64  1  0  0  0
 49121  1  0  0  0
 50 51  1  0  0  0
 50122  1  0  0  0
 50123  1  0  0  0
 51 52  1  0  0  0
 51124  1  0  0  0
 51125  1  0  0  0
 52126  1  0  0  0
 52127  1  0  0  0
 53 54  1  0  0  0
 54 55  2  0  0  0
 54128  1  0  0  0
 55 57  1  0  0  0
 55129  1  0  0  0
 56 69  2  0  0  0
 57 58  2  0  0  0
 57130  1  0  0  0
 58131  1  0  0  0
 59 60  1  0  0  0
 59 61  1  0  0  0
 59 62  1  0  0  0
 60132  1  0  0  0
 60133  1  0  0  0
 60134  1  0  0  0
 61135  1  0  0  0
 61136  1  0  0  0
 61137  1  0  0  0
 62138  1  0  0  0
 62139  1  0  0  0
 62140  1  0  0  0
 63 65  1  0  0  0
 63141  1  0  0  0
 63142  1  0  0  0
 63143  1  0  0  0
 64144  1  0  0  0
 65145  1  0  0  0
 68 82  1  0  0  0
 71 72  2  0  0  0
 71 73  1  0  0  0
 71 86  1  0  0  0
 72 76  1  0  0  0
 72 83  1  0  0  0
 73 77  1  0  0  0
 73 84  2  0  0  0
 74 78  1  0  0  0
 74 83  2  0  0  0
 74 84  1  0  0  0
 75 76  1  0  0  0
 75146  1  0  0  0
 75147  1  0  0  0
 75148  1  0  0  0
 76149  1  0  0  0
 76150  1  0  0  0
 77 79  1  0  0  0
 77151  1  0  0  0
 77152  1  0  0  0
 78 80  1  0  0  0
 78153  1  0  0  0
 78154  1  0  0  0
 79 81  1  0  0  0
 79155  1  0  0  0
 79156  1  0  0  0
 80 82  1  0  0  0
 80157  1  0  0  0
 80158  1  0  0  0
 81 85  1  0  0  0
 81159  1  0  0  0
 81160  1  0  0  0
 82161  1  0  0  0
 82162  1  0  0  0
 85163  1  0  0  0
M  ISO  4   1 100  68 101  82 101  85 100
M  END
> <chiral flag>
0

> <version>
0

> <s_m_source_file>
/data/baiqing/PycharmProjects/Reinvent-master-3.2/result/LINK_invent/BTK/process_docking_weight1_custom_sum_contain_oxygen_bond_distance_aromatic_linkinvent_7_9_3/rearranged_h_0026.sdf

> <i_m_source_file_index>
60

> <r_mmod_Potential_Energy-OPLS-2005>
-482.684417724609

> <r_mmod_Stretch_Energy-OPLS-2005>
38.1150894165039

> <r_mmod_Bend_Energy-OPLS-2005>
108.42155456543

> <r_mmod_Torsional_Energy-OPLS-2005>
172.148391723633

> <r_mmod_Improper_Torsional_Energy-OPLS-2005>
2.71186280250549

> <r_mmod_Van_der_Waal_Energy-OPLS-2005>
155.405670166016

> <r_mmod_Electrostatic_Energy-OPLS-2005>
-746.609313964844

> <r_mmod_Solvation_Energy-OPLS-2005>
-223.888977050781

> <b_mmod_Minimization_Converged-OPLS-2005>
0

> <r_mmod_RMS_Derivative-OPLS-2005>
3.58801221847534

$$$$
60
                    3D
 Structure written by MMmdl.
165173  0  0  1  0            999 V2000
  -30.7436  -14.3806   20.6446 C   0  0  0  0  0  0
  -30.4171  -12.2805   19.3982 C   0  0  0  0  0  0
  -29.4855  -12.5141   18.1932 C   0  0  0  0  0  0
  -28.0089  -12.3781   18.6109 C   0  0  0  0  0  0
  -27.6668  -13.2020   19.8804 C   0  0  2  0  0  0
  -28.7040  -12.9390   20.9940 C   0  0  0  0  0  0
  -25.2628  -13.8168   20.5710 C   0  0  0  0  0  0
  -24.1854  -13.0439   20.9163 C   0  0  0  0  0  0
  -24.6390  -11.6913   20.8713 C   0  0  0  0  0  0
  -23.9048  -10.4302   21.0388 C   0  0  0  0  0  0
  -24.3601   -9.4229   21.9179 C   0  0  0  0  0  0
  -23.6286   -8.2258   22.0755 C   0  0  0  0  0  0
  -22.4270   -8.0280   21.3541 C   0  0  0  0  0  0
  -21.9893   -9.0253   20.4651 C   0  0  0  0  0  0
  -22.7212  -10.2140   20.3054 C   0  0  0  0  0  0
  -21.6863   -6.0725   22.5278 C   0  0  0  0  0  0
  -21.4011   -6.5626   23.8207 C   0  0  0  0  0  0
  -21.3662   -5.6785   24.9173 C   0  0  0  0  0  0
  -21.6047   -4.3047   24.7233 C   0  0  0  0  0  0
  -21.8819   -3.8134   23.4353 C   0  0  0  0  0  0
  -21.9192   -4.6949   22.3403 C   0  0  0  0  0  0
  -22.7885  -13.5256   21.1825 C   0  0  0  0  0  0
  -22.1666   -4.2128   21.0985 F   0  0  0  0  0  0
  -21.5632   -3.4538   25.7751 F   0  0  0  0  0  0
  -30.0449  -13.2328   20.4535 N   0  0  0  0  0  0
  -26.3048  -12.9325   20.3379 N   0  0  0  0  0  0
  -25.9316  -11.6483   20.5735 N   0  0  0  0  0  0
  -22.0511  -12.8251   22.0382 N   0  0  0  0  0  0
  -25.4411  -15.1884   20.4230 N   0  0  0  0  0  0
  -31.7961  -14.6400   20.0550 O   0  0  0  0  0  0
  -21.6641   -6.8870   21.4238 O   0  0  0  0  0  0
  -22.3586  -14.5565   20.6690 O   0  0  0  0  0  0
  -24.6138  -31.8679   23.2124 C   0  0  0  0  0  0
  -25.9040  -32.4822   23.8400 C   0  0  1  0  0  0
  -27.2381  -27.4551   20.0700 C   0  0  0  0  0  0
  -25.5894  -33.8619   24.2339 N   0  0  0  0  0  0
  -23.3990  -30.4934   21.5516 C   0  0  2  0  0  0
  -24.8432  -28.9631   20.1157 C   0  0  0  0  0  0
  -22.7387  -29.4657   22.4998 C   0  0  0  0  0  0
  -18.0268  -28.1369   22.8478 C   0  0  0  0  0  0
  -24.1492  -36.7328   23.2637 C   0  0  0  0  0  0
  -25.9286  -30.8384   21.3626 C   0  0  0  0  0  0
  -26.0027  -29.4727   20.7123 C   0  0  0  0  0  0
  -27.1984  -28.7221   20.6934 C   0  0  0  0  0  0
  -26.0528  -26.9552   19.4775 C   0  0  0  0  0  0
  -24.8616  -27.7014   19.5016 C   0  0  0  0  0  0
  -23.6032  -29.8253   20.1660 C   0  0  0  0  0  0
  -25.4101  -36.3126   24.0352 C   0  0  1  0  0  0
  -20.5854  -28.3635   23.1332 C   0  0  2  0  0  0
  -20.6760  -26.9397   22.5352 C   0  0  0  0  0  0
  -19.5767  -26.6440   21.5118 C   0  0  0  0  0  0
  -18.1935  -26.7955   22.1515 C   0  0  0  0  0  0
  -19.1514  -28.8805   23.2927 C   0  0  0  0  0  0
  -18.9427  -30.1399   23.8955 C   0  0  0  0  0  0
  -17.6434  -30.6558   24.0576 C   0  0  0  0  0  0
  -25.9017  -34.9476   23.5138 C   0  0  0  0  0  0
  -16.5333  -29.9056   23.6332 C   0  0  0  0  0  0
  -16.7253  -28.6474   23.0345 C   0  0  0  0  0  0
  -26.4458  -31.6601   25.0725 C   0  0  0  0  0  0
  -25.3742  -31.3693   26.1492 C   0  0  0  0  0  0
  -27.0277  -30.3060   24.6062 C   0  0  0  0  0  0
  -27.6049  -32.4286   25.7479 C   0  0  0  0  0  0
  -27.5579  -37.1813   24.8458 C   0  0  0  0  0  0
  -21.4120  -29.3044   22.3774 N   0  0  0  0  0  0
  -26.4299  -37.3795   23.9398 N   0  0  0  0  0  0
  -24.6661  -31.0795   22.1011 N   0  0  0  0  0  0
  -23.4179  -28.8166   23.2996 O   0  0  0  0  0  0
  -28.4403  -26.7739   20.0632 O   0  0  0  0  0  0
  -26.5572  -34.8932   22.4693 O   0  0  0  0  0  0
  -23.5322  -32.1420   23.7526 O   0  0  0  0  0  0
  -29.8600  -18.3390   20.1202 C   0  0  0  0  0  0
  -27.5604  -18.9018   21.6080 C   0  0  0  0  0  0
  -28.9684  -19.3315   19.6601 C   0  0  0  0  0  0
  -28.4429  -17.8984   22.0566 C   0  0  0  0  0  0
  -29.6230  -17.6334   21.3190 C   0  0  0  0  0  0
  -27.8141  -19.6384   20.4290 C   0  0  0  0  0  0
  -29.3085  -20.0271   18.3480 C   0  0  0  0  0  0
  -28.0869  -17.1234   23.3176 C   0  0  0  0  0  0
  -30.6460  -16.5977   21.7711 C   0  0  0  0  0  0
  -26.8206  -20.7331   20.0461 C   0  0  0  0  0  0
  -27.9443  -24.3963   20.4162 C   0  0  0  0  0  0
  -27.8072  -23.0158   19.7447 C   0  0  0  0  0  0
  -28.5172  -25.4731   19.4716 C   0  0  0  0  0  0
  -30.1903  -15.2392   21.5064 N   0  0  0  0  0  0
  -27.1827  -22.0302   20.6533 N   0  3  0  0  0  0
  -31.4623  -12.3738   19.0968 H   0  0  0  0  0  0
  -30.3108  -11.2585   19.7646 H   0  0  0  0  0  0
  -29.7119  -11.8043   17.3958 H   0  0  0  0  0  0
  -29.6614  -13.5065   17.7759 H   0  0  0  0  0  0
  -27.8107  -11.3205   18.7884 H   0  0  0  0  0  0
  -27.3589  -12.6708   17.7865 H   0  0  0  0  0  0
  -27.7257  -14.2561   19.6078 H   0  0  0  0  0  0
  -28.6639  -11.8929   21.3024 H   0  0  0  0  0  0
  -28.4547  -13.5075   21.8909 H   0  0  0  0  0  0
  -25.2746   -9.5696   22.4754 H   0  0  0  0  0  0
  -23.9992   -7.4650   22.7473 H   0  0  0  0  0  0
  -21.0825   -8.8762   19.8972 H   0  0  0  0  0  0
  -22.3662  -10.9670   19.6161 H   0  0  0  0  0  0
  -21.2005   -7.6135   23.9697 H   0  0  0  0  0  0
  -21.1486   -6.0525   25.9071 H   0  0  0  0  0  0
  -22.0597   -2.7595   23.2868 H   0  0  0  0  0  0
  -22.4129  -11.9924   22.4775 H   0  0  0  0  0  0
  -21.1126  -13.1289   22.2583 H   0  0  0  0  0  0
  -24.6869  -15.8518   20.5630 H   0  0  0  0  0  0
  -26.3193  -15.6304   20.1775 H   0  0  0  0  0  0
  -26.7113  -32.5532   23.1162 H   0  0  0  0  0  0
  -25.0071  -33.9743   25.0506 H   0  0  0  0  0  0
  -22.6895  -31.3123   21.4139 H   0  0  0  0  0  0
  -23.3743  -35.9672   23.3312 H   0  0  0  0  0  0
  -24.3596  -36.8917   22.2047 H   0  0  0  0  0  0
  -23.7255  -37.6550   23.6629 H   0  0  0  0  0  0
  -26.0353  -31.6038   20.5915 H   0  0  0  0  0  0
  -26.8202  -30.8920   21.9762 H   0  0  0  0  0  0
  -28.0975  -29.1115   21.1517 H   0  0  0  0  0  0
  -26.0193  -25.9962   18.9841 H   0  0  0  0  0  0
  -23.9699  -27.3024   19.0388 H   0  0  0  0  0  0
  -23.7032  -30.5996   19.4053 H   0  0  0  0  0  0
  -22.7293  -29.2386   19.8748 H   0  0  0  0  0  0
  -25.1272  -36.2006   25.0850 H   0  0  0  0  0  0
  -20.9926  -28.3150   24.1459 H   0  0  0  0  0  0
  -20.5674  -26.2211   23.3484 H   0  0  0  0  0  0
  -21.6624  -26.7451   22.1136 H   0  0  0  0  0  0
  -19.6931  -25.6403   21.1038 H   0  0  0  0  0  0
  -19.6735  -27.3349   20.6737 H   0  0  0  0  0  0
  -17.4215  -26.6731   21.3897 H   0  0  0  0  0  0
  -18.0329  -26.0056   22.8857 H   0  0  0  0  0  0
  -19.7908  -30.7180   24.2372 H   0  0  0  0  0  0
  -17.4983  -31.6228   24.5199 H   0  0  0  0  0  0
  -15.5330  -30.2965   23.7603 H   0  0  0  0  0  0
  -15.8663  -28.0796   22.7011 H   0  0  0  0  0  0
  -24.5908  -30.7033   25.7859 H   0  0  0  0  0  0
  -24.8925  -32.2830   26.4980 H   0  0  0  0  0  0
  -25.8112  -30.8856   27.0236 H   0  0  0  0  0  0
  -26.2805  -29.6837   24.1123 H   0  0  0  0  0  0
  -27.4088  -29.7278   25.4488 H   0  0  0  0  0  0
  -27.8626  -30.4413   23.9183 H   0  0  0  0  0  0
  -27.2698  -33.3564   26.2123 H   0  0  0  0  0  0
  -28.3837  -32.6860   25.0291 H   0  0  0  0  0  0
  -28.0751  -31.8362   26.5337 H   0  0  0  0  0  0
  -28.2603  -38.0105   24.7495 H   0  0  0  0  0  0
  -28.1070  -36.2629   24.6299 H   0  0  0  0  0  0
  -27.2295  -37.1498   25.8864 H   0  0  0  0  0  0
  -20.9256  -29.8806   21.7052 H   0  0  0  0  0  0
  -26.0207  -38.2889   24.1377 H   0  0  0  0  0  0
  -30.7447  -18.1119   19.5417 H   0  0  0  0  0  0
  -26.6664  -19.1068   22.1834 H   0  0  0  0  0  0
  -29.7471  -19.3129   17.6487 H   0  0  0  0  0  0
  -30.0419  -20.8176   18.5117 H   0  0  0  0  0  0
  -28.4468  -20.4591   17.8439 H   0  0  0  0  0  0
  -27.3574  -17.6675   23.9182 H   0  0  0  0  0  0
  -28.9521  -16.9422   23.9546 H   0  0  0  0  0  0
  -27.6465  -16.1602   23.0567 H   0  0  0  0  0  0
  -30.8440  -16.7117   22.8361 H   0  0  0  0  0  0
  -31.6066  -16.7993   21.2921 H   0  0  0  0  0  0
  -25.8440  -20.4559   20.4430 H   0  0  0  0  0  0
  -26.6608  -20.8060   18.9713 H   0  0  0  0  0  0
  -28.5846  -24.3183   21.2950 H   0  0  0  0  0  0
  -26.9701  -24.7120   20.7883 H   0  0  0  0  0  0
  -28.7859  -22.6558   19.4276 H   0  0  0  0  0  0
  -27.1964  -23.1098   18.8451 H   0  0  0  0  0  0
  -29.5694  -25.2544   19.2833 H   0  0  0  0  0  0
  -28.0485  -25.4536   18.4864 H   0  0  0  0  0  0
  -29.3409  -14.9420   21.9589 H   0  0  0  0  0  0
  -27.7910  -21.8468   21.4338 H   0  0  0  0  0  0
  -26.3346  -22.4322   21.0189 H   0  0  0  0  0  0
  1 25  1  0  0  0
  1 30  2  0  0  0
  1 84  1  0  0  0
  2  3  1  0  0  0
  2 25  1  0  0  0
  2 86  1  0  0  0
  2 87  1  0  0  0
  3  4  1  0  0  0
  3 88  1  0  0  0
  3 89  1  0  0  0
  4  5  1  0  0  0
  4 90  1  0  0  0
  4 91  1  0  0  0
  5  6  1  0  0  0
  5 26  1  0  0  0
  5 92  1  0  0  0
  6 25  1  0  0  0
  6 93  1  0  0  0
  6 94  1  0  0  0
  7  8  2  0  0  0
  7 26  1  0  0  0
  7 29  1  0  0  0
  8  9  1  0  0  0
  8 22  1  0  0  0
  9 10  1  0  0  0
  9 27  2  0  0  0
 10 11  2  0  0  0
 10 15  1  0  0  0
 11 12  1  0  0  0
 11 95  1  0  0  0
 12 13  2  0  0  0
 12 96  1  0  0  0
 13 14  1  0  0  0
 13 31  1  0  0  0
 14 15  2  0  0  0
 14 97  1  0  0  0
 15 98  1  0  0  0
 16 17  2  0  0  0
 16 21  1  0  0  0
 16 31  1  0  0  0
 17 18  1  0  0  0
 17 99  1  0  0  0
 18 19  2  0  0  0
 18100  1  0  0  0
 19 20  1  0  0  0
 19 24  1  0  0  0
 20 21  2  0  0  0
 20101  1  0  0  0
 21 23  1  0  0  0
 22 28  1  0  0  0
 22 32  2  0  0  0
 26 27  1  0  0  0
 28102  1  0  0  0
 28103  1  0  0  0
 29104  1  0  0  0
 29105  1  0  0  0
 33 34  1  0  0  0
 33 66  1  0  0  0
 33 70  2  0  0  0
 34 36  1  0  0  0
 34 59  1  0  0  0
 34106  1  0  0  0
 35 44  2  0  0  0
 35 45  1  0  0  0
 35 68  1  0  0  0
 36 56  1  0  0  0
 36107  1  0  0  0
 37 39  1  0  0  0
 37 47  1  0  0  0
 37 66  1  0  0  0
 37108  1  0  0  0
 38 43  2  0  0  0
 38 46  1  0  0  0
 38 47  1  0  0  0
 39 64  1  0  0  0
 39 67  2  0  0  0
 40 52  1  0  0  0
 40 53  2  0  0  0
 40 58  1  0  0  0
 41109  1  0  0  0
 41110  1  0  0  0
 41111  1  0  0  0
 41 48  1  0  0  0
 42 43  1  0  0  0
 42 66  1  0  0  0
 42112  1  0  0  0
 42113  1  0  0  0
 43 44  1  0  0  0
 44114  1  0  0  0
 45 46  2  0  0  0
 45115  1  0  0  0
 46116  1  0  0  0
 47117  1  0  0  0
 47118  1  0  0  0
 48 56  1  0  0  0
 48 65  1  0  0  0
 48119  1  0  0  0
 49 50  1  0  0  0
 49 53  1  0  0  0
 49 64  1  0  0  0
 49120  1  0  0  0
 50 51  1  0  0  0
 50121  1  0  0  0
 50122  1  0  0  0
 51 52  1  0  0  0
 51123  1  0  0  0
 51124  1  0  0  0
 52125  1  0  0  0
 52126  1  0  0  0
 53 54  1  0  0  0
 54 55  2  0  0  0
 54127  1  0  0  0
 55 57  1  0  0  0
 55128  1  0  0  0
 56 69  2  0  0  0
 57 58  2  0  0  0
 57129  1  0  0  0
 58130  1  0  0  0
 59 60  1  0  0  0
 59 61  1  0  0  0
 59 62  1  0  0  0
 60131  1  0  0  0
 60132  1  0  0  0
 60133  1  0  0  0
 61134  1  0  0  0
 61135  1  0  0  0
 61136  1  0  0  0
 62137  1  0  0  0
 62138  1  0  0  0
 62139  1  0  0  0
 63 65  1  0  0  0
 63140  1  0  0  0
 63141  1  0  0  0
 63142  1  0  0  0
 64143  1  0  0  0
 65144  1  0  0  0
 68 83  1  0  0  0
 71 73  2  0  0  0
 71 75  1  0  0  0
 71145  1  0  0  0
 72 74  1  0  0  0
 72 76  2  0  0  0
 72146  1  0  0  0
 73 76  1  0  0  0
 73 77  1  0  0  0
 74 75  2  0  0  0
 74 78  1  0  0  0
 75 79  1  0  0  0
 76 80  1  0  0  0
 77147  1  0  0  0
 77148  1  0  0  0
 77149  1  0  0  0
 78150  1  0  0  0
 78151  1  0  0  0
 78152  1  0  0  0
 79 84  1  0  0  0
 79153  1  0  0  0
 79154  1  0  0  0
 80 85  1  0  0  0
 80155  1  0  0  0
 80156  1  0  0  0
 81 82  1  0  0  0
 81 83  1  0  0  0
 81157  1  0  0  0
 81158  1  0  0  0
 82 85  1  0  0  0
 82159  1  0  0  0
 82160  1  0  0  0
 83161  1  0  0  0
 83162  1  0  0  0
 84163  1  0  0  0
 85164  1  0  0  0
 85165  1  0  0  0
M  CHG  1  85   1
M  ISO  4   1 100  68 101  83 101  84 100
M  END
> <chiral flag>
0

> <version>
0

> <s_m_source_file>
/data/baiqing/PycharmProjects/Reinvent-master-3.2/result/LINK_invent/BTK/process_docking_weight1_custom_sum_contain_oxygen_bond_distance_aromatic_linkinvent_7_9_3/rearranged_h_0026.sdf

> <i_m_source_file_index>
61

> <r_mmod_Potential_Energy-OPLS-2005>
-344.270294189453

> <r_mmod_Stretch_Energy-OPLS-2005>
34.1895332336426

> <r_mmod_Bend_Energy-OPLS-2005>
98.5621643066406

> <r_mmod_Torsional_Energy-OPLS-2005>
183.572326660156

> <r_mmod_Improper_Torsional_Energy-OPLS-2005>
1.80572783946991

> <r_mmod_Van_der_Waal_Energy-OPLS-2005>
152.616607666016

> <r_mmod_Electrostatic_Energy-OPLS-2005>
-361.562133789062

> <r_mmod_Solvation_Energy-OPLS-2005>
-461.323120117188

> <b_mmod_Minimization_Converged-OPLS-2005>
0

> <r_mmod_RMS_Derivative-OPLS-2005>
2.58421421051025

$$$$
61
                    3D
 Structure written by MMmdl.
159167  0  0  1  0            999 V2000
  -30.7373  -14.4918   20.5787 C   0  0  0  0  0  0
  -30.4193  -12.3173   19.4608 C   0  0  0  0  0  0
  -29.5067  -12.4887   18.2308 C   0  0  0  0  0  0
  -28.0255  -12.3513   18.6325 C   0  0  0  0  0  0
  -27.6576  -13.2168   19.8667 C   0  0  2  0  0  0
  -28.6932  -13.0647   21.0043 C   0  0  0  0  0  0
  -25.2579  -13.8208   20.5682 C   0  0  0  0  0  0
  -24.1854  -13.0473   20.9191 C   0  0  0  0  0  0
  -24.6410  -11.6927   20.8729 C   0  0  0  0  0  0
  -23.9067  -10.4315   21.0399 C   0  0  0  0  0  0
  -24.3629   -9.4222   21.9176 C   0  0  0  0  0  0
  -23.6299   -8.2256   22.0750 C   0  0  0  0  0  0
  -22.4290   -8.0304   21.3534 C   0  0  0  0  0  0
  -21.9915   -9.0271   20.4634 C   0  0  0  0  0  0
  -22.7240  -10.2139   20.3036 C   0  0  0  0  0  0
  -21.6850   -6.0728   22.5266 C   0  0  0  0  0  0
  -21.4012   -6.5635   23.8208 C   0  0  0  0  0  0
  -21.3660   -5.6784   24.9181 C   0  0  0  0  0  0
  -21.6059   -4.3048   24.7213 C   0  0  0  0  0  0
  -21.8811   -3.8137   23.4340 C   0  0  0  0  0  0
  -21.9207   -4.6953   22.3398 C   0  0  0  0  0  0
  -22.7853  -13.5232   21.1850 C   0  0  0  0  0  0
  -22.1663   -4.2140   21.0966 F   0  0  0  0  0  0
  -21.5646   -3.4541   25.7725 F   0  0  0  0  0  0
  -30.0290  -13.3368   20.4503 N   0  0  0  0  0  0
  -26.3013  -12.9396   20.3327 N   0  0  0  0  0  0
  -25.9342  -11.6556   20.5765 N   0  0  0  0  0  0
  -22.0477  -12.8240   22.0406 N   0  0  0  0  0  0
  -25.4325  -15.1936   20.4124 N   0  0  0  0  0  0
  -31.8851  -14.6107   20.1501 O   0  0  0  0  0  0
  -21.6654   -6.8894   21.4237 O   0  0  0  0  0  0
  -22.3537  -14.5540   20.6689 O   0  0  0  0  0  0
  -24.6138  -31.8719   23.2097 C   0  0  0  0  0  0
  -25.9022  -32.4838   23.8386 C   0  0  1  0  0  0
  -27.2375  -27.4582   20.0811 C   0  0  0  0  0  0
  -25.5922  -33.8633   24.2352 N   0  0  0  0  0  0
  -23.3976  -30.4959   21.5536 C   0  0  2  0  0  0
  -24.8408  -28.9618   20.1143 C   0  0  0  0  0  0
  -22.7382  -29.4696   22.4999 C   0  0  0  0  0  0
  -18.0271  -28.1404   22.8484 C   0  0  0  0  0  0
  -24.1493  -36.7318   23.2647 C   0  0  0  0  0  0
  -25.9193  -30.8483   21.3512 C   0  0  0  0  0  0
  -25.9980  -29.4802   20.7047 C   0  0  0  0  0  0
  -27.1968  -28.7353   20.6870 C   0  0  0  0  0  0
  -26.0588  -26.9568   19.4770 C   0  0  0  0  0  0
  -24.8624  -27.6980   19.5019 C   0  0  0  0  0  0
  -23.6012  -29.8270   20.1669 C   0  0  0  0  0  0
  -25.4116  -36.3118   24.0345 C   0  0  1  0  0  0
  -20.5851  -28.3677   23.1325 C   0  0  2  0  0  0
  -20.6751  -26.9414   22.5403 C   0  0  0  0  0  0
  -19.5732  -26.6403   21.5195 C   0  0  0  0  0  0
  -18.1913  -26.7950   22.1615 C   0  0  0  0  0  0
  -19.1509  -28.8846   23.2916 C   0  0  0  0  0  0
  -18.9438  -30.1459   23.8923 C   0  0  0  0  0  0
  -17.6451  -30.6596   24.0573 C   0  0  0  0  0  0
  -25.9027  -34.9495   23.5133 C   0  0  0  0  0  0
  -16.5333  -29.9085   23.6332 C   0  0  0  0  0  0
  -16.7253  -28.6526   23.0335 C   0  0  0  0  0  0
  -26.4489  -31.6610   25.0696 C   0  0  0  0  0  0
  -25.3806  -31.3648   26.1479 C   0  0  0  0  0  0
  -27.0330  -30.3089   24.6001 C   0  0  0  0  0  0
  -27.6100  -32.4320   25.7435 C   0  0  0  0  0  0
  -27.5576  -37.1816   24.8465 C   0  0  0  0  0  0
  -21.4109  -29.3047   22.3751 N   0  0  0  0  0  0
  -26.4287  -37.3806   23.9405 N   0  0  0  0  0  0
  -24.6625  -31.0833   22.0991 N   0  0  0  0  0  0
  -23.4156  -28.8236   23.3037 O   0  0  0  0  0  0
  -28.4260  -26.7572   20.1010 O   0  0  0  0  0  0
  -26.5581  -34.8929   22.4683 O   0  0  0  0  0  0
  -23.5349  -32.1436   23.7541 O   0  0  0  0  0  0
  -29.4181  -19.0611   21.6507 C   0  0  0  0  0  0
  -30.0164  -20.0038   23.8152 C   0  0  0  0  0  0
  -29.2548  -20.0669   22.6325 C   0  0  0  0  0  0
  -30.3220  -17.9891   21.8383 C   0  0  0  0  0  0
  -30.9392  -18.9563   24.0068 C   0  0  0  0  0  0
  -31.1018  -17.9488   23.0259 C   0  0  0  0  0  0
  -30.5029  -16.9650   20.7121 C   0  0  0  0  0  0
  -28.2008  -21.1525   22.4643 C   0  0  0  0  0  0
  -27.6929  -24.6763   21.2010 C   0  0  0  0  0  0
  -27.5731  -23.1371   21.1422 C   0  0  0  0  0  0
  -28.4012  -25.3279   19.9935 C   0  0  0  0  0  0
  -30.0494  -15.5787   20.9805 N   0  0  0  0  0  0
  -28.6781  -22.3866   21.8001 N   0  3  0  0  0  0
  -31.8677  -18.9489   25.4633 Cl  0  0  0  0  0  0
  -32.2897  -16.7089   23.2667 Cl  0  0  0  0  0  0
  -31.4677  -12.3984   19.1637 H   0  0  0  0  0  0
  -30.3132  -11.3217   19.8885 H   0  0  0  0  0  0
  -29.7549  -11.7416   17.4761 H   0  0  0  0  0  0
  -29.6828  -13.4581   17.7680 H   0  0  0  0  0  0
  -27.8495  -11.2993   18.8579 H   0  0  0  0  0  0
  -27.3754  -12.5945   17.7906 H   0  0  0  0  0  0
  -27.6860  -14.2524   19.5361 H   0  0  0  0  0  0
  -28.6659  -12.0599   21.4235 H   0  0  0  0  0  0
  -28.4509  -13.7373   21.8291 H   0  0  0  0  0  0
  -25.2762   -9.5713   22.4758 H   0  0  0  0  0  0
  -24.0017   -7.4647   22.7450 H   0  0  0  0  0  0
  -21.0863   -8.8763   19.8928 H   0  0  0  0  0  0
  -22.3695  -10.9678   19.6148 H   0  0  0  0  0  0
  -21.1976   -7.6125   23.9706 H   0  0  0  0  0  0
  -21.1502   -6.0510   25.9083 H   0  0  0  0  0  0
  -22.0595   -2.7593   23.2830 H   0  0  0  0  0  0
  -22.4094  -11.9922   22.4811 H   0  0  0  0  0  0
  -21.1040  -13.1240   22.2518 H   0  0  0  0  0  0
  -24.6671  -15.8541   20.5179 H   0  0  0  0  0  0
  -26.2893  -15.6284   20.0934 H   0  0  0  0  0  0
  -26.7094  -32.5567   23.1166 H   0  0  0  0  0  0
  -25.0137  -33.9820   25.0537 H   0  0  0  0  0  0
  -22.6840  -31.3113   21.4145 H   0  0  0  0  0  0
  -23.3747  -35.9652   23.3332 H   0  0  0  0  0  0
  -24.3562  -36.8904   22.2044 H   0  0  0  0  0  0
  -23.7236  -37.6533   23.6636 H   0  0  0  0  0  0
  -26.0053  -31.6060   20.5714 H   0  0  0  0  0  0
  -26.8188  -30.9223   21.9489 H   0  0  0  0  0  0
  -28.0935  -29.1335   21.1413 H   0  0  0  0  0  0
  -26.0429  -26.0006   18.9790 H   0  0  0  0  0  0
  -23.9726  -27.2974   19.0378 H   0  0  0  0  0  0
  -23.7023  -30.5995   19.4035 H   0  0  0  0  0  0
  -22.7252  -29.2442   19.8770 H   0  0  0  0  0  0
  -25.1291  -36.1994   25.0832 H   0  0  0  0  0  0
  -20.9949  -28.3243   24.1446 H   0  0  0  0  0  0
  -20.5640  -26.2291   23.3603 H   0  0  0  0  0  0
  -21.6639  -26.7458   22.1217 H   0  0  0  0  0  0
  -19.6895  -25.6311   21.1234 H   0  0  0  0  0  0
  -19.6685  -27.3212   20.6731 H   0  0  0  0  0  0
  -17.4189  -26.6697   21.4011 H   0  0  0  0  0  0
  -18.0318  -26.0081   22.9006 H   0  0  0  0  0  0
  -19.7913  -30.7271   24.2296 H   0  0  0  0  0  0
  -17.4995  -31.6265   24.5193 H   0  0  0  0  0  0
  -15.5343  -30.3006   23.7635 H   0  0  0  0  0  0
  -15.8657  -28.0853   22.7022 H   0  0  0  0  0  0
  -24.5926  -30.7081   25.7765 H   0  0  0  0  0  0
  -24.9079  -32.2786   26.5100 H   0  0  0  0  0  0
  -25.8208  -30.8649   27.0121 H   0  0  0  0  0  0
  -26.2801  -29.6769   24.1283 H   0  0  0  0  0  0
  -27.4396  -29.7410   25.4377 H   0  0  0  0  0  0
  -27.8494  -30.4453   23.8911 H   0  0  0  0  0  0
  -27.2752  -33.3606   26.2084 H   0  0  0  0  0  0
  -28.3874  -32.6921   25.0225 H   0  0  0  0  0  0
  -28.0837  -31.8405   26.5294 H   0  0  0  0  0  0
  -28.2631  -38.0089   24.7520 H   0  0  0  0  0  0
  -28.1059  -36.2629   24.6314 H   0  0  0  0  0  0
  -27.2302  -37.1490   25.8875 H   0  0  0  0  0  0
  -20.9271  -29.8789   21.6995 H   0  0  0  0  0  0
  -26.0202  -38.2883   24.1420 H   0  0  0  0  0  0
  -28.8387  -19.1136   20.7381 H   0  0  0  0  0  0
  -29.8933  -20.7442   24.5937 H   0  0  0  0  0  0
  -31.5533  -17.0033   20.4176 H   0  0  0  0  0  0
  -29.9847  -17.3167   19.8203 H   0  0  0  0  0  0
  -27.8092  -21.4265   23.4443 H   0  0  0  0  0  0
  -27.3688  -20.7179   21.9096 H   0  0  0  0  0  0
  -28.1427  -24.9977   22.1398 H   0  0  0  0  0  0
  -26.6716  -25.0514   21.2360 H   0  0  0  0  0  0
  -27.4397  -22.7836   20.1179 H   0  0  0  0  0  0
  -26.6440  -22.8848   21.6567 H   0  0  0  0  0  0
  -27.9690  -25.0118   19.0439 H   0  0  0  0  0  0
  -29.4376  -24.9913   19.9669 H   0  0  0  0  0  0
  -29.0826  -15.4383   21.2219 H   0  0  0  0  0  0
  -29.3819  -22.1584   21.1187 H   0  0  0  0  0  0
  -29.1192  -22.9565   22.5036 H   0  0  0  0  0  0
  1 25  1  0  0  0
  1 30  2  0  0  0
  1 82  1  0  0  0
  2  3  1  0  0  0
  2 25  1  0  0  0
  2 86  1  0  0  0
  2 87  1  0  0  0
  3  4  1  0  0  0
  3 88  1  0  0  0
  3 89  1  0  0  0
  4  5  1  0  0  0
  4 90  1  0  0  0
  4 91  1  0  0  0
  5  6  1  0  0  0
  5 26  1  0  0  0
  5 92  1  0  0  0
  6 25  1  0  0  0
  6 93  1  0  0  0
  6 94  1  0  0  0
  7  8  2  0  0  0
  7 26  1  0  0  0
  7 29  1  0  0  0
  8  9  1  0  0  0
  8 22  1  0  0  0
  9 10  1  0  0  0
  9 27  2  0  0  0
 10 11  2  0  0  0
 10 15  1  0  0  0
 11 12  1  0  0  0
 11 95  1  0  0  0
 12 13  2  0  0  0
 12 96  1  0  0  0
 13 14  1  0  0  0
 13 31  1  0  0  0
 14 15  2  0  0  0
 14 97  1  0  0  0
 15 98  1  0  0  0
 16 17  2  0  0  0
 16 21  1  0  0  0
 16 31  1  0  0  0
 17 18  1  0  0  0
 17 99  1  0  0  0
 18 19  2  0  0  0
 18100  1  0  0  0
 19 20  1  0  0  0
 19 24  1  0  0  0
 20 21  2  0  0  0
 20101  1  0  0  0
 21 23  1  0  0  0
 22 28  1  0  0  0
 22 32  2  0  0  0
 26 27  1  0  0  0
 28102  1  0  0  0
 28103  1  0  0  0
 29104  1  0  0  0
 29105  1  0  0  0
 33 34  1  0  0  0
 33 66  1  0  0  0
 33 70  2  0  0  0
 34 36  1  0  0  0
 34 59  1  0  0  0
 34106  1  0  0  0
 35 44  2  0  0  0
 35 45  1  0  0  0
 35 68  1  0  0  0
 36 56  1  0  0  0
 36107  1  0  0  0
 37 39  1  0  0  0
 37 47  1  0  0  0
 37 66  1  0  0  0
 37108  1  0  0  0
 38 43  2  0  0  0
 38 46  1  0  0  0
 38 47  1  0  0  0
 39 64  1  0  0  0
 39 67  2  0  0  0
 40 52  1  0  0  0
 40 53  2  0  0  0
 40 58  1  0  0  0
 41109  1  0  0  0
 41110  1  0  0  0
 41111  1  0  0  0
 41 48  1  0  0  0
 42 43  1  0  0  0
 42 66  1  0  0  0
 42112  1  0  0  0
 42113  1  0  0  0
 43 44  1  0  0  0
 44114  1  0  0  0
 45 46  2  0  0  0
 45115  1  0  0  0
 46116  1  0  0  0
 47117  1  0  0  0
 47118  1  0  0  0
 48 56  1  0  0  0
 48 65  1  0  0  0
 48119  1  0  0  0
 49 50  1  0  0  0
 49 53  1  0  0  0
 49 64  1  0  0  0
 49120  1  0  0  0
 50 51  1  0  0  0
 50121  1  0  0  0
 50122  1  0  0  0
 51 52  1  0  0  0
 51123  1  0  0  0
 51124  1  0  0  0
 52125  1  0  0  0
 52126  1  0  0  0
 53 54  1  0  0  0
 54 55  2  0  0  0
 54127  1  0  0  0
 55 57  1  0  0  0
 55128  1  0  0  0
 56 69  2  0  0  0
 57 58  2  0  0  0
 57129  1  0  0  0
 58130  1  0  0  0
 59 60  1  0  0  0
 59 61  1  0  0  0
 59 62  1  0  0  0
 60131  1  0  0  0
 60132  1  0  0  0
 60133  1  0  0  0
 61134  1  0  0  0
 61135  1  0  0  0
 61136  1  0  0  0
 62137  1  0  0  0
 62138  1  0  0  0
 62139  1  0  0  0
 63 65  1  0  0  0
 63140  1  0  0  0
 63141  1  0  0  0
 63142  1  0  0  0
 64143  1  0  0  0
 65144  1  0  0  0
 68 81  1  0  0  0
 71 73  2  0  0  0
 71 74  1  0  0  0
 71145  1  0  0  0
 72 73  1  0  0  0
 72 75  2  0  0  0
 72146  1  0  0  0
 73 78  1  0  0  0
 74 76  2  0  0  0
 74 77  1  0  0  0
 75 76  1  0  0  0
 75 84  1  0  0  0
 76 85  1  0  0  0
 77 82  1  0  0  0
 77147  1  0  0  0
 77148  1  0  0  0
 78 83  1  0  0  0
 78149  1  0  0  0
 78150  1  0  0  0
 79 80  1  0  0  0
 79 81  1  0  0  0
 79151  1  0  0  0
 79152  1  0  0  0
 80 83  1  0  0  0
 80153  1  0  0  0
 80154  1  0  0  0
 81155  1  0  0  0
 81156  1  0  0  0
 82157  1  0  0  0
 83158  1  0  0  0
 83159  1  0  0  0
M  CHG  1  83   1
M  ISO  4   1 100  68 101  81 101  82 100
M  END
> <chiral flag>
0

> <version>
0

> <s_m_source_file>
/data/baiqing/PycharmProjects/Reinvent-master-3.2/result/LINK_invent/BTK/process_docking_weight1_custom_sum_contain_oxygen_bond_distance_aromatic_linkinvent_7_9_3/rearranged_h_0026.sdf

> <i_m_source_file_index>
62

> <r_mmod_Potential_Energy-OPLS-2005>
-265.053039550781

> <r_mmod_Stretch_Energy-OPLS-2005>
36.7008819580078

> <r_mmod_Bend_Energy-OPLS-2005>
101.98583984375

> <r_mmod_Torsional_Energy-OPLS-2005>
208.18977355957

> <r_mmod_Improper_Torsional_Energy-OPLS-2005>
6.33822917938232

> <r_mmod_Van_der_Waal_Energy-OPLS-2005>
154.280044555664

> <r_mmod_Electrostatic_Energy-OPLS-2005>
-278.467437744141

> <r_mmod_Solvation_Energy-OPLS-2005>
-510.925689697266

> <b_mmod_Minimization_Converged-OPLS-2005>
0

> <r_mmod_RMS_Derivative-OPLS-2005>
7.06196022033691

$$$$
62
                    3D
 Structure written by MMmdl.
164172  0  0  1  0            999 V2000
  -30.6864  -14.4399   20.5683 C   0  0  0  0  0  0
  -30.4239  -12.2884   19.4002 C   0  0  0  0  0  0
  -29.4852  -12.4883   18.1924 C   0  0  0  0  0  0
  -28.0117  -12.3501   18.6180 C   0  0  0  0  0  0
  -27.6654  -13.1928   19.8746 C   0  0  2  0  0  0
  -28.7022  -12.9575   20.9949 C   0  0  0  0  0  0
  -25.2642  -13.8141   20.5623 C   0  0  0  0  0  0
  -24.1882  -13.0460   20.9162 C   0  0  0  0  0  0
  -24.6405  -11.6917   20.8746 C   0  0  0  0  0  0
  -23.9071  -10.4310   21.0424 C   0  0  0  0  0  0
  -24.3628   -9.4216   21.9182 C   0  0  0  0  0  0
  -23.6317   -8.2249   22.0747 C   0  0  0  0  0  0
  -22.4295   -8.0282   21.3551 C   0  0  0  0  0  0
  -21.9935   -9.0250   20.4654 C   0  0  0  0  0  0
  -22.7247  -10.2141   20.3069 C   0  0  0  0  0  0
  -21.6859   -6.0740   22.5263 C   0  0  0  0  0  0
  -21.4006   -6.5654   23.8193 C   0  0  0  0  0  0
  -21.3658   -5.6807   24.9156 C   0  0  0  0  0  0
  -21.6029   -4.3065   24.7205 C   0  0  0  0  0  0
  -21.8830   -3.8161   23.4326 C   0  0  0  0  0  0
  -21.9196   -4.6977   22.3389 C   0  0  0  0  0  0
  -22.7911  -13.5273   21.1821 C   0  0  0  0  0  0
  -22.1687   -4.2170   21.0964 F   0  0  0  0  0  0
  -21.5619   -3.4552   25.7718 F   0  0  0  0  0  0
  -30.0363  -13.2541   20.4404 N   0  0  0  0  0  0
  -26.3050  -12.9281   20.3359 N   0  0  0  0  0  0
  -25.9311  -11.6457   20.5769 N   0  0  0  0  0  0
  -22.0558  -12.8255   22.0378 N   0  0  0  0  0  0
  -25.4441  -15.1830   20.3894 N   0  0  0  0  0  0
  -31.8164  -14.6542   20.1157 O   0  0  0  0  0  0
  -21.6657   -6.8878   21.4230 O   0  0  0  0  0  0
  -22.3607  -14.5577   20.6668 O   0  0  0  0  0  0
  -24.6100  -31.8711   23.2137 C   0  0  0  0  0  0
  -25.9012  -32.4838   23.8416 C   0  0  1  0  0  0
  -27.2364  -27.4653   20.0767 C   0  0  0  0  0  0
  -25.5866  -33.8636   24.2340 N   0  0  0  0  0  0
  -23.3947  -30.4974   21.5552 C   0  0  2  0  0  0
  -24.8365  -28.9673   20.1206 C   0  0  0  0  0  0
  -22.7357  -29.4670   22.4985 C   0  0  0  0  0  0
  -18.0261  -28.1386   22.8514 C   0  0  0  0  0  0
  -24.1475  -36.7328   23.2636 C   0  0  0  0  0  0
  -25.9210  -30.8419   21.3656 C   0  0  0  0  0  0
  -25.9959  -29.4790   20.7126 C   0  0  0  0  0  0
  -27.1953  -28.7352   20.6914 C   0  0  0  0  0  0
  -26.0485  -26.9550   19.4974 C   0  0  0  0  0  0
  -24.8548  -27.6974   19.5185 C   0  0  0  0  0  0
  -23.6014  -29.8358   20.1679 C   0  0  0  0  0  0
  -25.4101  -36.3133   24.0342 C   0  0  1  0  0  0
  -20.5847  -28.3650   23.1359 C   0  0  2  0  0  0
  -20.6742  -26.9363   22.5493 C   0  0  0  0  0  0
  -19.5733  -26.6314   21.5275 C   0  0  0  0  0  0
  -18.1910  -26.7918   22.1675 C   0  0  0  0  0  0
  -19.1514  -28.8844   23.2927 C   0  0  0  0  0  0
  -18.9458  -30.1478   23.8902 C   0  0  0  0  0  0
  -17.6453  -30.6614   24.0506 C   0  0  0  0  0  0
  -25.9019  -34.9483   23.5135 C   0  0  0  0  0  0
  -16.5330  -29.9093   23.6322 C   0  0  0  0  0  0
  -16.7247  -28.6496   23.0385 C   0  0  0  0  0  0
  -26.4445  -31.6606   25.0716 C   0  0  0  0  0  0
  -25.3727  -31.3684   26.1476 C   0  0  0  0  0  0
  -27.0276  -30.3059   24.6075 C   0  0  0  0  0  0
  -27.6027  -32.4298   25.7490 C   0  0  0  0  0  0
  -27.5577  -37.1825   24.8464 C   0  0  0  0  0  0
  -21.4077  -29.3040   22.3758 N   0  0  0  0  0  0
  -26.4304  -37.3821   23.9390 N   0  0  0  0  0  0
  -24.6594  -31.0818   22.1045 N   0  0  0  0  0  0
  -23.4138  -28.8155   23.2981 O   0  0  0  0  0  0
  -28.4416  -26.7908   20.0668 O   0  0  0  0  0  0
  -26.5591  -34.8942   22.4698 O   0  0  0  0  0  0
  -23.5307  -32.1441   23.7552 O   0  0  0  0  0  0
  -28.0873  -17.3498   22.2048 C   0  0  0  0  0  0
  -27.0844  -18.2243   22.6666 C   0  0  0  0  0  0
  -29.0972  -17.8019   21.3307 C   0  0  0  0  0  0
  -28.0590  -20.0404   21.3353 C   0  0  0  0  0  0
  -27.0718  -19.5745   22.2487 C   0  0  0  0  0  0
  -29.0744  -19.1517   20.8982 C   0  0  0  0  0  0
  -26.0362  -17.6990   23.6354 C   0  0  0  0  0  0
  -26.1305  -21.0902   19.3509 C   0  0  0  0  0  0
  -30.2320  -16.8605   20.9046 C   0  0  0  0  0  0
  -27.9890  -24.3936   20.2535 C   0  0  0  0  0  0
  -27.4507  -23.2287   19.4091 C   0  0  0  0  0  0
  -28.5311  -25.5423   19.3839 C   0  0  0  0  0  0
  -26.9697  -22.0271   20.2417 C   0  0  2  0  0  0
  -28.1210  -21.3672   20.8589 N   0  0  0  0  0  0
  -29.9318  -15.4354   21.0539 N   0  0  0  0  0  0
  -25.8733  -20.6372   22.9172 Cl  0  0  0  0  0  0
  -30.3133  -19.7465   19.8396 Cl  0  0  0  0  0  0
  -31.4598  -12.4141   19.0834 H   0  0  0  0  0  0
  -30.3471  -11.2651   19.7727 H   0  0  0  0  0  0
  -29.7192  -11.7583   17.4145 H   0  0  0  0  0  0
  -29.6492  -13.4683   17.7429 H   0  0  0  0  0  0
  -27.8326  -11.2952   18.8294 H   0  0  0  0  0  0
  -27.3524  -12.6122   17.7916 H   0  0  0  0  0  0
  -27.7215  -14.2412   19.5799 H   0  0  0  0  0  0
  -28.6637  -11.9231   21.3409 H   0  0  0  0  0  0
  -28.4589  -13.5624   21.8707 H   0  0  0  0  0  0
  -25.2776   -9.5688   22.4752 H   0  0  0  0  0  0
  -24.0017   -7.4650   22.7481 H   0  0  0  0  0  0
  -21.0846   -8.8761   19.8981 H   0  0  0  0  0  0
  -22.3679  -10.9672   19.6184 H   0  0  0  0  0  0
  -21.2014   -7.6162   23.9713 H   0  0  0  0  0  0
  -21.1465   -6.0523   25.9060 H   0  0  0  0  0  0
  -22.0622   -2.7635   23.2795 H   0  0  0  0  0  0
  -22.4201  -11.9913   22.4718 H   0  0  0  0  0  0
  -21.1196  -13.1280   22.2648 H   0  0  0  0  0  0
  -24.6695  -15.8335   20.4411 H   0  0  0  0  0  0
  -26.2819  -15.6000   20.0038 H   0  0  0  0  0  0
  -26.7056  -32.5566   23.1160 H   0  0  0  0  0  0
  -25.0023  -33.9822   25.0492 H   0  0  0  0  0  0
  -22.6856  -31.3175   21.4200 H   0  0  0  0  0  0
  -23.3743  -35.9650   23.3329 H   0  0  0  0  0  0
  -24.3577  -36.8912   22.2043 H   0  0  0  0  0  0
  -23.7214  -37.6540   23.6625 H   0  0  0  0  0  0
  -26.0288  -31.6062   20.5955 H   0  0  0  0  0  0
  -26.8099  -30.8935   21.9815 H   0  0  0  0  0  0
  -28.0924  -29.1391   21.1394 H   0  0  0  0  0  0
  -26.0124  -25.9882   19.0213 H   0  0  0  0  0  0
  -23.9601  -27.2868   19.0680 H   0  0  0  0  0  0
  -23.7227  -30.6171   19.4184 H   0  0  0  0  0  0
  -22.7236  -29.2643   19.8626 H   0  0  0  0  0  0
  -25.1273  -36.2033   25.0838 H   0  0  0  0  0  0
  -20.9912  -28.3269   24.1494 H   0  0  0  0  0  0
  -20.5581  -26.2262   23.3692 H   0  0  0  0  0  0
  -21.6629  -26.7297   22.1368 H   0  0  0  0  0  0
  -19.6824  -25.6169   21.1421 H   0  0  0  0  0  0
  -19.6738  -27.3027   20.6744 H   0  0  0  0  0  0
  -17.4175  -26.6640   21.4093 H   0  0  0  0  0  0
  -18.0292  -26.0116   22.9130 H   0  0  0  0  0  0
  -19.7913  -30.7296   24.2276 H   0  0  0  0  0  0
  -17.4988  -31.6301   24.5079 H   0  0  0  0  0  0
  -15.5329  -30.3013   23.7641 H   0  0  0  0  0  0
  -15.8634  -28.0795   22.7168 H   0  0  0  0  0  0
  -24.5897  -30.7041   25.7804 H   0  0  0  0  0  0
  -24.8929  -32.2825   26.4972 H   0  0  0  0  0  0
  -25.8110  -30.8814   27.0198 H   0  0  0  0  0  0
  -26.2826  -29.6835   24.1110 H   0  0  0  0  0  0
  -27.4028  -29.7288   25.4539 H   0  0  0  0  0  0
  -27.8659  -30.4398   23.9241 H   0  0  0  0  0  0
  -27.2657  -33.3582   26.2131 H   0  0  0  0  0  0
  -28.3825  -32.6880   25.0303 H   0  0  0  0  0  0
  -28.0699  -31.8364   26.5365 H   0  0  0  0  0  0
  -28.2608  -38.0115   24.7498 H   0  0  0  0  0  0
  -28.1062  -36.2640   24.6309 H   0  0  0  0  0  0
  -27.2292  -37.1500   25.8874 H   0  0  0  0  0  0
  -20.9141  -29.8821   21.7102 H   0  0  0  0  0  0
  -26.0206  -38.2894   24.1418 H   0  0  0  0  0  0
  -28.0926  -16.3315   22.5636 H   0  0  0  0  0  0
  -26.1511  -16.6295   23.8126 H   0  0  0  0  0  0
  -25.0294  -17.8632   23.2484 H   0  0  0  0  0  0
  -26.1233  -18.2018   24.5995 H   0  0  0  0  0  0
  -25.2720  -21.6248   18.9455 H   0  0  0  0  0  0
  -25.7242  -20.2405   19.8981 H   0  0  0  0  0  0
  -26.7030  -20.7116   18.5037 H   0  0  0  0  0  0
  -31.1139  -17.1062   21.4941 H   0  0  0  0  0  0
  -30.4854  -17.0451   19.8591 H   0  0  0  0  0  0
  -28.7767  -24.0519   20.9256 H   0  0  0  0  0  0
  -27.1828  -24.7471   20.8962 H   0  0  0  0  0  0
  -28.2035  -22.9146   18.6855 H   0  0  0  0  0  0
  -26.6143  -23.6057   18.8153 H   0  0  0  0  0  0
  -28.0464  -25.5929   18.4078 H   0  0  0  0  0  0
  -29.5825  -25.3511   19.1677 H   0  0  0  0  0  0
  -26.3253  -22.4199   21.0285 H   0  0  0  0  0  0
  -29.0005  -21.5618   20.3913 H   0  0  0  0  0  0
  -29.0020  -15.1901   21.3568 H   0  0  0  0  0  0
  1 25  1  0  0  0
  1 30  2  0  0  0
  1 85  1  0  0  0
  2  3  1  0  0  0
  2 25  1  0  0  0
  2 88  1  0  0  0
  2 89  1  0  0  0
  3  4  1  0  0  0
  3 90  1  0  0  0
  3 91  1  0  0  0
  4  5  1  0  0  0
  4 92  1  0  0  0
  4 93  1  0  0  0
  5  6  1  0  0  0
  5 26  1  0  0  0
  5 94  1  0  0  0
  6 25  1  0  0  0
  6 95  1  0  0  0
  6 96  1  0  0  0
  7  8  2  0  0  0
  7 26  1  0  0  0
  7 29  1  0  0  0
  8  9  1  0  0  0
  8 22  1  0  0  0
  9 10  1  0  0  0
  9 27  2  0  0  0
 10 11  2  0  0  0
 10 15  1  0  0  0
 11 12  1  0  0  0
 11 97  1  0  0  0
 12 13  2  0  0  0
 12 98  1  0  0  0
 13 14  1  0  0  0
 13 31  1  0  0  0
 14 15  2  0  0  0
 14 99  1  0  0  0
 15100  1  0  0  0
 16 17  2  0  0  0
 16 21  1  0  0  0
 16 31  1  0  0  0
 17 18  1  0  0  0
 17101  1  0  0  0
 18 19  2  0  0  0
 18102  1  0  0  0
 19 20  1  0  0  0
 19 24  1  0  0  0
 20 21  2  0  0  0
 20103  1  0  0  0
 21 23  1  0  0  0
 22 28  1  0  0  0
 22 32  2  0  0  0
 26 27  1  0  0  0
 28104  1  0  0  0
 28105  1  0  0  0
 29106  1  0  0  0
 29107  1  0  0  0
 33 34  1  0  0  0
 33 66  1  0  0  0
 33 70  2  0  0  0
 34 36  1  0  0  0
 34 59  1  0  0  0
 34108  1  0  0  0
 35 44  2  0  0  0
 35 45  1  0  0  0
 35 68  1  0  0  0
 36 56  1  0  0  0
 36109  1  0  0  0
 37 39  1  0  0  0
 37 47  1  0  0  0
 37 66  1  0  0  0
 37110  1  0  0  0
 38 43  2  0  0  0
 38 46  1  0  0  0
 38 47  1  0  0  0
 39 64  1  0  0  0
 39 67  2  0  0  0
 40 52  1  0  0  0
 40 53  2  0  0  0
 40 58  1  0  0  0
 41111  1  0  0  0
 41112  1  0  0  0
 41113  1  0  0  0
 41 48  1  0  0  0
 42 43  1  0  0  0
 42 66  1  0  0  0
 42114  1  0  0  0
 42115  1  0  0  0
 43 44  1  0  0  0
 44116  1  0  0  0
 45 46  2  0  0  0
 45117  1  0  0  0
 46118  1  0  0  0
 47119  1  0  0  0
 47120  1  0  0  0
 48 56  1  0  0  0
 48 65  1  0  0  0
 48121  1  0  0  0
 49 50  1  0  0  0
 49 53  1  0  0  0
 49 64  1  0  0  0
 49122  1  0  0  0
 50 51  1  0  0  0
 50123  1  0  0  0
 50124  1  0  0  0
 51 52  1  0  0  0
 51125  1  0  0  0
 51126  1  0  0  0
 52127  1  0  0  0
 52128  1  0  0  0
 53 54  1  0  0  0
 54 55  2  0  0  0
 54129  1  0  0  0
 55 57  1  0  0  0
 55130  1  0  0  0
 56 69  2  0  0  0
 57 58  2  0  0  0
 57131  1  0  0  0
 58132  1  0  0  0
 59 60  1  0  0  0
 59 61  1  0  0  0
 59 62  1  0  0  0
 60133  1  0  0  0
 60134  1  0  0  0
 60135  1  0  0  0
 61136  1  0  0  0
 61137  1  0  0  0
 61138  1  0  0  0
 62139  1  0  0  0
 62140  1  0  0  0
 62141  1  0  0  0
 63 65  1  0  0  0
 63142  1  0  0  0
 63143  1  0  0  0
 63144  1  0  0  0
 64145  1  0  0  0
 65146  1  0  0  0
 68 82  1  0  0  0
 71 72  2  0  0  0
 71 73  1  0  0  0
 71147  1  0  0  0
 72 75  1  0  0  0
 72 77  1  0  0  0
 73 76  2  0  0  0
 73 79  1  0  0  0
 74 75  2  0  0  0
 74 76  1  0  0  0
 74 84  1  0  0  0
 75 86  1  0  0  0
 76 87  1  0  0  0
 77148  1  0  0  0
 77149  1  0  0  0
 77150  1  0  0  0
 78151  1  0  0  0
 78152  1  0  0  0
 78153  1  0  0  0
 78 83  1  0  0  0
 79 85  1  0  0  0
 79154  1  0  0  0
 79155  1  0  0  0
 80 81  1  0  0  0
 80 82  1  0  0  0
 80156  1  0  0  0
 80157  1  0  0  0
 81 83  1  0  0  0
 81158  1  0  0  0
 81159  1  0  0  0
 82160  1  0  0  0
 82161  1  0  0  0
 83 84  1  0  0  0
 83162  1  0  0  0
 84163  1  0  0  0
 85164  1  0  0  0
M  ISO  4   1 100  68 101  82 101  85 100
M  END
> <chiral flag>
0

> <version>
0

> <s_m_source_file>
/data/baiqing/PycharmProjects/Reinvent-master-3.2/result/LINK_invent/BTK/process_docking_weight1_custom_sum_contain_oxygen_bond_distance_aromatic_linkinvent_7_9_3/rearranged_h_0026.sdf

> <i_m_source_file_index>
63

> <r_mmod_Potential_Energy-OPLS-2005>
-74.1916351318359

> <r_mmod_Stretch_Energy-OPLS-2005>
35.2807846069336

> <r_mmod_Bend_Energy-OPLS-2005>
103.458000183105

> <r_mmod_Torsional_Energy-OPLS-2005>
205.222290039062

> <r_mmod_Improper_Torsional_Energy-OPLS-2005>
8.88554954528809

> <r_mmod_Van_der_Waal_Energy-OPLS-2005>
163.912994384766

> <r_mmod_Electrostatic_Energy-OPLS-2005>
-399.634429931641

> <r_mmod_Solvation_Energy-OPLS-2005>
-202.039596557617

> <b_mmod_Minimization_Converged-OPLS-2005>
0

> <r_mmod_RMS_Derivative-OPLS-2005>
4.17409753799438

$$$$
63
                    3D
 Structure written by MMmdl.
170178  0  0  1  0            999 V2000
  -30.7582  -14.3041   20.7496 C   0  0  0  0  0  0
  -30.4315  -12.2909   19.3568 C   0  0  0  0  0  0
  -29.4738  -12.5454   18.1775 C   0  0  0  0  0  0
  -28.0012  -12.3902   18.6030 C   0  0  0  0  0  0
  -27.6705  -13.1917   19.8854 C   0  0  2  0  0  0
  -28.7089  -12.8707   20.9830 C   0  0  0  0  0  0
  -25.2611  -13.8141   20.5698 C   0  0  0  0  0  0
  -24.1853  -13.0451   20.9187 C   0  0  0  0  0  0
  -24.6380  -11.6900   20.8760 C   0  0  0  0  0  0
  -23.9059  -10.4297   21.0423 C   0  0  0  0  0  0
  -24.3624   -9.4210   21.9186 C   0  0  0  0  0  0
  -23.6302   -8.2238   22.0732 C   0  0  0  0  0  0
  -22.4277   -8.0281   21.3530 C   0  0  0  0  0  0
  -21.9925   -9.0265   20.4630 C   0  0  0  0  0  0
  -22.7237  -10.2148   20.3054 C   0  0  0  0  0  0
  -21.6843   -6.0747   22.5283 C   0  0  0  0  0  0
  -21.4004   -6.5647   23.8216 C   0  0  0  0  0  0
  -21.3670   -5.6797   24.9197 C   0  0  0  0  0  0
  -21.6040   -4.3060   24.7242 C   0  0  0  0  0  0
  -21.8825   -3.8149   23.4354 C   0  0  0  0  0  0
  -21.9192   -4.6972   22.3414 C   0  0  0  0  0  0
  -22.7873  -13.5256   21.1879 C   0  0  0  0  0  0
  -22.1656   -4.2165   21.0988 F   0  0  0  0  0  0
  -21.5650   -3.4525   25.7744 F   0  0  0  0  0  0
  -30.0630  -13.1753   20.4671 N   0  0  0  0  0  0
  -26.3049  -12.9297   20.3418 N   0  0  0  0  0  0
  -25.9295  -11.6461   20.5792 N   0  0  0  0  0  0
  -22.0521  -12.8238   22.0428 N   0  0  0  0  0  0
  -25.4390  -15.1866   20.4122 N   0  0  0  0  0  0
  -31.6967  -14.7396   20.0720 O   0  0  0  0  0  0
  -21.6653   -6.8868   21.4223 O   0  0  0  0  0  0
  -22.3583  -14.5581   20.6752 O   0  0  0  0  0  0
  -24.6110  -31.8699   23.2118 C   0  0  0  0  0  0
  -25.9014  -32.4826   23.8406 C   0  0  1  0  0  0
  -27.2402  -27.4634   20.0856 C   0  0  0  0  0  0
  -25.5888  -33.8616   24.2344 N   0  0  0  0  0  0
  -23.3967  -30.4990   21.5444 C   0  0  2  0  0  0
  -24.8443  -28.9660   20.1150 C   0  0  0  0  0  0
  -22.7383  -29.4695   22.4919 C   0  0  0  0  0  0
  -18.0291  -28.1359   22.8478 C   0  0  0  0  0  0
  -24.1488  -36.7341   23.2645 C   0  0  0  0  0  0
  -25.9244  -30.8457   21.3611 C   0  0  0  0  0  0
  -26.0021  -29.4825   20.7090 C   0  0  0  0  0  0
  -27.2003  -28.7373   20.6934 C   0  0  0  0  0  0
  -26.0634  -26.9569   19.4852 C   0  0  0  0  0  0
  -24.8679  -27.6998   19.5059 C   0  0  0  0  0  0
  -23.6057  -29.8315   20.1593 C   0  0  0  0  0  0
  -25.4097  -36.3112   24.0349 C   0  0  1  0  0  0
  -20.5873  -28.3666   23.1299 C   0  0  2  0  0  0
  -20.6750  -26.9388   22.5413 C   0  0  0  0  0  0
  -19.5734  -26.6361   21.5202 C   0  0  0  0  0  0
  -18.1917  -26.7896   22.1624 C   0  0  0  0  0  0
  -19.1530  -28.8821   23.2891 C   0  0  0  0  0  0
  -18.9465  -30.1421   23.8905 C   0  0  0  0  0  0
  -17.6468  -30.6556   24.0564 C   0  0  0  0  0  0
  -25.9024  -34.9477   23.5147 C   0  0  0  0  0  0
  -16.5355  -29.9067   23.6312 C   0  0  0  0  0  0
  -16.7283  -28.6484   23.0319 C   0  0  0  0  0  0
  -26.4461  -31.6594   25.0730 C   0  0  0  0  0  0
  -25.3771  -31.3668   26.1523 C   0  0  0  0  0  0
  -27.0289  -30.3037   24.6090 C   0  0  0  0  0  0
  -27.6039  -32.4312   25.7500 C   0  0  0  0  0  0
  -27.5575  -37.1830   24.8462 C   0  0  0  0  0  0
  -21.4109  -29.3065   22.3677 N   0  0  0  0  0  0
  -26.4295  -37.3794   23.9396 N   0  0  0  0  0  0
  -24.6608  -31.0875   22.0973 N   0  0  0  0  0  0
  -23.4182  -28.8201   23.2913 O   0  0  0  0  0  0
  -28.4322  -26.7734   20.1034 O   0  0  0  0  0  0
  -26.5575  -34.8951   22.4704 O   0  0  0  0  0  0
  -23.5317  -32.1397   23.7551 O   0  0  0  0  0  0
  -29.1343  -21.1621   20.9486 C   0  0  0  0  0  0
  -29.3642  -20.2811   22.0178 C   0  0  0  0  0  0
  -29.8471  -22.3779   20.9951 C   0  0  0  0  0  0
  -30.7423  -21.7941   23.0227 C   0  0  0  0  0  0
  -31.6400  -22.1498   24.1915 C   0  0  0  0  0  0
  -32.6355  -22.2129   18.8452 C   0  0  0  0  0  0
  -31.6311  -23.1957   18.2240 C   0  0  0  0  0  0
  -28.9681  -16.6593   22.7558 C   0  0  0  0  0  0
  -30.1645  -22.9054   18.5932 C   0  0  0  0  0  0
  -28.8221  -18.1262   23.1708 C   0  0  0  0  0  0
  -30.3758  -16.2802   22.2456 C   0  0  0  0  0  0
  -29.7067  -24.7416   20.3089 C   0  0  0  0  0  0
  -28.4134  -25.3843   19.7882 C   0  0  0  0  0  0
  -30.1639  -20.6019   23.0510 N   0  0  0  0  0  0
  -30.6295  -22.6899   22.0476 N   0  0  0  0  0  0
  -28.7793  -19.0098   22.0102 N   0  0  0  0  0  0
  -30.3506  -14.8712   21.8875 N   0  0  0  0  0  0
  -29.7999  -23.3263   19.9509 N   0  0  0  0  0  0
  -27.9946  -20.7711   19.6961 Cl  0  0  0  0  0  0
  -31.4649  -12.4449   19.0401 H   0  0  0  0  0  0
  -30.3631  -11.2531   19.6845 H   0  0  0  0  0  0
  -29.6894  -11.8612   17.3587 H   0  0  0  0  0  0
  -29.6412  -13.5489   17.7774 H   0  0  0  0  0  0
  -27.7986  -11.3311   18.7662 H   0  0  0  0  0  0
  -27.3459  -12.7058   17.7892 H   0  0  0  0  0  0
  -27.7443  -14.2524   19.6411 H   0  0  0  0  0  0
  -28.6678  -11.8150   21.2581 H   0  0  0  0  0  0
  -28.4342  -13.3976   21.8960 H   0  0  0  0  0  0
  -25.2764   -9.5712   22.4776 H   0  0  0  0  0  0
  -24.0016   -7.4640   22.7448 H   0  0  0  0  0  0
  -21.0845   -8.8771   19.8959 H   0  0  0  0  0  0
  -22.3659  -10.9695   19.6182 H   0  0  0  0  0  0
  -21.1957   -7.6155   23.9721 H   0  0  0  0  0  0
  -21.1491   -6.0536   25.9102 H   0  0  0  0  0  0
  -22.0587   -2.7602   23.2862 H   0  0  0  0  0  0
  -22.4131  -11.9879   22.4818 H   0  0  0  0  0  0
  -21.1151  -13.1263   22.2656 H   0  0  0  0  0  0
  -24.6779  -15.8469   20.5224 H   0  0  0  0  0  0
  -26.3017  -15.6233   20.1129 H   0  0  0  0  0  0
  -26.7084  -32.5534   23.1169 H   0  0  0  0  0  0
  -25.0017  -33.9741   25.0472 H   0  0  0  0  0  0
  -22.6892  -31.3170   21.4045 H   0  0  0  0  0  0
  -23.3729  -35.9703   23.3316 H   0  0  0  0  0  0
  -24.3589  -36.8928   22.2063 H   0  0  0  0  0  0
  -23.7298  -37.6580   23.6643 H   0  0  0  0  0  0
  -26.0451  -31.6191   20.5997 H   0  0  0  0  0  0
  -26.8105  -30.8951   21.9798 H   0  0  0  0  0  0
  -28.0916  -29.1368   21.1564 H   0  0  0  0  0  0
  -26.0495  -25.9927   18.9954 H   0  0  0  0  0  0
  -23.9760  -27.2940   19.0476 H   0  0  0  0  0  0
  -23.7219  -30.6059   19.4006 H   0  0  0  0  0  0
  -22.7290  -29.2531   19.8583 H   0  0  0  0  0  0
  -25.1275  -36.1980   25.0849 H   0  0  0  0  0  0
  -21.0015  -28.3241   24.1403 H   0  0  0  0  0  0
  -20.5609  -26.2280   23.3599 H   0  0  0  0  0  0
  -21.6621  -26.7363   22.1235 H   0  0  0  0  0  0
  -19.6884  -25.6273   21.1208 H   0  0  0  0  0  0
  -19.6674  -27.3182   20.6730 H   0  0  0  0  0  0
  -17.4176  -26.6646   21.4029 H   0  0  0  0  0  0
  -18.0339  -26.0030   22.9024 H   0  0  0  0  0  0
  -19.7947  -30.7228   24.2267 H   0  0  0  0  0  0
  -17.5034  -31.6237   24.5163 H   0  0  0  0  0  0
  -15.5356  -30.2984   23.7617 H   0  0  0  0  0  0
  -15.8679  -28.0827   22.7006 H   0  0  0  0  0  0
  -24.5933  -30.7011   25.7887 H   0  0  0  0  0  0
  -24.9000  -32.2824   26.5041 H   0  0  0  0  0  0
  -25.8216  -30.8807   27.0223 H   0  0  0  0  0  0
  -26.2807  -29.6787   24.1214 H   0  0  0  0  0  0
  -27.4122  -29.7302   25.4540 H   0  0  0  0  0  0
  -27.8623  -30.4339   23.9181 H   0  0  0  0  0  0
  -27.2620  -33.3560   26.2163 H   0  0  0  0  0  0
  -28.3836  -32.6946   25.0338 H   0  0  0  0  0  0
  -28.0737  -31.8391   26.5363 H   0  0  0  0  0  0
  -28.2607  -38.0103   24.7461 H   0  0  0  0  0  0
  -28.1049  -36.2644   24.6326 H   0  0  0  0  0  0
  -27.2288  -37.1529   25.8863 H   0  0  0  0  0  0
  -20.9217  -29.8876   21.7005 H   0  0  0  0  0  0
  -26.0178  -38.2882   24.1371 H   0  0  0  0  0  0
  -31.4635  -21.4934   25.0455 H   0  0  0  0  0  0
  -31.4578  -23.1746   24.5158 H   0  0  0  0  0  0
  -32.6893  -22.0722   23.9073 H   0  0  0  0  0  0
  -32.5098  -21.2139   18.4252 H   0  0  0  0  0  0
  -32.5210  -22.1358   19.9271 H   0  0  0  0  0  0
  -33.6579  -22.5301   18.6287 H   0  0  0  0  0  0
  -31.7232  -23.1299   17.1371 H   0  0  0  0  0  0
  -31.9080  -24.2203   18.4693 H   0  0  0  0  0  0
  -28.2042  -16.4132   22.0154 H   0  0  0  0  0  0
  -28.7369  -16.0425   23.6257 H   0  0  0  0  0  0
  -29.9776  -21.8436   18.4466 H   0  0  0  0  0  0
  -29.5108  -23.4156   17.8832 H   0  0  0  0  0  0
  -27.8835  -18.2606   23.7130 H   0  0  0  0  0  0
  -29.6214  -18.3747   23.8648 H   0  0  0  0  0  0
  -31.1314  -16.4416   23.0146 H   0  0  0  0  0  0
  -30.6518  -16.9002   21.3908 H   0  0  0  0  0  0
  -29.7369  -24.8747   21.3907 H   0  0  0  0  0  0
  -30.5732  -25.2744   19.9193 H   0  0  0  0  0  0
  -27.5728  -24.8800   20.2653 H   0  0  0  0  0  0
  -28.3108  -25.2533   18.7105 H   0  0  0  0  0  0
  -28.1158  -18.8195   21.2664 H   0  0  0  0  0  0
  -29.7038  -14.2996   22.4138 H   0  0  0  0  0  0
  1 25  1  0  0  0
  1 30  2  0  0  0
  1 87  1  0  0  0
  2  3  1  0  0  0
  2 25  1  0  0  0
  2 90  1  0  0  0
  2 91  1  0  0  0
  3  4  1  0  0  0
  3 92  1  0  0  0
  3 93  1  0  0  0
  4  5  1  0  0  0
  4 94  1  0  0  0
  4 95  1  0  0  0
  5  6  1  0  0  0
  5 26  1  0  0  0
  5 96  1  0  0  0
  6 25  1  0  0  0
  6 97  1  0  0  0
  6 98  1  0  0  0
  7  8  2  0  0  0
  7 26  1  0  0  0
  7 29  1  0  0  0
  8  9  1  0  0  0
  8 22  1  0  0  0
  9 10  1  0  0  0
  9 27  2  0  0  0
 10 11  2  0  0  0
 10 15  1  0  0  0
 11 12  1  0  0  0
 11 99  1  0  0  0
 12 13  2  0  0  0
 12100  1  0  0  0
 13 14  1  0  0  0
 13 31  1  0  0  0
 14 15  2  0  0  0
 14101  1  0  0  0
 15102  1  0  0  0
 16 17  2  0  0  0
 16 21  1  0  0  0
 16 31  1  0  0  0
 17 18  1  0  0  0
 17103  1  0  0  0
 18 19  2  0  0  0
 18104  1  0  0  0
 19 20  1  0  0  0
 19 24  1  0  0  0
 20 21  2  0  0  0
 20105  1  0  0  0
 21 23  1  0  0  0
 22 28  1  0  0  0
 22 32  2  0  0  0
 26 27  1  0  0  0
 28106  1  0  0  0
 28107  1  0  0  0
 29108  1  0  0  0
 29109  1  0  0  0
 33 34  1  0  0  0
 33 66  1  0  0  0
 33 70  2  0  0  0
 34 36  1  0  0  0
 34 59  1  0  0  0
 34110  1  0  0  0
 35 44  2  0  0  0
 35 45  1  0  0  0
 35 68  1  0  0  0
 36 56  1  0  0  0
 36111  1  0  0  0
 37 39  1  0  0  0
 37 47  1  0  0  0
 37 66  1  0  0  0
 37112  1  0  0  0
 38 43  2  0  0  0
 38 46  1  0  0  0
 38 47  1  0  0  0
 39 64  1  0  0  0
 39 67  2  0  0  0
 40 52  1  0  0  0
 40 53  2  0  0  0
 40 58  1  0  0  0
 41113  1  0  0  0
 41114  1  0  0  0
 41115  1  0  0  0
 41 48  1  0  0  0
 42 43  1  0  0  0
 42 66  1  0  0  0
 42116  1  0  0  0
 42117  1  0  0  0
 43 44  1  0  0  0
 44118  1  0  0  0
 45 46  2  0  0  0
 45119  1  0  0  0
 46120  1  0  0  0
 47121  1  0  0  0
 47122  1  0  0  0
 48 56  1  0  0  0
 48 65  1  0  0  0
 48123  1  0  0  0
 49 50  1  0  0  0
 49 53  1  0  0  0
 49 64  1  0  0  0
 49124  1  0  0  0
 50 51  1  0  0  0
 50125  1  0  0  0
 50126  1  0  0  0
 51 52  1  0  0  0
 51127  1  0  0  0
 51128  1  0  0  0
 52129  1  0  0  0
 52130  1  0  0  0
 53 54  1  0  0  0
 54 55  2  0  0  0
 54131  1  0  0  0
 55 57  1  0  0  0
 55132  1  0  0  0
 56 69  2  0  0  0
 57 58  2  0  0  0
 57133  1  0  0  0
 58134  1  0  0  0
 59 60  1  0  0  0
 59 61  1  0  0  0
 59 62  1  0  0  0
 60135  1  0  0  0
 60136  1  0  0  0
 60137  1  0  0  0
 61138  1  0  0  0
 61139  1  0  0  0
 61140  1  0  0  0
 62141  1  0  0  0
 62142  1  0  0  0
 62143  1  0  0  0
 63 65  1  0  0  0
 63144  1  0  0  0
 63145  1  0  0  0
 63146  1  0  0  0
 64147  1  0  0  0
 65148  1  0  0  0
 68 83  1  0  0  0
 71 72  2  0  0  0
 71 73  1  0  0  0
 71 89  1  0  0  0
 72 84  1  0  0  0
 72 86  1  0  0  0
 73 85  2  0  0  0
 73 88  1  0  0  0
 74 75  1  0  0  0
 74 84  2  0  0  0
 74 85  1  0  0  0
 75149  1  0  0  0
 75150  1  0  0  0
 75151  1  0  0  0
 76 77  1  0  0  0
 76152  1  0  0  0
 76153  1  0  0  0
 76154  1  0  0  0
 77 79  1  0  0  0
 77155  1  0  0  0
 77156  1  0  0  0
 78 80  1  0  0  0
 78 81  1  0  0  0
 78157  1  0  0  0
 78158  1  0  0  0
 79 88  1  0  0  0
 79159  1  0  0  0
 79160  1  0  0  0
 80 86  1  0  0  0
 80161  1  0  0  0
 80162  1  0  0  0
 81 87  1  0  0  0
 81163  1  0  0  0
 81164  1  0  0  0
 82 83  1  0  0  0
 82 88  1  0  0  0
 82165  1  0  0  0
 82166  1  0  0  0
 83167  1  0  0  0
 83168  1  0  0  0
 86169  1  0  0  0
 87170  1  0  0  0
M  ISO  4   1 100  68 101  83 101  87 100
M  END
> <chiral flag>
0

> <version>
0

> <s_m_source_file>
/data/baiqing/PycharmProjects/Reinvent-master-3.2/result/LINK_invent/BTK/process_docking_weight1_custom_sum_contain_oxygen_bond_distance_aromatic_linkinvent_7_9_3/rearranged_h_0026.sdf

> <i_m_source_file_index>
64

> <r_mmod_Potential_Energy-OPLS-2005>
-450.830078125

> <r_mmod_Stretch_Energy-OPLS-2005>
33.0636901855469

> <r_mmod_Bend_Energy-OPLS-2005>
122.042091369629

> <r_mmod_Torsional_Energy-OPLS-2005>
223.500961303711

> <r_mmod_Improper_Torsional_Energy-OPLS-2005>
4.23949956893921

> <r_mmod_Van_der_Waal_Energy-OPLS-2005>
173.153228759766

> <r_mmod_Electrostatic_Energy-OPLS-2005>
-794.488342285156

> <r_mmod_Solvation_Energy-OPLS-2005>
-223.116027832031

> <b_mmod_Minimization_Converged-OPLS-2005>
0

> <r_mmod_RMS_Derivative-OPLS-2005>
4.96939611434937

$$$$
64
                    3D
 Structure written by MMmdl.
177185  0  0  1  0            999 V2000
  -30.7283  -14.3877   20.5829 C   0  0  0  0  0  0
  -30.4105  -12.2568   19.4172 C   0  0  0  0  0  0
  -29.4893  -12.4988   18.2050 C   0  0  0  0  0  0
  -28.0092  -12.3731   18.6155 C   0  0  0  0  0  0
  -27.6645  -13.2021   19.8823 C   0  0  2  0  0  0
  -28.7003  -12.9513   21.0015 C   0  0  0  0  0  0
  -25.2592  -13.8153   20.5669 C   0  0  0  0  0  0
  -24.1832  -13.0439   20.9158 C   0  0  0  0  0  0
  -24.6383  -11.6902   20.8726 C   0  0  0  0  0  0
  -23.9050  -10.4291   21.0400 C   0  0  0  0  0  0
  -24.3607   -9.4208   21.9178 C   0  0  0  0  0  0
  -23.6287   -8.2242   22.0749 C   0  0  0  0  0  0
  -22.4270   -8.0277   21.3542 C   0  0  0  0  0  0
  -21.9902   -9.0248   20.4641 C   0  0  0  0  0  0
  -22.7225  -10.2130   20.3048 C   0  0  0  0  0  0
  -21.6853   -6.0731   22.5279 C   0  0  0  0  0  0
  -21.4013   -6.5636   23.8210 C   0  0  0  0  0  0
  -21.3657   -5.6788   24.9175 C   0  0  0  0  0  0
  -21.6046   -4.3051   24.7225 C   0  0  0  0  0  0
  -21.8821   -3.8142   23.4345 C   0  0  0  0  0  0
  -21.9193   -4.6959   22.3400 C   0  0  0  0  0  0
  -22.7859  -13.5236   21.1833 C   0  0  0  0  0  0
  -22.1662   -4.2143   21.0977 F   0  0  0  0  0  0
  -21.5632   -3.4536   25.7741 F   0  0  0  0  0  0
  -30.0411  -13.2271   20.4563 N   0  0  0  0  0  0
  -26.3031  -12.9323   20.3398 N   0  0  0  0  0  0
  -25.9308  -11.6482   20.5771 N   0  0  0  0  0  0
  -22.0509  -12.8219   22.0397 N   0  0  0  0  0  0
  -25.4323  -15.1862   20.4056 N   0  0  0  0  0  0
  -31.8559  -14.5474   20.1098 O   0  0  0  0  0  0
  -21.6637   -6.8876   21.4239 O   0  0  0  0  0  0
  -22.3536  -14.5545   20.6700 O   0  0  0  0  0  0
  -24.6089  -31.8700   23.2129 C   0  0  0  0  0  0
  -25.9002  -32.4837   23.8412 C   0  0  1  0  0  0
  -27.2418  -27.4913   20.0978 C   0  0  0  0  0  0
  -25.5877  -33.8635   24.2347 N   0  0  0  0  0  0
  -23.3947  -30.4911   21.5528 C   0  0  2  0  0  0
  -24.8441  -28.9636   20.1166 C   0  0  0  0  0  0
  -22.7392  -29.4649   22.5021 C   0  0  0  0  0  0
  -18.0259  -28.1369   22.8488 C   0  0  0  0  0  0
  -24.1487  -36.7318   23.2641 C   0  0  0  0  0  0
  -25.9155  -30.8583   21.3534 C   0  0  0  0  0  0
  -25.9994  -29.4964   20.7025 C   0  0  0  0  0  0
  -27.2048  -28.7695   20.6841 C   0  0  0  0  0  0
  -26.0768  -26.9550   19.5087 C   0  0  0  0  0  0
  -24.8748  -27.6905   19.5160 C   0  0  0  0  0  0
  -23.6005  -29.8209   20.1668 C   0  0  0  0  0  0
  -25.4108  -36.3126   24.0341 C   0  0  1  0  0  0
  -20.5850  -28.3638   23.1342 C   0  0  2  0  0  0
  -20.6750  -26.9384   22.5424 C   0  0  0  0  0  0
  -19.5723  -26.6383   21.5218 C   0  0  0  0  0  0
  -18.1897  -26.7916   22.1622 C   0  0  0  0  0  0
  -19.1507  -28.8822   23.2907 C   0  0  0  0  0  0
  -18.9435  -30.1431   23.8924 C   0  0  0  0  0  0
  -17.6438  -30.6578   24.0563 C   0  0  0  0  0  0
  -25.9020  -34.9485   23.5140 C   0  0  0  0  0  0
  -16.5334  -29.9080   23.6321 C   0  0  0  0  0  0
  -16.7249  -28.6493   23.0347 C   0  0  0  0  0  0
  -26.4458  -31.6597   25.0709 C   0  0  0  0  0  0
  -25.3749  -31.3668   26.1475 C   0  0  0  0  0  0
  -27.0285  -30.3061   24.6011 C   0  0  0  0  0  0
  -27.6028  -32.4320   25.7474 C   0  0  0  0  0  0
  -27.5587  -37.1814   24.8462 C   0  0  0  0  0  0
  -21.4127  -29.3012   22.3765 N   0  0  0  0  0  0
  -26.4306  -37.3796   23.9399 N   0  0  0  0  0  0
  -24.6575  -31.0854   22.0995 N   0  0  0  0  0  0
  -23.4186  -28.8190   23.3037 O   0  0  0  0  0  0
  -28.4160  -26.7890   20.0907 O   0  0  0  0  0  0
  -26.5584  -34.8928   22.4697 O   0  0  0  0  0  0
  -23.5300  -32.1409   23.7576 O   0  0  0  0  0  0
  -31.0590  -17.3468   20.0076 C   0  0  0  0  0  0
  -29.0970  -19.0005   21.1868 C   0  0  0  0  0  0
  -30.0513  -19.5492   20.2823 C   0  0  0  0  0  0
  -30.1097  -16.7749   20.8865 C   0  0  0  0  0  0
  -31.0308  -18.7118   19.7064 C   0  0  0  0  0  0
  -29.1326  -17.6087   21.4775 C   0  0  0  0  0  0
  -28.0322  -19.8947   21.8222 C   0  0  0  0  0  0
  -29.0033  -26.7018   23.2514 C   0  0  0  0  0  0
  -32.4258  -25.3706   20.3976 C   0  0  0  0  0  0
  -33.5564  -23.4089   21.3863 C   0  0  0  0  0  0
  -30.0682  -21.0253   19.9034 C   0  0  0  0  0  0
  -31.3655  -23.1203   20.1429 C   0  0  0  0  0  0
  -31.4790  -24.2895   22.5157 C   0  0  0  0  0  0
  -28.4336  -25.6708   20.9713 C   0  0  0  0  0  0
  -29.5156  -25.8646   22.0650 C   0  0  2  0  0  0
  -32.1639  -24.0313   21.1230 C   0  0  0  0  0  0
  -30.0537  -15.3801   21.1786 N   0  0  0  0  0  0
  -31.1842  -21.7181   20.5815 N   0  3  0  0  0  0
  -30.0112  -24.5498   22.5482 N   0  3  0  0  0  0
  -32.2371  -19.3374   18.6346 Cl  0  0  0  0  0  0
  -27.9709  -16.8848   22.5433 Cl  0  0  0  0  0  0
  -31.4578  -12.3318   19.1196 H   0  0  0  0  0  0
  -30.2862  -11.2423   19.7977 H   0  0  0  0  0  0
  -29.7180  -11.7866   17.4112 H   0  0  0  0  0  0
  -29.6737  -13.4908   17.7897 H   0  0  0  0  0  0
  -27.8062  -11.3170   18.7972 H   0  0  0  0  0  0
  -27.3628  -12.6664   17.7878 H   0  0  0  0  0  0
  -27.7199  -14.2546   19.6028 H   0  0  0  0  0  0
  -28.6545  -11.9125   21.3311 H   0  0  0  0  0  0
  -28.4685  -13.5433   21.8879 H   0  0  0  0  0  0
  -25.2754   -9.5688   22.4746 H   0  0  0  0  0  0
  -24.0000   -7.4634   22.7467 H   0  0  0  0  0  0
  -21.0837   -8.8759   19.8942 H   0  0  0  0  0  0
  -22.3682  -10.9666   19.6153 H   0  0  0  0  0  0
  -21.2003   -7.6143   23.9715 H   0  0  0  0  0  0
  -21.1480   -6.0517   25.9078 H   0  0  0  0  0  0
  -22.0602   -2.7602   23.2847 H   0  0  0  0  0  0
  -22.4130  -11.9869   22.4755 H   0  0  0  0  0  0
  -21.1126  -13.1233   22.2614 H   0  0  0  0  0  0
  -24.6760  -15.8480   20.5364 H   0  0  0  0  0  0
  -26.3016  -15.6263   20.1341 H   0  0  0  0  0  0
  -26.7074  -32.5583   23.1192 H   0  0  0  0  0  0
  -25.0055  -33.9793   25.0520 H   0  0  0  0  0  0
  -22.6811  -31.3059   21.4147 H   0  0  0  0  0  0
  -23.3752  -35.9647   23.3310 H   0  0  0  0  0  0
  -24.3593  -36.8921   22.2052 H   0  0  0  0  0  0
  -23.7233  -37.6523   23.6650 H   0  0  0  0  0  0
  -26.0153  -31.6288   20.5877 H   0  0  0  0  0  0
  -26.8065  -30.9154   21.9676 H   0  0  0  0  0  0
  -28.1031  -29.1823   21.1223 H   0  0  0  0  0  0
  -26.1000  -25.9804   19.0405 H   0  0  0  0  0  0
  -23.9865  -27.2756   19.0593 H   0  0  0  0  0  0
  -23.6983  -30.5935   19.4024 H   0  0  0  0  0  0
  -22.7277  -29.2314   19.8791 H   0  0  0  0  0  0
  -25.1286  -36.2003   25.0834 H   0  0  0  0  0  0
  -20.9923  -28.3202   24.1464 H   0  0  0  0  0  0
  -20.5667  -26.2243   23.3596 H   0  0  0  0  0  0
  -21.6618  -26.7440   22.1203 H   0  0  0  0  0  0
  -19.6895  -25.6302   21.1215 H   0  0  0  0  0  0
  -19.6682  -27.3225   20.6768 H   0  0  0  0  0  0
  -17.4177  -26.6673   21.4014 H   0  0  0  0  0  0
  -18.0292  -26.0061   22.9013 H   0  0  0  0  0  0
  -19.7916  -30.7220   24.2336 H   0  0  0  0  0  0
  -17.4997  -31.6266   24.5148 H   0  0  0  0  0  0
  -15.5334  -30.2987   23.7635 H   0  0  0  0  0  0
  -15.8642  -28.0817   22.7062 H   0  0  0  0  0  0
  -24.5913  -30.7027   25.7814 H   0  0  0  0  0  0
  -24.8951  -32.2802   26.4988 H   0  0  0  0  0  0
  -25.8119  -30.8792   27.0198 H   0  0  0  0  0  0
  -26.2801  -29.6846   24.1083 H   0  0  0  0  0  0
  -27.4111  -29.7265   25.4423 H   0  0  0  0  0  0
  -27.8606  -30.4412   23.9103 H   0  0  0  0  0  0
  -27.2634  -33.3604   26.2082 H   0  0  0  0  0  0
  -28.3820  -32.6911   25.0294 H   0  0  0  0  0  0
  -28.0719  -31.8436   26.5370 H   0  0  0  0  0  0
  -28.2593  -38.0126   24.7529 H   0  0  0  0  0  0
  -28.1092  -36.2651   24.6269 H   0  0  0  0  0  0
  -27.2299  -37.1441   25.8867 H   0  0  0  0  0  0
  -20.9295  -29.8741   21.6995 H   0  0  0  0  0  0
  -26.0203  -38.2874   24.1413 H   0  0  0  0  0  0
  -31.8295  -16.7727   19.5226 H   0  0  0  0  0  0
  -28.4857  -20.7695   22.2869 H   0  0  0  0  0  0
  -27.4534  -19.4081   22.6048 H   0  0  0  0  0  0
  -27.3225  -20.2325   21.0658 H   0  0  0  0  0  0
  -28.6538  -27.6792   22.9224 H   0  0  0  0  0  0
  -29.7941  -26.8801   23.9807 H   0  0  0  0  0  0
  -28.1736  -26.2174   23.7679 H   0  0  0  0  0  0
  -31.5180  -25.8051   19.9823 H   0  0  0  0  0  0
  -33.1034  -25.2403   19.5523 H   0  0  0  0  0  0
  -32.8836  -26.1076   21.0591 H   0  0  0  0  0  0
  -34.1037  -23.2300   20.4591 H   0  0  0  0  0  0
  -33.4972  -22.4559   21.9141 H   0  0  0  0  0  0
  -34.1762  -24.0670   21.9969 H   0  0  0  0  0  0
  -29.1226  -21.5136   20.1349 H   0  0  0  0  0  0
  -30.1708  -21.1157   18.8204 H   0  0  0  0  0  0
  -31.8667  -23.0927   19.1728 H   0  0  0  0  0  0
  -30.3955  -23.5647   19.9353 H   0  0  0  0  0  0
  -31.9888  -25.0989   23.0418 H   0  0  0  0  0  0
  -31.6335  -23.4141   23.1482 H   0  0  0  0  0  0
  -27.4618  -25.4593   21.4241 H   0  0  0  0  0  0
  -28.6604  -24.8100   20.3460 H   0  0  0  0  0  0
  -30.3418  -26.4270   21.6392 H   0  0  0  0  0  0
  -29.2224  -15.0929   21.6755 H   0  0  0  0  0  0
  -32.0280  -21.2109   20.3535 H   0  0  0  0  0  0
  -31.0469  -21.6431   21.5743 H   0  0  0  0  0  0
  -29.7593  -24.5037   23.5250 H   0  0  0  0  0  0
  -29.4904  -23.8072   22.1144 H   0  0  0  0  0  0
  1 25  1  0  0  0
  1 30  2  0  0  0
  1 87  1  0  0  0
  2  3  1  0  0  0
  2 25  1  0  0  0
  2 92  1  0  0  0
  2 93  1  0  0  0
  3  4  1  0  0  0
  3 94  1  0  0  0
  3 95  1  0  0  0
  4  5  1  0  0  0
  4 96  1  0  0  0
  4 97  1  0  0  0
  5  6  1  0  0  0
  5 26  1  0  0  0
  5 98  1  0  0  0
  6 25  1  0  0  0
  6 99  1  0  0  0
  6100  1  0  0  0
  7  8  2  0  0  0
  7 26  1  0  0  0
  7 29  1  0  0  0
  8  9  1  0  0  0
  8 22  1  0  0  0
  9 10  1  0  0  0
  9 27  2  0  0  0
 10 11  2  0  0  0
 10 15  1  0  0  0
 11 12  1  0  0  0
 11101  1  0  0  0
 12 13  2  0  0  0
 12102  1  0  0  0
 13 14  1  0  0  0
 13 31  1  0  0  0
 14 15  2  0  0  0
 14103  1  0  0  0
 15104  1  0  0  0
 16 17  2  0  0  0
 16 21  1  0  0  0
 16 31  1  0  0  0
 17 18  1  0  0  0
 17105  1  0  0  0
 18 19  2  0  0  0
 18106  1  0  0  0
 19 20  1  0  0  0
 19 24  1  0  0  0
 20 21  2  0  0  0
 20107  1  0  0  0
 21 23  1  0  0  0
 22 28  1  0  0  0
 22 32  2  0  0  0
 26 27  1  0  0  0
 28108  1  0  0  0
 28109  1  0  0  0
 29110  1  0  0  0
 29111  1  0  0  0
 33 34  1  0  0  0
 33 66  1  0  0  0
 33 70  2  0  0  0
 34 36  1  0  0  0
 34 59  1  0  0  0
 34112  1  0  0  0
 35 44  2  0  0  0
 35 45  1  0  0  0
 35 68  1  0  0  0
 36 56  1  0  0  0
 36113  1  0  0  0
 37 39  1  0  0  0
 37 47  1  0  0  0
 37 66  1  0  0  0
 37114  1  0  0  0
 38 43  2  0  0  0
 38 46  1  0  0  0
 38 47  1  0  0  0
 39 64  1  0  0  0
 39 67  2  0  0  0
 40 52  1  0  0  0
 40 53  2  0  0  0
 40 58  1  0  0  0
 41115  1  0  0  0
 41116  1  0  0  0
 41117  1  0  0  0
 41 48  1  0  0  0
 42 43  1  0  0  0
 42 66  1  0  0  0
 42118  1  0  0  0
 42119  1  0  0  0
 43 44  1  0  0  0
 44120  1  0  0  0
 45 46  2  0  0  0
 45121  1  0  0  0
 46122  1  0  0  0
 47123  1  0  0  0
 47124  1  0  0  0
 48 56  1  0  0  0
 48 65  1  0  0  0
 48125  1  0  0  0
 49 50  1  0  0  0
 49 53  1  0  0  0
 49 64  1  0  0  0
 49126  1  0  0  0
 50 51  1  0  0  0
 50127  1  0  0  0
 50128  1  0  0  0
 51 52  1  0  0  0
 51129  1  0  0  0
 51130  1  0  0  0
 52131  1  0  0  0
 52132  1  0  0  0
 53 54  1  0  0  0
 54 55  2  0  0  0
 54133  1  0  0  0
 55 57  1  0  0  0
 55134  1  0  0  0
 56 69  2  0  0  0
 57 58  2  0  0  0
 57135  1  0  0  0
 58136  1  0  0  0
 59 60  1  0  0  0
 59 61  1  0  0  0
 59 62  1  0  0  0
 60137  1  0  0  0
 60138  1  0  0  0
 60139  1  0  0  0
 61140  1  0  0  0
 61141  1  0  0  0
 61142  1  0  0  0
 62143  1  0  0  0
 62144  1  0  0  0
 62145  1  0  0  0
 63 65  1  0  0  0
 63146  1  0  0  0
 63147  1  0  0  0
 63148  1  0  0  0
 64149  1  0  0  0
 65150  1  0  0  0
 68 84  1  0  0  0
 71 74  2  0  0  0
 71 75  1  0  0  0
 71151  1  0  0  0
 72 73  1  0  0  0
 72 76  2  0  0  0
 72 77  1  0  0  0
 73 75  2  0  0  0
 73 81  1  0  0  0
 74 76  1  0  0  0
 74 87  1  0  0  0
 75 90  1  0  0  0
 76 91  1  0  0  0
 77152  1  0  0  0
 77153  1  0  0  0
 77154  1  0  0  0
 78155  1  0  0  0
 78156  1  0  0  0
 78157  1  0  0  0
 78 85  1  0  0  0
 79158  1  0  0  0
 79159  1  0  0  0
 79160  1  0  0  0
 79 86  1  0  0  0
 80 86  1  0  0  0
 80161  1  0  0  0
 80162  1  0  0  0
 80163  1  0  0  0
 81 88  1  0  0  0
 81164  1  0  0  0
 81165  1  0  0  0
 82 86  1  0  0  0
 82 88  1  0  0  0
 82166  1  0  0  0
 82167  1  0  0  0
 83 86  1  0  0  0
 83 89  1  0  0  0
 83168  1  0  0  0
 83169  1  0  0  0
 84 85  1  0  0  0
 84170  1  0  0  0
 84171  1  0  0  0
 85 89  1  0  0  0
 85172  1  0  0  0
 87173  1  0  0  0
 88174  1  0  0  0
 88175  1  0  0  0
 89176  1  0  0  0
 89177  1  0  0  0
M  CHG  2  88   1  89   1
M  ISO  4   1 100  68 101  84 101  87 100
M  END
> <chiral flag>
0

> <version>
0

> <s_m_source_file>
/data/baiqing/PycharmProjects/Reinvent-master-3.2/result/LINK_invent/BTK/process_docking_weight1_custom_sum_contain_oxygen_bond_distance_aromatic_linkinvent_7_9_3/rearranged_h_0026.sdf

> <i_m_source_file_index>
65

> <r_mmod_Potential_Energy-OPLS-2005>
-272.7861328125

> <r_mmod_Stretch_Energy-OPLS-2005>
38.4888801574707

> <r_mmod_Bend_Energy-OPLS-2005>
117.605270385742

> <r_mmod_Torsional_Energy-OPLS-2005>
282.141571044922

> <r_mmod_Improper_Torsional_Energy-OPLS-2005>
3.54263854026794

> <r_mmod_Van_der_Waal_Energy-OPLS-2005>
160.969100952148

> <r_mmod_Electrostatic_Energy-OPLS-2005>
124.340843200684

> <r_mmod_Solvation_Energy-OPLS-2005>
-1009.63757324219

> <b_mmod_Minimization_Converged-OPLS-2005>
0

> <r_mmod_RMS_Derivative-OPLS-2005>
1.64325785636902

$$$$
65
                    3D
 Structure written by MMmdl.
147155  0  0  1  0            999 V2000
  -30.4278  -15.2830   20.4090 C   0  0  0  0  0  0
  -30.4483  -12.8200   19.5651 C   0  0  0  0  0  0
  -29.5656  -12.6057   18.3080 C   0  0  0  0  0  0
  -28.1015  -12.3340   18.7079 C   0  0  0  0  0  0
  -27.6224  -13.2905   19.8320 C   0  0  2  0  0  0
  -28.6457  -13.4537   20.9798 C   0  0  0  0  0  0
  -25.2358  -13.8275   20.5622 C   0  0  0  0  0  0
  -24.1757  -13.0449   20.9219 C   0  0  0  0  0  0
  -24.6475  -11.6955   20.8788 C   0  0  0  0  0  0
  -23.9188  -10.4306   21.0436 C   0  0  0  0  0  0
  -24.3715   -9.4213   21.9199 C   0  0  0  0  0  0
  -23.6350   -8.2273   22.0779 C   0  0  0  0  0  0
  -22.4322   -8.0347   21.3576 C   0  0  0  0  0  0
  -21.9985   -9.0338   20.4673 C   0  0  0  0  0  0
  -22.7367  -10.2179   20.3076 C   0  0  0  0  0  0
  -21.6875   -6.0789   22.5298 C   0  0  0  0  0  0
  -21.4030   -6.5673   23.8237 C   0  0  0  0  0  0
  -21.3660   -5.6798   24.9176 C   0  0  0  0  0  0
  -21.6052   -4.3063   24.7202 C   0  0  0  0  0  0
  -21.8811   -3.8184   23.4312 C   0  0  0  0  0  0
  -21.9172   -4.7019   22.3380 C   0  0  0  0  0  0
  -22.7748  -13.5207   21.1817 C   0  0  0  0  0  0
  -22.1627   -4.2216   21.0957 F   0  0  0  0  0  0
  -21.5607   -3.4525   25.7705 F   0  0  0  0  0  0
  -29.8835  -13.9642   20.3729 N   0  0  0  0  0  0
  -26.2872  -12.9605   20.3214 N   0  0  0  0  0  0
  -25.9416  -11.6699   20.5744 N   0  0  0  0  0  0
  -22.0374  -12.8265   22.0405 N   0  0  0  0  0  0
  -25.3784  -15.1994   20.3852 N   0  0  0  0  0  0
  -31.6412  -15.3023   20.1461 O   0  0  0  0  0  0
  -21.6657   -6.8979   21.4280 O   0  0  0  0  0  0
  -22.3443  -14.5476   20.6606 O   0  0  0  0  0  0
  -24.6576  -31.8235   23.1724 C   0  0  0  0  0  0
  -25.9273  -32.4585   23.8166 C   0  0  1  0  0  0
  -27.2089  -26.9311   20.2119 C   0  0  0  0  0  0
  -25.5961  -33.8396   24.2064 N   0  0  0  0  0  0
  -23.4708  -30.4411   21.5146 C   0  0  2  0  0  0
  -24.9270  -28.8292   20.1131 C   0  0  0  0  0  0
  -22.7621  -29.4465   22.4705 C   0  0  0  0  0  0
  -18.0323  -28.1378   22.8409 C   0  0  0  0  0  0
  -24.1518  -36.7234   23.2644 C   0  0  0  0  0  0
  -26.0382  -30.6401   21.3993 C   0  0  0  0  0  0
  -26.1093  -29.2261   20.7530 C   0  0  0  0  0  0
  -27.2449  -28.2989   20.7790 C   0  0  0  0  0  0
  -25.9994  -26.6848   19.5245 C   0  0  0  0  0  0
  -24.8954  -27.5781   19.4836 C   0  0  0  0  0  0
  -23.7104  -29.7563   20.1424 C   0  0  0  0  0  0
  -25.4145  -36.2957   24.0276 C   0  0  1  0  0  0
  -20.5949  -28.3741   23.1156 C   0  0  2  0  0  0
  -20.6796  -26.9413   22.5391 C   0  0  0  0  0  0
  -19.5785  -26.6332   21.5183 C   0  0  0  0  0  0
  -18.1955  -26.7903   22.1579 C   0  0  0  0  0  0
  -19.1570  -28.8877   23.2780 C   0  0  0  0  0  0
  -18.9481  -30.1457   23.8832 C   0  0  0  0  0  0
  -17.6486  -30.6579   24.0539 C   0  0  0  0  0  0
  -25.9081  -34.9336   23.4982 C   0  0  0  0  0  0
  -16.5365  -29.9059   23.6343 C   0  0  0  0  0  0
  -16.7299  -28.6470   23.0342 C   0  0  0  0  0  0
  -26.4542  -31.6525   25.0696 C   0  0  0  0  0  0
  -25.3677  -31.3783   26.1366 C   0  0  0  0  0  0
  -27.0428  -30.2881   24.6432 C   0  0  0  0  0  0
  -27.6031  -32.4310   25.7520 C   0  0  0  0  0  0
  -27.5580  -37.1766   24.8438 C   0  0  0  0  0  0
  -21.4298  -29.3061   22.3492 N   0  0  0  0  0  0
  -26.4301  -37.3686   23.9375 N   0  0  0  0  0  0
  -24.7420  -30.9947   22.0825 N   0  0  0  0  0  0
  -23.4171  -28.8016   23.2922 O   0  0  0  0  0  0
  -28.2150  -25.8302   20.2715 O   0  0  0  0  0  0
  -26.5686  -34.8867   22.4573 O   0  0  0  0  0  0
  -23.5650  -32.1173   23.6831 O   0  0  0  0  0  0
  -28.6274  -19.5140   20.8203 C   0  0  0  0  0  0
  -27.4688  -18.9623   21.5259 C   0  0  0  0  0  0
  -28.3712  -21.0413   20.7260 C   0  0  0  0  0  0
  -26.4761  -19.8254   21.8640 C   0  0  0  0  0  0
  -29.7699  -18.2214   20.4598 C   0  0  0  0  0  0
  -28.8678  -22.6544   20.3179 C   0  0  0  0  0  0
  -27.9226  -24.2087   20.3804 C   0  0  0  0  0  0
  -29.6408  -16.5370   20.5544 N   0  0  0  0  0  0
  -26.7954  -21.4226   21.4028 S   0  0  0  0  0  0
  -27.2903  -17.3269   21.9718 Cl  0  0  0  0  0  0
  -24.9914  -19.5120   22.6833 Cl  0  0  0  0  0  0
  -31.4794  -13.0133   19.2662 H   0  0  0  0  0  0
  -30.4951  -11.9098   20.1660 H   0  0  0  0  0  0
  -29.9587  -11.7864   17.7055 H   0  0  0  0  0  0
  -29.6181  -13.4954   17.6782 H   0  0  0  0  0  0
  -28.0342  -11.3008   19.0470 H   0  0  0  0  0  0
  -27.4574  -12.4129   17.8326 H   0  0  0  0  0  0
  -27.5437  -14.2668   19.3497 H   0  0  0  0  0  0
  -28.8112  -12.5166   21.5137 H   0  0  0  0  0  0
  -28.2878  -14.1714   21.7173 H   0  0  0  0  0  0
  -25.2877   -9.5638   22.4752 H   0  0  0  0  0  0
  -24.0029   -7.4668   22.7512 H   0  0  0  0  0  0
  -21.0889   -8.8955   19.8986 H   0  0  0  0  0  0
  -22.3911  -10.9745   19.6174 H   0  0  0  0  0  0
  -21.2074   -7.6178   23.9791 H   0  0  0  0  0  0
  -21.1466   -6.0488   25.9090 H   0  0  0  0  0  0
  -22.0585   -2.7653   23.2774 H   0  0  0  0  0  0
  -22.3939  -11.9988   22.4915 H   0  0  0  0  0  0
  -21.0995  -13.1355   22.2581 H   0  0  0  0  0  0
  -24.6109  -15.8394   20.5562 H   0  0  0  0  0  0
  -26.2173  -15.6712   20.0781 H   0  0  0  0  0  0
  -26.7351  -32.5143   23.0884 H   0  0  0  0  0  0
  -25.0090  -33.9475   25.0206 H   0  0  0  0  0  0
  -22.7857  -31.2759   21.3495 H   0  0  0  0  0  0
  -23.3771  -35.9587   23.3243 H   0  0  0  0  0  0
  -24.3632  -36.8939   22.2086 H   0  0  0  0  0  0
  -23.7309  -37.6406   23.6749 H   0  0  0  0  0  0
  -26.2067  -31.3849   20.6185 H   0  0  0  0  0  0
  -26.8998  -30.7064   22.0518 H   0  0  0  0  0  0
  -28.1313  -28.5968   21.3185 H   0  0  0  0  0  0
  -25.8681  -25.7323   19.0330 H   0  0  0  0  0  0
  -23.9943  -27.2666   18.9750 H   0  0  0  0  0  0
  -23.8601  -30.5221   19.3813 H   0  0  0  0  0  0
  -22.8205  -29.2082   19.8284 H   0  0  0  0  0  0
  -25.1367  -36.1740   25.0776 H   0  0  0  0  0  0
  -21.0045  -28.3354   24.1269 H   0  0  0  0  0  0
  -20.5625  -26.2347   23.3616 H   0  0  0  0  0  0
  -21.6664  -26.7340   22.1234 H   0  0  0  0  0  0
  -19.6947  -25.6217   21.1254 H   0  0  0  0  0  0
  -19.6757  -27.3108   20.6674 H   0  0  0  0  0  0
  -17.4217  -26.6598   21.3997 H   0  0  0  0  0  0
  -18.0406  -26.0085   22.9016 H   0  0  0  0  0  0
  -19.7985  -30.7280   24.2160 H   0  0  0  0  0  0
  -17.5052  -31.6261   24.5137 H   0  0  0  0  0  0
  -15.5376  -30.2932   23.7723 H   0  0  0  0  0  0
  -15.8698  -28.0798   22.7074 H   0  0  0  0  0  0
  -24.5821  -30.7192   25.7657 H   0  0  0  0  0  0
  -24.8943  -32.3013   26.4726 H   0  0  0  0  0  0
  -25.7915  -30.8950   27.0182 H   0  0  0  0  0  0
  -26.3090  -29.6532   24.1454 H   0  0  0  0  0  0
  -27.3964  -29.7282   25.5103 H   0  0  0  0  0  0
  -27.9029  -30.4036   23.9834 H   0  0  0  0  0  0
  -27.2584  -33.3606   26.2056 H   0  0  0  0  0  0
  -28.3897  -32.6848   25.0406 H   0  0  0  0  0  0
  -28.0654  -31.8463   26.5482 H   0  0  0  0  0  0
  -28.2529  -38.0118   24.7500 H   0  0  0  0  0  0
  -28.1120  -36.2629   24.6232 H   0  0  0  0  0  0
  -27.2282  -37.1391   25.8833 H   0  0  0  0  0  0
  -20.9472  -29.8804   21.6732 H   0  0  0  0  0  0
  -26.0115  -38.2723   24.1408 H   0  0  0  0  0  0
  -30.6579  -18.4359   21.0614 H   0  0  0  0  0  0
  -30.1162  -18.4028   19.4439 H   0  0  0  0  0  0
  -29.2617  -22.6029   19.3030 H   0  0  0  0  0  0
  -29.7518  -22.8400   20.9282 H   0  0  0  0  0  0
  -27.4383  -24.1711   21.3560 H   0  0  0  0  0  0
  -27.1129  -24.0389   19.6715 H   0  0  0  0  0  0
  -28.6898  -16.3014   20.8015 H   0  0  0  0  0  0
  1 25  1  0  0  0
  1 30  2  0  0  0
  1 78  1  0  0  0
  2  3  1  0  0  0
  2 25  1  0  0  0
  2 82  1  0  0  0
  2 83  1  0  0  0
  3  4  1  0  0  0
  3 84  1  0  0  0
  3 85  1  0  0  0
  4  5  1  0  0  0
  4 86  1  0  0  0
  4 87  1  0  0  0
  5  6  1  0  0  0
  5 26  1  0  0  0
  5 88  1  0  0  0
  6 25  1  0  0  0
  6 89  1  0  0  0
  6 90  1  0  0  0
  7  8  2  0  0  0
  7 26  1  0  0  0
  7 29  1  0  0  0
  8  9  1  0  0  0
  8 22  1  0  0  0
  9 10  1  0  0  0
  9 27  2  0  0  0
 10 11  2  0  0  0
 10 15  1  0  0  0
 11 12  1  0  0  0
 11 91  1  0  0  0
 12 13  2  0  0  0
 12 92  1  0  0  0
 13 14  1  0  0  0
 13 31  1  0  0  0
 14 15  2  0  0  0
 14 93  1  0  0  0
 15 94  1  0  0  0
 16 17  2  0  0  0
 16 21  1  0  0  0
 16 31  1  0  0  0
 17 18  1  0  0  0
 17 95  1  0  0  0
 18 19  2  0  0  0
 18 96  1  0  0  0
 19 20  1  0  0  0
 19 24  1  0  0  0
 20 21  2  0  0  0
 20 97  1  0  0  0
 21 23  1  0  0  0
 22 28  1  0  0  0
 22 32  2  0  0  0
 26 27  1  0  0  0
 28 98  1  0  0  0
 28 99  1  0  0  0
 29100  1  0  0  0
 29101  1  0  0  0
 33 34  1  0  0  0
 33 66  1  0  0  0
 33 70  2  0  0  0
 34 36  1  0  0  0
 34 59  1  0  0  0
 34102  1  0  0  0
 35 44  2  0  0  0
 35 45  1  0  0  0
 35 68  1  0  0  0
 36 56  1  0  0  0
 36103  1  0  0  0
 37 39  1  0  0  0
 37 47  1  0  0  0
 37 66  1  0  0  0
 37104  1  0  0  0
 38 43  2  0  0  0
 38 46  1  0  0  0
 38 47  1  0  0  0
 39 64  1  0  0  0
 39 67  2  0  0  0
 40 52  1  0  0  0
 40 53  2  0  0  0
 40 58  1  0  0  0
 41105  1  0  0  0
 41106  1  0  0  0
 41107  1  0  0  0
 41 48  1  0  0  0
 42 43  1  0  0  0
 42 66  1  0  0  0
 42108  1  0  0  0
 42109  1  0  0  0
 43 44  1  0  0  0
 44110  1  0  0  0
 45 46  2  0  0  0
 45111  1  0  0  0
 46112  1  0  0  0
 47113  1  0  0  0
 47114  1  0  0  0
 48 56  1  0  0  0
 48 65  1  0  0  0
 48115  1  0  0  0
 49 50  1  0  0  0
 49 53  1  0  0  0
 49 64  1  0  0  0
 49116  1  0  0  0
 50 51  1  0  0  0
 50117  1  0  0  0
 50118  1  0  0  0
 51 52  1  0  0  0
 51119  1  0  0  0
 51120  1  0  0  0
 52121  1  0  0  0
 52122  1  0  0  0
 53 54  1  0  0  0
 54 55  2  0  0  0
 54123  1  0  0  0
 55 57  1  0  0  0
 55124  1  0  0  0
 56 69  2  0  0  0
 57 58  2  0  0  0
 57125  1  0  0  0
 58126  1  0  0  0
 59 60  1  0  0  0
 59 61  1  0  0  0
 59 62  1  0  0  0
 60127  1  0  0  0
 60128  1  0  0  0
 60129  1  0  0  0
 61130  1  0  0  0
 61131  1  0  0  0
 61132  1  0  0  0
 62133  1  0  0  0
 62134  1  0  0  0
 62135  1  0  0  0
 63 65  1  0  0  0
 63136  1  0  0  0
 63137  1  0  0  0
 63138  1  0  0  0
 64139  1  0  0  0
 65140  1  0  0  0
 68 77  1  0  0  0
 71 72  1  0  0  0
 71 73  2  0  0  0
 71 75  1  0  0  0
 72 74  2  0  0  0
 72 80  1  0  0  0
 73 76  1  0  0  0
 73 79  1  0  0  0
 74 79  1  0  0  0
 74 81  1  0  0  0
 75 78  1  0  0  0
 75141  1  0  0  0
 75142  1  0  0  0
 76 77  1  0  0  0
 76143  1  0  0  0
 76144  1  0  0  0
 77145  1  0  0  0
 77146  1  0  0  0
 78147  1  0  0  0
M  ISO  4   1 100  68 101  77 101  78 100
M  END
> <chiral flag>
0

> <version>
0

> <s_m_source_file>
/data/baiqing/PycharmProjects/Reinvent-master-3.2/result/LINK_invent/BTK/process_docking_weight1_custom_sum_contain_oxygen_bond_distance_aromatic_linkinvent_7_9_3/rearranged_h_0026.sdf

> <i_m_source_file_index>
66

> <r_mmod_Potential_Energy-OPLS-2005>
1371.97253417969

> <r_mmod_Stretch_Energy-OPLS-2005>
658.347290039062

> <r_mmod_Bend_Energy-OPLS-2005>
492.65869140625

> <r_mmod_Torsional_Energy-OPLS-2005>
198.65071105957

> <r_mmod_Improper_Torsional_Energy-OPLS-2005>
3.56986713409424

> <r_mmod_Van_der_Waal_Energy-OPLS-2005>
118.951568603516

> <r_mmod_Electrostatic_Energy-OPLS-2005>
-354.965454101562

> <r_mmod_Solvation_Energy-OPLS-2005>
-210.31770324707

> <b_mmod_Minimization_Converged-OPLS-2005>
0

> <r_mmod_RMS_Derivative-OPLS-2005>
5.41161680221558

$$$$
66
                    3D
 Structure written by MMmdl.
155163  0  0  1  0            999 V2000
  -30.5316  -14.9910   20.4120 C   0  0  0  0  0  0
  -30.4391  -12.6125   19.5046 C   0  0  0  0  0  0
  -29.5263  -12.5515   18.2582 C   0  0  0  0  0  0
  -28.0523  -12.3447   18.6638 C   0  0  0  0  0  0
  -27.6278  -13.2615   19.8403 C   0  0  2  0  0  0
  -28.6742  -13.2892   20.9752 C   0  0  0  0  0  0
  -25.2417  -13.8243   20.5690 C   0  0  0  0  0  0
  -24.1765  -13.0444   20.9242 C   0  0  0  0  0  0
  -24.6403  -11.6938   20.8759 C   0  0  0  0  0  0
  -23.9082  -10.4284   21.0388 C   0  0  0  0  0  0
  -24.3626   -9.4194   21.9162 C   0  0  0  0  0  0
  -23.6313   -8.2228   22.0724 C   0  0  0  0  0  0
  -22.4297   -8.0259   21.3524 C   0  0  0  0  0  0
  -21.9933   -9.0231   20.4623 C   0  0  0  0  0  0
  -22.7258  -10.2110   20.3027 C   0  0  0  0  0  0
  -21.6870   -6.0715   22.5273 C   0  0  0  0  0  0
  -21.4010   -6.5622   23.8201 C   0  0  0  0  0  0
  -21.3676   -5.6779   24.9172 C   0  0  0  0  0  0
  -21.6073   -4.3044   24.7233 C   0  0  0  0  0  0
  -21.8811   -3.8122   23.4349 C   0  0  0  0  0  0
  -21.9182   -4.6932   22.3396 C   0  0  0  0  0  0
  -22.7777  -13.5176   21.1914 C   0  0  0  0  0  0
  -22.1649   -4.2100   21.0980 F   0  0  0  0  0  0
  -21.5655   -3.4534   25.7754 F   0  0  0  0  0  0
  -29.9424  -13.7206   20.3706 N   0  0  0  0  0  0
  -26.2869  -12.9503   20.3256 N   0  0  0  0  0  0
  -25.9344  -11.6614   20.5764 N   0  0  0  0  0  0
  -22.0433  -12.8137   22.0461 N   0  0  0  0  0  0
  -25.4068  -15.1978   20.4084 N   0  0  0  0  0  0
  -31.7431  -15.0432   20.1789 O   0  0  0  0  0  0
  -21.6661   -6.8862   21.4228 O   0  0  0  0  0  0
  -22.3431  -14.5466   20.6750 O   0  0  0  0  0  0
  -24.6477  -31.8427   23.1805 C   0  0  0  0  0  0
  -25.9236  -32.4671   23.8225 C   0  0  1  0  0  0
  -27.2053  -27.0953   20.1372 C   0  0  0  0  0  0
  -25.5978  -33.8469   24.2164 N   0  0  0  0  0  0
  -23.4492  -30.4625   21.5321 C   0  0  2  0  0  0
  -24.8916  -28.8840   20.1022 C   0  0  0  0  0  0
  -22.7591  -29.4549   22.4854 C   0  0  0  0  0  0
  -18.0320  -28.1377   22.8507 C   0  0  0  0  0  0
  -24.1498  -36.7241   23.2651 C   0  0  0  0  0  0
  -26.0089  -30.6982   21.3860 C   0  0  0  0  0  0
  -26.0737  -29.3068   20.7256 C   0  0  0  0  0  0
  -27.2268  -28.4298   20.7273 C   0  0  0  0  0  0
  -25.9946  -26.7809   19.4786 C   0  0  0  0  0  0
  -24.8691  -27.6341   19.4654 C   0  0  0  0  0  0
  -23.6709  -29.7933   20.1508 C   0  0  0  0  0  0
  -25.4126  -36.3013   24.0325 C   0  0  1  0  0  0
  -20.5949  -28.3720   23.1246 C   0  0  2  0  0  0
  -20.6813  -26.9417   22.5417 C   0  0  0  0  0  0
  -19.5764  -26.6366   21.5247 C   0  0  0  0  0  0
  -18.1950  -26.7926   22.1649 C   0  0  0  0  0  0
  -19.1583  -28.8860   23.2869 C   0  0  0  0  0  0
  -18.9495  -30.1471   23.8867 C   0  0  0  0  0  0
  -17.6478  -30.6573   24.0573 C   0  0  0  0  0  0
  -25.9096  -34.9391   23.5067 C   0  0  0  0  0  0
  -16.5376  -29.9065   23.6330 C   0  0  0  0  0  0
  -16.7308  -28.6491   23.0357 C   0  0  0  0  0  0
  -26.4526  -31.6533   25.0685 C   0  0  0  0  0  0
  -25.3679  -31.3741   26.1365 C   0  0  0  0  0  0
  -27.0440  -30.2938   24.6289 C   0  0  0  0  0  0
  -27.6037  -32.4317   25.7468 C   0  0  0  0  0  0
  -27.5575  -37.1773   24.8462 C   0  0  0  0  0  0
  -21.4274  -29.3037   22.3599 N   0  0  0  0  0  0
  -26.4282  -37.3713   23.9421 N   0  0  0  0  0  0
  -24.7223  -31.0252   22.0860 N   0  0  0  0  0  0
  -23.4237  -28.8129   23.3030 O   0  0  0  0  0  0
  -28.2482  -26.0838   20.2009 O   0  0  0  0  0  0
  -26.5680  -34.8907   22.4641 O   0  0  0  0  0  0
  -23.5609  -32.1332   23.7017 O   0  0  0  0  0  0
  -28.5200  -21.3358   18.3080 C   0  0  0  0  0  0
  -29.0201  -18.9055   18.5249 C   0  0  0  0  0  0
  -28.5474  -20.0155   17.7758 C   0  0  0  0  0  0
  -28.8866  -21.5824   19.6600 C   0  0  0  0  0  0
  -29.4009  -19.0720   19.8736 C   0  0  0  0  0  0
  -28.1716  -22.4952   17.3750 C   0  0  0  0  0  0
  -29.1986  -17.5422   17.8555 C   0  0  0  0  0  0
  -28.9953  -23.1750   20.2145 C   0  0  0  0  0  0
  -30.0439  -17.7521   20.6856 C   0  0  0  0  0  0
  -28.0020  -24.5517   19.9054 C   0  0  0  0  0  0
  -29.3191  -20.4169   20.3863 N   0  0  0  0  0  0
  -29.7435  -16.1814   20.5210 N   0  0  0  0  0  0
  -28.0224  -19.7545   16.1402 Cl  0  0  0  0  0  0
  -31.4741  -12.7634   19.2006 H   0  0  0  0  0  0
  -30.4243  -11.6608   20.0388 H   0  0  0  0  0  0
  -29.8576  -11.7552   17.5897 H   0  0  0  0  0  0
  -29.6248  -13.4855   17.7039 H   0  0  0  0  0  0
  -27.9291  -11.2990   18.9487 H   0  0  0  0  0  0
  -27.3974  -12.5046   17.8054 H   0  0  0  0  0  0
  -27.5884  -14.2691   19.4260 H   0  0  0  0  0  0
  -28.7663  -12.3051   21.4351 H   0  0  0  0  0  0
  -28.3732  -13.9739   21.7689 H   0  0  0  0  0  0
  -25.2757   -9.5676   22.4760 H   0  0  0  0  0  0
  -24.0021   -7.4610   22.7442 H   0  0  0  0  0  0
  -21.0856   -8.8747   19.8950 H   0  0  0  0  0  0
  -22.3698  -10.9642   19.6140 H   0  0  0  0  0  0
  -21.1984   -7.6130   23.9685 H   0  0  0  0  0  0
  -21.1539   -6.0525   25.9084 H   0  0  0  0  0  0
  -22.0577   -2.7577   23.2870 H   0  0  0  0  0  0
  -22.4074  -11.9836   22.4898 H   0  0  0  0  0  0
  -21.1021  -13.1095   22.2633 H   0  0  0  0  0  0
  -24.6355  -15.8495   20.5133 H   0  0  0  0  0  0
  -26.2441  -15.6343   20.0478 H   0  0  0  0  0  0
  -26.7308  -32.5244   23.0962 H   0  0  0  0  0  0
  -25.0093  -33.9567   25.0296 H   0  0  0  0  0  0
  -22.7527  -31.2895   21.3827 H   0  0  0  0  0  0
  -23.3761  -35.9574   23.3272 H   0  0  0  0  0  0
  -24.3610  -36.8899   22.2074 H   0  0  0  0  0  0
  -23.7245  -37.6428   23.6708 H   0  0  0  0  0  0
  -26.1788  -31.4471   20.6119 H   0  0  0  0  0  0
  -26.8764  -30.7421   22.0314 H   0  0  0  0  0  0
  -28.1229  -28.7506   21.2417 H   0  0  0  0  0  0
  -25.8817  -25.8266   18.9866 H   0  0  0  0  0  0
  -23.9696  -27.3041   18.9639 H   0  0  0  0  0  0
  -23.8016  -30.5727   19.3974 H   0  0  0  0  0  0
  -22.7793  -29.2428   19.8455 H   0  0  0  0  0  0
  -25.1306  -36.1829   25.0815 H   0  0  0  0  0  0
  -21.0065  -28.3308   24.1361 H   0  0  0  0  0  0
  -20.5740  -26.2337   23.3647 H   0  0  0  0  0  0
  -21.6675  -26.7429   22.1187 H   0  0  0  0  0  0
  -19.6930  -25.6279   21.1267 H   0  0  0  0  0  0
  -19.6684  -27.3197   20.6797 H   0  0  0  0  0  0
  -17.4242  -26.6729   21.4018 H   0  0  0  0  0  0
  -18.0287  -26.0057   22.9016 H   0  0  0  0  0  0
  -19.7966  -30.7311   24.2203 H   0  0  0  0  0  0
  -17.5024  -31.6241   24.5185 H   0  0  0  0  0  0
  -15.5367  -30.2951   23.7632 H   0  0  0  0  0  0
  -15.8731  -28.0780   22.7063 H   0  0  0  0  0  0
  -24.5839  -30.7128   25.7648 H   0  0  0  0  0  0
  -24.8905  -32.2955   26.4717 H   0  0  0  0  0  0
  -25.7921  -30.8916   27.0186 H   0  0  0  0  0  0
  -26.3113  -29.6597   24.1296 H   0  0  0  0  0  0
  -27.4091  -29.7263   25.4861 H   0  0  0  0  0  0
  -27.8976  -30.4190   23.9622 H   0  0  0  0  0  0
  -27.2617  -33.3642   26.1967 H   0  0  0  0  0  0
  -28.3879  -32.6832   25.0308 H   0  0  0  0  0  0
  -28.0693  -31.8500   26.5443 H   0  0  0  0  0  0
  -28.2553  -38.0098   24.7530 H   0  0  0  0  0  0
  -28.1106  -36.2630   24.6252 H   0  0  0  0  0  0
  -27.2321  -37.1371   25.8868 H   0  0  0  0  0  0
  -20.9482  -29.8727   21.6756 H   0  0  0  0  0  0
  -26.0142  -38.2792   24.1378 H   0  0  0  0  0  0
  -28.2460  -22.2660   16.3123 H   0  0  0  0  0  0
  -28.8749  -23.3149   17.5110 H   0  0  0  0  0  0
  -27.1562  -22.8451   17.5598 H   0  0  0  0  0  0
  -29.1637  -17.5636   16.7686 H   0  0  0  0  0  0
  -28.4380  -16.8414   18.2004 H   0  0  0  0  0  0
  -30.1815  -17.1299   18.0900 H   0  0  0  0  0  0
  -29.9864  -23.4791   19.8774 H   0  0  0  0  0  0
  -29.0944  -23.1052   21.2973 H   0  0  0  0  0  0
  -29.8267  -17.9491   21.7358 H   0  0  0  0  0  0
  -31.1271  -17.8639   20.5981 H   0  0  0  0  0  0
  -27.0455  -24.3155   20.3691 H   0  0  0  0  0  0
  -27.7881  -24.5770   18.8418 H   0  0  0  0  0  0
  -28.7637  -15.9717   20.6302 H   0  0  0  0  0  0
  1 25  1  0  0  0
  1 30  2  0  0  0
  1 82  1  0  0  0
  2  3  1  0  0  0
  2 25  1  0  0  0
  2 84  1  0  0  0
  2 85  1  0  0  0
  3  4  1  0  0  0
  3 86  1  0  0  0
  3 87  1  0  0  0
  4  5  1  0  0  0
  4 88  1  0  0  0
  4 89  1  0  0  0
  5  6  1  0  0  0
  5 26  1  0  0  0
  5 90  1  0  0  0
  6 25  1  0  0  0
  6 91  1  0  0  0
  6 92  1  0  0  0
  7  8  2  0  0  0
  7 26  1  0  0  0
  7 29  1  0  0  0
  8  9  1  0  0  0
  8 22  1  0  0  0
  9 10  1  0  0  0
  9 27  2  0  0  0
 10 11  2  0  0  0
 10 15  1  0  0  0
 11 12  1  0  0  0
 11 93  1  0  0  0
 12 13  2  0  0  0
 12 94  1  0  0  0
 13 14  1  0  0  0
 13 31  1  0  0  0
 14 15  2  0  0  0
 14 95  1  0  0  0
 15 96  1  0  0  0
 16 17  2  0  0  0
 16 21  1  0  0  0
 16 31  1  0  0  0
 17 18  1  0  0  0
 17 97  1  0  0  0
 18 19  2  0  0  0
 18 98  1  0  0  0
 19 20  1  0  0  0
 19 24  1  0  0  0
 20 21  2  0  0  0
 20 99  1  0  0  0
 21 23  1  0  0  0
 22 28  1  0  0  0
 22 32  2  0  0  0
 26 27  1  0  0  0
 28100  1  0  0  0
 28101  1  0  0  0
 29102  1  0  0  0
 29103  1  0  0  0
 33 34  1  0  0  0
 33 66  1  0  0  0
 33 70  2  0  0  0
 34 36  1  0  0  0
 34 59  1  0  0  0
 34104  1  0  0  0
 35 44  2  0  0  0
 35 45  1  0  0  0
 35 68  1  0  0  0
 36 56  1  0  0  0
 36105  1  0  0  0
 37 39  1  0  0  0
 37 47  1  0  0  0
 37 66  1  0  0  0
 37106  1  0  0  0
 38 43  2  0  0  0
 38 46  1  0  0  0
 38 47  1  0  0  0
 39 64  1  0  0  0
 39 67  2  0  0  0
 40 52  1  0  0  0
 40 53  2  0  0  0
 40 58  1  0  0  0
 41107  1  0  0  0
 41108  1  0  0  0
 41109  1  0  0  0
 41 48  1  0  0  0
 42 43  1  0  0  0
 42 66  1  0  0  0
 42110  1  0  0  0
 42111  1  0  0  0
 43 44  1  0  0  0
 44112  1  0  0  0
 45 46  2  0  0  0
 45113  1  0  0  0
 46114  1  0  0  0
 47115  1  0  0  0
 47116  1  0  0  0
 48 56  1  0  0  0
 48 65  1  0  0  0
 48117  1  0  0  0
 49 50  1  0  0  0
 49 53  1  0  0  0
 49 64  1  0  0  0
 49118  1  0  0  0
 50 51  1  0  0  0
 50119  1  0  0  0
 50120  1  0  0  0
 51 52  1  0  0  0
 51121  1  0  0  0
 51122  1  0  0  0
 52123  1  0  0  0
 52124  1  0  0  0
 53 54  1  0  0  0
 54 55  2  0  0  0
 54125  1  0  0  0
 55 57  1  0  0  0
 55126  1  0  0  0
 56 69  2  0  0  0
 57 58  2  0  0  0
 57127  1  0  0  0
 58128  1  0  0  0
 59 60  1  0  0  0
 59 61  1  0  0  0
 59 62  1  0  0  0
 60129  1  0  0  0
 60130  1  0  0  0
 60131  1  0  0  0
 61132  1  0  0  0
 61133  1  0  0  0
 61134  1  0  0  0
 62135  1  0  0  0
 62136  1  0  0  0
 62137  1  0  0  0
 63 65  1  0  0  0
 63138  1  0  0  0
 63139  1  0  0  0
 63140  1  0  0  0
 64141  1  0  0  0
 65142  1  0  0  0
 68 80  1  0  0  0
 71 73  2  0  0  0
 71 74  1  0  0  0
 71 76  1  0  0  0
 72 73  1  0  0  0
 72 75  2  0  0  0
 72 77  1  0  0  0
 73 83  1  0  0  0
 74 78  1  0  0  0
 74 81  2  0  0  0
 75 79  1  0  0  0
 75 81  1  0  0  0
 76143  1  0  0  0
 76144  1  0  0  0
 76145  1  0  0  0
 77146  1  0  0  0
 77147  1  0  0  0
 77148  1  0  0  0
 78 80  1  0  0  0
 78149  1  0  0  0
 78150  1  0  0  0
 79 82  1  0  0  0
 79151  1  0  0  0
 79152  1  0  0  0
 80153  1  0  0  0
 80154  1  0  0  0
 82155  1  0  0  0
M  ISO  4   1 100  68 101  80 101  82 100
M  END
> <chiral flag>
0

> <version>
0

> <s_m_source_file>
/data/baiqing/PycharmProjects/Reinvent-master-3.2/result/LINK_invent/BTK/process_docking_weight1_custom_sum_contain_oxygen_bond_distance_aromatic_linkinvent_7_9_3/rearranged_h_0026.sdf

> <i_m_source_file_index>
67

> <r_mmod_Potential_Energy-OPLS-2005>
343.878448486328

> <r_mmod_Stretch_Energy-OPLS-2005>
332.661163330078

> <r_mmod_Bend_Energy-OPLS-2005>
296.664489746094

> <r_mmod_Torsional_Energy-OPLS-2005>
203.431381225586

> <r_mmod_Improper_Torsional_Energy-OPLS-2005>
5.73624420166016

> <r_mmod_Van_der_Waal_Energy-OPLS-2005>
149.504821777344

> <r_mmod_Electrostatic_Energy-OPLS-2005>
-636.600708007812

> <r_mmod_Solvation_Energy-OPLS-2005>
-232.360412597656

> <b_mmod_Minimization_Converged-OPLS-2005>
0

> <r_mmod_RMS_Derivative-OPLS-2005>
4.08576917648315

$$$$
67
                    3D
 Structure written by MMmdl.
171179  0  0  1  0            999 V2000
  -30.7965  -14.3059   20.7346 C   0  0  0  0  0  0
  -30.4115  -12.2842   19.3793 C   0  0  0  0  0  0
  -29.4773  -12.5396   18.1850 C   0  0  0  0  0  0
  -28.0032  -12.3855   18.6016 C   0  0  0  0  0  0
  -27.6646  -13.1973   19.8782 C   0  0  2  0  0  0
  -28.7008  -12.9297   20.9918 C   0  0  0  0  0  0
  -25.2592  -13.8160   20.5651 C   0  0  0  0  0  0
  -24.1824  -13.0437   20.9136 C   0  0  0  0  0  0
  -24.6359  -11.6909   20.8691 C   0  0  0  0  0  0
  -23.9018  -10.4306   21.0385 C   0  0  0  0  0  0
  -24.3581   -9.4233   21.9170 C   0  0  0  0  0  0
  -23.6286   -8.2250   22.0754 C   0  0  0  0  0  0
  -22.4268   -8.0267   21.3539 C   0  0  0  0  0  0
  -21.9873   -9.0228   20.4633 C   0  0  0  0  0  0
  -22.7183  -10.2129   20.3047 C   0  0  0  0  0  0
  -21.6862   -6.0710   22.5268 C   0  0  0  0  0  0
  -21.4012   -6.5625   23.8194 C   0  0  0  0  0  0
  -21.3674   -5.6779   24.9161 C   0  0  0  0  0  0
  -21.6053   -4.3044   24.7211 C   0  0  0  0  0  0
  -21.8826   -3.8132   23.4331 C   0  0  0  0  0  0
  -21.9195   -4.6939   22.3386 C   0  0  0  0  0  0
  -22.7859  -13.5234   21.1813 C   0  0  0  0  0  0
  -22.1669   -4.2134   21.0963 F   0  0  0  0  0  0
  -21.5651   -3.4528   25.7720 F   0  0  0  0  0  0
  -30.0484  -13.2101   20.4581 N   0  0  0  0  0  0
  -26.3020  -12.9298   20.3350 N   0  0  0  0  0  0
  -25.9274  -11.6464   20.5716 N   0  0  0  0  0  0
  -22.0510  -12.8235   22.0394 N   0  0  0  0  0  0
  -25.4362  -15.1862   20.4086 N   0  0  0  0  0  0
  -31.7689  -14.6614   20.0615 O   0  0  0  0  0  0
  -21.6659   -6.8847   21.4225 O   0  0  0  0  0  0
  -22.3542  -14.5538   20.6678 O   0  0  0  0  0  0
  -24.6110  -31.8697   23.2119 C   0  0  0  0  0  0
  -25.9031  -32.4816   23.8394 C   0  0  1  0  0  0
  -27.2332  -27.5011   20.0586 C   0  0  0  0  0  0
  -25.5903  -33.8614   24.2337 N   0  0  0  0  0  0
  -23.3930  -30.4944   21.5515 C   0  0  2  0  0  0
  -24.8369  -28.9697   20.1072 C   0  0  0  0  0  0
  -22.7388  -29.4667   22.4995 C   0  0  0  0  0  0
  -18.0270  -28.1381   22.8492 C   0  0  0  0  0  0
  -24.1486  -36.7339   23.2646 C   0  0  0  0  0  0
  -25.9160  -30.8590   21.3499 C   0  0  0  0  0  0
  -25.9958  -29.5028   20.6859 C   0  0  0  0  0  0
  -27.2038  -28.7803   20.6471 C   0  0  0  0  0  0
  -26.0642  -26.9654   19.4814 C   0  0  0  0  0  0
  -24.8635  -27.6999   19.5012 C   0  0  0  0  0  0
  -23.5938  -29.8254   20.1654 C   0  0  0  0  0  0
  -25.4101  -36.3114   24.0343 C   0  0  1  0  0  0
  -20.5858  -28.3657   23.1341 C   0  0  2  0  0  0
  -20.6770  -26.9398   22.5424 C   0  0  0  0  0  0
  -19.5752  -26.6391   21.5216 C   0  0  0  0  0  0
  -18.1929  -26.7927   22.1624 C   0  0  0  0  0  0
  -19.1519  -28.8833   23.2916 C   0  0  0  0  0  0
  -18.9449  -30.1442   23.8916 C   0  0  0  0  0  0
  -17.6453  -30.6583   24.0568 C   0  0  0  0  0  0
  -25.9023  -34.9475   23.5133 C   0  0  0  0  0  0
  -16.5347  -29.9090   23.6321 C   0  0  0  0  0  0
  -16.7264  -28.6510   23.0334 C   0  0  0  0  0  0
  -26.4493  -31.6549   25.0686 C   0  0  0  0  0  0
  -25.3796  -31.3626   26.1457 C   0  0  0  0  0  0
  -27.0293  -30.2981   24.6043 C   0  0  0  0  0  0
  -27.6082  -32.4253   25.7446 C   0  0  0  0  0  0
  -27.5582  -37.1812   24.8459 C   0  0  0  0  0  0
  -21.4120  -29.3035   22.3756 N   0  0  0  0  0  0
  -26.4290  -37.3790   23.9404 N   0  0  0  0  0  0
  -24.6584  -31.0863   22.0977 N   0  0  0  0  0  0
  -23.4213  -28.8196   23.2978 O   0  0  0  0  0  0
  -28.3733  -26.7479   20.1477 O   0  0  0  0  0  0
  -26.5582  -34.8931   22.4691 O   0  0  0  0  0  0
  -23.5322  -32.1426   23.7558 O   0  0  0  0  0  0
  -27.1343  -22.5110   25.1344 C   0  0  0  0  0  0
  -27.9956  -25.0724   25.8939 C   0  0  0  0  0  0
  -28.2721  -22.6490   25.9611 C   0  0  0  0  0  0
  -26.9283  -24.9398   24.9862 C   0  0  0  0  0  0
  -26.4554  -23.6457   24.6512 C   0  0  0  0  0  0
  -28.6732  -23.9385   26.3767 C   0  0  0  0  0  0
  -28.0022  -26.1607   22.5026 C   0  0  0  0  0  0
  -29.0888  -21.4234   26.3346 C   0  0  0  0  0  0
  -28.2263  -25.6535   21.0628 C   0  0  0  0  0  0
  -26.5417  -26.2105   23.0092 C   0  0  0  0  0  0
  -31.1590  -18.0152   23.9803 C   0  0  0  0  0  0
  -30.3906  -17.0631   23.0559 C   0  0  0  0  0  0
  -30.3203  -19.2329   24.3844 C   0  0  0  0  0  0
  -31.2703  -15.8945   22.5996 C   0  0  0  0  0  0
  -31.0360  -20.1374   25.4083 C   0  0  0  0  0  0
  -30.4812  -14.8979   21.8900 N   0  0  0  0  0  0
  -30.3564  -21.4368   25.5761 N   0  3  0  0  0  0
  -28.9487  -26.5482   23.1944 O   0  0  0  0  0  0
  -26.4376  -26.0996   24.4354 O   0  0  0  0  0  0
  -25.0662  -23.4066   23.6493 Cl  0  0  0  0  0  0
  -30.0415  -24.1567   27.4099 Cl  0  0  0  0  0  0
  -30.3065  -11.2565   19.7328 H   0  0  0  0  0  0
  -31.4552  -12.3866   19.0788 H   0  0  0  0  0  0
  -29.7088  -11.8543   17.3697 H   0  0  0  0  0  0
  -29.6451  -13.5470   17.7992 H   0  0  0  0  0  0
  -27.8074  -11.3249   18.7680 H   0  0  0  0  0  0
  -27.3482  -12.6880   17.7831 H   0  0  0  0  0  0
  -27.7245  -14.2527   19.6110 H   0  0  0  0  0  0
  -28.4404  -13.5067   21.8793 H   0  0  0  0  0  0
  -28.6573  -11.8853   21.3050 H   0  0  0  0  0  0
  -25.2737   -9.5742   22.4718 H   0  0  0  0  0  0
  -24.0022   -7.4656   22.7472 H   0  0  0  0  0  0
  -21.0813   -8.8711   19.8938 H   0  0  0  0  0  0
  -22.3617  -10.9644   19.6154 H   0  0  0  0  0  0
  -21.2000   -7.6133   23.9689 H   0  0  0  0  0  0
  -21.1506   -6.0513   25.9062 H   0  0  0  0  0  0
  -22.0595   -2.7587   23.2833 H   0  0  0  0  0  0
  -22.4137  -11.9903   22.4771 H   0  0  0  0  0  0
  -21.1129  -13.1274   22.2584 H   0  0  0  0  0  0
  -24.6814  -15.8523   20.5284 H   0  0  0  0  0  0
  -26.3023  -15.6187   20.1098 H   0  0  0  0  0  0
  -26.7099  -32.5533   23.1158 H   0  0  0  0  0  0
  -25.0040  -33.9760   25.0479 H   0  0  0  0  0  0
  -22.6780  -31.3083   21.4148 H   0  0  0  0  0  0
  -23.3725  -35.9695   23.3318 H   0  0  0  0  0  0
  -24.3591  -36.8947   22.2058 H   0  0  0  0  0  0
  -23.7264  -37.6559   23.6658 H   0  0  0  0  0  0
  -26.0179  -31.6331   20.5874 H   0  0  0  0  0  0
  -26.8092  -30.9108   21.9607 H   0  0  0  0  0  0
  -28.1013  -29.1816   21.0978 H   0  0  0  0  0  0
  -26.0804  -25.9835   19.0312 H   0  0  0  0  0  0
  -23.9696  -27.2840   19.0568 H   0  0  0  0  0  0
  -23.6878  -30.5989   19.4024 H   0  0  0  0  0  0
  -22.7205  -29.2373   19.8759 H   0  0  0  0  0  0
  -25.1276  -36.1985   25.0836 H   0  0  0  0  0  0
  -20.9953  -28.3216   24.1461 H   0  0  0  0  0  0
  -20.5682  -26.2259   23.3608 H   0  0  0  0  0  0
  -21.6643  -26.7447   22.1213 H   0  0  0  0  0  0
  -19.6919  -25.6312   21.1226 H   0  0  0  0  0  0
  -19.6696  -27.3214   20.6761 H   0  0  0  0  0  0
  -17.4197  -26.6663   21.4032 H   0  0  0  0  0  0
  -18.0336  -26.0067   22.9019 H   0  0  0  0  0  0
  -19.7926  -30.7252   24.2293 H   0  0  0  0  0  0
  -17.5010  -31.6262   24.5178 H   0  0  0  0  0  0
  -15.5352  -30.3002   23.7644 H   0  0  0  0  0  0
  -15.8662  -28.0854   22.7030 H   0  0  0  0  0  0
  -24.5836  -30.7173   25.7752 H   0  0  0  0  0  0
  -24.9188  -32.2788   26.5142 H   0  0  0  0  0  0
  -25.8127  -30.8554   27.0078 H   0  0  0  0  0  0
  -26.2817  -29.6739   24.1138 H   0  0  0  0  0  0
  -27.4083  -29.7195   25.4486 H   0  0  0  0  0  0
  -27.8661  -30.4268   23.9168 H   0  0  0  0  0  0
  -27.2730  -33.3551   26.2046 H   0  0  0  0  0  0
  -28.3877  -32.6826   25.0262 H   0  0  0  0  0  0
  -28.0738  -31.8351   26.5345 H   0  0  0  0  0  0
  -28.2599  -38.0110   24.7493 H   0  0  0  0  0  0
  -28.1075  -36.2639   24.6283 H   0  0  0  0  0  0
  -27.2314  -37.1463   25.8869 H   0  0  0  0  0  0
  -20.9271  -29.8776   21.7009 H   0  0  0  0  0  0
  -26.0184  -38.2873   24.1389 H   0  0  0  0  0  0
  -26.7892  -21.5318   24.8318 H   0  0  0  0  0  0
  -28.3405  -26.0596   26.1687 H   0  0  0  0  0  0
  -28.5073  -20.5297   26.1095 H   0  0  0  0  0  0
  -29.2852  -21.3923   27.4073 H   0  0  0  0  0  0
  -27.4139  -24.9920   20.7583 H   0  0  0  0  0  0
  -29.1384  -25.0565   21.0456 H   0  0  0  0  0  0
  -25.9406  -25.4701   22.4900 H   0  0  0  0  0  0
  -26.1221  -27.1798   22.7364 H   0  0  0  0  0  0
  -32.0728  -18.3472   23.4849 H   0  0  0  0  0  0
  -31.4732  -17.4717   24.8734 H   0  0  0  0  0  0
  -30.0311  -17.6068   22.1795 H   0  0  0  0  0  0
  -29.5045  -16.6915   23.5726 H   0  0  0  0  0  0
  -29.3696  -18.8919   24.7955 H   0  0  0  0  0  0
  -30.0849  -19.8049   23.4855 H   0  0  0  0  0  0
  -31.7213  -15.4072   23.4658 H   0  0  0  0  0  0
  -32.0930  -16.2719   21.9888 H   0  0  0  0  0  0
  -32.0472  -20.3446   25.0579 H   0  0  0  0  0  0
  -31.1425  -19.6380   26.3728 H   0  0  0  0  0  0
  -29.6760  -14.5241   22.3717 H   0  0  0  0  0  0
  -30.9794  -22.0730   26.0505 H   0  0  0  0  0  0
  -30.1837  -21.8172   24.6600 H   0  0  0  0  0  0
  1 25  1  0  0  0
  1 30  2  0  0  0
  1 86  1  0  0  0
  2  3  1  0  0  0
  2 25  1  0  0  0
  2 92  1  0  0  0
  2 93  1  0  0  0
  3  4  1  0  0  0
  3 94  1  0  0  0
  3 95  1  0  0  0
  4  5  1  0  0  0
  4 96  1  0  0  0
  4 97  1  0  0  0
  5  6  1  0  0  0
  5 26  1  0  0  0
  5 98  1  0  0  0
  6 25  1  0  0  0
  6 99  1  0  0  0
  6100  1  0  0  0
  7  8  2  0  0  0
  7 26  1  0  0  0
  7 29  1  0  0  0
  8  9  1  0  0  0
  8 22  1  0  0  0
  9 10  1  0  0  0
  9 27  2  0  0  0
 10 11  2  0  0  0
 10 15  1  0  0  0
 11 12  1  0  0  0
 11101  1  0  0  0
 12 13  2  0  0  0
 12102  1  0  0  0
 13 14  1  0  0  0
 13 31  1  0  0  0
 14 15  2  0  0  0
 14103  1  0  0  0
 15104  1  0  0  0
 16 17  2  0  0  0
 16 21  1  0  0  0
 16 31  1  0  0  0
 17 18  1  0  0  0
 17105  1  0  0  0
 18 19  2  0  0  0
 18106  1  0  0  0
 19 20  1  0  0  0
 19 24  1  0  0  0
 20 21  2  0  0  0
 20107  1  0  0  0
 21 23  1  0  0  0
 22 28  1  0  0  0
 22 32  2  0  0  0
 26 27  1  0  0  0
 28108  1  0  0  0
 28109  1  0  0  0
 29110  1  0  0  0
 29111  1  0  0  0
 33 34  1  0  0  0
 33 66  1  0  0  0
 33 70  2  0  0  0
 34 36  1  0  0  0
 34 59  1  0  0  0
 34112  1  0  0  0
 35 44  2  0  0  0
 35 45  1  0  0  0
 35 68  1  0  0  0
 36 56  1  0  0  0
 36113  1  0  0  0
 37 39  1  0  0  0
 37 47  1  0  0  0
 37 66  1  0  0  0
 37114  1  0  0  0
 38 43  2  0  0  0
 38 46  1  0  0  0
 38 47  1  0  0  0
 39 64  1  0  0  0
 39 67  2  0  0  0
 40 52  1  0  0  0
 40 53  2  0  0  0
 40 58  1  0  0  0
 41115  1  0  0  0
 41116  1  0  0  0
 41117  1  0  0  0
 41 48  1  0  0  0
 42 43  1  0  0  0
 42 66  1  0  0  0
 42118  1  0  0  0
 42119  1  0  0  0
 43 44  1  0  0  0
 44120  1  0  0  0
 45 46  2  0  0  0
 45121  1  0  0  0
 46122  1  0  0  0
 47123  1  0  0  0
 47124  1  0  0  0
 48 56  1  0  0  0
 48 65  1  0  0  0
 48125  1  0  0  0
 49 50  1  0  0  0
 49 53  1  0  0  0
 49 64  1  0  0  0
 49126  1  0  0  0
 50 51  1  0  0  0
 50127  1  0  0  0
 50128  1  0  0  0
 51 52  1  0  0  0
 51129  1  0  0  0
 51130  1  0  0  0
 52131  1  0  0  0
 52132  1  0  0  0
 53 54  1  0  0  0
 54 55  2  0  0  0
 54133  1  0  0  0
 55 57  1  0  0  0
 55134  1  0  0  0
 56 69  2  0  0  0
 57 58  2  0  0  0
 57135  1  0  0  0
 58136  1  0  0  0
 59 60  1  0  0  0
 59 61  1  0  0  0
 59 62  1  0  0  0
 60137  1  0  0  0
 60138  1  0  0  0
 60139  1  0  0  0
 61140  1  0  0  0
 61141  1  0  0  0
 61142  1  0  0  0
 62143  1  0  0  0
 62144  1  0  0  0
 62145  1  0  0  0
 63 65  1  0  0  0
 63146  1  0  0  0
 63147  1  0  0  0
 63148  1  0  0  0
 64149  1  0  0  0
 65150  1  0  0  0
 68 79  1  0  0  0
 71 73  2  0  0  0
 71 75  1  0  0  0
 71151  1  0  0  0
 72 74  1  0  0  0
 72 76  2  0  0  0
 72152  1  0  0  0
 73 76  1  0  0  0
 73 78  1  0  0  0
 74 75  2  0  0  0
 74 89  1  0  0  0
 75 90  1  0  0  0
 76 91  1  0  0  0
 77 79  1  0  0  0
 77 80  1  0  0  0
 77 88  2  0  0  0
 78 87  1  0  0  0
 78153  1  0  0  0
 78154  1  0  0  0
 79155  1  0  0  0
 79156  1  0  0  0
 80 89  1  0  0  0
 80157  1  0  0  0
 80158  1  0  0  0
 81 82  1  0  0  0
 81 83  1  0  0  0
 81159  1  0  0  0
 81160  1  0  0  0
 82 84  1  0  0  0
 82161  1  0  0  0
 82162  1  0  0  0
 83 85  1  0  0  0
 83163  1  0  0  0
 83164  1  0  0  0
 84 86  1  0  0  0
 84165  1  0  0  0
 84166  1  0  0  0
 85 87  1  0  0  0
 85167  1  0  0  0
 85168  1  0  0  0
 86169  1  0  0  0
 87170  1  0  0  0
 87171  1  0  0  0
M  CHG  1  87   1
M  ISO  4   1 100  68 101  79 101  86 100
M  END
> <chiral flag>
0

> <version>
0

> <s_m_source_file>
/data/baiqing/PycharmProjects/Reinvent-master-3.2/result/LINK_invent/BTK/process_docking_weight1_custom_sum_contain_oxygen_bond_distance_aromatic_linkinvent_7_9_3/rearranged_h_0026.sdf

> <i_m_source_file_index>
68

> <r_mmod_Potential_Energy-OPLS-2005>
-233.943084716797

> <r_mmod_Stretch_Energy-OPLS-2005>
33.0790901184082

> <r_mmod_Bend_Energy-OPLS-2005>
91.971435546875

> <r_mmod_Torsional_Energy-OPLS-2005>
251.097564697266

> <r_mmod_Improper_Torsional_Energy-OPLS-2005>
3.64646911621094

> <r_mmod_Van_der_Waal_Energy-OPLS-2005>
151.511199951172

> <r_mmod_Electrostatic_Energy-OPLS-2005>
-280.241607666016

> <r_mmod_Solvation_Energy-OPLS-2005>
-494.776580810547

> <b_mmod_Minimization_Converged-OPLS-2005>
0

> <r_mmod_RMS_Derivative-OPLS-2005>
2.84292578697205

$$$$
68
                    3D
 Structure written by MMmdl.
181191  0  0  1  0            999 V2000
  -30.8992  -14.2205   20.8100 C   0  0  0  0  0  0
  -30.4012  -12.2695   19.3965 C   0  0  0  0  0  0
  -29.4806  -12.5236   18.1907 C   0  0  0  0  0  0
  -28.0097  -12.3626   18.6003 C   0  0  0  0  0  0
  -27.6612  -13.2083   19.8450 C   0  0  2  0  0  0
  -28.6846  -13.0048   20.9766 C   0  0  0  0  0  0
  -25.2609  -13.8201   20.5625 C   0  0  0  0  0  0
  -24.1856  -13.0465   20.9147 C   0  0  0  0  0  0
  -24.6397  -11.6935   20.8673 C   0  0  0  0  0  0
  -23.9052  -10.4321   21.0377 C   0  0  0  0  0  0
  -24.3602   -9.4248   21.9168 C   0  0  0  0  0  0
  -23.6281   -8.2280   22.0758 C   0  0  0  0  0  0
  -22.4270   -8.0298   21.3545 C   0  0  0  0  0  0
  -21.9891   -9.0267   20.4648 C   0  0  0  0  0  0
  -22.7218  -10.2149   20.3036 C   0  0  0  0  0  0
  -21.6859   -6.0731   22.5261 C   0  0  0  0  0  0
  -21.4027   -6.5634   23.8191 C   0  0  0  0  0  0
  -21.3653   -5.6789   24.9151 C   0  0  0  0  0  0
  -21.6042   -4.3052   24.7212 C   0  0  0  0  0  0
  -21.8817   -3.8143   23.4334 C   0  0  0  0  0  0
  -21.9197   -4.6957   22.3389 C   0  0  0  0  0  0
  -22.7880  -13.5269   21.1824 C   0  0  0  0  0  0
  -22.1658   -4.2135   21.0968 F   0  0  0  0  0  0
  -21.5623   -3.4539   25.7729 F   0  0  0  0  0  0
  -30.0725  -13.1831   20.5049 N   0  0  0  0  0  0
  -26.3009  -12.9359   20.3163 N   0  0  0  0  0  0
  -25.9308  -11.6518   20.5630 N   0  0  0  0  0  0
  -22.0513  -12.8257   22.0380 N   0  0  0  0  0  0
  -25.4354  -15.1918   20.4115 N   0  0  0  0  0  0
  -31.6530  -14.7063   19.9570 O   0  0  0  0  0  0
  -21.6652   -6.8880   21.4229 O   0  0  0  0  0  0
  -22.3553  -14.5568   20.6682 O   0  0  0  0  0  0
  -24.6111  -31.8709   23.2175 C   0  0  0  0  0  0
  -25.9031  -32.4851   23.8434 C   0  0  1  0  0  0
  -27.2491  -27.4791   20.0916 C   0  0  0  0  0  0
  -25.5937  -33.8656   24.2400 N   0  0  0  0  0  0
  -23.3967  -30.4923   21.5566 C   0  0  2  0  0  0
  -24.8445  -28.9601   20.1220 C   0  0  0  0  0  0
  -22.7387  -29.4668   22.5054 C   0  0  0  0  0  0
  -18.0263  -28.1391   22.8490 C   0  0  0  0  0  0
  -24.1481  -36.7303   23.2643 C   0  0  0  0  0  0
  -25.9165  -30.8514   21.3613 C   0  0  0  0  0  0
  -25.9977  -29.4868   20.7142 C   0  0  0  0  0  0
  -27.2012  -28.7539   20.7040 C   0  0  0  0  0  0
  -26.0791  -26.9625   19.4983 C   0  0  0  0  0  0
  -24.8755  -27.6919   19.5164 C   0  0  0  0  0  0
  -23.6022  -29.8171   20.1726 C   0  0  0  0  0  0
  -25.4126  -36.3161   24.0348 C   0  0  1  0  0  0
  -20.5841  -28.3662   23.1342 C   0  0  2  0  0  0
  -20.6767  -26.9406   22.5428 C   0  0  0  0  0  0
  -19.5763  -26.6396   21.5206 C   0  0  0  0  0  0
  -18.1926  -26.7947   22.1599 C   0  0  0  0  0  0
  -19.1507  -28.8839   23.2914 C   0  0  0  0  0  0
  -18.9444  -30.1441   23.8933 C   0  0  0  0  0  0
  -17.6454  -30.6606   24.0562 C   0  0  0  0  0  0
  -25.9042  -34.9505   23.5171 C   0  0  0  0  0  0
  -16.5342  -29.9110   23.6330 C   0  0  0  0  0  0
  -16.7250  -28.6515   23.0365 C   0  0  0  0  0  0
  -26.4500  -31.6592   25.0719 C   0  0  0  0  0  0
  -25.3799  -31.3655   26.1488 C   0  0  0  0  0  0
  -27.0324  -30.3063   24.6012 C   0  0  0  0  0  0
  -27.6106  -32.4272   25.7462 C   0  0  0  0  0  0
  -27.5596  -37.1816   24.8464 C   0  0  0  0  0  0
  -21.4120  -29.3035   22.3768 N   0  0  0  0  0  0
  -26.4322  -37.3843   23.9403 N   0  0  0  0  0  0
  -24.6596  -31.0829   22.1063 N   0  0  0  0  0  0
  -23.4170  -28.8208   23.3085 O   0  0  0  0  0  0
  -28.3736  -26.6867   20.0218 O   0  0  0  0  0  0
  -26.5553  -34.8934   22.4703 O   0  0  0  0  0  0
  -23.5324  -32.1440   23.7611 O   0  0  0  0  0  0
  -29.5109  -17.8941   23.9791 C   0  0  0  0  0  0
  -27.9987  -19.5603   22.9475 C   0  0  0  0  0  0
  -28.0059  -20.3129   24.1474 C   0  0  0  0  0  0
  -28.7433  -18.3558   22.8664 C   0  0  0  0  0  0
  -29.4765  -18.6455   25.1862 C   0  0  0  0  0  0
  -28.7213  -19.8355   25.2676 C   0  0  0  0  0  0
  -27.2864  -24.9894   22.6017 C   0  0  0  0  0  0
  -29.3673  -24.7558   24.0338 C   0  0  0  0  0  0
  -26.7812  -23.6251   23.1113 C   0  0  0  0  0  0
  -28.8696  -23.3897   24.5428 C   0  0  0  0  0  0
  -29.5238  -15.3188   23.7536 C   0  0  0  0  0  0
  -31.5297  -16.7583   22.8626 C   0  0  0  0  0  0
  -30.3780  -14.1023   23.3329 C   0  0  0  0  0  0
  -32.1989  -15.4133   22.5467 C   0  0  0  0  0  0
  -30.3705  -16.6168   23.8878 C   0  0  0  0  0  0
  -28.8172  -25.1825   22.6583 C   0  0  2  0  0  0
  -27.8884  -22.6722   23.5988 C   0  0  1  0  0  0
  -27.1804  -20.0210   21.7417 C   0  0  0  0  0  0
  -29.2229  -26.6475   22.3526 C   0  0  0  0  0  0
  -29.4870  -26.9608   20.8653 C   0  0  0  0  0  0
  -31.1477  -14.4695   22.1333 N   0  0  0  0  0  0
  -27.2940  -21.5189   24.2691 N   0  0  0  0  0  0
  -28.6862  -17.4691   21.3710 Cl  0  0  0  0  0  0
  -30.3554  -18.1411   26.5964 Cl  0  0  0  0  0  0
  -28.6731  -20.7306   26.7542 Cl  0  0  0  0  0  0
  -31.4471  -12.3482   19.0918 H   0  0  0  0  0  0
  -30.2806  -11.2432   19.7455 H   0  0  0  0  0  0
  -29.7188  -11.8238   17.3874 H   0  0  0  0  0  0
  -29.6528  -13.5225   17.7875 H   0  0  0  0  0  0
  -27.8286  -11.3060   18.8023 H   0  0  0  0  0  0
  -27.3541  -12.6303   17.7719 H   0  0  0  0  0  0
  -27.7097  -14.2542   19.5408 H   0  0  0  0  0  0
  -28.5865  -12.0112   21.4147 H   0  0  0  0  0  0
  -28.4057  -13.7243   21.7389 H   0  0  0  0  0  0
  -25.2743   -9.5739   22.4741 H   0  0  0  0  0  0
  -23.9977   -7.4688   22.7497 H   0  0  0  0  0  0
  -21.0807   -8.8780   19.8974 H   0  0  0  0  0  0
  -22.3658  -10.9671   19.6134 H   0  0  0  0  0  0
  -21.2030   -7.6145   23.9682 H   0  0  0  0  0  0
  -21.1470   -6.0527   25.9047 H   0  0  0  0  0  0
  -22.0609   -2.7606   23.2836 H   0  0  0  0  0  0
  -22.4109  -11.9912   22.4764 H   0  0  0  0  0  0
  -21.1130  -13.1292   22.2563 H   0  0  0  0  0  0
  -24.6866  -15.8578   20.5650 H   0  0  0  0  0  0
  -26.3033  -15.6326   20.1324 H   0  0  0  0  0  0
  -26.7093  -32.5596   23.1192 H   0  0  0  0  0  0
  -25.0181  -33.9826   25.0611 H   0  0  0  0  0  0
  -22.6859  -31.3089   21.4174 H   0  0  0  0  0  0
  -23.3798  -35.9582   23.3346 H   0  0  0  0  0  0
  -24.3533  -36.8895   22.2044 H   0  0  0  0  0  0
  -23.7156  -37.6490   23.6617 H   0  0  0  0  0  0
  -26.0151  -31.6184   20.5916 H   0  0  0  0  0  0
  -26.8097  -30.9143   21.9700 H   0  0  0  0  0  0
  -28.0767  -29.1876   21.1622 H   0  0  0  0  0  0
  -26.0995  -25.9868   19.0315 H   0  0  0  0  0  0
  -23.9846  -27.2730   19.0699 H   0  0  0  0  0  0
  -23.7007  -30.5854   19.4061 H   0  0  0  0  0  0
  -22.7323  -29.2253   19.8826 H   0  0  0  0  0  0
  -25.1305  -36.2072   25.0845 H   0  0  0  0  0  0
  -20.9902  -28.3224   24.1474 H   0  0  0  0  0  0
  -20.5683  -26.2263   23.3610 H   0  0  0  0  0  0
  -21.6642  -26.7485   22.1207 H   0  0  0  0  0  0
  -19.6932  -25.6303   21.1248 H   0  0  0  0  0  0
  -19.6737  -27.3188   20.6724 H   0  0  0  0  0  0
  -17.4206  -26.6693   21.3992 H   0  0  0  0  0  0
  -18.0324  -26.0079   22.8981 H   0  0  0  0  0  0
  -19.7919  -30.7232   24.2337 H   0  0  0  0  0  0
  -17.5014  -31.6289   24.5166 H   0  0  0  0  0  0
  -15.5349  -30.3036   23.7655 H   0  0  0  0  0  0
  -15.8625  -28.0846   22.7115 H   0  0  0  0  0  0
  -24.6000  -30.6966   25.7836 H   0  0  0  0  0  0
  -24.8944  -32.2792   26.4925 H   0  0  0  0  0  0
  -25.8195  -30.8843   27.0240 H   0  0  0  0  0  0
  -26.2823  -29.6826   24.1142 H   0  0  0  0  0  0
  -27.4233  -29.7294   25.4403 H   0  0  0  0  0  0
  -27.8604  -30.4427   23.9048 H   0  0  0  0  0  0
  -27.2767  -33.3533   26.2150 H   0  0  0  0  0  0
  -28.3864  -32.6887   25.0253 H   0  0  0  0  0  0
  -28.0840  -31.8314   26.5278 H   0  0  0  0  0  0
  -28.2637  -38.0097   24.7558 H   0  0  0  0  0  0
  -28.1079  -36.2637   24.6288 H   0  0  0  0  0  0
  -27.2274  -37.1466   25.8852 H   0  0  0  0  0  0
  -20.9300  -29.8701   21.6925 H   0  0  0  0  0  0
  -26.0254  -38.2927   24.1477 H   0  0  0  0  0  0
  -26.7978  -25.7723   23.1824 H   0  0  0  0  0  0
  -26.9389  -25.1254   21.5790 H   0  0  0  0  0  0
  -30.4577  -24.7415   23.9922 H   0  0  0  0  0  0
  -29.1100  -25.5128   24.7752 H   0  0  0  0  0  0
  -26.2115  -23.1428   22.3163 H   0  0  0  0  0  0
  -26.0627  -23.8059   23.9124 H   0  0  0  0  0  0
  -28.3967  -23.5427   25.5138 H   0  0  0  0  0  0
  -29.7307  -22.7465   24.7319 H   0  0  0  0  0  0
  -29.0268  -15.1159   24.7033 H   0  0  0  0  0  0
  -28.7173  -15.4543   23.0393 H   0  0  0  0  0  0
  -31.1881  -17.1813   21.9222 H   0  0  0  0  0  0
  -32.2726  -17.4638   23.2376 H   0  0  0  0  0  0
  -29.7966  -13.1890   23.2303 H   0  0  0  0  0  0
  -31.0652  -13.8523   24.1423 H   0  0  0  0  0  0
  -32.7316  -15.0436   23.4245 H   0  0  0  0  0  0
  -32.9781  -15.5460   21.7951 H   0  0  0  0  0  0
  -30.9003  -16.4627   24.8239 H   0  0  0  0  0  0
  -29.2686  -24.5310   21.9078 H   0  0  0  0  0  0
  -28.4519  -22.3396   22.7252 H   0  0  0  0  0  0
  -26.4487  -20.7852   21.9954 H   0  0  0  0  0  0
  -26.6124  -19.1968   21.3110 H   0  0  0  0  0  0
  -27.8377  -20.4256   20.9721 H   0  0  0  0  0  0
  -30.1458  -26.8823   22.8856 H   0  0  0  0  0  0
  -28.4831  -27.3348   22.7630 H   0  0  0  0  0  0
  -30.3061  -26.3285   20.5214 H   0  0  0  0  0  0
  -29.8404  -27.9839   20.7332 H   0  0  0  0  0  0
  -27.1318  -21.7242   25.2511 H   0  0  0  0  0  0
  1 25  1  0  0  0
  1 30  2  0  0  0
  1 91  1  0  0  0
  2  3  1  0  0  0
  2 25  1  0  0  0
  2 96  1  0  0  0
  2 97  1  0  0  0
  3  4  1  0  0  0
  3 98  1  0  0  0
  3 99  1  0  0  0
  4  5  1  0  0  0
  4100  1  0  0  0
  4101  1  0  0  0
  5  6  1  0  0  0
  5 26  1  0  0  0
  5102  1  0  0  0
  6 25  1  0  0  0
  6103  1  0  0  0
  6104  1  0  0  0
  7  8  2  0  0  0
  7 26  1  0  0  0
  7 29  1  0  0  0
  8  9  1  0  0  0
  8 22  1  0  0  0
  9 10  1  0  0  0
  9 27  2  0  0  0
 10 11  2  0  0  0
 10 15  1  0  0  0
 11 12  1  0  0  0
 11105  1  0  0  0
 12 13  2  0  0  0
 12106  1  0  0  0
 13 14  1  0  0  0
 13 31  1  0  0  0
 14 15  2  0  0  0
 14107  1  0  0  0
 15108  1  0  0  0
 16 17  2  0  0  0
 16 21  1  0  0  0
 16 31  1  0  0  0
 17 18  1  0  0  0
 17109  1  0  0  0
 18 19  2  0  0  0
 18110  1  0  0  0
 19 20  1  0  0  0
 19 24  1  0  0  0
 20 21  2  0  0  0
 20111  1  0  0  0
 21 23  1  0  0  0
 22 28  1  0  0  0
 22 32  2  0  0  0
 26 27  1  0  0  0
 28112  1  0  0  0
 28113  1  0  0  0
 29114  1  0  0  0
 29115  1  0  0  0
 33 34  1  0  0  0
 33 66  1  0  0  0
 33 70  2  0  0  0
 34 36  1  0  0  0
 34 59  1  0  0  0
 34116  1  0  0  0
 35 44  2  0  0  0
 35 45  1  0  0  0
 35 68  1  0  0  0
 36 56  1  0  0  0
 36117  1  0  0  0
 37 39  1  0  0  0
 37 47  1  0  0  0
 37 66  1  0  0  0
 37118  1  0  0  0
 38 43  2  0  0  0
 38 46  1  0  0  0
 38 47  1  0  0  0
 39 64  1  0  0  0
 39 67  2  0  0  0
 40 52  1  0  0  0
 40 53  2  0  0  0
 40 58  1  0  0  0
 41119  1  0  0  0
 41120  1  0  0  0
 41121  1  0  0  0
 41 48  1  0  0  0
 42 43  1  0  0  0
 42 66  1  0  0  0
 42122  1  0  0  0
 42123  1  0  0  0
 43 44  1  0  0  0
 44124  1  0  0  0
 45 46  2  0  0  0
 45125  1  0  0  0
 46126  1  0  0  0
 47127  1  0  0  0
 47128  1  0  0  0
 48 56  1  0  0  0
 48 65  1  0  0  0
 48129  1  0  0  0
 49 50  1  0  0  0
 49 53  1  0  0  0
 49 64  1  0  0  0
 49130  1  0  0  0
 50 51  1  0  0  0
 50131  1  0  0  0
 50132  1  0  0  0
 51 52  1  0  0  0
 51133  1  0  0  0
 51134  1  0  0  0
 52135  1  0  0  0
 52136  1  0  0  0
 53 54  1  0  0  0
 54 55  2  0  0  0
 54137  1  0  0  0
 55 57  1  0  0  0
 55138  1  0  0  0
 56 69  2  0  0  0
 57 58  2  0  0  0
 57139  1  0  0  0
 58140  1  0  0  0
 59 60  1  0  0  0
 59 61  1  0  0  0
 59 62  1  0  0  0
 60141  1  0  0  0
 60142  1  0  0  0
 60143  1  0  0  0
 61144  1  0  0  0
 61145  1  0  0  0
 61146  1  0  0  0
 62147  1  0  0  0
 62148  1  0  0  0
 62149  1  0  0  0
 63 65  1  0  0  0
 63150  1  0  0  0
 63151  1  0  0  0
 63152  1  0  0  0
 64153  1  0  0  0
 65154  1  0  0  0
 68 90  1  0  0  0
 71 74  2  0  0  0
 71 75  1  0  0  0
 71 85  1  0  0  0
 72 73  2  0  0  0
 72 74  1  0  0  0
 72 88  1  0  0  0
 73 76  1  0  0  0
 73 92  1  0  0  0
 74 93  1  0  0  0
 75 76  2  0  0  0
 75 94  1  0  0  0
 76 95  1  0  0  0
 77 79  1  0  0  0
 77 86  1  0  0  0
 77155  1  0  0  0
 77156  1  0  0  0
 78 80  1  0  0  0
 78 86  1  0  0  0
 78157  1  0  0  0
 78158  1  0  0  0
 79 87  1  0  0  0
 79159  1  0  0  0
 79160  1  0  0  0
 80 87  1  0  0  0
 80161  1  0  0  0
 80162  1  0  0  0
 81 83  1  0  0  0
 81 85  1  0  0  0
 81163  1  0  0  0
 81164  1  0  0  0
 82 84  1  0  0  0
 82 85  1  0  0  0
 82165  1  0  0  0
 82166  1  0  0  0
 83 91  1  0  0  0
 83167  1  0  0  0
 83168  1  0  0  0
 84 91  1  0  0  0
 84169  1  0  0  0
 84170  1  0  0  0
 85171  1  0  0  0
 86 89  1  0  0  0
 86172  1  0  0  0
 87 92  1  0  0  0
 87173  1  0  0  0
 88174  1  0  0  0
 88175  1  0  0  0
 88176  1  0  0  0
 89 90  1  0  0  0
 89177  1  0  0  0
 89178  1  0  0  0
 90179  1  0  0  0
 90180  1  0  0  0
 92181  1  0  0  0
M  ISO  4   1 100  68 101  90 101  91 100
M  END
> <chiral flag>
0

> <version>
0

> <s_m_source_file>
/data/baiqing/PycharmProjects/Reinvent-master-3.2/result/LINK_invent/BTK/process_docking_weight1_custom_sum_contain_oxygen_bond_distance_aromatic_linkinvent_7_9_3/rearranged_h_0026.sdf

> <i_m_source_file_index>
69

> <r_mmod_Potential_Energy-OPLS-2005>
292.601776123047

> <r_mmod_Stretch_Energy-OPLS-2005>
44.0968856811523

> <r_mmod_Bend_Energy-OPLS-2005>
133.140563964844

> <r_mmod_Torsional_Energy-OPLS-2005>
357.497344970703

> <r_mmod_Improper_Torsional_Energy-OPLS-2005>
15.1203060150146

> <r_mmod_Van_der_Waal_Energy-OPLS-2005>
183.675338745117

> <r_mmod_Electrostatic_Energy-OPLS-2005>
-268.484619140625

> <r_mmod_Solvation_Energy-OPLS-2005>
-187.881973266602

> <b_mmod_Minimization_Converged-OPLS-2005>
0

> <r_mmod_RMS_Derivative-OPLS-2005>
2.27770352363586

$$$$
69
                    3D
 Structure written by MMmdl.
177185  0  0  1  0            999 V2000
  -30.7452  -14.3647   20.6832 C   0  0  0  0  0  0
  -30.4186  -12.2888   19.3915 C   0  0  0  0  0  0
  -29.4835  -12.5271   18.1901 C   0  0  0  0  0  0
  -28.0071  -12.3810   18.6061 C   0  0  0  0  0  0
  -27.6656  -13.1966   19.8806 C   0  0  2  0  0  0
  -28.7015  -12.9202   20.9919 C   0  0  0  0  0  0
  -25.2616  -13.8138   20.5674 C   0  0  0  0  0  0
  -24.1856  -13.0440   20.9169 C   0  0  0  0  0  0
  -24.6387  -11.6894   20.8724 C   0  0  0  0  0  0
  -23.9049  -10.4290   21.0402 C   0  0  0  0  0  0
  -24.3602   -9.4211   21.9183 C   0  0  0  0  0  0
  -23.6281   -8.2246   22.0759 C   0  0  0  0  0  0
  -22.4264   -8.0281   21.3545 C   0  0  0  0  0  0
  -21.9899   -9.0254   20.4644 C   0  0  0  0  0  0
  -22.7221  -10.2134   20.3055 C   0  0  0  0  0  0
  -21.6848   -6.0732   22.5277 C   0  0  0  0  0  0
  -21.4010   -6.5636   23.8211 C   0  0  0  0  0  0
  -21.3659   -5.6790   24.9174 C   0  0  0  0  0  0
  -21.6044   -4.3052   24.7221 C   0  0  0  0  0  0
  -21.8825   -3.8145   23.4344 C   0  0  0  0  0  0
  -21.9193   -4.6964   22.3398 C   0  0  0  0  0  0
  -22.7884  -13.5255   21.1836 C   0  0  0  0  0  0
  -22.1664   -4.2147   21.0977 F   0  0  0  0  0  0
  -21.5629   -3.4541   25.7738 F   0  0  0  0  0  0
  -30.0434  -13.2253   20.4594 N   0  0  0  0  0  0
  -26.3037  -12.9291   20.3365 N   0  0  0  0  0  0
  -25.9306  -11.6461   20.5741 N   0  0  0  0  0  0
  -22.0515  -12.8252   22.0377 N   0  0  0  0  0  0
  -25.4380  -15.1858   20.4092 N   0  0  0  0  0  0
  -31.7883  -14.6526   20.0880 O   0  0  0  0  0  0
  -21.6637   -6.8872   21.4236 O   0  0  0  0  0  0
  -22.3592  -14.5577   20.6689 O   0  0  0  0  0  0
  -24.6100  -31.8721   23.2161 C   0  0  0  0  0  0
  -25.9012  -32.4852   23.8444 C   0  0  1  0  0  0
  -27.2345  -27.4744   20.0947 C   0  0  0  0  0  0
  -25.5886  -33.8640   24.2376 N   0  0  0  0  0  0
  -23.3972  -30.4949   21.5550 C   0  0  2  0  0  0
  -24.8444  -28.9621   20.1200 C   0  0  0  0  0  0
  -22.7385  -29.4678   22.5023 C   0  0  0  0  0  0
  -18.0261  -28.1384   22.8494 C   0  0  0  0  0  0
  -24.1480  -36.7318   23.2651 C   0  0  0  0  0  0
  -25.9208  -30.8475   21.3638 C   0  0  0  0  0  0
  -25.9995  -29.4820   20.7185 C   0  0  0  0  0  0
  -27.1985  -28.7412   20.7103 C   0  0  0  0  0  0
  -26.0732  -26.9592   19.4882 C   0  0  0  0  0  0
  -24.8721  -27.6955   19.5071 C   0  0  0  0  0  0
  -23.6047  -29.8261   20.1695 C   0  0  0  0  0  0
  -25.4099  -36.3125   24.0359 C   0  0  1  0  0  0
  -20.5852  -28.3656   23.1335 C   0  0  2  0  0  0
  -20.6754  -26.9400   22.5419 C   0  0  0  0  0  0
  -19.5737  -26.6394   21.5211 C   0  0  0  0  0  0
  -18.1906  -26.7934   22.1618 C   0  0  0  0  0  0
  -19.1514  -28.8837   23.2911 C   0  0  0  0  0  0
  -18.9446  -30.1439   23.8926 C   0  0  0  0  0  0
  -17.6454  -30.6594   24.0561 C   0  0  0  0  0  0
  -25.9021  -34.9493   23.5163 C   0  0  0  0  0  0
  -16.5342  -29.9099   23.6334 C   0  0  0  0  0  0
  -16.7252  -28.6513   23.0360 C   0  0  0  0  0  0
  -26.4464  -31.6607   25.0746 C   0  0  0  0  0  0
  -25.3736  -31.3626   26.1486 C   0  0  0  0  0  0
  -27.0336  -30.3085   24.6070 C   0  0  0  0  0  0
  -27.6054  -32.4317   25.7496 C   0  0  0  0  0  0
  -27.5576  -37.1812   24.8478 C   0  0  0  0  0  0
  -21.4121  -29.3030   22.3739 N   0  0  0  0  0  0
  -26.4294  -37.3802   23.9421 N   0  0  0  0  0  0
  -24.6608  -31.0857   22.1039 N   0  0  0  0  0  0
  -23.4161  -28.8211   23.3049 O   0  0  0  0  0  0
  -28.4023  -26.7635   20.0410 O   0  0  0  0  0  0
  -26.5575  -34.8928   22.4712 O   0  0  0  0  0  0
  -23.5304  -32.1459   23.7582 O   0  0  0  0  0  0
  -24.3026  -19.5933   23.9325 C   0  0  0  0  0  0
  -25.3034  -19.9024   22.9900 C   0  0  0  0  0  0
  -26.9131  -18.5658   24.2977 C   0  0  0  0  0  0
  -24.5873  -18.7806   25.0444 C   0  0  0  0  0  0
  -26.6047  -19.3697   23.1691 C   0  0  0  0  0  0
  -25.8901  -18.2674   25.2368 C   0  0  0  0  0  0
  -30.4565  -17.5556   20.9970 C   0  0  0  0  0  0
  -30.6665  -15.7863   24.5060 C   0  0  0  0  0  0
  -24.9441  -20.7841   21.7932 C   0  0  0  0  0  0
  -28.3551  -18.0867   24.5096 C   0  0  0  0  0  0
  -26.8181  -24.1512   21.6009 C   0  0  0  0  0  0
  -28.1461  -24.5111   20.9077 C   0  0  0  0  0  0
  -26.3238  -22.7604   21.1629 C   0  0  0  0  0  0
  -28.6477  -25.9409   21.1755 C   0  0  0  0  0  0
  -30.7521  -16.4620   22.0431 C   0  0  1  0  0  0
  -30.2652  -16.8483   23.4642 C   0  0  1  0  0  0
  -30.2087  -15.1731   21.6076 N   0  0  0  0  0  0
  -25.2566  -22.2119   22.0309 N   0  3  0  0  0  0
  -28.8020  -17.1080   23.4880 N   0  3  0  0  0  0
  -23.3176  -18.4370   26.1666 Cl  0  0  0  0  0  0
  -27.8345  -19.6842   21.9928 Cl  0  0  0  0  0  0
  -26.2114  -17.2852   26.6281 Cl  0  0  0  0  0  0
  -31.4615  -12.3979   19.0895 H   0  0  0  0  0  0
  -30.3219  -11.2634   19.7515 H   0  0  0  0  0  0
  -29.7158  -11.8256   17.3878 H   0  0  0  0  0  0
  -29.6521  -13.5253   17.7824 H   0  0  0  0  0  0
  -27.8133  -11.3215   18.7799 H   0  0  0  0  0  0
  -27.3540  -12.6777   17.7844 H   0  0  0  0  0  0
  -27.7290  -14.2520   19.6158 H   0  0  0  0  0  0
  -28.6669  -11.8688   21.2822 H   0  0  0  0  0  0
  -28.4460  -13.4686   21.8984 H   0  0  0  0  0  0
  -25.2748   -9.5688   22.4756 H   0  0  0  0  0  0
  -23.9988   -7.4643   22.7483 H   0  0  0  0  0  0
  -21.0836   -8.8767   19.8947 H   0  0  0  0  0  0
  -22.3681  -10.9673   19.6163 H   0  0  0  0  0  0
  -21.2001   -7.6144   23.9708 H   0  0  0  0  0  0
  -21.1474   -6.0523   25.9072 H   0  0  0  0  0  0
  -22.0604   -2.7609   23.2848 H   0  0  0  0  0  0
  -22.4111  -11.9891   22.4735 H   0  0  0  0  0  0
  -21.1134  -13.1285   22.2572 H   0  0  0  0  0  0
  -24.6568  -15.8287   20.4702 H   0  0  0  0  0  0
  -26.2710  -15.6079   20.0200 H   0  0  0  0  0  0
  -26.7074  -32.5599   23.1209 H   0  0  0  0  0  0
  -25.0042  -33.9799   25.0528 H   0  0  0  0  0  0
  -22.6858  -31.3111   21.4175 H   0  0  0  0  0  0
  -23.3761  -35.9637   23.3337 H   0  0  0  0  0  0
  -24.3561  -36.8918   22.2060 H   0  0  0  0  0  0
  -23.7228  -37.6522   23.6658 H   0  0  0  0  0  0
  -26.0240  -31.6123   20.5928 H   0  0  0  0  0  0
  -26.8100  -30.9076   21.9775 H   0  0  0  0  0  0
  -28.0969  -29.1387   21.1626 H   0  0  0  0  0  0
  -26.1018  -25.9935   19.0035 H   0  0  0  0  0  0
  -23.9828  -27.2947   19.0399 H   0  0  0  0  0  0
  -23.7100  -30.6024   19.4114 H   0  0  0  0  0  0
  -22.7292  -29.2451   19.8742 H   0  0  0  0  0  0
  -25.1269  -36.2002   25.0857 H   0  0  0  0  0  0
  -20.9940  -28.3222   24.1460 H   0  0  0  0  0  0
  -20.5676  -26.2255   23.3588 H   0  0  0  0  0  0
  -21.6617  -26.7459   22.1200 H   0  0  0  0  0  0
  -19.6909  -25.6310   21.1230 H   0  0  0  0  0  0
  -19.6706  -27.3209   20.6747 H   0  0  0  0  0  0
  -17.4182  -26.6698   21.4013 H   0  0  0  0  0  0
  -18.0306  -26.0063   22.9003 H   0  0  0  0  0  0
  -19.7919  -30.7228   24.2337 H   0  0  0  0  0  0
  -17.5014  -31.6281   24.5138 H   0  0  0  0  0  0
  -15.5344  -30.3007   23.7657 H   0  0  0  0  0  0
  -15.8644  -28.0826   22.7103 H   0  0  0  0  0  0
  -24.5946  -30.6942   25.7786 H   0  0  0  0  0  0
  -24.8861  -32.2728   26.4986 H   0  0  0  0  0  0
  -25.8095  -30.8757   27.0219 H   0  0  0  0  0  0
  -26.2873  -29.6757   24.1252 H   0  0  0  0  0  0
  -27.4312  -29.7377   25.4474 H   0  0  0  0  0  0
  -27.8595  -30.4463   23.9088 H   0  0  0  0  0  0
  -27.2717  -33.3632   26.2076 H   0  0  0  0  0  0
  -28.3852  -32.6847   25.0298 H   0  0  0  0  0  0
  -28.0734  -31.8436   26.5401 H   0  0  0  0  0  0
  -28.2599  -38.0101   24.7523 H   0  0  0  0  0  0
  -28.1066  -36.2638   24.6318 H   0  0  0  0  0  0
  -27.2276  -37.1458   25.8872 H   0  0  0  0  0  0
  -20.9288  -29.8714   21.6922 H   0  0  0  0  0  0
  -26.0205  -38.2889   24.1413 H   0  0  0  0  0  0
  -23.2983  -19.9713   23.8058 H   0  0  0  0  0  0
  -30.7996  -18.5352   21.3326 H   0  0  0  0  0  0
  -29.3942  -17.6286   20.7675 H   0  0  0  0  0  0
  -30.9688  -17.3477   20.0572 H   0  0  0  0  0  0
  -31.7431  -15.6167   24.4834 H   0  0  0  0  0  0
  -30.1835  -14.8263   24.3248 H   0  0  0  0  0  0
  -30.4139  -16.0981   25.5192 H   0  0  0  0  0  0
  -23.8726  -20.7057   21.6054 H   0  0  0  0  0  0
  -25.4191  -20.4110   20.8851 H   0  0  0  0  0  0
  -28.5112  -17.6654   25.5006 H   0  0  0  0  0  0
  -28.9926  -18.9724   24.4766 H   0  0  0  0  0  0
  -26.0537  -24.9013   21.3959 H   0  0  0  0  0  0
  -26.9799  -24.1639   22.6793 H   0  0  0  0  0  0
  -28.0690  -24.3494   19.8309 H   0  0  0  0  0  0
  -28.9105  -23.8111   21.2490 H   0  0  0  0  0  0
  -27.1748  -22.0843   21.1653 H   0  0  0  0  0  0
  -25.9676  -22.7973   20.1316 H   0  0  0  0  0  0
  -29.7282  -25.9207   21.3264 H   0  0  0  0  0  0
  -28.2272  -26.3540   22.0950 H   0  0  0  0  0  0
  -31.8390  -16.3638   22.1033 H   0  0  0  0  0  0
  -30.7831  -17.7748   23.7243 H   0  0  0  0  0  0
  -29.3822  -14.8110   22.0552 H   0  0  0  0  0  0
  -25.5066  -22.3236   22.9984 H   0  0  0  0  0  0
  -24.4106  -22.7380   21.8790 H   0  0  0  0  0  0
  -28.5724  -17.5156   22.5930 H   0  0  0  0  0  0
  -28.2840  -16.2509   23.5900 H   0  0  0  0  0  0
  1 25  1  0  0  0
  1 30  2  0  0  0
  1 87  1  0  0  0
  2  3  1  0  0  0
  2 25  1  0  0  0
  2 93  1  0  0  0
  2 94  1  0  0  0
  3  4  1  0  0  0
  3 95  1  0  0  0
  3 96  1  0  0  0
  4  5  1  0  0  0
  4 97  1  0  0  0
  4 98  1  0  0  0
  5  6  1  0  0  0
  5 26  1  0  0  0
  5 99  1  0  0  0
  6 25  1  0  0  0
  6100  1  0  0  0
  6101  1  0  0  0
  7  8  2  0  0  0
  7 26  1  0  0  0
  7 29  1  0  0  0
  8  9  1  0  0  0
  8 22  1  0  0  0
  9 10  1  0  0  0
  9 27  2  0  0  0
 10 11  2  0  0  0
 10 15  1  0  0  0
 11 12  1  0  0  0
 11102  1  0  0  0
 12 13  2  0  0  0
 12103  1  0  0  0
 13 14  1  0  0  0
 13 31  1  0  0  0
 14 15  2  0  0  0
 14104  1  0  0  0
 15105  1  0  0  0
 16 17  2  0  0  0
 16 21  1  0  0  0
 16 31  1  0  0  0
 17 18  1  0  0  0
 17106  1  0  0  0
 18 19  2  0  0  0
 18107  1  0  0  0
 19 20  1  0  0  0
 19 24  1  0  0  0
 20 21  2  0  0  0
 20108  1  0  0  0
 21 23  1  0  0  0
 22 28  1  0  0  0
 22 32  2  0  0  0
 26 27  1  0  0  0
 28109  1  0  0  0
 28110  1  0  0  0
 29111  1  0  0  0
 29112  1  0  0  0
 33 34  1  0  0  0
 33 66  1  0  0  0
 33 70  2  0  0  0
 34 36  1  0  0  0
 34 59  1  0  0  0
 34113  1  0  0  0
 35 44  2  0  0  0
 35 45  1  0  0  0
 35 68  1  0  0  0
 36 56  1  0  0  0
 36114  1  0  0  0
 37 39  1  0  0  0
 37 47  1  0  0  0
 37 66  1  0  0  0
 37115  1  0  0  0
 38 43  2  0  0  0
 38 46  1  0  0  0
 38 47  1  0  0  0
 39 64  1  0  0  0
 39 67  2  0  0  0
 40 52  1  0  0  0
 40 53  2  0  0  0
 40 58  1  0  0  0
 41116  1  0  0  0
 41117  1  0  0  0
 41118  1  0  0  0
 41 48  1  0  0  0
 42 43  1  0  0  0
 42 66  1  0  0  0
 42119  1  0  0  0
 42120  1  0  0  0
 43 44  1  0  0  0
 44121  1  0  0  0
 45 46  2  0  0  0
 45122  1  0  0  0
 46123  1  0  0  0
 47124  1  0  0  0
 47125  1  0  0  0
 48 56  1  0  0  0
 48 65  1  0  0  0
 48126  1  0  0  0
 49 50  1  0  0  0
 49 53  1  0  0  0
 49 64  1  0  0  0
 49127  1  0  0  0
 50 51  1  0  0  0
 50128  1  0  0  0
 50129  1  0  0  0
 51 52  1  0  0  0
 51130  1  0  0  0
 51131  1  0  0  0
 52132  1  0  0  0
 52133  1  0  0  0
 53 54  1  0  0  0
 54 55  2  0  0  0
 54134  1  0  0  0
 55 57  1  0  0  0
 55135  1  0  0  0
 56 69  2  0  0  0
 57 58  2  0  0  0
 57136  1  0  0  0
 58137  1  0  0  0
 59 60  1  0  0  0
 59 61  1  0  0  0
 59 62  1  0  0  0
 60138  1  0  0  0
 60139  1  0  0  0
 60140  1  0  0  0
 61141  1  0  0  0
 61142  1  0  0  0
 61143  1  0  0  0
 62144  1  0  0  0
 62145  1  0  0  0
 62146  1  0  0  0
 63 65  1  0  0  0
 63147  1  0  0  0
 63148  1  0  0  0
 63149  1  0  0  0
 64150  1  0  0  0
 65151  1  0  0  0
 68 84  1  0  0  0
 71 72  2  0  0  0
 71 74  1  0  0  0
 71152  1  0  0  0
 72 75  1  0  0  0
 72 79  1  0  0  0
 73 75  2  0  0  0
 73 76  1  0  0  0
 73 80  1  0  0  0
 74 76  2  0  0  0
 74 90  1  0  0  0
 75 91  1  0  0  0
 76 92  1  0  0  0
 77153  1  0  0  0
 77154  1  0  0  0
 77155  1  0  0  0
 77 85  1  0  0  0
 78156  1  0  0  0
 78157  1  0  0  0
 78158  1  0  0  0
 78 86  1  0  0  0
 79 88  1  0  0  0
 79159  1  0  0  0
 79160  1  0  0  0
 80 89  1  0  0  0
 80161  1  0  0  0
 80162  1  0  0  0
 81 82  1  0  0  0
 81 83  1  0  0  0
 81163  1  0  0  0
 81164  1  0  0  0
 82 84  1  0  0  0
 82165  1  0  0  0
 82166  1  0  0  0
 83 88  1  0  0  0
 83167  1  0  0  0
 83168  1  0  0  0
 84169  1  0  0  0
 84170  1  0  0  0
 85 86  1  0  0  0
 85 87  1  0  0  0
 85171  1  0  0  0
 86 89  1  0  0  0
 86172  1  0  0  0
 87173  1  0  0  0
 88174  1  0  0  0
 88175  1  0  0  0
 89176  1  0  0  0
 89177  1  0  0  0
M  CHG  2  88   1  89   1
M  ISO  4   1 100  68 101  84 101  87 100
M  END
> <chiral flag>
0

> <version>
0

> <s_m_source_file>
/data/baiqing/PycharmProjects/Reinvent-master-3.2/result/LINK_invent/BTK/process_docking_weight1_custom_sum_contain_oxygen_bond_distance_aromatic_linkinvent_7_9_3/rearranged_h_0026.sdf

> <i_m_source_file_index>
70

> <r_mmod_Potential_Energy-OPLS-2005>
-495.751281738281

> <r_mmod_Stretch_Energy-OPLS-2005>
34.9131088256836

> <r_mmod_Bend_Energy-OPLS-2005>
91.9657363891602

> <r_mmod_Torsional_Energy-OPLS-2005>
274.198181152344

> <r_mmod_Improper_Torsional_Energy-OPLS-2005>
2.35204100608826

> <r_mmod_Van_der_Waal_Energy-OPLS-2005>
147.489013671875

> <r_mmod_Electrostatic_Energy-OPLS-2005>
-78.7544021606445

> <r_mmod_Solvation_Energy-OPLS-2005>
-974.169799804688

> <b_mmod_Minimization_Converged-OPLS-2005>
0

> <r_mmod_RMS_Derivative-OPLS-2005>
1.61858546733856

$$$$
70
                    3D
 Structure written by MMmdl.
156164  0  0  1  0            999 V2000
  -30.4651  -15.0547   20.4083 C   0  0  0  0  0  0
  -30.4521  -12.6602   19.4994 C   0  0  0  0  0  0
  -29.5280  -12.5473   18.2615 C   0  0  0  0  0  0
  -28.0655  -12.3070   18.6850 C   0  0  0  0  0  0
  -27.6262  -13.2487   19.8347 C   0  0  2  0  0  0
  -28.6694  -13.3043   20.9712 C   0  0  0  0  0  0
  -25.2415  -13.8174   20.5588 C   0  0  0  0  0  0
  -24.1770  -13.0418   20.9235 C   0  0  0  0  0  0
  -24.6402  -11.6909   20.8789 C   0  0  0  0  0  0
  -23.9081  -10.4282   21.0428 C   0  0  0  0  0  0
  -24.3623   -9.4195   21.9200 C   0  0  0  0  0  0
  -23.6293   -8.2233   22.0758 C   0  0  0  0  0  0
  -22.4279   -8.0278   21.3543 C   0  0  0  0  0  0
  -21.9920   -9.0258   20.4650 C   0  0  0  0  0  0
  -22.7254  -10.2136   20.3072 C   0  0  0  0  0  0
  -21.6855   -6.0734   22.5280 C   0  0  0  0  0  0
  -21.4011   -6.5636   23.8212 C   0  0  0  0  0  0
  -21.3659   -5.6791   24.9175 C   0  0  0  0  0  0
  -21.6045   -4.3055   24.7226 C   0  0  0  0  0  0
  -21.8818   -3.8145   23.4346 C   0  0  0  0  0  0
  -21.9190   -4.6961   22.3401 C   0  0  0  0  0  0
  -22.7792  -13.5201   21.1879 C   0  0  0  0  0  0
  -22.1662   -4.2144   21.0979 F   0  0  0  0  0  0
  -21.5628   -3.4541   25.7737 F   0  0  0  0  0  0
  -29.9299  -13.7590   20.3669 N   0  0  0  0  0  0
  -26.2869  -12.9423   20.3218 N   0  0  0  0  0  0
  -25.9336  -11.6563   20.5777 N   0  0  0  0  0  0
  -22.0444  -12.8203   22.0451 N   0  0  0  0  0  0
  -25.3970  -15.1859   20.3715 N   0  0  0  0  0  0
  -31.6745  -15.1588   20.1674 O   0  0  0  0  0  0
  -21.6643   -6.8878   21.4239 O   0  0  0  0  0  0
  -22.3476  -14.5506   20.6722 O   0  0  0  0  0  0
  -24.6491  -31.8377   23.1808 C   0  0  0  0  0  0
  -25.9229  -32.4657   23.8234 C   0  0  1  0  0  0
  -27.2269  -27.0762   20.1733 C   0  0  0  0  0  0
  -25.5946  -33.8468   24.2150 N   0  0  0  0  0  0
  -23.4564  -30.4521   21.5276 C   0  0  2  0  0  0
  -24.9076  -28.8554   20.1227 C   0  0  0  0  0  0
  -22.7603  -29.4508   22.4842 C   0  0  0  0  0  0
  -18.0312  -28.1397   22.8457 C   0  0  0  0  0  0
  -24.1487  -36.7252   23.2646 C   0  0  0  0  0  0
  -26.0152  -30.6933   21.3855 C   0  0  0  0  0  0
  -26.0882  -29.2941   20.7367 C   0  0  0  0  0  0
  -27.2504  -28.4243   20.7333 C   0  0  0  0  0  0
  -26.0154  -26.7401   19.5358 C   0  0  0  0  0  0
  -24.8853  -27.5930   19.5070 C   0  0  0  0  0  0
  -23.6888  -29.7693   20.1535 C   0  0  0  0  0  0
  -25.4118  -36.3014   24.0314 C   0  0  1  0  0  0
  -20.5930  -28.3726   23.1219 C   0  0  2  0  0  0
  -20.6794  -26.9421   22.5401 C   0  0  0  0  0  0
  -19.5769  -26.6375   21.5205 C   0  0  0  0  0  0
  -18.1950  -26.7930   22.1613 C   0  0  0  0  0  0
  -19.1572  -28.8879   23.2824 C   0  0  0  0  0  0
  -18.9492  -30.1473   23.8852 C   0  0  0  0  0  0
  -17.6489  -30.6588   24.0555 C   0  0  0  0  0  0
  -25.9072  -34.9390   23.5044 C   0  0  0  0  0  0
  -16.5376  -29.9082   23.6334 C   0  0  0  0  0  0
  -16.7297  -28.6507   23.0340 C   0  0  0  0  0  0
  -26.4526  -31.6556   25.0709 C   0  0  0  0  0  0
  -25.3685  -31.3781   26.1395 C   0  0  0  0  0  0
  -27.0404  -30.2946   24.6330 C   0  0  0  0  0  0
  -27.6046  -32.4343   25.7494 C   0  0  0  0  0  0
  -27.5571  -37.1778   24.8457 C   0  0  0  0  0  0
  -21.4289  -29.3044   22.3597 N   0  0  0  0  0  0
  -26.4275  -37.3734   23.9408 N   0  0  0  0  0  0
  -24.7272  -31.0178   22.0867 N   0  0  0  0  0  0
  -23.4220  -28.8065   23.3021 O   0  0  0  0  0  0
  -28.3048  -26.1036   20.1185 O   0  0  0  0  0  0
  -26.5672  -34.8900   22.4629 O   0  0  0  0  0  0
  -23.5596  -32.1270   23.6996 O   0  0  0  0  0  0
  -29.7569  -18.9215   19.9089 C   0  0  0  0  0  0
  -29.5265  -17.7377   20.6814 C   0  0  0  0  0  0
  -28.8718  -18.3571   21.8004 C   0  0  0  0  0  0
  -25.8949  -18.5411   22.9708 C   0  0  0  0  0  0
  -28.3364  -17.6705   23.0319 C   0  0  0  0  0  0
  -26.8378  -17.3292   22.9570 C   0  0  0  0  0  0
  -28.3215  -23.0249   20.0864 C   0  0  0  0  0  0
  -29.4539  -21.7545   20.3394 C   0  0  0  0  0  0
  -28.3037  -24.6367   20.7124 C   0  0  0  0  0  0
  -28.7477  -19.7058   21.7161 N   0  0  0  0  0  0
  -29.2602  -20.1597   20.5384 N   0  0  0  0  0  0
  -29.5730  -16.1825   20.4816 N   0  0  0  0  0  0
  -31.4766  -12.8576   19.1804 H   0  0  0  0  0  0
  -30.4858  -11.7181   20.0485 H   0  0  0  0  0  0
  -29.8657  -11.7438   17.6063 H   0  0  0  0  0  0
  -29.5900  -13.4662   17.6766 H   0  0  0  0  0  0
  -27.9840  -11.2697   19.0119 H   0  0  0  0  0  0
  -27.3969  -12.4105   17.8288 H   0  0  0  0  0  0
  -27.5782  -14.2427   19.3891 H   0  0  0  0  0  0
  -28.7858  -12.3312   21.4504 H   0  0  0  0  0  0
  -28.3508  -13.9969   21.7525 H   0  0  0  0  0  0
  -25.2763   -9.5671   22.4783 H   0  0  0  0  0  0
  -23.9997   -7.4624   22.7481 H   0  0  0  0  0  0
  -21.0849   -8.8784   19.8956 H   0  0  0  0  0  0
  -22.3713  -10.9680   19.6188 H   0  0  0  0  0  0
  -21.2008   -7.6145   23.9711 H   0  0  0  0  0  0
  -21.1482   -6.0522   25.9074 H   0  0  0  0  0  0
  -22.0597   -2.7605   23.2850 H   0  0  0  0  0  0
  -22.4058  -11.9863   22.4835 H   0  0  0  0  0  0
  -21.1069  -13.1237   22.2665 H   0  0  0  0  0  0
  -24.6048  -15.8157   20.4367 H   0  0  0  0  0  0
  -26.1986  -15.6096   19.9244 H   0  0  0  0  0  0
  -26.7298  -32.5253   23.0972 H   0  0  0  0  0  0
  -25.0057  -33.9565   25.0274 H   0  0  0  0  0  0
  -22.7611  -31.2780   21.3631 H   0  0  0  0  0  0
  -23.3749  -35.9580   23.3276 H   0  0  0  0  0  0
  -24.3574  -36.8924   22.2064 H   0  0  0  0  0  0
  -23.7244  -37.6439   23.6711 H   0  0  0  0  0  0
  -26.1690  -31.4389   20.6054 H   0  0  0  0  0  0
  -26.8856  -30.7552   22.0266 H   0  0  0  0  0  0
  -28.1609  -28.7673   21.2034 H   0  0  0  0  0  0
  -25.9339  -25.7744   19.0571 H   0  0  0  0  0  0
  -23.9851  -27.2515   19.0148 H   0  0  0  0  0  0
  -23.8374  -30.5369   19.3940 H   0  0  0  0  0  0
  -22.8019  -29.2183   19.8384 H   0  0  0  0  0  0
  -25.1304  -36.1832   25.0806 H   0  0  0  0  0  0
  -21.0008  -28.3318   24.1345 H   0  0  0  0  0  0
  -20.5680  -26.2338   23.3629 H   0  0  0  0  0  0
  -21.6662  -26.7414   22.1204 H   0  0  0  0  0  0
  -19.6931  -25.6276   21.1260 H   0  0  0  0  0  0
  -19.6711  -27.3166   20.6719 H   0  0  0  0  0  0
  -17.4220  -26.6671   21.4016 H   0  0  0  0  0  0
  -18.0344  -26.0078   22.9016 H   0  0  0  0  0  0
  -19.7971  -30.7297   24.2205 H   0  0  0  0  0  0
  -17.5043  -31.6263   24.5174 H   0  0  0  0  0  0
  -15.5375  -30.2972   23.7685 H   0  0  0  0  0  0
  -15.8696  -28.0825   22.7054 H   0  0  0  0  0  0
  -24.5864  -30.7126   25.7724 H   0  0  0  0  0  0
  -24.8870  -32.2972   26.4739 H   0  0  0  0  0  0
  -25.7945  -30.9012   27.0231 H   0  0  0  0  0  0
  -26.3046  -29.6648   24.1322 H   0  0  0  0  0  0
  -27.3984  -29.7270   25.4932 H   0  0  0  0  0  0
  -27.8956  -30.4165   23.9680 H   0  0  0  0  0  0
  -27.2642  -33.3685   26.1971 H   0  0  0  0  0  0
  -28.3910  -32.6841   25.0357 H   0  0  0  0  0  0
  -28.0650  -31.8532   26.5494 H   0  0  0  0  0  0
  -28.2564  -38.0094   24.7517 H   0  0  0  0  0  0
  -28.1097  -36.2631   24.6272 H   0  0  0  0  0  0
  -27.2298  -37.1406   25.8862 H   0  0  0  0  0  0
  -20.9528  -29.8765   21.6765 H   0  0  0  0  0  0
  -26.0138  -38.2796   24.1432 H   0  0  0  0  0  0
  -30.2344  -18.9986   18.9418 H   0  0  0  0  0  0
  -24.8529  -18.2210   22.9544 H   0  0  0  0  0  0
  -26.0493  -19.1833   22.1032 H   0  0  0  0  0  0
  -26.0413  -19.1457   23.8666 H   0  0  0  0  0  0
  -28.5268  -18.2813   23.9157 H   0  0  0  0  0  0
  -28.8955  -16.7489   23.1958 H   0  0  0  0  0  0
  -26.6541  -16.7322   22.0672 H   0  0  0  0  0  0
  -26.5861  -16.6915   23.8045 H   0  0  0  0  0  0
  -27.3743  -22.5995   20.4188 H   0  0  0  0  0  0
  -28.1839  -23.1102   19.0089 H   0  0  0  0  0  0
  -30.0059  -22.0636   21.2272 H   0  0  0  0  0  0
  -30.1926  -21.8546   19.5430 H   0  0  0  0  0  0
  -29.1694  -24.6624   21.3739 H   0  0  0  0  0  0
  -27.4688  -24.6512   21.4135 H   0  0  0  0  0  0
  -28.6513  -15.7960   20.6152 H   0  0  0  0  0  0
  1 25  1  0  0  0
  1 30  2  0  0  0
  1 82  1  0  0  0
  2  3  1  0  0  0
  2 25  1  0  0  0
  2 83  1  0  0  0
  2 84  1  0  0  0
  3  4  1  0  0  0
  3 85  1  0  0  0
  3 86  1  0  0  0
  4  5  1  0  0  0
  4 87  1  0  0  0
  4 88  1  0  0  0
  5  6  1  0  0  0
  5 26  1  0  0  0
  5 89  1  0  0  0
  6 25  1  0  0  0
  6 90  1  0  0  0
  6 91  1  0  0  0
  7  8  2  0  0  0
  7 26  1  0  0  0
  7 29  1  0  0  0
  8  9  1  0  0  0
  8 22  1  0  0  0
  9 10  1  0  0  0
  9 27  2  0  0  0
 10 11  2  0  0  0
 10 15  1  0  0  0
 11 12  1  0  0  0
 11 92  1  0  0  0
 12 13  2  0  0  0
 12 93  1  0  0  0
 13 14  1  0  0  0
 13 31  1  0  0  0
 14 15  2  0  0  0
 14 94  1  0  0  0
 15 95  1  0  0  0
 16 17  2  0  0  0
 16 21  1  0  0  0
 16 31  1  0  0  0
 17 18  1  0  0  0
 17 96  1  0  0  0
 18 19  2  0  0  0
 18 97  1  0  0  0
 19 20  1  0  0  0
 19 24  1  0  0  0
 20 21  2  0  0  0
 20 98  1  0  0  0
 21 23  1  0  0  0
 22 28  1  0  0  0
 22 32  2  0  0  0
 26 27  1  0  0  0
 28 99  1  0  0  0
 28100  1  0  0  0
 29101  1  0  0  0
 29102  1  0  0  0
 33 34  1  0  0  0
 33 66  1  0  0  0
 33 70  2  0  0  0
 34 36  1  0  0  0
 34 59  1  0  0  0
 34103  1  0  0  0
 35 44  2  0  0  0
 35 45  1  0  0  0
 35 68  1  0  0  0
 36 56  1  0  0  0
 36104  1  0  0  0
 37 39  1  0  0  0
 37 47  1  0  0  0
 37 66  1  0  0  0
 37105  1  0  0  0
 38 43  2  0  0  0
 38 46  1  0  0  0
 38 47  1  0  0  0
 39 64  1  0  0  0
 39 67  2  0  0  0
 40 52  1  0  0  0
 40 53  2  0  0  0
 40 58  1  0  0  0
 41106  1  0  0  0
 41107  1  0  0  0
 41108  1  0  0  0
 41 48  1  0  0  0
 42 43  1  0  0  0
 42 66  1  0  0  0
 42109  1  0  0  0
 42110  1  0  0  0
 43 44  1  0  0  0
 44111  1  0  0  0
 45 46  2  0  0  0
 45112  1  0  0  0
 46113  1  0  0  0
 47114  1  0  0  0
 47115  1  0  0  0
 48 56  1  0  0  0
 48 65  1  0  0  0
 48116  1  0  0  0
 49 50  1  0  0  0
 49 53  1  0  0  0
 49 64  1  0  0  0
 49117  1  0  0  0
 50 51  1  0  0  0
 50118  1  0  0  0
 50119  1  0  0  0
 51 52  1  0  0  0
 51120  1  0  0  0
 51121  1  0  0  0
 52122  1  0  0  0
 52123  1  0  0  0
 53 54  1  0  0  0
 54 55  2  0  0  0
 54124  1  0  0  0
 55 57  1  0  0  0
 55125  1  0  0  0
 56 69  2  0  0  0
 57 58  2  0  0  0
 57126  1  0  0  0
 58127  1  0  0  0
 59 60  1  0  0  0
 59 61  1  0  0  0
 59 62  1  0  0  0
 60128  1  0  0  0
 60129  1  0  0  0
 60130  1  0  0  0
 61131  1  0  0  0
 61132  1  0  0  0
 61133  1  0  0  0
 62134  1  0  0  0
 62135  1  0  0  0
 62136  1  0  0  0
 63 65  1  0  0  0
 63137  1  0  0  0
 63138  1  0  0  0
 63139  1  0  0  0
 64140  1  0  0  0
 65141  1  0  0  0
 68 79  1  0  0  0
 71 72  2  0  0  0
 71 81  1  0  0  0
 71142  1  0  0  0
 72 73  1  0  0  0
 72 82  1  0  0  0
 73 75  1  0  0  0
 73 80  2  0  0  0
 74 76  1  0  0  0
 74143  1  0  0  0
 74144  1  0  0  0
 74145  1  0  0  0
 75 76  1  0  0  0
 75146  1  0  0  0
 75147  1  0  0  0
 76148  1  0  0  0
 76149  1  0  0  0
 77 78  1  0  0  0
 77 79  1  0  0  0
 77150  1  0  0  0
 77151  1  0  0  0
 78 81  1  0  0  0
 78152  1  0  0  0
 78153  1  0  0  0
 79154  1  0  0  0
 79155  1  0  0  0
 80 81  1  0  0  0
 82156  1  0  0  0
M  ISO  4   1 100  68 101  79 101  82 100
M  END
> <chiral flag>
0

> <version>
0

> <s_m_source_file>
/data/baiqing/PycharmProjects/Reinvent-master-3.2/result/LINK_invent/BTK/process_docking_weight1_custom_sum_contain_oxygen_bond_distance_aromatic_linkinvent_7_9_3/rearranged_h_0026.sdf

> <i_m_source_file_index>
71

> <r_mmod_Potential_Energy-OPLS-2005>
758.674011230469

> <r_mmod_Stretch_Energy-OPLS-2005>
331.250244140625

> <r_mmod_Bend_Energy-OPLS-2005>
377.102386474609

> <r_mmod_Torsional_Energy-OPLS-2005>
286.679992675781

> <r_mmod_Improper_Torsional_Energy-OPLS-2005>
10.6643972396851

> <r_mmod_Van_der_Waal_Energy-OPLS-2005>
96.0519104003906

> <r_mmod_Electrostatic_Energy-OPLS-2005>
-383.502868652344

> <r_mmod_Solvation_Energy-OPLS-2005>
-217.570922851562

> <b_mmod_Minimization_Converged-OPLS-2005>
0

> <r_mmod_RMS_Derivative-OPLS-2005>
1.31347298622131

$$$$
71
                    3D
 Structure written by MMmdl.
158166  0  0  1  0            999 V2000
  -30.6315  -14.7148   20.4657 C   0  0  0  0  0  0
  -30.4290  -12.4326   19.4770 C   0  0  0  0  0  0
  -29.5088  -12.5332   18.2380 C   0  0  0  0  0  0
  -28.0260  -12.3925   18.6308 C   0  0  0  0  0  0
  -27.6480  -13.2459   19.8699 C   0  0  2  0  0  0
  -28.6981  -13.1405   21.0030 C   0  0  0  0  0  0
  -25.2470  -13.8244   20.5702 C   0  0  0  0  0  0
  -24.1768  -13.0444   20.9216 C   0  0  0  0  0  0
  -24.6415  -11.6945   20.8802 C   0  0  0  0  0  0
  -23.9086  -10.4307   21.0433 C   0  0  0  0  0  0
  -24.3621   -9.4217   21.9215 C   0  0  0  0  0  0
  -23.6295   -8.2254   22.0763 C   0  0  0  0  0  0
  -22.4280   -8.0298   21.3549 C   0  0  0  0  0  0
  -21.9910   -9.0278   20.4653 C   0  0  0  0  0  0
  -22.7247  -10.2157   20.3075 C   0  0  0  0  0  0
  -21.6829   -6.0759   22.5299 C   0  0  0  0  0  0
  -21.4013   -6.5649   23.8246 C   0  0  0  0  0  0
  -21.3653   -5.6797   24.9195 C   0  0  0  0  0  0
  -21.6054   -4.3061   24.7231 C   0  0  0  0  0  0
  -21.8812   -3.8143   23.4338 C   0  0  0  0  0  0
  -21.9173   -4.6980   22.3394 C   0  0  0  0  0  0
  -22.7774  -13.5207   21.1832 C   0  0  0  0  0  0
  -22.1642   -4.2160   21.0981 F   0  0  0  0  0  0
  -21.5600   -3.4550   25.7729 F   0  0  0  0  0  0
  -30.0048  -13.4870   20.4306 N   0  0  0  0  0  0
  -26.2960  -12.9488   20.3372 N   0  0  0  0  0  0
  -25.9359  -11.6624   20.5812 N   0  0  0  0  0  0
  -22.0399  -12.8244   22.0424 N   0  0  0  0  0  0
  -25.4054  -15.1977   20.4079 N   0  0  0  0  0  0
  -31.7944  -14.8191   20.0673 O   0  0  0  0  0  0
  -21.6593   -6.8917   21.4277 O   0  0  0  0  0  0
  -22.3463  -14.5493   20.6649 O   0  0  0  0  0  0
  -24.6337  -31.8578   23.1944 C   0  0  0  0  0  0
  -25.9160  -32.4767   23.8326 C   0  0  1  0  0  0
  -27.2325  -27.2679   20.1490 C   0  0  0  0  0  0
  -25.5930  -33.8563   24.2250 N   0  0  0  0  0  0
  -23.4321  -30.4808   21.5354 C   0  0  2  0  0  0
  -24.8806  -28.9095   20.1189 C   0  0  0  0  0  0
  -22.7527  -29.4786   22.4968 C   0  0  0  0  0  0
  -18.0113  -28.1528   22.8292 C   0  0  0  0  0  0
  -24.1487  -36.7280   23.2645 C   0  0  0  0  0  0
  -25.9763  -30.7679   21.3765 C   0  0  0  0  0  0
  -26.0490  -29.3887   20.7260 C   0  0  0  0  0  0
  -27.2309  -28.5809   20.7252 C   0  0  0  0  0  0
  -26.0460  -26.8471   19.5167 C   0  0  0  0  0  0
  -24.8827  -27.6447   19.5058 C   0  0  0  0  0  0
  -23.6513  -29.7957   20.1584 C   0  0  0  0  0  0
  -25.4106  -36.3073   24.0342 C   0  0  1  0  0  0
  -20.5972  -28.3751   23.1073 C   0  0  2  0  0  0
  -20.7754  -26.9740   22.4607 C   0  0  0  0  0  0
  -19.5469  -26.4223   21.7114 C   0  0  0  0  0  0
  -18.1059  -26.8621   22.0307 C   0  0  0  0  0  0
  -19.1516  -28.8764   23.2784 C   0  0  0  0  0  0
  -18.9522  -30.1302   23.9021 C   0  0  0  0  0  0
  -17.6574  -30.6546   24.0781 C   0  0  0  0  0  0
  -25.9056  -34.9450   23.5100 C   0  0  0  0  0  0
  -16.5375  -29.9210   23.6559 C   0  0  0  0  0  0
  -16.7177  -28.6730   23.0388 C   0  0  0  0  0  0
  -26.4512  -31.6578   25.0709 C   0  0  0  0  0  0
  -25.3729  -31.3684   26.1413 C   0  0  0  0  0  0
  -27.0337  -30.2986   24.6201 C   0  0  0  0  0  0
  -27.6074  -32.4300   25.7475 C   0  0  0  0  0  0
  -27.5580  -37.1812   24.8457 C   0  0  0  0  0  0
  -21.4203  -29.3463   22.3889 N   0  0  0  0  0  0
  -26.4280  -37.3771   23.9405 N   0  0  0  0  0  0
  -24.6993  -31.0576   22.0895 N   0  0  0  0  0  0
  -23.4244  -28.8168   23.2934 O   0  0  0  0  0  0
  -28.3462  -26.4033   20.1266 O   0  0  0  0  0  0
  -26.5624  -34.8943   22.4663 O   0  0  0  0  0  0
  -23.5477  -32.1368   23.7241 O   0  0  0  0  0  0
  -29.9931  -18.6405   20.8198 C   0  0  0  0  0  0
  -30.5527  -18.8158   22.1178 C   0  0  0  0  0  0
  -29.5120  -19.8653   20.1869 C   0  0  0  0  0  0
  -30.4149  -20.0726   22.7661 C   0  0  0  0  0  0
  -29.5358  -21.1471   20.8707 C   0  0  0  0  0  0
  -31.3904  -17.7230   22.7835 C   0  0  0  0  0  0
  -30.8136  -20.2706   24.2278 C   0  0  0  0  0  0
  -30.0502  -17.2278   20.0648 C   0  0  0  0  0  0
  -29.3978  -22.5961   20.1994 C   0  0  0  0  0  0
  -28.1773  -23.6233   20.4584 C   0  0  0  0  0  0
  -28.3533  -25.1614   20.9625 C   0  0  0  0  0  0
  -29.9343  -21.1869   22.1635 N   0  0  0  0  0  0
  -29.8803  -15.8500   20.7118 N   0  0  0  0  0  0
  -28.9691  -19.8128   18.5463 Cl  0  0  0  0  0  0
  -31.4706  -12.5432   19.1708 H   0  0  0  0  0  0
  -30.3589  -11.4439   19.9372 H   0  0  0  0  0  0
  -29.7756  -11.7749   17.5014 H   0  0  0  0  0  0
  -29.6681  -13.4975   17.7534 H   0  0  0  0  0  0
  -27.8277  -11.3376   18.8232 H   0  0  0  0  0  0
  -27.3858  -12.6695   17.7901 H   0  0  0  0  0  0
  -27.6525  -14.2815   19.5304 H   0  0  0  0  0  0
  -28.7238  -12.1308   21.4174 H   0  0  0  0  0  0
  -28.4449  -13.8022   21.8329 H   0  0  0  0  0  0
  -25.2767   -9.5630   22.4836 H   0  0  0  0  0  0
  -23.9965   -7.4613   22.7477 H   0  0  0  0  0  0
  -21.0834   -8.8830   19.8976 H   0  0  0  0  0  0
  -22.3739  -10.9713   19.6196 H   0  0  0  0  0  0
  -21.2063   -7.6164   23.9750 H   0  0  0  0  0  0
  -21.1461   -6.0522   25.9103 H   0  0  0  0  0  0
  -22.0598   -2.7611   23.2816 H   0  0  0  0  0  0
  -22.3924  -11.9928   22.4922 H   0  0  0  0  0  0
  -21.1040  -13.1338   22.2596 H   0  0  0  0  0  0
  -24.6284  -15.8388   20.5272 H   0  0  0  0  0  0
  -26.2286  -15.6486   20.0378 H   0  0  0  0  0  0
  -26.7231  -32.5435   23.1087 H   0  0  0  0  0  0
  -25.0081  -33.9667   25.0404 H   0  0  0  0  0  0
  -22.7275  -31.3017   21.3767 H   0  0  0  0  0  0
  -23.3776  -35.9589   23.3281 H   0  0  0  0  0  0
  -24.3574  -36.8909   22.2060 H   0  0  0  0  0  0
  -23.7242  -37.6481   23.6668 H   0  0  0  0  0  0
  -26.1234  -31.5255   20.6041 H   0  0  0  0  0  0
  -26.8499  -30.8147   22.0130 H   0  0  0  0  0  0
  -28.1328  -28.9512   21.1933 H   0  0  0  0  0  0
  -26.0153  -25.8820   19.0300 H   0  0  0  0  0  0
  -23.9899  -27.2712   19.0232 H   0  0  0  0  0  0
  -23.7777  -30.5562   19.3865 H   0  0  0  0  0  0
  -22.7705  -29.2226   19.8674 H   0  0  0  0  0  0
  -25.1318  -36.1904   25.0843 H   0  0  0  0  0  0
  -20.9918  -28.3089   24.1226 H   0  0  0  0  0  0
  -21.1629  -26.2934   23.2291 H   0  0  0  0  0  0
  -21.6093  -26.9895   21.7560 H   0  0  0  0  0  0
  -19.3830  -26.0162   22.7103 H   0  0  0  0  0  0
  -19.5998  -27.3515   21.1383 H   0  0  0  0  0  0
  -17.5707  -27.0249   21.0896 H   0  0  0  0  0  0
  -17.5030  -26.0953   22.5292 H   0  0  0  0  0  0
  -19.8049  -30.7007   24.2440 H   0  0  0  0  0  0
  -17.5241  -31.6157   24.5541 H   0  0  0  0  0  0
  -15.5401  -30.3162   23.7947 H   0  0  0  0  0  0
  -15.8522  -28.1225   22.6923 H   0  0  0  0  0  0
  -24.5917  -30.7018   25.7723 H   0  0  0  0  0  0
  -24.8909  -32.2822   26.4878 H   0  0  0  0  0  0
  -25.8063  -30.8817   27.0156 H   0  0  0  0  0  0
  -26.2896  -29.6738   24.1225 H   0  0  0  0  0  0
  -27.3993  -29.7251   25.4741 H   0  0  0  0  0  0
  -27.8804  -30.4253   23.9447 H   0  0  0  0  0  0
  -27.2715  -33.3608   26.2050 H   0  0  0  0  0  0
  -28.3902  -32.6841   25.0316 H   0  0  0  0  0  0
  -28.0716  -31.8395   26.5380 H   0  0  0  0  0  0
  -28.2623  -38.0100   24.7557 H   0  0  0  0  0  0
  -28.1094  -36.2663   24.6253 H   0  0  0  0  0  0
  -27.2302  -37.1391   25.8858 H   0  0  0  0  0  0
  -20.9355  -29.9431   21.7340 H   0  0  0  0  0  0
  -26.0168  -38.2854   24.1373 H   0  0  0  0  0  0
  -31.7322  -16.9606   22.0867 H   0  0  0  0  0  0
  -30.8585  -17.2465   23.6064 H   0  0  0  0  0  0
  -32.3247  -18.1466   23.1635 H   0  0  0  0  0  0
  -29.9645  -20.0598   24.8788 H   0  0  0  0  0  0
  -31.1267  -21.2984   24.4146 H   0  0  0  0  0  0
  -31.6352  -19.6412   24.5607 H   0  0  0  0  0  0
  -30.9754  -17.2310   19.4880 H   0  0  0  0  0  0
  -29.2686  -17.2441   19.3066 H   0  0  0  0  0  0
  -29.4891  -22.4576   19.1214 H   0  0  0  0  0  0
  -30.3131  -23.1260   20.4523 H   0  0  0  0  0  0
  -27.5668  -23.1378   21.2197 H   0  0  0  0  0  0
  -27.5306  -23.6290   19.5818 H   0  0  0  0  0  0
  -29.2663  -25.2102   21.5603 H   0  0  0  0  0  0
  -27.5591  -25.3179   21.6935 H   0  0  0  0  0  0
  -28.9711  -15.6830   21.1155 H   0  0  0  0  0  0
  1 25  1  0  0  0
  1 30  2  0  0  0
  1 83  1  0  0  0
  2  3  1  0  0  0
  2 25  1  0  0  0
  2 85  1  0  0  0
  2 86  1  0  0  0
  3  4  1  0  0  0
  3 87  1  0  0  0
  3 88  1  0  0  0
  4  5  1  0  0  0
  4 89  1  0  0  0
  4 90  1  0  0  0
  5  6  1  0  0  0
  5 26  1  0  0  0
  5 91  1  0  0  0
  6 25  1  0  0  0
  6 92  1  0  0  0
  6 93  1  0  0  0
  7  8  2  0  0  0
  7 26  1  0  0  0
  7 29  1  0  0  0
  8  9  1  0  0  0
  8 22  1  0  0  0
  9 10  1  0  0  0
  9 27  2  0  0  0
 10 11  2  0  0  0
 10 15  1  0  0  0
 11 12  1  0  0  0
 11 94  1  0  0  0
 12 13  2  0  0  0
 12 95  1  0  0  0
 13 14  1  0  0  0
 13 31  1  0  0  0
 14 15  2  0  0  0
 14 96  1  0  0  0
 15 97  1  0  0  0
 16 17  2  0  0  0
 16 21  1  0  0  0
 16 31  1  0  0  0
 17 18  1  0  0  0
 17 98  1  0  0  0
 18 19  2  0  0  0
 18 99  1  0  0  0
 19 20  1  0  0  0
 19 24  1  0  0  0
 20 21  2  0  0  0
 20100  1  0  0  0
 21 23  1  0  0  0
 22 28  1  0  0  0
 22 32  2  0  0  0
 26 27  1  0  0  0
 28101  1  0  0  0
 28102  1  0  0  0
 29103  1  0  0  0
 29104  1  0  0  0
 33 34  1  0  0  0
 33 66  1  0  0  0
 33 70  2  0  0  0
 34 36  1  0  0  0
 34 59  1  0  0  0
 34105  1  0  0  0
 35 44  2  0  0  0
 35 45  1  0  0  0
 35 68  1  0  0  0
 36 56  1  0  0  0
 36106  1  0  0  0
 37 39  1  0  0  0
 37 47  1  0  0  0
 37 66  1  0  0  0
 37107  1  0  0  0
 38 43  2  0  0  0
 38 46  1  0  0  0
 38 47  1  0  0  0
 39 64  1  0  0  0
 39 67  2  0  0  0
 40 52  1  0  0  0
 40 53  2  0  0  0
 40 58  1  0  0  0
 41108  1  0  0  0
 41109  1  0  0  0
 41110  1  0  0  0
 41 48  1  0  0  0
 42 43  1  0  0  0
 42 66  1  0  0  0
 42111  1  0  0  0
 42112  1  0  0  0
 43 44  1  0  0  0
 44113  1  0  0  0
 45 46  2  0  0  0
 45114  1  0  0  0
 46115  1  0  0  0
 47116  1  0  0  0
 47117  1  0  0  0
 48 56  1  0  0  0
 48 65  1  0  0  0
 48118  1  0  0  0
 49 50  1  0  0  0
 49 53  1  0  0  0
 49 64  1  0  0  0
 49119  1  0  0  0
 50 51  1  0  0  0
 50120  1  0  0  0
 50121  1  0  0  0
 51 52  1  0  0  0
 51122  1  0  0  0
 51123  1  0  0  0
 52124  1  0  0  0
 52125  1  0  0  0
 53 54  1  0  0  0
 54 55  2  0  0  0
 54126  1  0  0  0
 55 57  1  0  0  0
 55127  1  0  0  0
 56 69  2  0  0  0
 57 58  2  0  0  0
 57128  1  0  0  0
 58129  1  0  0  0
 59 60  1  0  0  0
 59 61  1  0  0  0
 59 62  1  0  0  0
 60130  1  0  0  0
 60131  1  0  0  0
 60132  1  0  0  0
 61133  1  0  0  0
 61134  1  0  0  0
 61135  1  0  0  0
 62136  1  0  0  0
 62137  1  0  0  0
 62138  1  0  0  0
 63 65  1  0  0  0
 63139  1  0  0  0
 63140  1  0  0  0
 63141  1  0  0  0
 64142  1  0  0  0
 65143  1  0  0  0
 68 81  1  0  0  0
 71 72  2  0  0  0
 71 73  1  0  0  0
 71 78  1  0  0  0
 72 74  1  0  0  0
 72 76  1  0  0  0
 73 75  2  0  0  0
 73 84  1  0  0  0
 74 77  1  0  0  0
 74 82  2  0  0  0
 75 79  1  0  0  0
 75 82  1  0  0  0
 76144  1  0  0  0
 76145  1  0  0  0
 76146  1  0  0  0
 77147  1  0  0  0
 77148  1  0  0  0
 77149  1  0  0  0
 78 83  1  0  0  0
 78150  1  0  0  0
 78151  1  0  0  0
 79 80  1  0  0  0
 79152  1  0  0  0
 79153  1  0  0  0
 80 81  1  0  0  0
 80154  1  0  0  0
 80155  1  0  0  0
 81156  1  0  0  0
 81157  1  0  0  0
 83158  1  0  0  0
M  ISO  4   1 100  68 101  81 101  83 100
M  END
> <chiral flag>
0

> <version>
0

> <s_m_source_file>
/data/baiqing/PycharmProjects/Reinvent-master-3.2/result/LINK_invent/BTK/process_docking_weight1_custom_sum_contain_oxygen_bond_distance_aromatic_linkinvent_7_9_3/rearranged_h_0026.sdf

> <i_m_source_file_index>
72

> <r_mmod_Potential_Energy-OPLS-2005>
294.800964355469

> <r_mmod_Stretch_Energy-OPLS-2005>
127.13729095459

> <r_mmod_Bend_Energy-OPLS-2005>
433.149627685547

> <r_mmod_Torsional_Energy-OPLS-2005>
268.909210205078

> <r_mmod_Improper_Torsional_Energy-OPLS-2005>
9.12135791778564

> <r_mmod_Van_der_Waal_Energy-OPLS-2005>
163.261306762695

> <r_mmod_Electrostatic_Energy-OPLS-2005>
-576.399475097656

> <r_mmod_Solvation_Energy-OPLS-2005>
-215.984588623047

> <b_mmod_Minimization_Converged-OPLS-2005>
0

> <r_mmod_RMS_Derivative-OPLS-2005>
5.87392807006836

$$$$
72
                    3D
 Structure written by MMmdl.
177185  0  0  1  0            999 V2000
  -30.6887  -14.4733   20.5595 C   0  0  0  0  0  0
  -30.4218  -12.3028   19.4202 C   0  0  0  0  0  0
  -29.4957  -12.5060   18.2050 C   0  0  0  0  0  0
  -28.0157  -12.3661   18.6149 C   0  0  0  0  0  0
  -27.6614  -13.2032   19.8743 C   0  0  2  0  0  0
  -28.7035  -12.9812   20.9926 C   0  0  0  0  0  0
  -25.2570  -13.8159   20.5610 C   0  0  0  0  0  0
  -24.1813  -13.0436   20.9147 C   0  0  0  0  0  0
  -24.6365  -11.6907   20.8720 C   0  0  0  0  0  0
  -23.9030  -10.4298   21.0417 C   0  0  0  0  0  0
  -24.3605   -9.4212   21.9183 C   0  0  0  0  0  0
  -23.6301   -8.2241   22.0757 C   0  0  0  0  0  0
  -22.4282   -8.0274   21.3544 C   0  0  0  0  0  0
  -21.9902   -9.0242   20.4644 C   0  0  0  0  0  0
  -22.7212  -10.2125   20.3066 C   0  0  0  0  0  0
  -21.6854   -6.0737   22.5278 C   0  0  0  0  0  0
  -21.4014   -6.5649   23.8207 C   0  0  0  0  0  0
  -21.3666   -5.6796   24.9167 C   0  0  0  0  0  0
  -21.6042   -4.3063   24.7208 C   0  0  0  0  0  0
  -21.8823   -3.8149   23.4336 C   0  0  0  0  0  0
  -21.9198   -4.6967   22.3388 C   0  0  0  0  0  0
  -22.7850  -13.5258   21.1835 C   0  0  0  0  0  0
  -22.1669   -4.2159   21.0966 F   0  0  0  0  0  0
  -21.5614   -3.4545   25.7724 F   0  0  0  0  0  0
  -30.0329  -13.2880   20.4389 N   0  0  0  0  0  0
  -26.3007  -12.9319   20.3352 N   0  0  0  0  0  0
  -25.9288  -11.6487   20.5759 N   0  0  0  0  0  0
  -22.0498  -12.8257   22.0413 N   0  0  0  0  0  0
  -25.4278  -15.1855   20.3933 N   0  0  0  0  0  0
  -31.8239  -14.6627   20.1127 O   0  0  0  0  0  0
  -21.6636   -6.8881   21.4241 O   0  0  0  0  0  0
  -22.3521  -14.5571   20.6719 O   0  0  0  0  0  0
  -24.6182  -31.8667   23.2081 C   0  0  0  0  0  0
  -25.9086  -32.4818   23.8349 C   0  0  1  0  0  0
  -27.2308  -27.4234   20.0990 C   0  0  0  0  0  0
  -25.5944  -33.8615   24.2309 N   0  0  0  0  0  0
  -23.4018  -30.4928   21.5518 C   0  0  2  0  0  0
  -24.8436  -28.9583   20.1190 C   0  0  0  0  0  0
  -22.7431  -29.4665   22.5009 C   0  0  0  0  0  0
  -18.0277  -28.1402   22.8432 C   0  0  0  0  0  0
  -24.1489  -36.7348   23.2642 C   0  0  0  0  0  0
  -25.9315  -30.8328   21.3547 C   0  0  0  0  0  0
  -26.0080  -29.4649   20.7101 C   0  0  0  0  0  0
  -27.2036  -28.7093   20.6922 C   0  0  0  0  0  0
  -26.0409  -26.9357   19.5127 C   0  0  0  0  0  0
  -24.8570  -27.6920   19.5139 C   0  0  0  0  0  0
  -23.6107  -29.8317   20.1644 C   0  0  0  0  0  0
  -25.4104  -36.3125   24.0343 C   0  0  1  0  0  0
  -20.5865  -28.3649   23.1324 C   0  0  2  0  0  0
  -20.6777  -26.9381   22.5427 C   0  0  0  0  0  0
  -19.5777  -26.6334   21.5207 C   0  0  0  0  0  0
  -18.1934  -26.7945   22.1578 C   0  0  0  0  0  0
  -19.1529  -28.8832   23.2883 C   0  0  0  0  0  0
  -18.9453  -30.1406   23.8957 C   0  0  0  0  0  0
  -17.6461  -30.6551   24.0614 C   0  0  0  0  0  0
  -25.9040  -34.9490   23.5124 C   0  0  0  0  0  0
  -16.5340  -29.9086   23.6340 C   0  0  0  0  0  0
  -16.7261  -28.6532   23.0298 C   0  0  0  0  0  0
  -26.4474  -31.6587   25.0682 C   0  0  0  0  0  0
  -25.3747  -31.3690   26.1422 C   0  0  0  0  0  0
  -27.0264  -30.3029   24.6027 C   0  0  0  0  0  0
  -27.6059  -32.4276   25.7462 C   0  0  0  0  0  0
  -27.5580  -37.1812   24.8456 C   0  0  0  0  0  0
  -21.4150  -29.3042   22.3778 N   0  0  0  0  0  0
  -26.4293  -37.3809   23.9411 N   0  0  0  0  0  0
  -24.6698  -31.0785   22.0966 N   0  0  0  0  0  0
  -23.4224  -28.8248   23.3062 O   0  0  0  0  0  0
  -28.4088  -26.6962   20.0852 O   0  0  0  0  0  0
  -26.5597  -34.8931   22.4678 O   0  0  0  0  0  0
  -23.5371  -32.1399   23.7498 O   0  0  0  0  0  0
  -27.2760  -20.0011   21.4319 C   0  0  0  0  0  0
  -29.4462  -19.2248   20.6588 C   0  0  0  0  0  0
  -28.4790  -20.2583   20.7508 C   0  0  0  0  0  0
  -27.0425  -18.7515   22.0348 C   0  0  0  0  0  0
  -29.2355  -17.9507   21.2577 C   0  0  0  0  0  0
  -28.0261  -17.7343   21.9783 C   0  0  0  0  0  0
  -25.7238  -18.5211   22.7545 C   0  0  0  0  0  0
  -24.6704  -23.4191   18.5982 C   0  0  0  0  0  0
  -27.3553  -20.6601   18.1553 C   0  0  0  0  0  0
  -29.6741  -24.4816   18.1596 C   0  0  0  0  0  0
  -26.9893  -23.3593   16.9700 C   0  0  0  0  0  0
  -28.6985  -21.6517   20.1387 C   0  0  0  0  0  0
  -30.3628  -16.8993   21.1523 C   0  0  0  0  0  0
  -26.0191  -23.2481   19.3287 C   0  0  0  0  0  0
  -28.3300  -25.2538   20.1528 C   0  0  0  0  0  0
  -28.1313  -21.8947   18.6979 C   0  0  2  0  0  0
  -28.2454  -24.5819   18.7381 C   0  0  2  0  0  0
  -27.3551  -23.2722   18.4859 C   0  0  1  0  0  0
  -29.9620  -15.4848   21.0648 N   0  0  0  0  0  0
  -27.7253  -16.2636   22.8486 Cl  0  0  0  0  0  0
  -31.4675  -12.3993   19.1214 H   0  0  0  0  0  0
  -30.3158  -11.2915   19.8150 H   0  0  0  0  0  0
  -29.7378  -11.7829   17.4251 H   0  0  0  0  0  0
  -29.6671  -13.4931   17.7717 H   0  0  0  0  0  0
  -27.8206  -11.3097   18.8062 H   0  0  0  0  0  0
  -27.3703  -12.6463   17.7803 H   0  0  0  0  0  0
  -27.7074  -14.2508   19.5787 H   0  0  0  0  0  0
  -28.6766  -11.9435   21.3273 H   0  0  0  0  0  0
  -28.4683  -13.5765   21.8762 H   0  0  0  0  0  0
  -25.2758   -9.5694   22.4746 H   0  0  0  0  0  0
  -24.0006   -7.4648   22.7499 H   0  0  0  0  0  0
  -21.0825   -8.8773   19.8964 H   0  0  0  0  0  0
  -22.3682  -10.9675   19.6185 H   0  0  0  0  0  0
  -21.2008   -7.6158   23.9722 H   0  0  0  0  0  0
  -21.1493   -6.0516   25.9072 H   0  0  0  0  0  0
  -22.0599   -2.7617   23.2826 H   0  0  0  0  0  0
  -22.4108  -11.9902   22.4780 H   0  0  0  0  0  0
  -21.1132  -13.1335   22.2602 H   0  0  0  0  0  0
  -24.6705  -15.8448   20.5275 H   0  0  0  0  0  0
  -26.2926  -15.6278   20.1102 H   0  0  0  0  0  0
  -26.7184  -32.5475   23.1112 H   0  0  0  0  0  0
  -25.0050  -33.9738   25.0426 H   0  0  0  0  0  0
  -22.6838  -31.3045   21.4140 H   0  0  0  0  0  0
  -23.3747  -35.9694   23.3323 H   0  0  0  0  0  0
  -24.3586  -36.8932   22.2054 H   0  0  0  0  0  0
  -23.7227  -37.6562   23.6623 H   0  0  0  0  0  0
  -26.0279  -31.5928   20.5777 H   0  0  0  0  0  0
  -26.8302  -30.8956   21.9580 H   0  0  0  0  0  0
  -28.1035  -29.1067   21.1417 H   0  0  0  0  0  0
  -26.0061  -25.9740   19.0335 H   0  0  0  0  0  0
  -23.9701  -27.2943   19.0363 H   0  0  0  0  0  0
  -23.7249  -30.6091   19.4076 H   0  0  0  0  0  0
  -22.7342  -29.2565   19.8642 H   0  0  0  0  0  0
  -25.1272  -36.2006   25.0843 H   0  0  0  0  0  0
  -20.9897  -28.3242   24.1482 H   0  0  0  0  0  0
  -20.5631  -26.2246   23.3600 H   0  0  0  0  0  0
  -21.6643  -26.7408   22.1202 H   0  0  0  0  0  0
  -19.6901  -25.6209   21.1322 H   0  0  0  0  0  0
  -19.6797  -27.3055   20.6687 H   0  0  0  0  0  0
  -17.4183  -26.6678   21.3997 H   0  0  0  0  0  0
  -18.0319  -26.0116   22.9003 H   0  0  0  0  0  0
  -19.7936  -30.7160   24.2419 H   0  0  0  0  0  0
  -17.5056  -31.6197   24.5271 H   0  0  0  0  0  0
  -15.5355  -30.2989   23.7722 H   0  0  0  0  0  0
  -15.8666  -28.0886   22.6948 H   0  0  0  0  0  0
  -24.5958  -30.6974   25.7781 H   0  0  0  0  0  0
  -24.8884  -32.2825   26.4853 H   0  0  0  0  0  0
  -25.8129  -30.8892   27.0175 H   0  0  0  0  0  0
  -26.2764  -29.6813   24.1096 H   0  0  0  0  0  0
  -27.4049  -29.7227   25.4450 H   0  0  0  0  0  0
  -27.8616  -30.4353   23.9143 H   0  0  0  0  0  0
  -27.2705  -33.3572   26.2074 H   0  0  0  0  0  0
  -28.3886  -32.6803   25.0306 H   0  0  0  0  0  0
  -28.0693  -31.8331   26.5333 H   0  0  0  0  0  0
  -28.2594  -38.0112   24.7512 H   0  0  0  0  0  0
  -28.1055  -36.2623   24.6267 H   0  0  0  0  0  0
  -27.2297  -37.1512   25.8860 H   0  0  0  0  0  0
  -20.9289  -29.8756   21.7007 H   0  0  0  0  0  0
  -26.0195  -38.2902   24.1397 H   0  0  0  0  0  0
  -26.5236  -20.7741   21.5018 H   0  0  0  0  0  0
  -30.3716  -19.4170   20.1335 H   0  0  0  0  0  0
  -25.0444  -19.3669   22.6325 H   0  0  0  0  0  0
  -25.8948  -18.3759   23.8217 H   0  0  0  0  0  0
  -25.2236  -17.6346   22.3588 H   0  0  0  0  0  0
  -23.8609  -23.4742   19.3265 H   0  0  0  0  0  0
  -24.4461  -22.5679   17.9532 H   0  0  0  0  0  0
  -24.6315  -24.3349   18.0082 H   0  0  0  0  0  0
  -27.9322  -19.7426   18.2625 H   0  0  0  0  0  0
  -27.1558  -20.7275   17.0886 H   0  0  0  0  0  0
  -26.4008  -20.5087   18.6599 H   0  0  0  0  0  0
  -30.1940  -25.4394   18.2078 H   0  0  0  0  0  0
  -29.6739  -24.1809   17.1135 H   0  0  0  0  0  0
  -30.2858  -23.7720   18.7150 H   0  0  0  0  0  0
  -26.2650  -22.6122   16.6569 H   0  0  0  0  0  0
  -27.8553  -23.2250   16.3228 H   0  0  0  0  0  0
  -26.5430  -24.3209   16.7110 H   0  0  0  0  0  0
  -29.7670  -21.8694   20.1473 H   0  0  0  0  0  0
  -28.2648  -22.3777   20.8270 H   0  0  0  0  0  0
  -31.0161  -17.0179   22.0175 H   0  0  0  0  0  0
  -30.9686  -17.1433   20.2793 H   0  0  0  0  0  0
  -25.9526  -22.3136   19.8813 H   0  0  0  0  0  0
  -26.0058  -23.9871   20.1165 H   0  0  0  0  0  0
  -27.5453  -24.9998   20.8567 H   0  0  0  0  0  0
  -29.2311  -24.8949   20.6520 H   0  0  0  0  0  0
  -29.0126  -21.9128   18.0542 H   0  0  0  0  0  0
  -27.7973  -25.3576   18.1214 H   0  0  0  0  0  0
  -29.0426  -15.2584   21.4164 H   0  0  0  0  0  0
  1 25  1  0  0  0
  1 30  2  0  0  0
  1 89  1  0  0  0
  2  3  1  0  0  0
  2 25  1  0  0  0
  2 91  1  0  0  0
  2 92  1  0  0  0
  3  4  1  0  0  0
  3 93  1  0  0  0
  3 94  1  0  0  0
  4  5  1  0  0  0
  4 95  1  0  0  0
  4 96  1  0  0  0
  5  6  1  0  0  0
  5 26  1  0  0  0
  5 97  1  0  0  0
  6 25  1  0  0  0
  6 98  1  0  0  0
  6 99  1  0  0  0
  7  8  2  0  0  0
  7 26  1  0  0  0
  7 29  1  0  0  0
  8  9  1  0  0  0
  8 22  1  0  0  0
  9 10  1  0  0  0
  9 27  2  0  0  0
 10 11  2  0  0  0
 10 15  1  0  0  0
 11 12  1  0  0  0
 11100  1  0  0  0
 12 13  2  0  0  0
 12101  1  0  0  0
 13 14  1  0  0  0
 13 31  1  0  0  0
 14 15  2  0  0  0
 14102  1  0  0  0
 15103  1  0  0  0
 16 17  2  0  0  0
 16 21  1  0  0  0
 16 31  1  0  0  0
 17 18  1  0  0  0
 17104  1  0  0  0
 18 19  2  0  0  0
 18105  1  0  0  0
 19 20  1  0  0  0
 19 24  1  0  0  0
 20 21  2  0  0  0
 20106  1  0  0  0
 21 23  1  0  0  0
 22 28  1  0  0  0
 22 32  2  0  0  0
 26 27  1  0  0  0
 28107  1  0  0  0
 28108  1  0  0  0
 29109  1  0  0  0
 29110  1  0  0  0
 33 34  1  0  0  0
 33 66  1  0  0  0
 33 70  2  0  0  0
 34 36  1  0  0  0
 34 59  1  0  0  0
 34111  1  0  0  0
 35 44  2  0  0  0
 35 45  1  0  0  0
 35 68  1  0  0  0
 36 56  1  0  0  0
 36112  1  0  0  0
 37 39  1  0  0  0
 37 47  1  0  0  0
 37 66  1  0  0  0
 37113  1  0  0  0
 38 43  2  0  0  0
 38 46  1  0  0  0
 38 47  1  0  0  0
 39 64  1  0  0  0
 39 67  2  0  0  0
 40 52  1  0  0  0
 40 53  2  0  0  0
 40 58  1  0  0  0
 41114  1  0  0  0
 41115  1  0  0  0
 41116  1  0  0  0
 41 48  1  0  0  0
 42 43  1  0  0  0
 42 66  1  0  0  0
 42117  1  0  0  0
 42118  1  0  0  0
 43 44  1  0  0  0
 44119  1  0  0  0
 45 46  2  0  0  0
 45120  1  0  0  0
 46121  1  0  0  0
 47122  1  0  0  0
 47123  1  0  0  0
 48 56  1  0  0  0
 48 65  1  0  0  0
 48124  1  0  0  0
 49 50  1  0  0  0
 49 53  1  0  0  0
 49 64  1  0  0  0
 49125  1  0  0  0
 50 51  1  0  0  0
 50126  1  0  0  0
 50127  1  0  0  0
 51 52  1  0  0  0
 51128  1  0  0  0
 51129  1  0  0  0
 52130  1  0  0  0
 52131  1  0  0  0
 53 54  1  0  0  0
 54 55  2  0  0  0
 54132  1  0  0  0
 55 57  1  0  0  0
 55133  1  0  0  0
 56 69  2  0  0  0
 57 58  2  0  0  0
 57134  1  0  0  0
 58135  1  0  0  0
 59 60  1  0  0  0
 59 61  1  0  0  0
 59 62  1  0  0  0
 60136  1  0  0  0
 60137  1  0  0  0
 60138  1  0  0  0
 61139  1  0  0  0
 61140  1  0  0  0
 61141  1  0  0  0
 62142  1  0  0  0
 62143  1  0  0  0
 62144  1  0  0  0
 63 65  1  0  0  0
 63145  1  0  0  0
 63146  1  0  0  0
 63147  1  0  0  0
 64148  1  0  0  0
 65149  1  0  0  0
 68 85  1  0  0  0
 71 73  2  0  0  0
 71 74  1  0  0  0
 71150  1  0  0  0
 72 73  1  0  0  0
 72 75  2  0  0  0
 72151  1  0  0  0
 73 82  1  0  0  0
 74 76  2  0  0  0
 74 77  1  0  0  0
 75 76  1  0  0  0
 75 83  1  0  0  0
 76 90  1  0  0  0
 77152  1  0  0  0
 77153  1  0  0  0
 77154  1  0  0  0
 78 84  1  0  0  0
 78155  1  0  0  0
 78156  1  0  0  0
 78157  1  0  0  0
 79158  1  0  0  0
 79159  1  0  0  0
 79160  1  0  0  0
 79 86  1  0  0  0
 80161  1  0  0  0
 80162  1  0  0  0
 80163  1  0  0  0
 80 87  1  0  0  0
 81164  1  0  0  0
 81165  1  0  0  0
 81166  1  0  0  0
 81 88  1  0  0  0
 82 86  1  0  0  0
 82167  1  0  0  0
 82168  1  0  0  0
 83 89  1  0  0  0
 83169  1  0  0  0
 83170  1  0  0  0
 84 88  1  0  0  0
 84171  1  0  0  0
 84172  1  0  0  0
 85 87  1  0  0  0
 85173  1  0  0  0
 85174  1  0  0  0
 86 88  1  0  0  0
 86175  1  0  0  0
 87 88  1  0  0  0
 87176  1  0  0  0
 89177  1  0  0  0
M  ISO  4   1 100  68 101  85 101  89 100
M  END
> <chiral flag>
0

> <version>
0

> <s_m_source_file>
/data/baiqing/PycharmProjects/Reinvent-master-3.2/result/LINK_invent/BTK/process_docking_weight1_custom_sum_contain_oxygen_bond_distance_aromatic_linkinvent_7_9_3/rearranged_h_0026.sdf

> <i_m_source_file_index>
73

> <r_mmod_Potential_Energy-OPLS-2005>
49.5424041748047

> <r_mmod_Stretch_Energy-OPLS-2005>
59.3584480285645

> <r_mmod_Bend_Energy-OPLS-2005>
140.825790405273

> <r_mmod_Torsional_Energy-OPLS-2005>
255.369247436523

> <r_mmod_Improper_Torsional_Energy-OPLS-2005>
3.39600920677185

> <r_mmod_Van_der_Waal_Energy-OPLS-2005>
177.478408813477

> <r_mmod_Electrostatic_Energy-OPLS-2005>
-423.907623291016

> <r_mmod_Solvation_Energy-OPLS-2005>
-176.250091552734

> <b_mmod_Minimization_Converged-OPLS-2005>
0

> <r_mmod_RMS_Derivative-OPLS-2005>
4.16938161849976

$$$$
73
                    3D
 Structure written by MMmdl.
153161  0  0  1  0            999 V2000
  -30.7831  -14.5465   20.4740 C   0  0  0  0  0  0
  -30.4128  -12.3251   19.4450 C   0  0  0  0  0  0
  -29.5077  -12.4817   18.2107 C   0  0  0  0  0  0
  -28.0272  -12.3566   18.6270 C   0  0  0  0  0  0
  -27.6630  -13.2328   19.8625 C   0  0  2  0  0  0
  -28.7228  -13.1238   20.9867 C   0  0  0  0  0  0
  -25.2635  -13.8235   20.5658 C   0  0  0  0  0  0
  -24.1923  -13.0436   20.9224 C   0  0  0  0  0  0
  -24.6546  -11.6939   20.8793 C   0  0  0  0  0  0
  -23.9197  -10.4297   21.0464 C   0  0  0  0  0  0
  -24.3707   -9.4203   21.9252 C   0  0  0  0  0  0
  -23.6358   -8.2241   22.0783 C   0  0  0  0  0  0
  -22.4329   -8.0319   21.3605 C   0  0  0  0  0  0
  -22.0027   -9.0295   20.4686 C   0  0  0  0  0  0
  -22.7371  -10.2167   20.3110 C   0  0  0  0  0  0
  -21.6845   -6.0798   22.5319 C   0  0  0  0  0  0
  -21.4008   -6.5679   23.8269 C   0  0  0  0  0  0
  -21.3653   -5.6820   24.9227 C   0  0  0  0  0  0
  -21.6020   -4.3089   24.7251 C   0  0  0  0  0  0
  -21.8805   -3.8209   23.4365 C   0  0  0  0  0  0
  -21.9180   -4.7038   22.3436 C   0  0  0  0  0  0
  -22.7954  -13.5252   21.1836 C   0  0  0  0  0  0
  -22.1644   -4.2227   21.1022 F   0  0  0  0  0  0
  -21.5618   -3.4551   25.7755 F   0  0  0  0  0  0
  -30.0390  -13.3995   20.3882 N   0  0  0  0  0  0
  -26.3090  -12.9439   20.3388 N   0  0  0  0  0  0
  -25.9496  -11.6566   20.5880 N   0  0  0  0  0  0
  -22.0548  -12.8247   22.0366 N   0  0  0  0  0  0
  -25.4191  -15.1951   20.4031 N   0  0  0  0  0  0
  -31.9635  -14.5553   20.1330 O   0  0  0  0  0  0
  -21.6659   -6.8948   21.4286 O   0  0  0  0  0  0
  -22.3639  -14.5540   20.6693 O   0  0  0  0  0  0
  -24.6312  -31.8581   23.2003 C   0  0  0  0  0  0
  -25.9149  -32.4733   23.8356 C   0  0  1  0  0  0
  -27.2125  -27.3119   20.1006 C   0  0  0  0  0  0
  -25.5962  -33.8535   24.2256 N   0  0  0  0  0  0
  -23.4256  -30.4903   21.5406 C   0  0  2  0  0  0
  -24.8665  -28.9575   20.1008 C   0  0  0  0  0  0
  -22.7552  -29.4614   22.4865 C   0  0  0  0  0  0
  -18.0316  -28.1430   22.8510 C   0  0  0  0  0  0
  -24.1511  -36.7266   23.2648 C   0  0  0  0  0  0
  -25.9706  -30.7889   21.3784 C   0  0  0  0  0  0
  -26.0374  -29.4182   20.7150 C   0  0  0  0  0  0
  -27.2110  -28.6022   20.7109 C   0  0  0  0  0  0
  -26.0130  -26.9215   19.4515 C   0  0  0  0  0  0
  -24.8615  -27.7189   19.4503 C   0  0  0  0  0  0
  -23.6428  -29.8431   20.1461 C   0  0  0  0  0  0
  -25.4134  -36.3047   24.0348 C   0  0  1  0  0  0
  -20.5925  -28.3728   23.1299 C   0  0  2  0  0  0
  -20.6812  -26.9471   22.5404 C   0  0  0  0  0  0
  -19.5747  -26.6413   21.5264 C   0  0  0  0  0  0
  -18.1923  -26.7964   22.1676 C   0  0  0  0  0  0
  -19.1579  -28.8912   23.2884 C   0  0  0  0  0  0
  -18.9492  -30.1532   23.8881 C   0  0  0  0  0  0
  -17.6477  -30.6613   24.0627 C   0  0  0  0  0  0
  -25.9075  -34.9430   23.5084 C   0  0  0  0  0  0
  -16.5377  -29.9133   23.6338 C   0  0  0  0  0  0
  -16.7305  -28.6576   23.0306 C   0  0  0  0  0  0
  -26.4484  -31.6538   25.0701 C   0  0  0  0  0  0
  -25.3730  -31.3722   26.1438 C   0  0  0  0  0  0
  -27.0303  -30.2939   24.6189 C   0  0  0  0  0  0
  -27.6022  -32.4313   25.7466 C   0  0  0  0  0  0
  -27.5591  -37.1794   24.8489 C   0  0  0  0  0  0
  -21.4259  -29.3037   22.3687 N   0  0  0  0  0  0
  -26.4275  -37.3768   23.9492 N   0  0  0  0  0  0
  -24.6943  -31.0637   22.0952 N   0  0  0  0  0  0
  -23.4246  -28.8097   23.2918 O   0  0  0  0  0  0
  -28.3070  -26.4305   20.1450 O   0  0  0  0  0  0
  -26.5646  -34.8922   22.4642 O   0  0  0  0  0  0
  -23.5472  -32.1348   23.7328 O   0  0  0  0  0  0
  -28.2181  -19.8659   20.4585 C   0  0  0  0  0  0
  -30.3742  -20.8724   20.1096 C   0  0  0  0  0  0
  -28.9821  -21.0432   20.2430 C   0  0  0  0  0  0
  -30.2081  -18.4129   20.5510 C   0  0  0  0  0  0
  -28.8080  -18.5812   20.6181 C   0  0  0  0  0  0
  -30.9723  -19.5898   20.2717 C   0  0  0  0  0  0
  -28.2483  -22.4139   20.1508 C   0  0  0  0  0  0
  -30.9142  -17.0494   20.8529 C   0  0  0  0  0  0
  -28.9889  -23.8099   20.2200 C   0  0  0  0  0  0
  -28.0006  -25.0027   19.9021 C   0  0  0  0  0  0
  -30.1802  -15.7373   20.7492 N   0  0  0  0  0  0
  -28.0146  -17.5115   20.8665 F   0  0  0  0  0  0
  -32.6947  -19.5065   20.1733 Cl  0  0  0  0  0  0
  -31.4617  -12.3428   19.1518 H   0  0  0  0  0  0
  -30.2464  -11.3420   19.8929 H   0  0  0  0  0  0
  -29.7540  -11.7259   17.4624 H   0  0  0  0  0  0
  -29.6907  -13.4485   17.7371 H   0  0  0  0  0  0
  -27.8423  -11.3019   18.8451 H   0  0  0  0  0  0
  -27.3807  -12.6025   17.7836 H   0  0  0  0  0  0
  -27.6761  -14.2704   19.5231 H   0  0  0  0  0  0
  -28.7167  -12.1236   21.4227 H   0  0  0  0  0  0
  -28.5084  -13.8157   21.8053 H   0  0  0  0  0  0
  -25.2857   -9.5653   22.4837 H   0  0  0  0  0  0
  -24.0048   -7.4649   22.7529 H   0  0  0  0  0  0
  -21.0939   -8.8876   19.9010 H   0  0  0  0  0  0
  -22.3880  -10.9731   19.6222 H   0  0  0  0  0  0
  -21.1978   -7.6187   23.9809 H   0  0  0  0  0  0
  -21.1485   -6.0543   25.9130 H   0  0  0  0  0  0
  -22.0577   -2.7651   23.2859 H   0  0  0  0  0  0
  -22.4064  -11.9860   22.4731 H   0  0  0  0  0  0
  -21.1197  -13.1383   22.2550 H   0  0  0  0  0  0
  -24.6395  -15.8338   20.5257 H   0  0  0  0  0  0
  -26.2680  -15.6654   20.1065 H   0  0  0  0  0  0
  -26.7237  -32.5405   23.1156 H   0  0  0  0  0  0
  -25.0176  -33.9706   25.0442 H   0  0  0  0  0  0
  -22.7179  -31.3101   21.4026 H   0  0  0  0  0  0
  -23.3745  -35.9608   23.3293 H   0  0  0  0  0  0
  -24.3606  -36.8857   22.2050 H   0  0  0  0  0  0
  -23.7249  -37.6480   23.6648 H   0  0  0  0  0  0
  -26.1186  -31.5659   20.6239 H   0  0  0  0  0  0
  -26.8436  -30.8185   22.0211 H   0  0  0  0  0  0
  -28.1048  -28.9409   21.2113 H   0  0  0  0  0  0
  -25.9215  -25.9798   18.9306 H   0  0  0  0  0  0
  -23.9804  -27.3733   18.9321 H   0  0  0  0  0  0
  -23.7900  -30.6283   19.4028 H   0  0  0  0  0  0
  -22.7649  -29.2893   19.8103 H   0  0  0  0  0  0
  -25.1283  -36.1876   25.0819 H   0  0  0  0  0  0
  -21.0056  -28.3295   24.1416 H   0  0  0  0  0  0
  -20.5818  -26.2333   23.3594 H   0  0  0  0  0  0
  -21.6663  -26.7511   22.1168 H   0  0  0  0  0  0
  -19.6923  -25.6327   21.1277 H   0  0  0  0  0  0
  -19.6690  -27.3261   20.6825 H   0  0  0  0  0  0
  -17.4232  -26.6760   21.4049 H   0  0  0  0  0  0
  -18.0295  -26.0095   22.9052 H   0  0  0  0  0  0
  -19.7971  -30.7394   24.2153 H   0  0  0  0  0  0
  -17.5038  -31.6257   24.5293 H   0  0  0  0  0  0
  -15.5394  -30.3053   23.7662 H   0  0  0  0  0  0
  -15.8686  -28.0964   22.6914 H   0  0  0  0  0  0
  -24.5969  -30.6947   25.7861 H   0  0  0  0  0  0
  -24.8838  -32.2874   26.4783 H   0  0  0  0  0  0
  -25.8079  -30.9040   27.0265 H   0  0  0  0  0  0
  -26.2828  -29.6714   24.1231 H   0  0  0  0  0  0
  -27.3965  -29.7199   25.4716 H   0  0  0  0  0  0
  -27.8749  -30.4173   23.9403 H   0  0  0  0  0  0
  -27.2588  -33.3670   26.1927 H   0  0  0  0  0  0
  -28.3860  -32.6771   25.0282 H   0  0  0  0  0  0
  -28.0636  -31.8480   26.5470 H   0  0  0  0  0  0
  -28.2573  -38.0111   24.7525 H   0  0  0  0  0  0
  -28.1073  -36.2633   24.6256 H   0  0  0  0  0  0
  -27.2317  -37.1375   25.8880 H   0  0  0  0  0  0
  -20.9440  -29.8863   21.7013 H   0  0  0  0  0  0
  -26.0126  -38.2832   24.1439 H   0  0  0  0  0  0
  -27.1429  -19.9438   20.5275 H   0  0  0  0  0  0
  -31.0028  -21.7257   19.8983 H   0  0  0  0  0  0
  -27.5259  -22.4007   20.9712 H   0  0  0  0  0  0
  -27.6467  -22.3929   19.2421 H   0  0  0  0  0  0
  -31.2983  -17.1181   21.8789 H   0  0  0  0  0  0
  -31.8065  -17.0115   20.2223 H   0  0  0  0  0  0
  -29.8116  -23.8374   19.5098 H   0  0  0  0  0  0
  -29.4340  -23.9210   21.2074 H   0  0  0  0  0  0
  -27.0901  -24.7480   20.4533 H   0  0  0  0  0  0
  -27.7740  -24.9080   18.8390 H   0  0  0  0  0  0
  -29.1805  -15.7583   20.8691 H   0  0  0  0  0  0
  1 25  1  0  0  0
  1 30  2  0  0  0
  1 81  1  0  0  0
  2  3  1  0  0  0
  2 25  1  0  0  0
  2 84  1  0  0  0
  2 85  1  0  0  0
  3  4  1  0  0  0
  3 86  1  0  0  0
  3 87  1  0  0  0
  4  5  1  0  0  0
  4 88  1  0  0  0
  4 89  1  0  0  0
  5  6  1  0  0  0
  5 26  1  0  0  0
  5 90  1  0  0  0
  6 25  1  0  0  0
  6 91  1  0  0  0
  6 92  1  0  0  0
  7  8  2  0  0  0
  7 26  1  0  0  0
  7 29  1  0  0  0
  8  9  1  0  0  0
  8 22  1  0  0  0
  9 10  1  0  0  0
  9 27  2  0  0  0
 10 11  2  0  0  0
 10 15  1  0  0  0
 11 12  1  0  0  0
 11 93  1  0  0  0
 12 13  2  0  0  0
 12 94  1  0  0  0
 13 14  1  0  0  0
 13 31  1  0  0  0
 14 15  2  0  0  0
 14 95  1  0  0  0
 15 96  1  0  0  0
 16 17  2  0  0  0
 16 21  1  0  0  0
 16 31  1  0  0  0
 17 18  1  0  0  0
 17 97  1  0  0  0
 18 19  2  0  0  0
 18 98  1  0  0  0
 19 20  1  0  0  0
 19 24  1  0  0  0
 20 21  2  0  0  0
 20 99  1  0  0  0
 21 23  1  0  0  0
 22 28  1  0  0  0
 22 32  2  0  0  0
 26 27  1  0  0  0
 28100  1  0  0  0
 28101  1  0  0  0
 29102  1  0  0  0
 29103  1  0  0  0
 33 34  1  0  0  0
 33 66  1  0  0  0
 33 70  2  0  0  0
 34 36  1  0  0  0
 34 59  1  0  0  0
 34104  1  0  0  0
 35 44  2  0  0  0
 35 45  1  0  0  0
 35 68  1  0  0  0
 36 56  1  0  0  0
 36105  1  0  0  0
 37 39  1  0  0  0
 37 47  1  0  0  0
 37 66  1  0  0  0
 37106  1  0  0  0
 38 43  2  0  0  0
 38 46  1  0  0  0
 38 47  1  0  0  0
 39 64  1  0  0  0
 39 67  2  0  0  0
 40 52  1  0  0  0
 40 53  2  0  0  0
 40 58  1  0  0  0
 41107  1  0  0  0
 41108  1  0  0  0
 41109  1  0  0  0
 41 48  1  0  0  0
 42 43  1  0  0  0
 42 66  1  0  0  0
 42110  1  0  0  0
 42111  1  0  0  0
 43 44  1  0  0  0
 44112  1  0  0  0
 45 46  2  0  0  0
 45113  1  0  0  0
 46114  1  0  0  0
 47115  1  0  0  0
 47116  1  0  0  0
 48 56  1  0  0  0
 48 65  1  0  0  0
 48117  1  0  0  0
 49 50  1  0  0  0
 49 53  1  0  0  0
 49 64  1  0  0  0
 49118  1  0  0  0
 50 51  1  0  0  0
 50119  1  0  0  0
 50120  1  0  0  0
 51 52  1  0  0  0
 51121  1  0  0  0
 51122  1  0  0  0
 52123  1  0  0  0
 52124  1  0  0  0
 53 54  1  0  0  0
 54 55  2  0  0  0
 54125  1  0  0  0
 55 57  1  0  0  0
 55126  1  0  0  0
 56 69  2  0  0  0
 57 58  2  0  0  0
 57127  1  0  0  0
 58128  1  0  0  0
 59 60  1  0  0  0
 59 61  1  0  0  0
 59 62  1  0  0  0
 60129  1  0  0  0
 60130  1  0  0  0
 60131  1  0  0  0
 61132  1  0  0  0
 61133  1  0  0  0
 61134  1  0  0  0
 62135  1  0  0  0
 62136  1  0  0  0
 62137  1  0  0  0
 63 65  1  0  0  0
 63138  1  0  0  0
 63139  1  0  0  0
 63140  1  0  0  0
 64141  1  0  0  0
 65142  1  0  0  0
 68 80  1  0  0  0
 71 73  2  0  0  0
 71 75  1  0  0  0
 71143  1  0  0  0
 72 73  1  0  0  0
 72 76  2  0  0  0
 72144  1  0  0  0
 73 77  1  0  0  0
 74 75  2  0  0  0
 74 76  1  0  0  0
 74 78  1  0  0  0
 75 82  1  0  0  0
 76 83  1  0  0  0
 77 79  1  0  0  0
 77145  1  0  0  0
 77146  1  0  0  0
 78 81  1  0  0  0
 78147  1  0  0  0
 78148  1  0  0  0
 79 80  1  0  0  0
 79149  1  0  0  0
 79150  1  0  0  0
 80151  1  0  0  0
 80152  1  0  0  0
 81153  1  0  0  0
M  ISO  4   1 100  68 101  80 101  81 100
M  END
> <chiral flag>
0

> <version>
0

> <s_m_source_file>
/data/baiqing/PycharmProjects/Reinvent-master-3.2/result/LINK_invent/BTK/process_docking_weight1_custom_sum_contain_oxygen_bond_distance_aromatic_linkinvent_7_9_3/rearranged_h_0026.sdf

> <i_m_source_file_index>
74

> <r_mmod_Potential_Energy-OPLS-2005>
45.9281730651855

> <r_mmod_Stretch_Energy-OPLS-2005>
69.4663772583008

> <r_mmod_Bend_Energy-OPLS-2005>
147.803756713867

> <r_mmod_Torsional_Energy-OPLS-2005>
197.501342773438

> <r_mmod_Improper_Torsional_Energy-OPLS-2005>
4.08424186706543

> <r_mmod_Van_der_Waal_Energy-OPLS-2005>
155.262344360352

> <r_mmod_Electrostatic_Energy-OPLS-2005>
-381.627807617188

> <r_mmod_Solvation_Energy-OPLS-2005>
-197.426910400391

> <b_mmod_Minimization_Converged-OPLS-2005>
0

> <r_mmod_RMS_Derivative-OPLS-2005>
8.26629447937012

$$$$
74
                    3D
 Structure written by MMmdl.
164172  0  0  1  0            999 V2000
  -30.7199  -14.4629   20.5029 C   0  0  0  0  0  0
  -30.4021  -12.2795   19.4376 C   0  0  0  0  0  0
  -29.4910  -12.4862   18.2111 C   0  0  0  0  0  0
  -28.0107  -12.3594   18.6186 C   0  0  0  0  0  0
  -27.6546  -13.2150   19.8657 C   0  0  2  0  0  0
  -28.6964  -13.0373   20.9958 C   0  0  0  0  0  0
  -25.2553  -13.8191   20.5686 C   0  0  0  0  0  0
  -24.1812  -13.0447   20.9176 C   0  0  0  0  0  0
  -24.6384  -11.6925   20.8729 C   0  0  0  0  0  0
  -23.9058  -10.4304   21.0400 C   0  0  0  0  0  0
  -24.3618   -9.4223   21.9177 C   0  0  0  0  0  0
  -23.6297   -8.2255   22.0745 C   0  0  0  0  0  0
  -22.4280   -8.0283   21.3533 C   0  0  0  0  0  0
  -21.9909   -9.0260   20.4642 C   0  0  0  0  0  0
  -22.7230  -10.2144   20.3048 C   0  0  0  0  0  0
  -21.6856   -6.0737   22.5278 C   0  0  0  0  0  0
  -21.4025   -6.5643   23.8210 C   0  0  0  0  0  0
  -21.3660   -5.6796   24.9175 C   0  0  0  0  0  0
  -21.6036   -4.3055   24.7225 C   0  0  0  0  0  0
  -21.8821   -3.8145   23.4347 C   0  0  0  0  0  0
  -21.9200   -4.6966   22.3403 C   0  0  0  0  0  0
  -22.7840  -13.5244   21.1836 C   0  0  0  0  0  0
  -22.1662   -4.2150   21.0979 F   0  0  0  0  0  0
  -21.5623   -3.4538   25.7739 F   0  0  0  0  0  0
  -30.0290  -13.2958   20.4339 N   0  0  0  0  0  0
  -26.2989  -12.9376   20.3336 N   0  0  0  0  0  0
  -25.9310  -11.6528   20.5755 N   0  0  0  0  0  0
  -22.0480  -12.8248   22.0408 N   0  0  0  0  0  0
  -25.4258  -15.1905   20.4111 N   0  0  0  0  0  0
  -31.8899  -14.5601   20.1274 O   0  0  0  0  0  0
  -21.6641   -6.8880   21.4236 O   0  0  0  0  0  0
  -22.3522  -14.5538   20.6668 O   0  0  0  0  0  0
  -24.6131  -31.8685   23.2099 C   0  0  0  0  0  0
  -25.9032  -32.4824   23.8386 C   0  0  1  0  0  0
  -27.2302  -27.4480   20.1011 C   0  0  0  0  0  0
  -25.5897  -33.8623   24.2320 N   0  0  0  0  0  0
  -23.3993  -30.4915   21.5512 C   0  0  2  0  0  0
  -24.8464  -28.9587   20.1136 C   0  0  0  0  0  0
  -22.7401  -29.4659   22.5005 C   0  0  0  0  0  0
  -18.0268  -28.1368   22.8505 C   0  0  0  0  0  0
  -24.1486  -36.7314   23.2635 C   0  0  0  0  0  0
  -25.9255  -30.8418   21.3574 C   0  0  0  0  0  0
  -26.0057  -29.4762   20.7071 C   0  0  0  0  0  0
  -27.2042  -28.7284   20.6965 C   0  0  0  0  0  0
  -26.0601  -26.9401   19.5012 C   0  0  0  0  0  0
  -24.8683  -27.6900   19.5066 C   0  0  0  0  0  0
  -23.6057  -29.8218   20.1657 C   0  0  0  0  0  0
  -25.4106  -36.3111   24.0336 C   0  0  1  0  0  0
  -20.5858  -28.3650   23.1332 C   0  0  2  0  0  0
  -20.6758  -26.9388   22.5425 C   0  0  0  0  0  0
  -19.5738  -26.6381   21.5216 C   0  0  0  0  0  0
  -18.1917  -26.7918   22.1626 C   0  0  0  0  0  0
  -19.1518  -28.8826   23.2914 C   0  0  0  0  0  0
  -18.9445  -30.1434   23.8919 C   0  0  0  0  0  0
  -17.6447  -30.6580   24.0562 C   0  0  0  0  0  0
  -25.9032  -34.9478   23.5121 C   0  0  0  0  0  0
  -16.5338  -29.9082   23.6325 C   0  0  0  0  0  0
  -16.7256  -28.6494   23.0357 C   0  0  0  0  0  0
  -26.4469  -31.6601   25.0706 C   0  0  0  0  0  0
  -25.3745  -31.3712   26.1461 C   0  0  0  0  0  0
  -27.0284  -30.3044   24.6057 C   0  0  0  0  0  0
  -27.6040  -32.4321   25.7477 C   0  0  0  0  0  0
  -27.5578  -37.1811   24.8465 C   0  0  0  0  0  0
  -21.4131  -29.3022   22.3745 N   0  0  0  0  0  0
  -26.4293  -37.3799   23.9409 N   0  0  0  0  0  0
  -24.6645  -31.0812   22.0983 N   0  0  0  0  0  0
  -23.4184  -28.8203   23.3036 O   0  0  0  0  0  0
  -28.3766  -26.6897   20.1143 O   0  0  0  0  0  0
  -26.5593  -34.8932   22.4683 O   0  0  0  0  0  0
  -23.5334  -32.1420   23.7516 O   0  0  0  0  0  0
  -30.3827  -20.0866   22.0792 C   0  0  0  0  0  0
  -28.6018  -20.2441   20.4584 C   0  0  0  0  0  0
  -30.6351  -18.7504   21.6975 C   0  0  0  0  0  0
  -28.8234  -18.8992   20.0755 C   0  0  0  0  0  0
  -29.8883  -18.1569   20.6503 C   0  0  0  0  0  0
  -29.3945  -20.8814   21.4441 C   0  0  0  0  0  0
  -31.7617  -17.9990   22.3922 C   0  0  0  0  0  0
  -27.9215  -18.3008   19.0063 C   0  0  0  0  0  0
  -30.2325  -22.8832   22.6504 C   0  0  0  0  0  0
  -30.3533  -16.8320   20.0304 C   0  0  0  0  0  0
  -28.3353  -24.2137   20.4184 C   0  0  0  0  0  0
  -28.0520  -23.0479   21.4080 C   0  0  0  0  0  0
  -28.3519  -25.6183   21.0711 C   0  0  0  0  0  0
  -29.9844  -15.5730   20.7004 N   0  0  0  0  0  0
  -29.2375  -22.2572   21.7793 N   0  0  0  0  0  0
  -31.4514  -12.3360   19.1420 H   0  0  0  0  0  0
  -30.2654  -11.2790   19.8516 H   0  0  0  0  0  0
  -29.7290  -11.7571   17.4352 H   0  0  0  0  0  0
  -29.6723  -13.4693   17.7736 H   0  0  0  0  0  0
  -27.8167  -11.3063   18.8238 H   0  0  0  0  0  0
  -27.3651  -12.6256   17.7807 H   0  0  0  0  0  0
  -27.6878  -14.2560   19.5440 H   0  0  0  0  0  0
  -28.6579  -12.0241   21.3990 H   0  0  0  0  0  0
  -28.4786  -13.7037   21.8315 H   0  0  0  0  0  0
  -25.2766   -9.5714   22.4746 H   0  0  0  0  0  0
  -24.0011   -7.4658   22.7471 H   0  0  0  0  0  0
  -21.0832   -8.8774   19.8963 H   0  0  0  0  0  0
  -22.3672  -10.9679   19.6155 H   0  0  0  0  0  0
  -21.2018   -7.6150   23.9717 H   0  0  0  0  0  0
  -21.1473   -6.0522   25.9078 H   0  0  0  0  0  0
  -22.0597   -2.7607   23.2844 H   0  0  0  0  0  0
  -22.4107  -11.9935   22.4829 H   0  0  0  0  0  0
  -21.1083  -13.1263   22.2575 H   0  0  0  0  0  0
  -24.6573  -15.8434   20.5221 H   0  0  0  0  0  0
  -26.2791  -15.6348   20.1009 H   0  0  0  0  0  0
  -26.7109  -32.5549   23.1158 H   0  0  0  0  0  0
  -25.0078  -33.9788   25.0485 H   0  0  0  0  0  0
  -22.6868  -31.3080   21.4140 H   0  0  0  0  0  0
  -23.3745  -35.9650   23.3316 H   0  0  0  0  0  0
  -24.3579  -36.8909   22.2045 H   0  0  0  0  0  0
  -23.7245  -37.6527   23.6637 H   0  0  0  0  0  0
  -26.0308  -31.6084   20.5884 H   0  0  0  0  0  0
  -26.8154  -30.8989   21.9720 H   0  0  0  0  0  0
  -28.1009  -29.1224   21.1551 H   0  0  0  0  0  0
  -26.0683  -25.9633   19.0388 H   0  0  0  0  0  0
  -23.9766  -27.2865   19.0470 H   0  0  0  0  0  0
  -23.7070  -30.5951   19.4032 H   0  0  0  0  0  0
  -22.7305  -29.2379   19.8742 H   0  0  0  0  0  0
  -25.1288  -36.1976   25.0831 H   0  0  0  0  0  0
  -20.9951  -28.3206   24.1449 H   0  0  0  0  0  0
  -20.5664  -26.2247   23.3604 H   0  0  0  0  0  0
  -21.6629  -26.7436   22.1210 H   0  0  0  0  0  0
  -19.6894  -25.6298   21.1230 H   0  0  0  0  0  0
  -19.6678  -27.3204   20.6758 H   0  0  0  0  0  0
  -17.4187  -26.6676   21.4023 H   0  0  0  0  0  0
  -18.0308  -26.0049   22.9008 H   0  0  0  0  0  0
  -19.7920  -30.7246   24.2296 H   0  0  0  0  0  0
  -17.5002  -31.6266   24.5152 H   0  0  0  0  0  0
  -15.5340  -30.2989   23.7636 H   0  0  0  0  0  0
  -15.8655  -28.0815   22.7069 H   0  0  0  0  0  0
  -24.5913  -30.7061   25.7807 H   0  0  0  0  0  0
  -24.8941  -32.2873   26.4911 H   0  0  0  0  0  0
  -25.8107  -30.8886   27.0214 H   0  0  0  0  0  0
  -26.2810  -29.6832   24.1103 H   0  0  0  0  0  0
  -27.4057  -29.7259   25.4499 H   0  0  0  0  0  0
  -27.8649  -30.4373   23.9189 H   0  0  0  0  0  0
  -27.2644  -33.3606   26.2086 H   0  0  0  0  0  0
  -28.3837  -32.6911   25.0299 H   0  0  0  0  0  0
  -28.0718  -31.8426   26.5373 H   0  0  0  0  0  0
  -28.2608  -38.0096   24.7507 H   0  0  0  0  0  0
  -28.1063  -36.2631   24.6300 H   0  0  0  0  0  0
  -27.2297  -37.1474   25.8868 H   0  0  0  0  0  0
  -20.9280  -29.8746   21.6979 H   0  0  0  0  0  0
  -26.0183  -38.2877   24.1413 H   0  0  0  0  0  0
  -31.0061  -20.4993   22.8573 H   0  0  0  0  0  0
  -27.8307  -20.7869   19.9346 H   0  0  0  0  0  0
  -32.0478  -18.4810   23.3283 H   0  0  0  0  0  0
  -32.6467  -17.9564   21.7564 H   0  0  0  0  0  0
  -31.4608  -16.9798   22.6368 H   0  0  0  0  0  0
  -27.7478  -17.2384   19.1794 H   0  0  0  0  0  0
  -28.3584  -18.4244   18.0146 H   0  0  0  0  0  0
  -26.9434  -18.7839   19.0083 H   0  0  0  0  0  0
  -31.2374  -22.7685   22.2408 H   0  0  0  0  0  0
  -30.2135  -22.4397   23.6477 H   0  0  0  0  0  0
  -30.0508  -23.9489   22.7750 H   0  0  0  0  0  0
  -30.0192  -16.7620   18.9953 H   0  0  0  0  0  0
  -31.4372  -16.9186   19.9342 H   0  0  0  0  0  0
  -27.5432  -24.2053   19.6701 H   0  0  0  0  0  0
  -29.2586  -24.0431   19.8649 H   0  0  0  0  0  0
  -27.2602  -22.4176   21.0066 H   0  0  0  0  0  0
  -27.6175  -23.4525   22.3240 H   0  0  0  0  0  0
  -29.2367  -25.7224   21.6987 H   0  0  0  0  0  0
  -27.5003  -25.7158   21.7474 H   0  0  0  0  0  0
  -29.0268  -15.4592   20.9939 H   0  0  0  0  0  0
  1 25  1  0  0  0
  1 30  2  0  0  0
  1 84  1  0  0  0
  2  3  1  0  0  0
  2 25  1  0  0  0
  2 86  1  0  0  0
  2 87  1  0  0  0
  3  4  1  0  0  0
  3 88  1  0  0  0
  3 89  1  0  0  0
  4  5  1  0  0  0
  4 90  1  0  0  0
  4 91  1  0  0  0
  5  6  1  0  0  0
  5 26  1  0  0  0
  5 92  1  0  0  0
  6 25  1  0  0  0
  6 93  1  0  0  0
  6 94  1  0  0  0
  7  8  2  0  0  0
  7 26  1  0  0  0
  7 29  1  0  0  0
  8  9  1  0  0  0
  8 22  1  0  0  0
  9 10  1  0  0  0
  9 27  2  0  0  0
 10 11  2  0  0  0
 10 15  1  0  0  0
 11 12  1  0  0  0
 11 95  1  0  0  0
 12 13  2  0  0  0
 12 96  1  0  0  0
 13 14  1  0  0  0
 13 31  1  0  0  0
 14 15  2  0  0  0
 14 97  1  0  0  0
 15 98  1  0  0  0
 16 17  2  0  0  0
 16 21  1  0  0  0
 16 31  1  0  0  0
 17 18  1  0  0  0
 17 99  1  0  0  0
 18 19  2  0  0  0
 18100  1  0  0  0
 19 20  1  0  0  0
 19 24  1  0  0  0
 20 21  2  0  0  0
 20101  1  0  0  0
 21 23  1  0  0  0
 22 28  1  0  0  0
 22 32  2  0  0  0
 26 27  1  0  0  0
 28102  1  0  0  0
 28103  1  0  0  0
 29104  1  0  0  0
 29105  1  0  0  0
 33 34  1  0  0  0
 33 66  1  0  0  0
 33 70  2  0  0  0
 34 36  1  0  0  0
 34 59  1  0  0  0
 34106  1  0  0  0
 35 44  2  0  0  0
 35 45  1  0  0  0
 35 68  1  0  0  0
 36 56  1  0  0  0
 36107  1  0  0  0
 37 39  1  0  0  0
 37 47  1  0  0  0
 37 66  1  0  0  0
 37108  1  0  0  0
 38 43  2  0  0  0
 38 46  1  0  0  0
 38 47  1  0  0  0
 39 64  1  0  0  0
 39 67  2  0  0  0
 40 52  1  0  0  0
 40 53  2  0  0  0
 40 58  1  0  0  0
 41109  1  0  0  0
 41110  1  0  0  0
 41111  1  0  0  0
 41 48  1  0  0  0
 42 43  1  0  0  0
 42 66  1  0  0  0
 42112  1  0  0  0
 42113  1  0  0  0
 43 44  1  0  0  0
 44114  1  0  0  0
 45 46  2  0  0  0
 45115  1  0  0  0
 46116  1  0  0  0
 47117  1  0  0  0
 47118  1  0  0  0
 48 56  1  0  0  0
 48 65  1  0  0  0
 48119  1  0  0  0
 49 50  1  0  0  0
 49 53  1  0  0  0
 49 64  1  0  0  0
 49120  1  0  0  0
 50 51  1  0  0  0
 50121  1  0  0  0
 50122  1  0  0  0
 51 52  1  0  0  0
 51123  1  0  0  0
 51124  1  0  0  0
 52125  1  0  0  0
 52126  1  0  0  0
 53 54  1  0  0  0
 54 55  2  0  0  0
 54127  1  0  0  0
 55 57  1  0  0  0
 55128  1  0  0  0
 56 69  2  0  0  0
 57 58  2  0  0  0
 57129  1  0  0  0
 58130  1  0  0  0
 59 60  1  0  0  0
 59 61  1  0  0  0
 59 62  1  0  0  0
 60131  1  0  0  0
 60132  1  0  0  0
 60133  1  0  0  0
 61134  1  0  0  0
 61135  1  0  0  0
 61136  1  0  0  0
 62137  1  0  0  0
 62138  1  0  0  0
 62139  1  0  0  0
 63 65  1  0  0  0
 63140  1  0  0  0
 63141  1  0  0  0
 63142  1  0  0  0
 64143  1  0  0  0
 65144  1  0  0  0
 68 83  1  0  0  0
 71 73  2  0  0  0
 71 76  1  0  0  0
 71145  1  0  0  0
 72 74  1  0  0  0
 72 76  2  0  0  0
 72146  1  0  0  0
 73 75  1  0  0  0
 73 77  1  0  0  0
 74 75  2  0  0  0
 74 78  1  0  0  0
 75 80  1  0  0  0
 76 85  1  0  0  0
 77147  1  0  0  0
 77148  1  0  0  0
 77149  1  0  0  0
 78150  1  0  0  0
 78151  1  0  0  0
 78152  1  0  0  0
 79 85  1  0  0  0
 79153  1  0  0  0
 79154  1  0  0  0
 79155  1  0  0  0
 80 84  1  0  0  0
 80156  1  0  0  0
 80157  1  0  0  0
 81 82  1  0  0  0
 81 83  1  0  0  0
 81158  1  0  0  0
 81159  1  0  0  0
 82 85  1  0  0  0
 82160  1  0  0  0
 82161  1  0  0  0
 83162  1  0  0  0
 83163  1  0  0  0
 84164  1  0  0  0
M  ISO  4   1 100  68 101  83 101  84 100
M  END
> <chiral flag>
0

> <version>
0

> <s_m_source_file>
/data/baiqing/PycharmProjects/Reinvent-master-3.2/result/LINK_invent/BTK/process_docking_weight1_custom_sum_contain_oxygen_bond_distance_aromatic_linkinvent_7_9_3/rearranged_h_0026.sdf

> <i_m_source_file_index>
75

> <r_mmod_Potential_Energy-OPLS-2005>
-31.9138927459717

> <r_mmod_Stretch_Energy-OPLS-2005>
39.6066741943359

> <r_mmod_Bend_Energy-OPLS-2005>
111.564117431641

> <r_mmod_Torsional_Energy-OPLS-2005>
251.455017089844

> <r_mmod_Improper_Torsional_Energy-OPLS-2005>
10.0417804718018

> <r_mmod_Van_der_Waal_Energy-OPLS-2005>
163.043884277344

> <r_mmod_Electrostatic_Energy-OPLS-2005>
-403.421203613281

> <r_mmod_Solvation_Energy-OPLS-2005>
-221.016204833984

> <b_mmod_Minimization_Converged-OPLS-2005>
0

> <r_mmod_RMS_Derivative-OPLS-2005>
1.29080748558044

$$$$
75
                    3D
 Structure written by MMmdl.
175183  0  0  1  0            999 V2000
  -30.7618  -14.4301   20.6541 C   0  0  0  0  0  0
  -30.4081  -12.3114   19.4103 C   0  0  0  0  0  0
  -29.4856  -12.5441   18.1988 C   0  0  0  0  0  0
  -28.0076  -12.3984   18.6088 C   0  0  0  0  0  0
  -27.6637  -13.2148   19.8825 C   0  0  2  0  0  0
  -28.7070  -12.9890   21.0013 C   0  0  0  0  0  0
  -25.2604  -13.8191   20.5721 C   0  0  0  0  0  0
  -24.1849  -13.0432   20.9183 C   0  0  0  0  0  0
  -24.6407  -11.6904   20.8713 C   0  0  0  0  0  0
  -23.9074  -10.4288   21.0382 C   0  0  0  0  0  0
  -24.3610   -9.4218   21.9179 C   0  0  0  0  0  0
  -23.6276   -8.2260   22.0765 C   0  0  0  0  0  0
  -22.4269   -8.0291   21.3549 C   0  0  0  0  0  0
  -21.9924   -9.0240   20.4631 C   0  0  0  0  0  0
  -22.7254  -10.2119   20.3027 C   0  0  0  0  0  0
  -21.6856   -6.0748   22.5287 C   0  0  0  0  0  0
  -21.4003   -6.5632   23.8219 C   0  0  0  0  0  0
  -21.3647   -5.6780   24.9178 C   0  0  0  0  0  0
  -21.6038   -4.3054   24.7231 C   0  0  0  0  0  0
  -21.8821   -3.8162   23.4336 C   0  0  0  0  0  0
  -21.9183   -4.6979   22.3397 C   0  0  0  0  0  0
  -22.7873  -13.5239   21.1817 C   0  0  0  0  0  0
  -22.1662   -4.2161   21.0989 F   0  0  0  0  0  0
  -21.5623   -3.4543   25.7745 F   0  0  0  0  0  0
  -30.0428  -13.2856   20.4580 N   0  0  0  0  0  0
  -26.3034  -12.9369   20.3415 N   0  0  0  0  0  0
  -25.9345  -11.6506   20.5754 N   0  0  0  0  0  0
  -22.0481  -12.8189   22.0350 N   0  0  0  0  0  0
  -25.4293  -15.1915   20.4204 N   0  0  0  0  0  0
  -31.7642  -14.6756   19.9767 O   0  0  0  0  0  0
  -21.6628   -6.8891   21.4242 O   0  0  0  0  0  0
  -22.3566  -14.5555   20.6710 O   0  0  0  0  0  0
  -24.6198  -31.8642   23.2083 C   0  0  0  0  0  0
  -25.9076  -32.4825   23.8383 C   0  0  1  0  0  0
  -27.2067  -27.3805   20.0867 C   0  0  0  0  0  0
  -25.5921  -33.8617   24.2297 N   0  0  0  0  0  0
  -23.4080  -30.4983   21.5463 C   0  0  2  0  0  0
  -24.8532  -28.9711   20.0996 C   0  0  0  0  0  0
  -22.7456  -29.4665   22.4895 C   0  0  0  0  0  0
  -18.0276  -28.1420   22.8492 C   0  0  0  0  0  0
  -24.1422  -36.7212   23.2644 C   0  0  0  0  0  0
  -25.9478  -30.8149   21.3718 C   0  0  0  0  0  0
  -26.0185  -29.4494   20.7088 C   0  0  0  0  0  0
  -27.2030  -28.6645   20.6971 C   0  0  0  0  0  0
  -26.0317  -26.9565   19.4285 C   0  0  0  0  0  0
  -24.8602  -27.7336   19.4430 C   0  0  0  0  0  0
  -23.6186  -29.8451   20.1571 C   0  0  0  0  0  0
  -25.4071  -36.3087   24.0344 C   0  0  1  0  0  0
  -20.5885  -28.3689   23.1257 C   0  0  2  0  0  0
  -20.6770  -26.9409   22.5377 C   0  0  0  0  0  0
  -19.5720  -26.6408   21.5193 C   0  0  0  0  0  0
  -18.1893  -26.7966   22.1609 C   0  0  0  0  0  0
  -19.1545  -28.8870   23.2884 C   0  0  0  0  0  0
  -18.9507  -30.1479   23.8930 C   0  0  0  0  0  0
  -17.6521  -30.6623   24.0595 C   0  0  0  0  0  0
  -25.9044  -34.9477   23.5099 C   0  0  0  0  0  0
  -16.5385  -29.9128   23.6388 C   0  0  0  0  0  0
  -16.7264  -28.6563   23.0387 C   0  0  0  0  0  0
  -26.4523  -31.6642   25.0720 C   0  0  0  0  0  0
  -25.3772  -31.3733   26.1462 C   0  0  0  0  0  0
  -27.0409  -30.3143   24.6070 C   0  0  0  0  0  0
  -27.6037  -32.4448   25.7501 C   0  0  0  0  0  0
  -27.5555  -37.1727   24.8468 C   0  0  0  0  0  0
  -21.4170  -29.3069   22.3683 N   0  0  0  0  0  0
  -26.4216  -37.3818   23.9509 N   0  0  0  0  0  0
  -24.6765  -31.0733   22.0992 N   0  0  0  0  0  0
  -23.4260  -28.8180   23.2901 O   0  0  0  0  0  0
  -28.3170  -26.5448   20.1441 O   0  0  0  0  0  0
  -26.5601  -34.8941   22.4662 O   0  0  0  0  0  0
  -23.5390  -32.1385   23.7477 O   0  0  0  0  0  0
  -30.3650  -24.5939   21.4468 C   0  0  0  0  0  0
  -31.4173  -23.6735   21.7211 C   0  0  0  0  0  0
  -29.1965  -24.1588   20.7508 C   0  0  0  0  0  0
  -30.1311  -21.8296   20.7261 C   0  0  0  0  0  0
  -31.2896  -22.3087   21.3677 C   0  0  0  0  0  0
  -29.0834  -22.7601   20.4327 C   0  0  0  0  0  0
  -31.2218  -26.9664   20.9583 C   0  0  0  0  0  0
  -32.7351  -23.7742   23.8977 C   0  0  0  0  0  0
  -31.7336  -15.9307   22.4650 C   0  0  0  0  0  0
  -28.5214  -16.9079   22.6241 C   0  0  0  0  0  0
  -30.4839  -26.0379   21.9417 C   0  0  0  0  0  0
  -32.7186  -24.1048   22.3994 C   0  0  0  0  0  0
  -30.1205  -20.3405   20.2768 C   0  0  0  0  0  0
  -28.0209  -25.1368   20.4186 C   0  0  0  0  0  0
  -29.8539  -19.2448   21.3669 C   0  0  0  0  0  0
  -30.4294  -15.4399   21.7934 C   0  0  1  0  0  0
  -29.4579  -16.6302   21.4293 C   0  0  2  0  0  0
  -30.1412  -17.8528   20.8637 N   0  3  0  0  0  0
  -32.5754  -21.1973   21.7335 Cl  0  0  0  0  0  0
  -27.6384  -22.1531   19.6912 Cl  0  0  0  0  0  0
  -31.4547  -12.3809   19.1102 H   0  0  0  0  0  0
  -30.2821  -11.2936   19.7833 H   0  0  0  0  0  0
  -29.7232  -11.8449   17.3947 H   0  0  0  0  0  0
  -29.6580  -13.5427   17.7951 H   0  0  0  0  0  0
  -27.8063  -11.3407   18.7749 H   0  0  0  0  0  0
  -27.3608  -12.7084   17.7859 H   0  0  0  0  0  0
  -27.7077  -14.2671   19.6021 H   0  0  0  0  0  0
  -28.6763  -11.9549   21.3488 H   0  0  0  0  0  0
  -28.4427  -13.5910   21.8679 H   0  0  0  0  0  0
  -25.2753   -9.5702   22.4763 H   0  0  0  0  0  0
  -23.9977   -7.4674   22.7511 H   0  0  0  0  0  0
  -21.0871   -8.8739   19.8931 H   0  0  0  0  0  0
  -22.3722  -10.9639   19.6117 H   0  0  0  0  0  0
  -21.1995   -7.6138   23.9732 H   0  0  0  0  0  0
  -21.1455   -6.0520   25.9085 H   0  0  0  0  0  0
  -22.0610   -2.7615   23.2854 H   0  0  0  0  0  0
  -22.4028  -11.9797   22.4657 H   0  0  0  0  0  0
  -21.1105  -13.1253   22.2554 H   0  0  0  0  0  0
  -24.6599  -15.8423   20.5456 H   0  0  0  0  0  0
  -26.2750  -15.6407   20.0965 H   0  0  0  0  0  0
  -26.7129  -32.5536   23.1129 H   0  0  0  0  0  0
  -25.0217  -33.9811   25.0538 H   0  0  0  0  0  0
  -22.6963  -31.3169   21.4134 H   0  0  0  0  0  0
  -23.3796  -35.9414   23.3227 H   0  0  0  0  0  0
  -24.3509  -36.8892   22.2064 H   0  0  0  0  0  0
  -23.7028  -37.6314   23.6729 H   0  0  0  0  0  0
  -26.0646  -31.5842   20.6082 H   0  0  0  0  0  0
  -26.8355  -30.8641   21.9902 H   0  0  0  0  0  0
  -28.0996  -29.0199   21.1841 H   0  0  0  0  0  0
  -25.9942  -26.0288   18.8793 H   0  0  0  0  0  0
  -23.9767  -27.3825   18.9293 H   0  0  0  0  0  0
  -23.7311  -30.6305   19.4092 H   0  0  0  0  0  0
  -22.7386  -29.2755   19.8506 H   0  0  0  0  0  0
  -25.1223  -36.1887   25.0820 H   0  0  0  0  0  0
  -20.9992  -28.3245   24.1358 H   0  0  0  0  0  0
  -20.5667  -26.2276   23.3567 H   0  0  0  0  0  0
  -21.6630  -26.7434   22.1128 H   0  0  0  0  0  0
  -19.6865  -25.6315   21.1201 H   0  0  0  0  0  0
  -19.6672  -27.3244   20.6736 H   0  0  0  0  0  0
  -17.4157  -26.6780   21.4004 H   0  0  0  0  0  0
  -18.0259  -26.0083   22.8976 H   0  0  0  0  0  0
  -19.8004  -30.7291   24.2278 H   0  0  0  0  0  0
  -17.5090  -31.6308   24.5180 H   0  0  0  0  0  0
  -15.5402  -30.3082   23.7728 H   0  0  0  0  0  0
  -15.8644  -28.0920   22.7102 H   0  0  0  0  0  0
  -24.5973  -30.7061   25.7812 H   0  0  0  0  0  0
  -24.8958  -32.2851   26.4959 H   0  0  0  0  0  0
  -25.8103  -30.8902   27.0216 H   0  0  0  0  0  0
  -26.2965  -29.6850   24.1197 H   0  0  0  0  0  0
  -27.4364  -29.7425   25.4469 H   0  0  0  0  0  0
  -27.8658  -30.4579   23.9093 H   0  0  0  0  0  0
  -27.2654  -33.3828   26.1914 H   0  0  0  0  0  0
  -28.3919  -32.6894   25.0362 H   0  0  0  0  0  0
  -28.0612  -31.8686   26.5551 H   0  0  0  0  0  0
  -28.2454  -38.0148   24.7790 H   0  0  0  0  0  0
  -28.1172  -36.2719   24.5973 H   0  0  0  0  0  0
  -27.2303  -37.0942   25.8854 H   0  0  0  0  0  0
  -20.9322  -29.8869   21.6971 H   0  0  0  0  0  0
  -26.0061  -38.2793   24.1820 H   0  0  0  0  0  0
  -31.2219  -27.9921   21.3281 H   0  0  0  0  0  0
  -30.7588  -26.9740   19.9733 H   0  0  0  0  0  0
  -32.2595  -26.6740   20.8143 H   0  0  0  0  0  0
  -33.7102  -23.9973   24.3308 H   0  0  0  0  0  0
  -32.5324  -22.7189   24.0768 H   0  0  0  0  0  0
  -31.9762  -24.3399   24.4377 H   0  0  0  0  0  0
  -31.5333  -16.5889   23.3105 H   0  0  0  0  0  0
  -32.3871  -16.4582   21.7693 H   0  0  0  0  0  0
  -32.3028  -15.0815   22.8457 H   0  0  0  0  0  0
  -28.0055  -15.9938   22.9248 H   0  0  0  0  0  0
  -27.7382  -17.6226   22.3807 H   0  0  0  0  0  0
  -29.0729  -17.2673   23.4916 H   0  0  0  0  0  0
  -30.9879  -26.0544   22.9061 H   0  0  0  0  0  0
  -29.5019  -26.4410   22.1832 H   0  0  0  0  0  0
  -32.9289  -25.1617   22.2585 H   0  0  0  0  0  0
  -33.5587  -23.6165   21.9029 H   0  0  0  0  0  0
  -31.0932  -20.1444   19.8215 H   0  0  0  0  0  0
  -29.4296  -20.2010   19.4485 H   0  0  0  0  0  0
  -27.3197  -25.0901   21.2560 H   0  0  0  0  0  0
  -27.4956  -24.7378   19.5539 H   0  0  0  0  0  0
  -28.8297  -19.3655   21.7148 H   0  0  0  0  0  0
  -30.4872  -19.4134   22.2401 H   0  0  0  0  0  0
  -29.9527  -14.8522   22.5737 H   0  0  0  0  0  0
  -28.8023  -16.2801   20.6291 H   0  0  0  0  0  0
  -31.1330  -17.7076   20.9798 H   0  0  0  0  0  0
  -29.9655  -17.8498   19.8688 H   0  0  0  0  0  0
  1 25  1  0  0  0
  1 30  2  0  0  0
  1 86  1  0  0  0
  2  3  1  0  0  0
  2 25  1  0  0  0
  2 91  1  0  0  0
  2 92  1  0  0  0
  3  4  1  0  0  0
  3 93  1  0  0  0
  3 94  1  0  0  0
  4  5  1  0  0  0
  4 95  1  0  0  0
  4 96  1  0  0  0
  5  6  1  0  0  0
  5 26  1  0  0  0
  5 97  1  0  0  0
  6 25  1  0  0  0
  6 98  1  0  0  0
  6 99  1  0  0  0
  7  8  2  0  0  0
  7 26  1  0  0  0
  7 29  1  0  0  0
  8  9  1  0  0  0
  8 22  1  0  0  0
  9 10  1  0  0  0
  9 27  2  0  0  0
 10 11  2  0  0  0
 10 15  1  0  0  0
 11 12  1  0  0  0
 11100  1  0  0  0
 12 13  2  0  0  0
 12101  1  0  0  0
 13 14  1  0  0  0
 13 31  1  0  0  0
 14 15  2  0  0  0
 14102  1  0  0  0
 15103  1  0  0  0
 16 17  2  0  0  0
 16 21  1  0  0  0
 16 31  1  0  0  0
 17 18  1  0  0  0
 17104  1  0  0  0
 18 19  2  0  0  0
 18105  1  0  0  0
 19 20  1  0  0  0
 19 24  1  0  0  0
 20 21  2  0  0  0
 20106  1  0  0  0
 21 23  1  0  0  0
 22 28  1  0  0  0
 22 32  2  0  0  0
 26 27  1  0  0  0
 28107  1  0  0  0
 28108  1  0  0  0
 29109  1  0  0  0
 29110  1  0  0  0
 33 34  1  0  0  0
 33 66  1  0  0  0
 33 70  2  0  0  0
 34 36  1  0  0  0
 34 59  1  0  0  0
 34111  1  0  0  0
 35 44  2  0  0  0
 35 45  1  0  0  0
 35 68  1  0  0  0
 36 56  1  0  0  0
 36112  1  0  0  0
 37 39  1  0  0  0
 37 47  1  0  0  0
 37 66  1  0  0  0
 37113  1  0  0  0
 38 43  2  0  0  0
 38 46  1  0  0  0
 38 47  1  0  0  0
 39 64  1  0  0  0
 39 67  2  0  0  0
 40 52  1  0  0  0
 40 53  2  0  0  0
 40 58  1  0  0  0
 41114  1  0  0  0
 41115  1  0  0  0
 41116  1  0  0  0
 41 48  1  0  0  0
 42 43  1  0  0  0
 42 66  1  0  0  0
 42117  1  0  0  0
 42118  1  0  0  0
 43 44  1  0  0  0
 44119  1  0  0  0
 45 46  2  0  0  0
 45120  1  0  0  0
 46121  1  0  0  0
 47122  1  0  0  0
 47123  1  0  0  0
 48 56  1  0  0  0
 48 65  1  0  0  0
 48124  1  0  0  0
 49 50  1  0  0  0
 49 53  1  0  0  0
 49 64  1  0  0  0
 49125  1  0  0  0
 50 51  1  0  0  0
 50126  1  0  0  0
 50127  1  0  0  0
 51 52  1  0  0  0
 51128  1  0  0  0
 51129  1  0  0  0
 52130  1  0  0  0
 52131  1  0  0  0
 53 54  1  0  0  0
 54 55  2  0  0  0
 54132  1  0  0  0
 55 57  1  0  0  0
 55133  1  0  0  0
 56 69  2  0  0  0
 57 58  2  0  0  0
 57134  1  0  0  0
 58135  1  0  0  0
 59 60  1  0  0  0
 59 61  1  0  0  0
 59 62  1  0  0  0
 60136  1  0  0  0
 60137  1  0  0  0
 60138  1  0  0  0
 61139  1  0  0  0
 61140  1  0  0  0
 61141  1  0  0  0
 62142  1  0  0  0
 62143  1  0  0  0
 62144  1  0  0  0
 63 65  1  0  0  0
 63145  1  0  0  0
 63146  1  0  0  0
 63147  1  0  0  0
 64148  1  0  0  0
 65149  1  0  0  0
 68 84  1  0  0  0
 71 72  2  0  0  0
 71 73  1  0  0  0
 71 81  1  0  0  0
 72 75  1  0  0  0
 72 82  1  0  0  0
 73 76  2  0  0  0
 73 84  1  0  0  0
 74 75  2  0  0  0
 74 76  1  0  0  0
 74 83  1  0  0  0
 75 89  1  0  0  0
 76 90  1  0  0  0
 77 81  1  0  0  0
 77150  1  0  0  0
 77151  1  0  0  0
 77152  1  0  0  0
 78 82  1  0  0  0
 78153  1  0  0  0
 78154  1  0  0  0
 78155  1  0  0  0
 79156  1  0  0  0
 79157  1  0  0  0
 79158  1  0  0  0
 79 86  1  0  0  0
 80159  1  0  0  0
 80160  1  0  0  0
 80161  1  0  0  0
 80 87  1  0  0  0
 81162  1  0  0  0
 81163  1  0  0  0
 82164  1  0  0  0
 82165  1  0  0  0
 83 85  1  0  0  0
 83166  1  0  0  0
 83167  1  0  0  0
 84168  1  0  0  0
 84169  1  0  0  0
 85 88  1  0  0  0
 85170  1  0  0  0
 85171  1  0  0  0
 86 87  1  0  0  0
 86172  1  0  0  0
 87 88  1  0  0  0
 87173  1  0  0  0
 88174  1  0  0  0
 88175  1  0  0  0
M  CHG  1  88   1
M  ISO  4   1 100  68 101  84 101  86 100
M  END
> <chiral flag>
0

> <version>
0

> <s_m_source_file>
/data/baiqing/PycharmProjects/Reinvent-master-3.2/result/LINK_invent/BTK/process_docking_weight1_custom_sum_contain_oxygen_bond_distance_aromatic_linkinvent_7_9_3/rearranged_h_0026.sdf

> <i_m_source_file_index>
76

> <r_mmod_Potential_Energy-OPLS-2005>
-68.8976440429688

> <r_mmod_Stretch_Energy-OPLS-2005>
64.8144912719727

> <r_mmod_Bend_Energy-OPLS-2005>
127.443344116211

> <r_mmod_Torsional_Energy-OPLS-2005>
219.274917602539

> <r_mmod_Improper_Torsional_Energy-OPLS-2005>
2.59505271911621

> <r_mmod_Van_der_Waal_Energy-OPLS-2005>
171.257049560547

> <r_mmod_Electrostatic_Energy-OPLS-2005>
-254.179016113281

> <r_mmod_Solvation_Energy-OPLS-2005>
-420.482147216797

> <b_mmod_Minimization_Converged-OPLS-2005>
0

> <r_mmod_RMS_Derivative-OPLS-2005>
5.76791954040527

$$$$
76
                    3D
 Structure written by MMmdl.
183191  0  0  1  0            999 V2000
  -29.4790  -15.8883   20.5608 C   0  0  0  0  0  0
  -30.2627  -13.3485   19.6797 C   0  0  0  0  0  0
  -29.5350  -12.7672   18.4210 C   0  0  0  0  0  0
  -28.0987  -12.3207   18.7536 C   0  0  0  0  0  0
  -27.4889  -13.2708   19.8028 C   0  0  2  0  0  0
  -28.3818  -13.5478   21.0016 C   0  0  0  0  0  0
  -25.1751  -13.8094   20.5672 C   0  0  0  0  0  0
  -24.1253  -13.0323   20.9235 C   0  0  0  0  0  0
  -24.5949  -11.6801   20.8733 C   0  0  0  0  0  0
  -23.8799  -10.4202   21.0438 C   0  0  0  0  0  0
  -24.3496   -9.4154   21.9177 C   0  0  0  0  0  0
  -23.6235   -8.2157   22.0741 C   0  0  0  0  0  0
  -22.4195   -8.0182   21.3555 C   0  0  0  0  0  0
  -21.9775   -9.0113   20.4638 C   0  0  0  0  0  0
  -22.7031  -10.2015   20.3044 C   0  0  0  0  0  0
  -21.6830   -6.0691   22.5284 C   0  0  0  0  0  0
  -21.4000   -6.5613   23.8216 C   0  0  0  0  0  0
  -21.3657   -5.6778   24.9180 C   0  0  0  0  0  0
  -21.6040   -4.3042   24.7243 C   0  0  0  0  0  0
  -21.8817   -3.8118   23.4372 C   0  0  0  0  0  0
  -21.9187   -4.6923   22.3418 C   0  0  0  0  0  0
  -22.7338  -13.5071   21.2017 C   0  0  0  0  0  0
  -22.1652   -4.2119   21.1000 F   0  0  0  0  0  0
  -21.5635   -3.4520   25.7762 F   0  0  0  0  0  0
  -29.3811  -14.4108   20.4069 N   0  0  0  0  0  0
  -26.1901  -12.9266   20.2735 N   0  0  0  0  0  0
  -25.8773  -11.6428   20.5400 N   0  0  0  0  0  0
  -22.0111  -12.8096   22.0657 N   0  0  0  0  0  0
  -25.3512  -15.1907   20.4406 N   0  0  0  0  0  0
  -30.7345  -16.0390   20.4588 O   0  0  0  0  0  0
  -21.6602   -6.8799   21.4232 O   0  0  0  0  0  0
  -22.3049  -14.5434   20.6889 O   0  0  0  0  0  0
  -24.6479  -31.8895   23.2272 C   0  0  0  0  0  0
  -25.9272  -32.4944   23.8648 C   0  0  1  0  0  0
  -26.9542  -27.2927   20.0076 C   0  0  0  0  0  0
  -25.6150  -33.8755   24.2487 N   0  0  0  0  0  0
  -23.4355  -30.5058   21.6300 C   0  0  2  0  0  0
  -24.7965  -29.1021   20.0979 C   0  0  0  0  0  0
  -22.9601  -29.3597   22.5620 C   0  0  0  0  0  0
  -18.4428  -27.9936   22.1178 C   0  0  0  0  0  0
  -24.1499  -36.7357   23.2620 C   0  0  0  0  0  0
  -26.0015  -30.8265   21.3966 C   0  0  0  0  0  0
  -26.0303  -29.4899   20.6528 C   0  0  0  0  0  0
  -27.1800  -28.6247   20.5151 C   0  0  0  0  0  0
  -25.6318  -26.9499   19.8260 C   0  0  0  0  0  0
  -24.6081  -27.8283   19.6383 C   0  0  0  0  0  0
  -23.5835  -29.9738   20.2026 C   0  0  0  0  0  0
  -25.4139  -36.3192   24.0320 C   0  0  1  0  0  0
  -21.0523  -28.0380   23.4228 C   0  0  2  0  0  0
  -21.7386  -26.2016   23.7961 C   0  0  0  0  0  0
  -20.8795  -24.4978   22.8498 C   0  0  0  0  0  0
  -18.8075  -26.4410   21.1770 C   0  0  0  0  0  0
  -19.4769  -28.6307   23.0475 C   0  0  0  0  0  0
  -19.1046  -29.8138   23.7815 C   0  0  0  0  0  0
  -17.7845  -30.3126   23.8765 C   0  0  0  0  0  0
  -25.9076  -34.9585   23.5103 C   0  0  0  0  0  0
  -16.7667  -29.5679   23.2634 C   0  0  0  0  0  0
  -17.0915  -28.4474   22.4343 C   0  0  0  0  0  0
  -26.4632  -31.6724   25.1020 C   0  0  0  0  0  0
  -25.3855  -31.3827   26.1713 C   0  0  0  0  0  0
  -27.0475  -30.3134   24.6543 C   0  0  0  0  0  0
  -27.6211  -32.4420   25.7791 C   0  0  0  0  0  0
  -27.5582  -37.1894   24.8472 C   0  0  0  0  0  0
  -21.7229  -28.9088   22.4440 N   0  0  0  0  0  0
  -26.4298  -37.3884   23.9393 N   0  0  0  0  0  0
  -24.7154  -31.1155   22.1114 N   0  0  0  0  0  0
  -23.7055  -28.8571   23.3959 O   0  0  0  0  0  0
  -27.8177  -26.2336   19.6796 O   0  0  0  0  0  0
  -26.5605  -34.8990   22.4620 O   0  0  0  0  0  0
  -23.5614  -32.1580   23.7697 O   0  0  0  0  0  0
  -19.5181  -26.1035   23.1654 C   0  0  0  0  0  0
  -21.0687  -26.2088   21.5470 C   0  0  0  0  0  0
  -18.7698  -23.9477   21.6560 C   0  0  0  0  0  0
  -19.8458  -24.1328   20.4994 C   0  0  0  0  0  0
  -18.5228  -24.8628   22.9307 C   0  0  0  0  0  0
  -20.8087  -25.2983   20.3938 C   0  0  0  0  0  0
  -17.9057  -22.6904   21.6613 C   0  0  0  0  0  0
  -20.9188  -23.4858   17.0145 C   0  0  0  0  0  0
  -22.9071  -25.1166   21.4883 C   0  0  0  0  0  0
  -20.1834  -23.0259   19.3949 C   0  0  0  0  0  0
  -25.1596  -23.4981   17.5020 C   0  0  0  0  0  0
  -24.1771  -22.5669   18.3697 C   0  0  0  0  0  0
  -25.9413  -24.8059   18.0185 C   0  0  0  0  0  0
  -26.1616  -20.3739   20.8629 C   0  0  0  0  0  0
  -27.5126  -18.7326   21.2173 C   0  0  0  0  0  0
  -22.5613  -22.2350   18.4215 C   0  0  0  0  0  0
  -25.0088  -22.0443   21.6237 C   0  0  0  0  0  0
  -27.1515  -24.9219   19.1669 C   0  0  0  0  0  0
  -28.3115  -17.0817   20.5816 N   0  0  0  0  0  0
  -23.6436  -23.3500   21.2325 N   0  3  0  0  0  0
  -21.3888  -23.2200   18.4103 N   0  3  1  0  0  0
  -17.3533  -24.4520   24.1352 Cl  0  0  0  0  0  0
  -21.4835  -25.9264   18.9307 Cl  0  0  0  0  0  0
  -31.2040  -13.8066   19.3799 H   0  0  0  0  0  0
  -30.5570  -12.5399   20.3569 H   0  0  0  0  0  0
  -30.1161  -11.9594   17.9762 H   0  0  0  0  0  0
  -29.4903  -13.5635   17.6767 H   0  0  0  0  0  0
  -28.1262  -11.3032   19.1390 H   0  0  0  0  0  0
  -27.4922  -12.3039   17.8491 H   0  0  0  0  0  0
  -27.3377  -14.2022   19.2500 H   0  0  0  0  0  0
  -28.7352  -12.6234   21.4682 H   0  0  0  0  0  0
  -27.8437  -14.0929   21.7804 H   0  0  0  0  0  0
  -25.2644   -9.5689   22.4738 H   0  0  0  0  0  0
  -23.9978   -7.4547   22.7434 H   0  0  0  0  0  0
  -21.0716   -8.8591   19.8956 H   0  0  0  0  0  0
  -22.3452  -10.9564   19.6168 H   0  0  0  0  0  0
  -21.1985   -7.6118   23.9714 H   0  0  0  0  0  0
  -21.1484   -6.0512   25.9099 H   0  0  0  0  0  0
  -22.0610   -2.7573   23.2877 H   0  0  0  0  0  0
  -22.3815  -11.9747   22.5014 H   0  0  0  0  0  0
  -21.0734  -13.1108   22.2970 H   0  0  0  0  0  0
  -24.6020  -15.8451   20.6258 H   0  0  0  0  0  0
  -26.2264  -15.6471   20.2369 H   0  0  0  0  0  0
  -26.7316  -32.5590   23.1394 H   0  0  0  0  0  0
  -25.0455  -33.9872   25.0772 H   0  0  0  0  0  0
  -22.6493  -31.2603   21.5974 H   0  0  0  0  0  0
  -23.3752  -35.9666   23.3267 H   0  0  0  0  0  0
  -24.3562  -36.8974   22.2015 H   0  0  0  0  0  0
  -23.7223  -37.6571   23.6599 H   0  0  0  0  0  0
  -26.2483  -31.6473   20.7291 H   0  0  0  0  0  0
  -26.8468  -30.7804   22.0691 H   0  0  0  0  0  0
  -28.1725  -28.9163   20.8481 H   0  0  0  0  0  0
  -25.2868  -25.9597   20.0232 H   0  0  0  0  0  0
  -23.6124  -27.5131   19.3764 H   0  0  0  0  0  0
  -22.6982  -29.4166   19.8894 H   0  0  0  0  0  0
  -23.6505  -30.8009   19.4892 H   0  0  0  0  0  0
  -25.1255  -36.2052   25.0799 H   0  0  0  0  0  0
  -21.2630  -28.5238   24.3830 H   0  0  0  0  0  0
  -21.4779  -26.0450   24.8518 H   0  0  0  0  0  0
  -22.8183  -26.1800   23.8269 H   0  0  0  0  0  0
  -20.5306  -23.9544   23.7366 H   0  0  0  0  0  0
  -21.4337  -23.6644   22.4201 H   0  0  0  0  0  0
  -19.1302  -26.8948   20.2195 H   0  0  0  0  0  0
  -17.8388  -26.0271   20.8821 H   0  0  0  0  0  0
  -19.8715  -30.3213   24.3553 H   0  0  0  0  0  0
  -17.5626  -31.1814   24.4700 H   0  0  0  0  0  0
  -15.7286  -29.8597   23.3955 H   0  0  0  0  0  0
  -16.2689  -27.9203   21.9761 H   0  0  0  0  0  0
  -24.6103  -30.7078   25.8046 H   0  0  0  0  0  0
  -24.9029  -32.2976   26.5143 H   0  0  0  0  0  0
  -25.8266  -30.9078   27.0482 H   0  0  0  0  0  0
  -26.3087  -29.6918   24.1474 H   0  0  0  0  0  0
  -27.3958  -29.7393   25.5142 H   0  0  0  0  0  0
  -27.9075  -30.4345   23.9953 H   0  0  0  0  0  0
  -27.2867  -33.3652   26.2489 H   0  0  0  0  0  0
  -28.4070  -32.7042   25.0710 H   0  0  0  0  0  0
  -28.0859  -31.8508   26.5654 H   0  0  0  0  0  0
  -28.2657  -38.0164   24.7509 H   0  0  0  0  0  0
  -28.1044  -36.2695   24.6282 H   0  0  0  0  0  0
  -27.2317  -37.1550   25.8902 H   0  0  0  0  0  0
  -21.1457  -29.2531   21.6941 H   0  0  0  0  0  0
  -26.0174  -38.2921   24.1477 H   0  0  0  0  0  0
  -19.4141  -26.5252   24.1717 H   0  0  0  0  0  0
  -17.9261  -22.1300   20.7269 H   0  0  0  0  0  0
  -16.8666  -22.9605   21.8692 H   0  0  0  0  0  0
  -18.2266  -22.0352   22.4780 H   0  0  0  0  0  0
  -21.5114  -24.2809   16.5427 H   0  0  0  0  0  0
  -19.8788  -23.8248   16.9807 H   0  0  0  0  0  0
  -20.9850  -22.5969   16.3782 H   0  0  0  0  0  0
  -23.6287  -25.5607   22.1687 H   0  0  0  0  0  0
  -23.3523  -25.5549   20.6162 H   0  0  0  0  0  0
  -19.2643  -22.8684   18.8266 H   0  0  0  0  0  0
  -20.3321  -22.0887   19.9333 H   0  0  0  0  0  0
  -24.6416  -23.7665   16.5864 H   0  0  0  0  0  0
  -25.9570  -22.8682   17.1181 H   0  0  0  0  0  0
  -24.6806  -22.3577   19.2908 H   0  0  0  0  0  0
  -24.4428  -21.6229   17.8873 H   0  0  0  0  0  0
  -26.3362  -25.3324   17.1494 H   0  0  0  0  0  0
  -25.0373  -25.3816   18.1760 H   0  0  0  0  0  0
  -25.4981  -19.9747   20.0937 H   0  0  0  0  0  0
  -26.8817  -20.9491   20.2693 H   0  0  0  0  0  0
  -28.4091  -19.2402   21.5987 H   0  0  0  0  0  0
  -27.0603  -18.3307   22.1311 H   0  0  0  0  0  0
  -22.4643  -21.7438   19.3890 H   0  0  0  0  0  0
  -22.3229  -21.4140   17.7367 H   0  0  0  0  0  0
  -25.6841  -22.5942   22.2884 H   0  0  0  0  0  0
  -24.4022  -21.4647   22.3223 H   0  0  0  0  0  0
  -27.9434  -24.2200   18.8851 H   0  0  0  0  0  0
  -26.7295  -24.4868   20.0727 H   0  0  0  0  0  0
  -27.8466  -16.9141   19.6913 H   0  0  0  0  0  0
  -23.7555  -23.3620   20.2333 H   0  0  0  0  0  0
  -22.8270  -22.8044   21.4693 H   0  0  0  0  0  0
  -21.7572  -24.1350   18.6516 H   0  0  0  0  0  0
  1 25  1  0  0  0
  1 30  2  0  0  0
  1 89  1  0  0  0
  2  3  1  0  0  0
  2 25  1  0  0  0
  2 94  1  0  0  0
  2 95  1  0  0  0
  3  4  1  0  0  0
  3 96  1  0  0  0
  3 97  1  0  0  0
  4  5  1  0  0  0
  4 98  1  0  0  0
  4 99  1  0  0  0
  5  6  1  0  0  0
  5 26  1  0  0  0
  5100  1  0  0  0
  6 25  1  0  0  0
  6101  1  0  0  0
  6102  1  0  0  0
  7  8  2  0  0  0
  7 26  1  0  0  0
  7 29  1  0  0  0
  8  9  1  0  0  0
  8 22  1  0  0  0
  9 10  1  0  0  0
  9 27  2  0  0  0
 10 11  2  0  0  0
 10 15  1  0  0  0
 11 12  1  0  0  0
 11103  1  0  0  0
 12 13  2  0  0  0
 12104  1  0  0  0
 13 14  1  0  0  0
 13 31  1  0  0  0
 14 15  2  0  0  0
 14105  1  0  0  0
 15106  1  0  0  0
 16 17  2  0  0  0
 16 21  1  0  0  0
 16 31  1  0  0  0
 17 18  1  0  0  0
 17107  1  0  0  0
 18 19  2  0  0  0
 18108  1  0  0  0
 19 20  1  0  0  0
 19 24  1  0  0  0
 20 21  2  0  0  0
 20109  1  0  0  0
 21 23  1  0  0  0
 22 28  1  0  0  0
 22 32  2  0  0  0
 26 27  1  0  0  0
 28110  1  0  0  0
 28111  1  0  0  0
 29112  1  0  0  0
 29113  1  0  0  0
 33 34  1  0  0  0
 33 66  1  0  0  0
 33 70  2  0  0  0
 34 36  1  0  0  0
 34 59  1  0  0  0
 34114  1  0  0  0
 35 44  2  0  0  0
 35 45  1  0  0  0
 35 68  1  0  0  0
 36 56  1  0  0  0
 36115  1  0  0  0
 37 39  1  0  0  0
 37 47  1  0  0  0
 37 66  1  0  0  0
 37116  1  0  0  0
 38 43  2  0  0  0
 38 46  1  0  0  0
 38 47  1  0  0  0
 39 64  1  0  0  0
 39 67  2  0  0  0
 40 52  1  0  0  0
 40 53  2  0  0  0
 40 58  1  0  0  0
 41117  1  0  0  0
 41118  1  0  0  0
 41119  1  0  0  0
 41 48  1  0  0  0
 42 43  1  0  0  0
 42 66  1  0  0  0
 42120  1  0  0  0
 42121  1  0  0  0
 43 44  1  0  0  0
 44122  1  0  0  0
 45 46  2  0  0  0
 45123  1  0  0  0
 46124  1  0  0  0
 47125  1  0  0  0
 47126  1  0  0  0
 48 56  1  0  0  0
 48 65  1  0  0  0
 48127  1  0  0  0
 49 50  1  0  0  0
 49 53  1  0  0  0
 49 64  1  0  0  0
 49128  1  0  0  0
 50 51  1  0  0  0
 50129  1  0  0  0
 50130  1  0  0  0
 51 52  1  0  0  0
 51131  1  0  0  0
 51132  1  0  0  0
 52133  1  0  0  0
 52134  1  0  0  0
 53 54  1  0  0  0
 54 55  2  0  0  0
 54135  1  0  0  0
 55 57  1  0  0  0
 55136  1  0  0  0
 56 69  2  0  0  0
 57 58  2  0  0  0
 57137  1  0  0  0
 58138  1  0  0  0
 59 60  1  0  0  0
 59 61  1  0  0  0
 59 62  1  0  0  0
 60139  1  0  0  0
 60140  1  0  0  0
 60141  1  0  0  0
 61142  1  0  0  0
 61143  1  0  0  0
 61144  1  0  0  0
 62145  1  0  0  0
 62146  1  0  0  0
 62147  1  0  0  0
 63 65  1  0  0  0
 63148  1  0  0  0
 63149  1  0  0  0
 63150  1  0  0  0
 64151  1  0  0  0
 65152  1  0  0  0
 68 88  1  0  0  0
 71 72  2  0  0  0
 71 75  1  0  0  0
 71153  1  0  0  0
 72 76  1  0  0  0
 72 79  1  0  0  0
 73 74  1  0  0  0
 73 75  2  0  0  0
 73 77  1  0  0  0
 74 76  2  0  0  0
 74 80  1  0  0  0
 75 92  1  0  0  0
 76 93  1  0  0  0
 77154  1  0  0  0
 77155  1  0  0  0
 77156  1  0  0  0
 78157  1  0  0  0
 78158  1  0  0  0
 78159  1  0  0  0
 78 91  1  0  0  0
 79 90  1  0  0  0
 79160  1  0  0  0
 79161  1  0  0  0
 80 91  1  0  0  0
 80162  1  0  0  0
 80163  1  0  0  0
 81 82  1  0  0  0
 81 83  1  0  0  0
 81164  1  0  0  0
 81165  1  0  0  0
 82 86  1  0  0  0
 82166  1  0  0  0
 82167  1  0  0  0
 83 88  1  0  0  0
 83168  1  0  0  0
 83169  1  0  0  0
 84 85  1  0  0  0
 84 87  1  0  0  0
 84170  1  0  0  0
 84171  1  0  0  0
 85 89  1  0  0  0
 85172  1  0  0  0
 85173  1  0  0  0
 86 91  1  0  0  0
 86174  1  0  0  0
 86175  1  0  0  0
 87 90  1  0  0  0
 87176  1  0  0  0
 87177  1  0  0  0
 88178  1  0  0  0
 88179  1  0  0  0
 89180  1  0  0  0
 90181  1  0  0  0
 90182  1  0  0  0
 91183  1  0  0  0
M  CHG  2  90   1  91   1
M  ISO  4   1 100  68 101  88 101  89 100
M  END
> <chiral flag>
0

> <version>
0

> <s_m_source_file>
/data/baiqing/PycharmProjects/Reinvent-master-3.2/result/LINK_invent/BTK/process_docking_weight1_custom_sum_contain_oxygen_bond_distance_aromatic_linkinvent_7_9_3/rearranged_h_0026.sdf

> <i_m_source_file_index>
77

> <r_mmod_Potential_Energy-OPLS-2005>
16121.2783203125

> <r_mmod_Stretch_Energy-OPLS-2005>
8950.427734375

> <r_mmod_Bend_Energy-OPLS-2005>
1667.29260253906

> <r_mmod_Torsional_Energy-OPLS-2005>
562.53173828125

> <r_mmod_Improper_Torsional_Energy-OPLS-2005>
45.1540336608887

> <r_mmod_Van_der_Waal_Energy-OPLS-2005>
2926.60180664062

> <r_mmod_Electrostatic_Energy-OPLS-2005>
163.430419921875

> <r_mmod_Solvation_Energy-OPLS-2005>
-1040.53479003906

> <b_mmod_Minimization_Converged-OPLS-2005>
0

> <r_mmod_RMS_Derivative-OPLS-2005>
30.4377918243408

$$$$
77
                    3D
 Structure written by MMmdl.
163171  0  0  1  0            999 V2000
  -30.6967  -14.4553   20.6156 C   0  0  0  0  0  0
  -30.4342  -12.3104   19.4014 C   0  0  0  0  0  0
  -29.4906  -12.5203   18.1993 C   0  0  0  0  0  0
  -28.0135  -12.3700   18.6168 C   0  0  0  0  0  0
  -27.6699  -13.1846   19.8897 C   0  0  2  0  0  0
  -28.7217  -12.9157   20.9927 C   0  0  0  0  0  0
  -25.2651  -13.8120   20.5707 C   0  0  0  0  0  0
  -24.1865  -13.0424   20.9181 C   0  0  0  0  0  0
  -24.6398  -11.6885   20.8779 C   0  0  0  0  0  0
  -23.9062  -10.4285   21.0440 C   0  0  0  0  0  0
  -24.3614   -9.4187   21.9201 C   0  0  0  0  0  0
  -23.6281   -8.2235   22.0768 C   0  0  0  0  0  0
  -22.4262   -8.0294   21.3562 C   0  0  0  0  0  0
  -21.9911   -9.0271   20.4654 C   0  0  0  0  0  0
  -22.7251  -10.2148   20.3071 C   0  0  0  0  0  0
  -21.6849   -6.0743   22.5281 C   0  0  0  0  0  0
  -21.4009   -6.5647   23.8214 C   0  0  0  0  0  0
  -21.3656   -5.6805   24.9176 C   0  0  0  0  0  0
  -21.6043   -4.3067   24.7216 C   0  0  0  0  0  0
  -21.8822   -3.8153   23.4337 C   0  0  0  0  0  0
  -21.9192   -4.6971   22.3396 C   0  0  0  0  0  0
  -22.7887  -13.5239   21.1831 C   0  0  0  0  0  0
  -22.1665   -4.2162   21.0975 F   0  0  0  0  0  0
  -21.5624   -3.4542   25.7724 F   0  0  0  0  0  0
  -30.0419  -13.2690   20.4468 N   0  0  0  0  0  0
  -26.3074  -12.9235   20.3468 N   0  0  0  0  0  0
  -25.9322  -11.6419   20.5840 N   0  0  0  0  0  0
  -22.0525  -12.8222   22.0397 N   0  0  0  0  0  0
  -25.4405  -15.1823   20.4108 N   0  0  0  0  0  0
  -31.7876  -14.6594   20.0680 O   0  0  0  0  0  0
  -21.6625   -6.8896   21.4255 O   0  0  0  0  0  0
  -22.3575  -14.5544   20.6684 O   0  0  0  0  0  0
  -24.6148  -31.8682   23.2100 C   0  0  0  0  0  0
  -25.9053  -32.4821   23.8380 C   0  0  1  0  0  0
  -27.2321  -27.4332   20.0950 C   0  0  0  0  0  0
  -25.5927  -33.8620   24.2310 N   0  0  0  0  0  0
  -23.4007  -30.4896   21.5531 C   0  0  2  0  0  0
  -24.8430  -28.9554   20.1127 C   0  0  0  0  0  0
  -22.7412  -29.4633   22.5015 C   0  0  0  0  0  0
  -18.0268  -28.1371   22.8488 C   0  0  0  0  0  0
  -24.1487  -36.7314   23.2619 C   0  0  0  0  0  0
  -25.9278  -30.8341   21.3604 C   0  0  0  0  0  0
  -26.0017  -29.4679   20.7071 C   0  0  0  0  0  0
  -27.1959  -28.7149   20.6914 C   0  0  0  0  0  0
  -26.0540  -26.9318   19.4935 C   0  0  0  0  0  0
  -24.8650  -27.6890   19.5024 C   0  0  0  0  0  0
  -23.6059  -29.8247   20.1651 C   0  0  0  0  0  0
  -25.4100  -36.3102   24.0322 C   0  0  1  0  0  0
  -20.5859  -28.3642   23.1350 C   0  0  2  0  0  0
  -20.6779  -26.9389   22.5437 C   0  0  0  0  0  0
  -19.5754  -26.6378   21.5233 C   0  0  0  0  0  0
  -18.1915  -26.7922   22.1616 C   0  0  0  0  0  0
  -19.1515  -28.8821   23.2918 C   0  0  0  0  0  0
  -18.9439  -30.1434   23.8919 C   0  0  0  0  0  0
  -17.6440  -30.6583   24.0548 C   0  0  0  0  0  0
  -25.9043  -34.9486   23.5110 C   0  0  0  0  0  0
  -16.5338  -29.9085   23.6304 C   0  0  0  0  0  0
  -16.7255  -28.6502   23.0328 C   0  0  0  0  0  0
  -26.4494  -31.6598   25.0706 C   0  0  0  0  0  0
  -25.3762  -31.3735   26.1457 C   0  0  0  0  0  0
  -27.0272  -30.3012   24.6093 C   0  0  0  0  0  0
  -27.6060  -32.4324   25.7485 C   0  0  0  0  0  0
  -27.5611  -37.1777   24.8421 C   0  0  0  0  0  0
  -21.4137  -29.2998   22.3753 N   0  0  0  0  0  0
  -26.4253  -37.3819   23.9458 N   0  0  0  0  0  0
  -24.6658  -31.0773   22.1001 N   0  0  0  0  0  0
  -23.4194  -28.8182   23.3056 O   0  0  0  0  0  0
  -28.4299  -26.7486   20.1251 O   0  0  0  0  0  0
  -26.5611  -34.8934   22.4672 O   0  0  0  0  0  0
  -23.5357  -32.1445   23.7518 O   0  0  0  0  0  0
  -30.0019  -18.9269   19.4818 C   0  0  0  0  0  0
  -30.8651  -19.7616   20.2153 C   0  0  0  0  0  0
  -31.6202  -19.1936   21.2773 C   0  0  0  0  0  0
  -30.4727  -17.0225   20.9575 C   0  0  0  0  0  0
  -29.8075  -17.5814   19.8331 C   0  0  0  0  0  0
  -31.4462  -17.8222   21.6202 C   0  0  0  0  0  0
  -32.6390  -20.0265   22.0521 C   0  0  0  0  0  0
  -28.6622  -21.8956   20.3609 C   0  0  0  0  0  0
  -30.9903  -21.2252   19.7670 C   0  0  0  0  0  0
  -29.6291  -24.7497   20.7182 C   0  0  0  0  0  0
  -30.4614  -23.5972   20.0919 C   0  0  0  0  0  0
  -28.4929  -25.3433   19.8458 C   0  0  0  0  0  0
  -30.0740  -15.6122   21.4593 C   0  0  0  0  0  0
  -30.1106  -22.1984   20.4857 N   0  3  1  0  0  0
  -30.3735  -15.3913   22.7389 F   0  0  0  0  0  0
  -28.7427  -15.6001   21.4135 F   0  0  0  0  0  0
  -28.7329  -16.6694   18.8301 Cl  0  0  0  0  0  0
  -32.4743  -17.1415   22.8397 Cl  0  0  0  0  0  0
  -31.4736  -12.4264   19.0901 H   0  0  0  0  0  0
  -30.3550  -11.2899   19.7803 H   0  0  0  0  0  0
  -29.7259  -11.8105   17.4049 H   0  0  0  0  0  0
  -29.6494  -13.5163   17.7831 H   0  0  0  0  0  0
  -27.8183  -11.3123   18.7949 H   0  0  0  0  0  0
  -27.3584  -12.6671   17.7964 H   0  0  0  0  0  0
  -27.7203  -14.2318   19.6068 H   0  0  0  0  0  0
  -28.7084  -11.8563   21.2528 H   0  0  0  0  0  0
  -28.4922  -13.4191   21.9304 H   0  0  0  0  0  0
  -25.2776   -9.5624   22.4759 H   0  0  0  0  0  0
  -23.9981   -7.4614   22.7470 H   0  0  0  0  0  0
  -21.0865   -8.8809   19.8945 H   0  0  0  0  0  0
  -22.3748  -10.9696   19.6174 H   0  0  0  0  0  0
  -21.2005   -7.6159   23.9716 H   0  0  0  0  0  0
  -21.1479   -6.0538   25.9088 H   0  0  0  0  0  0
  -22.0603   -2.7614   23.2841 H   0  0  0  0  0  0
  -22.4136  -11.9867   22.4744 H   0  0  0  0  0  0
  -21.1160  -13.1271   22.2636 H   0  0  0  0  0  0
  -24.6783  -15.8432   20.5138 H   0  0  0  0  0  0
  -26.3033  -15.6190   20.1119 H   0  0  0  0  0  0
  -26.7122  -32.5523   23.1141 H   0  0  0  0  0  0
  -25.0079  -33.9786   25.0462 H   0  0  0  0  0  0
  -22.6859  -31.3053   21.4203 H   0  0  0  0  0  0
  -23.3783  -35.9601   23.3151 H   0  0  0  0  0  0
  -24.3629  -36.9083   22.2067 H   0  0  0  0  0  0
  -23.7177  -37.6445   23.6733 H   0  0  0  0  0  0
  -26.0390  -31.6022   20.5932 H   0  0  0  0  0  0
  -26.8180  -30.8879   21.9768 H   0  0  0  0  0  0
  -28.0936  -29.1096   21.1478 H   0  0  0  0  0  0
  -26.0339  -25.9669   19.0085 H   0  0  0  0  0  0
  -23.9718  -27.2955   19.0363 H   0  0  0  0  0  0
  -23.7187  -30.6038   19.4099 H   0  0  0  0  0  0
  -22.7280  -29.2495   19.8658 H   0  0  0  0  0  0
  -25.1252  -36.1932   25.0802 H   0  0  0  0  0  0
  -20.9937  -28.3212   24.1478 H   0  0  0  0  0  0
  -20.5736  -26.2229   23.3602 H   0  0  0  0  0  0
  -21.6650  -26.7482   22.1208 H   0  0  0  0  0  0
  -19.6919  -25.6296   21.1252 H   0  0  0  0  0  0
  -19.6706  -27.3196   20.6775 H   0  0  0  0  0  0
  -17.4211  -26.6688   21.3988 H   0  0  0  0  0  0
  -18.0274  -26.0056   22.8990 H   0  0  0  0  0  0
  -19.7906  -30.7246   24.2322 H   0  0  0  0  0  0
  -17.4984  -31.6262   24.5154 H   0  0  0  0  0  0
  -15.5331  -30.2990   23.7625 H   0  0  0  0  0  0
  -15.8651  -28.0836   22.7027 H   0  0  0  0  0  0
  -24.5891  -30.7133   25.7799 H   0  0  0  0  0  0
  -24.9005  -32.2912   26.4922 H   0  0  0  0  0  0
  -25.8107  -30.8873   27.0198 H   0  0  0  0  0  0
  -26.2786  -29.6826   24.1122 H   0  0  0  0  0  0
  -27.3962  -29.7212   25.4563 H   0  0  0  0  0  0
  -27.8677  -30.4263   23.9259 H   0  0  0  0  0  0
  -27.2637  -33.3569   26.2153 H   0  0  0  0  0  0
  -28.3839  -32.7007   25.0321 H   0  0  0  0  0  0
  -28.0778  -31.8407   26.5344 H   0  0  0  0  0  0
  -28.2487  -38.0220   24.7699 H   0  0  0  0  0  0
  -28.1256  -36.2777   24.5930 H   0  0  0  0  0  0
  -27.2380  -37.1040   25.8821 H   0  0  0  0  0  0
  -20.9301  -29.8692   21.6945 H   0  0  0  0  0  0
  -26.0118  -38.2843   24.1630 H   0  0  0  0  0  0
  -29.4585  -19.3224   18.6347 H   0  0  0  0  0  0
  -32.4719  -21.0970   21.9714 H   0  0  0  0  0  0
  -33.6482  -19.8124   21.6958 H   0  0  0  0  0  0
  -32.6002  -19.8042   23.1193 H   0  0  0  0  0  0
  -28.4310  -20.8717   20.6541 H   0  0  0  0  0  0
  -28.3154  -22.0435   19.3377 H   0  0  0  0  0  0
  -28.0682  -22.5353   21.0139 H   0  0  0  0  0  0
  -30.7729  -21.2841   18.6986 H   0  0  0  0  0  0
  -32.0351  -21.5303   19.8461 H   0  0  0  0  0  0
  -30.3386  -25.5605   20.8895 H   0  0  0  0  0  0
  -29.2612  -24.4954   21.7127 H   0  0  0  0  0  0
  -31.4938  -23.7483   20.4120 H   0  0  0  0  0  0
  -30.4746  -23.6938   19.0050 H   0  0  0  0  0  0
  -27.5645  -24.8124   20.0643 H   0  0  0  0  0  0
  -28.7013  -25.2192   18.7812 H   0  0  0  0  0  0
  -30.3326  -22.1029   21.4659 H   0  0  0  0  0  0
  1 25  1  0  0  0
  1 30  2  0  0  0
  1 83  1  0  0  0
  2  3  1  0  0  0
  2 25  1  0  0  0
  2 89  1  0  0  0
  2 90  1  0  0  0
  3  4  1  0  0  0
  3 91  1  0  0  0
  3 92  1  0  0  0
  4  5  1  0  0  0
  4 93  1  0  0  0
  4 94  1  0  0  0
  5  6  1  0  0  0
  5 26  1  0  0  0
  5 95  1  0  0  0
  6 25  1  0  0  0
  6 96  1  0  0  0
  6 97  1  0  0  0
  7  8  2  0  0  0
  7 26  1  0  0  0
  7 29  1  0  0  0
  8  9  1  0  0  0
  8 22  1  0  0  0
  9 10  1  0  0  0
  9 27  2  0  0  0
 10 11  2  0  0  0
 10 15  1  0  0  0
 11 12  1  0  0  0
 11 98  1  0  0  0
 12 13  2  0  0  0
 12 99  1  0  0  0
 13 14  1  0  0  0
 13 31  1  0  0  0
 14 15  2  0  0  0
 14100  1  0  0  0
 15101  1  0  0  0
 16 17  2  0  0  0
 16 21  1  0  0  0
 16 31  1  0  0  0
 17 18  1  0  0  0
 17102  1  0  0  0
 18 19  2  0  0  0
 18103  1  0  0  0
 19 20  1  0  0  0
 19 24  1  0  0  0
 20 21  2  0  0  0
 20104  1  0  0  0
 21 23  1  0  0  0
 22 28  1  0  0  0
 22 32  2  0  0  0
 26 27  1  0  0  0
 28105  1  0  0  0
 28106  1  0  0  0
 29107  1  0  0  0
 29108  1  0  0  0
 33 34  1  0  0  0
 33 66  1  0  0  0
 33 70  2  0  0  0
 34 36  1  0  0  0
 34 59  1  0  0  0
 34109  1  0  0  0
 35 44  2  0  0  0
 35 45  1  0  0  0
 35 68  1  0  0  0
 36 56  1  0  0  0
 36110  1  0  0  0
 37 39  1  0  0  0
 37 47  1  0  0  0
 37 66  1  0  0  0
 37111  1  0  0  0
 38 43  2  0  0  0
 38 46  1  0  0  0
 38 47  1  0  0  0
 39 64  1  0  0  0
 39 67  2  0  0  0
 40 52  1  0  0  0
 40 53  2  0  0  0
 40 58  1  0  0  0
 41112  1  0  0  0
 41113  1  0  0  0
 41114  1  0  0  0
 41 48  1  0  0  0
 42 43  1  0  0  0
 42 66  1  0  0  0
 42115  1  0  0  0
 42116  1  0  0  0
 43 44  1  0  0  0
 44117  1  0  0  0
 45 46  2  0  0  0
 45118  1  0  0  0
 46119  1  0  0  0
 47120  1  0  0  0
 47121  1  0  0  0
 48 56  1  0  0  0
 48 65  1  0  0  0
 48122  1  0  0  0
 49 50  1  0  0  0
 49 53  1  0  0  0
 49 64  1  0  0  0
 49123  1  0  0  0
 50 51  1  0  0  0
 50124  1  0  0  0
 50125  1  0  0  0
 51 52  1  0  0  0
 51126  1  0  0  0
 51127  1  0  0  0
 52128  1  0  0  0
 52129  1  0  0  0
 53 54  1  0  0  0
 54 55  2  0  0  0
 54130  1  0  0  0
 55 57  1  0  0  0
 55131  1  0  0  0
 56 69  2  0  0  0
 57 58  2  0  0  0
 57132  1  0  0  0
 58133  1  0  0  0
 59 60  1  0  0  0
 59 61  1  0  0  0
 59 62  1  0  0  0
 60134  1  0  0  0
 60135  1  0  0  0
 60136  1  0  0  0
 61137  1  0  0  0
 61138  1  0  0  0
 61139  1  0  0  0
 62140  1  0  0  0
 62141  1  0  0  0
 62142  1  0  0  0
 63 65  1  0  0  0
 63143  1  0  0  0
 63144  1  0  0  0
 63145  1  0  0  0
 64146  1  0  0  0
 65147  1  0  0  0
 68 82  1  0  0  0
 71 72  2  0  0  0
 71 75  1  0  0  0
 71148  1  0  0  0
 72 73  1  0  0  0
 72 79  1  0  0  0
 73 76  2  0  0  0
 73 77  1  0  0  0
 74 75  2  0  0  0
 74 76  1  0  0  0
 74 83  1  0  0  0
 75 87  1  0  0  0
 76 88  1  0  0  0
 77149  1  0  0  0
 77150  1  0  0  0
 77151  1  0  0  0
 78152  1  0  0  0
 78153  1  0  0  0
 78154  1  0  0  0
 78 84  1  0  0  0
 79 84  1  0  0  0
 79155  1  0  0  0
 79156  1  0  0  0
 80 81  1  0  0  0
 80 82  1  0  0  0
 80157  1  0  0  0
 80158  1  0  0  0
 81 84  1  0  0  0
 81159  1  0  0  0
 81160  1  0  0  0
 82161  1  0  0  0
 82162  1  0  0  0
 83 85  1  0  0  0
 83 86  1  0  0  0
 84163  1  0  0  0
M  CHG  1  84   1
M  ISO  4   1 100  68 101  82 101  83 100
M  END
> <chiral flag>
0

> <version>
0

> <s_m_source_file>
/data/baiqing/PycharmProjects/Reinvent-master-3.2/result/LINK_invent/BTK/process_docking_weight1_custom_sum_contain_oxygen_bond_distance_aromatic_linkinvent_7_9_3/rearranged_h_0026.sdf

> <i_m_source_file_index>
78

> <r_mmod_Potential_Energy-OPLS-2005>
-92.785514831543

> <r_mmod_Stretch_Energy-OPLS-2005>
43.8484764099121

> <r_mmod_Bend_Energy-OPLS-2005>
123.007148742676

> <r_mmod_Torsional_Energy-OPLS-2005>
186.663131713867

> <r_mmod_Improper_Torsional_Energy-OPLS-2005>
2.14842844009399

> <r_mmod_Van_der_Waal_Energy-OPLS-2005>
168.35578918457

> <r_mmod_Electrostatic_Energy-OPLS-2005>
-195.296997070312

> <r_mmod_Solvation_Energy-OPLS-2005>
-433.189208984375

> <b_mmod_Minimization_Converged-OPLS-2005>
0

> <r_mmod_RMS_Derivative-OPLS-2005>
2.87005138397217

$$$$
78
                    3D
 Structure written by MMmdl.
159167  0  0  1  0            999 V2000
  -30.7672  -14.4468   20.5361 C   0  0  0  0  0  0
  -30.3945  -12.2891   19.4294 C   0  0  0  0  0  0
  -29.4871  -12.5010   18.2033 C   0  0  0  0  0  0
  -28.0075  -12.3715   18.6153 C   0  0  0  0  0  0
  -27.6511  -13.2268   19.8633 C   0  0  2  0  0  0
  -28.6937  -13.0615   20.9924 C   0  0  0  0  0  0
  -25.2494  -13.8216   20.5702 C   0  0  0  0  0  0
  -24.1771  -13.0428   20.9172 C   0  0  0  0  0  0
  -24.6357  -11.6915   20.8713 C   0  0  0  0  0  0
  -23.9053  -10.4276   21.0388 C   0  0  0  0  0  0
  -24.3601   -9.4185   21.9159 C   0  0  0  0  0  0
  -23.6269   -8.2220   22.0740 C   0  0  0  0  0  0
  -22.4247   -8.0257   21.3543 C   0  0  0  0  0  0
  -21.9883   -9.0229   20.4642 C   0  0  0  0  0  0
  -22.7220  -10.2105   20.3048 C   0  0  0  0  0  0
  -21.6839   -6.0702   22.5277 C   0  0  0  0  0  0
  -21.4001   -6.5619   23.8205 C   0  0  0  0  0  0
  -21.3676   -5.6790   24.9182 C   0  0  0  0  0  0
  -21.6046   -4.3055   24.7239 C   0  0  0  0  0  0
  -21.8817   -3.8121   23.4367 C   0  0  0  0  0  0
  -21.9179   -4.6920   22.3413 C   0  0  0  0  0  0
  -22.7802  -13.5209   21.1874 C   0  0  0  0  0  0
  -22.1647   -4.2097   21.0989 F   0  0  0  0  0  0
  -21.5647   -3.4550   25.7761 F   0  0  0  0  0  0
  -30.0271  -13.3133   20.4217 N   0  0  0  0  0  0
  -26.2948  -12.9438   20.3330 N   0  0  0  0  0  0
  -25.9289  -11.6572   20.5714 N   0  0  0  0  0  0
  -22.0507  -12.8155   22.0467 N   0  0  0  0  0  0
  -25.4202  -15.1943   20.4223 N   0  0  0  0  0  0
  -31.9165  -14.5264   20.0958 O   0  0  0  0  0  0
  -21.6610   -6.8844   21.4246 O   0  0  0  0  0  0
  -22.3439  -14.5494   20.6735 O   0  0  0  0  0  0
  -24.6202  -31.8678   23.2136 C   0  0  0  0  0  0
  -25.9087  -32.4813   23.8420 C   0  0  1  0  0  0
  -27.2256  -27.4082   20.0880 C   0  0  0  0  0  0
  -25.5953  -33.8613   24.2334 N   0  0  0  0  0  0
  -23.4055  -30.5000   21.5517 C   0  0  2  0  0  0
  -24.8492  -28.9662   20.1199 C   0  0  0  0  0  0
  -22.7436  -29.4682   22.4973 C   0  0  0  0  0  0
  -18.0289  -28.1408   22.8593 C   0  0  0  0  0  0
  -24.1498  -36.7321   23.2641 C   0  0  0  0  0  0
  -25.9433  -30.8282   21.3719 C   0  0  0  0  0  0
  -26.0125  -29.4584   20.7233 C   0  0  0  0  0  0
  -27.1992  -28.6850   20.7058 C   0  0  0  0  0  0
  -26.0347  -26.9429   19.4773 C   0  0  0  0  0  0
  -24.8588  -27.7106   19.4959 C   0  0  0  0  0  0
  -23.6168  -29.8416   20.1635 C   0  0  0  0  0  0
  -25.4120  -36.3098   24.0336 C   0  0  1  0  0  0
  -20.5896  -28.3717   23.1378 C   0  0  2  0  0  0
  -20.6796  -26.9440   22.5471 C   0  0  0  0  0  0
  -19.5749  -26.6421   21.5319 C   0  0  0  0  0  0
  -18.1956  -26.7917   22.1820 C   0  0  0  0  0  0
  -19.1540  -28.8891   23.2967 C   0  0  0  0  0  0
  -18.9449  -30.1540   23.8881 C   0  0  0  0  0  0
  -17.6442  -30.6680   24.0498 C   0  0  0  0  0  0
  -25.9054  -34.9460   23.5117 C   0  0  0  0  0  0
  -16.5327  -29.9117   23.6328 C   0  0  0  0  0  0
  -16.7277  -28.6514   23.0408 C   0  0  0  0  0  0
  -26.4496  -31.6603   25.0739 C   0  0  0  0  0  0
  -25.3744  -31.3707   26.1467 C   0  0  0  0  0  0
  -27.0327  -30.3051   24.6105 C   0  0  0  0  0  0
  -27.6083  -32.4314   25.7499 C   0  0  0  0  0  0
  -27.5594  -37.1821   24.8468 C   0  0  0  0  0  0
  -21.4159  -29.3057   22.3743 N   0  0  0  0  0  0
  -26.4310  -37.3784   23.9412 N   0  0  0  0  0  0
  -24.6750  -31.0806   22.1036 N   0  0  0  0  0  0
  -23.4212  -28.8209   23.3007 O   0  0  0  0  0  0
  -28.4151  -26.6938   20.0905 O   0  0  0  0  0  0
  -26.5579  -34.8900   22.4656 O   0  0  0  0  0  0
  -23.5396  -32.1427   23.7529 O   0  0  0  0  0  0
  -29.1748  -18.4362   20.0047 C   0  0  0  0  0  0
  -28.7619  -19.8075   20.1204 C   0  0  0  0  0  0
  -30.1196  -18.1019   20.9525 C   0  0  0  0  0  0
  -29.3987  -20.5228   21.1033 C   0  0  0  0  0  0
  -28.6378  -17.4989   18.9585 C   0  0  0  0  0  0
  -27.5943  -24.4478   21.9687 C   0  0  0  0  0  0
  -30.8868  -16.8263   21.1831 C   0  0  0  0  0  0
  -29.1676  -21.9399   21.5727 C   0  0  0  0  0  0
  -28.4678  -25.2959   19.7188 C   0  0  0  0  0  0
  -28.7399  -24.3674   20.9362 C   0  0  2  0  0  0
  -30.1650  -15.5486   21.0201 N   0  0  0  0  0  0
  -29.0189  -22.9574   20.4969 N   0  3  0  0  0  0
  -30.5252  -19.4902   21.9408 S   0  0  0  0  0  0
  -27.5629  -20.4311   19.0826 Cl  0  0  0  0  0  0
  -31.4481  -12.3249   19.1425 H   0  0  0  0  0  0
  -30.2440  -11.2945   19.8538 H   0  0  0  0  0  0
  -29.7258  -11.7765   17.4233 H   0  0  0  0  0  0
  -29.6670  -13.4882   17.7738 H   0  0  0  0  0  0
  -27.8205  -11.3181   18.8253 H   0  0  0  0  0  0
  -27.3598  -12.6388   17.7768 H   0  0  0  0  0  0
  -27.6773  -14.2687   19.5421 H   0  0  0  0  0  0
  -28.6524  -12.0535   21.4075 H   0  0  0  0  0  0
  -28.4652  -13.7348   21.8210 H   0  0  0  0  0  0
  -25.2765   -9.5623   22.4715 H   0  0  0  0  0  0
  -23.9980   -7.4589   22.7435 H   0  0  0  0  0  0
  -21.0831   -8.8729   19.8929 H   0  0  0  0  0  0
  -22.3686  -10.9618   19.6137 H   0  0  0  0  0  0
  -21.1980   -7.6122   23.9696 H   0  0  0  0  0  0
  -21.1523   -6.0524   25.9084 H   0  0  0  0  0  0
  -22.0576   -2.7574   23.2891 H   0  0  0  0  0  0
  -22.4197  -11.9818   22.4799 H   0  0  0  0  0  0
  -21.1113  -13.1116   22.2749 H   0  0  0  0  0  0
  -24.6642  -15.8578   20.5578 H   0  0  0  0  0  0
  -26.2890  -15.6305   20.1474 H   0  0  0  0  0  0
  -26.7163  -32.5494   23.1204 H   0  0  0  0  0  0
  -25.0177  -33.9795   25.0516 H   0  0  0  0  0  0
  -22.6961  -31.3209   21.4166 H   0  0  0  0  0  0
  -23.3738  -35.9677   23.3306 H   0  0  0  0  0  0
  -24.3609  -36.8927   22.2059 H   0  0  0  0  0  0
  -23.7258  -37.6543   23.6630 H   0  0  0  0  0  0
  -26.0618  -31.5968   20.6051 H   0  0  0  0  0  0
  -26.8348  -30.8856   21.9861 H   0  0  0  0  0  0
  -28.0985  -29.0614   21.1723 H   0  0  0  0  0  0
  -25.9544  -26.0074   18.9498 H   0  0  0  0  0  0
  -23.9718  -27.3306   19.0090 H   0  0  0  0  0  0
  -23.7406  -30.6245   19.4149 H   0  0  0  0  0  0
  -22.7372  -29.2762   19.8487 H   0  0  0  0  0  0
  -25.1284  -36.1992   25.0831 H   0  0  0  0  0  0
  -21.0035  -28.3344   24.1482 H   0  0  0  0  0  0
  -21.6665  -26.7472   22.1243 H   0  0  0  0  0  0
  -20.5769  -26.2302   23.3659 H   0  0  0  0  0  0
  -19.6883  -25.6368   21.1276 H   0  0  0  0  0  0
  -19.6639  -27.3285   20.6882 H   0  0  0  0  0  0
  -17.4157  -26.6534   21.4319 H   0  0  0  0  0  0
  -18.0490  -26.0112   22.9318 H   0  0  0  0  0  0
  -19.7920  -30.7406   24.2160 H   0  0  0  0  0  0
  -17.4973  -31.6406   24.5005 H   0  0  0  0  0  0
  -15.5305  -30.2980   23.7673 H   0  0  0  0  0  0
  -15.8682  -28.0780   22.7158 H   0  0  0  0  0  0
  -24.5915  -30.7064   25.7795 H   0  0  0  0  0  0
  -24.8913  -32.2854   26.4927 H   0  0  0  0  0  0
  -25.8095  -30.8862   27.0219 H   0  0  0  0  0  0
  -26.2859  -29.6831   24.1150 H   0  0  0  0  0  0
  -27.4124  -29.7296   25.4569 H   0  0  0  0  0  0
  -27.8695  -30.4414   23.9240 H   0  0  0  0  0  0
  -27.2715  -33.3610   26.2128 H   0  0  0  0  0  0
  -28.3870  -32.6908   25.0295 H   0  0  0  0  0  0
  -28.0763  -31.8375   26.5371 H   0  0  0  0  0  0
  -28.2608  -38.0120   24.7486 H   0  0  0  0  0  0
  -28.1087  -36.2645   24.6304 H   0  0  0  0  0  0
  -27.2311  -37.1488   25.8873 H   0  0  0  0  0  0
  -20.9308  -29.8754   21.6953 H   0  0  0  0  0  0
  -26.0201  -38.2886   24.1349 H   0  0  0  0  0  0
  -28.4032  -18.0220   18.0318 H   0  0  0  0  0  0
  -27.7149  -17.0269   19.2919 H   0  0  0  0  0  0
  -29.3488  -16.7146   18.6980 H   0  0  0  0  0  0
  -27.8726  -23.9873   22.9169 H   0  0  0  0  0  0
  -26.6844  -23.9643   21.6142 H   0  0  0  0  0  0
  -27.3515  -25.4832   22.2072 H   0  0  0  0  0  0
  -31.7523  -16.8790   20.5207 H   0  0  0  0  0  0
  -31.3132  -16.8328   22.1873 H   0  0  0  0  0  0
  -29.9713  -22.2510   22.2423 H   0  0  0  0  0  0
  -28.2594  -21.9204   22.1708 H   0  0  0  0  0  0
  -29.2927  -25.1972   19.0123 H   0  0  0  0  0  0
  -27.6035  -24.9243   19.1761 H   0  0  0  0  0  0
  -29.6407  -24.7392   21.4228 H   0  0  0  0  0  0
  -29.2010  -15.4895   21.3128 H   0  0  0  0  0  0
  -28.2791  -22.6333   19.8904 H   0  0  0  0  0  0
  -29.8691  -22.9455   19.9515 H   0  0  0  0  0  0
  1 25  1  0  0  0
  1 30  2  0  0  0
  1 81  1  0  0  0
  2  3  1  0  0  0
  2 25  1  0  0  0
  2 85  1  0  0  0
  2 86  1  0  0  0
  3  4  1  0  0  0
  3 87  1  0  0  0
  3 88  1  0  0  0
  4  5  1  0  0  0
  4 89  1  0  0  0
  4 90  1  0  0  0
  5  6  1  0  0  0
  5 26  1  0  0  0
  5 91  1  0  0  0
  6 25  1  0  0  0
  6 92  1  0  0  0
  6 93  1  0  0  0
  7  8  2  0  0  0
  7 26  1  0  0  0
  7 29  1  0  0  0
  8  9  1  0  0  0
  8 22  1  0  0  0
  9 10  1  0  0  0
  9 27  2  0  0  0
 10 11  2  0  0  0
 10 15  1  0  0  0
 11 12  1  0  0  0
 11 94  1  0  0  0
 12 13  2  0  0  0
 12 95  1  0  0  0
 13 14  1  0  0  0
 13 31  1  0  0  0
 14 15  2  0  0  0
 14 96  1  0  0  0
 15 97  1  0  0  0
 16 17  2  0  0  0
 16 21  1  0  0  0
 16 31  1  0  0  0
 17 18  1  0  0  0
 17 98  1  0  0  0
 18 19  2  0  0  0
 18 99  1  0  0  0
 19 20  1  0  0  0
 19 24  1  0  0  0
 20 21  2  0  0  0
 20100  1  0  0  0
 21 23  1  0  0  0
 22 28  1  0  0  0
 22 32  2  0  0  0
 26 27  1  0  0  0
 28101  1  0  0  0
 28102  1  0  0  0
 29103  1  0  0  0
 29104  1  0  0  0
 33 34  1  0  0  0
 33 66  1  0  0  0
 33 70  2  0  0  0
 34 36  1  0  0  0
 34 59  1  0  0  0
 34105  1  0  0  0
 35 44  2  0  0  0
 35 45  1  0  0  0
 35 68  1  0  0  0
 36 56  1  0  0  0
 36106  1  0  0  0
 37 39  1  0  0  0
 37 47  1  0  0  0
 37 66  1  0  0  0
 37107  1  0  0  0
 38 43  2  0  0  0
 38 46  1  0  0  0
 38 47  1  0  0  0
 39 64  1  0  0  0
 39 67  2  0  0  0
 40 52  1  0  0  0
 40 53  2  0  0  0
 40 58  1  0  0  0
 41108  1  0  0  0
 41109  1  0  0  0
 41110  1  0  0  0
 41 48  1  0  0  0
 42 43  1  0  0  0
 42 66  1  0  0  0
 42111  1  0  0  0
 42112  1  0  0  0
 43 44  1  0  0  0
 44113  1  0  0  0
 45 46  2  0  0  0
 45114  1  0  0  0
 46115  1  0  0  0
 47116  1  0  0  0
 47117  1  0  0  0
 48 56  1  0  0  0
 48 65  1  0  0  0
 48118  1  0  0  0
 49 50  1  0  0  0
 49 53  1  0  0  0
 49 64  1  0  0  0
 49119  1  0  0  0
 50 51  1  0  0  0
 50120  1  0  0  0
 50121  1  0  0  0
 51 52  1  0  0  0
 51122  1  0  0  0
 51123  1  0  0  0
 52124  1  0  0  0
 52125  1  0  0  0
 53 54  1  0  0  0
 54 55  2  0  0  0
 54126  1  0  0  0
 55 57  1  0  0  0
 55127  1  0  0  0
 56 69  2  0  0  0
 57 58  2  0  0  0
 57128  1  0  0  0
 58129  1  0  0  0
 59 60  1  0  0  0
 59 61  1  0  0  0
 59 62  1  0  0  0
 60130  1  0  0  0
 60131  1  0  0  0
 60132  1  0  0  0
 61133  1  0  0  0
 61134  1  0  0  0
 61135  1  0  0  0
 62136  1  0  0  0
 62137  1  0  0  0
 62138  1  0  0  0
 63 65  1  0  0  0
 63139  1  0  0  0
 63140  1  0  0  0
 63141  1  0  0  0
 64142  1  0  0  0
 65143  1  0  0  0
 68 79  1  0  0  0
 71 72  1  0  0  0
 71 73  2  0  0  0
 71 75  1  0  0  0
 72 74  2  0  0  0
 72 84  1  0  0  0
 73 77  1  0  0  0
 73 83  1  0  0  0
 74 78  1  0  0  0
 74 83  1  0  0  0
 75144  1  0  0  0
 75145  1  0  0  0
 75146  1  0  0  0
 76147  1  0  0  0
 76148  1  0  0  0
 76149  1  0  0  0
 76 80  1  0  0  0
 77 81  1  0  0  0
 77150  1  0  0  0
 77151  1  0  0  0
 78 82  1  0  0  0
 78152  1  0  0  0
 78153  1  0  0  0
 79 80  1  0  0  0
 79154  1  0  0  0
 79155  1  0  0  0
 80 82  1  0  0  0
 80156  1  0  0  0
 81157  1  0  0  0
 82158  1  0  0  0
 82159  1  0  0  0
M  CHG  1  82   1
M  ISO  4   1 100  68 101  79 101  81 100
M  END
> <chiral flag>
0

> <version>
0

> <s_m_source_file>
/data/baiqing/PycharmProjects/Reinvent-master-3.2/result/LINK_invent/BTK/process_docking_weight1_custom_sum_contain_oxygen_bond_distance_aromatic_linkinvent_7_9_3/rearranged_h_0026.sdf

> <i_m_source_file_index>
79

> <r_mmod_Potential_Energy-OPLS-2005>
-247.845718383789

> <r_mmod_Stretch_Energy-OPLS-2005>
39.0344734191895

> <r_mmod_Bend_Energy-OPLS-2005>
119.549034118652

> <r_mmod_Torsional_Energy-OPLS-2005>
191.793472290039

> <r_mmod_Improper_Torsional_Energy-OPLS-2005>
3.20911264419556

> <r_mmod_Van_der_Waal_Energy-OPLS-2005>
132.470062255859

> <r_mmod_Electrostatic_Energy-OPLS-2005>
-314.074279785156

> <r_mmod_Solvation_Energy-OPLS-2005>
-439.181457519531

> <b_mmod_Minimization_Converged-OPLS-2005>
0

> <r_mmod_RMS_Derivative-OPLS-2005>
4.79659795761108

$$$$
79
                    3D
 Structure written by MMmdl.
165173  0  0  1  0            999 V2000
  -30.7739  -14.3595   20.7171 C   0  0  0  0  0  0
  -30.4185  -12.2978   19.4038 C   0  0  0  0  0  0
  -29.4886  -12.5208   18.1975 C   0  0  0  0  0  0
  -28.0135  -12.3675   18.6139 C   0  0  0  0  0  0
  -27.6629  -13.2002   19.8756 C   0  0  2  0  0  0
  -28.6946  -12.9529   20.9943 C   0  0  0  0  0  0
  -25.2607  -13.8163   20.5692 C   0  0  0  0  0  0
  -24.1845  -13.0449   20.9185 C   0  0  0  0  0  0
  -24.6382  -11.6914   20.8710 C   0  0  0  0  0  0
  -23.9032  -10.4309   21.0393 C   0  0  0  0  0  0
  -24.3591   -9.4236   21.9186 C   0  0  0  0  0  0
  -23.6276   -8.2258   22.0753 C   0  0  0  0  0  0
  -22.4261   -8.0291   21.3534 C   0  0  0  0  0  0
  -21.9890   -9.0259   20.4635 C   0  0  0  0  0  0
  -22.7204  -10.2148   20.3046 C   0  0  0  0  0  0
  -21.6844   -6.0745   22.5286 C   0  0  0  0  0  0
  -21.4015   -6.5648   23.8226 C   0  0  0  0  0  0
  -21.3647   -5.6794   24.9184 C   0  0  0  0  0  0
  -21.6037   -4.3052   24.7227 C   0  0  0  0  0  0
  -21.8805   -3.8154   23.4349 C   0  0  0  0  0  0
  -21.9190   -4.6978   22.3412 C   0  0  0  0  0  0
  -22.7878  -13.5255   21.1857 C   0  0  0  0  0  0
  -22.1659   -4.2169   21.0989 F   0  0  0  0  0  0
  -21.5622   -3.4533   25.7742 F   0  0  0  0  0  0
  -30.0383  -13.2461   20.4601 N   0  0  0  0  0  0
  -26.3020  -12.9304   20.3330 N   0  0  0  0  0  0
  -25.9301  -11.6475   20.5724 N   0  0  0  0  0  0
  -22.0477  -12.8250   22.0386 N   0  0  0  0  0  0
  -25.4343  -15.1885   20.4146 N   0  0  0  0  0  0
  -31.8010  -14.6398   20.0952 O   0  0  0  0  0  0
  -21.6625   -6.8892   21.4247 O   0  0  0  0  0  0
  -22.3596  -14.5570   20.6713 O   0  0  0  0  0  0
  -24.6148  -31.8696   23.2116 C   0  0  0  0  0  0
  -25.9050  -32.4820   23.8403 C   0  0  1  0  0  0
  -27.2310  -27.4348   20.0657 C   0  0  0  0  0  0
  -25.5907  -33.8617   24.2342 N   0  0  0  0  0  0
  -23.4012  -30.4962   21.5564 C   0  0  2  0  0  0
  -24.8406  -28.9630   20.1198 C   0  0  0  0  0  0
  -22.7404  -29.4681   22.5028 C   0  0  0  0  0  0
  -18.0282  -28.1364   22.8496 C   0  0  0  0  0  0
  -24.1488  -36.7320   23.2637 C   0  0  0  0  0  0
  -25.9308  -30.8343   21.3615 C   0  0  0  0  0  0
  -26.0070  -29.4688   20.7063 C   0  0  0  0  0  0
  -27.2034  -28.7136   20.6743 C   0  0  0  0  0  0
  -26.0310  -26.9381   19.4989 C   0  0  0  0  0  0
  -24.8469  -27.6950   19.5198 C   0  0  0  0  0  0
  -23.6051  -29.8315   20.1711 C   0  0  0  0  0  0
  -25.4101  -36.3109   24.0337 C   0  0  1  0  0  0
  -20.5863  -28.3646   23.1335 C   0  0  2  0  0  0
  -20.6760  -26.9386   22.5416 C   0  0  0  0  0  0
  -19.5734  -26.6385   21.5211 C   0  0  0  0  0  0
  -18.1921  -26.7912   22.1623 C   0  0  0  0  0  0
  -19.1524  -28.8824   23.2907 C   0  0  0  0  0  0
  -18.9455  -30.1442   23.8890 C   0  0  0  0  0  0
  -17.6453  -30.6562   24.0570 C   0  0  0  0  0  0
  -25.9028  -34.9470   23.5139 C   0  0  0  0  0  0
  -16.5344  -29.9068   23.6315 C   0  0  0  0  0  0
  -16.7271  -28.6497   23.0323 C   0  0  0  0  0  0
  -26.4470  -31.6577   25.0719 C   0  0  0  0  0  0
  -25.3730  -31.3671   26.1468 C   0  0  0  0  0  0
  -27.0312  -30.3023   24.6074 C   0  0  0  0  0  0
  -27.6062  -32.4290   25.7466 C   0  0  0  0  0  0
  -27.5581  -37.1799   24.8459 C   0  0  0  0  0  0
  -21.4136  -29.3023   22.3743 N   0  0  0  0  0  0
  -26.4281  -37.3796   23.9417 N   0  0  0  0  0  0
  -24.6692  -31.0788   22.1026 N   0  0  0  0  0  0
  -23.4181  -28.8213   23.3064 O   0  0  0  0  0  0
  -28.4227  -26.7268   20.0324 O   0  0  0  0  0  0
  -26.5582  -34.8922   22.4698 O   0  0  0  0  0  0
  -23.5345  -32.1487   23.7485 O   0  0  0  0  0  0
  -33.1990  -16.8864   21.5620 C   0  0  0  0  0  0
  -33.4647  -19.1530   20.7228 C   0  0  0  0  0  0
  -31.8509  -17.1472   21.8867 C   0  0  0  0  0  0
  -32.1212  -19.4436   21.0495 C   0  0  0  0  0  0
  -33.9991  -17.8772   20.9711 C   0  0  0  0  0  0
  -31.3040  -18.4297   21.6183 C   0  0  0  0  0  0
  -31.0934  -22.5526   17.4532 C   0  0  0  0  0  0
  -31.0562  -16.0470   22.5904 C   0  0  0  0  0  0
  -31.6093  -20.8615   20.8141 C   0  0  0  0  0  0
  -29.7641  -24.7003   19.5672 C   0  0  0  0  0  0
  -29.7106  -23.1518   19.5068 C   0  0  0  0  0  0
  -28.3672  -25.3355   19.6855 C   0  0  0  0  0  0
  -31.0126  -22.4810   18.9914 C   0  0  1  0  0  0
  -30.3330  -15.0838   21.7550 N   0  0  0  0  0  0
  -31.1397  -21.0640   19.4244 N   0  3  0  0  0  0
  -35.6421  -17.5329   20.5696 Cl  0  0  0  0  0  0
  -29.6480  -18.7641   21.9941 Cl  0  0  0  0  0  0
  -31.4644  -12.4021   19.1077 H   0  0  0  0  0  0
  -30.3228  -11.2780   19.7800 H   0  0  0  0  0  0
  -29.7319  -11.8166   17.4008 H   0  0  0  0  0  0
  -29.6581  -13.5174   17.7845 H   0  0  0  0  0  0
  -27.8322  -11.3095   18.8101 H   0  0  0  0  0  0
  -27.3562  -12.6372   17.7865 H   0  0  0  0  0  0
  -27.7185  -14.2537   19.5999 H   0  0  0  0  0  0
  -28.6577  -11.9121   21.3196 H   0  0  0  0  0  0
  -28.4246  -13.5328   21.8777 H   0  0  0  0  0  0
  -25.2734   -9.5724   22.4772 H   0  0  0  0  0  0
  -23.9988   -7.4653   22.7478 H   0  0  0  0  0  0
  -21.0821   -8.8749   19.8955 H   0  0  0  0  0  0
  -22.3637  -10.9674   19.6157 H   0  0  0  0  0  0
  -21.1998   -7.6155   23.9738 H   0  0  0  0  0  0
  -21.1482   -6.0524   25.9093 H   0  0  0  0  0  0
  -22.0592   -2.7619   23.2839 H   0  0  0  0  0  0
  -22.4013  -11.9898   22.4813 H   0  0  0  0  0  0
  -21.1101  -13.1320   22.2521 H   0  0  0  0  0  0
  -24.6741  -15.8469   20.5430 H   0  0  0  0  0  0
  -26.2904  -15.6302   20.1019 H   0  0  0  0  0  0
  -26.7111  -32.5527   23.1164 H   0  0  0  0  0  0
  -25.0038  -33.9770   25.0473 H   0  0  0  0  0  0
  -22.6894  -31.3126   21.4211 H   0  0  0  0  0  0
  -23.3738  -35.9661   23.3285 H   0  0  0  0  0  0
  -24.3591  -36.8962   22.2057 H   0  0  0  0  0  0
  -23.7243  -37.6524   23.6660 H   0  0  0  0  0  0
  -26.0342  -31.5999   20.5923 H   0  0  0  0  0  0
  -26.8221  -30.8939   21.9738 H   0  0  0  0  0  0
  -28.1081  -29.1094   21.1153 H   0  0  0  0  0  0
  -25.9711  -25.9727   19.0209 H   0  0  0  0  0  0
  -23.9456  -27.2967   19.0741 H   0  0  0  0  0  0
  -23.7108  -30.6101   19.4146 H   0  0  0  0  0  0
  -22.7259  -29.2558   19.8748 H   0  0  0  0  0  0
  -25.1268  -36.1985   25.0825 H   0  0  0  0  0  0
  -20.9948  -28.3211   24.1467 H   0  0  0  0  0  0
  -20.5690  -26.2246   23.3602 H   0  0  0  0  0  0
  -21.6634  -26.7439   22.1201 H   0  0  0  0  0  0
  -19.6890  -25.6314   21.1211 H   0  0  0  0  0  0
  -19.6663  -27.3214   20.6761 H   0  0  0  0  0  0
  -17.4194  -26.6675   21.4029 H   0  0  0  0  0  0
  -18.0311  -26.0050   22.9013 H   0  0  0  0  0  0
  -19.7933  -30.7265   24.2240 H   0  0  0  0  0  0
  -17.5006  -31.6234   24.5187 H   0  0  0  0  0  0
  -15.5341  -30.2955   23.7641 H   0  0  0  0  0  0
  -15.8684  -28.0826   22.6978 H   0  0  0  0  0  0
  -24.5909  -30.7012   25.7806 H   0  0  0  0  0  0
  -24.8887  -32.2816   26.4906 H   0  0  0  0  0  0
  -25.8086  -30.8853   27.0231 H   0  0  0  0  0  0
  -26.2860  -29.6760   24.1155 H   0  0  0  0  0  0
  -27.4154  -29.7277   25.4508 H   0  0  0  0  0  0
  -27.8655  -30.4371   23.9181 H   0  0  0  0  0  0
  -27.2713  -33.3606   26.2040 H   0  0  0  0  0  0
  -28.3856  -32.6825   25.0266 H   0  0  0  0  0  0
  -28.0733  -31.8404   26.5374 H   0  0  0  0  0  0
  -28.2580  -38.0115   24.7533 H   0  0  0  0  0  0
  -28.1109  -36.2648   24.6261 H   0  0  0  0  0  0
  -27.2305  -37.1427   25.8864 H   0  0  0  0  0  0
  -20.9289  -29.8779   21.6989 H   0  0  0  0  0  0
  -26.0181  -38.2880   24.1428 H   0  0  0  0  0  0
  -33.6265  -15.9139   21.7638 H   0  0  0  0  0  0
  -34.1026  -19.9133   20.2936 H   0  0  0  0  0  0
  -31.0256  -23.5802   17.0949 H   0  0  0  0  0  0
  -30.2846  -21.9931   16.9801 H   0  0  0  0  0  0
  -32.0359  -22.1465   17.0817 H   0  0  0  0  0  0
  -30.3441  -16.4959   23.2829 H   0  0  0  0  0  0
  -31.7377  -15.4818   23.2282 H   0  0  0  0  0  0
  -32.4342  -21.5433   21.0290 H   0  0  0  0  0  0
  -30.8278  -21.1265   21.5249 H   0  0  0  0  0  0
  -30.2470  -25.1022   18.6763 H   0  0  0  0  0  0
  -30.3825  -25.0061   20.4117 H   0  0  0  0  0  0
  -28.8784  -22.8361   18.8757 H   0  0  0  0  0  0
  -29.4661  -22.7938   20.5064 H   0  0  0  0  0  0
  -27.7812  -24.8071   20.4398 H   0  0  0  0  0  0
  -27.8817  -25.1906   18.7205 H   0  0  0  0  0  0
  -31.8719  -23.0275   19.3858 H   0  0  0  0  0  0
  -29.4603  -14.7590   22.1438 H   0  0  0  0  0  0
  -30.2733  -20.5701   19.2779 H   0  0  0  0  0  0
  -31.8277  -20.6312   18.8293 H   0  0  0  0  0  0
  1 25  1  0  0  0
  1 30  2  0  0  0
  1 84  1  0  0  0
  2  3  1  0  0  0
  2 25  1  0  0  0
  2 88  1  0  0  0
  2 89  1  0  0  0
  3  4  1  0  0  0
  3 90  1  0  0  0
  3 91  1  0  0  0
  4  5  1  0  0  0
  4 92  1  0  0  0
  4 93  1  0  0  0
  5  6  1  0  0  0
  5 26  1  0  0  0
  5 94  1  0  0  0
  6 25  1  0  0  0
  6 95  1  0  0  0
  6 96  1  0  0  0
  7  8  2  0  0  0
  7 26  1  0  0  0
  7 29  1  0  0  0
  8  9  1  0  0  0
  8 22  1  0  0  0
  9 10  1  0  0  0
  9 27  2  0  0  0
 10 11  2  0  0  0
 10 15  1  0  0  0
 11 12  1  0  0  0
 11 97  1  0  0  0
 12 13  2  0  0  0
 12 98  1  0  0  0
 13 14  1  0  0  0
 13 31  1  0  0  0
 14 15  2  0  0  0
 14 99  1  0  0  0
 15100  1  0  0  0
 16 17  2  0  0  0
 16 21  1  0  0  0
 16 31  1  0  0  0
 17 18  1  0  0  0
 17101  1  0  0  0
 18 19  2  0  0  0
 18102  1  0  0  0
 19 20  1  0  0  0
 19 24  1  0  0  0
 20 21  2  0  0  0
 20103  1  0  0  0
 21 23  1  0  0  0
 22 28  1  0  0  0
 22 32  2  0  0  0
 26 27  1  0  0  0
 28104  1  0  0  0
 28105  1  0  0  0
 29106  1  0  0  0
 29107  1  0  0  0
 33 34  1  0  0  0
 33 66  1  0  0  0
 33 70  2  0  0  0
 34 36  1  0  0  0
 34 59  1  0  0  0
 34108  1  0  0  0
 35 44  2  0  0  0
 35 45  1  0  0  0
 35 68  1  0  0  0
 36 56  1  0  0  0
 36109  1  0  0  0
 37 39  1  0  0  0
 37 47  1  0  0  0
 37 66  1  0  0  0
 37110  1  0  0  0
 38 43  2  0  0  0
 38 46  1  0  0  0
 38 47  1  0  0  0
 39 64  1  0  0  0
 39 67  2  0  0  0
 40 52  1  0  0  0
 40 53  2  0  0  0
 40 58  1  0  0  0
 41111  1  0  0  0
 41112  1  0  0  0
 41113  1  0  0  0
 41 48  1  0  0  0
 42 43  1  0  0  0
 42 66  1  0  0  0
 42114  1  0  0  0
 42115  1  0  0  0
 43 44  1  0  0  0
 44116  1  0  0  0
 45 46  2  0  0  0
 45117  1  0  0  0
 46118  1  0  0  0
 47119  1  0  0  0
 47120  1  0  0  0
 48 56  1  0  0  0
 48 65  1  0  0  0
 48121  1  0  0  0
 49 50  1  0  0  0
 49 53  1  0  0  0
 49 64  1  0  0  0
 49122  1  0  0  0
 50 51  1  0  0  0
 50123  1  0  0  0
 50124  1  0  0  0
 51 52  1  0  0  0
 51125  1  0  0  0
 51126  1  0  0  0
 52127  1  0  0  0
 52128  1  0  0  0
 53 54  1  0  0  0
 54 55  2  0  0  0
 54129  1  0  0  0
 55 57  1  0  0  0
 55130  1  0  0  0
 56 69  2  0  0  0
 57 58  2  0  0  0
 57131  1  0  0  0
 58132  1  0  0  0
 59 60  1  0  0  0
 59 61  1  0  0  0
 59 62  1  0  0  0
 60133  1  0  0  0
 60134  1  0  0  0
 60135  1  0  0  0
 61136  1  0  0  0
 61137  1  0  0  0
 61138  1  0  0  0
 62139  1  0  0  0
 62140  1  0  0  0
 62141  1  0  0  0
 63 65  1  0  0  0
 63142  1  0  0  0
 63143  1  0  0  0
 63144  1  0  0  0
 64145  1  0  0  0
 65146  1  0  0  0
 68 82  1  0  0  0
 71 73  2  0  0  0
 71 75  1  0  0  0
 71147  1  0  0  0
 72 74  1  0  0  0
 72 75  2  0  0  0
 72148  1  0  0  0
 73 76  1  0  0  0
 73 78  1  0  0  0
 74 76  2  0  0  0
 74 79  1  0  0  0
 75 86  1  0  0  0
 76 87  1  0  0  0
 77149  1  0  0  0
 77150  1  0  0  0
 77151  1  0  0  0
 77 83  1  0  0  0
 78 84  1  0  0  0
 78152  1  0  0  0
 78153  1  0  0  0
 79 85  1  0  0  0
 79154  1  0  0  0
 79155  1  0  0  0
 80 81  1  0  0  0
 80 82  1  0  0  0
 80156  1  0  0  0
 80157  1  0  0  0
 81 83  1  0  0  0
 81158  1  0  0  0
 81159  1  0  0  0
 82160  1  0  0  0
 82161  1  0  0  0
 83 85  1  0  0  0
 83162  1  0  0  0
 84163  1  0  0  0
 85164  1  0  0  0
 85165  1  0  0  0
M  CHG  1  85   1
M  ISO  4   1 100  68 101  82 101  84 100
M  END
> <chiral flag>
0

> <version>
0

> <s_m_source_file>
/data/baiqing/PycharmProjects/Reinvent-master-3.2/result/LINK_invent/BTK/process_docking_weight1_custom_sum_contain_oxygen_bond_distance_aromatic_linkinvent_7_9_3/rearranged_h_0026.sdf

> <i_m_source_file_index>
80

> <r_mmod_Potential_Energy-OPLS-2005>
-308.341918945312

> <r_mmod_Stretch_Energy-OPLS-2005>
36.4011840820312

> <r_mmod_Bend_Energy-OPLS-2005>
100.665016174316

> <r_mmod_Torsional_Energy-OPLS-2005>
196.4130859375

> <r_mmod_Improper_Torsional_Energy-OPLS-2005>
2.65490913391113

> <r_mmod_Van_der_Waal_Energy-OPLS-2005>
157.199478149414

> <r_mmod_Electrostatic_Energy-OPLS-2005>
-345.933013916016

> <r_mmod_Solvation_Energy-OPLS-2005>
-464.779418945312

> <b_mmod_Minimization_Converged-OPLS-2005>
0

> <r_mmod_RMS_Derivative-OPLS-2005>
2.59617590904236

$$$$
80
                    3D
 Structure written by MMmdl.
155163  0  0  1  0            999 V2000
  -30.5247  -14.9993   20.3866 C   0  0  0  0  0  0
  -30.4435  -12.6208   19.4963 C   0  0  0  0  0  0
  -29.5265  -12.5370   18.2535 C   0  0  0  0  0  0
  -28.0599  -12.3169   18.6715 C   0  0  0  0  0  0
  -27.6254  -13.2511   19.8290 C   0  0  2  0  0  0
  -28.6699  -13.3096   20.9639 C   0  0  0  0  0  0
  -25.2437  -13.8191   20.5710 C   0  0  0  0  0  0
  -24.1756  -13.0415   20.9197 C   0  0  0  0  0  0
  -24.6386  -11.6909   20.8743 C   0  0  0  0  0  0
  -23.9075  -10.4292   21.0409 C   0  0  0  0  0  0
  -24.3632   -9.4210   21.9176 C   0  0  0  0  0  0
  -23.6304   -8.2247   22.0745 C   0  0  0  0  0  0
  -22.4285   -8.0266   21.3540 C   0  0  0  0  0  0
  -21.9928   -9.0241   20.4653 C   0  0  0  0  0  0
  -22.7253  -10.2121   20.3058 C   0  0  0  0  0  0
  -21.6867   -6.0726   22.5262 C   0  0  0  0  0  0
  -21.4028   -6.5632   23.8188 C   0  0  0  0  0  0
  -21.3669   -5.6779   24.9151 C   0  0  0  0  0  0
  -21.6052   -4.3032   24.7208 C   0  0  0  0  0  0
  -21.8826   -3.8134   23.4324 C   0  0  0  0  0  0
  -21.9200   -4.6956   22.3389 C   0  0  0  0  0  0
  -22.7778  -13.5174   21.1855 C   0  0  0  0  0  0
  -22.1657   -4.2131   21.0970 F   0  0  0  0  0  0
  -21.5643   -3.4526   25.7727 F   0  0  0  0  0  0
  -29.9360  -13.7322   20.3532 N   0  0  0  0  0  0
  -26.2861  -12.9436   20.3200 N   0  0  0  0  0  0
  -25.9313  -11.6562   20.5698 N   0  0  0  0  0  0
  -22.0442  -12.8148   22.0422 N   0  0  0  0  0  0
  -25.4100  -15.1910   20.4196 N   0  0  0  0  0  0
  -31.7390  -15.0488   20.1640 O   0  0  0  0  0  0
  -21.6648   -6.8863   21.4222 O   0  0  0  0  0  0
  -22.3458  -14.5479   20.6697 O   0  0  0  0  0  0
  -24.6494  -31.8399   23.1859 C   0  0  0  0  0  0
  -25.9230  -32.4680   23.8286 C   0  0  1  0  0  0
  -27.2215  -27.1002   20.1440 C   0  0  0  0  0  0
  -25.5964  -33.8492   24.2190 N   0  0  0  0  0  0
  -23.4573  -30.4585   21.5303 C   0  0  2  0  0  0
  -24.9046  -28.8766   20.1117 C   0  0  0  0  0  0
  -22.7611  -29.4537   22.4835 C   0  0  0  0  0  0
  -18.0312  -28.1408   22.8473 C   0  0  0  0  0  0
  -24.1477  -36.7263   23.2646 C   0  0  0  0  0  0
  -26.0158  -30.7021   21.3894 C   0  0  0  0  0  0
  -26.0849  -29.3082   20.7339 C   0  0  0  0  0  0
  -27.2415  -28.4362   20.7307 C   0  0  0  0  0  0
  -26.0143  -26.7837   19.4811 C   0  0  0  0  0  0
  -24.8836  -27.6296   19.4724 C   0  0  0  0  0  0
  -23.6871  -29.7867   20.1502 C   0  0  0  0  0  0
  -25.4106  -36.3042   24.0323 C   0  0  1  0  0  0
  -20.5919  -28.3726   23.1221 C   0  0  2  0  0  0
  -20.6776  -26.9423   22.5387 C   0  0  0  0  0  0
  -19.5759  -26.6380   21.5190 C   0  0  0  0  0  0
  -18.1947  -26.7943   22.1612 C   0  0  0  0  0  0
  -19.1560  -28.8879   23.2837 C   0  0  0  0  0  0
  -18.9477  -30.1474   23.8872 C   0  0  0  0  0  0
  -17.6472  -30.6585   24.0559 C   0  0  0  0  0  0
  -25.9078  -34.9412   23.5057 C   0  0  0  0  0  0
  -16.5365  -29.9092   23.6326 C   0  0  0  0  0  0
  -16.7298  -28.6507   23.0356 C   0  0  0  0  0  0
  -26.4529  -31.6587   25.0757 C   0  0  0  0  0  0
  -25.3708  -31.3766   26.1447 C   0  0  0  0  0  0
  -27.0402  -30.2996   24.6353 C   0  0  0  0  0  0
  -27.6085  -32.4338   25.7531 C   0  0  0  0  0  0
  -27.5569  -37.1785   24.8467 C   0  0  0  0  0  0
  -21.4293  -29.3062   22.3602 N   0  0  0  0  0  0
  -26.4269  -37.3755   23.9424 N   0  0  0  0  0  0
  -24.7281  -31.0230   22.0908 N   0  0  0  0  0  0
  -23.4230  -28.8076   23.3000 O   0  0  0  0  0  0
  -28.2603  -26.0879   20.2162 O   0  0  0  0  0  0
  -26.5645  -34.8907   22.4640 O   0  0  0  0  0  0
  -23.5592  -32.1285   23.7051 O   0  0  0  0  0  0
  -27.4124  -19.9017   18.4443 C   0  0  0  0  0  0
  -27.6568  -21.2428   18.8068 C   0  0  0  0  0  0
  -28.1393  -18.8166   18.9760 C   0  0  0  0  0  0
  -28.6381  -21.5565   19.7873 C   0  0  0  0  0  0
  -29.1584  -19.0433   19.9301 C   0  0  0  0  0  0
  -26.8453  -22.2926   18.0596 C   0  0  0  0  0  0
  -27.8096  -17.4358   18.4369 C   0  0  0  0  0  0
  -28.9396  -23.1553   20.2151 C   0  0  0  0  0  0
  -30.0884  -17.7540   20.4489 C   0  0  0  0  0  0
  -27.9937  -24.5608   19.9264 C   0  0  0  0  0  0
  -29.3626  -20.4197   20.2969 N   0  0  0  0  0  0
  -29.7419  -16.1931   20.4639 N   0  0  0  0  0  0
  -31.4784  -12.7863   19.1897 H   0  0  0  0  0  0
  -30.4394  -11.6780   20.0443 H   0  0  0  0  0  0
  -29.8509  -11.7283   17.5978 H   0  0  0  0  0  0
  -29.6094  -13.4567   17.6719 H   0  0  0  0  0  0
  -27.9607  -11.2769   18.9833 H   0  0  0  0  0  0
  -27.4012  -12.4448   17.8119 H   0  0  0  0  0  0
  -27.5765  -14.2461   19.3860 H   0  0  0  0  0  0
  -28.7723  -12.3471   21.4663 H   0  0  0  0  0  0
  -28.3626  -14.0276   21.7251 H   0  0  0  0  0  0
  -25.2796   -9.5671   22.4720 H   0  0  0  0  0  0
  -24.0026   -7.4652   22.7458 H   0  0  0  0  0  0
  -21.0857   -8.8757   19.8971 H   0  0  0  0  0  0
  -22.3719  -10.9651   19.6150 H   0  0  0  0  0  0
  -21.2020   -7.6143   23.9672 H   0  0  0  0  0  0
  -21.1491   -6.0523   25.9046 H   0  0  0  0  0  0
  -22.0609   -2.7602   23.2826 H   0  0  0  0  0  0
  -22.4091  -11.9858   22.4887 H   0  0  0  0  0  0
  -21.1060  -13.1159   22.2620 H   0  0  0  0  0  0
  -24.6453  -15.8459   20.5397 H   0  0  0  0  0  0
  -26.2540  -15.6311   20.0863 H   0  0  0  0  0  0
  -26.7324  -32.5256   23.1047 H   0  0  0  0  0  0
  -25.0164  -33.9610   25.0369 H   0  0  0  0  0  0
  -22.7641  -31.2861   21.3696 H   0  0  0  0  0  0
  -23.3747  -35.9588   23.3284 H   0  0  0  0  0  0
  -24.3590  -36.8909   22.2070 H   0  0  0  0  0  0
  -23.7199  -37.6442   23.6692 H   0  0  0  0  0  0
  -26.1702  -31.4520   20.6123 H   0  0  0  0  0  0
  -26.8888  -30.7639   22.0282 H   0  0  0  0  0  0
  -28.1384  -28.7680   21.2365 H   0  0  0  0  0  0
  -25.9054  -25.8338   18.9811 H   0  0  0  0  0  0
  -23.9859  -27.2926   18.9723 H   0  0  0  0  0  0
  -23.8418  -30.5621   19.3989 H   0  0  0  0  0  0
  -22.8022  -29.2348   19.8277 H   0  0  0  0  0  0
  -25.1281  -36.1887   25.0809 H   0  0  0  0  0  0
  -21.0003  -28.3303   24.1350 H   0  0  0  0  0  0
  -20.5621  -26.2365   23.3621 H   0  0  0  0  0  0
  -21.6654  -26.7419   22.1211 H   0  0  0  0  0  0
  -19.6920  -25.6269   21.1279 H   0  0  0  0  0  0
  -19.6689  -27.3139   20.6674 H   0  0  0  0  0  0
  -17.4207  -26.6672   21.4030 H   0  0  0  0  0  0
  -18.0366  -26.0084   22.9009 H   0  0  0  0  0  0
  -19.7947  -30.7283   24.2253 H   0  0  0  0  0  0
  -17.5024  -31.6265   24.5168 H   0  0  0  0  0  0
  -15.5359  -30.2987   23.7642 H   0  0  0  0  0  0
  -15.8712  -28.0809   22.7103 H   0  0  0  0  0  0
  -24.5895  -30.7108   25.7755 H   0  0  0  0  0  0
  -24.8866  -32.2928   26.4841 H   0  0  0  0  0  0
  -25.7977  -30.8960   27.0263 H   0  0  0  0  0  0
  -26.3024  -29.6716   24.1347 H   0  0  0  0  0  0
  -27.4009  -29.7307   25.4936 H   0  0  0  0  0  0
  -27.8944  -30.4251   23.9695 H   0  0  0  0  0  0
  -27.2729  -33.3683   26.2044 H   0  0  0  0  0  0
  -28.3929  -32.6809   25.0365 H   0  0  0  0  0  0
  -28.0736  -31.8494   26.5483 H   0  0  0  0  0  0
  -28.2570  -38.0094   24.7524 H   0  0  0  0  0  0
  -28.1065  -36.2628   24.6262 H   0  0  0  0  0  0
  -27.2313  -37.1404   25.8873 H   0  0  0  0  0  0
  -20.9514  -29.8863   21.6839 H   0  0  0  0  0  0
  -26.0143  -38.2828   24.1412 H   0  0  0  0  0  0
  -26.6557  -19.6969   17.6999 H   0  0  0  0  0  0
  -27.5004  -22.9628   17.5013 H   0  0  0  0  0  0
  -26.2140  -22.8648   18.7377 H   0  0  0  0  0  0
  -26.1734  -21.8417   17.3257 H   0  0  0  0  0  0
  -27.1479  -17.4980   17.5709 H   0  0  0  0  0  0
  -27.2982  -16.8487   19.1968 H   0  0  0  0  0  0
  -28.7062  -16.9054   18.1168 H   0  0  0  0  0  0
  -29.9142  -23.3689   19.7775 H   0  0  0  0  0  0
  -29.1301  -23.1233   21.2875 H   0  0  0  0  0  0
  -30.3724  -17.9932   21.4726 H   0  0  0  0  0  0
  -31.0173  -17.8428   19.8836 H   0  0  0  0  0  0
  -27.0251  -24.3490   20.3802 H   0  0  0  0  0  0
  -27.8246  -24.5802   18.8546 H   0  0  0  0  0  0
  -28.7591  -16.0171   20.5912 H   0  0  0  0  0  0
  1 25  1  0  0  0
  1 30  2  0  0  0
  1 82  1  0  0  0
  2  3  1  0  0  0
  2 25  1  0  0  0
  2 83  1  0  0  0
  2 84  1  0  0  0
  3  4  1  0  0  0
  3 85  1  0  0  0
  3 86  1  0  0  0
  4  5  1  0  0  0
  4 87  1  0  0  0
  4 88  1  0  0  0
  5  6  1  0  0  0
  5 26  1  0  0  0
  5 89  1  0  0  0
  6 25  1  0  0  0
  6 90  1  0  0  0
  6 91  1  0  0  0
  7  8  2  0  0  0
  7 26  1  0  0  0
  7 29  1  0  0  0
  8  9  1  0  0  0
  8 22  1  0  0  0
  9 10  1  0  0  0
  9 27  2  0  0  0
 10 11  2  0  0  0
 10 15  1  0  0  0
 11 12  1  0  0  0
 11 92  1  0  0  0
 12 13  2  0  0  0
 12 93  1  0  0  0
 13 14  1  0  0  0
 13 31  1  0  0  0
 14 15  2  0  0  0
 14 94  1  0  0  0
 15 95  1  0  0  0
 16 17  2  0  0  0
 16 21  1  0  0  0
 16 31  1  0  0  0
 17 18  1  0  0  0
 17 96  1  0  0  0
 18 19  2  0  0  0
 18 97  1  0  0  0
 19 20  1  0  0  0
 19 24  1  0  0  0
 20 21  2  0  0  0
 20 98  1  0  0  0
 21 23  1  0  0  0
 22 28  1  0  0  0
 22 32  2  0  0  0
 26 27  1  0  0  0
 28 99  1  0  0  0
 28100  1  0  0  0
 29101  1  0  0  0
 29102  1  0  0  0
 33 34  1  0  0  0
 33 66  1  0  0  0
 33 70  2  0  0  0
 34 36  1  0  0  0
 34 59  1  0  0  0
 34103  1  0  0  0
 35 44  2  0  0  0
 35 45  1  0  0  0
 35 68  1  0  0  0
 36 56  1  0  0  0
 36104  1  0  0  0
 37 39  1  0  0  0
 37 47  1  0  0  0
 37 66  1  0  0  0
 37105  1  0  0  0
 38 43  2  0  0  0
 38 46  1  0  0  0
 38 47  1  0  0  0
 39 64  1  0  0  0
 39 67  2  0  0  0
 40 52  1  0  0  0
 40 53  2  0  0  0
 40 58  1  0  0  0
 41106  1  0  0  0
 41107  1  0  0  0
 41108  1  0  0  0
 41 48  1  0  0  0
 42 43  1  0  0  0
 42 66  1  0  0  0
 42109  1  0  0  0
 42110  1  0  0  0
 43 44  1  0  0  0
 44111  1  0  0  0
 45 46  2  0  0  0
 45112  1  0  0  0
 46113  1  0  0  0
 47114  1  0  0  0
 47115  1  0  0  0
 48 56  1  0  0  0
 48 65  1  0  0  0
 48116  1  0  0  0
 49 50  1  0  0  0
 49 53  1  0  0  0
 49 64  1  0  0  0
 49117  1  0  0  0
 50 51  1  0  0  0
 50118  1  0  0  0
 50119  1  0  0  0
 51 52  1  0  0  0
 51120  1  0  0  0
 51121  1  0  0  0
 52122  1  0  0  0
 52123  1  0  0  0
 53 54  1  0  0  0
 54 55  2  0  0  0
 54124  1  0  0  0
 55 57  1  0  0  0
 55125  1  0  0  0
 56 69  2  0  0  0
 57 58  2  0  0  0
 57126  1  0  0  0
 58127  1  0  0  0
 59 60  1  0  0  0
 59 61  1  0  0  0
 59 62  1  0  0  0
 60128  1  0  0  0
 60129  1  0  0  0
 60130  1  0  0  0
 61131  1  0  0  0
 61132  1  0  0  0
 61133  1  0  0  0
 62134  1  0  0  0
 62135  1  0  0  0
 62136  1  0  0  0
 63 65  1  0  0  0
 63137  1  0  0  0
 63138  1  0  0  0
 63139  1  0  0  0
 64140  1  0  0  0
 65141  1  0  0  0
 68 80  1  0  0  0
 71 72  2  0  0  0
 71 73  1  0  0  0
 71142  1  0  0  0
 72 74  1  0  0  0
 72 76  1  0  0  0
 73 75  2  0  0  0
 73 77  1  0  0  0
 74 78  1  0  0  0
 74 81  2  0  0  0
 75 79  1  0  0  0
 75 81  1  0  0  0
 76143  1  0  0  0
 76144  1  0  0  0
 76145  1  0  0  0
 77146  1  0  0  0
 77147  1  0  0  0
 77148  1  0  0  0
 78 80  1  0  0  0
 78149  1  0  0  0
 78150  1  0  0  0
 79 82  1  0  0  0
 79151  1  0  0  0
 79152  1  0  0  0
 80153  1  0  0  0
 80154  1  0  0  0
 82155  1  0  0  0
M  ISO  4   1 100  68 101  80 101  82 100
M  END
> <chiral flag>
0

> <version>
0

> <s_m_source_file>
/data/baiqing/PycharmProjects/Reinvent-master-3.2/result/LINK_invent/BTK/process_docking_weight1_custom_sum_contain_oxygen_bond_distance_aromatic_linkinvent_7_9_3/rearranged_h_0026.sdf

> <i_m_source_file_index>
81

> <r_mmod_Potential_Energy-OPLS-2005>
336.183074951172

> <r_mmod_Stretch_Energy-OPLS-2005>
313.454803466797

> <r_mmod_Bend_Energy-OPLS-2005>
285.881530761719

> <r_mmod_Torsional_Energy-OPLS-2005>
198.984512329102

> <r_mmod_Improper_Torsional_Energy-OPLS-2005>
4.57904577255249

> <r_mmod_Van_der_Waal_Energy-OPLS-2005>
135.693984985352

> <r_mmod_Electrostatic_Energy-OPLS-2005>
-595.552429199219

> <r_mmod_Solvation_Energy-OPLS-2005>
-237.709228515625

> <b_mmod_Minimization_Converged-OPLS-2005>
0

> <r_mmod_RMS_Derivative-OPLS-2005>
3.4802508354187

$$$$
81
                    3D
 Structure written by MMmdl.
169177  0  0  1  0            999 V2000
  -30.7080  -14.4824   20.5505 C   0  0  0  0  0  0
  -30.4158  -12.3106   19.4208 C   0  0  0  0  0  0
  -29.4894  -12.4776   18.2016 C   0  0  0  0  0  0
  -28.0107  -12.3359   18.6228 C   0  0  0  0  0  0
  -27.6462  -13.1853   19.8744 C   0  0  2  0  0  0
  -28.6955  -13.0165   20.9924 C   0  0  0  0  0  0
  -25.2562  -13.8087   20.5795 C   0  0  0  0  0  0
  -24.1761  -13.0384   20.9214 C   0  0  0  0  0  0
  -24.6287  -11.6836   20.8768 C   0  0  0  0  0  0
  -23.8976  -10.4207   21.0425 C   0  0  0  0  0  0
  -24.3557   -9.4117   21.9208 C   0  0  0  0  0  0
  -23.6253   -8.2132   22.0758 C   0  0  0  0  0  0
  -22.4236   -8.0200   21.3532 C   0  0  0  0  0  0
  -21.9859   -9.0159   20.4636 C   0  0  0  0  0  0
  -22.7153  -10.2050   20.3057 C   0  0  0  0  0  0
  -21.6794   -6.0706   22.5291 C   0  0  0  0  0  0
  -21.3970   -6.5627   23.8222 C   0  0  0  0  0  0
  -21.3663   -5.6798   24.9197 C   0  0  0  0  0  0
  -21.6049   -4.3054   24.7244 C   0  0  0  0  0  0
  -21.8807   -3.8140   23.4368 C   0  0  0  0  0  0
  -21.9155   -4.6946   22.3418 C   0  0  0  0  0  0
  -22.7790  -13.5200   21.1880 C   0  0  0  0  0  0
  -22.1667   -4.2155   21.0992 F   0  0  0  0  0  0
  -21.5628   -3.4525   25.7748 F   0  0  0  0  0  0
  -30.0154  -13.3186   20.4132 N   0  0  0  0  0  0
  -26.2934  -12.9185   20.3455 N   0  0  0  0  0  0
  -25.9200  -11.6366   20.5824 N   0  0  0  0  0  0
  -22.0451  -12.8161   22.0463 N   0  0  0  0  0  0
  -25.4393  -15.1795   20.4386 N   0  0  0  0  0  0
  -31.8686  -14.6228   20.1534 O   0  0  0  0  0  0
  -21.6579   -6.8818   21.4235 O   0  0  0  0  0  0
  -22.3468  -14.5489   20.6711 O   0  0  0  0  0  0
  -24.6163  -31.8673   23.2106 C   0  0  0  0  0  0
  -25.9090  -32.4787   23.8360 C   0  0  1  0  0  0
  -27.2180  -27.4280   20.0672 C   0  0  0  0  0  0
  -25.5958  -33.8576   24.2281 N   0  0  0  0  0  0
  -23.4000  -30.4922   21.5554 C   0  0  2  0  0  0
  -24.8374  -28.9602   20.1105 C   0  0  0  0  0  0
  -22.7421  -29.4623   22.5038 C   0  0  0  0  0  0
  -18.0283  -28.1313   22.8453 C   0  0  0  0  0  0
  -24.1510  -36.7316   23.2621 C   0  0  0  0  0  0
  -25.9305  -30.8301   21.3633 C   0  0  0  0  0  0
  -26.0006  -29.4685   20.6980 C   0  0  0  0  0  0
  -27.1905  -28.7061   20.6735 C   0  0  0  0  0  0
  -26.0202  -26.9239   19.5096 C   0  0  0  0  0  0
  -24.8397  -27.6853   19.5210 C   0  0  0  0  0  0
  -23.6036  -29.8316   20.1675 C   0  0  0  0  0  0
  -25.4110  -36.3055   24.0299 C   0  0  1  0  0  0
  -20.5884  -28.3551   23.1394 C   0  0  2  0  0  0
  -20.6772  -26.9274   22.5512 C   0  0  0  0  0  0
  -19.5859  -26.6408   21.5144 C   0  0  0  0  0  0
  -18.1974  -26.7886   22.1497 C   0  0  0  0  0  0
  -19.1539  -28.8725   23.2948 C   0  0  0  0  0  0
  -18.9469  -30.1348   23.8922 C   0  0  0  0  0  0
  -17.6464  -30.6502   24.0597 C   0  0  0  0  0  0
  -25.9018  -34.9429   23.5076 C   0  0  0  0  0  0
  -16.5363  -29.9032   23.6320 C   0  0  0  0  0  0
  -16.7285  -28.6460   23.0306 C   0  0  0  0  0  0
  -26.4487  -31.6564   25.0687 C   0  0  0  0  0  0
  -25.3737  -31.3710   26.1440 C   0  0  0  0  0  0
  -27.0341  -30.3001   24.6066 C   0  0  0  0  0  0
  -27.6058  -32.4277   25.7465 C   0  0  0  0  0  0
  -27.5576  -37.1816   24.8435 C   0  0  0  0  0  0
  -21.4155  -29.2956   22.3810 N   0  0  0  0  0  0
  -26.4301  -37.3738   23.9356 N   0  0  0  0  0  0
  -24.6674  -31.0764   22.1013 N   0  0  0  0  0  0
  -23.4234  -28.8215   23.3093 O   0  0  0  0  0  0
  -28.4062  -26.7251   20.0728 O   0  0  0  0  0  0
  -26.5587  -34.8887   22.4628 O   0  0  0  0  0  0
  -23.5383  -32.1446   23.7508 O   0  0  0  0  0  0
  -29.6237  -17.9721   20.3265 C   0  0  0  0  0  0
  -28.9653  -16.3765   18.8829 C   0  0  0  0  0  0
  -29.5503  -16.5703   20.0962 C   0  0  0  0  0  0
  -29.1211  -18.6237   19.2201 C   0  0  0  0  0  0
  -30.4160  -20.7229   19.5158 C   0  0  0  0  0  0
  -29.1007  -20.4769   17.4210 C   0  0  0  0  0  0
  -27.8606  -17.7294   17.1406 C   0  0  0  0  0  0
  -26.5066  -22.5592   18.4993 C   0  0  0  0  0  0
  -29.0415  -24.3419   20.0498 C   0  0  0  0  0  0
  -27.9775  -23.2563   20.3704 C   0  0  0  0  0  0
  -27.8811  -20.8238   19.6112 C   0  0  0  0  0  0
  -28.6048  -25.5789   19.2289 C   0  0  0  0  0  0
  -29.1077  -20.1351   18.9348 C   0  0  0  0  0  0
  -28.6168  -17.6143   18.3770 N   0  0  0  0  0  0
  -30.0234  -15.5565   20.9852 N   0  0  0  0  0  0
  -27.7527  -22.2794   19.2557 N   0  3  1  0  0  0
  -31.4650  -12.4029   19.1277 H   0  0  0  0  0  0
  -30.3098  -11.3109   19.8413 H   0  0  0  0  0  0
  -29.7311  -11.7319   17.4414 H   0  0  0  0  0  0
  -29.6611  -13.4517   17.7434 H   0  0  0  0  0  0
  -27.8378  -11.2804   18.8382 H   0  0  0  0  0  0
  -27.3583  -12.5814   17.7854 H   0  0  0  0  0  0
  -27.6559  -14.2249   19.5783 H   0  0  0  0  0  0
  -28.6782  -11.9956   21.3766 H   0  0  0  0  0  0
  -28.4596  -13.6622   21.8409 H   0  0  0  0  0  0
  -25.2691   -9.5566   22.4812 H   0  0  0  0  0  0
  -23.9935   -7.4479   22.7456 H   0  0  0  0  0  0
  -21.0802   -8.8606   19.8968 H   0  0  0  0  0  0
  -22.3579  -10.9574   19.6171 H   0  0  0  0  0  0
  -21.1974   -7.6137   23.9704 H   0  0  0  0  0  0
  -21.1541   -6.0565   25.9102 H   0  0  0  0  0  0
  -22.0590   -2.7609   23.2860 H   0  0  0  0  0  0
  -22.4059  -11.9808   22.4823 H   0  0  0  0  0  0
  -21.1081  -13.1165   22.2692 H   0  0  0  0  0  0
  -24.7068  -15.8511   20.6342 H   0  0  0  0  0  0
  -26.3323  -15.6131   20.2381 H   0  0  0  0  0  0
  -26.7156  -32.5468   23.1120 H   0  0  0  0  0  0
  -25.0160  -33.9695   25.0468 H   0  0  0  0  0  0
  -22.6848  -31.3065   21.4238 H   0  0  0  0  0  0
  -23.3725  -35.9705   23.3279 H   0  0  0  0  0  0
  -24.3611  -36.8936   22.2041 H   0  0  0  0  0  0
  -23.7347  -37.6546   23.6645 H   0  0  0  0  0  0
  -26.0367  -31.6041   20.6035 H   0  0  0  0  0  0
  -26.8234  -30.8724   21.9758 H   0  0  0  0  0  0
  -28.0939  -29.0922   21.1218 H   0  0  0  0  0  0
  -25.9484  -25.9375   19.0809 H   0  0  0  0  0  0
  -23.9365  -27.2720   19.0911 H   0  0  0  0  0  0
  -23.7199  -30.6139   19.4205 H   0  0  0  0  0  0
  -22.7195  -29.2714   19.8623 H   0  0  0  0  0  0
  -25.1300  -36.1898   25.0800 H   0  0  0  0  0  0
  -20.9975  -28.3178   24.1520 H   0  0  0  0  0  0
  -20.5473  -26.2104   23.3620 H   0  0  0  0  0  0
  -21.6704  -26.7250   22.1492 H   0  0  0  0  0  0
  -19.7127  -25.6429   21.0910 H   0  0  0  0  0  0
  -19.6842  -27.3404   20.6837 H   0  0  0  0  0  0
  -17.4278  -26.6603   21.3861 H   0  0  0  0  0  0
  -18.0376  -25.9960   22.8825 H   0  0  0  0  0  0
  -19.7945  -30.7137   24.2343 H   0  0  0  0  0  0
  -17.5023  -31.6181   24.5206 H   0  0  0  0  0  0
  -15.5362  -30.2951   23.7653 H   0  0  0  0  0  0
  -15.8670  -28.0825   22.6952 H   0  0  0  0  0  0
  -24.5876  -30.7084   25.7813 H   0  0  0  0  0  0
  -24.8986  -32.2901   26.4890 H   0  0  0  0  0  0
  -25.8101  -30.8887   27.0196 H   0  0  0  0  0  0
  -26.2933  -29.6758   24.1058 H   0  0  0  0  0  0
  -27.4069  -29.7206   25.4526 H   0  0  0  0  0  0
  -27.8764  -30.4331   23.9253 H   0  0  0  0  0  0
  -27.2653  -33.3548   26.2083 H   0  0  0  0  0  0
  -28.3861  -32.6885   25.0304 H   0  0  0  0  0  0
  -28.0726  -31.8353   26.5350 H   0  0  0  0  0  0
  -28.2572  -38.0129   24.7448 H   0  0  0  0  0  0
  -28.1083  -36.2647   24.6287 H   0  0  0  0  0  0
  -27.2261  -37.1488   25.8830 H   0  0  0  0  0  0
  -20.9268  -29.8710   21.7091 H   0  0  0  0  0  0
  -26.0168  -38.2809   24.1345 H   0  0  0  0  0  0
  -30.0491  -18.4684   21.1873 H   0  0  0  0  0  0
  -28.7417  -15.4824   18.3192 H   0  0  0  0  0  0
  -31.2800  -20.1810   19.1285 H   0  0  0  0  0  0
  -30.4609  -20.6615   20.6048 H   0  0  0  0  0  0
  -30.5649  -21.7668   19.2489 H   0  0  0  0  0  0
  -29.8463  -19.9019   16.8700 H   0  0  0  0  0  0
  -29.3158  -21.5283   17.2310 H   0  0  0  0  0  0
  -28.1281  -20.3056   16.9605 H   0  0  0  0  0  0
  -27.4579  -16.7551   16.8609 H   0  0  0  0  0  0
  -28.4943  -18.0681   16.3197 H   0  0  0  0  0  0
  -27.0116  -18.3986   17.2780 H   0  0  0  0  0  0
  -26.4621  -23.5913   18.1539 H   0  0  0  0  0  0
  -25.6269  -22.3694   19.1139 H   0  0  0  0  0  0
  -26.4357  -21.9275   17.6119 H   0  0  0  0  0  0
  -29.8915  -23.8729   19.5570 H   0  0  0  0  0  0
  -29.4512  -24.7074   20.9919 H   0  0  0  0  0  0
  -27.0383  -23.7128   20.6872 H   0  0  0  0  0  0
  -28.3373  -22.7219   21.2488 H   0  0  0  0  0  0
  -27.9149  -20.6725   20.6891 H   0  0  0  0  0  0
  -26.9784  -20.2955   19.3012 H   0  0  0  0  0  0
  -27.8123  -25.3430   18.5233 H   0  0  0  0  0  0
  -29.4360  -25.8560   18.5801 H   0  0  0  0  0  0
  -30.4343  -15.9441   21.8225 H   0  0  0  0  0  0
  -28.5045  -22.4255   18.5999 H   0  0  0  0  0  0
  1 25  1  0  0  0
  1 30  2  0  0  0
  1 85  1  0  0  0
  2  3  1  0  0  0
  2 25  1  0  0  0
  2 87  1  0  0  0
  2 88  1  0  0  0
  3  4  1  0  0  0
  3 89  1  0  0  0
  3 90  1  0  0  0
  4  5  1  0  0  0
  4 91  1  0  0  0
  4 92  1  0  0  0
  5  6  1  0  0  0
  5 26  1  0  0  0
  5 93  1  0  0  0
  6 25  1  0  0  0
  6 94  1  0  0  0
  6 95  1  0  0  0
  7  8  2  0  0  0
  7 26  1  0  0  0
  7 29  1  0  0  0
  8  9  1  0  0  0
  8 22  1  0  0  0
  9 10  1  0  0  0
  9 27  2  0  0  0
 10 11  2  0  0  0
 10 15  1  0  0  0
 11 12  1  0  0  0
 11 96  1  0  0  0
 12 13  2  0  0  0
 12 97  1  0  0  0
 13 14  1  0  0  0
 13 31  1  0  0  0
 14 15  2  0  0  0
 14 98  1  0  0  0
 15 99  1  0  0  0
 16 17  2  0  0  0
 16 21  1  0  0  0
 16 31  1  0  0  0
 17 18  1  0  0  0
 17100  1  0  0  0
 18 19  2  0  0  0
 18101  1  0  0  0
 19 20  1  0  0  0
 19 24  1  0  0  0
 20 21  2  0  0  0
 20102  1  0  0  0
 21 23  1  0  0  0
 22 28  1  0  0  0
 22 32  2  0  0  0
 26 27  1  0  0  0
 28103  1  0  0  0
 28104  1  0  0  0
 29105  1  0  0  0
 29106  1  0  0  0
 33 34  1  0  0  0
 33 66  1  0  0  0
 33 70  2  0  0  0
 34 36  1  0  0  0
 34 59  1  0  0  0
 34107  1  0  0  0
 35 44  2  0  0  0
 35 45  1  0  0  0
 35 68  1  0  0  0
 36 56  1  0  0  0
 36108  1  0  0  0
 37 39  1  0  0  0
 37 47  1  0  0  0
 37 66  1  0  0  0
 37109  1  0  0  0
 38 43  2  0  0  0
 38 46  1  0  0  0
 38 47  1  0  0  0
 39 64  1  0  0  0
 39 67  2  0  0  0
 40 52  1  0  0  0
 40 53  2  0  0  0
 40 58  1  0  0  0
 41110  1  0  0  0
 41111  1  0  0  0
 41112  1  0  0  0
 41 48  1  0  0  0
 42 43  1  0  0  0
 42 66  1  0  0  0
 42113  1  0  0  0
 42114  1  0  0  0
 43 44  1  0  0  0
 44115  1  0  0  0
 45 46  2  0  0  0
 45116  1  0  0  0
 46117  1  0  0  0
 47118  1  0  0  0
 47119  1  0  0  0
 48 56  1  0  0  0
 48 65  1  0  0  0
 48120  1  0  0  0
 49 50  1  0  0  0
 49 53  1  0  0  0
 49 64  1  0  0  0
 49121  1  0  0  0
 50 51  1  0  0  0
 50122  1  0  0  0
 50123  1  0  0  0
 51 52  1  0  0  0
 51124  1  0  0  0
 51125  1  0  0  0
 52126  1  0  0  0
 52127  1  0  0  0
 53 54  1  0  0  0
 54 55  2  0  0  0
 54128  1  0  0  0
 55 57  1  0  0  0
 55129  1  0  0  0
 56 69  2  0  0  0
 57 58  2  0  0  0
 57130  1  0  0  0
 58131  1  0  0  0
 59 60  1  0  0  0
 59 61  1  0  0  0
 59 62  1  0  0  0
 60132  1  0  0  0
 60133  1  0  0  0
 60134  1  0  0  0
 61135  1  0  0  0
 61136  1  0  0  0
 61137  1  0  0  0
 62138  1  0  0  0
 62139  1  0  0  0
 62140  1  0  0  0
 63 65  1  0  0  0
 63141  1  0  0  0
 63142  1  0  0  0
 63143  1  0  0  0
 64144  1  0  0  0
 65145  1  0  0  0
 68 82  1  0  0  0
 71 73  1  0  0  0
 71 74  2  0  0  0
 71146  1  0  0  0
 72 73  2  0  0  0
 72 84  1  0  0  0
 72147  1  0  0  0
 73 85  1  0  0  0
 74 83  1  0  0  0
 74 84  1  0  0  0
 75148  1  0  0  0
 75149  1  0  0  0
 75150  1  0  0  0
 75 83  1  0  0  0
 76 83  1  0  0  0
 76151  1  0  0  0
 76152  1  0  0  0
 76153  1  0  0  0
 77 84  1  0  0  0
 77154  1  0  0  0
 77155  1  0  0  0
 77156  1  0  0  0
 78157  1  0  0  0
 78158  1  0  0  0
 78159  1  0  0  0
 78 86  1  0  0  0
 79 80  1  0  0  0
 79 82  1  0  0  0
 79160  1  0  0  0
 79161  1  0  0  0
 80 86  1  0  0  0
 80162  1  0  0  0
 80163  1  0  0  0
 81 83  1  0  0  0
 81 86  1  0  0  0
 81164  1  0  0  0
 81165  1  0  0  0
 82166  1  0  0  0
 82167  1  0  0  0
 85168  1  0  0  0
 86169  1  0  0  0
M  CHG  1  86   1
M  ISO  4   1 100  68 101  82 101  85 100
M  END
> <chiral flag>
0

> <version>
0

> <s_m_source_file>
/data/baiqing/PycharmProjects/Reinvent-master-3.2/result/LINK_invent/BTK/process_docking_weight1_custom_sum_contain_oxygen_bond_distance_aromatic_linkinvent_7_9_3/rearranged_h_0026.sdf

> <i_m_source_file_index>
82

> <r_mmod_Potential_Energy-OPLS-2005>
-52.276309967041

> <r_mmod_Stretch_Energy-OPLS-2005>
43.1500930786133

> <r_mmod_Bend_Energy-OPLS-2005>
143.104873657227

> <r_mmod_Torsional_Energy-OPLS-2005>
327.838439941406

> <r_mmod_Improper_Torsional_Energy-OPLS-2005>
7.32018232345581

> <r_mmod_Van_der_Waal_Energy-OPLS-2005>
136.117782592773

> <r_mmod_Electrostatic_Energy-OPLS-2005>
-281.569488525391

> <r_mmod_Solvation_Energy-OPLS-2005>
-446.087585449219

> <b_mmod_Minimization_Converged-OPLS-2005>
0

> <r_mmod_RMS_Derivative-OPLS-2005>
5.28496932983398

$$$$
82
                    3D
 Structure written by MMmdl.
159167  0  0  1  0            999 V2000
  -30.5438  -14.9527   20.4196 C   0  0  0  0  0  0
  -30.4375  -12.5950   19.4900 C   0  0  0  0  0  0
  -29.5172  -12.5232   18.2507 C   0  0  0  0  0  0
  -28.0537  -12.3045   18.6773 C   0  0  0  0  0  0
  -27.6269  -13.2454   19.8344 C   0  0  2  0  0  0
  -28.6706  -13.2863   20.9695 C   0  0  0  0  0  0
  -25.2458  -13.8204   20.5710 C   0  0  0  0  0  0
  -24.1773  -13.0430   20.9237 C   0  0  0  0  0  0
  -24.6387  -11.6921   20.8762 C   0  0  0  0  0  0
  -23.9070  -10.4289   21.0411 C   0  0  0  0  0  0
  -24.3617   -9.4206   21.9189 C   0  0  0  0  0  0
  -23.6290   -8.2243   22.0757 C   0  0  0  0  0  0
  -22.4274   -8.0276   21.3544 C   0  0  0  0  0  0
  -21.9911   -9.0251   20.4646 C   0  0  0  0  0  0
  -22.7243  -10.2130   20.3057 C   0  0  0  0  0  0
  -21.6855   -6.0727   22.5275 C   0  0  0  0  0  0
  -21.4016   -6.5634   23.8205 C   0  0  0  0  0  0
  -21.3656   -5.6791   24.9169 C   0  0  0  0  0  0
  -21.6042   -4.3052   24.7224 C   0  0  0  0  0  0
  -21.8823   -3.8142   23.4345 C   0  0  0  0  0  0
  -21.9194   -4.6955   22.3399 C   0  0  0  0  0  0
  -22.7797  -13.5215   21.1883 C   0  0  0  0  0  0
  -22.1664   -4.2141   21.0977 F   0  0  0  0  0  0
  -21.5626   -3.4538   25.7738 F   0  0  0  0  0  0
  -29.9403  -13.6989   20.3594 N   0  0  0  0  0  0
  -26.2874  -12.9431   20.3241 N   0  0  0  0  0  0
  -25.9319  -11.6567   20.5745 N   0  0  0  0  0  0
  -22.0442  -12.8199   22.0432 N   0  0  0  0  0  0
  -25.4121  -15.1920   20.4118 N   0  0  0  0  0  0
  -31.7577  -14.9916   20.1888 O   0  0  0  0  0  0
  -21.6640   -6.8870   21.4236 O   0  0  0  0  0  0
  -22.3495  -14.5522   20.6729 O   0  0  0  0  0  0
  -24.6454  -31.8420   23.1882 C   0  0  0  0  0  0
  -25.9221  -32.4687   23.8266 C   0  0  1  0  0  0
  -27.2180  -27.1235   20.1511 C   0  0  0  0  0  0
  -25.5973  -33.8492   24.2193 N   0  0  0  0  0  0
  -23.4486  -30.4608   21.5355 C   0  0  2  0  0  0
  -24.8976  -28.8850   20.1112 C   0  0  0  0  0  0
  -22.7566  -29.4528   22.4878 C   0  0  0  0  0  0
  -18.0301  -28.1389   22.8466 C   0  0  0  0  0  0
  -24.1490  -36.7241   23.2639 C   0  0  0  0  0  0
  -26.0052  -30.7122   21.3861 C   0  0  0  0  0  0
  -26.0771  -29.3227   20.7269 C   0  0  0  0  0  0
  -27.2377  -28.4592   20.7271 C   0  0  0  0  0  0
  -26.0087  -26.7862   19.5028 C   0  0  0  0  0  0
  -24.8764  -27.6305   19.4842 C   0  0  0  0  0  0
  -23.6753  -29.7897   20.1550 C   0  0  0  0  0  0
  -25.4123  -36.3027   24.0318 C   0  0  1  0  0  0
  -20.5910  -28.3715   23.1233 C   0  0  2  0  0  0
  -20.6796  -26.9422   22.5399 C   0  0  0  0  0  0
  -19.5780  -26.6383   21.5201 C   0  0  0  0  0  0
  -18.1950  -26.7929   22.1605 C   0  0  0  0  0  0
  -19.1556  -28.8871   23.2834 C   0  0  0  0  0  0
  -18.9482  -30.1464   23.8866 C   0  0  0  0  0  0
  -17.6483  -30.6593   24.0553 C   0  0  0  0  0  0
  -25.9080  -34.9401   23.5060 C   0  0  0  0  0  0
  -16.5370  -29.9087   23.6342 C   0  0  0  0  0  0
  -16.7285  -28.6502   23.0362 C   0  0  0  0  0  0
  -26.4546  -31.6560   25.0710 C   0  0  0  0  0  0
  -25.3728  -31.3734   26.1400 C   0  0  0  0  0  0
  -27.0421  -30.2964   24.6279 C   0  0  0  0  0  0
  -27.6077  -32.4322   25.7507 C   0  0  0  0  0  0
  -27.5574  -37.1768   24.8463 C   0  0  0  0  0  0
  -21.4259  -29.3038   22.3615 N   0  0  0  0  0  0
  -26.4277  -37.3752   23.9423 N   0  0  0  0  0  0
  -24.7198  -31.0258   22.0928 N   0  0  0  0  0  0
  -23.4191  -28.8068   23.3030 O   0  0  0  0  0  0
  -28.2708  -26.1340   20.2211 O   0  0  0  0  0  0
  -26.5663  -34.8901   22.4636 O   0  0  0  0  0  0
  -23.5571  -32.1311   23.7100 O   0  0  0  0  0  0
  -31.3174  -17.9528   21.2321 C   0  0  0  0  0  0
  -31.7165  -19.2704   21.5383 C   0  0  0  0  0  0
  -30.8988  -20.4099   21.2614 C   0  0  0  0  0  0
  -29.6303  -20.2794   20.6094 C   0  0  0  0  0  0
  -29.2566  -18.8500   20.3342 C   0  0  0  0  0  0
  -30.0837  -17.6431   20.6406 C   0  0  0  0  0  0
  -33.0772  -19.4087   22.2095 C   0  0  0  0  0  0
  -31.3942  -21.7798   21.7146 C   0  0  0  0  0  0
  -27.9139  -18.5828   19.6758 C   0  0  0  0  0  0
  -28.6924  -21.6316   20.2699 C   0  0  0  0  0  0
  -29.0444  -23.3024   20.3788 C   0  0  0  0  0  0
  -27.9994  -24.5992   20.0712 C   0  0  0  0  0  0
  -29.7586  -16.1466   20.4743 N   0  0  0  0  0  0
  -31.4692  -12.7554   19.1746 H   0  0  0  0  0  0
  -30.4362  -11.6482   20.0320 H   0  0  0  0  0  0
  -29.8398  -11.7189   17.5883 H   0  0  0  0  0  0
  -29.5974  -13.4472   17.6755 H   0  0  0  0  0  0
  -27.9639  -11.2659   18.9999 H   0  0  0  0  0  0
  -27.3845  -12.4188   17.8235 H   0  0  0  0  0  0
  -27.5866  -14.2437   19.3983 H   0  0  0  0  0  0
  -28.7644  -12.3164   21.4605 H   0  0  0  0  0  0
  -28.3703  -13.9968   21.7418 H   0  0  0  0  0  0
  -25.2757   -9.5685   22.4775 H   0  0  0  0  0  0
  -23.9991   -7.4637   22.7486 H   0  0  0  0  0  0
  -21.0842   -8.8774   19.8950 H   0  0  0  0  0  0
  -22.3703  -10.9671   19.6165 H   0  0  0  0  0  0
  -21.2015   -7.6144   23.9706 H   0  0  0  0  0  0
  -21.1471   -6.0521   25.9070 H   0  0  0  0  0  0
  -22.0606   -2.7603   23.2850 H   0  0  0  0  0  0
  -22.4066  -11.9856   22.4805 H   0  0  0  0  0  0
  -21.1054  -13.1211   22.2633 H   0  0  0  0  0  0
  -24.6390  -15.8394   20.5200 H   0  0  0  0  0  0
  -26.2459  -15.6292   20.0456 H   0  0  0  0  0  0
  -26.7274  -32.5284   23.0983 H   0  0  0  0  0  0
  -25.0115  -33.9614   25.0333 H   0  0  0  0  0  0
  -22.7523  -31.2872   21.3799 H   0  0  0  0  0  0
  -23.3775  -35.9544   23.3281 H   0  0  0  0  0  0
  -24.3573  -36.8905   22.2056 H   0  0  0  0  0  0
  -23.7217  -37.6415   23.6697 H   0  0  0  0  0  0
  -26.1568  -31.4654   20.6121 H   0  0  0  0  0  0
  -26.8769  -30.7646   22.0270 H   0  0  0  0  0  0
  -28.1356  -28.7889   21.2308 H   0  0  0  0  0  0
  -25.9004  -25.8238   19.0261 H   0  0  0  0  0  0
  -23.9747  -27.2877   18.9958 H   0  0  0  0  0  0
  -23.8140  -30.5653   19.4008 H   0  0  0  0  0  0
  -22.7887  -29.2352   19.8435 H   0  0  0  0  0  0
  -25.1303  -36.1853   25.0809 H   0  0  0  0  0  0
  -20.9979  -28.3311   24.1366 H   0  0  0  0  0  0
  -20.5706  -26.2322   23.3610 H   0  0  0  0  0  0
  -21.6660  -26.7456   22.1182 H   0  0  0  0  0  0
  -19.6959  -25.6293   21.1247 H   0  0  0  0  0  0
  -19.6731  -27.3176   20.6715 H   0  0  0  0  0  0
  -17.4222  -26.6665   21.4010 H   0  0  0  0  0  0
  -18.0356  -26.0070   22.9001 H   0  0  0  0  0  0
  -19.7963  -30.7270   24.2235 H   0  0  0  0  0  0
  -17.5050  -31.6276   24.5149 H   0  0  0  0  0  0
  -15.5373  -30.2982   23.7707 H   0  0  0  0  0  0
  -15.8675  -28.0816   22.7114 H   0  0  0  0  0  0
  -24.5943  -30.7048   25.7718 H   0  0  0  0  0  0
  -24.8869  -32.2898   26.4752 H   0  0  0  0  0  0
  -25.8005  -30.8965   27.0227 H   0  0  0  0  0  0
  -26.3038  -29.6679   24.1286 H   0  0  0  0  0  0
  -27.4057  -29.7272   25.4844 H   0  0  0  0  0  0
  -27.8934  -30.4228   23.9586 H   0  0  0  0  0  0
  -27.2691  -33.3667   26.1994 H   0  0  0  0  0  0
  -28.3942  -32.6805   25.0369 H   0  0  0  0  0  0
  -28.0677  -31.8493   26.5501 H   0  0  0  0  0  0
  -28.2549  -38.0100   24.7549 H   0  0  0  0  0  0
  -28.1111  -36.2633   24.6245 H   0  0  0  0  0  0
  -27.2290  -37.1349   25.8860 H   0  0  0  0  0  0
  -20.9490  -29.8741   21.6772 H   0  0  0  0  0  0
  -26.0145  -38.2811   24.1468 H   0  0  0  0  0  0
  -31.9806  -17.1436   21.4987 H   0  0  0  0  0  0
  -33.5879  -18.4485   22.2936 H   0  0  0  0  0  0
  -32.9710  -19.8049   23.2200 H   0  0  0  0  0  0
  -33.7303  -20.0635   21.6320 H   0  0  0  0  0  0
  -31.5128  -22.4469   20.8644 H   0  0  0  0  0  0
  -32.3564  -21.7827   22.2218 H   0  0  0  0  0  0
  -30.6980  -22.2041   22.4356 H   0  0  0  0  0  0
  -27.2273  -19.4224   19.7704 H   0  0  0  0  0  0
  -27.4277  -17.7202   20.1315 H   0  0  0  0  0  0
  -28.0521  -18.3777   18.6135 H   0  0  0  0  0  0
  -27.7939  -21.4923   20.8714 H   0  0  0  0  0  0
  -28.3585  -21.4757   19.2437 H   0  0  0  0  0  0
  -29.9086  -23.4754   19.7375 H   0  0  0  0  0  0
  -29.3810  -23.4979   21.3930 H   0  0  0  0  0  0
  -27.1137  -24.4016   20.6749 H   0  0  0  0  0  0
  -27.6717  -24.4644   19.0406 H   0  0  0  0  0  0
  -28.7713  -15.9494   20.4327 H   0  0  0  0  0  0
  1 25  1  0  0  0
  1 30  2  0  0  0
  1 83  1  0  0  0
  2  3  1  0  0  0
  2 25  1  0  0  0
  2 84  1  0  0  0
  2 85  1  0  0  0
  3  4  1  0  0  0
  3 86  1  0  0  0
  3 87  1  0  0  0
  4  5  1  0  0  0
  4 88  1  0  0  0
  4 89  1  0  0  0
  5  6  1  0  0  0
  5 26  1  0  0  0
  5 90  1  0  0  0
  6 25  1  0  0  0
  6 91  1  0  0  0
  6 92  1  0  0  0
  7  8  2  0  0  0
  7 26  1  0  0  0
  7 29  1  0  0  0
  8  9  1  0  0  0
  8 22  1  0  0  0
  9 10  1  0  0  0
  9 27  2  0  0  0
 10 11  2  0  0  0
 10 15  1  0  0  0
 11 12  1  0  0  0
 11 93  1  0  0  0
 12 13  2  0  0  0
 12 94  1  0  0  0
 13 14  1  0  0  0
 13 31  1  0  0  0
 14 15  2  0  0  0
 14 95  1  0  0  0
 15 96  1  0  0  0
 16 17  2  0  0  0
 16 21  1  0  0  0
 16 31  1  0  0  0
 17 18  1  0  0  0
 17 97  1  0  0  0
 18 19  2  0  0  0
 18 98  1  0  0  0
 19 20  1  0  0  0
 19 24  1  0  0  0
 20 21  2  0  0  0
 20 99  1  0  0  0
 21 23  1  0  0  0
 22 28  1  0  0  0
 22 32  2  0  0  0
 26 27  1  0  0  0
 28100  1  0  0  0
 28101  1  0  0  0
 29102  1  0  0  0
 29103  1  0  0  0
 33 34  1  0  0  0
 33 66  1  0  0  0
 33 70  2  0  0  0
 34 36  1  0  0  0
 34 59  1  0  0  0
 34104  1  0  0  0
 35 44  2  0  0  0
 35 45  1  0  0  0
 35 68  1  0  0  0
 36 56  1  0  0  0
 36105  1  0  0  0
 37 39  1  0  0  0
 37 47  1  0  0  0
 37 66  1  0  0  0
 37106  1  0  0  0
 38 43  2  0  0  0
 38 46  1  0  0  0
 38 47  1  0  0  0
 39 64  1  0  0  0
 39 67  2  0  0  0
 40 52  1  0  0  0
 40 53  2  0  0  0
 40 58  1  0  0  0
 41107  1  0  0  0
 41108  1  0  0  0
 41109  1  0  0  0
 41 48  1  0  0  0
 42 43  1  0  0  0
 42 66  1  0  0  0
 42110  1  0  0  0
 42111  1  0  0  0
 43 44  1  0  0  0
 44112  1  0  0  0
 45 46  2  0  0  0
 45113  1  0  0  0
 46114  1  0  0  0
 47115  1  0  0  0
 47116  1  0  0  0
 48 56  1  0  0  0
 48 65  1  0  0  0
 48117  1  0  0  0
 49 50  1  0  0  0
 49 53  1  0  0  0
 49 64  1  0  0  0
 49118  1  0  0  0
 50 51  1  0  0  0
 50119  1  0  0  0
 50120  1  0  0  0
 51 52  1  0  0  0
 51121  1  0  0  0
 51122  1  0  0  0
 52123  1  0  0  0
 52124  1  0  0  0
 53 54  1  0  0  0
 54 55  2  0  0  0
 54125  1  0  0  0
 55 57  1  0  0  0
 55126  1  0  0  0
 56 69  2  0  0  0
 57 58  2  0  0  0
 57127  1  0  0  0
 58128  1  0  0  0
 59 60  1  0  0  0
 59 61  1  0  0  0
 59 62  1  0  0  0
 60129  1  0  0  0
 60130  1  0  0  0
 60131  1  0  0  0
 61132  1  0  0  0
 61133  1  0  0  0
 61134  1  0  0  0
 62135  1  0  0  0
 62136  1  0  0  0
 62137  1  0  0  0
 63 65  1  0  0  0
 63138  1  0  0  0
 63139  1  0  0  0
 63140  1  0  0  0
 64141  1  0  0  0
 65142  1  0  0  0
 68 82  1  0  0  0
 71 72  2  0  0  0
 71 76  1  0  0  0
 71143  1  0  0  0
 72 73  1  0  0  0
 72 77  1  0  0  0
 73 74  2  0  0  0
 73 78  1  0  0  0
 74 75  1  0  0  0
 74 80  1  0  0  0
 75 76  2  0  0  0
 75 79  1  0  0  0
 76 83  1  0  0  0
 77144  1  0  0  0
 77145  1  0  0  0
 77146  1  0  0  0
 78147  1  0  0  0
 78148  1  0  0  0
 78149  1  0  0  0
 79150  1  0  0  0
 79151  1  0  0  0
 79152  1  0  0  0
 80 81  1  0  0  0
 80153  1  0  0  0
 80154  1  0  0  0
 81 82  1  0  0  0
 81155  1  0  0  0
 81156  1  0  0  0
 82157  1  0  0  0
 82158  1  0  0  0
 83159  1  0  0  0
M  ISO  4   1 100  68 101  82 101  83 100
M  END
> <chiral flag>
0

> <version>
0

> <s_m_source_file>
/data/baiqing/PycharmProjects/Reinvent-master-3.2/result/LINK_invent/BTK/process_docking_weight1_custom_sum_contain_oxygen_bond_distance_aromatic_linkinvent_7_9_3/rearranged_h_0026.sdf

> <i_m_source_file_index>
83

> <r_mmod_Potential_Energy-OPLS-2005>
505.830505371094

> <r_mmod_Stretch_Energy-OPLS-2005>
290.963836669922

> <r_mmod_Bend_Energy-OPLS-2005>
258.150146484375

> <r_mmod_Torsional_Energy-OPLS-2005>
215.094467163086

> <r_mmod_Improper_Torsional_Energy-OPLS-2005>
6.25283813476562

> <r_mmod_Van_der_Waal_Energy-OPLS-2005>
146.048492431641

> <r_mmod_Electrostatic_Energy-OPLS-2005>
-403.048980712891

> <r_mmod_Solvation_Energy-OPLS-2005>
-207.693603515625

> <b_mmod_Minimization_Converged-OPLS-2005>
0

> <r_mmod_RMS_Derivative-OPLS-2005>
1.62570917606354

$$$$
83
                    3D
 Structure written by MMmdl.
143151  0  0  1  0            999 V2000
  -30.3122  -15.6006   20.3324 C   0  0  0  0  0  0
  -30.4268  -13.0537   19.5403 C   0  0  0  0  0  0
  -29.5497  -12.6481   18.3217 C   0  0  0  0  0  0
  -28.1202  -12.2990   18.7631 C   0  0  0  0  0  0
  -27.5975  -13.3043   19.8142 C   0  0  2  0  0  0
  -28.6151  -13.6218   20.9351 C   0  0  0  0  0  0
  -25.2329  -13.8280   20.5788 C   0  0  0  0  0  0
  -24.1715  -13.0433   20.9286 C   0  0  0  0  0  0
  -24.6412  -11.6943   20.8765 C   0  0  0  0  0  0
  -23.9114  -10.4292   21.0399 C   0  0  0  0  0  0
  -24.3650   -9.4205   21.9181 C   0  0  0  0  0  0
  -23.6312   -8.2246   22.0754 C   0  0  0  0  0  0
  -22.4292   -8.0287   21.3545 C   0  0  0  0  0  0
  -21.9939   -9.0262   20.4644 C   0  0  0  0  0  0
  -22.7281  -10.2134   20.3050 C   0  0  0  0  0  0
  -21.6858   -6.0741   22.5279 C   0  0  0  0  0  0
  -21.4018   -6.5643   23.8213 C   0  0  0  0  0  0
  -21.3660   -5.6794   24.9174 C   0  0  0  0  0  0
  -21.6044   -4.3057   24.7224 C   0  0  0  0  0  0
  -21.8818   -3.8150   23.4344 C   0  0  0  0  0  0
  -21.9194   -4.6968   22.3401 C   0  0  0  0  0  0
  -22.7727  -13.5165   21.1921 C   0  0  0  0  0  0
  -22.1662   -4.2153   21.0979 F   0  0  0  0  0  0
  -21.5627   -3.4539   25.7736 F   0  0  0  0  0  0
  -29.7957  -14.2345   20.2841 N   0  0  0  0  0  0
  -26.2775  -12.9605   20.3231 N   0  0  0  0  0  0
  -25.9357  -11.6680   20.5703 N   0  0  0  0  0  0
  -22.0392  -12.8141   22.0473 N   0  0  0  0  0  0
  -25.3920  -15.2021   20.4226 N   0  0  0  0  0  0
  -31.5448  -15.5514   20.1565 O   0  0  0  0  0  0
  -21.6648   -6.8888   21.4243 O   0  0  0  0  0  0
  -22.3402  -14.5464   20.6757 O   0  0  0  0  0  0
  -24.6832  -31.8003   23.1519 C   0  0  0  0  0  0
  -25.9415  -32.4469   23.8064 C   0  0  1  0  0  0
  -27.2272  -26.7106   20.2127 C   0  0  0  0  0  0
  -25.5995  -33.8294   24.1950 N   0  0  0  0  0  0
  -23.5091  -30.4022   21.5055 C   0  0  2  0  0  0
  -24.9669  -28.7447   20.1171 C   0  0  0  0  0  0
  -22.7764  -29.4316   22.4711 C   0  0  0  0  0  0
  -18.0338  -28.1421   22.8455 C   0  0  0  0  0  0
  -24.1495  -36.7154   23.2653 C   0  0  0  0  0  0
  -26.0893  -30.5357   21.4154 C   0  0  0  0  0  0
  -26.1555  -29.1015   20.7649 C   0  0  0  0  0  0
  -27.2709  -28.1120   20.7806 C   0  0  0  0  0  0
  -26.0064  -26.5616   19.5069 C   0  0  0  0  0  0
  -24.9310  -27.5002   19.4645 C   0  0  0  0  0  0
  -23.7627  -29.6991   20.1407 C   0  0  0  0  0  0
  -25.4145  -36.2896   24.0282 C   0  0  1  0  0  0
  -20.5974  -28.3780   23.1142 C   0  0  2  0  0  0
  -20.6804  -26.9439   22.5404 C   0  0  0  0  0  0
  -19.5780  -26.6370   21.5216 C   0  0  0  0  0  0
  -18.1963  -26.7949   22.1619 C   0  0  0  0  0  0
  -19.1605  -28.8925   23.2780 C   0  0  0  0  0  0
  -18.9510  -30.1509   23.8825 C   0  0  0  0  0  0
  -17.6500  -30.6603   24.0550 C   0  0  0  0  0  0
  -25.9125  -34.9286   23.4953 C   0  0  0  0  0  0
  -16.5390  -29.9085   23.6350 C   0  0  0  0  0  0
  -16.7318  -28.6508   23.0367 C   0  0  0  0  0  0
  -26.4595  -31.6503   25.0685 C   0  0  0  0  0  0
  -25.3662  -31.3819   26.1300 C   0  0  0  0  0  0
  -27.0528  -30.2841   24.6583 C   0  0  0  0  0  0
  -27.6042  -32.4365   25.7504 C   0  0  0  0  0  0
  -27.5564  -37.1733   24.8465 C   0  0  0  0  0  0
  -21.4412  -29.3027   22.3462 N   0  0  0  0  0  0
  -26.4271  -37.3657   23.9409 N   0  0  0  0  0  0
  -24.7839  -30.9455   22.0768 N   0  0  0  0  0  0
  -23.4210  -28.7918   23.3054 O   0  0  0  0  0  0
  -28.1875  -25.4935   20.2955 O   0  0  0  0  0  0
  -26.5766  -34.8863   22.4571 O   0  0  0  0  0  0
  -23.5853  -32.1073   23.6477 O   0  0  0  0  0  0
  -28.9598  -22.2261   20.3939 C   0  0  0  0  0  0
  -29.0759  -19.5141   21.4245 C   0  0  0  0  0  0
  -28.7735  -20.3636   20.2032 C   0  0  2  0  0  0
  -29.7307  -18.6945   20.3243 C   0  0  2  0  0  0
  -27.9430  -23.7635   20.1057 C   0  0  0  0  0  0
  -29.5346  -16.9483   20.4035 N   0  0  0  0  0  0
  -30.0711  -22.5122   20.8503 O   0  0  0  0  0  0
  -31.4229  -13.3108   19.1783 H   0  0  0  0  0  0
  -30.5790  -12.2040   20.2081 H   0  0  0  0  0  0
  -29.9969  -11.8071   17.7900 H   0  0  0  0  0  0
  -29.5171  -13.4772   17.6134 H   0  0  0  0  0  0
  -28.1405  -11.2983   19.1963 H   0  0  0  0  0  0
  -27.4508  -12.2503   17.9033 H   0  0  0  0  0  0
  -27.4652  -14.2302   19.2526 H   0  0  0  0  0  0
  -28.8661  -12.7348   21.5188 H   0  0  0  0  0  0
  -28.1881  -14.3405   21.6362 H   0  0  0  0  0  0
  -25.2790   -9.5679   22.4765 H   0  0  0  0  0  0
  -24.0013   -7.4638   22.7479 H   0  0  0  0  0  0
  -21.0868   -8.8789   19.8950 H   0  0  0  0  0  0
  -22.3739  -10.9675   19.6162 H   0  0  0  0  0  0
  -21.2013   -7.6151   23.9717 H   0  0  0  0  0  0
  -21.1482   -6.0524   25.9077 H   0  0  0  0  0  0
  -22.0596   -2.7612   23.2843 H   0  0  0  0  0  0
  -22.4035  -11.9817   22.4867 H   0  0  0  0  0  0
  -21.0999  -13.1136   22.2673 H   0  0  0  0  0  0
  -24.6180  -15.8483   20.5332 H   0  0  0  0  0  0
  -26.2277  -15.6440   20.0636 H   0  0  0  0  0  0
  -26.7497  -32.4943   23.0777 H   0  0  0  0  0  0
  -25.0053  -33.9333   25.0044 H   0  0  0  0  0  0
  -22.8342  -31.2395   21.3159 H   0  0  0  0  0  0
  -23.3777  -35.9463   23.3260 H   0  0  0  0  0  0
  -24.3564  -36.8871   22.2078 H   0  0  0  0  0  0
  -23.7235  -37.6310   23.6765 H   0  0  0  0  0  0
  -26.2921  -31.2616   20.6269 H   0  0  0  0  0  0
  -26.9402  -30.6027   22.0809 H   0  0  0  0  0  0
  -28.1644  -28.3902   21.3215 H   0  0  0  0  0  0
  -25.8414  -25.6187   19.0053 H   0  0  0  0  0  0
  -24.0338  -27.2184   18.9305 H   0  0  0  0  0  0
  -23.9370  -30.4592   19.3783 H   0  0  0  0  0  0
  -22.8677  -29.1650   19.8170 H   0  0  0  0  0  0
  -25.1354  -36.1658   25.0772 H   0  0  0  0  0  0
  -21.0057  -28.3406   24.1268 H   0  0  0  0  0  0
  -20.5666  -26.2405   23.3666 H   0  0  0  0  0  0
  -21.6666  -26.7381   22.1223 H   0  0  0  0  0  0
  -19.6936  -25.6262   21.1293 H   0  0  0  0  0  0
  -19.6724  -27.3140   20.6714 H   0  0  0  0  0  0
  -17.4233  -26.6691   21.4023 H   0  0  0  0  0  0
  -18.0351  -26.0108   22.9032 H   0  0  0  0  0  0
  -19.7986  -30.7344   24.2162 H   0  0  0  0  0  0
  -17.5050  -31.6276   24.5167 H   0  0  0  0  0  0
  -15.5387  -30.2964   23.7715 H   0  0  0  0  0  0
  -15.8719  -28.0802   22.7123 H   0  0  0  0  0  0
  -24.5872  -30.7142   25.7601 H   0  0  0  0  0  0
  -24.8823  -32.3040   26.4528 H   0  0  0  0  0  0
  -25.7840  -30.9112   27.0209 H   0  0  0  0  0  0
  -26.3245  -29.6454   24.1577 H   0  0  0  0  0  0
  -27.3958  -29.7290   25.5324 H   0  0  0  0  0  0
  -27.9224  -30.3968   24.0106 H   0  0  0  0  0  0
  -27.2581  -33.3737   26.1875 H   0  0  0  0  0  0
  -28.3959  -32.6814   25.0410 H   0  0  0  0  0  0
  -28.0594  -31.8633   26.5591 H   0  0  0  0  0  0
  -28.2546  -38.0061   24.7519 H   0  0  0  0  0  0
  -28.1096  -36.2584   24.6286 H   0  0  0  0  0  0
  -27.2280  -37.1360   25.8867 H   0  0  0  0  0  0
  -20.9715  -29.8683   21.6528 H   0  0  0  0  0  0
  -26.0097  -38.2704   24.1425 H   0  0  0  0  0  0
  -28.2012  -19.0793   21.9037 H   0  0  0  0  0  0
  -29.7662  -19.9413   22.1498 H   0  0  0  0  0  0
  -27.8193  -20.1783   19.7145 H   0  0  0  0  0  0
  -30.7773  -18.9131   20.1192 H   0  0  0  0  0  0
  -27.0361  -23.5708   20.6786 H   0  0  0  0  0  0
  -27.6231  -23.6614   19.0690 H   0  0  0  0  0  0
  -28.5551  -16.7244   20.5075 H   0  0  0  0  0  0
  1 25  1  0  0  0
  1 30  2  0  0  0
  1 76  1  0  0  0
  2  3  1  0  0  0
  2 25  1  0  0  0
  2 78  1  0  0  0
  2 79  1  0  0  0
  3  4  1  0  0  0
  3 80  1  0  0  0
  3 81  1  0  0  0
  4  5  1  0  0  0
  4 82  1  0  0  0
  4 83  1  0  0  0
  5  6  1  0  0  0
  5 26  1  0  0  0
  5 84  1  0  0  0
  6 25  1  0  0  0
  6 85  1  0  0  0
  6 86  1  0  0  0
  7  8  2  0  0  0
  7 26  1  0  0  0
  7 29  1  0  0  0
  8  9  1  0  0  0
  8 22  1  0  0  0
  9 10  1  0  0  0
  9 27  2  0  0  0
 10 11  2  0  0  0
 10 15  1  0  0  0
 11 12  1  0  0  0
 11 87  1  0  0  0
 12 13  2  0  0  0
 12 88  1  0  0  0
 13 14  1  0  0  0
 13 31  1  0  0  0
 14 15  2  0  0  0
 14 89  1  0  0  0
 15 90  1  0  0  0
 16 17  2  0  0  0
 16 21  1  0  0  0
 16 31  1  0  0  0
 17 18  1  0  0  0
 17 91  1  0  0  0
 18 19  2  0  0  0
 18 92  1  0  0  0
 19 20  1  0  0  0
 19 24  1  0  0  0
 20 21  2  0  0  0
 20 93  1  0  0  0
 21 23  1  0  0  0
 22 28  1  0  0  0
 22 32  2  0  0  0
 26 27  1  0  0  0
 28 94  1  0  0  0
 28 95  1  0  0  0
 29 96  1  0  0  0
 29 97  1  0  0  0
 33 34  1  0  0  0
 33 66  1  0  0  0
 33 70  2  0  0  0
 34 36  1  0  0  0
 34 59  1  0  0  0
 34 98  1  0  0  0
 35 44  2  0  0  0
 35 45  1  0  0  0
 35 68  1  0  0  0
 36 56  1  0  0  0
 36 99  1  0  0  0
 37 39  1  0  0  0
 37 47  1  0  0  0
 37 66  1  0  0  0
 37100  1  0  0  0
 38 43  2  0  0  0
 38 46  1  0  0  0
 38 47  1  0  0  0
 39 64  1  0  0  0
 39 67  2  0  0  0
 40 52  1  0  0  0
 40 53  2  0  0  0
 40 58  1  0  0  0
 41101  1  0  0  0
 41102  1  0  0  0
 41103  1  0  0  0
 41 48  1  0  0  0
 42 43  1  0  0  0
 42 66  1  0  0  0
 42104  1  0  0  0
 42105  1  0  0  0
 43 44  1  0  0  0
 44106  1  0  0  0
 45 46  2  0  0  0
 45107  1  0  0  0
 46108  1  0  0  0
 47109  1  0  0  0
 47110  1  0  0  0
 48 56  1  0  0  0
 48 65  1  0  0  0
 48111  1  0  0  0
 49 50  1  0  0  0
 49 53  1  0  0  0
 49 64  1  0  0  0
 49112  1  0  0  0
 50 51  1  0  0  0
 50113  1  0  0  0
 50114  1  0  0  0
 51 52  1  0  0  0
 51115  1  0  0  0
 51116  1  0  0  0
 52117  1  0  0  0
 52118  1  0  0  0
 53 54  1  0  0  0
 54 55  2  0  0  0
 54119  1  0  0  0
 55 57  1  0  0  0
 55120  1  0  0  0
 56 69  2  0  0  0
 57 58  2  0  0  0
 57121  1  0  0  0
 58122  1  0  0  0
 59 60  1  0  0  0
 59 61  1  0  0  0
 59 62  1  0  0  0
 60123  1  0  0  0
 60124  1  0  0  0
 60125  1  0  0  0
 61126  1  0  0  0
 61127  1  0  0  0
 61128  1  0  0  0
 62129  1  0  0  0
 62130  1  0  0  0
 62131  1  0  0  0
 63 65  1  0  0  0
 63132  1  0  0  0
 63133  1  0  0  0
 63134  1  0  0  0
 64135  1  0  0  0
 65136  1  0  0  0
 68 75  1  0  0  0
 71 75  1  0  0  0
 71 77  2  0  0  0
 71 73  1  0  0  0
 72 73  1  0  0  0
 72 74  1  0  0  0
 72137  1  0  0  0
 72138  1  0  0  0
 73 74  1  0  0  0
 73139  1  0  0  0
 74 76  1  0  0  0
 74140  1  0  0  0
 75141  1  0  0  0
 75142  1  0  0  0
 76143  1  0  0  0
M  ISO  4   1 100  68 101  75 101  76 100
M  END
> <chiral flag>
0

> <version>
0

> <s_m_source_file>
/data/baiqing/PycharmProjects/Reinvent-master-3.2/result/LINK_invent/BTK/process_docking_weight1_custom_sum_contain_oxygen_bond_distance_aromatic_linkinvent_7_9_3/rearranged_h_0026.sdf

> <i_m_source_file_index>
84

> <r_mmod_Potential_Energy-OPLS-2005>
2401.78393554688

> <r_mmod_Stretch_Energy-OPLS-2005>
1147.30529785156

> <r_mmod_Bend_Energy-OPLS-2005>
581.886657714844

> <r_mmod_Torsional_Energy-OPLS-2005>
245.998519897461

> <r_mmod_Improper_Torsional_Energy-OPLS-2005>
3.37924385070801

> <r_mmod_Van_der_Waal_Energy-OPLS-2005>
108.79125213623

> <r_mmod_Electrostatic_Energy-OPLS-2005>
-308.935028076172

> <r_mmod_Solvation_Energy-OPLS-2005>
-243.044586181641

> <b_mmod_Minimization_Converged-OPLS-2005>
0

> <r_mmod_RMS_Derivative-OPLS-2005>
0.0533984638750553

$$$$
84
                    3D
 Structure written by MMmdl.
175184  0  0  1  0            999 V2000
  -32.0469  -14.0322   20.3895 C   0  0  0  0  0  0
  -31.0024  -11.8383   19.7481 C   0  0  0  0  0  0
  -29.1200  -12.1786   17.1723 C   0  0  0  0  0  0
  -28.1565  -13.7533   17.5774 C   0  0  0  0  0  0
  -28.1192  -14.8016   19.5594 C   0  0  2  0  0  0
  -29.7445  -14.3120   20.6858 C   0  0  0  0  0  0
  -24.6358  -14.4772   20.8039 C   0  0  0  0  0  0
  -23.7824  -13.3982   20.9468 C   0  0  0  0  0  0
  -24.4086  -12.1456   20.9723 C   0  0  0  0  0  0
  -23.8965  -10.6772   21.0822 C   0  0  0  0  0  0
  -24.3790   -9.6298   21.9344 C   0  0  0  0  0  0
  -23.6910   -8.3750   22.0747 C   0  0  0  0  0  0
  -22.4897   -8.1118   21.3642 C   0  0  0  0  0  0
  -22.0575   -9.0978   20.4620 C   0  0  0  0  0  0
  -22.7453  -10.3279   20.3247 C   0  0  0  0  0  0
  -21.7337   -6.1075   22.5283 C   0  0  0  0  0  0
  -21.4333   -6.5838   23.8234 C   0  0  0  0  0  0
  -21.3772   -5.6954   24.9161 C   0  0  0  0  0  0
  -21.6072   -4.3195   24.7201 C   0  0  0  0  0  0
  -21.8737   -3.8314   23.4307 C   0  0  0  0  0  0
  -21.9370   -4.7206   22.3379 C   0  0  0  0  0  0
  -22.3744  -13.6124   21.1761 C   0  0  0  0  0  0
  -22.1756   -4.2260   21.1000 F   0  0  0  0  0  0
  -21.5591   -3.4714   25.7735 F   0  0  0  0  0  0
  -30.9820  -13.2285   20.6727 N   0  0  0  0  0  0
  -25.8704  -14.1133   20.6391 N   0  0  0  0  0  0
  -25.5623  -12.7028   21.2452 N   0  0  0  0  0  0
  -21.7849  -12.8164   22.0469 N   0  0  0  0  0  0
  -24.5338  -15.8130   20.8310 N   0  0  0  0  0  0
  -32.1489  -15.1832   20.7377 O   0  0  0  0  0  0
  -21.7480   -6.9400   21.4284 O   0  0  0  0  0  0
  -21.8427  -14.5710   20.6414 O   0  0  0  0  0  0
  -24.7481  -31.7112   23.1042 C   0  0  0  0  0  0
  -25.9744  -32.4030   23.7760 C   0  0  1  0  0  0
  -26.7957  -25.8497   20.2607 C   0  0  0  0  0  0
  -25.5999  -33.7913   24.1501 N   0  0  0  0  0  0
  -23.5723  -30.3135   21.4843 C   0  0  2  0  0  0
  -24.9382  -28.5016   20.1019 C   0  0  0  0  0  0
  -22.7905  -29.3896   22.4596 C   0  0  0  0  0  0
  -18.0349  -28.1480   22.8425 C   0  0  0  0  0  0
  -24.1489  -36.6969   23.2656 C   0  0  0  0  0  0
  -26.1586  -30.1280   21.4944 C   0  0  0  0  0  0
  -26.1184  -28.6219   20.8359 C   0  0  0  0  0  0
  -27.0206  -27.3380   20.8727 C   0  0  0  0  0  0
  -25.6987  -26.1671   19.3966 C   0  0  0  0  0  0
  -24.8244  -27.3213   19.3452 C   0  0  0  0  0  0
  -23.8313  -29.5926   20.1230 C   0  0  0  0  0  0
  -25.4173  -36.2644   24.0212 C   0  0  1  0  0  0
  -20.5991  -28.3808   23.1095 C   0  0  2  0  0  0
  -20.6816  -26.9428   22.5466 C   0  0  0  0  0  0
  -19.5796  -26.6351   21.5279 C   0  0  0  0  0  0
  -18.1950  -26.7999   22.1618 C   0  0  0  0  0  0
  -19.1632  -28.8986   23.2707 C   0  0  0  0  0  0
  -18.9536  -30.1576   23.8740 C   0  0  0  0  0  0
  -17.6514  -30.6631   24.0546 C   0  0  0  0  0  0
  -25.9201  -34.9052   23.4762 C   0  0  0  0  0  0
  -16.5395  -29.9093   23.6394 C   0  0  0  0  0  0
  -16.7322  -28.6550   23.0350 C   0  0  0  0  0  0
  -26.4684  -31.6479   25.0720 C   0  0  0  0  0  0
  -25.3537  -31.4031   26.1189 C   0  0  0  0  0  0
  -27.0786  -30.2776   24.7227 C   0  0  0  0  0  0
  -27.5986  -32.4581   25.7491 C   0  0  0  0  0  0
  -27.5575  -37.1617   24.8445 C   0  0  0  0  0  0
  -21.4526  -29.2910   22.3328 N   0  0  0  0  0  0
  -26.4238  -37.3507   23.9426 N   0  0  0  0  0  0
  -24.8682  -30.7778   22.0730 N   0  0  0  0  0  0
  -23.4122  -28.7577   23.3164 O   0  0  0  0  0  0
  -27.3564  -24.1891   20.3682 O   0  0  0  0  0  0
  -26.5969  -34.8789   22.4472 O   0  0  0  0  0  0
  -23.6387  -32.0596   23.5584 O   0  0  0  0  0  0
  -30.2795  -13.5293   18.4446 C   0  0  0  0  0  0
  -30.2102  -10.2257   18.1122 C   0  0  0  0  0  0
  -28.8724  -12.3677   19.3662 C   0  0  0  0  0  0
  -31.4244  -12.7588   17.6196 C   0  0  0  0  0  0
  -29.0217  -10.7390   19.0692 C   0  0  0  0  0  0
  -31.3145  -11.1636   17.4210 C   0  0  0  0  0  0
  -27.7136  -14.2903   21.8285 C   0  0  0  0  0  0
  -26.1338  -14.5676   18.4759 C   0  0  0  0  0  0
  -27.4351  -16.3614   21.5244 C   0  0  0  0  0  0
  -26.3075  -16.5881   18.9624 C   0  0  0  0  0  0
  -27.4606  -12.7918   19.8503 C   0  0  1  0  0  0
  -28.1551   -9.6775   19.7431 C   0  0  0  0  0  0
  -32.3005  -10.4677   16.4994 C   0  0  0  0  0  0
  -33.1054  -14.5416   17.0057 C   0  0  0  0  0  0
  -27.0198  -19.7358   20.5709 C   0  0  0  0  0  0
  -27.0528  -22.0789   20.0445 C   0  0  0  0  0  0
  -32.7827  -13.3577   17.9382 C   0  0  2  0  0  0
  -32.9519  -13.6376   19.4266 N   0  0  0  0  0  0
  -27.0516  -17.6473   20.2441 N   0  3  1  0  0  0
  -32.0096  -11.4290   19.6588 H   0  0  0  0  0  0
  -30.7278  -11.1212   20.5400 H   0  0  0  0  0  0
  -28.4019  -11.3848   16.8938 H   0  0  0  0  0  0
  -29.5553  -12.3823   16.1828 H   0  0  0  0  0  0
  -27.3083  -13.1718   17.2145 H   0  0  0  0  0  0
  -28.3710  -14.4911   16.7951 H   0  0  0  0  0  0
  -28.3830  -15.8282   19.3505 H   0  0  0  0  0  0
  -29.6317  -13.4399   21.3306 H   0  0  0  0  0  0
  -29.9485  -15.1720   21.3362 H   0  0  0  0  0  0
  -25.2669   -9.8043   22.5282 H   0  0  0  0  0  0
  -24.0954   -7.6191   22.7360 H   0  0  0  0  0  0
  -21.1768   -8.9109   19.8587 H   0  0  0  0  0  0
  -22.3447  -11.0559   19.6396 H   0  0  0  0  0  0
  -21.2370   -7.6355   23.9735 H   0  0  0  0  0  0
  -21.1616   -6.0716   25.9063 H   0  0  0  0  0  0
  -22.0309   -2.7738   23.2835 H   0  0  0  0  0  0
  -22.2906  -12.0681   22.4920 H   0  0  0  0  0  0
  -20.8178  -12.9950   22.2854 H   0  0  0  0  0  0
  -25.1926  -16.2209   21.4789 H   0  0  0  0  0  0
  -23.6029  -16.1793   20.9993 H   0  0  0  0  0  0
  -26.7858  -32.4292   23.0479 H   0  0  0  0  0  0
  -24.9928  -33.8834   24.9498 H   0  0  0  0  0  0
  -22.9386  -31.1779   21.2755 H   0  0  0  0  0  0
  -23.3831  -35.9218   23.3132 H   0  0  0  0  0  0
  -24.3550  -36.8883   22.2118 H   0  0  0  0  0  0
  -23.7171  -37.6017   23.6932 H   0  0  0  0  0  0
  -26.4956  -30.7866   20.6939 H   0  0  0  0  0  0
  -26.9776  -30.1436   22.1971 H   0  0  0  0  0  0
  -27.8806  -27.4174   21.5236 H   0  0  0  0  0  0
  -25.3778  -25.3497   18.7611 H   0  0  0  0  0  0
  -23.9629  -27.2329   18.7002 H   0  0  0  0  0  0
  -24.1126  -30.3402   19.3814 H   0  0  0  0  0  0
  -22.8949  -29.1631   19.7615 H   0  0  0  0  0  0
  -25.1420  -36.1301   25.0700 H   0  0  0  0  0  0
  -21.0026  -28.3515   24.1244 H   0  0  0  0  0  0
  -20.5738  -26.2401   23.3754 H   0  0  0  0  0  0
  -21.6653  -26.7362   22.1239 H   0  0  0  0  0  0
  -19.6933  -25.6230   21.1365 H   0  0  0  0  0  0
  -19.6815  -27.3116   20.6781 H   0  0  0  0  0  0
  -17.4265  -26.6772   21.3972 H   0  0  0  0  0  0
  -18.0265  -26.0192   22.9051 H   0  0  0  0  0  0
  -19.8007  -30.7459   24.2003 H   0  0  0  0  0  0
  -17.5055  -31.6295   24.5188 H   0  0  0  0  0  0
  -15.5387  -30.2933   23.7847 H   0  0  0  0  0  0
  -15.8727  -28.0853   22.7086 H   0  0  0  0  0  0
  -24.5760  -30.7356   25.7459 H   0  0  0  0  0  0
  -24.8675  -32.3328   26.4158 H   0  0  0  0  0  0
  -25.7502  -30.9469   27.0265 H   0  0  0  0  0  0
  -26.3610  -29.6030   24.2576 H   0  0  0  0  0  0
  -27.4218  -29.7705   25.6248 H   0  0  0  0  0  0
  -27.9561  -30.3783   24.0854 H   0  0  0  0  0  0
  -27.2446  -33.4082   26.1519 H   0  0  0  0  0  0
  -28.4001  -32.6858   25.0445 H   0  0  0  0  0  0
  -28.0429  -31.9125   26.5818 H   0  0  0  0  0  0
  -28.2423  -38.0064   24.7631 H   0  0  0  0  0  0
  -28.1233  -36.2593   24.6091 H   0  0  0  0  0  0
  -27.2315  -37.1015   25.8840 H   0  0  0  0  0  0
  -20.9980  -29.8424   21.6203 H   0  0  0  0  0  0
  -25.9992  -38.2511   24.1508 H   0  0  0  0  0  0
  -30.3321  -14.6160   18.4328 H   0  0  0  0  0  0
  -30.2639   -9.1683   17.8940 H   0  0  0  0  0  0
  -26.9925  -14.0518   22.6186 H   0  0  0  0  0  0
  -28.4377  -14.0848   22.6182 H   0  0  0  0  0  0
  -26.0447  -14.5905   17.3837 H   0  0  0  0  0  0
  -25.0830  -14.2744   18.4680 H   0  0  0  0  0  0
  -28.3733  -16.7503   21.9250 H   0  0  0  0  0  0
  -26.7416  -16.6353   22.3182 H   0  0  0  0  0  0
  -25.3233  -17.0298   18.8088 H   0  0  0  0  0  0
  -26.8136  -16.9737   18.0754 H   0  0  0  0  0  0
  -26.9953  -11.8069   19.8516 H   0  0  0  0  0  0
  -28.6166   -8.6920   19.6695 H   0  0  0  0  0  0
  -27.1476   -9.6079   19.3251 H   0  0  0  0  0  0
  -28.0969   -9.9190   20.8050 H   0  0  0  0  0  0
  -31.8453   -9.5816   16.0523 H   0  0  0  0  0  0
  -33.1943  -10.1518   17.0364 H   0  0  0  0  0  0
  -32.5876  -11.1280   15.6793 H   0  0  0  0  0  0
  -32.2945  -15.2672   16.9581 H   0  0  0  0  0  0
  -33.2375  -14.1774   15.9875 H   0  0  0  0  0  0
  -34.0398  -15.0456   17.2585 H   0  0  0  0  0  0
  -26.1372  -19.7252   21.2117 H   0  0  0  0  0  0
  -27.8615  -19.7398   21.2715 H   0  0  0  0  0  0
  -26.1025  -22.1518   19.5149 H   0  0  0  0  0  0
  -27.7858  -21.9960   19.2421 H   0  0  0  0  0  0
  -33.5225  -12.5876   17.7136 H   0  0  0  0  0  0
  -33.8224  -14.1081   19.5942 H   0  0  0  0  0  0
  -27.9715  -17.6868   19.8286 H   0  0  0  0  0  0
  1 25  1  0  0  0
  1 30  2  0  0  0
  1 88  1  0  0  0
  2  3  1  0  0  0
  2 25  1  0  0  0
  2 90  1  0  0  0
  2 91  1  0  0  0
  3  4  1  0  0  0
  3 92  1  0  0  0
  3 93  1  0  0  0
  4  5  1  0  0  0
  4 94  1  0  0  0
  4 95  1  0  0  0
  5  6  1  0  0  0
  5 26  1  0  0  0
  5 96  1  0  0  0
  6 25  1  0  0  0
  6 97  1  0  0  0
  6 98  1  0  0  0
  7  8  2  0  0  0
  7 26  1  0  0  0
  7 29  1  0  0  0
  8  9  1  0  0  0
  8 22  1  0  0  0
  9 10  1  0  0  0
  9 27  2  0  0  0
 10 11  2  0  0  0
 10 15  1  0  0  0
 11 12  1  0  0  0
 11 99  1  0  0  0
 12 13  2  0  0  0
 12100  1  0  0  0
 13 14  1  0  0  0
 13 31  1  0  0  0
 14 15  2  0  0  0
 14101  1  0  0  0
 15102  1  0  0  0
 16 17  2  0  0  0
 16 21  1  0  0  0
 16 31  1  0  0  0
 17 18  1  0  0  0
 17103  1  0  0  0
 18 19  2  0  0  0
 18104  1  0  0  0
 19 20  1  0  0  0
 19 24  1  0  0  0
 20 21  2  0  0  0
 20105  1  0  0  0
 21 23  1  0  0  0
 22 28  1  0  0  0
 22 32  2  0  0  0
 26 27  1  0  0  0
 28106  1  0  0  0
 28107  1  0  0  0
 29108  1  0  0  0
 29109  1  0  0  0
 33 34  1  0  0  0
 33 66  1  0  0  0
 33 70  2  0  0  0
 34 36  1  0  0  0
 34 59  1  0  0  0
 34110  1  0  0  0
 35 44  2  0  0  0
 35 45  1  0  0  0
 35 68  1  0  0  0
 36 56  1  0  0  0
 36111  1  0  0  0
 37 39  1  0  0  0
 37 47  1  0  0  0
 37 66  1  0  0  0
 37112  1  0  0  0
 38 43  2  0  0  0
 38 46  1  0  0  0
 38 47  1  0  0  0
 39 64  1  0  0  0
 39 67  2  0  0  0
 40 52  1  0  0  0
 40 53  2  0  0  0
 40 58  1  0  0  0
 41113  1  0  0  0
 41114  1  0  0  0
 41115  1  0  0  0
 41 48  1  0  0  0
 42 43  1  0  0  0
 42 66  1  0  0  0
 42116  1  0  0  0
 42117  1  0  0  0
 43 44  1  0  0  0
 44118  1  0  0  0
 45 46  2  0  0  0
 45119  1  0  0  0
 46120  1  0  0  0
 47121  1  0  0  0
 47122  1  0  0  0
 48 56  1  0  0  0
 48 65  1  0  0  0
 48123  1  0  0  0
 49 50  1  0  0  0
 49 53  1  0  0  0
 49 64  1  0  0  0
 49124  1  0  0  0
 50 51  1  0  0  0
 50125  1  0  0  0
 50126  1  0  0  0
 51 52  1  0  0  0
 51127  1  0  0  0
 51128  1  0  0  0
 52129  1  0  0  0
 52130  1  0  0  0
 53 54  1  0  0  0
 54 55  2  0  0  0
 54131  1  0  0  0
 55 57  1  0  0  0
 55132  1  0  0  0
 56 69  2  0  0  0
 57 58  2  0  0  0
 57133  1  0  0  0
 58134  1  0  0  0
 59 60  1  0  0  0
 59 61  1  0  0  0
 59 62  1  0  0  0
 60135  1  0  0  0
 60136  1  0  0  0
 60137  1  0  0  0
 61138  1  0  0  0
 61139  1  0  0  0
 61140  1  0  0  0
 62141  1  0  0  0
 62142  1  0  0  0
 62143  1  0  0  0
 63 65  1  0  0  0
 63144  1  0  0  0
 63145  1  0  0  0
 63146  1  0  0  0
 64147  1  0  0  0
 65148  1  0  0  0
 68 86  1  0  0  0
 71 73  2  0  0  0
 71 74  1  0  0  0
 71149  1  0  0  0
 72 75  2  0  0  0
 72 76  1  0  0  0
 72150  1  0  0  0
 73 75  1  0  0  0
 73 81  1  0  0  0
 74 76  2  0  0  0
 74 87  1  0  0  0
 75 82  1  0  0  0
 76 83  1  0  0  0
 77 79  1  0  0  0
 77 81  1  0  0  0
 77151  1  0  0  0
 77152  1  0  0  0
 78 80  1  0  0  0
 78 81  1  0  0  0
 78153  1  0  0  0
 78154  1  0  0  0
 79 89  1  0  0  0
 79155  1  0  0  0
 79156  1  0  0  0
 80 89  1  0  0  0
 80157  1  0  0  0
 80158  1  0  0  0
 81159  1  0  0  0
 82160  1  0  0  0
 82161  1  0  0  0
 82162  1  0  0  0
 83163  1  0  0  0
 83164  1  0  0  0
 83165  1  0  0  0
 84166  1  0  0  0
 84167  1  0  0  0
 84168  1  0  0  0
 84 87  1  0  0  0
 85 86  1  0  0  0
 85169  1  0  0  0
 85170  1  0  0  0
 85 89  1  0  0  0
 86171  1  0  0  0
 86172  1  0  0  0
 87 88  1  0  0  0
 87173  1  0  0  0
 88174  1  0  0  0
 89175  1  0  0  0
M  CHG  1  89   1
M  ISO  4   1 100  68 101  86 101  88 100
M  END
> <chiral flag>
0

> <version>
0

> <s_m_source_file>
/data/baiqing/PycharmProjects/Reinvent-master-3.2/result/LINK_invent/BTK/process_docking_weight1_custom_sum_contain_oxygen_bond_distance_aromatic_linkinvent_7_9_3/rearranged_h_0026.sdf

> <i_m_source_file_index>
85

> <r_mmod_Potential_Energy-OPLS-2005>
24178.330078125

> <r_mmod_Stretch_Energy-OPLS-2005>
13735.1328125

> <r_mmod_Bend_Energy-OPLS-2005>
1829.45239257812

> <r_mmod_Torsional_Energy-OPLS-2005>
579.902526855469

> <r_mmod_Improper_Torsional_Energy-OPLS-2005>
41.254825592041

> <r_mmod_Van_der_Waal_Energy-OPLS-2005>
5014.3740234375

> <r_mmod_Electrostatic_Energy-OPLS-2005>
-346.765106201172

> <r_mmod_Solvation_Energy-OPLS-2005>
-396.9951171875

> <b_mmod_Minimization_Converged-OPLS-2005>
0

> <r_mmod_RMS_Derivative-OPLS-2005>
17.0073089599609

$$$$
85
                    3D
 Structure written by MMmdl.
172181  0  0  1  0            999 V2000
  -30.6848  -14.4829   20.4947 C   0  0  0  0  0  0
  -30.4247  -12.2856   19.4364 C   0  0  0  0  0  0
  -29.4933  -12.4778   18.2204 C   0  0  0  0  0  0
  -28.0121  -12.3643   18.6228 C   0  0  0  0  0  0
  -27.6629  -13.2073   19.8778 C   0  0  2  0  0  0
  -28.7082  -13.0000   21.0015 C   0  0  0  0  0  0
  -25.2605  -13.8191   20.5691 C   0  0  0  0  0  0
  -24.1859  -13.0499   20.9195 C   0  0  0  0  0  0
  -24.6414  -11.6947   20.8782 C   0  0  0  0  0  0
  -23.9077  -10.4317   21.0407 C   0  0  0  0  0  0
  -24.3613   -9.4219   21.9180 C   0  0  0  0  0  0
  -23.6296   -8.2248   22.0725 C   0  0  0  0  0  0
  -22.4273   -8.0292   21.3526 C   0  0  0  0  0  0
  -21.9911   -9.0281   20.4626 C   0  0  0  0  0  0
  -22.7250  -10.2161   20.3053 C   0  0  0  0  0  0
  -21.6864   -6.0732   22.5264 C   0  0  0  0  0  0
  -21.4041   -6.5623   23.8198 C   0  0  0  0  0  0
  -21.3663   -5.6769   24.9140 C   0  0  0  0  0  0
  -21.6037   -4.3038   24.7196 C   0  0  0  0  0  0
  -21.8832   -3.8141   23.4317 C   0  0  0  0  0  0
  -21.9205   -4.6961   22.3376 C   0  0  0  0  0  0
  -22.7846  -13.5264   21.1812 C   0  0  0  0  0  0
  -22.1668   -4.2141   21.0952 F   0  0  0  0  0  0
  -21.5607   -3.4522   25.7714 F   0  0  0  0  0  0
  -30.0410  -13.2850   20.4460 N   0  0  0  0  0  0
  -26.3048  -12.9371   20.3404 N   0  0  0  0  0  0
  -25.9357  -11.6545   20.5827 N   0  0  0  0  0  0
  -22.0477  -12.8300   22.0387 N   0  0  0  0  0  0
  -25.4411  -15.1887   20.4024 N   0  0  0  0  0  0
  -31.8364  -14.6451   20.0910 O   0  0  0  0  0  0
  -21.6642   -6.8888   21.4237 O   0  0  0  0  0  0
  -22.3527  -14.5547   20.6598 O   0  0  0  0  0  0
  -24.6170  -31.8669   23.2062 C   0  0  0  0  0  0
  -25.9074  -32.4799   23.8361 C   0  0  1  0  0  0
  -27.2317  -27.4292   20.0645 C   0  0  0  0  0  0
  -25.5932  -33.8608   24.2313 N   0  0  0  0  0  0
  -23.4027  -30.4927   21.5476 C   0  0  2  0  0  0
  -24.8424  -28.9531   20.1105 C   0  0  0  0  0  0
  -22.7413  -29.4695   22.4974 C   0  0  0  0  0  0
  -18.0281  -28.1372   22.8483 C   0  0  0  0  0  0
  -24.1494  -36.7311   23.2643 C   0  0  0  0  0  0
  -25.9342  -30.8244   21.3614 C   0  0  0  0  0  0
  -26.0076  -29.4596   20.7033 C   0  0  0  0  0  0
  -27.2058  -28.7073   20.6752 C   0  0  0  0  0  0
  -26.0530  -26.9473   19.4555 C   0  0  0  0  0  0
  -24.8627  -27.6963   19.4803 C   0  0  0  0  0  0
  -23.6053  -29.8211   20.1631 C   0  0  0  0  0  0
  -25.4106  -36.3098   24.0345 C   0  0  1  0  0  0
  -20.5873  -28.3678   23.1291 C   0  0  2  0  0  0
  -20.6763  -26.9413   22.5396 C   0  0  0  0  0  0
  -19.5743  -26.6386   21.5193 C   0  0  0  0  0  0
  -18.1927  -26.7923   22.1612 C   0  0  0  0  0  0
  -19.1534  -28.8834   23.2891 C   0  0  0  0  0  0
  -18.9451  -30.1428   23.8918 C   0  0  0  0  0  0
  -17.6458  -30.6574   24.0566 C   0  0  0  0  0  0
  -25.9033  -34.9475   23.5127 C   0  0  0  0  0  0
  -16.5345  -29.9073   23.6326 C   0  0  0  0  0  0
  -16.7275  -28.6482   23.0365 C   0  0  0  0  0  0
  -26.4498  -31.6583   25.0699 C   0  0  0  0  0  0
  -25.3775  -31.3671   26.1451 C   0  0  0  0  0  0
  -27.0322  -30.3022   24.6081 C   0  0  0  0  0  0
  -27.6069  -32.4293   25.7479 C   0  0  0  0  0  0
  -27.5582  -37.1812   24.8463 C   0  0  0  0  0  0
  -21.4147  -29.3063   22.3720 N   0  0  0  0  0  0
  -26.4279  -37.3774   23.9424 N   0  0  0  0  0  0
  -24.6695  -31.0762   22.0953 N   0  0  0  0  0  0
  -23.4183  -28.8258   23.3035 O   0  0  0  0  0  0
  -28.3884  -26.6725   20.0538 O   0  0  0  0  0  0
  -26.5571  -34.8942   22.4679 O   0  0  0  0  0  0
  -23.5366  -32.1443   23.7458 O   0  0  0  0  0  0
  -31.4982  -17.8647   21.9615 C   0  0  0  0  0  0
  -31.5859  -19.1508   22.5490 C   0  0  0  0  0  0
  -30.4997  -17.9701   21.0372 C   0  0  0  0  0  0
  -30.0410  -23.7131   19.4306 C   0  0  0  0  0  0
  -27.5870  -23.0423   19.4026 C   0  0  0  0  0  0
  -30.1588  -22.3323   20.1279 C   0  0  0  0  0  0
  -28.1365  -21.7800   18.7039 C   0  0  0  0  0  0
  -28.5795  -24.2365   19.3718 C   0  0  1  0  0  0
  -29.4014  -21.1736   19.3942 C   0  0  1  0  0  0
  -30.3123  -20.5864   18.2950 C   0  0  0  0  0  0
  -33.5821  -20.5951   23.0067 C   0  0  0  0  0  0
  -32.5478  -19.6231   23.5912 C   0  0  0  0  0  0
  -30.0232  -16.8753   20.1147 C   0  0  0  0  0  0
  -28.2436  -25.2961   20.4649 C   0  0  0  0  0  0
  -28.9693  -20.0095   20.3666 C   0  0  0  0  0  0
  -30.6953  -19.9848   22.0513 N   0  0  0  0  0  0
  -30.0437  -19.2984   21.0849 N   0  0  0  0  0  0
  -29.8842  -15.5379   20.7374 N   0  0  0  0  0  0
  -31.4635  -12.3838   19.1190 H   0  0  0  0  0  0
  -30.3393  -11.2798   19.8494 H   0  0  0  0  0  0
  -29.7183  -11.7475   17.4445 H   0  0  0  0  0  0
  -29.6793  -13.4589   17.7812 H   0  0  0  0  0  0
  -27.7913  -11.3118   18.8034 H   0  0  0  0  0  0
  -27.3776  -12.6557   17.7856 H   0  0  0  0  0  0
  -27.7021  -14.2525   19.5739 H   0  0  0  0  0  0
  -28.6770  -11.9759   21.3745 H   0  0  0  0  0  0
  -28.4884  -13.6290   21.8635 H   0  0  0  0  0  0
  -25.2771   -9.5666   22.4748 H   0  0  0  0  0  0
  -24.0010   -7.4616   22.7420 H   0  0  0  0  0  0
  -21.0837   -8.8820   19.8925 H   0  0  0  0  0  0
  -22.3741  -10.9691   19.6132 H   0  0  0  0  0  0
  -21.2074   -7.6142   23.9710 H   0  0  0  0  0  0
  -21.1451   -6.0474   25.9030 H   0  0  0  0  0  0
  -22.0620   -2.7613   23.2797 H   0  0  0  0  0  0
  -22.4120  -12.0017   22.4871 H   0  0  0  0  0  0
  -21.1039  -13.1251   22.2505 H   0  0  0  0  0  0
  -24.6914  -15.8603   20.5082 H   0  0  0  0  0  0
  -26.2942  -15.6052   20.0554 H   0  0  0  0  0  0
  -26.7154  -32.5481   23.1128 H   0  0  0  0  0  0
  -25.0164  -33.9752   25.0519 H   0  0  0  0  0  0
  -22.6933  -31.3116   21.4093 H   0  0  0  0  0  0
  -23.3738  -35.9653   23.3288 H   0  0  0  0  0  0
  -24.3590  -36.8930   22.2052 H   0  0  0  0  0  0
  -23.7260  -37.6534   23.6644 H   0  0  0  0  0  0
  -26.0605  -31.5913   20.5949 H   0  0  0  0  0  0
  -26.8197  -30.8674   21.9836 H   0  0  0  0  0  0
  -28.1048  -29.0989   21.1312 H   0  0  0  0  0  0
  -26.0546  -25.9953   18.9440 H   0  0  0  0  0  0
  -23.9758  -27.3042   19.0008 H   0  0  0  0  0  0
  -23.7100  -30.5950   19.4018 H   0  0  0  0  0  0
  -22.7270  -29.2408   19.8700 H   0  0  0  0  0  0
  -25.1286  -36.1958   25.0824 H   0  0  0  0  0  0
  -20.9962  -28.3237   24.1413 H   0  0  0  0  0  0
  -20.5641  -26.2294   23.3597 H   0  0  0  0  0  0
  -21.6640  -26.7451   22.1212 H   0  0  0  0  0  0
  -19.6909  -25.6293   21.1229 H   0  0  0  0  0  0
  -19.6677  -27.3185   20.6712 H   0  0  0  0  0  0
  -17.4203  -26.6680   21.4015 H   0  0  0  0  0  0
  -18.0336  -26.0057   22.8994 H   0  0  0  0  0  0
  -19.7923  -30.7233   24.2311 H   0  0  0  0  0  0
  -17.5012  -31.6264   24.5157 H   0  0  0  0  0  0
  -15.5343  -30.2992   23.7616 H   0  0  0  0  0  0
  -15.8677  -28.0793   22.7093 H   0  0  0  0  0  0
  -24.5951  -30.7006   25.7806 H   0  0  0  0  0  0
  -24.8955  -32.2805   26.4943 H   0  0  0  0  0  0
  -25.8146  -30.8830   27.0195 H   0  0  0  0  0  0
  -26.2841  -29.6779   24.1166 H   0  0  0  0  0  0
  -27.4135  -29.7267   25.4537 H   0  0  0  0  0  0
  -27.8681  -30.4356   23.9202 H   0  0  0  0  0  0
  -27.2690  -33.3595   26.2076 H   0  0  0  0  0  0
  -28.3882  -32.6844   25.0298 H   0  0  0  0  0  0
  -28.0739  -31.8395   26.5389 H   0  0  0  0  0  0
  -28.2589  -38.0117   24.7511 H   0  0  0  0  0  0
  -28.1088  -36.2656   24.6271 H   0  0  0  0  0  0
  -27.2314  -37.1448   25.8865 H   0  0  0  0  0  0
  -20.9294  -29.8783   21.6954 H   0  0  0  0  0  0
  -26.0182  -38.2863   24.1369 H   0  0  0  0  0  0
  -32.0918  -16.9852   22.1717 H   0  0  0  0  0  0
  -30.4330  -23.6206   18.4178 H   0  0  0  0  0  0
  -30.6859  -24.4457   19.9165 H   0  0  0  0  0  0
  -26.6513  -23.3411   18.9279 H   0  0  0  0  0  0
  -27.3419  -22.7802   20.4342 H   0  0  0  0  0  0
  -29.7646  -22.4437   21.1386 H   0  0  0  0  0  0
  -31.2104  -22.0754   20.2621 H   0  0  0  0  0  0
  -28.3587  -22.0470   17.6696 H   0  0  0  0  0  0
  -27.3463  -21.0303   18.6387 H   0  0  0  0  0  0
  -28.4473  -24.7259   18.4076 H   0  0  0  0  0  0
  -30.6247  -21.3526   17.5847 H   0  0  0  0  0  0
  -29.7944  -19.8117   17.7252 H   0  0  0  0  0  0
  -31.2217  -20.1497   18.7153 H   0  0  0  0  0  0
  -34.3144  -20.8722   23.7630 H   0  0  0  0  0  0
  -33.1109  -21.5084   22.6426 H   0  0  0  0  0  0
  -34.1098  -20.1495   22.1624 H   0  0  0  0  0  0
  -33.0570  -18.7525   24.0054 H   0  0  0  0  0  0
  -32.0190  -20.0962   24.4209 H   0  0  0  0  0  0
  -30.7357  -16.8180   19.2899 H   0  0  0  0  0  0
  -29.0677  -17.1330   19.6595 H   0  0  0  0  0  0
  -28.8857  -25.1448   21.3333 H   0  0  0  0  0  0
  -27.2422  -25.1089   20.8560 H   0  0  0  0  0  0
  -28.3605  -19.2712   19.8428 H   0  0  0  0  0  0
  -28.3063  -20.4318   21.1244 H   0  0  0  0  0  0
  -28.9812  -15.3126   21.1242 H   0  0  0  0  0  0
  1 25  1  0  0  0
  1 30  2  0  0  0
  1 88  1  0  0  0
  2  3  1  0  0  0
  2 25  1  0  0  0
  2 89  1  0  0  0
  2 90  1  0  0  0
  3  4  1  0  0  0
  3 91  1  0  0  0
  3 92  1  0  0  0
  4  5  1  0  0  0
  4 93  1  0  0  0
  4 94  1  0  0  0
  5  6  1  0  0  0
  5 26  1  0  0  0
  5 95  1  0  0  0
  6 25  1  0  0  0
  6 96  1  0  0  0
  6 97  1  0  0  0
  7  8  2  0  0  0
  7 26  1  0  0  0
  7 29  1  0  0  0
  8  9  1  0  0  0
  8 22  1  0  0  0
  9 10  1  0  0  0
  9 27  2  0  0  0
 10 11  2  0  0  0
 10 15  1  0  0  0
 11 12  1  0  0  0
 11 98  1  0  0  0
 12 13  2  0  0  0
 12 99  1  0  0  0
 13 14  1  0  0  0
 13 31  1  0  0  0
 14 15  2  0  0  0
 14100  1  0  0  0
 15101  1  0  0  0
 16 17  2  0  0  0
 16 21  1  0  0  0
 16 31  1  0  0  0
 17 18  1  0  0  0
 17102  1  0  0  0
 18 19  2  0  0  0
 18103  1  0  0  0
 19 20  1  0  0  0
 19 24  1  0  0  0
 20 21  2  0  0  0
 20104  1  0  0  0
 21 23  1  0  0  0
 22 28  1  0  0  0
 22 32  2  0  0  0
 26 27  1  0  0  0
 28105  1  0  0  0
 28106  1  0  0  0
 29107  1  0  0  0
 29108  1  0  0  0
 33 34  1  0  0  0
 33 66  1  0  0  0
 33 70  2  0  0  0
 34 36  1  0  0  0
 34 59  1  0  0  0
 34109  1  0  0  0
 35 44  2  0  0  0
 35 45  1  0  0  0
 35 68  1  0  0  0
 36 56  1  0  0  0
 36110  1  0  0  0
 37 39  1  0  0  0
 37 47  1  0  0  0
 37 66  1  0  0  0
 37111  1  0  0  0
 38 43  2  0  0  0
 38 46  1  0  0  0
 38 47  1  0  0  0
 39 64  1  0  0  0
 39 67  2  0  0  0
 40 52  1  0  0  0
 40 53  2  0  0  0
 40 58  1  0  0  0
 41112  1  0  0  0
 41113  1  0  0  0
 41114  1  0  0  0
 41 48  1  0  0  0
 42 43  1  0  0  0
 42 66  1  0  0  0
 42115  1  0  0  0
 42116  1  0  0  0
 43 44  1  0  0  0
 44117  1  0  0  0
 45 46  2  0  0  0
 45118  1  0  0  0
 46119  1  0  0  0
 47120  1  0  0  0
 47121  1  0  0  0
 48 56  1  0  0  0
 48 65  1  0  0  0
 48122  1  0  0  0
 49 50  1  0  0  0
 49 53  1  0  0  0
 49 64  1  0  0  0
 49123  1  0  0  0
 50 51  1  0  0  0
 50124  1  0  0  0
 50125  1  0  0  0
 51 52  1  0  0  0
 51126  1  0  0  0
 51127  1  0  0  0
 52128  1  0  0  0
 52129  1  0  0  0
 53 54  1  0  0  0
 54 55  2  0  0  0
 54130  1  0  0  0
 55 57  1  0  0  0
 55131  1  0  0  0
 56 69  2  0  0  0
 57 58  2  0  0  0
 57132  1  0  0  0
 58133  1  0  0  0
 59 60  1  0  0  0
 59 61  1  0  0  0
 59 62  1  0  0  0
 60134  1  0  0  0
 60135  1  0  0  0
 60136  1  0  0  0
 61137  1  0  0  0
 61138  1  0  0  0
 61139  1  0  0  0
 62140  1  0  0  0
 62141  1  0  0  0
 62142  1  0  0  0
 63 65  1  0  0  0
 63143  1  0  0  0
 63144  1  0  0  0
 63145  1  0  0  0
 64146  1  0  0  0
 65147  1  0  0  0
 68 84  1  0  0  0
 71 72  1  0  0  0
 71 73  2  0  0  0
 71148  1  0  0  0
 72 82  1  0  0  0
 72 86  2  0  0  0
 73 83  1  0  0  0
 73 87  1  0  0  0
 74 76  1  0  0  0
 74 78  1  0  0  0
 74149  1  0  0  0
 74150  1  0  0  0
 75 77  1  0  0  0
 75 78  1  0  0  0
 75151  1  0  0  0
 75152  1  0  0  0
 76 79  1  0  0  0
 76153  1  0  0  0
 76154  1  0  0  0
 77 79  1  0  0  0
 77155  1  0  0  0
 77156  1  0  0  0
 78 84  1  0  0  0
 78157  1  0  0  0
 79 80  1  0  0  0
 79 85  1  0  0  0
 80158  1  0  0  0
 80159  1  0  0  0
 80160  1  0  0  0
 81 82  1  0  0  0
 81161  1  0  0  0
 81162  1  0  0  0
 81163  1  0  0  0
 82164  1  0  0  0
 82165  1  0  0  0
 83 88  1  0  0  0
 83166  1  0  0  0
 83167  1  0  0  0
 84168  1  0  0  0
 84169  1  0  0  0
 85 87  1  0  0  0
 85170  1  0  0  0
 85171  1  0  0  0
 86 87  1  0  0  0
 88172  1  0  0  0
M  ISO  4   1 100  68 101  84 101  88 100
M  END
> <chiral flag>
0

> <version>
0

> <s_m_source_file>
/data/baiqing/PycharmProjects/Reinvent-master-3.2/result/LINK_invent/BTK/process_docking_weight1_custom_sum_contain_oxygen_bond_distance_aromatic_linkinvent_7_9_3/rearranged_h_0026.sdf

> <i_m_source_file_index>
86

> <r_mmod_Potential_Energy-OPLS-2005>
-50.2620010375977

> <r_mmod_Stretch_Energy-OPLS-2005>
45.2894325256348

> <r_mmod_Bend_Energy-OPLS-2005>
110.625389099121

> <r_mmod_Torsional_Energy-OPLS-2005>
283.963592529297

> <r_mmod_Improper_Torsional_Energy-OPLS-2005>
8.5255069732666

> <r_mmod_Van_der_Waal_Energy-OPLS-2005>
133.478851318359

> <r_mmod_Electrostatic_Energy-OPLS-2005>
-436.496978759766

> <r_mmod_Solvation_Energy-OPLS-2005>
-211.838470458984

> <b_mmod_Minimization_Converged-OPLS-2005>
0

> <r_mmod_RMS_Derivative-OPLS-2005>
5.44484090805054

$$$$
86
                    3D
 Structure written by MMmdl.
168177  0  0  1  0            999 V2000
  -30.7394  -14.4003   20.6940 C   0  0  0  0  0  0
  -30.4307  -12.3052   19.4010 C   0  0  0  0  0  0
  -29.4947  -12.5459   18.1986 C   0  0  0  0  0  0
  -28.0185  -12.3859   18.6103 C   0  0  0  0  0  0
  -27.6700  -13.1985   19.8840 C   0  0  2  0  0  0
  -28.7071  -12.9275   21.0001 C   0  0  0  0  0  0
  -25.2609  -13.8137   20.5642 C   0  0  0  0  0  0
  -24.1854  -13.0423   20.9132 C   0  0  0  0  0  0
  -24.6402  -11.6883   20.8708 C   0  0  0  0  0  0
  -23.9059  -10.4282   21.0381 C   0  0  0  0  0  0
  -24.3614   -9.4201   21.9168 C   0  0  0  0  0  0
  -23.6286   -8.2238   22.0748 C   0  0  0  0  0  0
  -22.4269   -8.0272   21.3533 C   0  0  0  0  0  0
  -21.9894   -9.0245   20.4635 C   0  0  0  0  0  0
  -22.7221  -10.2126   20.3036 C   0  0  0  0  0  0
  -21.6857   -6.0725   22.5275 C   0  0  0  0  0  0
  -21.4023   -6.5631   23.8210 C   0  0  0  0  0  0
  -21.3663   -5.6783   24.9171 C   0  0  0  0  0  0
  -21.6050   -4.3045   24.7218 C   0  0  0  0  0  0
  -21.8819   -3.8135   23.4338 C   0  0  0  0  0  0
  -21.9191   -4.6953   22.3396 C   0  0  0  0  0  0
  -22.7883  -13.5231   21.1825 C   0  0  0  0  0  0
  -22.1655   -4.2137   21.0972 F   0  0  0  0  0  0
  -21.5629   -3.4529   25.7730 F   0  0  0  0  0  0
  -30.0577  -13.2368   20.4795 N   0  0  0  0  0  0
  -26.3057  -12.9303   20.3369 N   0  0  0  0  0  0
  -25.9333  -11.6469   20.5748 N   0  0  0  0  0  0
  -22.0521  -12.8236   22.0383 N   0  0  0  0  0  0
  -25.4335  -15.1866   20.4086 N   0  0  0  0  0  0
  -31.7505  -14.7131   20.0460 O   0  0  0  0  0  0
  -21.6634   -6.8867   21.4234 O   0  0  0  0  0  0
  -22.3565  -14.5537   20.6673 O   0  0  0  0  0  0
  -24.6142  -31.8709   23.2114 C   0  0  0  0  0  0
  -25.9044  -32.4843   23.8404 C   0  0  1  0  0  0
  -27.2292  -27.4436   20.0873 C   0  0  0  0  0  0
  -25.5898  -33.8639   24.2342 N   0  0  0  0  0  0
  -23.4011  -30.4980   21.5524 C   0  0  2  0  0  0
  -24.8455  -28.9741   20.1105 C   0  0  0  0  0  0
  -22.7407  -29.4689   22.4981 C   0  0  0  0  0  0
  -18.0272  -28.1392   22.8491 C   0  0  0  0  0  0
  -24.1484  -36.7316   23.2637 C   0  0  0  0  0  0
  -25.9307  -30.8418   21.3624 C   0  0  0  0  0  0
  -26.0086  -29.4797   20.7036 C   0  0  0  0  0  0
  -27.2052  -28.7242   20.6867 C   0  0  0  0  0  0
  -26.0460  -26.9655   19.4727 C   0  0  0  0  0  0
  -24.8591  -27.7160   19.4892 C   0  0  0  0  0  0
  -23.6073  -29.8385   20.1644 C   0  0  0  0  0  0
  -25.4099  -36.3124   24.0345 C   0  0  1  0  0  0
  -20.5867  -28.3683   23.1307 C   0  0  2  0  0  0
  -20.6775  -26.9421   22.5411 C   0  0  0  0  0  0
  -19.5751  -26.6394   21.5213 C   0  0  0  0  0  0
  -18.1924  -26.7933   22.1622 C   0  0  0  0  0  0
  -19.1523  -28.8847   23.2901 C   0  0  0  0  0  0
  -18.9457  -30.1451   23.8912 C   0  0  0  0  0  0
  -17.6463  -30.6596   24.0572 C   0  0  0  0  0  0
  -25.9023  -34.9493   23.5136 C   0  0  0  0  0  0
  -16.5352  -29.9104   23.6333 C   0  0  0  0  0  0
  -16.7261  -28.6523   23.0346 C   0  0  0  0  0  0
  -26.4472  -31.6602   25.0721 C   0  0  0  0  0  0
  -25.3748  -31.3709   26.1476 C   0  0  0  0  0  0
  -27.0299  -30.3051   24.6072 C   0  0  0  0  0  0
  -27.6047  -32.4316   25.7481 C   0  0  0  0  0  0
  -27.5577  -37.1807   24.8467 C   0  0  0  0  0  0
  -21.4134  -29.3050   22.3710 N   0  0  0  0  0  0
  -26.4291  -37.3805   23.9412 N   0  0  0  0  0  0
  -24.6674  -31.0841   22.1003 N   0  0  0  0  0  0
  -23.4185  -28.8225   23.3017 O   0  0  0  0  0  0
  -28.3739  -26.6683   20.1366 O   0  0  0  0  0  0
  -26.5592  -34.8940   22.4702 O   0  0  0  0  0  0
  -23.5342  -32.1436   23.7532 O   0  0  0  0  0  0
  -30.8690  -17.5263   21.1495 C   0  0  0  0  0  0
  -28.4389  -18.2796   22.2623 C   0  0  0  0  0  0
  -29.2506  -19.2772   21.6861 C   0  0  0  0  0  0
  -30.5046  -18.8967   21.1540 C   0  0  0  0  0  0
  -29.9956  -16.5481   21.6985 C   0  0  0  0  0  0
  -28.6690  -20.6919   21.5861 C   0  0  0  0  0  0
  -31.8749  -20.8582   21.5636 C   0  0  0  0  0  0
  -30.8066  -21.7259   22.2881 C   0  0  1  0  0  0
  -32.5682  -22.8569   23.8043 C   0  0  0  0  0  0
  -31.4359  -23.0550   22.7825 C   0  0  0  0  0  0
  -29.3110  -24.4099   20.8321 C   0  0  0  0  0  0
  -28.7800  -23.1147   21.5138 C   0  0  0  0  0  0
  -28.1097  -25.2793   20.3981 C   0  0  0  0  0  0
  -28.8365  -16.9879   22.2581 N   0  3  0  0  0  0
  -31.3647  -19.8642   20.6124 N   0  0  0  0  0  0
  -30.2567  -15.1427   21.7076 N   0  0  0  0  0  0
  -29.5950  -21.8569   21.4187 N   0  3  2  0  0  0
  -31.4757  -12.4161   19.1019 H   0  0  0  0  0  0
  -30.3325  -11.2755   19.7499 H   0  0  0  0  0  0
  -29.7342  -11.8570   17.3872 H   0  0  0  0  0  0
  -29.6583  -13.5493   17.8029 H   0  0  0  0  0  0
  -27.8340  -11.3253   18.7834 H   0  0  0  0  0  0
  -27.3653  -12.6778   17.7868 H   0  0  0  0  0  0
  -27.7274  -14.2542   19.6172 H   0  0  0  0  0  0
  -28.6740  -11.8763   21.2935 H   0  0  0  0  0  0
  -28.4336  -13.4731   21.9044 H   0  0  0  0  0  0
  -25.2766   -9.5677   22.4730 H   0  0  0  0  0  0
  -23.9987   -7.4638   22.7485 H   0  0  0  0  0  0
  -21.0809   -8.8763   19.8961 H   0  0  0  0  0  0
  -22.3673  -10.9657   19.6136 H   0  0  0  0  0  0
  -21.2025   -7.6140   23.9705 H   0  0  0  0  0  0
  -21.1491   -6.0515   25.9075 H   0  0  0  0  0  0
  -22.0598   -2.7591   23.2840 H   0  0  0  0  0  0
  -22.4121  -11.9890   22.4775 H   0  0  0  0  0  0
  -21.1150  -13.1287   22.2604 H   0  0  0  0  0  0
  -24.6562  -15.8323   20.4940 H   0  0  0  0  0  0
  -26.2807  -15.6321   20.0814 H   0  0  0  0  0  0
  -26.7113  -32.5569   23.1171 H   0  0  0  0  0  0
  -25.0077  -33.9799   25.0509 H   0  0  0  0  0  0
  -22.6899  -31.3156   21.4179 H   0  0  0  0  0  0
  -23.3755  -35.9643   23.3313 H   0  0  0  0  0  0
  -24.3581  -36.8914   22.2049 H   0  0  0  0  0  0
  -23.7226  -37.6521   23.6641 H   0  0  0  0  0  0
  -26.0391  -31.6121   20.5980 H   0  0  0  0  0  0
  -26.8207  -30.8951   21.9775 H   0  0  0  0  0  0
  -28.1020  -29.1085   21.1526 H   0  0  0  0  0  0
  -26.0192  -26.0130   18.9674 H   0  0  0  0  0  0
  -23.9674  -27.3249   19.0179 H   0  0  0  0  0  0
  -23.7136  -30.6182   19.4085 H   0  0  0  0  0  0
  -22.7305  -29.2592   19.8681 H   0  0  0  0  0  0
  -25.1274  -36.1990   25.0839 H   0  0  0  0  0  0
  -20.9957  -28.3258   24.1430 H   0  0  0  0  0  0
  -20.5691  -26.2295   23.3602 H   0  0  0  0  0  0
  -21.6645  -26.7476   22.1195 H   0  0  0  0  0  0
  -19.6922  -25.6306   21.1235 H   0  0  0  0  0  0
  -19.6691  -27.3220   20.6755 H   0  0  0  0  0  0
  -17.4196  -26.6680   21.4023 H   0  0  0  0  0  0
  -18.0329  -26.0072   22.9015 H   0  0  0  0  0  0
  -19.7936  -30.7259   24.2290 H   0  0  0  0  0  0
  -17.5027  -31.6276   24.5180 H   0  0  0  0  0  0
  -15.5361  -30.3026   23.7640 H   0  0  0  0  0  0
  -15.8658  -28.0856   22.7049 H   0  0  0  0  0  0
  -24.5916  -30.7053   25.7824 H   0  0  0  0  0  0
  -24.8948  -32.2874   26.4918 H   0  0  0  0  0  0
  -25.8110  -30.8884   27.0232 H   0  0  0  0  0  0
  -26.2835  -29.6810   24.1141 H   0  0  0  0  0  0
  -27.4107  -29.7274   25.4501 H   0  0  0  0  0  0
  -27.8654  -30.4381   23.9195 H   0  0  0  0  0  0
  -27.2660  -33.3607   26.2072 H   0  0  0  0  0  0
  -28.3848  -32.6878   25.0304 H   0  0  0  0  0  0
  -28.0723  -31.8433   26.5381 H   0  0  0  0  0  0
  -28.2604  -38.0095   24.7524 H   0  0  0  0  0  0
  -28.1062  -36.2632   24.6288 H   0  0  0  0  0  0
  -27.2305  -37.1457   25.8873 H   0  0  0  0  0  0
  -20.9288  -29.8773   21.6939 H   0  0  0  0  0  0
  -26.0187  -38.2886   24.1418 H   0  0  0  0  0  0
  -31.8143  -17.2236   20.7231 H   0  0  0  0  0  0
  -27.4596  -18.4739   22.6867 H   0  0  0  0  0  0
  -28.0781  -20.8561   22.4886 H   0  0  0  0  0  0
  -27.9599  -20.6728   20.7581 H   0  0  0  0  0  0
  -32.5146  -20.3663   22.2999 H   0  0  0  0  0  0
  -32.5368  -21.5154   20.9960 H   0  0  0  0  0  0
  -30.4894  -21.2022   23.1933 H   0  0  0  0  0  0
  -32.2261  -22.2902   24.6717 H   0  0  0  0  0  0
  -32.9330  -23.8181   24.1671 H   0  0  0  0  0  0
  -33.4209  -22.3326   23.3732 H   0  0  0  0  0  0
  -30.6873  -23.6738   23.2758 H   0  0  0  0  0  0
  -31.8150  -23.6274   21.9346 H   0  0  0  0  0  0
  -29.9274  -24.1806   19.9630 H   0  0  0  0  0  0
  -29.9292  -24.9808   21.5252 H   0  0  0  0  0  0
  -27.8292  -22.8975   21.0236 H   0  0  0  0  0  0
  -28.5113  -23.3146   22.5520 H   0  0  0  0  0  0
  -27.6759  -24.8068   19.5160 H   0  0  0  0  0  0
  -27.3550  -25.2256   21.1874 H   0  0  0  0  0  0
  -28.1861  -16.3138   22.6766 H   0  0  0  0  0  0
  -32.1095  -19.4539   20.0562 H   0  0  0  0  0  0
  -29.6381  -14.5989   22.2800 H   0  0  0  0  0  0
  -29.9528  -21.7779   20.4763 H   0  0  0  0  0  0
  1 25  1  0  0  0
  1 30  2  0  0  0
  1 86  1  0  0  0
  2  3  1  0  0  0
  2 25  1  0  0  0
  2 88  1  0  0  0
  2 89  1  0  0  0
  3  4  1  0  0  0
  3 90  1  0  0  0
  3 91  1  0  0  0
  4  5  1  0  0  0
  4 92  1  0  0  0
  4 93  1  0  0  0
  5  6  1  0  0  0
  5 26  1  0  0  0
  5 94  1  0  0  0
  6 25  1  0  0  0
  6 95  1  0  0  0
  6 96  1  0  0  0
  7  8  2  0  0  0
  7 26  1  0  0  0
  7 29  1  0  0  0
  8  9  1  0  0  0
  8 22  1  0  0  0
  9 10  1  0  0  0
  9 27  2  0  0  0
 10 11  2  0  0  0
 10 15  1  0  0  0
 11 12  1  0  0  0
 11 97  1  0  0  0
 12 13  2  0  0  0
 12 98  1  0  0  0
 13 14  1  0  0  0
 13 31  1  0  0  0
 14 15  2  0  0  0
 14 99  1  0  0  0
 15100  1  0  0  0
 16 17  2  0  0  0
 16 21  1  0  0  0
 16 31  1  0  0  0
 17 18  1  0  0  0
 17101  1  0  0  0
 18 19  2  0  0  0
 18102  1  0  0  0
 19 20  1  0  0  0
 19 24  1  0  0  0
 20 21  2  0  0  0
 20103  1  0  0  0
 21 23  1  0  0  0
 22 28  1  0  0  0
 22 32  2  0  0  0
 26 27  1  0  0  0
 28104  1  0  0  0
 28105  1  0  0  0
 29106  1  0  0  0
 29107  1  0  0  0
 33 34  1  0  0  0
 33 66  1  0  0  0
 33 70  2  0  0  0
 34 36  1  0  0  0
 34 59  1  0  0  0
 34108  1  0  0  0
 35 44  2  0  0  0
 35 45  1  0  0  0
 35 68  1  0  0  0
 36 56  1  0  0  0
 36109  1  0  0  0
 37 39  1  0  0  0
 37 47  1  0  0  0
 37 66  1  0  0  0
 37110  1  0  0  0
 38 43  2  0  0  0
 38 46  1  0  0  0
 38 47  1  0  0  0
 39 64  1  0  0  0
 39 67  2  0  0  0
 40 52  1  0  0  0
 40 53  2  0  0  0
 40 58  1  0  0  0
 41111  1  0  0  0
 41112  1  0  0  0
 41113  1  0  0  0
 41 48  1  0  0  0
 42 43  1  0  0  0
 42 66  1  0  0  0
 42114  1  0  0  0
 42115  1  0  0  0
 43 44  1  0  0  0
 44116  1  0  0  0
 45 46  2  0  0  0
 45117  1  0  0  0
 46118  1  0  0  0
 47119  1  0  0  0
 47120  1  0  0  0
 48 56  1  0  0  0
 48 65  1  0  0  0
 48121  1  0  0  0
 49 50  1  0  0  0
 49 53  1  0  0  0
 49 64  1  0  0  0
 49122  1  0  0  0
 50 51  1  0  0  0
 50123  1  0  0  0
 50124  1  0  0  0
 51 52  1  0  0  0
 51125  1  0  0  0
 51126  1  0  0  0
 52127  1  0  0  0
 52128  1  0  0  0
 53 54  1  0  0  0
 54 55  2  0  0  0
 54129  1  0  0  0
 55 57  1  0  0  0
 55130  1  0  0  0
 56 69  2  0  0  0
 57 58  2  0  0  0
 57131  1  0  0  0
 58132  1  0  0  0
 59 60  1  0  0  0
 59 61  1  0  0  0
 59 62  1  0  0  0
 60133  1  0  0  0
 60134  1  0  0  0
 60135  1  0  0  0
 61136  1  0  0  0
 61137  1  0  0  0
 61138  1  0  0  0
 62139  1  0  0  0
 62140  1  0  0  0
 62141  1  0  0  0
 63 65  1  0  0  0
 63142  1  0  0  0
 63143  1  0  0  0
 63144  1  0  0  0
 64145  1  0  0  0
 65146  1  0  0  0
 68 83  1  0  0  0
 71 74  2  0  0  0
 71 75  1  0  0  0
 71147  1  0  0  0
 72 73  2  0  0  0
 72 84  1  0  0  0
 72148  1  0  0  0
 73 74  1  0  0  0
 73 76  1  0  0  0
 74 85  1  0  0  0
 75 84  2  0  0  0
 75 86  1  0  0  0
 76 87  1  0  0  0
 76149  1  0  0  0
 76150  1  0  0  0
 77 78  1  0  0  0
 77 85  1  0  0  0
 77151  1  0  0  0
 77152  1  0  0  0
 78 80  1  0  0  0
 78 87  1  0  0  0
 78153  1  0  0  0
 79 80  1  0  0  0
 79154  1  0  0  0
 79155  1  0  0  0
 79156  1  0  0  0
 80157  1  0  0  0
 80158  1  0  0  0
 81 82  1  0  0  0
 81 83  1  0  0  0
 81159  1  0  0  0
 81160  1  0  0  0
 82161  1  0  0  0
 82162  1  0  0  0
 82 87  1  0  0  0
 83163  1  0  0  0
 83164  1  0  0  0
 84165  1  0  0  0
 85166  1  0  0  0
 86167  1  0  0  0
 87168  1  0  0  0
M  CHG  2  84   1  87   1
M  ISO  4   1 100  68 101  83 101  86 100
M  END
> <chiral flag>
0

> <version>
0

> <s_m_source_file>
/data/baiqing/PycharmProjects/Reinvent-master-3.2/result/LINK_invent/BTK/process_docking_weight1_custom_sum_contain_oxygen_bond_distance_aromatic_linkinvent_7_9_3/rearranged_h_0026.sdf

> <i_m_source_file_index>
87

> <r_mmod_Potential_Energy-OPLS-2005>
-76.5774841308594

> <r_mmod_Stretch_Energy-OPLS-2005>
44.741024017334

> <r_mmod_Bend_Energy-OPLS-2005>
130.509353637695

> <r_mmod_Torsional_Energy-OPLS-2005>
287.408386230469

> <r_mmod_Improper_Torsional_Energy-OPLS-2005>
9.68842124938965

> <r_mmod_Van_der_Waal_Energy-OPLS-2005>
176.808517456055

> <r_mmod_Electrostatic_Energy-OPLS-2005>
160.788192749023

> <r_mmod_Solvation_Energy-OPLS-2005>
-897.08740234375

> <b_mmod_Minimization_Converged-OPLS-2005>
0

> <r_mmod_RMS_Derivative-OPLS-2005>
2.09587430953979

$$$$
87
                    3D
 Structure written by MMmdl.
178186  0  0  1  0            999 V2000
  -30.3448  -15.5145   20.3331 C   0  0  0  0  0  0
  -30.4445  -12.9798   19.5488 C   0  0  0  0  0  0
  -29.5542  -12.6431   18.3173 C   0  0  0  0  0  0
  -28.1131  -12.3093   18.7411 C   0  0  0  0  0  0
  -27.6034  -13.2953   19.8163 C   0  0  2  0  0  0
  -28.6328  -13.5478   20.9428 C   0  0  0  0  0  0
  -25.2224  -13.8176   20.5721 C   0  0  0  0  0  0
  -24.1657  -13.0324   20.9252 C   0  0  0  0  0  0
  -24.6409  -11.6872   20.8740 C   0  0  0  0  0  0
  -23.9124  -10.4235   21.0370 C   0  0  0  0  0  0
  -24.3665   -9.4166   21.9165 C   0  0  0  0  0  0
  -23.6318   -8.2220   22.0751 C   0  0  0  0  0  0
  -22.4298   -8.0267   21.3545 C   0  0  0  0  0  0
  -21.9943   -9.0230   20.4635 C   0  0  0  0  0  0
  -22.7286  -10.2092   20.3024 C   0  0  0  0  0  0
  -21.6859   -6.0730   22.5288 C   0  0  0  0  0  0
  -21.4014   -6.5626   23.8219 C   0  0  0  0  0  0
  -21.3659   -5.6775   24.9175 C   0  0  0  0  0  0
  -21.6050   -4.3040   24.7229 C   0  0  0  0  0  0
  -21.8821   -3.8140   23.4342 C   0  0  0  0  0  0
  -21.9196   -4.6960   22.3398 C   0  0  0  0  0  0
  -22.7676  -13.5071   21.1912 C   0  0  0  0  0  0
  -22.1663   -4.2150   21.0977 F   0  0  0  0  0  0
  -21.5637   -3.4518   25.7730 F   0  0  0  0  0  0
  -29.8434  -14.1457   20.3275 N   0  0  0  0  0  0
  -26.2771  -12.9568   20.3205 N   0  0  0  0  0  0
  -25.9365  -11.6644   20.5708 N   0  0  0  0  0  0
  -22.0372  -12.8062   22.0497 N   0  0  0  0  0  0
  -25.3501  -15.1899   20.4176 N   0  0  0  0  0  0
  -31.5765  -15.4696   20.1663 O   0  0  0  0  0  0
  -21.6651   -6.8873   21.4248 O   0  0  0  0  0  0
  -22.3336  -14.5372   20.6754 O   0  0  0  0  0  0
  -24.6750  -31.8083   23.1578 C   0  0  0  0  0  0
  -25.9370  -32.4512   23.8096 C   0  0  1  0  0  0
  -27.2348  -26.7929   20.2074 C   0  0  0  0  0  0
  -25.5981  -33.8333   24.1992 N   0  0  0  0  0  0
  -23.4979  -30.4123   21.5096 C   0  0  2  0  0  0
  -24.9570  -28.7693   20.1165 C   0  0  0  0  0  0
  -22.7725  -29.4357   22.4736 C   0  0  0  0  0  0
  -18.0332  -28.1414   22.8464 C   0  0  0  0  0  0
  -24.1495  -36.7173   23.2651 C   0  0  0  0  0  0
  -26.0735  -30.5716   21.4082 C   0  0  0  0  0  0
  -26.1426  -29.1458   20.7574 C   0  0  0  0  0  0
  -27.2698  -28.1834   20.7709 C   0  0  0  0  0  0
  -26.0154  -26.6009   19.5123 C   0  0  0  0  0  0
  -24.9270  -27.5208   19.4707 C   0  0  0  0  0  0
  -23.7473  -29.7125   20.1426 C   0  0  0  0  0  0
  -25.4144  -36.2919   24.0285 C   0  0  1  0  0  0
  -20.5963  -28.3771   23.1159 C   0  0  2  0  0  0
  -20.6796  -26.9440   22.5405 C   0  0  0  0  0  0
  -19.5773  -26.6372   21.5214 C   0  0  0  0  0  0
  -18.1957  -26.7944   22.1617 C   0  0  0  0  0  0
  -19.1599  -28.8918   23.2792 C   0  0  0  0  0  0
  -18.9503  -30.1502   23.8839 C   0  0  0  0  0  0
  -17.6492  -30.6600   24.0554 C   0  0  0  0  0  0
  -25.9117  -34.9309   23.4972 C   0  0  0  0  0  0
  -16.5384  -29.9087   23.6347 C   0  0  0  0  0  0
  -16.7311  -28.6506   23.0372 C   0  0  0  0  0  0
  -26.4580  -31.6511   25.0684 C   0  0  0  0  0  0
  -25.3670  -31.3801   26.1315 C   0  0  0  0  0  0
  -27.0504  -30.2860   24.6519 C   0  0  0  0  0  0
  -27.6046  -32.4356   25.7500 C   0  0  0  0  0  0
  -27.5571  -37.1738   24.8463 C   0  0  0  0  0  0
  -21.4378  -29.3031   22.3492 N   0  0  0  0  0  0
  -26.4273  -37.3674   23.9413 N   0  0  0  0  0  0
  -24.7715  -30.9614   22.0785 N   0  0  0  0  0  0
  -23.4210  -28.7945   23.3043 O   0  0  0  0  0  0
  -28.2266  -25.6296   20.2949 O   0  0  0  0  0  0
  -26.5749  -34.8870   22.4583 O   0  0  0  0  0  0
  -23.5789  -32.1119   23.6583 O   0  0  0  0  0  0
  -28.7392  -20.1122   18.6878 C   0  0  0  0  0  0
  -29.2465  -17.4281   18.7419 C   0  0  0  0  0  0
  -28.8749  -20.4482   20.1911 C   0  0  1  0  0  0
  -28.3008  -18.6335   18.3181 C   0  0  2  0  0  0
  -29.4937  -17.1647   20.2607 C   0  0  2  0  0  0
  -29.8149  -18.9388   20.7068 C   0  0  0  0  0  0
  -28.1580  -16.8819   20.9555 C   0  0  0  0  0  0
  -31.2739  -19.2204   20.2912 C   0  0  0  0  0  0
  -29.8059  -19.0102   22.2467 C   0  0  0  0  0  0
  -26.0895  -18.2000   15.2711 C   0  0  0  0  0  0
  -27.6506  -16.2989   15.7172 C   0  0  0  0  0  0
  -26.0044  -17.0241   17.4507 C   0  0  0  0  0  0
  -29.1322  -18.7721   15.9519 C   0  0  0  0  0  0
  -29.0259  -22.3254   20.4308 C   0  0  0  0  0  0
  -28.0532  -23.9251   20.1291 C   0  0  0  0  0  0
  -26.9684  -17.5387   16.3550 C   0  0  0  0  0  0
  -27.9576  -18.5755   16.8503 N   0  3  1  0  0  0
  -31.4501  -13.2198   19.2012 H   0  0  0  0  0  0
  -30.5672  -12.1013   20.1844 H   0  0  0  0  0  0
  -29.9808  -11.8136   17.7517 H   0  0  0  0  0  0
  -29.5430  -13.5017   17.6440 H   0  0  0  0  0  0
  -28.1110  -11.2962   19.1449 H   0  0  0  0  0  0
  -27.4481  -12.3033   17.8767 H   0  0  0  0  0  0
  -27.4849  -14.2322   19.2743 H   0  0  0  0  0  0
  -28.8568  -12.6271   21.4834 H   0  0  0  0  0  0
  -28.2250  -14.2268   21.6898 H   0  0  0  0  0  0
  -25.2805   -9.5644   22.4752 H   0  0  0  0  0  0
  -24.0019   -7.4605   22.7470 H   0  0  0  0  0  0
  -21.0878   -8.8736   19.8938 H   0  0  0  0  0  0
  -22.3739  -10.9627   19.6137 H   0  0  0  0  0  0
  -21.2003   -7.6136   23.9718 H   0  0  0  0  0  0
  -21.1486   -6.0506   25.9078 H   0  0  0  0  0  0
  -22.0609   -2.7609   23.2839 H   0  0  0  0  0  0
  -22.4031  -11.9743   22.4887 H   0  0  0  0  0  0
  -21.0985  -13.1060   22.2706 H   0  0  0  0  0  0
  -24.5680  -15.8191   20.5587 H   0  0  0  0  0  0
  -26.2028  -15.6659   20.1687 H   0  0  0  0  0  0
  -26.7446  -32.5013   23.0809 H   0  0  0  0  0  0
  -25.0051  -33.9389   25.0093 H   0  0  0  0  0  0
  -22.8181  -31.2469   21.3241 H   0  0  0  0  0  0
  -23.3774  -35.9482   23.3254 H   0  0  0  0  0  0
  -24.3565  -36.8889   22.2076 H   0  0  0  0  0  0
  -23.7229  -37.6329   23.6758 H   0  0  0  0  0  0
  -26.2664  -31.3026   20.6218 H   0  0  0  0  0  0
  -26.9281  -30.6373   22.0699 H   0  0  0  0  0  0
  -28.1652  -28.4764   21.3008 H   0  0  0  0  0  0
  -25.8684  -25.6500   19.0201 H   0  0  0  0  0  0
  -24.0287  -27.2243   18.9468 H   0  0  0  0  0  0
  -23.9135  -30.4741   19.3796 H   0  0  0  0  0  0
  -22.8548  -29.1716   19.8221 H   0  0  0  0  0  0
  -25.1346  -36.1693   25.0772 H   0  0  0  0  0  0
  -21.0048  -28.3389   24.1282 H   0  0  0  0  0  0
  -20.5657  -26.2395   23.3662 H   0  0  0  0  0  0
  -21.6659  -26.7384   22.1223 H   0  0  0  0  0  0
  -19.6927  -25.6264   21.1291 H   0  0  0  0  0  0
  -19.6714  -27.3145   20.6716 H   0  0  0  0  0  0
  -17.4223  -26.6697   21.4021 H   0  0  0  0  0  0
  -18.0344  -26.0100   22.9027 H   0  0  0  0  0  0
  -19.7978  -30.7336   24.2182 H   0  0  0  0  0  0
  -17.5043  -31.6277   24.5162 H   0  0  0  0  0  0
  -15.5384  -30.2969   23.7702 H   0  0  0  0  0  0
  -15.8709  -28.0798   22.7128 H   0  0  0  0  0  0
  -24.5867  -30.7141   25.7605 H   0  0  0  0  0  0
  -24.8852  -32.3019   26.4581 H   0  0  0  0  0  0
  -25.7866  -30.9059   27.0196 H   0  0  0  0  0  0
  -26.3202  -29.6497   24.1506 H   0  0  0  0  0  0
  -27.3958  -29.7273   25.5226 H   0  0  0  0  0  0
  -27.9169  -30.4002   24.0008 H   0  0  0  0  0  0
  -27.2587  -33.3708   26.1913 H   0  0  0  0  0  0
  -28.3942  -32.6836   25.0395 H   0  0  0  0  0  0
  -28.0621  -31.8599   26.5556 H   0  0  0  0  0  0
  -28.2542  -38.0077   24.7527 H   0  0  0  0  0  0
  -28.1110  -36.2597   24.6264 H   0  0  0  0  0  0
  -27.2286  -37.1344   25.8864 H   0  0  0  0  0  0
  -20.9666  -29.8713   21.6590 H   0  0  0  0  0  0
  -26.0105  -38.2720   24.1438 H   0  0  0  0  0  0
  -29.6867  -20.3632   18.2155 H   0  0  0  0  0  0
  -28.0130  -20.8082   18.2668 H   0  0  0  0  0  0
  -30.2159  -17.5455   18.2597 H   0  0  0  0  0  0
  -28.8533  -16.5029   18.3314 H   0  0  0  0  0  0
  -27.8909  -20.2621   20.6241 H   0  0  0  0  0  0
  -27.3738  -18.5225   18.8718 H   0  0  0  0  0  0
  -27.4943  -17.7449   20.9804 H   0  0  0  0  0  0
  -28.3064  -16.5614   21.9870 H   0  0  0  0  0  0
  -27.6446  -16.0933   20.4314 H   0  0  0  0  0  0
  -31.4106  -19.2181   19.2115 H   0  0  0  0  0  0
  -31.9537  -18.4713   20.6984 H   0  0  0  0  0  0
  -31.6053  -20.1957   20.6501 H   0  0  0  0  0  0
  -28.7995  -18.9043   22.6508 H   0  0  0  0  0  0
  -30.1835  -19.9694   22.6033 H   0  0  0  0  0  0
  -30.4212  -18.2267   22.6895 H   0  0  0  0  0  0
  -25.3234  -17.5123   14.9101 H   0  0  0  0  0  0
  -26.6633  -18.5060   14.3966 H   0  0  0  0  0  0
  -25.5748  -19.0834   15.6503 H   0  0  0  0  0  0
  -28.3042  -15.7678   16.4043 H   0  0  0  0  0  0
  -28.2362  -16.5467   14.8321 H   0  0  0  0  0  0
  -26.9035  -15.5766   15.3860 H   0  0  0  0  0  0
  -25.2686  -16.3347   17.0346 H   0  0  0  0  0  0
  -25.4419  -17.8323   17.9202 H   0  0  0  0  0  0
  -26.5266  -16.4698   18.2283 H   0  0  0  0  0  0
  -29.6800  -19.6849   16.1752 H   0  0  0  0  0  0
  -28.8268  -18.8645   14.9109 H   0  0  0  0  0  0
  -29.8382  -17.9445   16.0160 H   0  0  0  0  0  0
  -29.9826  -22.5419   19.9559 H   0  0  0  0  0  0
  -29.2534  -22.3995   21.4941 H   0  0  0  0  0  0
  -27.1204  -23.7511   20.6659 H   0  0  0  0  0  0
  -27.7611  -23.8402   19.0830 H   0  0  0  0  0  0
  -27.4309  -19.4291   16.7337 H   0  0  0  0  0  0
  1 25  1  0  0  0
  1 30  2  0  0  0
  1 75  1  0  0  0
  2  3  1  0  0  0
  2 25  1  0  0  0
  2 88  1  0  0  0
  2 89  1  0  0  0
  3  4  1  0  0  0
  3 90  1  0  0  0
  3 91  1  0  0  0
  4  5  1  0  0  0
  4 92  1  0  0  0
  4 93  1  0  0  0
  5  6  1  0  0  0
  5 26  1  0  0  0
  5 94  1  0  0  0
  6 25  1  0  0  0
  6 95  1  0  0  0
  6 96  1  0  0  0
  7  8  2  0  0  0
  7 26  1  0  0  0
  7 29  1  0  0  0
  8  9  1  0  0  0
  8 22  1  0  0  0
  9 10  1  0  0  0
  9 27  2  0  0  0
 10 11  2  0  0  0
 10 15  1  0  0  0
 11 12  1  0  0  0
 11 97  1  0  0  0
 12 13  2  0  0  0
 12 98  1  0  0  0
 13 14  1  0  0  0
 13 31  1  0  0  0
 14 15  2  0  0  0
 14 99  1  0  0  0
 15100  1  0  0  0
 16 17  2  0  0  0
 16 21  1  0  0  0
 16 31  1  0  0  0
 17 18  1  0  0  0
 17101  1  0  0  0
 18 19  2  0  0  0
 18102  1  0  0  0
 19 20  1  0  0  0
 19 24  1  0  0  0
 20 21  2  0  0  0
 20103  1  0  0  0
 21 23  1  0  0  0
 22 28  1  0  0  0
 22 32  2  0  0  0
 26 27  1  0  0  0
 28104  1  0  0  0
 28105  1  0  0  0
 29106  1  0  0  0
 29107  1  0  0  0
 33 34  1  0  0  0
 33 66  1  0  0  0
 33 70  2  0  0  0
 34 36  1  0  0  0
 34 59  1  0  0  0
 34108  1  0  0  0
 35 44  2  0  0  0
 35 45  1  0  0  0
 35 68  1  0  0  0
 36 56  1  0  0  0
 36109  1  0  0  0
 37 39  1  0  0  0
 37 47  1  0  0  0
 37 66  1  0  0  0
 37110  1  0  0  0
 38 43  2  0  0  0
 38 46  1  0  0  0
 38 47  1  0  0  0
 39 64  1  0  0  0
 39 67  2  0  0  0
 40 52  1  0  0  0
 40 53  2  0  0  0
 40 58  1  0  0  0
 41111  1  0  0  0
 41112  1  0  0  0
 41113  1  0  0  0
 41 48  1  0  0  0
 42 43  1  0  0  0
 42 66  1  0  0  0
 42114  1  0  0  0
 42115  1  0  0  0
 43 44  1  0  0  0
 44116  1  0  0  0
 45 46  2  0  0  0
 45117  1  0  0  0
 46118  1  0  0  0
 47119  1  0  0  0
 47120  1  0  0  0
 48 56  1  0  0  0
 48 65  1  0  0  0
 48121  1  0  0  0
 49 50  1  0  0  0
 49 53  1  0  0  0
 49 64  1  0  0  0
 49122  1  0  0  0
 50 51  1  0  0  0
 50123  1  0  0  0
 50124  1  0  0  0
 51 52  1  0  0  0
 51125  1  0  0  0
 51126  1  0  0  0
 52127  1  0  0  0
 52128  1  0  0  0
 53 54  1  0  0  0
 54 55  2  0  0  0
 54129  1  0  0  0
 55 57  1  0  0  0
 55130  1  0  0  0
 56 69  2  0  0  0
 57 58  2  0  0  0
 57131  1  0  0  0
 58132  1  0  0  0
 59 60  1  0  0  0
 59 61  1  0  0  0
 59 62  1  0  0  0
 60133  1  0  0  0
 60134  1  0  0  0
 60135  1  0  0  0
 61136  1  0  0  0
 61137  1  0  0  0
 61138  1  0  0  0
 62139  1  0  0  0
 62140  1  0  0  0
 62141  1  0  0  0
 63 65  1  0  0  0
 63142  1  0  0  0
 63143  1  0  0  0
 63144  1  0  0  0
 64145  1  0  0  0
 65146  1  0  0  0
 68 85  1  0  0  0
 71 73  1  0  0  0
 71147  1  0  0  0
 71148  1  0  0  0
 71 74  1  0  0  0
 72 74  1  0  0  0
 72 75  1  0  0  0
 72149  1  0  0  0
 72150  1  0  0  0
 73 76  1  0  0  0
 73 84  1  0  0  0
 73151  1  0  0  0
 74 87  1  0  0  0
 74152  1  0  0  0
 75 76  1  0  0  0
 75 77  1  0  0  0
 76 78  1  0  0  0
 76 79  1  0  0  0
 77153  1  0  0  0
 77154  1  0  0  0
 77155  1  0  0  0
 78156  1  0  0  0
 78157  1  0  0  0
 78158  1  0  0  0
 79159  1  0  0  0
 79160  1  0  0  0
 79161  1  0  0  0
 80162  1  0  0  0
 80163  1  0  0  0
 80164  1  0  0  0
 80 86  1  0  0  0
 81 86  1  0  0  0
 81165  1  0  0  0
 81166  1  0  0  0
 81167  1  0  0  0
 82 86  1  0  0  0
 82168  1  0  0  0
 82169  1  0  0  0
 82170  1  0  0  0
 83171  1  0  0  0
 83172  1  0  0  0
 83173  1  0  0  0
 83 87  1  0  0  0
 84 85  1  0  0  0
 84174  1  0  0  0
 84175  1  0  0  0
 85176  1  0  0  0
 85177  1  0  0  0
 86 87  1  0  0  0
 87178  1  0  0  0
M  CHG  1  87   1
M  ISO  4   1 100  68 101  75 100  85 101
M  END
> <chiral flag>
0

> <version>
0

> <s_m_source_file>
/data/baiqing/PycharmProjects/Reinvent-master-3.2/result/LINK_invent/BTK/process_docking_weight1_custom_sum_contain_oxygen_bond_distance_aromatic_linkinvent_7_9_3/rearranged_h_0026.sdf

> <i_m_source_file_index>
88

> <r_mmod_Potential_Energy-OPLS-2005>
2151.1845703125

> <r_mmod_Stretch_Energy-OPLS-2005>
1006.62927246094

> <r_mmod_Bend_Energy-OPLS-2005>
622.696105957031

> <r_mmod_Torsional_Energy-OPLS-2005>
267.210693359375

> <r_mmod_Improper_Torsional_Energy-OPLS-2005>
5.41390895843506

> <r_mmod_Van_der_Waal_Energy-OPLS-2005>
119.870330810547

> <r_mmod_Electrostatic_Energy-OPLS-2005>
-175.864791870117

> <r_mmod_Solvation_Energy-OPLS-2005>
-410.139953613281

> <b_mmod_Minimization_Converged-OPLS-2005>
0

> <r_mmod_RMS_Derivative-OPLS-2005>
1.39125168323517

$$$$
88
                    3D
 Structure written by MMmdl.
171179  0  0  1  0            999 V2000
  -30.7524  -14.3737   20.6736 C   0  0  0  0  0  0
  -30.4198  -12.2922   19.3890 C   0  0  0  0  0  0
  -29.4830  -12.5264   18.1883 C   0  0  0  0  0  0
  -28.0071  -12.3826   18.6064 C   0  0  0  0  0  0
  -27.6662  -13.1998   19.8800 C   0  0  2  0  0  0
  -28.7056  -12.9332   20.9904 C   0  0  0  0  0  0
  -25.2600  -13.8104   20.5692 C   0  0  0  0  0  0
  -24.1849  -13.0407   20.9176 C   0  0  0  0  0  0
  -24.6386  -11.6878   20.8719 C   0  0  0  0  0  0
  -23.9056  -10.4275   21.0399 C   0  0  0  0  0  0
  -24.3606   -9.4199   21.9180 C   0  0  0  0  0  0
  -23.6284   -8.2234   22.0754 C   0  0  0  0  0  0
  -22.4262   -8.0274   21.3546 C   0  0  0  0  0  0
  -21.9898   -9.0243   20.4648 C   0  0  0  0  0  0
  -22.7225  -10.2124   20.3053 C   0  0  0  0  0  0
  -21.6849   -6.0733   22.5276 C   0  0  0  0  0  0
  -21.4012   -6.5638   23.8211 C   0  0  0  0  0  0
  -21.3659   -5.6794   24.9174 C   0  0  0  0  0  0
  -21.6045   -4.3054   24.7227 C   0  0  0  0  0  0
  -21.8819   -3.8145   23.4345 C   0  0  0  0  0  0
  -21.9190   -4.6961   22.3404 C   0  0  0  0  0  0
  -22.7865  -13.5232   21.1838 C   0  0  0  0  0  0
  -22.1658   -4.2147   21.0982 F   0  0  0  0  0  0
  -21.5630   -3.4536   25.7740 F   0  0  0  0  0  0
  -30.0463  -13.2355   20.4523 N   0  0  0  0  0  0
  -26.3048  -12.9283   20.3383 N   0  0  0  0  0  0
  -25.9316  -11.6449   20.5753 N   0  0  0  0  0  0
  -22.0507  -12.8232   22.0398 N   0  0  0  0  0  0
  -25.4337  -15.1807   20.4125 N   0  0  0  0  0  0
  -31.7933  -14.6596   20.0736 O   0  0  0  0  0  0
  -21.6628   -6.8869   21.4239 O   0  0  0  0  0  0
  -22.3565  -14.5538   20.6690 O   0  0  0  0  0  0
  -24.6218  -31.8714   23.2168 C   0  0  0  0  0  0
  -25.9110  -32.4846   23.8455 C   0  0  1  0  0  0
  -27.2153  -27.4234   20.0494 C   0  0  0  0  0  0
  -25.5959  -33.8639   24.2379 N   0  0  0  0  0  0
  -23.4051  -30.5068   21.5583 C   0  0  2  0  0  0
  -24.8392  -28.9748   20.1222 C   0  0  0  0  0  0
  -22.7437  -29.4740   22.5000 C   0  0  0  0  0  0
  -18.0291  -28.1389   22.8482 C   0  0  0  0  0  0
  -24.1478  -36.7294   23.2627 C   0  0  0  0  0  0
  -25.9454  -30.8230   21.3778 C   0  0  0  0  0  0
  -26.0115  -29.4612   20.7152 C   0  0  0  0  0  0
  -27.2017  -28.6915   20.6821 C   0  0  0  0  0  0
  -26.0064  -26.9574   19.4698 C   0  0  0  0  0  0
  -24.8319  -27.7181   19.5062 C   0  0  0  0  0  0
  -23.6109  -29.8544   20.1705 C   0  0  0  0  0  0
  -25.4098  -36.3104   24.0342 C   0  0  1  0  0  0
  -20.5888  -28.3694   23.1286 C   0  0  2  0  0  0
  -20.6776  -26.9423   22.5390 C   0  0  0  0  0  0
  -19.5735  -26.6401   21.5199 C   0  0  0  0  0  0
  -18.1925  -26.7937   22.1624 C   0  0  0  0  0  0
  -19.1539  -28.8853   23.2888 C   0  0  0  0  0  0
  -18.9462  -30.1451   23.8911 C   0  0  0  0  0  0
  -17.6460  -30.6581   24.0574 C   0  0  0  0  0  0
  -25.9037  -34.9480   23.5145 C   0  0  0  0  0  0
  -16.5353  -29.9096   23.6318 C   0  0  0  0  0  0
  -16.7282  -28.6514   23.0344 C   0  0  0  0  0  0
  -26.4483  -31.6614   25.0792 C   0  0  0  0  0  0
  -25.3744  -31.3750   26.1544 C   0  0  0  0  0  0
  -27.0321  -30.3044   24.6232 C   0  0  0  0  0  0
  -27.6066  -32.4334   25.7557 C   0  0  0  0  0  0
  -27.5586  -37.1812   24.8472 C   0  0  0  0  0  0
  -21.4169  -29.3079   22.3703 N   0  0  0  0  0  0
  -26.4285  -37.3793   23.9416 N   0  0  0  0  0  0
  -24.6757  -31.0832   22.1057 N   0  0  0  0  0  0
  -23.4213  -28.8228   23.2999 O   0  0  0  0  0  0
  -28.3860  -26.6766   19.9997 O   0  0  0  0  0  0
  -26.5570  -34.8926   22.4700 O   0  0  0  0  0  0
  -23.5403  -32.1481   23.7538 O   0  0  0  0  0  0
  -28.2737  -20.1860   19.6631 C   0  0  0  0  0  0
  -28.9406  -20.8582   18.5868 C   0  0  0  0  0  0
  -27.4298  -19.3538   18.9879 C   0  0  0  0  0  0
  -29.6744  -23.7036   16.7772 C   0  0  0  0  0  0
  -26.9259  -18.8009   16.5478 C   0  0  0  0  0  0
  -28.4064  -20.4031   21.1553 C   0  0  0  0  0  0
  -29.9328  -22.0012   18.6608 C   0  0  0  0  0  0
  -29.8368  -17.2567   22.9107 C   0  0  0  0  0  0
  -29.5509  -24.5478   19.1929 C   0  0  0  0  0  0
  -30.8413  -16.4221   22.0907 C   0  0  0  0  0  0
  -28.8565  -18.1069   22.0695 C   0  0  0  0  0  0
  -28.3077  -25.4528   19.2436 C   0  0  0  0  0  0
  -29.2944  -23.3498   18.2273 C   0  0  1  0  0  0
  -28.5588  -20.4076   17.3867 N   0  0  0  0  0  0
  -27.6081  -19.4763   17.6336 N   0  0  0  0  0  0
  -30.2389  -15.1813   21.6086 N   0  0  0  0  0  0
  -29.3621  -19.4772   21.8099 N   0  3  0  0  0  0
  -26.2547  -18.2854   19.6493 Cl  0  0  0  0  0  0
  -31.4624  -12.4001   19.0823 H   0  0  0  0  0  0
  -30.3245  -11.2677   19.7534 H   0  0  0  0  0  0
  -29.7146  -11.8227   17.3874 H   0  0  0  0  0  0
  -29.6530  -13.5235   17.7786 H   0  0  0  0  0  0
  -27.8122  -11.3241   18.7814 H   0  0  0  0  0  0
  -27.3541  -12.6786   17.7849 H   0  0  0  0  0  0
  -27.7252  -14.2554   19.6133 H   0  0  0  0  0  0
  -28.6716  -11.8850   21.2920 H   0  0  0  0  0  0
  -28.4525  -13.4937   21.8902 H   0  0  0  0  0  0
  -25.2754   -9.5670   22.4751 H   0  0  0  0  0  0
  -23.9992   -7.4624   22.7472 H   0  0  0  0  0  0
  -21.0825   -8.8761   19.8953 H   0  0  0  0  0  0
  -22.3685  -10.9660   19.6158 H   0  0  0  0  0  0
  -21.2005   -7.6146   23.9716 H   0  0  0  0  0  0
  -21.1483   -6.0523   25.9081 H   0  0  0  0  0  0
  -22.0599   -2.7604   23.2847 H   0  0  0  0  0  0
  -22.4109  -11.9888   22.4778 H   0  0  0  0  0  0
  -21.1133  -13.1277   22.2606 H   0  0  0  0  0  0
  -24.6654  -15.8355   20.5073 H   0  0  0  0  0  0
  -26.2830  -15.6195   20.0819 H   0  0  0  0  0  0
  -26.7210  -32.5512   23.1232 H   0  0  0  0  0  0
  -25.0190  -33.9815   25.0582 H   0  0  0  0  0  0
  -22.6932  -31.3258   21.4294 H   0  0  0  0  0  0
  -23.3744  -35.9621   23.3304 H   0  0  0  0  0  0
  -24.3573  -36.8891   22.2037 H   0  0  0  0  0  0
  -23.7237  -37.6511   23.6629 H   0  0  0  0  0  0
  -26.0935  -31.5935   20.6195 H   0  0  0  0  0  0
  -26.8220  -30.8525   22.0160 H   0  0  0  0  0  0
  -28.1106  -29.0661   21.1295 H   0  0  0  0  0  0
  -25.9152  -26.0088   18.9626 H   0  0  0  0  0  0
  -23.9320  -27.3305   19.0490 H   0  0  0  0  0  0
  -23.7402  -30.6420   19.4263 H   0  0  0  0  0  0
  -22.7242  -29.3000   19.8535 H   0  0  0  0  0  0
  -25.1275  -36.1978   25.0836 H   0  0  0  0  0  0
  -21.0003  -28.3261   24.1400 H   0  0  0  0  0  0
  -20.5672  -26.2311   23.3585 H   0  0  0  0  0  0
  -21.6646  -26.7458   22.1176 H   0  0  0  0  0  0
  -19.6889  -25.6318   21.1220 H   0  0  0  0  0  0
  -19.6660  -27.3212   20.6724 H   0  0  0  0  0  0
  -17.4187  -26.6683   21.4035 H   0  0  0  0  0  0
  -18.0329  -26.0082   22.9023 H   0  0  0  0  0  0
  -19.7938  -30.7257   24.2297 H   0  0  0  0  0  0
  -17.5023  -31.6258   24.5178 H   0  0  0  0  0  0
  -15.5355  -30.3007   23.7635 H   0  0  0  0  0  0
  -15.8683  -28.0842   22.7058 H   0  0  0  0  0  0
  -24.5920  -30.7073   25.7920 H   0  0  0  0  0  0
  -24.8907  -32.2897   26.4979 H   0  0  0  0  0  0
  -25.8079  -30.8966   27.0337 H   0  0  0  0  0  0
  -26.2895  -29.6829   24.1214 H   0  0  0  0  0  0
  -27.3966  -29.7276   25.4743 H   0  0  0  0  0  0
  -27.8789  -30.4334   23.9495 H   0  0  0  0  0  0
  -27.2698  -33.3644   26.2147 H   0  0  0  0  0  0
  -28.3869  -32.6900   25.0374 H   0  0  0  0  0  0
  -28.0744  -31.8460   26.5476 H   0  0  0  0  0  0
  -28.2609  -38.0111   24.7524 H   0  0  0  0  0  0
  -28.1084  -36.2645   24.6279 H   0  0  0  0  0  0
  -27.2305  -37.1439   25.8878 H   0  0  0  0  0  0
  -20.9315  -29.8878   21.6999 H   0  0  0  0  0  0
  -26.0175  -38.2877   24.1415 H   0  0  0  0  0  0
  -29.4531  -22.8814   16.0982 H   0  0  0  0  0  0
  -30.7377  -23.9271   16.6872 H   0  0  0  0  0  0
  -29.1197  -24.5709   16.4194 H   0  0  0  0  0  0
  -25.8550  -19.0036   16.5994 H   0  0  0  0  0  0
  -27.0799  -17.7251   16.6317 H   0  0  0  0  0  0
  -27.3012  -19.1382   15.5833 H   0  0  0  0  0  0
  -27.4384  -20.3384   21.6533 H   0  0  0  0  0  0
  -28.7515  -21.4186   21.3547 H   0  0  0  0  0  0
  -30.8076  -21.7746   18.0498 H   0  0  0  0  0  0
  -30.3172  -22.0778   19.6778 H   0  0  0  0  0  0
  -30.3764  -17.8955   23.6115 H   0  0  0  0  0  0
  -29.2610  -16.5811   23.5456 H   0  0  0  0  0  0
  -29.7527  -24.2013   20.2053 H   0  0  0  0  0  0
  -30.4304  -25.1113   18.8788 H   0  0  0  0  0  0
  -31.6915  -16.1532   22.7198 H   0  0  0  0  0  0
  -31.2436  -17.0087   21.2625 H   0  0  0  0  0  0
  -27.9156  -18.1936   22.6172 H   0  0  0  0  0  0
  -28.6240  -17.5979   21.1336 H   0  0  0  0  0  0
  -28.0309  -25.6989   18.2166 H   0  0  0  0  0  0
  -27.5184  -24.8308   19.6713 H   0  0  0  0  0  0
  -28.2178  -23.1815   18.2273 H   0  0  0  0  0  0
  -29.3995  -14.8527   22.0622 H   0  0  0  0  0  0
  -29.5802  -19.8860   22.7060 H   0  0  0  0  0  0
  -30.2192  -19.4502   21.2839 H   0  0  0  0  0  0
  1 25  1  0  0  0
  1 30  2  0  0  0
  1 86  1  0  0  0
  2  3  1  0  0  0
  2 25  1  0  0  0
  2 89  1  0  0  0
  2 90  1  0  0  0
  3  4  1  0  0  0
  3 91  1  0  0  0
  3 92  1  0  0  0
  4  5  1  0  0  0
  4 93  1  0  0  0
  4 94  1  0  0  0
  5  6  1  0  0  0
  5 26  1  0  0  0
  5 95  1  0  0  0
  6 25  1  0  0  0
  6 96  1  0  0  0
  6 97  1  0  0  0
  7  8  2  0  0  0
  7 26  1  0  0  0
  7 29  1  0  0  0
  8  9  1  0  0  0
  8 22  1  0  0  0
  9 10  1  0  0  0
  9 27  2  0  0  0
 10 11  2  0  0  0
 10 15  1  0  0  0
 11 12  1  0  0  0
 11 98  1  0  0  0
 12 13  2  0  0  0
 12 99  1  0  0  0
 13 14  1  0  0  0
 13 31  1  0  0  0
 14 15  2  0  0  0
 14100  1  0  0  0
 15101  1  0  0  0
 16 17  2  0  0  0
 16 21  1  0  0  0
 16 31  1  0  0  0
 17 18  1  0  0  0
 17102  1  0  0  0
 18 19  2  0  0  0
 18103  1  0  0  0
 19 20  1  0  0  0
 19 24  1  0  0  0
 20 21  2  0  0  0
 20104  1  0  0  0
 21 23  1  0  0  0
 22 28  1  0  0  0
 22 32  2  0  0  0
 26 27  1  0  0  0
 28105  1  0  0  0
 28106  1  0  0  0
 29107  1  0  0  0
 29108  1  0  0  0
 33 34  1  0  0  0
 33 66  1  0  0  0
 33 70  2  0  0  0
 34 36  1  0  0  0
 34 59  1  0  0  0
 34109  1  0  0  0
 35 44  2  0  0  0
 35 45  1  0  0  0
 35 68  1  0  0  0
 36 56  1  0  0  0
 36110  1  0  0  0
 37 39  1  0  0  0
 37 47  1  0  0  0
 37 66  1  0  0  0
 37111  1  0  0  0
 38 43  2  0  0  0
 38 46  1  0  0  0
 38 47  1  0  0  0
 39 64  1  0  0  0
 39 67  2  0  0  0
 40 52  1  0  0  0
 40 53  2  0  0  0
 40 58  1  0  0  0
 41112  1  0  0  0
 41113  1  0  0  0
 41114  1  0  0  0
 41 48  1  0  0  0
 42 43  1  0  0  0
 42 66  1  0  0  0
 42115  1  0  0  0
 42116  1  0  0  0
 43 44  1  0  0  0
 44117  1  0  0  0
 45 46  2  0  0  0
 45118  1  0  0  0
 46119  1  0  0  0
 47120  1  0  0  0
 47121  1  0  0  0
 48 56  1  0  0  0
 48 65  1  0  0  0
 48122  1  0  0  0
 49 50  1  0  0  0
 49 53  1  0  0  0
 49 64  1  0  0  0
 49123  1  0  0  0
 50 51  1  0  0  0
 50124  1  0  0  0
 50125  1  0  0  0
 51 52  1  0  0  0
 51126  1  0  0  0
 51127  1  0  0  0
 52128  1  0  0  0
 52129  1  0  0  0
 53 54  1  0  0  0
 54 55  2  0  0  0
 54130  1  0  0  0
 55 57  1  0  0  0
 55131  1  0  0  0
 56 69  2  0  0  0
 57 58  2  0  0  0
 57132  1  0  0  0
 58133  1  0  0  0
 59 60  1  0  0  0
 59 61  1  0  0  0
 59 62  1  0  0  0
 60134  1  0  0  0
 60135  1  0  0  0
 60136  1  0  0  0
 61137  1  0  0  0
 61138  1  0  0  0
 61139  1  0  0  0
 62140  1  0  0  0
 62141  1  0  0  0
 62142  1  0  0  0
 63 65  1  0  0  0
 63143  1  0  0  0
 63144  1  0  0  0
 63145  1  0  0  0
 64146  1  0  0  0
 65147  1  0  0  0
 68 82  1  0  0  0
 71 72  1  0  0  0
 71 73  2  0  0  0
 71 76  1  0  0  0
 72 77  1  0  0  0
 72 84  2  0  0  0
 73 85  1  0  0  0
 73 88  1  0  0  0
 74148  1  0  0  0
 74149  1  0  0  0
 74150  1  0  0  0
 74 83  1  0  0  0
 75 85  1  0  0  0
 75151  1  0  0  0
 75152  1  0  0  0
 75153  1  0  0  0
 76 87  1  0  0  0
 76154  1  0  0  0
 76155  1  0  0  0
 77 83  1  0  0  0
 77156  1  0  0  0
 77157  1  0  0  0
 78 80  1  0  0  0
 78 81  1  0  0  0
 78158  1  0  0  0
 78159  1  0  0  0
 79 82  1  0  0  0
 79 83  1  0  0  0
 79160  1  0  0  0
 79161  1  0  0  0
 80 86  1  0  0  0
 80162  1  0  0  0
 80163  1  0  0  0
 81 87  1  0  0  0
 81164  1  0  0  0
 81165  1  0  0  0
 82166  1  0  0  0
 82167  1  0  0  0
 83168  1  0  0  0
 84 85  1  0  0  0
 86169  1  0  0  0
 87170  1  0  0  0
 87171  1  0  0  0
M  CHG  1  87   1
M  ISO  4   1 100  68 101  82 101  86 100
M  END
> <chiral flag>
0

> <version>
0

> <s_m_source_file>
/data/baiqing/PycharmProjects/Reinvent-master-3.2/result/LINK_invent/BTK/process_docking_weight1_custom_sum_contain_oxygen_bond_distance_aromatic_linkinvent_7_9_3/rearranged_h_0026.sdf

> <i_m_source_file_index>
89

> <r_mmod_Potential_Energy-OPLS-2005>
-247.922637939453

> <r_mmod_Stretch_Energy-OPLS-2005>
36.922534942627

> <r_mmod_Bend_Energy-OPLS-2005>
113.93871307373

> <r_mmod_Torsional_Energy-OPLS-2005>
206.068481445312

> <r_mmod_Improper_Torsional_Energy-OPLS-2005>
2.12546825408936

> <r_mmod_Van_der_Waal_Energy-OPLS-2005>
132.279632568359

> <r_mmod_Electrostatic_Energy-OPLS-2005>
-260.550933837891

> <r_mmod_Solvation_Energy-OPLS-2005>
-489.641571044922

> <b_mmod_Minimization_Converged-OPLS-2005>
0

> <r_mmod_RMS_Derivative-OPLS-2005>
3.41887140274048

$$$$
89
                    3D
 Structure written by MMmdl.
159167  0  0  1  0            999 V2000
  -30.5290  -14.8639   20.4511 C   0  0  0  0  0  0
  -30.4523  -12.5306   19.4863 C   0  0  0  0  0  0
  -29.5236  -12.5289   18.2482 C   0  0  0  0  0  0
  -28.0515  -12.3283   18.6604 C   0  0  0  0  0  0
  -27.6418  -13.2340   19.8511 C   0  0  2  0  0  0
  -28.6857  -13.1848   20.9886 C   0  0  0  0  0  0
  -25.2476  -13.8155   20.5616 C   0  0  0  0  0  0
  -24.1796  -13.0410   20.9207 C   0  0  0  0  0  0
  -24.6405  -11.6897   20.8762 C   0  0  0  0  0  0
  -23.9081  -10.4279   21.0419 C   0  0  0  0  0  0
  -24.3627   -9.4192   21.9195 C   0  0  0  0  0  0
  -23.6295   -8.2232   22.0759 C   0  0  0  0  0  0
  -22.4277   -8.0278   21.3546 C   0  0  0  0  0  0
  -21.9918   -9.0254   20.4648 C   0  0  0  0  0  0
  -22.7254  -10.2129   20.3061 C   0  0  0  0  0  0
  -21.6852   -6.0736   22.5279 C   0  0  0  0  0  0
  -21.4014   -6.5640   23.8212 C   0  0  0  0  0  0
  -21.3657   -5.6791   24.9174 C   0  0  0  0  0  0
  -21.6042   -4.3055   24.7225 C   0  0  0  0  0  0
  -21.8819   -3.8147   23.4347 C   0  0  0  0  0  0
  -21.9192   -4.6964   22.3402 C   0  0  0  0  0  0
  -22.7816  -13.5200   21.1866 C   0  0  0  0  0  0
  -22.1661   -4.2150   21.0980 F   0  0  0  0  0  0
  -21.5627   -3.4537   25.7738 F   0  0  0  0  0  0
  -29.9769  -13.5913   20.4130 N   0  0  0  0  0  0
  -26.2936  -12.9386   20.3263 N   0  0  0  0  0  0
  -25.9343  -11.6531   20.5768 N   0  0  0  0  0  0
  -22.0462  -12.8200   22.0427 N   0  0  0  0  0  0
  -25.4074  -15.1854   20.3863 N   0  0  0  0  0  0
  -31.7064  -15.0119   20.1037 O   0  0  0  0  0  0
  -21.6633   -6.8879   21.4243 O   0  0  0  0  0  0
  -22.3501  -14.5504   20.6708 O   0  0  0  0  0  0
  -24.6377  -31.8470   23.1902 C   0  0  0  0  0  0
  -25.9170  -32.4707   23.8275 C   0  0  1  0  0  0
  -27.2273  -27.1880   20.1560 C   0  0  0  0  0  0
  -25.5936  -33.8510   24.2197 N   0  0  0  0  0  0
  -23.4395  -30.4647   21.5346 C   0  0  2  0  0  0
  -24.8900  -28.8905   20.1169 C   0  0  0  0  0  0
  -22.7541  -29.4555   22.4887 C   0  0  0  0  0  0
  -18.0301  -28.1393   22.8478 C   0  0  0  0  0  0
  -24.1493  -36.7261   23.2643 C   0  0  0  0  0  0
  -25.9900  -30.7377   21.3798 C   0  0  0  0  0  0
  -26.0638  -29.3499   20.7290 C   0  0  0  0  0  0
  -27.2356  -28.5147   20.7286 C   0  0  0  0  0  0
  -26.0311  -26.8086   19.5138 C   0  0  0  0  0  0
  -24.8823  -27.6298   19.4964 C   0  0  0  0  0  0
  -23.6641  -29.7876   20.1559 C   0  0  0  0  0  0
  -25.4120  -36.3036   24.0319 C   0  0  1  0  0  0
  -20.5909  -28.3701   23.1258 C   0  0  2  0  0  0
  -20.6786  -26.9411   22.5413 C   0  0  0  0  0  0
  -19.5765  -26.6379   21.5216 C   0  0  0  0  0  0
  -18.1943  -26.7934   22.1623 C   0  0  0  0  0  0
  -19.1557  -28.8868   23.2860 C   0  0  0  0  0  0
  -18.9476  -30.1468   23.8877 C   0  0  0  0  0  0
  -17.6473  -30.6588   24.0560 C   0  0  0  0  0  0
  -25.9066  -34.9413   23.5067 C   0  0  0  0  0  0
  -16.5363  -29.9081   23.6338 C   0  0  0  0  0  0
  -16.7287  -28.6505   23.0351 C   0  0  0  0  0  0
  -26.4510  -31.6563   25.0701 C   0  0  0  0  0  0
  -25.3709  -31.3745   26.1407 C   0  0  0  0  0  0
  -27.0366  -30.2964   24.6241 C   0  0  0  0  0  0
  -27.6042  -32.4322   25.7489 C   0  0  0  0  0  0
  -27.5575  -37.1783   24.8466 C   0  0  0  0  0  0
  -21.4239  -29.3034   22.3635 N   0  0  0  0  0  0
  -26.4285  -37.3746   23.9410 N   0  0  0  0  0  0
  -24.7084  -31.0373   22.0906 N   0  0  0  0  0  0
  -23.4204  -28.8110   23.3026 O   0  0  0  0  0  0
  -28.3238  -26.2703   20.1418 O   0  0  0  0  0  0
  -26.5651  -34.8910   22.4645 O   0  0  0  0  0  0
  -23.5508  -32.1322   23.7153 O   0  0  0  0  0  0
  -28.4598  -19.6044   21.3813 C   0  0  0  0  0  0
  -30.4606  -18.3471   19.9278 C   0  0  0  0  0  0
  -29.2881  -20.5079   20.6502 C   0  0  0  0  0  0
  -28.6186  -18.1685   21.4132 C   0  0  0  0  0  0
  -30.3045  -19.8000   19.9109 C   0  0  0  0  0  0
  -29.6333  -17.4539   20.6886 C   0  0  0  0  0  0
  -27.6624  -17.3923   22.3043 C   0  0  0  0  0  0
  -31.2980  -20.6112   19.1005 C   0  0  0  0  0  0
  -27.1534  -24.7547   21.7885 C   0  0  0  0  0  0
  -29.2272  -22.1226   20.9451 C   0  0  0  0  0  0
  -28.5920  -23.3869   20.0701 C   0  0  0  0  0  0
  -28.3210  -24.8712   20.7907 C   0  0  1  0  0  0
  -29.6684  -15.9347   20.7484 N   0  0  0  0  0  0
  -31.4860  -12.6964   19.1780 H   0  0  0  0  0  0
  -30.4407  -11.5580   19.9806 H   0  0  0  0  0  0
  -29.8261  -11.7480   17.5489 H   0  0  0  0  0  0
  -29.6272  -13.4745   17.7137 H   0  0  0  0  0  0
  -27.9268  -11.2807   18.9366 H   0  0  0  0  0  0
  -27.3926  -12.4984   17.8083 H   0  0  0  0  0  0
  -27.6276  -14.2514   19.4606 H   0  0  0  0  0  0
  -28.7504  -12.1816   21.4122 H   0  0  0  0  0  0
  -28.3960  -13.8413   21.8105 H   0  0  0  0  0  0
  -25.2772   -9.5661   22.4772 H   0  0  0  0  0  0
  -23.9995   -7.4621   22.7483 H   0  0  0  0  0  0
  -21.0847   -8.8780   19.8955 H   0  0  0  0  0  0
  -22.3721  -10.9670   19.6167 H   0  0  0  0  0  0
  -21.2006   -7.6148   23.9718 H   0  0  0  0  0  0
  -21.1478   -6.0521   25.9078 H   0  0  0  0  0  0
  -22.0601   -2.7609   23.2845 H   0  0  0  0  0  0
  -22.4073  -11.9863   22.4822 H   0  0  0  0  0  0
  -21.1082  -13.1234   22.2632 H   0  0  0  0  0  0
  -24.6232  -15.8236   20.4653 H   0  0  0  0  0  0
  -26.2271  -15.6168   19.9796 H   0  0  0  0  0  0
  -26.7235  -32.5326   23.1008 H   0  0  0  0  0  0
  -25.0071  -33.9630   25.0336 H   0  0  0  0  0  0
  -22.7400  -31.2885   21.3785 H   0  0  0  0  0  0
  -23.3756  -35.9591   23.3294 H   0  0  0  0  0  0
  -24.3584  -36.8899   22.2062 H   0  0  0  0  0  0
  -23.7255  -37.6460   23.6682 H   0  0  0  0  0  0
  -26.1362  -31.4911   20.6048 H   0  0  0  0  0  0
  -26.8648  -30.7922   22.0163 H   0  0  0  0  0  0
  -28.1381  -28.8672   21.2077 H   0  0  0  0  0  0
  -25.9808  -25.8401   19.0359 H   0  0  0  0  0  0
  -23.9854  -27.2717   19.0101 H   0  0  0  0  0  0
  -23.7963  -30.5580   19.3953 H   0  0  0  0  0  0
  -22.7811  -29.2240   19.8493 H   0  0  0  0  0  0
  -25.1311  -36.1861   25.0811 H   0  0  0  0  0  0
  -21.0002  -28.3281   24.1377 H   0  0  0  0  0  0
  -20.5688  -26.2308   23.3620 H   0  0  0  0  0  0
  -21.6652  -26.7425   22.1207 H   0  0  0  0  0  0
  -19.6928  -25.6286   21.1253 H   0  0  0  0  0  0
  -19.6711  -27.3181   20.6740 H   0  0  0  0  0  0
  -17.4216  -26.6679   21.4023 H   0  0  0  0  0  0
  -18.0335  -26.0081   22.9022 H   0  0  0  0  0  0
  -19.7954  -30.7294   24.2227 H   0  0  0  0  0  0
  -17.5028  -31.6267   24.5163 H   0  0  0  0  0  0
  -15.5364  -30.2979   23.7678 H   0  0  0  0  0  0
  -15.8687  -28.0825   22.7067 H   0  0  0  0  0  0
  -24.5895  -30.7079   25.7738 H   0  0  0  0  0  0
  -24.8889  -32.2928   26.4771 H   0  0  0  0  0  0
  -25.8005  -30.8969   27.0222 H   0  0  0  0  0  0
  -26.2971  -29.6699   24.1241 H   0  0  0  0  0  0
  -27.4004  -29.7244   25.4788 H   0  0  0  0  0  0
  -27.8865  -30.4222   23.9529 H   0  0  0  0  0  0
  -27.2631  -33.3639   26.2014 H   0  0  0  0  0  0
  -28.3883  -32.6850   25.0338 H   0  0  0  0  0  0
  -28.0673  -31.8480   26.5453 H   0  0  0  0  0  0
  -28.2576  -38.0092   24.7508 H   0  0  0  0  0  0
  -28.1085  -36.2620   24.6291 H   0  0  0  0  0  0
  -27.2295  -37.1433   25.8869 H   0  0  0  0  0  0
  -20.9439  -29.8736   21.6808 H   0  0  0  0  0  0
  -26.0152  -38.2811   24.1413 H   0  0  0  0  0  0
  -27.6899  -20.0386   22.0041 H   0  0  0  0  0  0
  -31.2543  -17.9082   19.3387 H   0  0  0  0  0  0
  -27.1995  -18.0385   23.0504 H   0  0  0  0  0  0
  -28.1742  -16.5976   22.8464 H   0  0  0  0  0  0
  -26.8654  -16.9523   21.7100 H   0  0  0  0  0  0
  -31.8028  -19.9938   18.3567 H   0  0  0  0  0  0
  -32.0570  -21.0455   19.7515 H   0  0  0  0  0  0
  -30.7967  -21.4218   18.5710 H   0  0  0  0  0  0
  -27.2787  -23.8963   22.4474 H   0  0  0  0  0  0
  -26.1991  -24.6310   21.2765 H   0  0  0  0  0  0
  -27.0820  -25.6349   22.4281 H   0  0  0  0  0  0
  -30.2578  -22.4055   21.1615 H   0  0  0  0  0  0
  -28.7461  -22.1839   21.9207 H   0  0  0  0  0  0
  -27.6446  -23.0583   19.6429 H   0  0  0  0  0  0
  -29.2464  -23.5434   19.2123 H   0  0  0  0  0  0
  -29.2046  -24.9726   21.4217 H   0  0  0  0  0  0
  -28.7952  -15.5602   21.0843 H   0  0  0  0  0  0
  1 25  1  0  0  0
  1 30  2  0  0  0
  1 83  1  0  0  0
  2  3  1  0  0  0
  2 25  1  0  0  0
  2 84  1  0  0  0
  2 85  1  0  0  0
  3  4  1  0  0  0
  3 86  1  0  0  0
  3 87  1  0  0  0
  4  5  1  0  0  0
  4 88  1  0  0  0
  4 89  1  0  0  0
  5  6  1  0  0  0
  5 26  1  0  0  0
  5 90  1  0  0  0
  6 25  1  0  0  0
  6 91  1  0  0  0
  6 92  1  0  0  0
  7  8  2  0  0  0
  7 26  1  0  0  0
  7 29  1  0  0  0
  8  9  1  0  0  0
  8 22  1  0  0  0
  9 10  1  0  0  0
  9 27  2  0  0  0
 10 11  2  0  0  0
 10 15  1  0  0  0
 11 12  1  0  0  0
 11 93  1  0  0  0
 12 13  2  0  0  0
 12 94  1  0  0  0
 13 14  1  0  0  0
 13 31  1  0  0  0
 14 15  2  0  0  0
 14 95  1  0  0  0
 15 96  1  0  0  0
 16 17  2  0  0  0
 16 21  1  0  0  0
 16 31  1  0  0  0
 17 18  1  0  0  0
 17 97  1  0  0  0
 18 19  2  0  0  0
 18 98  1  0  0  0
 19 20  1  0  0  0
 19 24  1  0  0  0
 20 21  2  0  0  0
 20 99  1  0  0  0
 21 23  1  0  0  0
 22 28  1  0  0  0
 22 32  2  0  0  0
 26 27  1  0  0  0
 28100  1  0  0  0
 28101  1  0  0  0
 29102  1  0  0  0
 29103  1  0  0  0
 33 34  1  0  0  0
 33 66  1  0  0  0
 33 70  2  0  0  0
 34 36  1  0  0  0
 34 59  1  0  0  0
 34104  1  0  0  0
 35 44  2  0  0  0
 35 45  1  0  0  0
 35 68  1  0  0  0
 36 56  1  0  0  0
 36105  1  0  0  0
 37 39  1  0  0  0
 37 47  1  0  0  0
 37 66  1  0  0  0
 37106  1  0  0  0
 38 43  2  0  0  0
 38 46  1  0  0  0
 38 47  1  0  0  0
 39 64  1  0  0  0
 39 67  2  0  0  0
 40 52  1  0  0  0
 40 53  2  0  0  0
 40 58  1  0  0  0
 41107  1  0  0  0
 41108  1  0  0  0
 41109  1  0  0  0
 41 48  1  0  0  0
 42 43  1  0  0  0
 42 66  1  0  0  0
 42110  1  0  0  0
 42111  1  0  0  0
 43 44  1  0  0  0
 44112  1  0  0  0
 45 46  2  0  0  0
 45113  1  0  0  0
 46114  1  0  0  0
 47115  1  0  0  0
 47116  1  0  0  0
 48 56  1  0  0  0
 48 65  1  0  0  0
 48117  1  0  0  0
 49 50  1  0  0  0
 49 53  1  0  0  0
 49 64  1  0  0  0
 49118  1  0  0  0
 50 51  1  0  0  0
 50119  1  0  0  0
 50120  1  0  0  0
 51 52  1  0  0  0
 51121  1  0  0  0
 51122  1  0  0  0
 52123  1  0  0  0
 52124  1  0  0  0
 53 54  1  0  0  0
 54 55  2  0  0  0
 54125  1  0  0  0
 55 57  1  0  0  0
 55126  1  0  0  0
 56 69  2  0  0  0
 57 58  2  0  0  0
 57127  1  0  0  0
 58128  1  0  0  0
 59 60  1  0  0  0
 59 61  1  0  0  0
 59 62  1  0  0  0
 60129  1  0  0  0
 60130  1  0  0  0
 60131  1  0  0  0
 61132  1  0  0  0
 61133  1  0  0  0
 61134  1  0  0  0
 62135  1  0  0  0
 62136  1  0  0  0
 62137  1  0  0  0
 63 65  1  0  0  0
 63138  1  0  0  0
 63139  1  0  0  0
 63140  1  0  0  0
 64141  1  0  0  0
 65142  1  0  0  0
 68 82  1  0  0  0
 71 73  2  0  0  0
 71 74  1  0  0  0
 71143  1  0  0  0
 72 75  2  0  0  0
 72 76  1  0  0  0
 72144  1  0  0  0
 73 75  1  0  0  0
 73 80  1  0  0  0
 74 76  2  0  0  0
 74 77  1  0  0  0
 75 78  1  0  0  0
 76 83  1  0  0  0
 77145  1  0  0  0
 77146  1  0  0  0
 77147  1  0  0  0
 78148  1  0  0  0
 78149  1  0  0  0
 78150  1  0  0  0
 79151  1  0  0  0
 79152  1  0  0  0
 79153  1  0  0  0
 79 82  1  0  0  0
 80 81  1  0  0  0
 80154  1  0  0  0
 80155  1  0  0  0
 81 82  1  0  0  0
 81156  1  0  0  0
 81157  1  0  0  0
 82158  1  0  0  0
 83159  1  0  0  0
M  ISO  4   1 100  68 101  82 101  83 100
M  END
> <chiral flag>
0

> <version>
0

> <s_m_source_file>
/data/baiqing/PycharmProjects/Reinvent-master-3.2/result/LINK_invent/BTK/process_docking_weight1_custom_sum_contain_oxygen_bond_distance_aromatic_linkinvent_7_9_3/rearranged_h_0026.sdf

> <i_m_source_file_index>
90

> <r_mmod_Potential_Energy-OPLS-2005>
369.252746582031

> <r_mmod_Stretch_Energy-OPLS-2005>
195.320816040039

> <r_mmod_Bend_Energy-OPLS-2005>
261.413909912109

> <r_mmod_Torsional_Energy-OPLS-2005>
245.16716003418

> <r_mmod_Improper_Torsional_Energy-OPLS-2005>
5.99416780471802

> <r_mmod_Van_der_Waal_Energy-OPLS-2005>
128.067184448242

> <r_mmod_Electrostatic_Energy-OPLS-2005>
-406.468444824219

> <r_mmod_Solvation_Energy-OPLS-2005>
-197.99723815918

> <b_mmod_Minimization_Converged-OPLS-2005>
0

> <r_mmod_RMS_Derivative-OPLS-2005>
0.714431762695312

$$$$
90
                    3D
 Structure written by MMmdl.
153161  0  0  1  0            999 V2000
  -30.5318  -14.8566   20.4387 C   0  0  0  0  0  0
  -30.4523  -12.5247   19.4797 C   0  0  0  0  0  0
  -29.5212  -12.5224   18.2438 C   0  0  0  0  0  0
  -28.0501  -12.3202   18.6599 C   0  0  0  0  0  0
  -27.6397  -13.2304   19.8468 C   0  0  2  0  0  0
  -28.6865  -13.1890   20.9819 C   0  0  0  0  0  0
  -25.2509  -13.8178   20.5688 C   0  0  0  0  0  0
  -24.1805  -13.0428   20.9213 C   0  0  0  0  0  0
  -24.6396  -11.6906   20.8748 C   0  0  0  0  0  0
  -23.9073  -10.4287   21.0408 C   0  0  0  0  0  0
  -24.3624   -9.4203   21.9186 C   0  0  0  0  0  0
  -23.6297   -8.2240   22.0756 C   0  0  0  0  0  0
  -22.4279   -8.0280   21.3544 C   0  0  0  0  0  0
  -21.9914   -9.0255   20.4647 C   0  0  0  0  0  0
  -22.7245  -10.2133   20.3057 C   0  0  0  0  0  0
  -21.6853   -6.0737   22.5277 C   0  0  0  0  0  0
  -21.4014   -6.5643   23.8211 C   0  0  0  0  0  0
  -21.3659   -5.6795   24.9174 C   0  0  0  0  0  0
  -21.6043   -4.3057   24.7223 C   0  0  0  0  0  0
  -21.8819   -3.8149   23.4345 C   0  0  0  0  0  0
  -21.9193   -4.6965   22.3402 C   0  0  0  0  0  0
  -22.7828  -13.5215   21.1874 C   0  0  0  0  0  0
  -22.1660   -4.2151   21.0978 F   0  0  0  0  0  0
  -21.5627   -3.4541   25.7737 F   0  0  0  0  0  0
  -29.9758  -13.5878   20.3988 N   0  0  0  0  0  0
  -26.2930  -12.9378   20.3258 N   0  0  0  0  0  0
  -25.9326  -11.6526   20.5743 N   0  0  0  0  0  0
  -22.0478  -12.8203   22.0431 N   0  0  0  0  0  0
  -25.4178  -15.1904   20.4090 N   0  0  0  0  0  0
  -31.7274  -14.9987   20.1604 O   0  0  0  0  0  0
  -21.6640   -6.8880   21.4241 O   0  0  0  0  0  0
  -22.3511  -14.5521   20.6723 O   0  0  0  0  0  0
  -24.6387  -31.8486   23.1921 C   0  0  0  0  0  0
  -25.9179  -32.4721   23.8296 C   0  0  1  0  0  0
  -27.2242  -27.1922   20.1495 C   0  0  0  0  0  0
  -25.5945  -33.8524   24.2215 N   0  0  0  0  0  0
  -23.4403  -30.4682   21.5365 C   0  0  2  0  0  0
  -24.8904  -28.9002   20.1144 C   0  0  0  0  0  0
  -22.7541  -29.4573   22.4884 C   0  0  0  0  0  0
  -18.0305  -28.1392   22.8485 C   0  0  0  0  0  0
  -24.1491  -36.7267   23.2642 C   0  0  0  0  0  0
  -25.9917  -30.7407   21.3821 C   0  0  0  0  0  0
  -26.0654  -29.3552   20.7272 C   0  0  0  0  0  0
  -27.2364  -28.5175   20.7257 C   0  0  0  0  0  0
  -26.0270  -26.8237   19.4997 C   0  0  0  0  0  0
  -24.8803  -27.6451   19.4864 C   0  0  0  0  0  0
  -23.6640  -29.7958   20.1562 C   0  0  0  0  0  0
  -25.4120  -36.3046   24.0320 C   0  0  1  0  0  0
  -20.5911  -28.3720   23.1254 C   0  0  2  0  0  0
  -20.6796  -26.9430   22.5411 C   0  0  0  0  0  0
  -19.5773  -26.6393   21.5212 C   0  0  0  0  0  0
  -18.1954  -26.7932   22.1626 C   0  0  0  0  0  0
  -19.1557  -28.8874   23.2863 C   0  0  0  0  0  0
  -18.9468  -30.1474   23.8883 C   0  0  0  0  0  0
  -17.6462  -30.6592   24.0558 C   0  0  0  0  0  0
  -25.9066  -34.9420   23.5074 C   0  0  0  0  0  0
  -16.5358  -29.9082   23.6329 C   0  0  0  0  0  0
  -16.7288  -28.6499   23.0354 C   0  0  0  0  0  0
  -26.4520  -31.6571   25.0716 C   0  0  0  0  0  0
  -25.3720  -31.3744   26.1419 C   0  0  0  0  0  0
  -27.0382  -30.2976   24.6260 C   0  0  0  0  0  0
  -27.6055  -32.4331   25.7499 C   0  0  0  0  0  0
  -27.5575  -37.1790   24.8465 C   0  0  0  0  0  0
  -21.4240  -29.3053   22.3628 N   0  0  0  0  0  0
  -26.4288  -37.3753   23.9407 N   0  0  0  0  0  0
  -24.7098  -31.0389   22.0929 N   0  0  0  0  0  0
  -23.4203  -28.8120   23.3017 O   0  0  0  0  0  0
  -28.3005  -26.2514   20.1660 O   0  0  0  0  0  0
  -26.5642  -34.8909   22.4646 O   0  0  0  0  0  0
  -23.5516  -32.1334   23.7170 O   0  0  0  0  0  0
  -28.5037  -18.1005   19.8650 C   0  0  0  0  0  0
  -30.5344  -18.3877   21.0412 C   0  0  0  0  0  0
  -28.2612  -19.5265   19.8819 C   0  0  0  0  0  0
  -29.1235  -20.4667   20.5386 C   0  0  0  0  0  0
  -29.6264  -17.4439   20.4619 C   0  0  0  0  0  0
  -30.2920  -19.8221   21.0880 C   0  0  0  0  0  0
  -26.9841  -20.0264   19.2288 C   0  0  0  0  0  0
  -28.6495  -21.9957   20.9034 C   0  0  0  0  0  0
  -28.8637  -23.4241   20.0928 C   0  0  0  0  0  0
  -28.0587  -24.7943   20.5882 C   0  0  0  0  0  0
  -29.6385  -15.9315   20.5758 N   0  0  0  0  0  0
  -31.4483  -20.7917   21.9285 Cl  0  0  0  0  0  0
  -31.4860  -12.6908   19.1719 H   0  0  0  0  0  0
  -30.4388  -11.5540   19.9778 H   0  0  0  0  0  0
  -29.8235  -11.7414   17.5448 H   0  0  0  0  0  0
  -29.6219  -13.4678   17.7085 H   0  0  0  0  0  0
  -27.9303  -11.2737   18.9430 H   0  0  0  0  0  0
  -27.3877  -12.4818   17.8082 H   0  0  0  0  0  0
  -27.6207  -14.2448   19.4484 H   0  0  0  0  0  0
  -28.7504  -12.1906   21.4172 H   0  0  0  0  0  0
  -28.4023  -13.8579   21.7962 H   0  0  0  0  0  0
  -25.2772   -9.5678   22.4756 H   0  0  0  0  0  0
  -24.0005   -7.4633   22.7479 H   0  0  0  0  0  0
  -21.0843   -8.8778   19.8954 H   0  0  0  0  0  0
  -22.3706  -10.9675   19.6164 H   0  0  0  0  0  0
  -21.2006   -7.6151   23.9715 H   0  0  0  0  0  0
  -21.1481   -6.0524   25.9076 H   0  0  0  0  0  0
  -22.0598   -2.7612   23.2842 H   0  0  0  0  0  0
  -22.4102  -11.9861   22.4809 H   0  0  0  0  0  0
  -21.1099  -13.1224   22.2653 H   0  0  0  0  0  0
  -24.6432  -15.8361   20.5156 H   0  0  0  0  0  0
  -26.2501  -15.6324   20.0447 H   0  0  0  0  0  0
  -26.7245  -32.5350   23.1030 H   0  0  0  0  0  0
  -25.0087  -33.9650   25.0357 H   0  0  0  0  0  0
  -22.7407  -31.2925   21.3833 H   0  0  0  0  0  0
  -23.3757  -35.9596   23.3297 H   0  0  0  0  0  0
  -24.3579  -36.8901   22.2057 H   0  0  0  0  0  0
  -23.7243  -37.6463   23.6678 H   0  0  0  0  0  0
  -26.1377  -31.4967   20.6094 H   0  0  0  0  0  0
  -26.8661  -30.7930   22.0196 H   0  0  0  0  0  0
  -28.1368  -28.8654   21.2123 H   0  0  0  0  0  0
  -25.9641  -25.8671   19.0013 H   0  0  0  0  0  0
  -23.9846  -27.2937   18.9932 H   0  0  0  0  0  0
  -23.7958  -30.5695   19.3989 H   0  0  0  0  0  0
  -22.7808  -29.2332   19.8480 H   0  0  0  0  0  0
  -25.1306  -36.1882   25.0813 H   0  0  0  0  0  0
  -21.0005  -28.3312   24.1375 H   0  0  0  0  0  0
  -20.5693  -26.2331   23.3622 H   0  0  0  0  0  0
  -21.6668  -26.7450   22.1216 H   0  0  0  0  0  0
  -19.6946  -25.6308   21.1239 H   0  0  0  0  0  0
  -19.6705  -27.3203   20.6741 H   0  0  0  0  0  0
  -17.4226  -26.6678   21.4027 H   0  0  0  0  0  0
  -18.0361  -26.0075   22.9024 H   0  0  0  0  0  0
  -19.7939  -30.7303   24.2245 H   0  0  0  0  0  0
  -17.5006  -31.6273   24.5157 H   0  0  0  0  0  0
  -15.5354  -30.2974   23.7656 H   0  0  0  0  0  0
  -15.8692  -28.0812   22.7074 H   0  0  0  0  0  0
  -24.5901  -30.7088   25.7742 H   0  0  0  0  0  0
  -24.8908  -32.2924   26.4804 H   0  0  0  0  0  0
  -25.8017  -30.8944   27.0219 H   0  0  0  0  0  0
  -26.2989  -29.6703   24.1266 H   0  0  0  0  0  0
  -27.4014  -29.7265   25.4814 H   0  0  0  0  0  0
  -27.8885  -30.4231   23.9554 H   0  0  0  0  0  0
  -27.2648  -33.3641   26.2039 H   0  0  0  0  0  0
  -28.3886  -32.6874   25.0345 H   0  0  0  0  0  0
  -28.0702  -31.8483   26.5447 H   0  0  0  0  0  0
  -28.2589  -38.0090   24.7504 H   0  0  0  0  0  0
  -28.1075  -36.2618   24.6301 H   0  0  0  0  0  0
  -27.2291  -37.1444   25.8867 H   0  0  0  0  0  0
  -20.9443  -29.8761   21.6808 H   0  0  0  0  0  0
  -26.0159  -38.2824   24.1407 H   0  0  0  0  0  0
  -27.7553  -17.4752   19.3983 H   0  0  0  0  0  0
  -31.4154  -18.0080   21.5383 H   0  0  0  0  0  0
  -26.6302  -19.3306   18.4672 H   0  0  0  0  0  0
  -27.1439  -20.9876   18.7393 H   0  0  0  0  0  0
  -26.1949  -20.1444   19.9716 H   0  0  0  0  0  0
  -29.0243  -22.1743   21.9113 H   0  0  0  0  0  0
  -27.5741  -21.9189   21.0623 H   0  0  0  0  0  0
  -28.6029  -23.2585   19.0474 H   0  0  0  0  0  0
  -29.9320  -23.6409   20.0911 H   0  0  0  0  0  0
  -28.1879  -24.8261   21.6705 H   0  0  0  0  0  0
  -26.9999  -24.5700   20.4691 H   0  0  0  0  0  0
  -28.7083  -15.5569   20.6757 H   0  0  0  0  0  0
  1 25  1  0  0  0
  1 30  2  0  0  0
  1 81  1  0  0  0
  2  3  1  0  0  0
  2 25  1  0  0  0
  2 83  1  0  0  0
  2 84  1  0  0  0
  3  4  1  0  0  0
  3 85  1  0  0  0
  3 86  1  0  0  0
  4  5  1  0  0  0
  4 87  1  0  0  0
  4 88  1  0  0  0
  5  6  1  0  0  0
  5 26  1  0  0  0
  5 89  1  0  0  0
  6 25  1  0  0  0
  6 90  1  0  0  0
  6 91  1  0  0  0
  7  8  2  0  0  0
  7 26  1  0  0  0
  7 29  1  0  0  0
  8  9  1  0  0  0
  8 22  1  0  0  0
  9 10  1  0  0  0
  9 27  2  0  0  0
 10 11  2  0  0  0
 10 15  1  0  0  0
 11 12  1  0  0  0
 11 92  1  0  0  0
 12 13  2  0  0  0
 12 93  1  0  0  0
 13 14  1  0  0  0
 13 31  1  0  0  0
 14 15  2  0  0  0
 14 94  1  0  0  0
 15 95  1  0  0  0
 16 17  2  0  0  0
 16 21  1  0  0  0
 16 31  1  0  0  0
 17 18  1  0  0  0
 17 96  1  0  0  0
 18 19  2  0  0  0
 18 97  1  0  0  0
 19 20  1  0  0  0
 19 24  1  0  0  0
 20 21  2  0  0  0
 20 98  1  0  0  0
 21 23  1  0  0  0
 22 28  1  0  0  0
 22 32  2  0  0  0
 26 27  1  0  0  0
 28 99  1  0  0  0
 28100  1  0  0  0
 29101  1  0  0  0
 29102  1  0  0  0
 33 34  1  0  0  0
 33 66  1  0  0  0
 33 70  2  0  0  0
 34 36  1  0  0  0
 34 59  1  0  0  0
 34103  1  0  0  0
 35 44  2  0  0  0
 35 45  1  0  0  0
 35 68  1  0  0  0
 36 56  1  0  0  0
 36104  1  0  0  0
 37 39  1  0  0  0
 37 47  1  0  0  0
 37 66  1  0  0  0
 37105  1  0  0  0
 38 43  2  0  0  0
 38 46  1  0  0  0
 38 47  1  0  0  0
 39 64  1  0  0  0
 39 67  2  0  0  0
 40 52  1  0  0  0
 40 53  2  0  0  0
 40 58  1  0  0  0
 41106  1  0  0  0
 41107  1  0  0  0
 41108  1  0  0  0
 41 48  1  0  0  0
 42 43  1  0  0  0
 42 66  1  0  0  0
 42109  1  0  0  0
 42110  1  0  0  0
 43 44  1  0  0  0
 44111  1  0  0  0
 45 46  2  0  0  0
 45112  1  0  0  0
 46113  1  0  0  0
 47114  1  0  0  0
 47115  1  0  0  0
 48 56  1  0  0  0
 48 65  1  0  0  0
 48116  1  0  0  0
 49 50  1  0  0  0
 49 53  1  0  0  0
 49 64  1  0  0  0
 49117  1  0  0  0
 50 51  1  0  0  0
 50118  1  0  0  0
 50119  1  0  0  0
 51 52  1  0  0  0
 51120  1  0  0  0
 51121  1  0  0  0
 52122  1  0  0  0
 52123  1  0  0  0
 53 54  1  0  0  0
 54 55  2  0  0  0
 54124  1  0  0  0
 55 57  1  0  0  0
 55125  1  0  0  0
 56 69  2  0  0  0
 57 58  2  0  0  0
 57126  1  0  0  0
 58127  1  0  0  0
 59 60  1  0  0  0
 59 61  1  0  0  0
 59 62  1  0  0  0
 60128  1  0  0  0
 60129  1  0  0  0
 60130  1  0  0  0
 61131  1  0  0  0
 61132  1  0  0  0
 61133  1  0  0  0
 62134  1  0  0  0
 62135  1  0  0  0
 62136  1  0  0  0
 63 65  1  0  0  0
 63137  1  0  0  0
 63138  1  0  0  0
 63139  1  0  0  0
 64140  1  0  0  0
 65141  1  0  0  0
 68 80  1  0  0  0
 71 73  2  0  0  0
 71 75  1  0  0  0
 71142  1  0  0  0
 72 75  2  0  0  0
 72 76  1  0  0  0
 72143  1  0  0  0
 73 74  1  0  0  0
 73 77  1  0  0  0
 74 76  2  0  0  0
 74 78  1  0  0  0
 75 81  1  0  0  0
 76 82  1  0  0  0
 77144  1  0  0  0
 77145  1  0  0  0
 77146  1  0  0  0
 78 79  1  0  0  0
 78147  1  0  0  0
 78148  1  0  0  0
 79 80  1  0  0  0
 79149  1  0  0  0
 79150  1  0  0  0
 80151  1  0  0  0
 80152  1  0  0  0
 81153  1  0  0  0
M  ISO  4   1 100  68 101  80 101  81 100
M  END
> <chiral flag>
0

> <version>
0

> <s_m_source_file>
/data/baiqing/PycharmProjects/Reinvent-master-3.2/result/LINK_invent/BTK/process_docking_weight1_custom_sum_contain_oxygen_bond_distance_aromatic_linkinvent_7_9_3/rearranged_h_0026.sdf

> <i_m_source_file_index>
91

> <r_mmod_Potential_Energy-OPLS-2005>
391.099884033203

> <r_mmod_Stretch_Energy-OPLS-2005>
184.272354125977

> <r_mmod_Bend_Energy-OPLS-2005>
234.47428894043

> <r_mmod_Torsional_Energy-OPLS-2005>
249.684478759766

> <r_mmod_Improper_Torsional_Energy-OPLS-2005>
8.62439060211182

> <r_mmod_Van_der_Waal_Energy-OPLS-2005>
128.860977172852

> <r_mmod_Electrostatic_Energy-OPLS-2005>
-344.986206054688

> <r_mmod_Solvation_Energy-OPLS-2005>
-208.19189453125

> <b_mmod_Minimization_Converged-OPLS-2005>
0

> <r_mmod_RMS_Derivative-OPLS-2005>
0.566214442253113

$$$$
91
                    3D
 Structure written by MMmdl.
171180  0  0  1  0            999 V2000
  -30.7453  -14.4526   20.4247 C   0  0  0  0  0  0
  -30.4052  -12.2634   19.4251 C   0  0  0  0  0  0
  -29.4774  -12.4348   18.2052 C   0  0  0  0  0  0
  -28.0026  -12.3226   18.6292 C   0  0  0  0  0  0
  -27.6515  -13.2094   19.8549 C   0  0  2  0  0  0
  -28.7056  -13.0728   20.9775 C   0  0  0  0  0  0
  -25.2558  -13.8182   20.5701 C   0  0  0  0  0  0
  -24.1824  -13.0448   20.9208 C   0  0  0  0  0  0
  -24.6389  -11.6922   20.8776 C   0  0  0  0  0  0
  -23.9065  -10.4301   21.0433 C   0  0  0  0  0  0
  -24.3623   -9.4210   21.9202 C   0  0  0  0  0  0
  -23.6298   -8.2248   22.0764 C   0  0  0  0  0  0
  -22.4284   -8.0287   21.3544 C   0  0  0  0  0  0
  -21.9918   -9.0268   20.4648 C   0  0  0  0  0  0
  -22.7245  -10.2146   20.3068 C   0  0  0  0  0  0
  -21.6851   -6.0739   22.5285 C   0  0  0  0  0  0
  -21.4013   -6.5645   23.8217 C   0  0  0  0  0  0
  -21.3659   -5.6796   24.9182 C   0  0  0  0  0  0
  -21.6049   -4.3060   24.7227 C   0  0  0  0  0  0
  -21.8822   -3.8146   23.4349 C   0  0  0  0  0  0
  -21.9192   -4.6967   22.3403 C   0  0  0  0  0  0
  -22.7842  -13.5233   21.1856 C   0  0  0  0  0  0
  -22.1660   -4.2146   21.0985 F   0  0  0  0  0  0
  -21.5629   -3.4548   25.7744 F   0  0  0  0  0  0
  -30.0322  -13.3020   20.3910 N   0  0  0  0  0  0
  -26.2993  -12.9360   20.3356 N   0  0  0  0  0  0
  -25.9314  -11.6525   20.5824 N   0  0  0  0  0  0
  -22.0475  -12.8223   22.0403 N   0  0  0  0  0  0
  -25.4255  -15.1900   20.4084 N   0  0  0  0  0  0
  -31.9678  -14.4895   20.2996 O   0  0  0  0  0  0
  -21.6647   -6.8886   21.4246 O   0  0  0  0  0  0
  -22.3529  -14.5535   20.6699 O   0  0  0  0  0  0
  -24.6125  -31.8706   23.2133 C   0  0  0  0  0  0
  -25.9020  -32.4846   23.8427 C   0  0  1  0  0  0
  -27.2364  -27.4731   20.0939 C   0  0  0  0  0  0
  -25.5880  -33.8639   24.2354 N   0  0  0  0  0  0
  -23.4006  -30.4951   21.5518 C   0  0  2  0  0  0
  -24.8507  -28.9700   20.1123 C   0  0  0  0  0  0
  -22.7406  -29.4668   22.4983 C   0  0  0  0  0  0
  -18.0272  -28.1392   22.8495 C   0  0  0  0  0  0
  -24.1486  -36.7321   23.2640 C   0  0  0  0  0  0
  -25.9278  -30.8508   21.3612 C   0  0  0  0  0  0
  -26.0102  -29.4912   20.7022 C   0  0  0  0  0  0
  -27.2140  -28.7526   20.6878 C   0  0  0  0  0  0
  -26.0637  -26.9524   19.5158 C   0  0  0  0  0  0
  -24.8705  -27.6978   19.5130 C   0  0  0  0  0  0
  -23.6097  -29.8321   20.1649 C   0  0  0  0  0  0
  -25.4108  -36.3128   24.0344 C   0  0  1  0  0  0
  -20.5864  -28.3678   23.1319 C   0  0  2  0  0  0
  -20.6760  -26.9411   22.5426 C   0  0  0  0  0  0
  -19.5740  -26.6393   21.5225 C   0  0  0  0  0  0
  -18.1915  -26.7942   22.1628 C   0  0  0  0  0  0
  -19.1518  -28.8850   23.2908 C   0  0  0  0  0  0
  -18.9446  -30.1458   23.8921 C   0  0  0  0  0  0
  -17.6447  -30.6592   24.0580 C   0  0  0  0  0  0
  -25.9030  -34.9484   23.5144 C   0  0  0  0  0  0
  -16.5340  -29.9103   23.6328 C   0  0  0  0  0  0
  -16.7262  -28.6519   23.0348 C   0  0  0  0  0  0
  -26.4461  -31.6616   25.0737 C   0  0  0  0  0  0
  -25.3740  -31.3695   26.1489 C   0  0  0  0  0  0
  -27.0289  -30.3068   24.6084 C   0  0  0  0  0  0
  -27.6041  -32.4331   25.7491 C   0  0  0  0  0  0
  -27.5592  -37.1814   24.8462 C   0  0  0  0  0  0
  -21.4136  -29.3042   22.3723 N   0  0  0  0  0  0
  -26.4303  -37.3805   23.9404 N   0  0  0  0  0  0
  -24.6648  -31.0846   22.1010 N   0  0  0  0  0  0
  -23.4184  -28.8204   23.3012 O   0  0  0  0  0  0
  -28.3322  -26.6539   20.1242 O   0  0  0  0  0  0
  -26.5596  -34.8931   22.4711 O   0  0  0  0  0  0
  -23.5318  -32.1423   23.7549 O   0  0  0  0  0  0
  -32.1268  -17.9499   18.1584 C   0  0  0  0  0  0
  -31.0657  -19.1849   19.9958 C   0  0  0  0  0  0
  -30.6067  -16.7836   19.7028 C   0  0  0  0  0  0
  -32.0054  -19.1193   18.9377 C   0  0  0  0  0  0
  -31.3893  -16.7939   18.5103 C   0  0  0  0  0  0
  -30.3928  -17.9996   20.3980 C   0  0  0  0  0  0
  -29.1783  -22.5225   17.9317 C   0  0  0  0  0  0
  -29.5021  -21.1859   18.5854 C   0  0  0  0  0  0
  -30.3605  -22.9221   19.9958 C   0  0  0  0  0  0
  -30.1678  -23.5100   18.5717 C   0  0  2  0  0  0
  -33.0533  -17.9697   16.9436 C   0  0  0  0  0  0
  -29.5308  -25.3303   17.1242 C   0  0  0  0  0  0
  -30.8227  -20.5354   20.6923 C   0  0  0  0  0  0
  -30.3922  -25.8709   19.2847 C   0  0  0  0  0  0
  -29.5492  -27.1346   19.5822 C   0  0  0  0  0  0
  -30.0338  -15.5738   20.2205 N   0  0  0  0  0  0
  -29.6172  -24.8768   18.5169 N   0  0  0  0  0  0
  -29.9242  -21.5005   19.9726 N   0  3  2  0  0  0
  -32.9666  -20.5086   18.5357 Cl  0  0  0  0  0  0
  -31.4228  -15.4213   17.4458 Cl  0  0  0  0  0  0
  -29.3182  -18.0096   21.7584 Cl  0  0  0  0  0  0
  -31.4504  -12.3307   19.1152 H   0  0  0  0  0  0
  -30.2828  -11.2755   19.8720 H   0  0  0  0  0  0
  -29.7032  -11.6788   17.4521 H   0  0  0  0  0  0
  -29.6406  -13.3985   17.7271 H   0  0  0  0  0  0
  -27.8134  -11.2741   18.8636 H   0  0  0  0  0  0
  -27.3507  -12.5651   17.7896 H   0  0  0  0  0  0
  -27.6694  -14.2399   19.5016 H   0  0  0  0  0  0
  -28.6685  -12.0767   21.4206 H   0  0  0  0  0  0
  -28.5080  -13.7784   21.7865 H   0  0  0  0  0  0
  -25.2772   -9.5685   22.4773 H   0  0  0  0  0  0
  -24.0003   -7.4641   22.7490 H   0  0  0  0  0  0
  -21.0851   -8.8796   19.8951 H   0  0  0  0  0  0
  -22.3716  -10.9695   19.6183 H   0  0  0  0  0  0
  -21.2004   -7.6152   23.9714 H   0  0  0  0  0  0
  -21.1477   -6.0534   25.9083 H   0  0  0  0  0  0
  -22.0592   -2.7608   23.2862 H   0  0  0  0  0  0
  -22.4084  -11.9880   22.4789 H   0  0  0  0  0  0
  -21.1095  -13.1258   22.2601 H   0  0  0  0  0  0
  -24.6581  -15.8440   20.5196 H   0  0  0  0  0  0
  -26.2752  -15.6333   20.0844 H   0  0  0  0  0  0
  -26.7097  -32.5575   23.1206 H   0  0  0  0  0  0
  -25.0048  -33.9809   25.0510 H   0  0  0  0  0  0
  -22.6882  -31.3111   21.4158 H   0  0  0  0  0  0
  -23.3754  -35.9647   23.3312 H   0  0  0  0  0  0
  -24.3583  -36.8926   22.2051 H   0  0  0  0  0  0
  -23.7227  -37.6526   23.6646 H   0  0  0  0  0  0
  -26.0380  -31.6227   20.5984 H   0  0  0  0  0  0
  -26.8152  -30.9009   21.9797 H   0  0  0  0  0  0
  -28.1051  -29.1461   21.1564 H   0  0  0  0  0  0
  -26.0779  -25.9656   19.0749 H   0  0  0  0  0  0
  -23.9779  -27.2852   19.0639 H   0  0  0  0  0  0
  -23.7179  -30.6119   19.4095 H   0  0  0  0  0  0
  -22.7347  -29.2528   19.8655 H   0  0  0  0  0  0
  -25.1286  -36.2014   25.0838 H   0  0  0  0  0  0
  -20.9958  -28.3249   24.1436 H   0  0  0  0  0  0
  -20.5665  -26.2283   23.3615 H   0  0  0  0  0  0
  -21.6629  -26.7451   22.1215 H   0  0  0  0  0  0
  -19.6894  -25.6305   21.1247 H   0  0  0  0  0  0
  -19.6687  -27.3210   20.6757 H   0  0  0  0  0  0
  -17.4187  -26.6707   21.4024 H   0  0  0  0  0  0
  -18.0299  -26.0080   22.9016 H   0  0  0  0  0  0
  -19.7917  -30.7273   24.2298 H   0  0  0  0  0  0
  -17.4999  -31.6271   24.5189 H   0  0  0  0  0  0
  -15.5341  -30.3020   23.7631 H   0  0  0  0  0  0
  -15.8659  -28.0857   22.7045 H   0  0  0  0  0  0
  -24.5902  -30.7060   25.7822 H   0  0  0  0  0  0
  -24.8941  -32.2837   26.4985 H   0  0  0  0  0  0
  -25.8101  -30.8826   27.0221 H   0  0  0  0  0  0
  -26.2824  -29.6836   24.1142 H   0  0  0  0  0  0
  -27.4081  -29.7295   25.4531 H   0  0  0  0  0  0
  -27.8653  -30.4408   23.9217 H   0  0  0  0  0  0
  -27.2661  -33.3611   26.2118 H   0  0  0  0  0  0
  -28.3819  -32.6927   25.0296 H   0  0  0  0  0  0
  -28.0746  -31.8426   26.5364 H   0  0  0  0  0  0
  -28.2610  -38.0117   24.7528 H   0  0  0  0  0  0
  -28.1093  -36.2644   24.6274 H   0  0  0  0  0  0
  -27.2307  -37.1453   25.8868 H   0  0  0  0  0  0
  -20.9285  -29.8780   21.6971 H   0  0  0  0  0  0
  -26.0206  -38.2889   24.1407 H   0  0  0  0  0  0
  -28.1463  -22.7943   18.1590 H   0  0  0  0  0  0
  -29.2764  -22.4653   16.8473 H   0  0  0  0  0  0
  -30.2993  -20.7486   17.9919 H   0  0  0  0  0  0
  -28.6608  -20.4923   18.5650 H   0  0  0  0  0  0
  -29.7364  -23.4352   20.7288 H   0  0  0  0  0  0
  -31.3955  -23.0470   20.3169 H   0  0  0  0  0  0
  -31.1237  -23.4599   18.0455 H   0  0  0  0  0  0
  -32.8129  -18.8135   16.2963 H   0  0  0  0  0  0
  -33.0064  -17.0804   16.3193 H   0  0  0  0  0  0
  -34.0873  -18.0809   17.2701 H   0  0  0  0  0  0
  -28.8955  -24.6820   16.5205 H   0  0  0  0  0  0
  -30.5142  -25.3621   16.6514 H   0  0  0  0  0  0
  -29.0932  -26.3253   17.0484 H   0  0  0  0  0  0
  -31.7966  -20.9819   20.8886 H   0  0  0  0  0  0
  -30.4151  -20.3897   21.6909 H   0  0  0  0  0  0
  -30.6835  -25.4576   20.2500 H   0  0  0  0  0  0
  -31.3233  -26.1303   18.7774 H   0  0  0  0  0  0
  -29.3790  -27.7318   18.6859 H   0  0  0  0  0  0
  -30.0556  -27.7728   20.3063 H   0  0  0  0  0  0
  -29.0474  -15.5643   20.4229 H   0  0  0  0  0  0
  -29.0664  -21.5014   20.5051 H   0  0  0  0  0  0
  1 25  1  0  0  0
  1 30  2  0  0  0
  1 86  1  0  0  0
  2  3  1  0  0  0
  2 25  1  0  0  0
  2 92  1  0  0  0
  2 93  1  0  0  0
  3  4  1  0  0  0
  3 94  1  0  0  0
  3 95  1  0  0  0
  4  5  1  0  0  0
  4 96  1  0  0  0
  4 97  1  0  0  0
  5  6  1  0  0  0
  5 26  1  0  0  0
  5 98  1  0  0  0
  6 25  1  0  0  0
  6 99  1  0  0  0
  6100  1  0  0  0
  7  8  2  0  0  0
  7 26  1  0  0  0
  7 29  1  0  0  0
  8  9  1  0  0  0
  8 22  1  0  0  0
  9 10  1  0  0  0
  9 27  2  0  0  0
 10 11  2  0  0  0
 10 15  1  0  0  0
 11 12  1  0  0  0
 11101  1  0  0  0
 12 13  2  0  0  0
 12102  1  0  0  0
 13 14  1  0  0  0
 13 31  1  0  0  0
 14 15  2  0  0  0
 14103  1  0  0  0
 15104  1  0  0  0
 16 17  2  0  0  0
 16 21  1  0  0  0
 16 31  1  0  0  0
 17 18  1  0  0  0
 17105  1  0  0  0
 18 19  2  0  0  0
 18106  1  0  0  0
 19 20  1  0  0  0
 19 24  1  0  0  0
 20 21  2  0  0  0
 20107  1  0  0  0
 21 23  1  0  0  0
 22 28  1  0  0  0
 22 32  2  0  0  0
 26 27  1  0  0  0
 28108  1  0  0  0
 28109  1  0  0  0
 29110  1  0  0  0
 29111  1  0  0  0
 33 34  1  0  0  0
 33 66  1  0  0  0
 33 70  2  0  0  0
 34 36  1  0  0  0
 34 59  1  0  0  0
 34112  1  0  0  0
 35 44  2  0  0  0
 35 45  1  0  0  0
 35 68  1  0  0  0
 36 56  1  0  0  0
 36113  1  0  0  0
 37 39  1  0  0  0
 37 47  1  0  0  0
 37 66  1  0  0  0
 37114  1  0  0  0
 38 43  2  0  0  0
 38 46  1  0  0  0
 38 47  1  0  0  0
 39 64  1  0  0  0
 39 67  2  0  0  0
 40 52  1  0  0  0
 40 53  2  0  0  0
 40 58  1  0  0  0
 41115  1  0  0  0
 41116  1  0  0  0
 41117  1  0  0  0
 41 48  1  0  0  0
 42 43  1  0  0  0
 42 66  1  0  0  0
 42118  1  0  0  0
 42119  1  0  0  0
 43 44  1  0  0  0
 44120  1  0  0  0
 45 46  2  0  0  0
 45121  1  0  0  0
 46122  1  0  0  0
 47123  1  0  0  0
 47124  1  0  0  0
 48 56  1  0  0  0
 48 65  1  0  0  0
 48125  1  0  0  0
 49 50  1  0  0  0
 49 53  1  0  0  0
 49 64  1  0  0  0
 49126  1  0  0  0
 50 51  1  0  0  0
 50127  1  0  0  0
 50128  1  0  0  0
 51 52  1  0  0  0
 51129  1  0  0  0
 51130  1  0  0  0
 52131  1  0  0  0
 52132  1  0  0  0
 53 54  1  0  0  0
 54 55  2  0  0  0
 54133  1  0  0  0
 55 57  1  0  0  0
 55134  1  0  0  0
 56 69  2  0  0  0
 57 58  2  0  0  0
 57135  1  0  0  0
 58136  1  0  0  0
 59 60  1  0  0  0
 59 61  1  0  0  0
 59 62  1  0  0  0
 60137  1  0  0  0
 60138  1  0  0  0
 60139  1  0  0  0
 61140  1  0  0  0
 61141  1  0  0  0
 61142  1  0  0  0
 62143  1  0  0  0
 62144  1  0  0  0
 62145  1  0  0  0
 63 65  1  0  0  0
 63146  1  0  0  0
 63147  1  0  0  0
 63148  1  0  0  0
 64149  1  0  0  0
 65150  1  0  0  0
 68 85  1  0  0  0
 71 74  2  0  0  0
 71 75  1  0  0  0
 71 81  1  0  0  0
 72 74  1  0  0  0
 72 76  2  0  0  0
 72 83  1  0  0  0
 73 75  2  0  0  0
 73 76  1  0  0  0
 73 86  1  0  0  0
 74 89  1  0  0  0
 75 90  1  0  0  0
 76 91  1  0  0  0
 77 78  1  0  0  0
 77 80  1  0  0  0
 77151  1  0  0  0
 77152  1  0  0  0
 78 88  1  0  0  0
 78153  1  0  0  0
 78154  1  0  0  0
 79 80  1  0  0  0
 79 88  1  0  0  0
 79155  1  0  0  0
 79156  1  0  0  0
 80 87  1  0  0  0
 80157  1  0  0  0
 81158  1  0  0  0
 81159  1  0  0  0
 81160  1  0  0  0
 82 87  1  0  0  0
 82161  1  0  0  0
 82162  1  0  0  0
 82163  1  0  0  0
 83164  1  0  0  0
 83165  1  0  0  0
 83 88  1  0  0  0
 84 85  1  0  0  0
 84 87  1  0  0  0
 84166  1  0  0  0
 84167  1  0  0  0
 85168  1  0  0  0
 85169  1  0  0  0
 86170  1  0  0  0
 88171  1  0  0  0
M  CHG  1  88   1
M  ISO  4   1 100  68 101  85 101  86 100
M  END
> <chiral flag>
0

> <version>
0

> <s_m_source_file>
/data/baiqing/PycharmProjects/Reinvent-master-3.2/result/LINK_invent/BTK/process_docking_weight1_custom_sum_contain_oxygen_bond_distance_aromatic_linkinvent_7_9_3/rearranged_h_0026.sdf

> <i_m_source_file_index>
92

> <r_mmod_Potential_Energy-OPLS-2005>
-64.2438507080078

> <r_mmod_Stretch_Energy-OPLS-2005>
41.2819366455078

> <r_mmod_Bend_Energy-OPLS-2005>
132.571517944336

> <r_mmod_Torsional_Energy-OPLS-2005>
347.135223388672

> <r_mmod_Improper_Torsional_Energy-OPLS-2005>
10.1603336334229

> <r_mmod_Van_der_Waal_Energy-OPLS-2005>
177.049621582031

> <r_mmod_Electrostatic_Energy-OPLS-2005>
-358.304382324219

> <r_mmod_Solvation_Energy-OPLS-2005>
-446.403869628906

> <b_mmod_Minimization_Converged-OPLS-2005>
0

> <r_mmod_RMS_Derivative-OPLS-2005>
1.53736913204193

$$$$
92
                    3D
 Structure written by MMmdl.
166175  0  0  1  0            999 V2000
  -30.7567  -14.5364   20.5736 C   0  0  0  0  0  0
  -30.4255  -12.3380   19.4769 C   0  0  0  0  0  0
  -29.4998  -12.4488   18.2488 C   0  0  0  0  0  0
  -28.0250  -12.3079   18.6671 C   0  0  0  0  0  0
  -27.6490  -13.2175   19.8653 C   0  0  2  0  0  0
  -28.6942  -13.1034   21.0008 C   0  0  0  0  0  0
  -25.2206  -13.7846   20.5338 C   0  0  0  0  0  0
  -24.1600  -13.0107   20.9104 C   0  0  0  0  0  0
  -24.6366  -11.6686   20.8852 C   0  0  0  0  0  0
  -23.9052  -10.4053   21.0466 C   0  0  0  0  0  0
  -24.3586   -9.4013   21.9263 C   0  0  0  0  0  0
  -23.6220   -8.2092   22.0772 C   0  0  0  0  0  0
  -22.4235   -8.0155   21.3525 C   0  0  0  0  0  0
  -21.9871   -9.0137   20.4674 C   0  0  0  0  0  0
  -22.7222  -10.1982   20.3116 C   0  0  0  0  0  0
  -21.6811   -6.0682   22.5257 C   0  0  0  0  0  0
  -21.3965   -6.5630   23.8189 C   0  0  0  0  0  0
  -21.3662   -5.6819   24.9183 C   0  0  0  0  0  0
  -21.6048   -4.3082   24.7215 C   0  0  0  0  0  0
  -21.8827   -3.8108   23.4356 C   0  0  0  0  0  0
  -21.9162   -4.6906   22.3393 C   0  0  0  0  0  0
  -22.7633  -13.4939   21.1762 C   0  0  0  0  0  0
  -22.1678   -4.2115   21.0969 F   0  0  0  0  0  0
  -21.5633   -3.4561   25.7730 F   0  0  0  0  0  0
  -30.0324  -13.3810   20.4444 N   0  0  0  0  0  0
  -26.2912  -12.9270   20.3418 N   0  0  0  0  0  0
  -25.9390  -11.6410   20.6130 N   0  0  0  0  0  0
  -22.0381  -12.7978   22.0449 N   0  0  0  0  0  0
  -25.3275  -15.1354   20.3115 N   0  0  0  0  0  0
  -31.8739  -14.6670   20.0675 O   0  0  0  0  0  0
  -21.6606   -6.8769   21.4202 O   0  0  0  0  0  0
  -22.3302  -14.5257   20.6706 O   0  0  0  0  0  0
  -24.6114  -31.8581   23.2083 C   0  0  0  0  0  0
  -25.8964  -32.4777   23.8418 C   0  0  1  0  0  0
  -27.2634  -27.4111   20.0956 C   0  0  0  0  0  0
  -25.5836  -33.8579   24.2329 N   0  0  0  0  0  0
  -23.4109  -30.4739   21.5434 C   0  0  2  0  0  0
  -24.8683  -28.9256   20.1361 C   0  0  0  0  0  0
  -22.7423  -29.4585   22.4994 C   0  0  0  0  0  0
  -18.0195  -28.1281   22.8477 C   0  0  0  0  0  0
  -24.1482  -36.7331   23.2649 C   0  0  0  0  0  0
  -25.9404  -30.8204   21.3673 C   0  0  0  0  0  0
  -26.0256  -29.4394   20.7372 C   0  0  0  0  0  0
  -27.2295  -28.6851   20.7176 C   0  0  0  0  0  0
  -26.0922  -26.9263   19.4792 C   0  0  0  0  0  0
  -24.8924  -27.6674   19.5087 C   0  0  0  0  0  0
  -23.6346  -29.7956   20.1655 C   0  0  0  0  0  0
  -25.4114  -36.3101   24.0332 C   0  0  1  0  0  0
  -20.5789  -28.3651   23.1512 C   0  0  2  0  0  0
  -20.6676  -26.9366   22.5765 C   0  0  0  0  0  0
  -19.5887  -26.6300   21.5333 C   0  0  0  0  0  0
  -18.1886  -26.7903   22.1452 C   0  0  0  0  0  0
  -19.1395  -28.8773   23.2956 C   0  0  0  0  0  0
  -18.9309  -30.1327   23.9054 C   0  0  0  0  0  0
  -17.6354  -30.6503   24.0651 C   0  0  0  0  0  0
  -25.9043  -34.9457   23.5149 C   0  0  0  0  0  0
  -16.5271  -29.9064   23.6272 C   0  0  0  0  0  0
  -16.7175  -28.6370   23.0441 C   0  0  0  0  0  0
  -26.4411  -31.6556   25.0712 C   0  0  0  0  0  0
  -25.3695  -31.3657   26.1488 C   0  0  0  0  0  0
  -27.0292  -30.3036   24.6043 C   0  0  0  0  0  0
  -27.6019  -32.4287   25.7403 C   0  0  0  0  0  0
  -27.5579  -37.1836   24.8473 C   0  0  0  0  0  0
  -21.4147  -29.2862   22.3792 N   0  0  0  0  0  0
  -26.4318  -37.3769   23.9408 N   0  0  0  0  0  0
  -24.6728  -31.0681   22.0985 N   0  0  0  0  0  0
  -23.4158  -28.8179   23.3108 O   0  0  0  0  0  0
  -28.4427  -26.7003   19.9516 O   0  0  0  0  0  0
  -26.5597  -34.8883   22.4726 O   0  0  0  0  0  0
  -23.5297  -32.1311   23.7433 O   0  0  0  0  0  0
  -30.4762  -19.5180   21.5336 C   0  0  0  0  0  0
  -28.3276  -20.7392   21.3790 C   0  0  0  0  0  0
  -29.8655  -18.2544   21.3010 C   0  0  0  0  0  0
  -29.7347  -20.7306   21.6099 C   0  0  0  0  0  0
  -27.7329  -19.4848   21.0413 C   0  0  0  0  0  0
  -28.4751  -18.2776   21.0532 C   0  0  0  0  0  0
  -26.7369  -21.5688   23.0917 C   0  0  0  0  0  0
  -25.5567  -22.4559   23.5390 C   0  0  0  0  0  0
  -26.3116  -24.2389   22.0056 C   0  0  0  0  0  0
  -27.3325  -21.9019   21.6895 C   0  0  1  0  0  0
  -27.6403  -23.4518   21.7025 C   0  0  1  0  0  0
  -30.7405  -16.9592   21.4180 C   0  0  0  0  0  0
  -28.3235  -24.1839   20.5044 C   0  0  0  0  0  0
  -28.7515  -25.6521   20.8916 C   0  0  0  0  0  0
  -30.1767  -15.5920   21.1934 N   0  0  0  0  0  0
  -25.1788  -23.4287   22.5007 N   0  3  0  0  0  0
  -30.5841  -22.1568   22.0785 Cl  0  0  0  0  0  0
  -26.0277  -19.3833   20.7048 Cl  0  0  0  0  0  0
  -27.6088  -16.8120   20.8518 Cl  0  0  0  0  0  0
  -31.4656  -12.4182   19.1624 H   0  0  0  0  0  0
  -30.3346  -11.3578   19.9481 H   0  0  0  0  0  0
  -29.7641  -11.6834   17.5160 H   0  0  0  0  0  0
  -29.6494  -13.4111   17.7646 H   0  0  0  0  0  0
  -27.8813  -11.2650   18.9499 H   0  0  0  0  0  0
  -27.3651  -12.4909   17.8224 H   0  0  0  0  0  0
  -27.6674  -14.2476   19.5011 H   0  0  0  0  0  0
  -28.6783  -12.1063   21.4421 H   0  0  0  0  0  0
  -28.4388  -13.7998   21.8040 H   0  0  0  0  0  0
  -25.2714   -9.5458   22.4910 H   0  0  0  0  0  0
  -23.9900   -7.4433   22.7444 H   0  0  0  0  0  0
  -21.0852   -8.8654   19.8913 H   0  0  0  0  0  0
  -22.3719  -10.9560   19.6246 H   0  0  0  0  0  0
  -21.2008   -7.6145   23.9700 H   0  0  0  0  0  0
  -21.1504   -6.0546   25.9107 H   0  0  0  0  0  0
  -22.0618   -2.7554   23.2857 H   0  0  0  0  0  0
  -22.4103  -11.9653   22.4752 H   0  0  0  0  0  0
  -21.1071  -13.1050   22.2831 H   0  0  0  0  0  0
  -24.5439  -15.7663   20.4112 H   0  0  0  0  0  0
  -26.2160  -15.6123   20.1921 H   0  0  0  0  0  0
  -26.7078  -32.5493   23.1284 H   0  0  0  0  0  0
  -25.0020  -33.9794   25.0466 H   0  0  0  0  0  0
  -22.6994  -31.2864   21.3890 H   0  0  0  0  0  0
  -23.3710  -35.9693   23.3327 H   0  0  0  0  0  0
  -24.3591  -36.8936   22.2069 H   0  0  0  0  0  0
  -23.7266  -37.6563   23.6632 H   0  0  0  0  0  0
  -26.0464  -31.5713   20.5816 H   0  0  0  0  0  0
  -26.8351  -30.8875   21.9751 H   0  0  0  0  0  0
  -28.1396  -29.0824   21.1482 H   0  0  0  0  0  0
  -26.1193  -25.9863   18.9476 H   0  0  0  0  0  0
  -24.0091  -27.2754   19.0227 H   0  0  0  0  0  0
  -23.7604  -30.5605   19.4013 H   0  0  0  0  0  0
  -22.7665  -29.2125   19.8535 H   0  0  0  0  0  0
  -25.1280  -36.2023   25.0810 H   0  0  0  0  0  0
  -20.9937  -28.3251   24.1575 H   0  0  0  0  0  0
  -20.5274  -26.2362   23.4004 H   0  0  0  0  0  0
  -21.6694  -26.7432   22.1902 H   0  0  0  0  0  0
  -19.7241  -25.6256   21.1391 H   0  0  0  0  0  0
  -19.7065  -27.3215   20.6968 H   0  0  0  0  0  0
  -17.4455  -26.7119   21.3496 H   0  0  0  0  0  0
  -17.9677  -25.9820   22.8494 H   0  0  0  0  0  0
  -19.7759  -30.7004   24.2676 H   0  0  0  0  0  0
  -17.4960  -31.6246   24.5162 H   0  0  0  0  0  0
  -15.5285  -30.3187   23.7270 H   0  0  0  0  0  0
  -15.8590  -28.0604   22.7189 H   0  0  0  0  0  0
  -24.5844  -30.7024   25.7880 H   0  0  0  0  0  0
  -24.8866  -32.2763   26.5007 H   0  0  0  0  0  0
  -25.8014  -30.8796   27.0238 H   0  0  0  0  0  0
  -26.2826  -29.6783   24.1130 H   0  0  0  0  0  0
  -27.4232  -29.7279   25.4442 H   0  0  0  0  0  0
  -27.8549  -30.4508   23.9081 H   0  0  0  0  0  0
  -27.2685  -33.3617   26.2015 H   0  0  0  0  0  0
  -28.3721  -32.6867   25.0095 H   0  0  0  0  0  0
  -28.0797  -31.8379   26.5272 H   0  0  0  0  0  0
  -28.2620  -38.0101   24.7470 H   0  0  0  0  0  0
  -28.1041  -36.2646   24.6337 H   0  0  0  0  0  0
  -27.2297  -37.1537   25.8871 H   0  0  0  0  0  0
  -20.9255  -29.8197   21.6787 H   0  0  0  0  0  0
  -26.0206  -38.2850   24.1373 H   0  0  0  0  0  0
  -31.5360  -19.5463   21.7332 H   0  0  0  0  0  0
  -26.4262  -20.5242   23.1629 H   0  0  0  0  0  0
  -27.5349  -21.6792   23.8284 H   0  0  0  0  0  0
  -25.8149  -22.9988   24.4497 H   0  0  0  0  0  0
  -24.6818  -21.8531   23.7812 H   0  0  0  0  0  0
  -25.9438  -24.7442   21.1153 H   0  0  0  0  0  0
  -26.5026  -25.0108   22.7500 H   0  0  0  0  0  0
  -26.5699  -21.8220   20.9156 H   0  0  0  0  0  0
  -28.3136  -23.6057   22.5456 H   0  0  0  0  0  0
  -31.0856  -16.9493   22.4472 H   0  0  0  0  0  0
  -31.6491  -17.1048   20.8310 H   0  0  0  0  0  0
  -29.1968  -23.6304   20.1506 H   0  0  0  0  0  0
  -27.6473  -24.2156   19.6495 H   0  0  0  0  0  0
  -29.8412  -25.6573   20.9968 H   0  0  0  0  0  0
  -28.3962  -25.9432   21.8822 H   0  0  0  0  0  0
  -29.2292  -15.4549   21.5141 H   0  0  0  0  0  0
  -24.4647  -24.0461   22.8612 H   0  0  0  0  0  0
  -24.7597  -22.9393   21.7250 H   0  0  0  0  0  0
  1 25  1  0  0  0
  1 30  2  0  0  0
  1 85  1  0  0  0
  2  3  1  0  0  0
  2 25  1  0  0  0
  2 90  1  0  0  0
  2 91  1  0  0  0
  3  4  1  0  0  0
  3 92  1  0  0  0
  3 93  1  0  0  0
  4  5  1  0  0  0
  4 94  1  0  0  0
  4 95  1  0  0  0
  5  6  1  0  0  0
  5 26  1  0  0  0
  5 96  1  0  0  0
  6 25  1  0  0  0
  6 97  1  0  0  0
  6 98  1  0  0  0
  7  8  2  0  0  0
  7 26  1  0  0  0
  7 29  1  0  0  0
  8  9  1  0  0  0
  8 22  1  0  0  0
  9 10  1  0  0  0
  9 27  2  0  0  0
 10 11  2  0  0  0
 10 15  1  0  0  0
 11 12  1  0  0  0
 11 99  1  0  0  0
 12 13  2  0  0  0
 12100  1  0  0  0
 13 14  1  0  0  0
 13 31  1  0  0  0
 14 15  2  0  0  0
 14101  1  0  0  0
 15102  1  0  0  0
 16 17  2  0  0  0
 16 21  1  0  0  0
 16 31  1  0  0  0
 17 18  1  0  0  0
 17103  1  0  0  0
 18 19  2  0  0  0
 18104  1  0  0  0
 19 20  1  0  0  0
 19 24  1  0  0  0
 20 21  2  0  0  0
 20105  1  0  0  0
 21 23  1  0  0  0
 22 28  1  0  0  0
 22 32  2  0  0  0
 26 27  1  0  0  0
 28106  1  0  0  0
 28107  1  0  0  0
 29108  1  0  0  0
 29109  1  0  0  0
 33 34  1  0  0  0
 33 66  1  0  0  0
 33 70  2  0  0  0
 34 36  1  0  0  0
 34 59  1  0  0  0
 34110  1  0  0  0
 35 44  2  0  0  0
 35 45  1  0  0  0
 35 68  1  0  0  0
 36 56  1  0  0  0
 36111  1  0  0  0
 37 39  1  0  0  0
 37 47  1  0  0  0
 37 66  1  0  0  0
 37112  1  0  0  0
 38 43  2  0  0  0
 38 46  1  0  0  0
 38 47  1  0  0  0
 39 64  1  0  0  0
 39 67  2  0  0  0
 40 52  1  0  0  0
 40 53  2  0  0  0
 40 58  1  0  0  0
 41113  1  0  0  0
 41114  1  0  0  0
 41115  1  0  0  0
 41 48  1  0  0  0
 42 43  1  0  0  0
 42 66  1  0  0  0
 42116  1  0  0  0
 42117  1  0  0  0
 43 44  1  0  0  0
 44118  1  0  0  0
 45 46  2  0  0  0
 45119  1  0  0  0
 46120  1  0  0  0
 47121  1  0  0  0
 47122  1  0  0  0
 48 56  1  0  0  0
 48 65  1  0  0  0
 48123  1  0  0  0
 49 50  1  0  0  0
 49 53  1  0  0  0
 49 64  1  0  0  0
 49124  1  0  0  0
 50 51  1  0  0  0
 50125  1  0  0  0
 50126  1  0  0  0
 51 52  1  0  0  0
 51127  1  0  0  0
 51128  1  0  0  0
 52129  1  0  0  0
 52130  1  0  0  0
 53 54  1  0  0  0
 54 55  2  0  0  0
 54131  1  0  0  0
 55 57  1  0  0  0
 55132  1  0  0  0
 56 69  2  0  0  0
 57 58  2  0  0  0
 57133  1  0  0  0
 58134  1  0  0  0
 59 60  1  0  0  0
 59 61  1  0  0  0
 59 62  1  0  0  0
 60135  1  0  0  0
 60136  1  0  0  0
 60137  1  0  0  0
 61138  1  0  0  0
 61139  1  0  0  0
 61140  1  0  0  0
 62141  1  0  0  0
 62142  1  0  0  0
 62143  1  0  0  0
 63 65  1  0  0  0
 63144  1  0  0  0
 63145  1  0  0  0
 63146  1  0  0  0
 64147  1  0  0  0
 65148  1  0  0  0
 68 84  1  0  0  0
 71 73  2  0  0  0
 71 74  1  0  0  0
 71149  1  0  0  0
 72 74  2  0  0  0
 72 75  1  0  0  0
 72 80  1  0  0  0
 73 76  1  0  0  0
 73 82  1  0  0  0
 74 87  1  0  0  0
 75 76  2  0  0  0
 75 88  1  0  0  0
 76 89  1  0  0  0
 77 78  1  0  0  0
 77 80  1  0  0  0
 77150  1  0  0  0
 77151  1  0  0  0
 78 86  1  0  0  0
 78152  1  0  0  0
 78153  1  0  0  0
 79 81  1  0  0  0
 79 86  1  0  0  0
 79154  1  0  0  0
 79155  1  0  0  0
 80 81  1  0  0  0
 80156  1  0  0  0
 81 83  1  0  0  0
 81157  1  0  0  0
 82 85  1  0  0  0
 82158  1  0  0  0
 82159  1  0  0  0
 83 84  1  0  0  0
 83160  1  0  0  0
 83161  1  0  0  0
 84162  1  0  0  0
 84163  1  0  0  0
 85164  1  0  0  0
 86165  1  0  0  0
 86166  1  0  0  0
M  CHG  1  86   1
M  ISO  4   1 100  68 101  84 101  85 100
M  END
> <chiral flag>
0

> <version>
0

> <s_m_source_file>
/data/baiqing/PycharmProjects/Reinvent-master-3.2/result/LINK_invent/BTK/process_docking_weight1_custom_sum_contain_oxygen_bond_distance_aromatic_linkinvent_7_9_3/rearranged_h_0026.sdf

> <i_m_source_file_index>
93

> <r_mmod_Potential_Energy-OPLS-2005>
-22.4441757202148

> <r_mmod_Stretch_Energy-OPLS-2005>
63.1738014221191

> <r_mmod_Bend_Energy-OPLS-2005>
179.382278442383

> <r_mmod_Torsional_Energy-OPLS-2005>
301.229248046875

> <r_mmod_Improper_Torsional_Energy-OPLS-2005>
5.2054009437561

> <r_mmod_Van_der_Waal_Energy-OPLS-2005>
179.83039855957

> <r_mmod_Electrostatic_Energy-OPLS-2005>
-322.164123535156

> <r_mmod_Solvation_Energy-OPLS-2005>
-456.295562744141

> <b_mmod_Minimization_Converged-OPLS-2005>
0

> <r_mmod_RMS_Derivative-OPLS-2005>
9.86882972717285

$$$$
93
                    3D
 Structure written by MMmdl.
185196  0  0  1  0            999 V2000
  -30.6906  -14.4722   20.4680 C   0  0  0  0  0  0
  -30.4263  -12.2684   19.4504 C   0  0  0  0  0  0
  -29.5072  -12.4609   18.2221 C   0  0  0  0  0  0
  -28.0195  -12.3488   18.6191 C   0  0  0  0  0  0
  -27.6588  -13.1966   19.8701 C   0  0  2  0  0  0
  -28.7069  -13.0127   20.9991 C   0  0  0  0  0  0
  -25.2602  -13.8145   20.5687 C   0  0  0  0  0  0
  -24.1833  -13.0431   20.9179 C   0  0  0  0  0  0
  -24.6387  -11.6890   20.8744 C   0  0  0  0  0  0
  -23.9045  -10.4288   21.0411 C   0  0  0  0  0  0
  -24.3594   -9.4207   21.9190 C   0  0  0  0  0  0
  -23.6277   -8.2244   22.0760 C   0  0  0  0  0  0
  -22.4272   -8.0270   21.3547 C   0  0  0  0  0  0
  -21.9907   -9.0247   20.4665 C   0  0  0  0  0  0
  -22.7226  -10.2128   20.3068 C   0  0  0  0  0  0
  -21.6857   -6.0736   22.5278 C   0  0  0  0  0  0
  -21.4016   -6.5640   23.8214 C   0  0  0  0  0  0
  -21.3664   -5.6790   24.9171 C   0  0  0  0  0  0
  -21.6042   -4.3053   24.7222 C   0  0  0  0  0  0
  -21.8821   -3.8152   23.4337 C   0  0  0  0  0  0
  -21.9194   -4.6968   22.3400 C   0  0  0  0  0  0
  -22.7863  -13.5241   21.1815 C   0  0  0  0  0  0
  -22.1641   -4.2150   21.0972 F   0  0  0  0  0  0
  -21.5629   -3.4533   25.7735 F   0  0  0  0  0  0
  -30.0436  -13.2789   20.4471 N   0  0  0  0  0  0
  -26.3018  -12.9280   20.3367 N   0  0  0  0  0  0
  -25.9314  -11.6451   20.5798 N   0  0  0  0  0  0
  -22.0435  -12.8314   22.0371 N   0  0  0  0  0  0
  -25.4326  -15.1871   20.4107 N   0  0  0  0  0  0
  -31.8645  -14.6113   20.1290 O   0  0  0  0  0  0
  -21.6630   -6.8877   21.4245 O   0  0  0  0  0  0
  -22.3566  -14.5529   20.6613 O   0  0  0  0  0  0
  -24.6051  -31.8711   23.2139 C   0  0  0  0  0  0
  -25.8978  -32.4831   23.8405 C   0  0  1  0  0  0
  -27.2425  -27.4936   20.1011 C   0  0  0  0  0  0
  -25.5861  -33.8630   24.2350 N   0  0  0  0  0  0
  -23.3918  -30.4932   21.5515 C   0  0  2  0  0  0
  -24.8447  -28.9758   20.1006 C   0  0  0  0  0  0
  -22.7360  -29.4656   22.5005 C   0  0  0  0  0  0
  -18.0260  -28.1371   22.8516 C   0  0  0  0  0  0
  -24.1481  -36.7325   23.2640 C   0  0  0  0  0  0
  -25.9113  -30.8629   21.3540 C   0  0  0  0  0  0
  -25.9974  -29.5048   20.6965 C   0  0  0  0  0  0
  -27.1981  -28.7727   20.6942 C   0  0  0  0  0  0
  -26.0904  -26.9747   19.4783 C   0  0  0  0  0  0
  -24.8870  -27.7105   19.4810 C   0  0  0  0  0  0
  -23.5969  -29.8270   20.1633 C   0  0  0  0  0  0
  -25.4101  -36.3123   24.0350 C   0  0  1  0  0  0
  -20.5845  -28.3643   23.1360 C   0  0  2  0  0  0
  -20.6752  -26.9385   22.5445 C   0  0  0  0  0  0
  -19.5738  -26.6380   21.5240 C   0  0  0  0  0  0
  -18.1913  -26.7918   22.1639 C   0  0  0  0  0  0
  -19.1507  -28.8831   23.2929 C   0  0  0  0  0  0
  -18.9427  -30.1440   23.8921 C   0  0  0  0  0  0
  -17.6433  -30.6576   24.0576 C   0  0  0  0  0  0
  -25.9019  -34.9481   23.5147 C   0  0  0  0  0  0
  -16.5330  -29.9082   23.6320 C   0  0  0  0  0  0
  -16.7253  -28.6506   23.0340 C   0  0  0  0  0  0
  -26.4452  -31.6585   25.0697 C   0  0  0  0  0  0
  -25.3741  -31.3687   26.1465 C   0  0  0  0  0  0
  -27.0274  -30.3032   24.6013 C   0  0  0  0  0  0
  -27.6036  -32.4302   25.7449 C   0  0  0  0  0  0
  -27.5585  -37.1813   24.8461 C   0  0  0  0  0  0
  -21.4097  -29.3008   22.3753 N   0  0  0  0  0  0
  -26.4301  -37.3798   23.9410 N   0  0  0  0  0  0
  -24.6540  -31.0871   22.1000 N   0  0  0  0  0  0
  -23.4168  -28.8207   23.3024 O   0  0  0  0  0  0
  -28.3562  -26.7031   20.2260 O   0  0  0  0  0  0
  -26.5574  -34.8925   22.4698 O   0  0  0  0  0  0
  -23.5264  -32.1442   23.7583 O   0  0  0  0  0  0
  -31.2414  -18.2976   18.8838 C   0  0  0  0  0  0
  -30.0365  -17.7124   19.1780 C   0  0  0  0  0  0
  -29.5798  -19.8165   18.8734 C   0  0  0  0  0  0
  -31.7830  -20.7079   18.3723 C   0  0  0  0  0  0
  -29.0233  -21.0904   18.5882 C   0  0  0  0  0  0
  -31.2428  -21.9395   18.0679 C   0  0  0  0  0  0
  -29.8262  -22.1149   18.1304 C   0  0  0  0  0  0
  -34.6763  -17.8145   18.2923 C   0  0  0  0  0  0
  -33.1902  -26.6405   18.8587 C   0  0  0  0  0  0
  -33.4207  -17.8886   17.4152 C   0  0  0  0  0  0
  -33.7882  -18.0231   19.5222 C   0  0  0  0  0  0
  -33.3873  -25.2642   18.1935 C   0  0  0  0  0  0
  -32.7208  -26.5147   20.3216 C   0  0  0  0  0  0
  -31.7978  -24.2952   19.8621 C   0  0  0  0  0  0
  -32.5735  -17.6375   18.6726 C   0  0  0  0  0  0
  -32.1186  -24.4063   18.3582 C   0  0  2  0  0  0
  -29.6790  -16.2537   19.2078 C   0  0  0  0  0  0
  -32.2046  -23.0487   17.6150 C   0  0  0  0  0  0
  -29.4752  -25.1506   21.8043 C   0  0  0  0  0  0
  -30.9575  -25.5794   21.7932 C   0  0  0  0  0  0
  -28.4992  -26.3115   21.5979 C   0  0  0  0  0  0
  -29.0254  -18.6581   19.2466 N   0  0  0  0  0  0
  -30.9769  -19.6567   18.7016 N   0  0  0  0  0  0
  -29.8641  -15.5266   20.4683 N   0  0  0  0  0  0
  -31.5229  -25.6422   20.4247 N   0  3  1  0  0  0
  -27.3139  -21.3251   18.7658 Cl  0  0  0  0  0  0
  -29.0837  -23.6023   17.6417 Cl  0  0  0  0  0  0
  -31.4761  -12.3464   19.1563 H   0  0  0  0  0  0
  -30.3121  -11.2668   19.8705 H   0  0  0  0  0  0
  -29.7436  -11.7153   17.4620 H   0  0  0  0  0  0
  -29.6949  -13.4327   17.7624 H   0  0  0  0  0  0
  -27.8138  -11.2975   18.8191 H   0  0  0  0  0  0
  -27.3881  -12.6275   17.7743 H   0  0  0  0  0  0
  -27.6742  -14.2337   19.5483 H   0  0  0  0  0  0
  -28.6756  -11.9913   21.3833 H   0  0  0  0  0  0
  -28.4952  -13.6595   21.8530 H   0  0  0  0  0  0
  -25.2724   -9.5695   22.4779 H   0  0  0  0  0  0
  -23.9981   -7.4663   22.7511 H   0  0  0  0  0  0
  -21.0821   -8.8791   19.9003 H   0  0  0  0  0  0
  -22.3679  -10.9668   19.6194 H   0  0  0  0  0  0
  -21.1990   -7.6145   23.9723 H   0  0  0  0  0  0
  -21.1485   -6.0504   25.9079 H   0  0  0  0  0  0
  -22.0598   -2.7614   23.2830 H   0  0  0  0  0  0
  -22.3988  -11.9973   22.4801 H   0  0  0  0  0  0
  -21.1075  -13.1450   22.2533 H   0  0  0  0  0  0
  -24.6645  -15.8390   20.5240 H   0  0  0  0  0  0
  -26.2815  -15.6334   20.0840 H   0  0  0  0  0  0
  -26.7046  -32.5599   23.1179 H   0  0  0  0  0  0
  -25.0018  -33.9804   25.0497 H   0  0  0  0  0  0
  -22.6773  -31.3072   21.4150 H   0  0  0  0  0  0
  -23.3742  -35.9656   23.3314 H   0  0  0  0  0  0
  -24.3588  -36.8922   22.2051 H   0  0  0  0  0  0
  -23.7244  -37.6539   23.6643 H   0  0  0  0  0  0
  -26.0089  -31.6380   20.5920 H   0  0  0  0  0  0
  -26.8018  -30.9174   21.9681 H   0  0  0  0  0  0
  -28.0792  -29.1752   21.1753 H   0  0  0  0  0  0
  -26.1164  -25.9930   19.0259 H   0  0  0  0  0  0
  -24.0038  -27.2992   19.0115 H   0  0  0  0  0  0
  -23.6842  -30.6030   19.4016 H   0  0  0  0  0  0
  -22.7254  -29.2348   19.8786 H   0  0  0  0  0  0
  -25.1280  -36.1995   25.0849 H   0  0  0  0  0  0
  -20.9952  -28.3199   24.1471 H   0  0  0  0  0  0
  -20.5683  -26.2236   23.3613 H   0  0  0  0  0  0
  -21.6619  -26.7446   22.1212 H   0  0  0  0  0  0
  -19.6896  -25.6300   21.1237 H   0  0  0  0  0  0
  -19.6678  -27.3220   20.6795 H   0  0  0  0  0  0
  -17.4188  -26.6688   21.4025 H   0  0  0  0  0  0
  -18.0285  -26.0050   22.9021 H   0  0  0  0  0  0
  -19.7908  -30.7262   24.2278 H   0  0  0  0  0  0
  -17.4987  -31.6258   24.5174 H   0  0  0  0  0  0
  -15.5328  -30.2990   23.7641 H   0  0  0  0  0  0
  -15.8653  -28.0850   22.7013 H   0  0  0  0  0  0
  -24.5874  -30.7074   25.7823 H   0  0  0  0  0  0
  -24.8971  -32.2839   26.4971 H   0  0  0  0  0  0
  -25.8100  -30.8811   27.0190 H   0  0  0  0  0  0
  -26.2798  -29.6803   24.1081 H   0  0  0  0  0  0
  -27.4084  -29.7256   25.4450 H   0  0  0  0  0  0
  -27.8614  -30.4379   23.9121 H   0  0  0  0  0  0
  -27.2649  -33.3593   26.2051 H   0  0  0  0  0  0
  -28.3814  -32.6879   25.0248 H   0  0  0  0  0  0
  -28.0721  -31.8404   26.5334 H   0  0  0  0  0  0
  -28.2608  -38.0106   24.7506 H   0  0  0  0  0  0
  -28.1073  -36.2635   24.6283 H   0  0  0  0  0  0
  -27.2297  -37.1466   25.8863 H   0  0  0  0  0  0
  -20.9221  -29.8723   21.6999 H   0  0  0  0  0  0
  -26.0191  -38.2883   24.1395 H   0  0  0  0  0  0
  -32.8447  -20.4997   18.3144 H   0  0  0  0  0  0
  -35.4066  -18.6084   18.1318 H   0  0  0  0  0  0
  -35.1423  -16.8269   18.2713 H   0  0  0  0  0  0
  -32.4605  -27.2207   18.2937 H   0  0  0  0  0  0
  -34.1206  -27.2065   18.8198 H   0  0  0  0  0  0
  -33.3497  -17.0924   16.6739 H   0  0  0  0  0  0
  -33.2809  -18.8620   16.9486 H   0  0  0  0  0  0
  -33.7722  -19.0564   19.8690 H   0  0  0  0  0  0
  -33.9875  -17.3336   20.3433 H   0  0  0  0  0  0
  -34.2421  -24.7571   18.6432 H   0  0  0  0  0  0
  -33.6261  -25.3904   17.1370 H   0  0  0  0  0  0
  -32.4976  -27.5071   20.7163 H   0  0  0  0  0  0
  -33.5246  -26.1100   20.9388 H   0  0  0  0  0  0
  -32.6271  -23.8290   20.3974 H   0  0  0  0  0  0
  -30.9438  -23.6435   20.0249 H   0  0  0  0  0  0
  -32.4455  -16.5586   18.7437 H   0  0  0  0  0  0
  -31.3067  -24.9631   17.8932 H   0  0  0  0  0  0
  -30.2011  -15.7568   18.3869 H   0  0  0  0  0  0
  -28.6288  -16.1498   18.9379 H   0  0  0  0  0  0
  -32.0667  -23.2047   16.5450 H   0  0  0  0  0  0
  -33.2262  -22.6765   17.7187 H   0  0  0  0  0  0
  -29.2745  -24.7314   22.7914 H   0  0  0  0  0  0
  -29.2477  -24.3437   21.1086 H   0  0  0  0  0  0
  -31.5512  -24.8908   22.3957 H   0  0  0  0  0  0
  -31.0477  -26.5486   22.2856 H   0  0  0  0  0  0
  -28.8069  -27.1623   22.2084 H   0  0  0  0  0  0
  -27.5262  -25.9940   21.9839 H   0  0  0  0  0  0
  -29.0040  -15.3821   20.9741 H   0  0  0  0  0  0
  -30.8164  -26.0770   19.8479 H   0  0  0  0  0  0
  1 25  1  0  0  0
  1 30  2  0  0  0
  1 94  1  0  0  0
  2  3  1  0  0  0
  2 25  1  0  0  0
  2 98  1  0  0  0
  2 99  1  0  0  0
  3  4  1  0  0  0
  3100  1  0  0  0
  3101  1  0  0  0
  4  5  1  0  0  0
  4102  1  0  0  0
  4103  1  0  0  0
  5  6  1  0  0  0
  5 26  1  0  0  0
  5104  1  0  0  0
  6 25  1  0  0  0
  6105  1  0  0  0
  6106  1  0  0  0
  7  8  2  0  0  0
  7 26  1  0  0  0
  7 29  1  0  0  0
  8  9  1  0  0  0
  8 22  1  0  0  0
  9 10  1  0  0  0
  9 27  2  0  0  0
 10 11  2  0  0  0
 10 15  1  0  0  0
 11 12  1  0  0  0
 11107  1  0  0  0
 12 13  2  0  0  0
 12108  1  0  0  0
 13 14  1  0  0  0
 13 31  1  0  0  0
 14 15  2  0  0  0
 14109  1  0  0  0
 15110  1  0  0  0
 16 17  2  0  0  0
 16 21  1  0  0  0
 16 31  1  0  0  0
 17 18  1  0  0  0
 17111  1  0  0  0
 18 19  2  0  0  0
 18112  1  0  0  0
 19 20  1  0  0  0
 19 24  1  0  0  0
 20 21  2  0  0  0
 20113  1  0  0  0
 21 23  1  0  0  0
 22 28  1  0  0  0
 22 32  2  0  0  0
 26 27  1  0  0  0
 28114  1  0  0  0
 28115  1  0  0  0
 29116  1  0  0  0
 29117  1  0  0  0
 33 34  1  0  0  0
 33 66  1  0  0  0
 33 70  2  0  0  0
 34 36  1  0  0  0
 34 59  1  0  0  0
 34118  1  0  0  0
 35 44  2  0  0  0
 35 45  1  0  0  0
 35 68  1  0  0  0
 36 56  1  0  0  0
 36119  1  0  0  0
 37 39  1  0  0  0
 37 47  1  0  0  0
 37 66  1  0  0  0
 37120  1  0  0  0
 38 43  2  0  0  0
 38 46  1  0  0  0
 38 47  1  0  0  0
 39 64  1  0  0  0
 39 67  2  0  0  0
 40 52  1  0  0  0
 40 53  2  0  0  0
 40 58  1  0  0  0
 41121  1  0  0  0
 41122  1  0  0  0
 41123  1  0  0  0
 41 48  1  0  0  0
 42 43  1  0  0  0
 42 66  1  0  0  0
 42124  1  0  0  0
 42125  1  0  0  0
 43 44  1  0  0  0
 44126  1  0  0  0
 45 46  2  0  0  0
 45127  1  0  0  0
 46128  1  0  0  0
 47129  1  0  0  0
 47130  1  0  0  0
 48 56  1  0  0  0
 48 65  1  0  0  0
 48131  1  0  0  0
 49 50  1  0  0  0
 49 53  1  0  0  0
 49 64  1  0  0  0
 49132  1  0  0  0
 50 51  1  0  0  0
 50133  1  0  0  0
 50134  1  0  0  0
 51 52  1  0  0  0
 51135  1  0  0  0
 51136  1  0  0  0
 52137  1  0  0  0
 52138  1  0  0  0
 53 54  1  0  0  0
 54 55  2  0  0  0
 54139  1  0  0  0
 55 57  1  0  0  0
 55140  1  0  0  0
 56 69  2  0  0  0
 57 58  2  0  0  0
 57141  1  0  0  0
 58142  1  0  0  0
 59 60  1  0  0  0
 59 61  1  0  0  0
 59 62  1  0  0  0
 60143  1  0  0  0
 60144  1  0  0  0
 60145  1  0  0  0
 61146  1  0  0  0
 61147  1  0  0  0
 61148  1  0  0  0
 62149  1  0  0  0
 62150  1  0  0  0
 62151  1  0  0  0
 63 65  1  0  0  0
 63152  1  0  0  0
 63153  1  0  0  0
 63154  1  0  0  0
 64155  1  0  0  0
 65156  1  0  0  0
 68 91  1  0  0  0
 71 72  2  0  0  0
 71 93  1  0  0  0
 71 85  1  0  0  0
 72 87  1  0  0  0
 72 92  1  0  0  0
 73 75  1  0  0  0
 73 92  2  0  0  0
 73 93  1  0  0  0
 74 76  2  0  0  0
 74 93  1  0  0  0
 74157  1  0  0  0
 75 77  2  0  0  0
 75 96  1  0  0  0
 76 77  1  0  0  0
 76 88  1  0  0  0
 77 97  1  0  0  0
 78 80  1  0  0  0
 78 81  1  0  0  0
 78158  1  0  0  0
 78159  1  0  0  0
 79 82  1  0  0  0
 79 83  1  0  0  0
 79160  1  0  0  0
 79161  1  0  0  0
 80 85  1  0  0  0
 80162  1  0  0  0
 80163  1  0  0  0
 81 85  1  0  0  0
 81164  1  0  0  0
 81165  1  0  0  0
 82 86  1  0  0  0
 82166  1  0  0  0
 82167  1  0  0  0
 83 95  1  0  0  0
 83168  1  0  0  0
 83169  1  0  0  0
 84 86  1  0  0  0
 84 95  1  0  0  0
 84170  1  0  0  0
 84171  1  0  0  0
 85172  1  0  0  0
 86 88  1  0  0  0
 86173  1  0  0  0
 87 94  1  0  0  0
 87174  1  0  0  0
 87175  1  0  0  0
 88176  1  0  0  0
 88177  1  0  0  0
 89 90  1  0  0  0
 89 91  1  0  0  0
 89178  1  0  0  0
 89179  1  0  0  0
 90180  1  0  0  0
 90181  1  0  0  0
 90 95  1  0  0  0
 91182  1  0  0  0
 91183  1  0  0  0
 94184  1  0  0  0
 95185  1  0  0  0
M  CHG  1  95   1
M  ISO  4   1 100  68 101  91 101  94 100
M  END
> <chiral flag>
0

> <version>
0

> <s_m_source_file>
/data/baiqing/PycharmProjects/Reinvent-master-3.2/result/LINK_invent/BTK/process_docking_weight1_custom_sum_contain_oxygen_bond_distance_aromatic_linkinvent_7_9_3/rearranged_h_0026.sdf

> <i_m_source_file_index>
94

> <r_mmod_Potential_Energy-OPLS-2005>
-60.2754745483398

> <r_mmod_Stretch_Energy-OPLS-2005>
36.6983375549316

> <r_mmod_Bend_Energy-OPLS-2005>
119.219207763672

> <r_mmod_Torsional_Energy-OPLS-2005>
361.067077636719

> <r_mmod_Improper_Torsional_Energy-OPLS-2005>
17.9284782409668

> <r_mmod_Van_der_Waal_Energy-OPLS-2005>
150.928726196289

> <r_mmod_Electrostatic_Energy-OPLS-2005>
-329.104522705078

> <r_mmod_Solvation_Energy-OPLS-2005>
-437.091033935547

> <b_mmod_Minimization_Converged-OPLS-2005>
0

> <r_mmod_RMS_Derivative-OPLS-2005>
3.74280452728271

$$$$
94
                    3D
 Structure written by MMmdl.
156164  0  0  1  0            999 V2000
  -30.5600  -14.9841   20.4181 C   0  0  0  0  0  0
  -30.4344  -12.6088   19.4950 C   0  0  0  0  0  0
  -29.5203  -12.5494   18.2492 C   0  0  0  0  0  0
  -28.0516  -12.3375   18.6627 C   0  0  0  0  0  0
  -27.6306  -13.2627   19.8368 C   0  0  2  0  0  0
  -28.6797  -13.3037   20.9690 C   0  0  0  0  0  0
  -25.2494  -13.8273   20.5722 C   0  0  0  0  0  0
  -24.1803  -13.0456   20.9213 C   0  0  0  0  0  0
  -24.6444  -11.6959   20.8730 C   0  0  0  0  0  0
  -23.9142  -10.4307   21.0409 C   0  0  0  0  0  0
  -24.3686   -9.4231   21.9189 C   0  0  0  0  0  0
  -23.6353   -8.2274   22.0773 C   0  0  0  0  0  0
  -22.4342   -8.0300   21.3561 C   0  0  0  0  0  0
  -21.9965   -9.0284   20.4673 C   0  0  0  0  0  0
  -22.7313  -10.2152   20.3076 C   0  0  0  0  0  0
  -21.6893   -6.0757   22.5320 C   0  0  0  0  0  0
  -21.4003   -6.5653   23.8239 C   0  0  0  0  0  0
  -21.3652   -5.6801   24.9203 C   0  0  0  0  0  0
  -21.6059   -4.3073   24.7253 C   0  0  0  0  0  0
  -21.8816   -3.8164   23.4379 C   0  0  0  0  0  0
  -21.9188   -4.6979   22.3431 C   0  0  0  0  0  0
  -22.7832  -13.5211   21.1843 C   0  0  0  0  0  0
  -22.1682   -4.2158   21.1017 F   0  0  0  0  0  0
  -21.5596   -3.4553   25.7760 F   0  0  0  0  0  0
  -29.9461  -13.7287   20.3601 N   0  0  0  0  0  0
  -26.2929  -12.9528   20.3282 N   0  0  0  0  0  0
  -25.9389  -11.6649   20.5743 N   0  0  0  0  0  0
  -22.0498  -12.8171   22.0406 N   0  0  0  0  0  0
  -25.4093  -15.1994   20.4154 N   0  0  0  0  0  0
  -31.7688  -15.0100   20.1582 O   0  0  0  0  0  0
  -21.6681   -6.8920   21.4291 O   0  0  0  0  0  0
  -22.3528  -14.5505   20.6693 O   0  0  0  0  0  0
  -24.6504  -31.8405   23.1749 C   0  0  0  0  0  0
  -25.9230  -32.4708   23.8202 C   0  0  1  0  0  0
  -27.2303  -27.0860   20.1626 C   0  0  0  0  0  0
  -25.5958  -33.8508   24.2177 N   0  0  0  0  0  0
  -23.4582  -30.4540   21.5215 C   0  0  2  0  0  0
  -24.9105  -28.8677   20.1028 C   0  0  0  0  0  0
  -22.7597  -29.4510   22.4787 C   0  0  0  0  0  0
  -18.0286  -28.1441   22.8421 C   0  0  0  0  0  0
  -24.1473  -36.7246   23.2651 C   0  0  0  0  0  0
  -26.0134  -30.7029   21.3726 C   0  0  0  0  0  0
  -26.0845  -29.3031   20.7263 C   0  0  0  0  0  0
  -27.2371  -28.4252   20.7437 C   0  0  0  0  0  0
  -26.0324  -26.7689   19.4804 C   0  0  0  0  0  0
  -24.8998  -27.6171   19.4635 C   0  0  0  0  0  0
  -23.6904  -29.7768   20.1419 C   0  0  0  0  0  0
  -25.4111  -36.3072   24.0330 C   0  0  1  0  0  0
  -20.5892  -28.3766   23.1207 C   0  0  2  0  0  0
  -20.6770  -26.9454   22.5394 C   0  0  0  0  0  0
  -19.5778  -26.6396   21.5178 C   0  0  0  0  0  0
  -18.1940  -26.7964   22.1572 C   0  0  0  0  0  0
  -19.1542  -28.8905   23.2811 C   0  0  0  0  0  0
  -18.9489  -30.1476   23.8895 C   0  0  0  0  0  0
  -17.6493  -30.6630   24.0547 C   0  0  0  0  0  0
  -25.9067  -34.9439   23.5079 C   0  0  0  0  0  0
  -16.5373  -29.9148   23.6322 C   0  0  0  0  0  0
  -16.7266  -28.6549   23.0362 C   0  0  0  0  0  0
  -26.4529  -31.6582   25.0655 C   0  0  0  0  0  0
  -25.3694  -31.3727   26.1332 C   0  0  0  0  0  0
  -27.0376  -30.3025   24.6131 C   0  0  0  0  0  0
  -27.6132  -32.4266   25.7422 C   0  0  0  0  0  0
  -27.5560  -37.1787   24.8480 C   0  0  0  0  0  0
  -21.4266  -29.3099   22.3598 N   0  0  0  0  0  0
  -26.4278  -37.3786   23.9430 N   0  0  0  0  0  0
  -24.7286  -31.0200   22.0802 N   0  0  0  0  0  0
  -23.4225  -28.8039   23.2927 O   0  0  0  0  0  0
  -28.2942  -26.1018   20.2846 O   0  0  0  0  0  0
  -26.5648  -34.8929   22.4654 O   0  0  0  0  0  0
  -23.5599  -32.1307   23.6935 O   0  0  0  0  0  0
  -29.3825  -20.3999   21.1484 C   0  0  0  0  0  0
  -28.9793  -21.5966   20.3414 C   0  0  0  0  0  0
  -29.5757  -19.1839   20.4354 C   0  0  0  0  0  0
  -28.9419  -20.9566   19.1098 C   0  0  0  0  0  0
  -28.6451  -21.4378   17.7252 C   0  0  0  0  0  0
  -27.5623  -23.0926   21.8587 C   0  0  0  0  0  0
  -29.9674  -23.6314   21.5949 C   0  0  0  0  0  0
  -30.3306  -17.7149   20.6767 C   0  0  0  0  0  0
  -28.2933  -24.5682   19.8685 C   0  0  0  0  0  0
  -28.6997  -23.2034   20.8280 C   0  0  0  0  0  0
  -29.8300  -16.2073   20.5720 N   0  0  0  0  0  0
  -29.2960  -19.5914   19.1562 O   0  0  0  0  0  0
  -31.4745  -12.7404   19.1928 H   0  0  0  0  0  0
  -30.4003  -11.6563   20.0275 H   0  0  0  0  0  0
  -29.8310  -11.7560   17.5704 H   0  0  0  0  0  0
  -29.6069  -13.4845   17.6913 H   0  0  0  0  0  0
  -27.9295  -11.2893   18.9469 H   0  0  0  0  0  0
  -27.3940  -12.4971   17.8055 H   0  0  0  0  0  0
  -27.5845  -14.2635   19.4063 H   0  0  0  0  0  0
  -28.7887  -12.3288   21.4471 H   0  0  0  0  0  0
  -28.3819  -14.0037   21.7514 H   0  0  0  0  0  0
  -25.2836   -9.5689   22.4746 H   0  0  0  0  0  0
  -24.0069   -7.4661   22.7481 H   0  0  0  0  0  0
  -21.0875   -8.8823   19.8984 H   0  0  0  0  0  0
  -22.3793  -10.9688   19.6163 H   0  0  0  0  0  0
  -21.2028   -7.6165   23.9754 H   0  0  0  0  0  0
  -21.1457   -6.0531   25.9091 H   0  0  0  0  0  0
  -22.0592   -2.7629   23.2897 H   0  0  0  0  0  0
  -22.4195  -11.9845   22.4743 H   0  0  0  0  0  0
  -21.1120  -13.1194   22.2668 H   0  0  0  0  0  0
  -24.6329  -15.8437   20.5238 H   0  0  0  0  0  0
  -26.2459  -15.6487   20.0644 H   0  0  0  0  0  0
  -26.7290  -32.5318   23.0931 H   0  0  0  0  0  0
  -25.0167  -33.9599   25.0378 H   0  0  0  0  0  0
  -22.7648  -31.2816   21.3571 H   0  0  0  0  0  0
  -23.3777  -35.9538   23.3337 H   0  0  0  0  0  0
  -24.3561  -36.8849   22.2054 H   0  0  0  0  0  0
  -23.7145  -37.6417   23.6652 H   0  0  0  0  0  0
  -26.1525  -31.4443   20.5840 H   0  0  0  0  0  0
  -26.8937  -30.7840   21.9980 H   0  0  0  0  0  0
  -28.1241  -28.7549   21.2671 H   0  0  0  0  0  0
  -25.9306  -25.8189   18.9770 H   0  0  0  0  0  0
  -24.0026  -27.2902   18.9537 H   0  0  0  0  0  0
  -23.8355  -30.5538   19.3883 H   0  0  0  0  0  0
  -22.8076  -29.2195   19.8216 H   0  0  0  0  0  0
  -25.1277  -36.1925   25.0811 H   0  0  0  0  0  0
  -20.9951  -28.3354   24.1347 H   0  0  0  0  0  0
  -20.5635  -26.2348   23.3612 H   0  0  0  0  0  0
  -21.6649  -26.7436   22.1224 H   0  0  0  0  0  0
  -19.6974  -25.6286   21.1280 H   0  0  0  0  0  0
  -19.6800  -27.3145   20.6662 H   0  0  0  0  0  0
  -17.4204  -26.6650   21.3990 H   0  0  0  0  0  0
  -18.0390  -26.0133   22.9003 H   0  0  0  0  0  0
  -19.7974  -30.7232   24.2341 H   0  0  0  0  0  0
  -17.5083  -31.6328   24.5152 H   0  0  0  0  0  0
  -15.5401  -30.3114   23.7639 H   0  0  0  0  0  0
  -15.8622  -28.0878   22.7177 H   0  0  0  0  0  0
  -24.6059  -30.6859   25.7669 H   0  0  0  0  0  0
  -24.8642  -32.2831   26.4529 H   0  0  0  0  0  0
  -25.7985  -30.9136   27.0246 H   0  0  0  0  0  0
  -26.2949  -29.6776   24.1168 H   0  0  0  0  0  0
  -27.4137  -29.7264   25.4584 H   0  0  0  0  0  0
  -27.8768  -30.4367   23.9325 H   0  0  0  0  0  0
  -27.2928  -33.3743   26.1736 H   0  0  0  0  0  0
  -28.4068  -32.6483   25.0286 H   0  0  0  0  0  0
  -28.0615  -31.8486   26.5507 H   0  0  0  0  0  0
  -28.2598  -38.0068   24.7543 H   0  0  0  0  0  0
  -28.1040  -36.2606   24.6316 H   0  0  0  0  0  0
  -27.2282  -37.1424   25.8885 H   0  0  0  0  0  0
  -20.9483  -29.8884   21.6828 H   0  0  0  0  0  0
  -26.0173  -38.2857   24.1490 H   0  0  0  0  0  0
  -29.6025  -20.4473   22.2083 H   0  0  0  0  0  0
  -29.3958  -22.1478   17.3789 H   0  0  0  0  0  0
  -27.6756  -21.9253   17.6781 H   0  0  0  0  0  0
  -28.6269  -20.6144   17.0042 H   0  0  0  0  0  0
  -27.7630  -22.3147   22.5987 H   0  0  0  0  0  0
  -26.6156  -22.8480   21.3738 H   0  0  0  0  0  0
  -27.4232  -24.0236   22.4093 H   0  0  0  0  0  0
  -29.8537  -24.6109   22.0660 H   0  0  0  0  0  0
  -30.8284  -23.6913   20.9303 H   0  0  0  0  0  0
  -30.2202  -22.9308   22.3899 H   0  0  0  0  0  0
  -30.7487  -17.7652   21.6827 H   0  0  0  0  0  0
  -31.2243  -17.7428   20.0514 H   0  0  0  0  0  0
  -27.3665  -24.3318   19.3485 H   0  0  0  0  0  0
  -29.0308  -24.5613   19.0646 H   0  0  0  0  0  0
  -28.8463  -16.0812   20.7511 H   0  0  0  0  0  0
  1 25  1  0  0  0
  1 30  2  0  0  0
  1 81  1  0  0  0
  2  3  1  0  0  0
  2 25  1  0  0  0
  2 83  1  0  0  0
  2 84  1  0  0  0
  3  4  1  0  0  0
  3 85  1  0  0  0
  3 86  1  0  0  0
  4  5  1  0  0  0
  4 87  1  0  0  0
  4 88  1  0  0  0
  5  6  1  0  0  0
  5 26  1  0  0  0
  5 89  1  0  0  0
  6 25  1  0  0  0
  6 90  1  0  0  0
  6 91  1  0  0  0
  7  8  2  0  0  0
  7 26  1  0  0  0
  7 29  1  0  0  0
  8  9  1  0  0  0
  8 22  1  0  0  0
  9 10  1  0  0  0
  9 27  2  0  0  0
 10 11  2  0  0  0
 10 15  1  0  0  0
 11 12  1  0  0  0
 11 92  1  0  0  0
 12 13  2  0  0  0
 12 93  1  0  0  0
 13 14  1  0  0  0
 13 31  1  0  0  0
 14 15  2  0  0  0
 14 94  1  0  0  0
 15 95  1  0  0  0
 16 17  2  0  0  0
 16 21  1  0  0  0
 16 31  1  0  0  0
 17 18  1  0  0  0
 17 96  1  0  0  0
 18 19  2  0  0  0
 18 97  1  0  0  0
 19 20  1  0  0  0
 19 24  1  0  0  0
 20 21  2  0  0  0
 20 98  1  0  0  0
 21 23  1  0  0  0
 22 28  1  0  0  0
 22 32  2  0  0  0
 26 27  1  0  0  0
 28 99  1  0  0  0
 28100  1  0  0  0
 29101  1  0  0  0
 29102  1  0  0  0
 33 34  1  0  0  0
 33 66  1  0  0  0
 33 70  2  0  0  0
 34 36  1  0  0  0
 34 59  1  0  0  0
 34103  1  0  0  0
 35 44  2  0  0  0
 35 45  1  0  0  0
 35 68  1  0  0  0
 36 56  1  0  0  0
 36104  1  0  0  0
 37 39  1  0  0  0
 37 47  1  0  0  0
 37 66  1  0  0  0
 37105  1  0  0  0
 38 43  2  0  0  0
 38 46  1  0  0  0
 38 47  1  0  0  0
 39 64  1  0  0  0
 39 67  2  0  0  0
 40 52  1  0  0  0
 40 53  2  0  0  0
 40 58  1  0  0  0
 41106  1  0  0  0
 41107  1  0  0  0
 41108  1  0  0  0
 41 48  1  0  0  0
 42 43  1  0  0  0
 42 66  1  0  0  0
 42109  1  0  0  0
 42110  1  0  0  0
 43 44  1  0  0  0
 44111  1  0  0  0
 45 46  2  0  0  0
 45112  1  0  0  0
 46113  1  0  0  0
 47114  1  0  0  0
 47115  1  0  0  0
 48 56  1  0  0  0
 48 65  1  0  0  0
 48116  1  0  0  0
 49 50  1  0  0  0
 49 53  1  0  0  0
 49 64  1  0  0  0
 49117  1  0  0  0
 50 51  1  0  0  0
 50118  1  0  0  0
 50119  1  0  0  0
 51 52  1  0  0  0
 51120  1  0  0  0
 51121  1  0  0  0
 52122  1  0  0  0
 52123  1  0  0  0
 53 54  1  0  0  0
 54 55  2  0  0  0
 54124  1  0  0  0
 55 57  1  0  0  0
 55125  1  0  0  0
 56 69  2  0  0  0
 57 58  2  0  0  0
 57126  1  0  0  0
 58127  1  0  0  0
 59 60  1  0  0  0
 59 61  1  0  0  0
 59 62  1  0  0  0
 60128  1  0  0  0
 60129  1  0  0  0
 60130  1  0  0  0
 61131  1  0  0  0
 61132  1  0  0  0
 61133  1  0  0  0
 62134  1  0  0  0
 62135  1  0  0  0
 62136  1  0  0  0
 63 65  1  0  0  0
 63137  1  0  0  0
 63138  1  0  0  0
 63139  1  0  0  0
 64140  1  0  0  0
 65141  1  0  0  0
 68 79  1  0  0  0
 71 72  1  0  0  0
 71 73  2  0  0  0
 71142  1  0  0  0
 72 74  2  0  0  0
 72 80  1  0  0  0
 73 78  1  0  0  0
 73 82  1  0  0  0
 74 75  1  0  0  0
 74 82  1  0  0  0
 75143  1  0  0  0
 75144  1  0  0  0
 75145  1  0  0  0
 76146  1  0  0  0
 76147  1  0  0  0
 76148  1  0  0  0
 76 80  1  0  0  0
 77 80  1  0  0  0
 77149  1  0  0  0
 77150  1  0  0  0
 77151  1  0  0  0
 78 81  1  0  0  0
 78152  1  0  0  0
 78153  1  0  0  0
 79 80  1  0  0  0
 79154  1  0  0  0
 79155  1  0  0  0
 81156  1  0  0  0
M  ISO  4   1 100  68 101  79 101  81 100
M  END
> <chiral flag>
0

> <version>
0

> <s_m_source_file>
/data/baiqing/PycharmProjects/Reinvent-master-3.2/result/LINK_invent/BTK/process_docking_weight1_custom_sum_contain_oxygen_bond_distance_aromatic_linkinvent_7_9_3/rearranged_h_0026.sdf

> <i_m_source_file_index>
95

> <r_mmod_Potential_Energy-OPLS-2005>
539.769653320312

> <r_mmod_Stretch_Energy-OPLS-2005>
313.496612548828

> <r_mmod_Bend_Energy-OPLS-2005>
317.516815185547

> <r_mmod_Torsional_Energy-OPLS-2005>
215.289962768555

> <r_mmod_Improper_Torsional_Energy-OPLS-2005>
6.12161016464233

> <r_mmod_Van_der_Waal_Energy-OPLS-2005>
105.330947875977

> <r_mmod_Electrostatic_Energy-OPLS-2005>
-435.037139892578

> <r_mmod_Solvation_Energy-OPLS-2005>
-206.689682006836

> <b_mmod_Minimization_Converged-OPLS-2005>
0

> <r_mmod_RMS_Derivative-OPLS-2005>
5.85630798339844

$$$$
95
                    3D
 Structure written by MMmdl.
153161  0  0  1  0            999 V2000
  -30.4387  -15.1968   20.4148 C   0  0  0  0  0  0
  -30.4453  -12.7679   19.5154 C   0  0  0  0  0  0
  -29.5324  -12.5852   18.2742 C   0  0  0  0  0  0
  -28.0660  -12.3437   18.6785 C   0  0  0  0  0  0
  -27.6209  -13.2676   19.8403 C   0  0  2  0  0  0
  -28.6653  -13.3137   20.9719 C   0  0  0  0  0  0
  -25.2381  -13.8232   20.5681 C   0  0  0  0  0  0
  -24.1756  -13.0430   20.9234 C   0  0  0  0  0  0
  -24.6414  -11.6927   20.8748 C   0  0  0  0  0  0
  -23.9108  -10.4294   21.0406 C   0  0  0  0  0  0
  -24.3665   -9.4217   21.9191 C   0  0  0  0  0  0
  -23.6324   -8.2258   22.0772 C   0  0  0  0  0  0
  -22.4303   -8.0298   21.3556 C   0  0  0  0  0  0
  -21.9944   -9.0271   20.4647 C   0  0  0  0  0  0
  -22.7282  -10.2144   20.3047 C   0  0  0  0  0  0
  -21.6866   -6.0734   22.5265 C   0  0  0  0  0  0
  -21.4023   -6.5638   23.8198 C   0  0  0  0  0  0
  -21.3666   -5.6793   24.9163 C   0  0  0  0  0  0
  -21.6061   -4.3056   24.7217 C   0  0  0  0  0  0
  -21.8814   -3.8146   23.4333 C   0  0  0  0  0  0
  -21.9215   -4.6963   22.3392 C   0  0  0  0  0  0
  -22.7777  -13.5185   21.1880 C   0  0  0  0  0  0
  -22.1678   -4.2151   21.0967 F   0  0  0  0  0  0
  -21.5641   -3.4539   25.7729 F   0  0  0  0  0  0
  -29.8930  -13.8776   20.3768 N   0  0  0  0  0  0
  -26.2846  -12.9501   20.3250 N   0  0  0  0  0  0
  -25.9347  -11.6607   20.5715 N   0  0  0  0  0  0
  -22.0462  -12.8150   22.0446 N   0  0  0  0  0  0
  -25.3901  -15.1962   20.3985 N   0  0  0  0  0  0
  -31.6259  -15.2269   20.0529 O   0  0  0  0  0  0
  -21.6667   -6.8892   21.4230 O   0  0  0  0  0  0
  -22.3436  -14.5490   20.6723 O   0  0  0  0  0  0
  -24.6564  -31.8257   23.1756 C   0  0  0  0  0  0
  -25.9272  -32.4597   23.8197 C   0  0  1  0  0  0
  -27.2085  -26.9628   20.1739 C   0  0  0  0  0  0
  -25.5949  -33.8415   24.2090 N   0  0  0  0  0  0
  -23.4680  -30.4417   21.5223 C   0  0  2  0  0  0
  -24.9200  -28.8356   20.1081 C   0  0  0  0  0  0
  -22.7610  -29.4466   22.4784 C   0  0  0  0  0  0
  -18.0309  -28.1409   22.8458 C   0  0  0  0  0  0
  -24.1501  -36.7229   23.2644 C   0  0  0  0  0  0
  -26.0344  -30.6400   21.4036 C   0  0  0  0  0  0
  -26.0990  -29.2343   20.7482 C   0  0  0  0  0  0
  -27.2355  -28.3142   20.7662 C   0  0  0  0  0  0
  -26.0087  -26.7141   19.4714 C   0  0  0  0  0  0
  -24.8976  -27.5949   19.4507 C   0  0  0  0  0  0
  -23.7037  -29.7586   20.1474 C   0  0  0  0  0  0
  -25.4144  -36.2988   24.0297 C   0  0  1  0  0  0
  -20.5914  -28.3746   23.1180 C   0  0  2  0  0  0
  -20.6789  -26.9437   22.5390 C   0  0  0  0  0  0
  -19.5779  -26.6380   21.5189 C   0  0  0  0  0  0
  -18.1952  -26.7939   22.1602 C   0  0  0  0  0  0
  -19.1565  -28.8902   23.2811 C   0  0  0  0  0  0
  -18.9487  -30.1480   23.8852 C   0  0  0  0  0  0
  -17.6484  -30.6600   24.0551 C   0  0  0  0  0  0
  -25.9103  -34.9354   23.5026 C   0  0  0  0  0  0
  -16.5374  -29.9088   23.6344 C   0  0  0  0  0  0
  -16.7291  -28.6511   23.0371 C   0  0  0  0  0  0
  -26.4542  -31.6540   25.0709 C   0  0  0  0  0  0
  -25.3680  -31.3768   26.1371 C   0  0  0  0  0  0
  -27.0428  -30.2909   24.6431 C   0  0  0  0  0  0
  -27.6058  -32.4319   25.7501 C   0  0  0  0  0  0
  -27.5585  -37.1771   24.8456 C   0  0  0  0  0  0
  -21.4283  -29.3046   22.3522 N   0  0  0  0  0  0
  -26.4297  -37.3713   23.9397 N   0  0  0  0  0  0
  -24.7404  -30.9953   22.0867 N   0  0  0  0  0  0
  -23.4168  -28.8020   23.2998 O   0  0  0  0  0  0
  -28.2131  -25.8774   20.2898 O   0  0  0  0  0  0
  -26.5718  -34.8874   22.4619 O   0  0  0  0  0  0
  -23.5650  -32.1212   23.6879 O   0  0  0  0  0  0
  -28.3968  -17.8276   22.3989 C   0  0  0  0  0  0
  -28.0114  -19.0285   21.5062 C   0  0  0  0  0  0
  -28.6594  -16.4769   21.6761 C   0  0  0  0  0  0
  -29.7784  -17.9821   19.9871 C   0  0  0  0  0  0
  -29.2057  -19.5044   20.6733 C   0  0  1  0  0  0
  -28.8416  -21.0960   19.9439 C   0  0  0  0  0  0
  -28.7204  -22.7623   20.5790 C   0  0  0  0  0  0
  -28.0643  -24.2907   19.9195 C   0  0  0  0  0  0
  -29.6766  -16.4613   20.6085 N   0  0  0  0  0  0
  -31.4605  -12.9791   19.1794 H   0  0  0  0  0  0
  -30.5267  -11.8337   20.0745 H   0  0  0  0  0  0
  -29.8897  -11.7582   17.6568 H   0  0  0  0  0  0
  -29.5944  -13.4806   17.6537 H   0  0  0  0  0  0
  -27.9706  -11.2996   18.9754 H   0  0  0  0  0  0
  -27.4086  -12.4761   17.8190 H   0  0  0  0  0  0
  -27.5674  -14.2696   19.4148 H   0  0  0  0  0  0
  -28.8325  -12.3132   21.3733 H   0  0  0  0  0  0
  -28.2983  -13.8860   21.8173 H   0  0  0  0  0  0
  -25.2821   -9.5705   22.4760 H   0  0  0  0  0  0
  -24.0058   -7.4643   22.7469 H   0  0  0  0  0  0
  -21.0910   -8.8786   19.8910 H   0  0  0  0  0  0
  -22.3774  -10.9692   19.6145 H   0  0  0  0  0  0
  -21.1990   -7.6143   23.9699 H   0  0  0  0  0  0
  -21.1504   -6.0521   25.9069 H   0  0  0  0  0  0
  -22.0592   -2.7608   23.2830 H   0  0  0  0  0  0
  -22.4160  -11.9858   22.4868 H   0  0  0  0  0  0
  -21.1029  -13.1079   22.2570 H   0  0  0  0  0  0
  -24.6138  -15.8377   20.5215 H   0  0  0  0  0  0
  -26.2159  -15.6465   20.0262 H   0  0  0  0  0  0
  -26.7313  -32.5129   23.0893 H   0  0  0  0  0  0
  -25.0025  -33.9503   25.0193 H   0  0  0  0  0  0
  -22.7810  -31.2733   21.3564 H   0  0  0  0  0  0
  -23.3773  -35.9551   23.3281 H   0  0  0  0  0  0
  -24.3578  -36.8904   22.2066 H   0  0  0  0  0  0
  -23.7249  -37.6403   23.6722 H   0  0  0  0  0  0
  -26.2092  -31.3776   20.6207 H   0  0  0  0  0  0
  -26.8979  -30.6954   22.0550 H   0  0  0  0  0  0
  -28.1209  -28.6080   21.3109 H   0  0  0  0  0  0
  -25.8889  -25.7744   18.9532 H   0  0  0  0  0  0
  -24.0047  -27.2887   18.9238 H   0  0  0  0  0  0
  -23.8472  -30.5269   19.3865 H   0  0  0  0  0  0
  -22.8136  -29.2079   19.8373 H   0  0  0  0  0  0
  -25.1343  -36.1803   25.0790 H   0  0  0  0  0  0
  -21.0010  -28.3376   24.1299 H   0  0  0  0  0  0
  -20.5645  -26.2377   23.3631 H   0  0  0  0  0  0
  -21.6663  -26.7408   22.1218 H   0  0  0  0  0  0
  -19.6948  -25.6274   21.1266 H   0  0  0  0  0  0
  -19.6730  -27.3153   20.6689 H   0  0  0  0  0  0
  -17.4212  -26.6643   21.4022 H   0  0  0  0  0  0
  -18.0391  -26.0094   22.9020 H   0  0  0  0  0  0
  -19.7967  -30.7305   24.2207 H   0  0  0  0  0  0
  -17.5046  -31.6276   24.5161 H   0  0  0  0  0  0
  -15.5377  -30.2988   23.7707 H   0  0  0  0  0  0
  -15.8681  -28.0814   22.7128 H   0  0  0  0  0  0
  -24.5884  -30.7098   25.7673 H   0  0  0  0  0  0
  -24.8839  -32.2957   26.4696 H   0  0  0  0  0  0
  -25.7914  -30.8996   27.0223 H   0  0  0  0  0  0
  -26.3089  -29.6593   24.1416 H   0  0  0  0  0  0
  -27.3937  -29.7262   25.5083 H   0  0  0  0  0  0
  -27.9044  -30.4094   23.9854 H   0  0  0  0  0  0
  -27.2671  -33.3665   26.1995 H   0  0  0  0  0  0
  -28.3932  -32.6805   25.0366 H   0  0  0  0  0  0
  -28.0675  -31.8492   26.5491 H   0  0  0  0  0  0
  -28.2568  -38.0099   24.7525 H   0  0  0  0  0  0
  -28.1116  -36.2622   24.6272 H   0  0  0  0  0  0
  -27.2289  -37.1396   25.8852 H   0  0  0  0  0  0
  -20.9519  -29.8731   21.6657 H   0  0  0  0  0  0
  -26.0153  -38.2772   24.1405 H   0  0  0  0  0  0
  -27.5901  -17.6666   23.1167 H   0  0  0  0  0  0
  -29.2654  -18.0926   23.0040 H   0  0  0  0  0  0
  -27.6587  -19.8490   22.1304 H   0  0  0  0  0  0
  -27.1784  -18.7561   20.8556 H   0  0  0  0  0  0
  -27.7272  -16.1074   21.2580 H   0  0  0  0  0  0
  -28.9577  -15.7814   22.4608 H   0  0  0  0  0  0
  -30.8197  -18.1235   19.6979 H   0  0  0  0  0  0
  -29.2545  -17.8847   19.0363 H   0  0  0  0  0  0
  -29.9866  -19.7566   21.3915 H   0  0  0  0  0  0
  -27.8925  -20.9370   19.4294 H   0  0  0  0  0  0
  -29.5577  -21.1799   19.1256 H   0  0  0  0  0  0
  -29.7415  -23.0089   20.8735 H   0  0  0  0  0  0
  -28.2040  -22.6450   21.5321 H   0  0  0  0  0  0
  -26.9900  -24.1162   19.8934 H   0  0  0  0  0  0
  -28.3526  -24.2736   18.8671 H   0  0  0  0  0  0
  1 25  1  0  0  0
  1 30  2  0  0  0
  1 79  1  0  0  0
  2  3  1  0  0  0
  2 25  1  0  0  0
  2 80  1  0  0  0
  2 81  1  0  0  0
  3  4  1  0  0  0
  3 82  1  0  0  0
  3 83  1  0  0  0
  4  5  1  0  0  0
  4 84  1  0  0  0
  4 85  1  0  0  0
  5  6  1  0  0  0
  5 26  1  0  0  0
  5 86  1  0  0  0
  6 25  1  0  0  0
  6 87  1  0  0  0
  6 88  1  0  0  0
  7  8  2  0  0  0
  7 26  1  0  0  0
  7 29  1  0  0  0
  8  9  1  0  0  0
  8 22  1  0  0  0
  9 10  1  0  0  0
  9 27  2  0  0  0
 10 11  2  0  0  0
 10 15  1  0  0  0
 11 12  1  0  0  0
 11 89  1  0  0  0
 12 13  2  0  0  0
 12 90  1  0  0  0
 13 14  1  0  0  0
 13 31  1  0  0  0
 14 15  2  0  0  0
 14 91  1  0  0  0
 15 92  1  0  0  0
 16 17  2  0  0  0
 16 21  1  0  0  0
 16 31  1  0  0  0
 17 18  1  0  0  0
 17 93  1  0  0  0
 18 19  2  0  0  0
 18 94  1  0  0  0
 19 20  1  0  0  0
 19 24  1  0  0  0
 20 21  2  0  0  0
 20 95  1  0  0  0
 21 23  1  0  0  0
 22 28  1  0  0  0
 22 32  2  0  0  0
 26 27  1  0  0  0
 28 96  1  0  0  0
 28 97  1  0  0  0
 29 98  1  0  0  0
 29 99  1  0  0  0
 33 34  1  0  0  0
 33 66  1  0  0  0
 33 70  2  0  0  0
 34 36  1  0  0  0
 34 59  1  0  0  0
 34100  1  0  0  0
 35 44  2  0  0  0
 35 45  1  0  0  0
 35 68  1  0  0  0
 36 56  1  0  0  0
 36101  1  0  0  0
 37 39  1  0  0  0
 37 47  1  0  0  0
 37 66  1  0  0  0
 37102  1  0  0  0
 38 43  2  0  0  0
 38 46  1  0  0  0
 38 47  1  0  0  0
 39 64  1  0  0  0
 39 67  2  0  0  0
 40 52  1  0  0  0
 40 53  2  0  0  0
 40 58  1  0  0  0
 41103  1  0  0  0
 41104  1  0  0  0
 41105  1  0  0  0
 41 48  1  0  0  0
 42 43  1  0  0  0
 42 66  1  0  0  0
 42106  1  0  0  0
 42107  1  0  0  0
 43 44  1  0  0  0
 44108  1  0  0  0
 45 46  2  0  0  0
 45109  1  0  0  0
 46110  1  0  0  0
 47111  1  0  0  0
 47112  1  0  0  0
 48 56  1  0  0  0
 48 65  1  0  0  0
 48113  1  0  0  0
 49 50  1  0  0  0
 49 53  1  0  0  0
 49 64  1  0  0  0
 49114  1  0  0  0
 50 51  1  0  0  0
 50115  1  0  0  0
 50116  1  0  0  0
 51 52  1  0  0  0
 51117  1  0  0  0
 51118  1  0  0  0
 52119  1  0  0  0
 52120  1  0  0  0
 53 54  1  0  0  0
 54 55  2  0  0  0
 54121  1  0  0  0
 55 57  1  0  0  0
 55122  1  0  0  0
 56 69  2  0  0  0
 57 58  2  0  0  0
 57123  1  0  0  0
 58124  1  0  0  0
 59 60  1  0  0  0
 59 61  1  0  0  0
 59 62  1  0  0  0
 60125  1  0  0  0
 60126  1  0  0  0
 60127  1  0  0  0
 61128  1  0  0  0
 61129  1  0  0  0
 61130  1  0  0  0
 62131  1  0  0  0
 62132  1  0  0  0
 62133  1  0  0  0
 63 65  1  0  0  0
 63134  1  0  0  0
 63135  1  0  0  0
 63136  1  0  0  0
 64137  1  0  0  0
 65138  1  0  0  0
 68 78  1  0  0  0
 71 72  1  0  0  0
 71 73  1  0  0  0
 71139  1  0  0  0
 71140  1  0  0  0
 72 75  1  0  0  0
 72141  1  0  0  0
 72142  1  0  0  0
 73 79  1  0  0  0
 73143  1  0  0  0
 73144  1  0  0  0
 74 75  1  0  0  0
 74 79  1  0  0  0
 74145  1  0  0  0
 74146  1  0  0  0
 75 76  1  0  0  0
 75147  1  0  0  0
 76 77  1  0  0  0
 76148  1  0  0  0
 76149  1  0  0  0
 77 78  1  0  0  0
 77150  1  0  0  0
 77151  1  0  0  0
 78152  1  0  0  0
 78153  1  0  0  0
M  ISO  4   1 100  68 101  78 101  79 100
M  END
> <chiral flag>
0

> <version>
0

> <s_m_source_file>
/data/baiqing/PycharmProjects/Reinvent-master-3.2/result/LINK_invent/BTK/process_docking_weight1_custom_sum_contain_oxygen_bond_distance_aromatic_linkinvent_7_9_3/rearranged_h_0026.sdf

> <i_m_source_file_index>
96

> <r_mmod_Potential_Energy-OPLS-2005>
1345.79150390625

> <r_mmod_Stretch_Energy-OPLS-2005>
566.578674316406

> <r_mmod_Bend_Energy-OPLS-2005>
424.842163085938

> <r_mmod_Torsional_Energy-OPLS-2005>
314.262237548828

> <r_mmod_Improper_Torsional_Energy-OPLS-2005>
5.45749425888062

> <r_mmod_Van_der_Waal_Energy-OPLS-2005>
118.933120727539

> <r_mmod_Electrostatic_Energy-OPLS-2005>
-275.686950683594

> <r_mmod_Solvation_Energy-OPLS-2005>
-196.581771850586

> <b_mmod_Minimization_Converged-OPLS-2005>
0

> <r_mmod_RMS_Derivative-OPLS-2005>
2.82029008865356

$$$$
96
                    3D
 Structure written by MMmdl.
162170  0  0  1  0            999 V2000
  -30.7972  -14.3918   20.6398 C   0  0  0  0  0  0
  -30.4070  -12.2863   19.4180 C   0  0  0  0  0  0
  -29.4858  -12.5056   18.2046 C   0  0  0  0  0  0
  -28.0120  -12.3644   18.6231 C   0  0  0  0  0  0
  -27.6648  -13.2136   19.8746 C   0  0  2  0  0  0
  -28.7066  -13.0053   20.9975 C   0  0  0  0  0  0
  -25.2596  -13.8183   20.5694 C   0  0  0  0  0  0
  -24.1859  -13.0441   20.9202 C   0  0  0  0  0  0
  -24.6428  -11.6917   20.8776 C   0  0  0  0  0  0
  -23.9094  -10.4294   21.0431 C   0  0  0  0  0  0
  -24.3647   -9.4193   21.9200 C   0  0  0  0  0  0
  -23.6310   -8.2238   22.0752 C   0  0  0  0  0  0
  -22.4275   -8.0314   21.3559 C   0  0  0  0  0  0
  -21.9946   -9.0289   20.4644 C   0  0  0  0  0  0
  -22.7288  -10.2155   20.3058 C   0  0  0  0  0  0
  -21.6854   -6.0767   22.5294 C   0  0  0  0  0  0
  -21.4001   -6.5653   23.8233 C   0  0  0  0  0  0
  -21.3649   -5.6792   24.9187 C   0  0  0  0  0  0
  -21.6038   -4.3063   24.7226 C   0  0  0  0  0  0
  -21.8825   -3.8172   23.4338 C   0  0  0  0  0  0
  -21.9183   -4.6990   22.3400 C   0  0  0  0  0  0
  -22.7865  -13.5236   21.1836 C   0  0  0  0  0  0
  -22.1665   -4.2190   21.0973 F   0  0  0  0  0  0
  -21.5624   -3.4537   25.7729 F   0  0  0  0  0  0
  -30.0468  -13.2740   20.4507 N   0  0  0  0  0  0
  -26.3062  -12.9385   20.3415 N   0  0  0  0  0  0
  -25.9361  -11.6525   20.5806 N   0  0  0  0  0  0
  -22.0485  -12.8245   22.0383 N   0  0  0  0  0  0
  -25.4279  -15.1901   20.4066 N   0  0  0  0  0  0
  -31.8383  -14.5896   20.0190 O   0  0  0  0  0  0
  -21.6633   -6.8920   21.4254 O   0  0  0  0  0  0
  -22.3556  -14.5554   20.6686 O   0  0  0  0  0  0
  -24.6103  -31.8659   23.2101 C   0  0  0  0  0  0
  -25.8992  -32.4816   23.8341 C   0  0  1  0  0  0
  -27.2364  -27.4536   20.0864 C   0  0  0  0  0  0
  -25.5862  -33.8606   24.2297 N   0  0  0  0  0  0
  -23.4007  -30.4875   21.5474 C   0  0  2  0  0  0
  -24.8504  -28.9531   20.1126 C   0  0  0  0  0  0
  -22.7429  -29.4598   22.4979 C   0  0  0  0  0  0
  -18.0271  -28.1382   22.8467 C   0  0  0  0  0  0
  -24.1501  -36.7349   23.2640 C   0  0  0  0  0  0
  -25.9271  -30.8362   21.3604 C   0  0  0  0  0  0
  -26.0074  -29.4679   20.7156 C   0  0  0  0  0  0
  -27.2020  -28.7194   20.7104 C   0  0  0  0  0  0
  -26.0722  -26.9455   19.4783 C   0  0  0  0  0  0
  -24.8762  -27.6910   19.4941 C   0  0  0  0  0  0
  -23.6131  -29.8206   20.1612 C   0  0  0  0  0  0
  -25.4125  -36.3130   24.0334 C   0  0  1  0  0  0
  -20.5857  -28.3638   23.1337 C   0  0  2  0  0  0
  -20.6783  -26.9382   22.5424 C   0  0  0  0  0  0
  -19.5756  -26.6407   21.5218 C   0  0  0  0  0  0
  -18.1914  -26.7926   22.1618 C   0  0  0  0  0  0
  -19.1511  -28.8829   23.2892 C   0  0  0  0  0  0
  -18.9453  -30.1451   23.8879 C   0  0  0  0  0  0
  -17.6441  -30.6565   24.0553 C   0  0  0  0  0  0
  -25.9053  -34.9480   23.5145 C   0  0  0  0  0  0
  -16.5334  -29.9057   23.6316 C   0  0  0  0  0  0
  -16.7261  -28.6501   23.0303 C   0  0  0  0  0  0
  -26.4428  -31.6579   25.0653 C   0  0  0  0  0  0
  -25.3701  -31.3650   26.1415 C   0  0  0  0  0  0
  -27.0241  -30.3038   24.5963 C   0  0  0  0  0  0
  -27.6037  -32.4262   25.7413 C   0  0  0  0  0  0
  -27.5595  -37.1822   24.8458 C   0  0  0  0  0  0
  -21.4161  -29.3007   22.3758 N   0  0  0  0  0  0
  -26.4320  -37.3812   23.9386 N   0  0  0  0  0  0
  -24.6629  -31.0774   22.0986 N   0  0  0  0  0  0
  -23.4196  -28.8152   23.3013 O   0  0  0  0  0  0
  -28.3995  -26.7293   20.0361 O   0  0  0  0  0  0
  -26.5622  -34.8923   22.4718 O   0  0  0  0  0  0
  -23.5295  -32.1376   23.7541 O   0  0  0  0  0  0
  -31.1603  -20.4431   20.6394 C   0  0  0  0  0  0
  -30.2226  -20.0342   21.6330 C   0  0  0  0  0  0
  -31.1346  -17.7295   21.5387 C   0  0  0  0  0  0
  -32.0493  -19.4908   20.0814 C   0  0  0  0  0  0
  -30.1817  -18.6650   22.0322 C   0  0  0  0  0  0
  -32.0831  -18.1683   20.5739 C   0  0  0  0  0  0
  -31.2535  -21.9051   20.1978 C   0  0  0  0  0  0
  -31.2287  -16.3204   22.1562 C   0  0  0  0  0  0
  -29.3656  -21.0852   22.3705 C   0  0  0  0  0  0
  -28.3188  -24.3594   20.6958 C   0  0  0  0  0  0
  -28.5141  -23.3837   21.8806 C   0  0  0  0  0  0
  -28.5773  -25.8191   21.1203 C   0  0  0  0  0  0
  -30.3847  -15.2577   21.5778 N   0  0  0  0  0  0
  -28.5467  -21.9497   21.4834 N   0  3  0  0  0  0
  -33.1623  -19.9425   18.8290 Cl  0  0  0  0  0  0
  -29.0111  -18.1365   23.1997 Cl  0  0  0  0  0  0
  -33.3737  -17.1426   20.0322 Cl  0  0  0  0  0  0
  -31.4529  -12.3491   19.1111 H   0  0  0  0  0  0
  -30.2855  -11.2773   19.8136 H   0  0  0  0  0  0
  -29.7188  -11.7857   17.4176 H   0  0  0  0  0  0
  -29.6602  -13.4956   17.7818 H   0  0  0  0  0  0
  -27.8272  -11.3090   18.8309 H   0  0  0  0  0  0
  -27.3556  -12.6292   17.7930 H   0  0  0  0  0  0
  -27.7085  -14.2595   19.5706 H   0  0  0  0  0  0
  -28.6687  -11.9779   21.3603 H   0  0  0  0  0  0
  -28.4701  -13.6301   21.8577 H   0  0  0  0  0  0
  -25.2795   -9.5654   22.4796 H   0  0  0  0  0  0
  -24.0017   -7.4612   22.7457 H   0  0  0  0  0  0
  -21.0897   -8.8835   19.8943 H   0  0  0  0  0  0
  -22.3790  -10.9710   19.6181 H   0  0  0  0  0  0
  -21.1993   -7.6162   23.9760 H   0  0  0  0  0  0
  -21.1459   -6.0511   25.9095 H   0  0  0  0  0  0
  -22.0606   -2.7638   23.2821 H   0  0  0  0  0  0
  -22.4082  -11.9898   22.4788 H   0  0  0  0  0  0
  -21.1097  -13.1289   22.2541 H   0  0  0  0  0  0
  -24.6596  -15.8449   20.5065 H   0  0  0  0  0  0
  -26.2865  -15.6302   20.0991 H   0  0  0  0  0  0
  -26.7058  -32.5534   23.1101 H   0  0  0  0  0  0
  -24.9946  -33.9760   25.0391 H   0  0  0  0  0  0
  -22.6867  -31.3005   21.4089 H   0  0  0  0  0  0
  -23.3746  -35.9694   23.3303 H   0  0  0  0  0  0
  -24.3579  -36.8980   22.2051 H   0  0  0  0  0  0
  -23.7289  -37.6574   23.6652 H   0  0  0  0  0  0
  -26.0273  -31.5932   20.5801 H   0  0  0  0  0  0
  -26.8198  -30.8974   21.9707 H   0  0  0  0  0  0
  -28.0970  -29.1078   21.1741 H   0  0  0  0  0  0
  -26.0955  -25.9859   18.9795 H   0  0  0  0  0  0
  -23.9907  -27.2973   19.0157 H   0  0  0  0  0  0
  -23.7208  -30.5943   19.3988 H   0  0  0  0  0  0
  -22.7364  -29.2408   19.8672 H   0  0  0  0  0  0
  -25.1290  -36.2001   25.0821 H   0  0  0  0  0  0
  -20.9910  -28.3193   24.1474 H   0  0  0  0  0  0
  -20.5760  -26.2195   23.3586 H   0  0  0  0  0  0
  -21.6632  -26.7472   22.1160 H   0  0  0  0  0  0
  -19.6920  -25.6340   21.1188 H   0  0  0  0  0  0
  -19.6721  -27.3265   20.6797 H   0  0  0  0  0  0
  -17.4212  -26.6667   21.4004 H   0  0  0  0  0  0
  -18.0282  -26.0089   22.9031 H   0  0  0  0  0  0
  -19.7942  -30.7275   24.2223 H   0  0  0  0  0  0
  -17.5003  -31.6231   24.5184 H   0  0  0  0  0  0
  -15.5332  -30.2931   23.7716 H   0  0  0  0  0  0
  -15.8668  -28.0860   22.6954 H   0  0  0  0  0  0
  -24.5905  -30.6974   25.7746 H   0  0  0  0  0  0
  -24.8838  -32.2790   26.4837 H   0  0  0  0  0  0
  -25.8039  -30.8842   27.0192 H   0  0  0  0  0  0
  -26.2756  -29.6805   24.1075 H   0  0  0  0  0  0
  -27.4135  -29.7227   25.4319 H   0  0  0  0  0  0
  -27.8506  -30.4378   23.8980 H   0  0  0  0  0  0
  -27.2720  -33.3599   26.1943 H   0  0  0  0  0  0
  -28.3861  -32.6743   25.0237 H   0  0  0  0  0  0
  -28.0659  -31.8384   26.5365 H   0  0  0  0  0  0
  -28.2610  -38.0123   24.7517 H   0  0  0  0  0  0
  -28.1092  -36.2648   24.6262 H   0  0  0  0  0  0
  -27.2276  -37.1455   25.8854 H   0  0  0  0  0  0
  -20.9325  -29.8746   21.7003 H   0  0  0  0  0  0
  -26.0208  -38.2893   24.1367 H   0  0  0  0  0  0
  -31.2396  -22.5753   21.0550 H   0  0  0  0  0  0
  -30.4350  -22.1594   19.5252 H   0  0  0  0  0  0
  -32.1790  -22.1433   19.6770 H   0  0  0  0  0  0
  -30.9905  -16.3786   23.2185 H   0  0  0  0  0  0
  -32.2719  -16.0054   22.1699 H   0  0  0  0  0  0
  -30.0775  -21.6767   22.9483 H   0  0  0  0  0  0
  -28.7041  -20.6659   23.1241 H   0  0  0  0  0  0
  -27.3136  -24.2570   20.2837 H   0  0  0  0  0  0
  -29.0122  -24.1152   19.8876 H   0  0  0  0  0  0
  -27.7331  -23.5341   22.6288 H   0  0  0  0  0  0
  -29.4496  -23.6542   22.3720 H   0  0  0  0  0  0
  -29.6117  -25.9198   21.4531 H   0  0  0  0  0  0
  -27.9496  -26.0819   21.9756 H   0  0  0  0  0  0
  -29.5170  -15.0463   22.0469 H   0  0  0  0  0  0
  -27.6108  -21.5777   21.4444 H   0  0  0  0  0  0
  -28.9464  -21.8788   20.5614 H   0  0  0  0  0  0
  1 25  1  0  0  0
  1 30  2  0  0  0
  1 83  1  0  0  0
  2  3  1  0  0  0
  2 25  1  0  0  0
  2 88  1  0  0  0
  2 89  1  0  0  0
  3  4  1  0  0  0
  3 90  1  0  0  0
  3 91  1  0  0  0
  4  5  1  0  0  0
  4 92  1  0  0  0
  4 93  1  0  0  0
  5  6  1  0  0  0
  5 26  1  0  0  0
  5 94  1  0  0  0
  6 25  1  0  0  0
  6 95  1  0  0  0
  6 96  1  0  0  0
  7  8  2  0  0  0
  7 26  1  0  0  0
  7 29  1  0  0  0
  8  9  1  0  0  0
  8 22  1  0  0  0
  9 10  1  0  0  0
  9 27  2  0  0  0
 10 11  2  0  0  0
 10 15  1  0  0  0
 11 12  1  0  0  0
 11 97  1  0  0  0
 12 13  2  0  0  0
 12 98  1  0  0  0
 13 14  1  0  0  0
 13 31  1  0  0  0
 14 15  2  0  0  0
 14 99  1  0  0  0
 15100  1  0  0  0
 16 17  2  0  0  0
 16 21  1  0  0  0
 16 31  1  0  0  0
 17 18  1  0  0  0
 17101  1  0  0  0
 18 19  2  0  0  0
 18102  1  0  0  0
 19 20  1  0  0  0
 19 24  1  0  0  0
 20 21  2  0  0  0
 20103  1  0  0  0
 21 23  1  0  0  0
 22 28  1  0  0  0
 22 32  2  0  0  0
 26 27  1  0  0  0
 28104  1  0  0  0
 28105  1  0  0  0
 29106  1  0  0  0
 29107  1  0  0  0
 33 34  1  0  0  0
 33 66  1  0  0  0
 33 70  2  0  0  0
 34 36  1  0  0  0
 34 59  1  0  0  0
 34108  1  0  0  0
 35 44  2  0  0  0
 35 45  1  0  0  0
 35 68  1  0  0  0
 36 56  1  0  0  0
 36109  1  0  0  0
 37 39  1  0  0  0
 37 47  1  0  0  0
 37 66  1  0  0  0
 37110  1  0  0  0
 38 43  2  0  0  0
 38 46  1  0  0  0
 38 47  1  0  0  0
 39 64  1  0  0  0
 39 67  2  0  0  0
 40 52  1  0  0  0
 40 53  2  0  0  0
 40 58  1  0  0  0
 41111  1  0  0  0
 41112  1  0  0  0
 41113  1  0  0  0
 41 48  1  0  0  0
 42 43  1  0  0  0
 42 66  1  0  0  0
 42114  1  0  0  0
 42115  1  0  0  0
 43 44  1  0  0  0
 44116  1  0  0  0
 45 46  2  0  0  0
 45117  1  0  0  0
 46118  1  0  0  0
 47119  1  0  0  0
 47120  1  0  0  0
 48 56  1  0  0  0
 48 65  1  0  0  0
 48121  1  0  0  0
 49 50  1  0  0  0
 49 53  1  0  0  0
 49 64  1  0  0  0
 49122  1  0  0  0
 50 51  1  0  0  0
 50123  1  0  0  0
 50124  1  0  0  0
 51 52  1  0  0  0
 51125  1  0  0  0
 51126  1  0  0  0
 52127  1  0  0  0
 52128  1  0  0  0
 53 54  1  0  0  0
 54 55  2  0  0  0
 54129  1  0  0  0
 55 57  1  0  0  0
 55130  1  0  0  0
 56 69  2  0  0  0
 57 58  2  0  0  0
 57131  1  0  0  0
 58132  1  0  0  0
 59 60  1  0  0  0
 59 61  1  0  0  0
 59 62  1  0  0  0
 60133  1  0  0  0
 60134  1  0  0  0
 60135  1  0  0  0
 61136  1  0  0  0
 61137  1  0  0  0
 61138  1  0  0  0
 62139  1  0  0  0
 62140  1  0  0  0
 62141  1  0  0  0
 63 65  1  0  0  0
 63142  1  0  0  0
 63143  1  0  0  0
 63144  1  0  0  0
 64145  1  0  0  0
 65146  1  0  0  0
 68 82  1  0  0  0
 71 72  2  0  0  0
 71 74  1  0  0  0
 71 77  1  0  0  0
 72 75  1  0  0  0
 72 79  1  0  0  0
 73 75  2  0  0  0
 73 76  1  0  0  0
 73 78  1  0  0  0
 74 76  2  0  0  0
 74 85  1  0  0  0
 75 86  1  0  0  0
 76 87  1  0  0  0
 77147  1  0  0  0
 77148  1  0  0  0
 77149  1  0  0  0
 78 83  1  0  0  0
 78150  1  0  0  0
 78151  1  0  0  0
 79 84  1  0  0  0
 79152  1  0  0  0
 79153  1  0  0  0
 80 81  1  0  0  0
 80 82  1  0  0  0
 80154  1  0  0  0
 80155  1  0  0  0
 81 84  1  0  0  0
 81156  1  0  0  0
 81157  1  0  0  0
 82158  1  0  0  0
 82159  1  0  0  0
 83160  1  0  0  0
 84161  1  0  0  0
 84162  1  0  0  0
M  CHG  1  84   1
M  ISO  4   1 100  68 101  82 101  83 100
M  END
> <chiral flag>
0

> <version>
0

> <s_m_source_file>
/data/baiqing/PycharmProjects/Reinvent-master-3.2/result/LINK_invent/BTK/process_docking_weight1_custom_sum_contain_oxygen_bond_distance_aromatic_linkinvent_7_9_3/rearranged_h_0026.sdf

> <i_m_source_file_index>
97

> <r_mmod_Potential_Energy-OPLS-2005>
-221.021438598633

> <r_mmod_Stretch_Energy-OPLS-2005>
41.0583534240723

> <r_mmod_Bend_Energy-OPLS-2005>
96.0462036132812

> <r_mmod_Torsional_Energy-OPLS-2005>
233.528762817383

> <r_mmod_Improper_Torsional_Energy-OPLS-2005>
3.51947808265686

> <r_mmod_Van_der_Waal_Energy-OPLS-2005>
168.270965576172

> <r_mmod_Electrostatic_Energy-OPLS-2005>
-275.381286621094

> <r_mmod_Solvation_Energy-OPLS-2005>
-497.048126220703

> <b_mmod_Minimization_Converged-OPLS-2005>
0

> <r_mmod_RMS_Derivative-OPLS-2005>
4.56894254684448

$$$$
97
                    3D
 Structure written by MMmdl.
156164  0  0  1  0            999 V2000
  -30.6935  -14.4835   20.4952 C   0  0  0  0  0  0
  -30.4157  -12.2991   19.4194 C   0  0  0  0  0  0
  -29.4894  -12.4952   18.2014 C   0  0  0  0  0  0
  -28.0064  -12.3735   18.6088 C   0  0  0  0  0  0
  -27.6524  -13.2158   19.8656 C   0  0  2  0  0  0
  -28.7012  -13.0163   20.9848 C   0  0  0  0  0  0
  -25.2542  -13.8203   20.5712 C   0  0  0  0  0  0
  -24.1804  -13.0489   20.9218 C   0  0  0  0  0  0
  -24.6362  -11.6944   20.8741 C   0  0  0  0  0  0
  -23.9024  -10.4331   21.0395 C   0  0  0  0  0  0
  -24.3583   -9.4249   21.9174 C   0  0  0  0  0  0
  -23.6289   -8.2265   22.0727 C   0  0  0  0  0  0
  -22.4277   -8.0281   21.3516 C   0  0  0  0  0  0
  -21.9899   -9.0253   20.4622 C   0  0  0  0  0  0
  -22.7200  -10.2154   20.3041 C   0  0  0  0  0  0
  -21.6864   -6.0733   22.5277 C   0  0  0  0  0  0
  -21.4038   -6.5638   23.8215 C   0  0  0  0  0  0
  -21.3659   -5.6791   24.9178 C   0  0  0  0  0  0
  -21.6034   -4.3048   24.7236 C   0  0  0  0  0  0
  -21.8816   -3.8139   23.4360 C   0  0  0  0  0  0
  -21.9195   -4.6955   22.3414 C   0  0  0  0  0  0
  -22.7816  -13.5255   21.1891 C   0  0  0  0  0  0
  -22.1657   -4.2135   21.0992 F   0  0  0  0  0  0
  -21.5602   -3.4532   25.7750 F   0  0  0  0  0  0
  -30.0222  -13.3054   20.4141 N   0  0  0  0  0  0
  -26.2962  -12.9386   20.3347 N   0  0  0  0  0  0
  -25.9290  -11.6538   20.5792 N   0  0  0  0  0  0
  -22.0460  -12.8231   22.0436 N   0  0  0  0  0  0
  -25.4302  -15.1923   20.4107 N   0  0  0  0  0  0
  -31.8755  -14.6052   20.1765 O   0  0  0  0  0  0
  -21.6650   -6.8868   21.4230 O   0  0  0  0  0  0
  -22.3485  -14.5551   20.6733 O   0  0  0  0  0  0
  -24.6175  -31.8652   23.2091 C   0  0  0  0  0  0
  -25.9056  -32.4804   23.8384 C   0  0  1  0  0  0
  -27.2536  -27.4345   20.0781 C   0  0  0  0  0  0
  -25.5922  -33.8605   24.2346 N   0  0  0  0  0  0
  -23.4069  -30.4946   21.5428 C   0  0  2  0  0  0
  -24.8527  -28.9464   20.1152 C   0  0  0  0  0  0
  -22.7366  -29.4760   22.4935 C   0  0  0  0  0  0
  -18.0249  -28.1439   22.8365 C   0  0  0  0  0  0
  -24.1483  -36.7316   23.2645 C   0  0  0  0  0  0
  -25.9347  -30.8243   21.3650 C   0  0  0  0  0  0
  -26.0074  -29.4554   20.7165 C   0  0  0  0  0  0
  -27.2023  -28.7030   20.7022 C   0  0  0  0  0  0
  -26.0729  -26.9292   19.4828 C   0  0  0  0  0  0
  -24.8811  -27.6808   19.4985 C   0  0  0  0  0  0
  -23.6164  -29.8164   20.1607 C   0  0  0  0  0  0
  -25.4098  -36.3109   24.0361 C   0  0  1  0  0  0
  -20.5817  -28.3725   23.1105 C   0  0  2  0  0  0
  -20.6814  -26.9562   22.4949 C   0  0  0  0  0  0
  -19.5628  -26.6327   21.4999 C   0  0  0  0  0  0
  -18.1869  -26.7992   22.1474 C   0  0  0  0  0  0
  -19.1503  -28.8882   23.2775 C   0  0  0  0  0  0
  -18.9450  -30.1503   23.8800 C   0  0  0  0  0  0
  -17.6459  -30.6634   24.0557 C   0  0  0  0  0  0
  -25.9030  -34.9467   23.5138 C   0  0  0  0  0  0
  -16.5358  -29.9121   23.6345 C   0  0  0  0  0  0
  -16.7256  -28.6601   23.0251 C   0  0  0  0  0  0
  -26.4488  -31.6572   25.0704 C   0  0  0  0  0  0
  -25.3805  -31.3636   26.1495 C   0  0  0  0  0  0
  -27.0322  -30.3030   24.6066 C   0  0  0  0  0  0
  -27.6070  -32.4264   25.7480 C   0  0  0  0  0  0
  -27.5571  -37.1818   24.8473 C   0  0  0  0  0  0
  -21.4079  -29.3253   22.3711 N   0  0  0  0  0  0
  -26.4281  -37.3799   23.9421 N   0  0  0  0  0  0
  -24.6704  -31.0779   22.0966 N   0  0  0  0  0  0
  -23.4115  -28.8206   23.2913 O   0  0  0  0  0  0
  -28.4716  -26.7780   20.0645 O   0  0  0  0  0  0
  -26.5565  -34.8935   22.4690 O   0  0  0  0  0  0
  -23.5361  -32.1403   23.7496 O   0  0  0  0  0  0
  -28.4875  -18.1622   19.8555 C   0  0  0  0  0  0
  -29.0109  -17.7903   21.1145 C   0  0  0  0  0  0
  -28.3348  -20.5257   20.5453 C   0  0  0  0  0  0
  -29.2134  -18.8040   22.0757 C   0  0  0  0  0  0
  -28.1497  -19.5065   19.5703 C   0  0  0  0  0  0
  -28.8826  -20.1505   21.7983 C   0  0  0  0  0  0
  -29.3044  -16.3206   21.4591 C   0  0  0  0  0  0
  -27.8362  -21.9706   20.3238 C   0  0  0  0  0  0
  -28.3790  -24.4068   20.6934 C   0  0  0  0  0  0
  -28.6176  -25.4375   19.5662 C   0  0  0  0  0  0
  -29.9261  -15.5758   20.3642 N   0  0  0  0  0  0
  -28.8779  -23.0312   20.3888 N   0  3  0  0  0  0
  -29.7098  -18.4803   23.2941 F   0  0  0  0  0  0
  -27.4585  -19.8530   18.0232 Cl  0  0  0  0  0  0
  -29.1201  -21.3334   23.0394 Cl  0  0  0  0  0  0
  -31.4608  -12.3924   19.1162 H   0  0  0  0  0  0
  -30.3130  -11.2943   19.8318 H   0  0  0  0  0  0
  -29.7277  -11.7651   17.4270 H   0  0  0  0  0  0
  -29.6672  -13.4776   17.7597 H   0  0  0  0  0  0
  -27.7952  -11.3203   18.7954 H   0  0  0  0  0  0
  -27.3653  -12.6686   17.7765 H   0  0  0  0  0  0
  -27.6803  -14.2597   19.5518 H   0  0  0  0  0  0
  -28.6737  -11.9919   21.3582 H   0  0  0  0  0  0
  -28.4912  -13.6500   21.8444 H   0  0  0  0  0  0
  -25.2711   -9.5758   22.4762 H   0  0  0  0  0  0
  -24.0012   -7.4660   22.7439 H   0  0  0  0  0  0
  -21.0832   -8.8755   19.8925 H   0  0  0  0  0  0
  -22.3623  -10.9689   19.6156 H   0  0  0  0  0  0
  -21.2054   -7.6150   23.9722 H   0  0  0  0  0  0
  -21.1480   -6.0525   25.9084 H   0  0  0  0  0  0
  -22.0600   -2.7600   23.2880 H   0  0  0  0  0  0
  -22.4094  -11.9884   22.4814 H   0  0  0  0  0  0
  -21.1066  -13.1215   22.2641 H   0  0  0  0  0  0
  -24.6675  -15.8539   20.5046 H   0  0  0  0  0  0
  -26.2808  -15.6141   20.0640 H   0  0  0  0  0  0
  -26.7110  -32.5497   23.1117 H   0  0  0  0  0  0
  -25.0109  -33.9765   25.0512 H   0  0  0  0  0  0
  -22.7067  -31.3188   21.3932 H   0  0  0  0  0  0
  -23.3744  -35.9649   23.3307 H   0  0  0  0  0  0
  -24.3578  -36.8921   22.2059 H   0  0  0  0  0  0
  -23.7244  -37.6534   23.6634 H   0  0  0  0  0  0
  -26.0550  -31.5856   20.5916 H   0  0  0  0  0  0
  -26.8183  -30.8736   21.9876 H   0  0  0  0  0  0
  -28.0924  -29.0955   21.1736 H   0  0  0  0  0  0
  -26.0516  -25.9736   18.9820 H   0  0  0  0  0  0
  -23.9940  -27.2856   19.0240 H   0  0  0  0  0  0
  -23.7232  -30.5817   19.3916 H   0  0  0  0  0  0
  -22.7408  -29.2355   19.8691 H   0  0  0  0  0  0
  -25.1270  -36.1962   25.0857 H   0  0  0  0  0  0
  -20.9876  -28.3107   24.1214 H   0  0  0  0  0  0
  -20.6228  -26.2291   23.3053 H   0  0  0  0  0  0
  -21.6545  -26.7928   22.0284 H   0  0  0  0  0  0
  -19.6766  -25.6142   21.1242 H   0  0  0  0  0  0
  -19.6391  -27.2844   20.6284 H   0  0  0  0  0  0
  -17.4132  -26.6750   21.3878 H   0  0  0  0  0  0
  -18.0312  -26.0099   22.8824 H   0  0  0  0  0  0
  -19.7918  -30.7349   24.2131 H   0  0  0  0  0  0
  -17.5031  -31.6332   24.5144 H   0  0  0  0  0  0
  -15.5367  -30.3006   23.7814 H   0  0  0  0  0  0
  -15.8640  -28.1012   22.6876 H   0  0  0  0  0  0
  -24.6008  -30.6927   25.7893 H   0  0  0  0  0  0
  -24.8961  -32.2739   26.5023 H   0  0  0  0  0  0
  -25.8255  -30.8808   27.0208 H   0  0  0  0  0  0
  -26.2862  -29.6791   24.1143 H   0  0  0  0  0  0
  -27.4129  -29.7282   25.4519 H   0  0  0  0  0  0
  -27.8676  -30.4385   23.9203 H   0  0  0  0  0  0
  -27.2732  -33.3570   26.2099 H   0  0  0  0  0  0
  -28.3897  -32.6811   25.0316 H   0  0  0  0  0  0
  -28.0709  -31.8326   26.5375 H   0  0  0  0  0  0
  -28.2601  -38.0106   24.7507 H   0  0  0  0  0  0
  -28.1058  -36.2639   24.6296 H   0  0  0  0  0  0
  -27.2291  -37.1474   25.8880 H   0  0  0  0  0  0
  -20.9204  -29.9157   21.7102 H   0  0  0  0  0  0
  -26.0169  -38.2879   24.1417 H   0  0  0  0  0  0
  -28.3087  -17.4074   19.1040 H   0  0  0  0  0  0
  -29.9368  -16.2526   22.3468 H   0  0  0  0  0  0
  -28.3541  -15.8547   21.7166 H   0  0  0  0  0  0
  -27.0984  -22.1540   21.1053 H   0  0  0  0  0  0
  -27.2951  -22.0848   19.3871 H   0  0  0  0  0  0
  -27.3270  -24.4047   20.9835 H   0  0  0  0  0  0
  -28.9277  -24.7459   21.5728 H   0  0  0  0  0  0
  -28.0261  -25.2309   18.6750 H   0  0  0  0  0  0
  -29.6537  -25.3591   19.2355 H   0  0  0  0  0  0
  -30.3767  -16.2141   19.7259 H   0  0  0  0  0  0
  -29.4270  -23.0287   19.5413 H   0  0  0  0  0  0
  -29.4939  -22.7820   21.1501 H   0  0  0  0  0  0
  1 25  1  0  0  0
  1 30  2  0  0  0
  1 81  1  0  0  0
  2  3  1  0  0  0
  2 25  1  0  0  0
  2 86  1  0  0  0
  2 87  1  0  0  0
  3  4  1  0  0  0
  3 88  1  0  0  0
  3 89  1  0  0  0
  4  5  1  0  0  0
  4 90  1  0  0  0
  4 91  1  0  0  0
  5  6  1  0  0  0
  5 26  1  0  0  0
  5 92  1  0  0  0
  6 25  1  0  0  0
  6 93  1  0  0  0
  6 94  1  0  0  0
  7  8  2  0  0  0
  7 26  1  0  0  0
  7 29  1  0  0  0
  8  9  1  0  0  0
  8 22  1  0  0  0
  9 10  1  0  0  0
  9 27  2  0  0  0
 10 11  2  0  0  0
 10 15  1  0  0  0
 11 12  1  0  0  0
 11 95  1  0  0  0
 12 13  2  0  0  0
 12 96  1  0  0  0
 13 14  1  0  0  0
 13 31  1  0  0  0
 14 15  2  0  0  0
 14 97  1  0  0  0
 15 98  1  0  0  0
 16 17  2  0  0  0
 16 21  1  0  0  0
 16 31  1  0  0  0
 17 18  1  0  0  0
 17 99  1  0  0  0
 18 19  2  0  0  0
 18100  1  0  0  0
 19 20  1  0  0  0
 19 24  1  0  0  0
 20 21  2  0  0  0
 20101  1  0  0  0
 21 23  1  0  0  0
 22 28  1  0  0  0
 22 32  2  0  0  0
 26 27  1  0  0  0
 28102  1  0  0  0
 28103  1  0  0  0
 29104  1  0  0  0
 29105  1  0  0  0
 33 34  1  0  0  0
 33 66  1  0  0  0
 33 70  2  0  0  0
 34 36  1  0  0  0
 34 59  1  0  0  0
 34106  1  0  0  0
 35 44  2  0  0  0
 35 45  1  0  0  0
 35 68  1  0  0  0
 36 56  1  0  0  0
 36107  1  0  0  0
 37 39  1  0  0  0
 37 47  1  0  0  0
 37 66  1  0  0  0
 37108  1  0  0  0
 38 43  2  0  0  0
 38 46  1  0  0  0
 38 47  1  0  0  0
 39 64  1  0  0  0
 39 67  2  0  0  0
 40 52  1  0  0  0
 40 53  2  0  0  0
 40 58  1  0  0  0
 41109  1  0  0  0
 41110  1  0  0  0
 41111  1  0  0  0
 41 48  1  0  0  0
 42 43  1  0  0  0
 42 66  1  0  0  0
 42112  1  0  0  0
 42113  1  0  0  0
 43 44  1  0  0  0
 44114  1  0  0  0
 45 46  2  0  0  0
 45115  1  0  0  0
 46116  1  0  0  0
 47117  1  0  0  0
 47118  1  0  0  0
 48 56  1  0  0  0
 48 65  1  0  0  0
 48119  1  0  0  0
 49 50  1  0  0  0
 49 53  1  0  0  0
 49 64  1  0  0  0
 49120  1  0  0  0
 50 51  1  0  0  0
 50121  1  0  0  0
 50122  1  0  0  0
 51 52  1  0  0  0
 51123  1  0  0  0
 51124  1  0  0  0
 52125  1  0  0  0
 52126  1  0  0  0
 53 54  1  0  0  0
 54 55  2  0  0  0
 54127  1  0  0  0
 55 57  1  0  0  0
 55128  1  0  0  0
 56 69  2  0  0  0
 57 58  2  0  0  0
 57129  1  0  0  0
 58130  1  0  0  0
 59 60  1  0  0  0
 59 61  1  0  0  0
 59 62  1  0  0  0
 60131  1  0  0  0
 60132  1  0  0  0
 60133  1  0  0  0
 61134  1  0  0  0
 61135  1  0  0  0
 61136  1  0  0  0
 62137  1  0  0  0
 62138  1  0  0  0
 62139  1  0  0  0
 63 65  1  0  0  0
 63140  1  0  0  0
 63141  1  0  0  0
 63142  1  0  0  0
 64143  1  0  0  0
 65144  1  0  0  0
 68 80  1  0  0  0
 71 72  2  0  0  0
 71 75  1  0  0  0
 71145  1  0  0  0
 72 74  1  0  0  0
 72 77  1  0  0  0
 73 75  2  0  0  0
 73 76  1  0  0  0
 73 78  1  0  0  0
 74 76  2  0  0  0
 74 83  1  0  0  0
 75 84  1  0  0  0
 76 85  1  0  0  0
 77 81  1  0  0  0
 77146  1  0  0  0
 77147  1  0  0  0
 78 82  1  0  0  0
 78148  1  0  0  0
 78149  1  0  0  0
 79 80  1  0  0  0
 79 82  1  0  0  0
 79150  1  0  0  0
 79151  1  0  0  0
 80152  1  0  0  0
 80153  1  0  0  0
 81154  1  0  0  0
 82155  1  0  0  0
 82156  1  0  0  0
M  CHG  1  82   1
M  ISO  4   1 100  68 101  80 101  81 100
M  END
> <chiral flag>
0

> <version>
0

> <s_m_source_file>
/data/baiqing/PycharmProjects/Reinvent-master-3.2/result/LINK_invent/BTK/process_docking_weight1_custom_sum_contain_oxygen_bond_distance_aromatic_linkinvent_7_9_3/rearranged_h_0026.sdf

> <i_m_source_file_index>
98

> <r_mmod_Potential_Energy-OPLS-2005>
-199.218444824219

> <r_mmod_Stretch_Energy-OPLS-2005>
38.3994445800781

> <r_mmod_Bend_Energy-OPLS-2005>
118.457748413086

> <r_mmod_Torsional_Energy-OPLS-2005>
258.119171142578

> <r_mmod_Improper_Torsional_Energy-OPLS-2005>
24.1010932922363

> <r_mmod_Van_der_Waal_Energy-OPLS-2005>
145.121109008789

> <r_mmod_Electrostatic_Energy-OPLS-2005>
-334.451385498047

> <r_mmod_Solvation_Energy-OPLS-2005>
-467.711883544922

> <b_mmod_Minimization_Converged-OPLS-2005>
0

> <r_mmod_RMS_Derivative-OPLS-2005>
4.08396244049072

$$$$
