0
                    3D
 Structure written by MMmdl.
153162  0  0  1  0            999 V2000
  -30.6436  -14.8097   20.4533 C   0  0  0  0  0  0
  -30.4094  -12.4985   19.4944 C   0  0  0  0  0  0
  -29.5205  -12.4843   18.2225 C   0  0  0  0  0  0
  -28.0304  -12.7975   18.5026 C   0  0  0  0  0  0
  -27.7075  -12.7675   20.0001 C   0  0  2  0  0  0
  -28.6840  -13.3528   21.0195 C   0  0  0  0  0  0
  -25.3075  -13.7543   20.5556 C   0  0  0  0  0  0
  -24.1847  -13.0391   20.9089 C   0  0  0  0  0  0
  -24.5731  -11.6697   20.8881 C   0  0  0  0  0  0
  -23.8427  -10.4241   21.0628 C   0  0  0  0  0  0
  -24.3211   -9.4187   21.9317 C   0  0  0  0  0  0
  -23.6073   -8.2133   22.0782 C   0  0  0  0  0  0
  -22.4090   -8.0132   21.3528 C   0  0  0  0  0  0
  -21.9600   -9.0076   20.4671 C   0  0  0  0  0  0
  -22.6728  -10.2055   20.3166 C   0  0  0  0  0  0
  -21.6798   -6.0624   22.5276 C   0  0  0  0  0  0
  -21.3975   -6.5563   23.8197 C   0  0  0  0  0  0
  -21.3646   -5.6737   24.9168 C   0  0  0  0  0  0
  -21.6045   -4.3004   24.7226 C   0  0  0  0  0  0
  -21.8849   -3.8074   23.4364 C   0  0  0  0  0  0
  -21.9194   -4.6871   22.3410 C   0  0  0  0  0  0
  -22.8008  -13.5587   21.1757 C   0  0  0  0  0  0
  -22.1677   -4.2074   21.0977 F   0  0  0  0  0  0
  -21.5640   -3.4496   25.7747 F   0  0  0  0  0  0
  -29.9731  -13.6153   20.3749 N   0  0  0  0  0  0
  -26.3023  -12.7882   20.3713 N   0  0  0  0  0  0
  -25.8366  -11.5530   20.5956 N   0  0  0  0  0  0
  -22.0485  -12.8694   22.0294 N   0  0  0  0  0  0
  -25.5478  -15.1125   20.3748 N   0  0  0  0  0  0
  -31.8379  -14.8641   20.1514 O   0  0  0  0  0  0
  -21.6544   -6.8694   21.4196 O   0  0  0  0  0  0
  -22.3876  -14.5943   20.6589 O   0  0  0  0  0  0
  -24.6317  -31.8576   23.2014 C   0  0  0  0  0  0
  -25.9165  -32.4759   23.8348 C   0  0  1  0  0  0
  -27.2106  -27.2652   20.1436 C   0  0  0  0  0  0
  -25.5982  -33.8560   24.2274 N   0  0  0  0  0  0
  -23.4255  -30.4805   21.5458 C   0  0  2  0  0  0
  -24.8745  -28.9291   20.1163 C   0  0  0  0  0  0
  -22.7496  -29.4601   22.4941 C   0  0  0  0  0  0
  -18.0288  -28.1377   22.8491 C   0  0  0  0  0  0
  -24.1493  -36.7256   23.2630 C   0  0  0  0  0  0
  -25.9705  -30.7715   21.3818 C   0  0  0  0  0  0
  -26.0451  -29.3923   20.7307 C   0  0  0  0  0  0
  -27.2199  -28.5720   20.7355 C   0  0  0  0  0  0
  -26.0257  -26.8758   19.4927 C   0  0  0  0  0  0
  -24.8697  -27.6778   19.4851 C   0  0  0  0  0  0
  -23.6460  -29.8174   20.1617 C   0  0  0  0  0  0
  -25.4117  -36.3056   24.0330 C   0  0  1  0  0  0
  -20.5883  -28.3685   23.1270 C   0  0  2  0  0  0
  -20.6771  -26.9398   22.5408 C   0  0  0  0  0  0
  -19.5752  -26.6381   21.5204 C   0  0  0  0  0  0
  -18.1932  -26.7925   22.1622 C   0  0  0  0  0  0
  -19.1538  -28.8851   23.2880 C   0  0  0  0  0  0
  -18.9464  -30.1454   23.8905 C   0  0  0  0  0  0
  -17.6466  -30.6582   24.0555 C   0  0  0  0  0  0
  -25.9068  -34.9435   23.5090 C   0  0  0  0  0  0
  -16.5357  -29.9081   23.6324 C   0  0  0  0  0  0
  -16.7275  -28.6488   23.0362 C   0  0  0  0  0  0
  -26.4527  -31.6568   25.0727 C   0  0  0  0  0  0
  -25.3750  -31.3722   26.1451 C   0  0  0  0  0  0
  -27.0349  -30.2982   24.6183 C   0  0  0  0  0  0
  -27.6084  -32.4284   25.7523 C   0  0  0  0  0  0
  -27.5574  -37.1794   24.8474 C   0  0  0  0  0  0
  -21.4201  -29.3043   22.3678 N   0  0  0  0  0  0
  -26.4291  -37.3758   23.9413 N   0  0  0  0  0  0
  -24.6948  -31.0529   22.1002 N   0  0  0  0  0  0
  -23.4195  -28.8146   23.3038 O   0  0  0  0  0  0
  -28.2944  -26.3640   20.1228 O   0  0  0  0  0  0
  -26.5602  -34.8909   22.4636 O   0  0  0  0  0  0
  -23.5475  -32.1410   23.7326 O   0  0  0  0  0  0
  -27.5769  -19.5241   19.1010 C   0  0  0  0  0  0
  -27.0190  -21.9040   19.0153 C   0  0  0  0  0  0
  -28.3690  -18.4423   19.5510 C   0  0  0  0  0  0
  -27.2074  -23.2483   19.4132 C   0  0  0  0  0  0
  -29.6828  -20.0170   20.8538 C   0  0  0  0  0  0
  -29.0517  -22.5333   20.8113 C   0  0  0  0  0  0
  -27.8292  -20.8563   19.5082 C   0  0  0  0  0  0
  -28.8825  -21.1442   20.4078 C   0  0  0  0  0  0
  -29.4510  -18.6440   20.4336 C   0  0  0  0  0  0
  -28.2148  -23.6241   20.3323 C   0  0  0  0  0  0
  -30.3593  -17.4100   20.8699 C   0  0  0  0  0  0
  -28.2230  -25.1062   20.9384 C   0  0  0  0  0  0
  -29.9101  -15.9616   20.7008 N   0  0  0  0  0  0
  -31.4596  -12.5766   19.2146 H   0  0  0  0  0  0
  -30.3175  -11.5557   20.0361 H   0  0  0  0  0  0
  -29.6087  -11.5088   17.7425 H   0  0  0  0  0  0
  -29.9035  -13.2097   17.5049 H   0  0  0  0  0  0
  -27.3895  -12.1097   17.9498 H   0  0  0  0  0  0
  -27.7981  -13.7922   18.1212 H   0  0  0  0  0  0
  -27.9919  -11.7193   20.1449 H   0  0  0  0  0  0
  -28.8321  -12.6685   21.8561 H   0  0  0  0  0  0
  -28.2451  -14.2523   21.4542 H   0  0  0  0  0  0
  -25.2345   -9.5738   22.4887 H   0  0  0  0  0  0
  -23.9856   -7.4509   22.7448 H   0  0  0  0  0  0
  -21.0565   -8.8484   19.8944 H   0  0  0  0  0  0
  -22.3149  -10.9606   19.6304 H   0  0  0  0  0  0
  -21.1945   -7.6070   23.9675 H   0  0  0  0  0  0
  -21.1456   -6.0463   25.9073 H   0  0  0  0  0  0
  -22.0665   -2.7542   23.2866 H   0  0  0  0  0  0
  -22.3896  -12.0258   22.4661 H   0  0  0  0  0  0
  -21.1190  -13.1943   22.2516 H   0  0  0  0  0  0
  -24.8143  -15.8098   20.4464 H   0  0  0  0  0  0
  -26.4135  -15.4793   20.0009 H   0  0  0  0  0  0
  -26.7228  -32.5427   23.1092 H   0  0  0  0  0  0
  -25.0246  -33.9691   25.0500 H   0  0  0  0  0  0
  -22.7210  -31.3031   21.4024 H   0  0  0  0  0  0
  -23.3771  -35.9575   23.3302 H   0  0  0  0  0  0
  -24.3595  -36.8861   22.2047 H   0  0  0  0  0  0
  -23.7238  -37.6458   23.6638 H   0  0  0  0  0  0
  -26.0956  -31.5293   20.6059 H   0  0  0  0  0  0
  -26.8522  -30.8299   22.0068 H   0  0  0  0  0  0
  -28.1202  -28.9207   21.2229 H   0  0  0  0  0  0
  -25.9819  -25.9350   18.9754 H   0  0  0  0  0  0
  -23.9781  -27.3188   18.9885 H   0  0  0  0  0  0
  -23.7736  -30.5949   19.4072 H   0  0  0  0  0  0
  -22.7631  -29.2544   19.8539 H   0  0  0  0  0  0
  -25.1286  -36.1915   25.0822 H   0  0  0  0  0  0
  -20.9968  -28.3268   24.1394 H   0  0  0  0  0  0
  -20.5656  -26.2286   23.3613 H   0  0  0  0  0  0
  -21.6641  -26.7424   22.1202 H   0  0  0  0  0  0
  -19.6902  -25.6290   21.1241 H   0  0  0  0  0  0
  -19.6691  -27.3186   20.6731 H   0  0  0  0  0  0
  -17.4192  -26.6676   21.4035 H   0  0  0  0  0  0
  -18.0338  -26.0052   22.9007 H   0  0  0  0  0  0
  -19.7940  -30.7256   24.2283 H   0  0  0  0  0  0
  -17.5020  -31.6271   24.5151 H   0  0  0  0  0  0
  -15.5354  -30.2990   23.7634 H   0  0  0  0  0  0
  -15.8675  -28.0807   22.7086 H   0  0  0  0  0  0
  -24.5948  -30.7030   25.7801 H   0  0  0  0  0  0
  -24.8914  -32.2890   26.4835 H   0  0  0  0  0  0
  -25.8095  -30.8955   27.0248 H   0  0  0  0  0  0
  -26.2919  -29.6772   24.1165 H   0  0  0  0  0  0
  -27.3979  -29.7205   25.4692 H   0  0  0  0  0  0
  -27.8811  -30.4239   23.9424 H   0  0  0  0  0  0
  -27.2693  -33.3583   26.2102 H   0  0  0  0  0  0
  -28.3930  -32.6845   25.0388 H   0  0  0  0  0  0
  -28.0707  -31.8396   26.5461 H   0  0  0  0  0  0
  -28.2591  -38.0083   24.7491 H   0  0  0  0  0  0
  -28.1059  -36.2616   24.6327 H   0  0  0  0  0  0
  -27.2284  -37.1468   25.8872 H   0  0  0  0  0  0
  -20.9387  -29.8794   21.6906 H   0  0  0  0  0  0
  -26.0171  -38.2819   24.1448 H   0  0  0  0  0  0
  -26.7586  -19.3179   18.4222 H   0  0  0  0  0  0
  -26.2099  -21.6713   18.3341 H   0  0  0  0  0  0
  -28.1457  -17.4462   19.1946 H   0  0  0  0  0  0
  -26.5130  -23.9768   19.0334 H   0  0  0  0  0  0
  -30.5027  -20.2140   21.5324 H   0  0  0  0  0  0
  -29.8208  -22.7586   21.5409 H   0  0  0  0  0  0
  -30.5679  -17.5439   21.9333 H   0  0  0  0  0  0
  -31.3232  -17.5317   20.3741 H   0  0  0  0  0  0
  -29.0670  -25.1533   21.6289 H   0  0  0  0  0  0
  -27.3431  -25.1718   21.5804 H   0  0  0  0  0  0
  -28.9333  -15.8005   20.8841 H   0  0  0  0  0  0
  1 25  1  0  0  0
  1 30  2  0  0  0
  1 83  1  0  0  0
  2  3  1  0  0  0
  2 25  1  0  0  0
  2 84  1  0  0  0
  2 85  1  0  0  0
  3  4  1  0  0  0
  3 86  1  0  0  0
  3 87  1  0  0  0
  4  5  1  0  0  0
  4 88  1  0  0  0
  4 89  1  0  0  0
  5  6  1  0  0  0
  5 26  1  0  0  0
  5 90  1  0  0  0
  6 25  1  0  0  0
  6 91  1  0  0  0
  6 92  1  0  0  0
  7  8  2  0  0  0
  7 26  1  0  0  0
  7 29  1  0  0  0
  8  9  1  0  0  0
  8 22  1  0  0  0
  9 10  1  0  0  0
  9 27  2  0  0  0
 10 11  2  0  0  0
 10 15  1  0  0  0
 11 12  1  0  0  0
 11 93  1  0  0  0
 12 13  2  0  0  0
 12 94  1  0  0  0
 13 14  1  0  0  0
 13 31  1  0  0  0
 14 15  2  0  0  0
 14 95  1  0  0  0
 15 96  1  0  0  0
 16 17  2  0  0  0
 16 21  1  0  0  0
 16 31  1  0  0  0
 17 18  1  0  0  0
 17 97  1  0  0  0
 18 19  2  0  0  0
 18 98  1  0  0  0
 19 20  1  0  0  0
 19 24  1  0  0  0
 20 21  2  0  0  0
 20 99  1  0  0  0
 21 23  1  0  0  0
 22 28  1  0  0  0
 22 32  2  0  0  0
 26 27  1  0  0  0
 28100  1  0  0  0
 28101  1  0  0  0
 29102  1  0  0  0
 29103  1  0  0  0
 33 34  1  0  0  0
 33 66  1  0  0  0
 33 70  2  0  0  0
 34 36  1  0  0  0
 34 59  1  0  0  0
 34104  1  0  0  0
 35 44  2  0  0  0
 35 45  1  0  0  0
 35 68  1  0  0  0
 36 56  1  0  0  0
 36105  1  0  0  0
 37 39  1  0  0  0
 37 47  1  0  0  0
 37 66  1  0  0  0
 37106  1  0  0  0
 38 43  2  0  0  0
 38 46  1  0  0  0
 38 47  1  0  0  0
 39 64  1  0  0  0
 39 67  2  0  0  0
 40 52  1  0  0  0
 40 53  2  0  0  0
 40 58  1  0  0  0
 41107  1  0  0  0
 41108  1  0  0  0
 41109  1  0  0  0
 41 48  1  0  0  0
 42 43  1  0  0  0
 42 66  1  0  0  0
 42110  1  0  0  0
 42111  1  0  0  0
 43 44  1  0  0  0
 44112  1  0  0  0
 45 46  2  0  0  0
 45113  1  0  0  0
 46114  1  0  0  0
 47115  1  0  0  0
 47116  1  0  0  0
 48 56  1  0  0  0
 48 65  1  0  0  0
 48117  1  0  0  0
 49 50  1  0  0  0
 49 53  1  0  0  0
 49 64  1  0  0  0
 49118  1  0  0  0
 50 51  1  0  0  0
 50119  1  0  0  0
 50120  1  0  0  0
 51 52  1  0  0  0
 51121  1  0  0  0
 51122  1  0  0  0
 52123  1  0  0  0
 52124  1  0  0  0
 53 54  1  0  0  0
 54 55  2  0  0  0
 54125  1  0  0  0
 55 57  1  0  0  0
 55126  1  0  0  0
 56 69  2  0  0  0
 57 58  2  0  0  0
 57127  1  0  0  0
 58128  1  0  0  0
 59 60  1  0  0  0
 59 61  1  0  0  0
 59 62  1  0  0  0
 60129  1  0  0  0
 60130  1  0  0  0
 60131  1  0  0  0
 61132  1  0  0  0
 61133  1  0  0  0
 61134  1  0  0  0
 62135  1  0  0  0
 62136  1  0  0  0
 62137  1  0  0  0
 63 65  1  0  0  0
 63138  1  0  0  0
 63139  1  0  0  0
 63140  1  0  0  0
 64141  1  0  0  0
 65142  1  0  0  0
 68 82  1  0  0  0
 71 73  2  0  0  0
 71 77  1  0  0  0
 71143  1  0  0  0
 72 74  1  0  0  0
 72 77  2  0  0  0
 72144  1  0  0  0
 73 79  1  0  0  0
 73145  1  0  0  0
 74 80  2  0  0  0
 74146  1  0  0  0
 75 78  1  0  0  0
 75 79  2  0  0  0
 75147  1  0  0  0
 76 78  2  0  0  0
 76 80  1  0  0  0
 76148  1  0  0  0
 77 78  1  0  0  0
 79 81  1  0  0  0
 80 82  1  0  0  0
 81 83  1  0  0  0
 81149  1  0  0  0
 81150  1  0  0  0
 82151  1  0  0  0
 82152  1  0  0  0
 83153  1  0  0  0
M  ISO  4   1 100  68 101  82 101  83 100
M  END
> <chiral flag>
0

> <version>
0

> <s_m_source_file>
/data/baiqing/PycharmProjects/Reinvent-master-3.2/result/LINK_invent/BTK/process_docking_weight1_custom_sum_contain_oxygen_bond_distance_aromatic_linkinvent_7_9_3/rearranged_h_0132.sdf

> <i_m_source_file_index>
1

> <r_mmod_Potential_Energy-OPLS-2005>
277.751373291016

> <r_mmod_Stretch_Energy-OPLS-2005>
112.265769958496

> <r_mmod_Bend_Energy-OPLS-2005>
192.356704711914

> <r_mmod_Torsional_Energy-OPLS-2005>
257.947113037109

> <r_mmod_Improper_Torsional_Energy-OPLS-2005>
4.63436698913574

> <r_mmod_Van_der_Waal_Energy-OPLS-2005>
158.875366210938

> <r_mmod_Electrostatic_Energy-OPLS-2005>
-396.246643066406

> <r_mmod_Solvation_Energy-OPLS-2005>
-210.941009521484

> <b_mmod_Minimization_Converged-OPLS-2005>
0

> <r_mmod_RMS_Derivative-OPLS-2005>
3.17292356491089

$$$$
1
                    3D
 Structure written by MMmdl.
171179  0  0  1  0            999 V2000
  -30.7327  -14.5128   20.6011 C   0  0  0  0  0  0
  -30.4273  -12.3584   19.4296 C   0  0  0  0  0  0
  -29.4976  -12.4940   18.2126 C   0  0  0  0  0  0
  -28.0239  -12.3417   18.6248 C   0  0  0  0  0  0
  -27.6562  -13.2123   19.8593 C   0  0  2  0  0  0
  -28.6948  -13.0493   20.9904 C   0  0  0  0  0  0
  -25.2594  -13.8188   20.5681 C   0  0  0  0  0  0
  -24.1871  -13.0453   20.9190 C   0  0  0  0  0  0
  -24.6426  -11.6901   20.8745 C   0  0  0  0  0  0
  -23.9094  -10.4289   21.0380 C   0  0  0  0  0  0
  -24.3664   -9.4190   21.9153 C   0  0  0  0  0  0
  -23.6322   -8.2254   22.0731 C   0  0  0  0  0  0
  -22.4289   -8.0291   21.3519 C   0  0  0  0  0  0
  -21.9929   -9.0267   20.4638 C   0  0  0  0  0  0
  -22.7293  -10.2145   20.3018 C   0  0  0  0  0  0
  -21.6853   -6.0746   22.5298 C   0  0  0  0  0  0
  -21.4017   -6.5639   23.8252 C   0  0  0  0  0  0
  -21.3662   -5.6781   24.9202 C   0  0  0  0  0  0
  -21.6029   -4.3037   24.7204 C   0  0  0  0  0  0
  -21.8826   -3.8146   23.4330 C   0  0  0  0  0  0
  -21.9198   -4.6982   22.3391 C   0  0  0  0  0  0
  -22.7879  -13.5226   21.1826 C   0  0  0  0  0  0
  -22.1644   -4.2169   21.0961 F   0  0  0  0  0  0
  -21.5634   -3.4520   25.7711 F   0  0  0  0  0  0
  -30.0220  -13.3602   20.4335 N   0  0  0  0  0  0
  -26.3032  -12.9362   20.3301 N   0  0  0  0  0  0
  -25.9367  -11.6513   20.5772 N   0  0  0  0  0  0
  -22.0470  -12.8246   22.0375 N   0  0  0  0  0  0
  -25.4275  -15.1920   20.4056 N   0  0  0  0  0  0
  -31.8589  -14.6474   20.1203 O   0  0  0  0  0  0
  -21.6634   -6.8894   21.4263 O   0  0  0  0  0  0
  -22.3542  -14.5499   20.6632 O   0  0  0  0  0  0
  -24.6048  -31.8733   23.2194 C   0  0  0  0  0  0
  -25.8979  -32.4873   23.8451 C   0  0  1  0  0  0
  -27.2224  -27.5050   20.0829 C   0  0  0  0  0  0
  -25.5843  -33.8668   24.2338 N   0  0  0  0  0  0
  -23.3846  -30.4980   21.5603 C   0  0  2  0  0  0
  -24.8329  -28.9761   20.1116 C   0  0  0  0  0  0
  -22.7344  -29.4708   22.5090 C   0  0  0  0  0  0
  -18.0246  -28.1395   22.8515 C   0  0  0  0  0  0
  -24.1473  -36.7341   23.2629 C   0  0  0  0  0  0
  -25.9051  -30.8612   21.3595 C   0  0  0  0  0  0
  -25.9890  -29.5033   20.7025 C   0  0  0  0  0  0
  -27.1909  -28.7764   20.6866 C   0  0  0  0  0  0
  -26.0633  -26.9735   19.4863 C   0  0  0  0  0  0
  -24.8590  -27.7049   19.5074 C   0  0  0  0  0  0
  -23.5858  -29.8248   20.1749 C   0  0  0  0  0  0
  -25.4083  -36.3122   24.0333 C   0  0  1  0  0  0
  -20.5824  -28.3633   23.1427 C   0  0  2  0  0  0
  -20.6748  -26.9391   22.5472 C   0  0  0  0  0  0
  -19.5733  -26.6381   21.5256 C   0  0  0  0  0  0
  -18.1902  -26.7947   22.1656 C   0  0  0  0  0  0
  -19.1489  -28.8819   23.2987 C   0  0  0  0  0  0
  -18.9433  -30.1427   23.8997 C   0  0  0  0  0  0
  -17.6450  -30.6605   24.0577 C   0  0  0  0  0  0
  -25.8996  -34.9511   23.5105 C   0  0  0  0  0  0
  -16.5335  -29.9132   23.6302 C   0  0  0  0  0  0
  -16.7249  -28.6550   23.0325 C   0  0  0  0  0  0
  -26.4424  -31.6657   25.0758 C   0  0  0  0  0  0
  -25.3684  -31.3800   26.1501 C   0  0  0  0  0  0
  -27.0246  -30.3087   24.6142 C   0  0  0  0  0  0
  -27.5993  -32.4395   25.7533 C   0  0  0  0  0  0
  -27.5572  -37.1806   24.8434 C   0  0  0  0  0  0
  -21.4072  -29.3029   22.3866 N   0  0  0  0  0  0
  -26.4260  -37.3795   23.9419 N   0  0  0  0  0  0
  -24.6495  -31.0896   22.1066 N   0  0  0  0  0  0
  -23.4177  -28.8219   23.3060 O   0  0  0  0  0  0
  -28.3596  -26.7558   20.1260 O   0  0  0  0  0  0
  -26.5589  -34.8941   22.4678 O   0  0  0  0  0  0
  -23.5291  -32.1465   23.7670 O   0  0  0  0  0  0
  -30.1313  -18.8528   20.2892 C   0  0  0  0  0  0
  -29.3322  -20.1909   21.9178 C   0  0  0  0  0  0
  -29.6131  -20.1411   20.5847 C   0  0  0  0  0  0
  -30.2101  -18.1329   21.4567 C   0  0  0  0  0  0
  -28.7843  -19.3987   24.7775 C   0  0  0  0  0  0
  -31.2780  -19.3176   24.3673 C   0  0  0  0  0  0
  -30.8579  -16.7693   21.6952 C   0  0  0  0  0  0
  -30.5511  -23.0552   20.9994 C   0  0  0  0  0  0
  -29.5177  -22.6098   19.9314 C   0  0  0  0  0  0
  -31.4301  -24.3016   20.6789 C   0  0  0  0  0  0
  -29.8768  -25.9634   21.7924 C   0  0  0  0  0  0
  -28.4248  -25.9848   21.3236 C   0  0  0  0  0  0
  -29.9074  -18.7738   23.9272 C   0  0  0  0  0  0
  -29.7646  -18.9916   22.4819 N   0  0  0  0  0  0
  -29.4990  -21.1724   19.6312 N   0  0  0  0  0  0
  -30.1410  -15.5432   21.2528 N   0  0  0  0  0  0
  -30.7759  -25.6350   20.6673 N   0  3  0  0  0  0
  -31.4599  -12.4829   19.1027 H   0  0  0  0  0  0
  -30.3727  -11.3570   19.8559 H   0  0  0  0  0  0
  -29.7573  -11.7412   17.4684 H   0  0  0  0  0  0
  -29.6464  -13.4627   17.7385 H   0  0  0  0  0  0
  -27.8645  -11.2870   18.8497 H   0  0  0  0  0  0
  -27.3697  -12.5808   17.7845 H   0  0  0  0  0  0
  -27.6834  -14.2500   19.5270 H   0  0  0  0  0  0
  -28.6837  -12.0250   21.3707 H   0  0  0  0  0  0
  -28.4336  -13.6920   21.8327 H   0  0  0  0  0  0
  -25.2804   -9.5681   22.4732 H   0  0  0  0  0  0
  -24.0040   -7.4621   22.7415 H   0  0  0  0  0  0
  -21.0874   -8.8812   19.8903 H   0  0  0  0  0  0
  -22.3762  -10.9701   19.6111 H   0  0  0  0  0  0
  -21.1999   -7.6142   23.9768 H   0  0  0  0  0  0
  -21.1476   -6.0481   25.9115 H   0  0  0  0  0  0
  -22.0597   -2.7609   23.2819 H   0  0  0  0  0  0
  -22.4090  -12.0018   22.4975 H   0  0  0  0  0  0
  -21.1051  -13.1262   22.2393 H   0  0  0  0  0  0
  -24.6602  -15.8443   20.5343 H   0  0  0  0  0  0
  -26.2762  -15.6451   20.0897 H   0  0  0  0  0  0
  -26.7071  -32.5578   23.1255 H   0  0  0  0  0  0
  -24.9963  -33.9878   25.0473 H   0  0  0  0  0  0
  -22.6644  -31.3087   21.4272 H   0  0  0  0  0  0
  -23.3725  -35.9684   23.3292 H   0  0  0  0  0  0
  -24.3529  -36.8969   22.2035 H   0  0  0  0  0  0
  -23.7287  -37.6561   23.6660 H   0  0  0  0  0  0
  -26.0006  -31.6330   20.5958 H   0  0  0  0  0  0
  -26.8008  -30.9197   21.9661 H   0  0  0  0  0  0
  -28.0856  -29.1797   21.1422 H   0  0  0  0  0  0
  -26.0917  -25.9997   19.0179 H   0  0  0  0  0  0
  -23.9654  -27.2856   19.0668 H   0  0  0  0  0  0
  -23.6590  -30.5917   19.4048 H   0  0  0  0  0  0
  -22.7152  -29.2236   19.9098 H   0  0  0  0  0  0
  -25.1284  -36.1942   25.0835 H   0  0  0  0  0  0
  -20.9911  -28.3156   24.1552 H   0  0  0  0  0  0
  -20.5615  -26.2242   23.3638 H   0  0  0  0  0  0
  -21.6638  -26.7419   22.1285 H   0  0  0  0  0  0
  -19.6865  -25.6270   21.1327 H   0  0  0  0  0  0
  -19.6732  -27.3168   20.6768 H   0  0  0  0  0  0
  -17.4193  -26.6716   21.4049 H   0  0  0  0  0  0
  -18.0269  -26.0091   22.9048 H   0  0  0  0  0  0
  -19.7900  -30.7204   24.2464 H   0  0  0  0  0  0
  -17.5003  -31.6300   24.5160 H   0  0  0  0  0  0
  -15.5350  -30.3091   23.7545 H   0  0  0  0  0  0
  -15.8644  -28.0906   22.6986 H   0  0  0  0  0  0
  -24.5737  -30.7288   25.7819 H   0  0  0  0  0  0
  -24.9022  -32.3020   26.5015 H   0  0  0  0  0  0
  -25.7996  -30.8829   27.0205 H   0  0  0  0  0  0
  -26.2788  -29.6890   24.1112 H   0  0  0  0  0  0
  -27.3898  -29.7291   25.4645 H   0  0  0  0  0  0
  -27.8713  -30.4380   23.9377 H   0  0  0  0  0  0
  -27.2532  -33.3646   26.2168 H   0  0  0  0  0  0
  -28.3765  -32.7059   25.0345 H   0  0  0  0  0  0
  -28.0705  -31.8487   26.5411 H   0  0  0  0  0  0
  -28.2573  -38.0103   24.7464 H   0  0  0  0  0  0
  -28.1093  -36.2657   24.6265 H   0  0  0  0  0  0
  -27.2306  -37.1454   25.8829 H   0  0  0  0  0  0
  -20.9154  -29.8872   21.7249 H   0  0  0  0  0  0
  -26.0166  -38.2874   24.1429 H   0  0  0  0  0  0
  -30.5074  -18.5173   19.3328 H   0  0  0  0  0  0
  -28.9491  -20.9943   22.5345 H   0  0  0  0  0  0
  -28.8515  -19.0505   25.8106 H   0  0  0  0  0  0
  -27.7960  -19.1180   24.4159 H   0  0  0  0  0  0
  -28.8512  -20.4852   24.7980 H   0  0  0  0  0  0
  -31.3970  -19.2626   25.4504 H   0  0  0  0  0  0
  -31.4033  -20.3624   24.0705 H   0  0  0  0  0  0
  -32.0900  -18.7535   23.9081 H   0  0  0  0  0  0
  -31.1207  -16.6347   22.7405 H   0  0  0  0  0  0
  -31.8302  -16.8215   21.2050 H   0  0  0  0  0  0
  -31.2573  -22.2390   21.1505 H   0  0  0  0  0  0
  -30.0531  -23.1598   21.9633 H   0  0  0  0  0  0
  -29.7338  -23.1197   18.9909 H   0  0  0  0  0  0
  -28.5162  -22.9347   20.2113 H   0  0  0  0  0  0
  -31.9405  -24.1629   19.7226 H   0  0  0  0  0  0
  -32.2238  -24.3524   21.4258 H   0  0  0  0  0  0
  -30.0105  -25.2962   22.6425 H   0  0  0  0  0  0
  -30.1397  -26.9593   22.1480 H   0  0  0  0  0  0
  -27.7982  -26.3959   22.1216 H   0  0  0  0  0  0
  -28.0554  -24.9812   21.1229 H   0  0  0  0  0  0
  -29.8671  -17.7058   24.1214 H   0  0  0  0  0  0
  -29.6865  -20.9330   18.6580 H   0  0  0  0  0  0
  -29.1930  -15.4067   21.5752 H   0  0  0  0  0  0
  -30.2800  -25.8017   19.8021 H   0  0  0  0  0  0
  -31.5184  -26.3187   20.6905 H   0  0  0  0  0  0
  1 25  1  0  0  0
  1 30  2  0  0  0
  1 86  1  0  0  0
  2  3  1  0  0  0
  2 25  1  0  0  0
  2 88  1  0  0  0
  2 89  1  0  0  0
  3  4  1  0  0  0
  3 90  1  0  0  0
  3 91  1  0  0  0
  4  5  1  0  0  0
  4 92  1  0  0  0
  4 93  1  0  0  0
  5  6  1  0  0  0
  5 26  1  0  0  0
  5 94  1  0  0  0
  6 25  1  0  0  0
  6 95  1  0  0  0
  6 96  1  0  0  0
  7  8  2  0  0  0
  7 26  1  0  0  0
  7 29  1  0  0  0
  8  9  1  0  0  0
  8 22  1  0  0  0
  9 10  1  0  0  0
  9 27  2  0  0  0
 10 11  2  0  0  0
 10 15  1  0  0  0
 11 12  1  0  0  0
 11 97  1  0  0  0
 12 13  2  0  0  0
 12 98  1  0  0  0
 13 14  1  0  0  0
 13 31  1  0  0  0
 14 15  2  0  0  0
 14 99  1  0  0  0
 15100  1  0  0  0
 16 17  2  0  0  0
 16 21  1  0  0  0
 16 31  1  0  0  0
 17 18  1  0  0  0
 17101  1  0  0  0
 18 19  2  0  0  0
 18102  1  0  0  0
 19 20  1  0  0  0
 19 24  1  0  0  0
 20 21  2  0  0  0
 20103  1  0  0  0
 21 23  1  0  0  0
 22 28  1  0  0  0
 22 32  2  0  0  0
 26 27  1  0  0  0
 28104  1  0  0  0
 28105  1  0  0  0
 29106  1  0  0  0
 29107  1  0  0  0
 33 34  1  0  0  0
 33 66  1  0  0  0
 33 70  2  0  0  0
 34 36  1  0  0  0
 34 59  1  0  0  0
 34108  1  0  0  0
 35 44  2  0  0  0
 35 45  1  0  0  0
 35 68  1  0  0  0
 36 56  1  0  0  0
 36109  1  0  0  0
 37 39  1  0  0  0
 37 47  1  0  0  0
 37 66  1  0  0  0
 37110  1  0  0  0
 38 43  2  0  0  0
 38 46  1  0  0  0
 38 47  1  0  0  0
 39 64  1  0  0  0
 39 67  2  0  0  0
 40 52  1  0  0  0
 40 53  2  0  0  0
 40 58  1  0  0  0
 41111  1  0  0  0
 41112  1  0  0  0
 41113  1  0  0  0
 41 48  1  0  0  0
 42 43  1  0  0  0
 42 66  1  0  0  0
 42114  1  0  0  0
 42115  1  0  0  0
 43 44  1  0  0  0
 44116  1  0  0  0
 45 46  2  0  0  0
 45117  1  0  0  0
 46118  1  0  0  0
 47119  1  0  0  0
 47120  1  0  0  0
 48 56  1  0  0  0
 48 65  1  0  0  0
 48121  1  0  0  0
 49 50  1  0  0  0
 49 53  1  0  0  0
 49 64  1  0  0  0
 49122  1  0  0  0
 50 51  1  0  0  0
 50123  1  0  0  0
 50124  1  0  0  0
 51 52  1  0  0  0
 51125  1  0  0  0
 51126  1  0  0  0
 52127  1  0  0  0
 52128  1  0  0  0
 53 54  1  0  0  0
 54 55  2  0  0  0
 54129  1  0  0  0
 55 57  1  0  0  0
 55130  1  0  0  0
 56 69  2  0  0  0
 57 58  2  0  0  0
 57131  1  0  0  0
 58132  1  0  0  0
 59 60  1  0  0  0
 59 61  1  0  0  0
 59 62  1  0  0  0
 60133  1  0  0  0
 60134  1  0  0  0
 60135  1  0  0  0
 61136  1  0  0  0
 61137  1  0  0  0
 61138  1  0  0  0
 62139  1  0  0  0
 62140  1  0  0  0
 62141  1  0  0  0
 63 65  1  0  0  0
 63142  1  0  0  0
 63143  1  0  0  0
 63144  1  0  0  0
 64145  1  0  0  0
 65146  1  0  0  0
 68 82  1  0  0  0
 71 73  1  0  0  0
 71 74  2  0  0  0
 71147  1  0  0  0
 72 73  2  0  0  0
 72 84  1  0  0  0
 72148  1  0  0  0
 73 85  1  0  0  0
 74 77  1  0  0  0
 74 84  1  0  0  0
 75149  1  0  0  0
 75150  1  0  0  0
 75151  1  0  0  0
 75 83  1  0  0  0
 76 83  1  0  0  0
 76152  1  0  0  0
 76153  1  0  0  0
 76154  1  0  0  0
 77 86  1  0  0  0
 77155  1  0  0  0
 77156  1  0  0  0
 78 79  1  0  0  0
 78 80  1  0  0  0
 78157  1  0  0  0
 78158  1  0  0  0
 79 85  1  0  0  0
 79159  1  0  0  0
 79160  1  0  0  0
 80 87  1  0  0  0
 80161  1  0  0  0
 80162  1  0  0  0
 81 82  1  0  0  0
 81 87  1  0  0  0
 81163  1  0  0  0
 81164  1  0  0  0
 82165  1  0  0  0
 82166  1  0  0  0
 83 84  1  0  0  0
 83167  1  0  0  0
 85168  1  0  0  0
 86169  1  0  0  0
 87170  1  0  0  0
 87171  1  0  0  0
M  CHG  1  87   1
M  ISO  4   1 100  68 101  82 101  86 100
M  END
> <chiral flag>
0

> <version>
0

> <s_m_source_file>
/data/baiqing/PycharmProjects/Reinvent-master-3.2/result/LINK_invent/BTK/process_docking_weight1_custom_sum_contain_oxygen_bond_distance_aromatic_linkinvent_7_9_3/rearranged_h_0132.sdf

> <i_m_source_file_index>
2

> <r_mmod_Potential_Energy-OPLS-2005>
-219.886764526367

> <r_mmod_Stretch_Energy-OPLS-2005>
39.8530387878418

> <r_mmod_Bend_Energy-OPLS-2005>
137.384841918945

> <r_mmod_Torsional_Energy-OPLS-2005>
300.640106201172

> <r_mmod_Improper_Torsional_Energy-OPLS-2005>
5.25562238693237

> <r_mmod_Van_der_Waal_Energy-OPLS-2005>
129.135589599609

> <r_mmod_Electrostatic_Energy-OPLS-2005>
-405.768859863281

> <r_mmod_Solvation_Energy-OPLS-2005>
-443.359191894531

> <b_mmod_Minimization_Converged-OPLS-2005>
0

> <r_mmod_RMS_Derivative-OPLS-2005>
7.20106887817383

$$$$
2
                    3D
 Structure written by MMmdl.
152160  0  0  1  0            999 V2000
  -30.6331  -14.6493   20.4935 C   0  0  0  0  0  0
  -30.4232  -12.3942   19.4619 C   0  0  0  0  0  0
  -29.4994  -12.4987   18.2287 C   0  0  0  0  0  0
  -28.0226  -12.3406   18.6412 C   0  0  0  0  0  0
  -27.6451  -13.2229   19.8614 C   0  0  2  0  0  0
  -28.6876  -13.1040   20.9936 C   0  0  0  0  0  0
  -25.2518  -13.8173   20.5698 C   0  0  0  0  0  0
  -24.1800  -13.0427   20.9184 C   0  0  0  0  0  0
  -24.6381  -11.6903   20.8755 C   0  0  0  0  0  0
  -23.9062  -10.4283   21.0425 C   0  0  0  0  0  0
  -24.3616   -9.4199   21.9199 C   0  0  0  0  0  0
  -23.6292   -8.2235   22.0756 C   0  0  0  0  0  0
  -22.4285   -8.0267   21.3544 C   0  0  0  0  0  0
  -21.9915   -9.0246   20.4648 C   0  0  0  0  0  0
  -22.7240  -10.2121   20.3065 C   0  0  0  0  0  0
  -21.6847   -6.0737   22.5275 C   0  0  0  0  0  0
  -21.4019   -6.5640   23.8213 C   0  0  0  0  0  0
  -21.3658   -5.6791   24.9174 C   0  0  0  0  0  0
  -21.6049   -4.3059   24.7222 C   0  0  0  0  0  0
  -21.8814   -3.8155   23.4339 C   0  0  0  0  0  0
  -21.9190   -4.6966   22.3396 C   0  0  0  0  0  0
  -22.7834  -13.5207   21.1871 C   0  0  0  0  0  0
  -22.1662   -4.2151   21.0969 F   0  0  0  0  0  0
  -21.5622   -3.4547   25.7736 F   0  0  0  0  0  0
  -29.9973  -13.4376   20.4183 N   0  0  0  0  0  0
  -26.2943  -12.9370   20.3333 N   0  0  0  0  0  0
  -25.9313  -11.6518   20.5777 N   0  0  0  0  0  0
  -22.0511  -12.8166   22.0436 N   0  0  0  0  0  0
  -25.4219  -15.1899   20.4113 N   0  0  0  0  0  0
  -31.8099  -14.7710   20.1452 O   0  0  0  0  0  0
  -21.6634   -6.8878   21.4239 O   0  0  0  0  0  0
  -22.3504  -14.5524   20.6750 O   0  0  0  0  0  0
  -24.6287  -31.8557   23.2000 C   0  0  0  0  0  0
  -25.9124  -32.4752   23.8337 C   0  0  1  0  0  0
  -27.2181  -27.3018   20.0952 C   0  0  0  0  0  0
  -25.5925  -33.8550   24.2241 N   0  0  0  0  0  0
  -23.4246  -30.4801   21.5424 C   0  0  2  0  0  0
  -24.8687  -28.9386   20.1041 C   0  0  0  0  0  0
  -22.7494  -29.4570   22.4892 C   0  0  0  0  0  0
  -18.0275  -28.1381   22.8489 C   0  0  0  0  0  0
  -24.1471  -36.7301   23.2633 C   0  0  0  0  0  0
  -25.9677  -30.7775   21.3771 C   0  0  0  0  0  0
  -26.0380  -29.4052   20.7152 C   0  0  0  0  0  0
  -27.2133  -28.5956   20.7048 C   0  0  0  0  0  0
  -26.0128  -26.8798   19.4875 C   0  0  0  0  0  0
  -24.8595  -27.6840   19.4796 C   0  0  0  0  0  0
  -23.6407  -29.8237   20.1544 C   0  0  0  0  0  0
  -25.4092  -36.3052   24.0309 C   0  0  1  0  0  0
  -20.5876  -28.3668   23.1286 C   0  0  2  0  0  0
  -20.6750  -26.9378   22.5401 C   0  0  0  0  0  0
  -19.5717  -26.6363   21.5224 C   0  0  0  0  0  0
  -18.1900  -26.7926   22.1628 C   0  0  0  0  0  0
  -19.1535  -28.8851   23.2881 C   0  0  0  0  0  0
  -18.9475  -30.1461   23.8887 C   0  0  0  0  0  0
  -17.6474  -30.6584   24.0568 C   0  0  0  0  0  0
  -25.9041  -34.9431   23.5079 C   0  0  0  0  0  0
  -16.5364  -29.9084   23.6349 C   0  0  0  0  0  0
  -16.7270  -28.6502   23.0359 C   0  0  0  0  0  0
  -26.4510  -31.6598   25.0746 C   0  0  0  0  0  0
  -25.3734  -31.3758   26.1491 C   0  0  0  0  0  0
  -27.0382  -30.3011   24.6240 C   0  0  0  0  0  0
  -27.6049  -32.4382   25.7524 C   0  0  0  0  0  0
  -27.5579  -37.1754   24.8419 C   0  0  0  0  0  0
  -21.4196  -29.3040   22.3709 N   0  0  0  0  0  0
  -26.4230  -37.3787   23.9449 N   0  0  0  0  0  0
  -24.6932  -31.0541   22.0970 N   0  0  0  0  0  0
  -23.4218  -28.8063   23.2932 O   0  0  0  0  0  0
  -28.3415  -26.4575   20.1529 O   0  0  0  0  0  0
  -26.5599  -34.8912   22.4636 O   0  0  0  0  0  0
  -23.5444  -32.1377   23.7283 O   0  0  0  0  0  0
  -28.3483  -22.6859   19.0070 C   0  0  0  0  0  0
  -29.2556  -23.4929   21.0761 C   0  0  0  0  0  0
  -28.6625  -21.3374   19.3656 C   0  0  0  0  0  0
  -29.5728  -22.1445   21.4363 C   0  0  0  0  0  0
  -28.6504  -23.8081   19.8341 C   0  0  0  0  0  0
  -29.3082  -21.0281   20.5887 C   0  0  0  0  0  0
  -28.4764  -25.2740   19.2741 C   0  0  0  0  0  0
  -29.4345  -18.3817   20.3712 C   0  0  0  0  0  0
  -30.3298  -17.1854   20.9436 C   0  0  0  0  0  0
  -29.7344  -19.7141   20.9885 N   0  0  0  0  0  0
  -29.8739  -15.7547   20.7910 N   0  0  0  0  0  0
  -31.4683  -12.5030   19.1670 H   0  0  0  0  0  0
  -30.3404  -11.4079   19.9208 H   0  0  0  0  0  0
  -29.7634  -11.7369   17.4940 H   0  0  0  0  0  0
  -29.6441  -13.4632   17.7383 H   0  0  0  0  0  0
  -27.8604  -11.2895   18.8840 H   0  0  0  0  0  0
  -27.3667  -12.5642   17.7989 H   0  0  0  0  0  0
  -27.6555  -14.2539   19.5084 H   0  0  0  0  0  0
  -28.6995  -12.0908   21.3999 H   0  0  0  0  0  0
  -28.4362  -13.7600   21.8292 H   0  0  0  0  0  0
  -25.2766   -9.5660   22.4782 H   0  0  0  0  0  0
  -23.9997   -7.4617   22.7487 H   0  0  0  0  0  0
  -21.0847   -8.8780   19.8958 H   0  0  0  0  0  0
  -22.3727  -10.9667   19.6177 H   0  0  0  0  0  0
  -21.2028   -7.6154   23.9709 H   0  0  0  0  0  0
  -21.1483   -6.0534   25.9069 H   0  0  0  0  0  0
  -22.0597   -2.7619   23.2843 H   0  0  0  0  0  0
  -22.4143  -11.9773   22.4711 H   0  0  0  0  0  0
  -21.1168  -13.1203   22.2765 H   0  0  0  0  0  0
  -24.6548  -15.8443   20.5186 H   0  0  0  0  0  0
  -26.2685  -15.6273   20.0704 H   0  0  0  0  0  0
  -26.7191  -32.5393   23.1074 H   0  0  0  0  0  0
  -25.0135  -33.9704   25.0426 H   0  0  0  0  0  0
  -22.7207  -31.3028   21.4011 H   0  0  0  0  0  0
  -23.3743  -35.9617   23.3191 H   0  0  0  0  0  0
  -24.3582  -36.9053   22.2074 H   0  0  0  0  0  0
  -23.7214  -37.6454   23.6754 H   0  0  0  0  0  0
  -26.1015  -31.5383   20.6081 H   0  0  0  0  0  0
  -26.8466  -30.8239   22.0099 H   0  0  0  0  0  0
  -28.1152  -28.9444   21.1889 H   0  0  0  0  0  0
  -25.9065  -25.9038   19.0416 H   0  0  0  0  0  0
  -23.9604  -27.3239   19.0010 H   0  0  0  0  0  0
  -23.7669  -30.6090   19.4075 H   0  0  0  0  0  0
  -22.7579  -29.2623   19.8426 H   0  0  0  0  0  0
  -25.1243  -36.1863   25.0788 H   0  0  0  0  0  0
  -20.9978  -28.3217   24.1399 H   0  0  0  0  0  0
  -20.5667  -26.2243   23.3588 H   0  0  0  0  0  0
  -21.6612  -26.7379   22.1193 H   0  0  0  0  0  0
  -19.6859  -25.6267   21.1257 H   0  0  0  0  0  0
  -19.6673  -27.3173   20.6749 H   0  0  0  0  0  0
  -17.4160  -26.6703   21.4034 H   0  0  0  0  0  0
  -18.0287  -26.0052   22.9016 H   0  0  0  0  0  0
  -19.7948  -30.7301   24.2215 H   0  0  0  0  0  0
  -17.5017  -31.6271   24.5165 H   0  0  0  0  0  0
  -15.5365  -30.2988   23.7664 H   0  0  0  0  0  0
  -15.8661  -28.0838   22.7055 H   0  0  0  0  0  0
  -24.5923  -30.7059   25.7856 H   0  0  0  0  0  0
  -24.8912  -32.2948   26.4871 H   0  0  0  0  0  0
  -25.8089  -30.9014   27.0304 H   0  0  0  0  0  0
  -26.2989  -29.6742   24.1263 H   0  0  0  0  0  0
  -27.4067  -29.7297   25.4760 H   0  0  0  0  0  0
  -27.8833  -30.4274   23.9477 H   0  0  0  0  0  0
  -27.2655  -33.3753   26.1963 H   0  0  0  0  0  0
  -28.3953  -32.6848   25.0415 H   0  0  0  0  0  0
  -28.0611  -31.8605   26.5575 H   0  0  0  0  0  0
  -28.2424  -38.0206   24.7688 H   0  0  0  0  0  0
  -28.1254  -36.2762   24.5966 H   0  0  0  0  0  0
  -27.2348  -37.1064   25.8816 H   0  0  0  0  0  0
  -20.9342  -29.8884   21.7045 H   0  0  0  0  0  0
  -26.0084  -38.2808   24.1636 H   0  0  0  0  0  0
  -27.8990  -22.8593   18.0390 H   0  0  0  0  0  0
  -29.5187  -24.2947   21.7510 H   0  0  0  0  0  0
  -28.4389  -20.5466   18.6618 H   0  0  0  0  0  0
  -30.0599  -21.9842   22.3874 H   0  0  0  0  0  0
  -27.7532  -25.2574   18.4602 H   0  0  0  0  0  0
  -29.4074  -25.4607   18.7390 H   0  0  0  0  0  0
  -28.3804  -18.1576   20.5439 H   0  0  0  0  0  0
  -29.5594  -18.4421   19.2891 H   0  0  0  0  0  0
  -30.4240  -17.3306   22.0217 H   0  0  0  0  0  0
  -31.3419  -17.2909   20.5491 H   0  0  0  0  0  0
  -30.3079  -19.6726   21.8283 H   0  0  0  0  0  0
  -28.9110  -15.5685   21.0252 H   0  0  0  0  0  0
  1 25  1  0  0  0
  1 30  2  0  0  0
  1 81  1  0  0  0
  2  3  1  0  0  0
  2 25  1  0  0  0
  2 82  1  0  0  0
  2 83  1  0  0  0
  3  4  1  0  0  0
  3 84  1  0  0  0
  3 85  1  0  0  0
  4  5  1  0  0  0
  4 86  1  0  0  0
  4 87  1  0  0  0
  5  6  1  0  0  0
  5 26  1  0  0  0
  5 88  1  0  0  0
  6 25  1  0  0  0
  6 89  1  0  0  0
  6 90  1  0  0  0
  7  8  2  0  0  0
  7 26  1  0  0  0
  7 29  1  0  0  0
  8  9  1  0  0  0
  8 22  1  0  0  0
  9 10  1  0  0  0
  9 27  2  0  0  0
 10 11  2  0  0  0
 10 15  1  0  0  0
 11 12  1  0  0  0
 11 91  1  0  0  0
 12 13  2  0  0  0
 12 92  1  0  0  0
 13 14  1  0  0  0
 13 31  1  0  0  0
 14 15  2  0  0  0
 14 93  1  0  0  0
 15 94  1  0  0  0
 16 17  2  0  0  0
 16 21  1  0  0  0
 16 31  1  0  0  0
 17 18  1  0  0  0
 17 95  1  0  0  0
 18 19  2  0  0  0
 18 96  1  0  0  0
 19 20  1  0  0  0
 19 24  1  0  0  0
 20 21  2  0  0  0
 20 97  1  0  0  0
 21 23  1  0  0  0
 22 28  1  0  0  0
 22 32  2  0  0  0
 26 27  1  0  0  0
 28 98  1  0  0  0
 28 99  1  0  0  0
 29100  1  0  0  0
 29101  1  0  0  0
 33 34  1  0  0  0
 33 66  1  0  0  0
 33 70  2  0  0  0
 34 36  1  0  0  0
 34 59  1  0  0  0
 34102  1  0  0  0
 35 44  2  0  0  0
 35 45  1  0  0  0
 35 68  1  0  0  0
 36 56  1  0  0  0
 36103  1  0  0  0
 37 39  1  0  0  0
 37 47  1  0  0  0
 37 66  1  0  0  0
 37104  1  0  0  0
 38 43  2  0  0  0
 38 46  1  0  0  0
 38 47  1  0  0  0
 39 64  1  0  0  0
 39 67  2  0  0  0
 40 52  1  0  0  0
 40 53  2  0  0  0
 40 58  1  0  0  0
 41105  1  0  0  0
 41106  1  0  0  0
 41107  1  0  0  0
 41 48  1  0  0  0
 42 43  1  0  0  0
 42 66  1  0  0  0
 42108  1  0  0  0
 42109  1  0  0  0
 43 44  1  0  0  0
 44110  1  0  0  0
 45 46  2  0  0  0
 45111  1  0  0  0
 46112  1  0  0  0
 47113  1  0  0  0
 47114  1  0  0  0
 48 56  1  0  0  0
 48 65  1  0  0  0
 48115  1  0  0  0
 49 50  1  0  0  0
 49 53  1  0  0  0
 49 64  1  0  0  0
 49116  1  0  0  0
 50 51  1  0  0  0
 50117  1  0  0  0
 50118  1  0  0  0
 51 52  1  0  0  0
 51119  1  0  0  0
 51120  1  0  0  0
 52121  1  0  0  0
 52122  1  0  0  0
 53 54  1  0  0  0
 54 55  2  0  0  0
 54123  1  0  0  0
 55 57  1  0  0  0
 55124  1  0  0  0
 56 69  2  0  0  0
 57 58  2  0  0  0
 57125  1  0  0  0
 58126  1  0  0  0
 59 60  1  0  0  0
 59 61  1  0  0  0
 59 62  1  0  0  0
 60127  1  0  0  0
 60128  1  0  0  0
 60129  1  0  0  0
 61130  1  0  0  0
 61131  1  0  0  0
 61132  1  0  0  0
 62133  1  0  0  0
 62134  1  0  0  0
 62135  1  0  0  0
 63 65  1  0  0  0
 63136  1  0  0  0
 63137  1  0  0  0
 63138  1  0  0  0
 64139  1  0  0  0
 65140  1  0  0  0
 68 77  1  0  0  0
 71 73  2  0  0  0
 71 75  1  0  0  0
 71141  1  0  0  0
 72 74  1  0  0  0
 72 75  2  0  0  0
 72142  1  0  0  0
 73 76  1  0  0  0
 73143  1  0  0  0
 74 76  2  0  0  0
 74144  1  0  0  0
 75 77  1  0  0  0
 76 80  1  0  0  0
 77145  1  0  0  0
 77146  1  0  0  0
 78 79  1  0  0  0
 78 80  1  0  0  0
 78147  1  0  0  0
 78148  1  0  0  0
 79 81  1  0  0  0
 79149  1  0  0  0
 79150  1  0  0  0
 80151  1  0  0  0
 81152  1  0  0  0
M  ISO  4   1 100  68 101  77 101  81 100
M  END
> <chiral flag>
0

> <version>
0

> <s_m_source_file>
/data/baiqing/PycharmProjects/Reinvent-master-3.2/result/LINK_invent/BTK/process_docking_weight1_custom_sum_contain_oxygen_bond_distance_aromatic_linkinvent_7_9_3/rearranged_h_0132.sdf

> <i_m_source_file_index>
3

> <r_mmod_Potential_Energy-OPLS-2005>
6.39830541610718

> <r_mmod_Stretch_Energy-OPLS-2005>
80.6211547851562

> <r_mmod_Bend_Energy-OPLS-2005>
163.270812988281

> <r_mmod_Torsional_Energy-OPLS-2005>
201.040878295898

> <r_mmod_Improper_Torsional_Energy-OPLS-2005>
4.8228611946106

> <r_mmod_Van_der_Waal_Energy-OPLS-2005>
142.937774658203

> <r_mmod_Electrostatic_Energy-OPLS-2005>
-416.407012939453

> <r_mmod_Solvation_Energy-OPLS-2005>
-224.863861083984

> <b_mmod_Minimization_Converged-OPLS-2005>
0

> <r_mmod_RMS_Derivative-OPLS-2005>
3.12634038925171

$$$$
3
                    3D
 Structure written by MMmdl.
154162  0  0  1  0            999 V2000
  -30.5015  -14.7359   20.5349 C   0  0  0  0  0  0
  -30.4188  -12.4779   19.4623 C   0  0  0  0  0  0
  -29.4819  -12.5574   18.2325 C   0  0  0  0  0  0
  -28.0112  -12.3523   18.6435 C   0  0  0  0  0  0
  -27.6272  -13.2106   19.8760 C   0  0  2  0  0  0
  -28.6554  -13.0648   21.0132 C   0  0  0  0  0  0
  -25.2355  -13.8099   20.5701 C   0  0  0  0  0  0
  -24.1656  -13.0406   20.9225 C   0  0  0  0  0  0
  -24.6253  -11.6865   20.8844 C   0  0  0  0  0  0
  -23.8960  -10.4270   21.0527 C   0  0  0  0  0  0
  -24.3557   -9.4153   21.9241 C   0  0  0  0  0  0
  -23.6281   -8.2155   22.0768 C   0  0  0  0  0  0
  -22.4296   -8.0217   21.3510 C   0  0  0  0  0  0
  -21.9901   -9.0166   20.4593 C   0  0  0  0  0  0
  -22.7209  -10.2063   20.3073 C   0  0  0  0  0  0
  -21.6818   -6.0737   22.5306 C   0  0  0  0  0  0
  -21.3980   -6.5652   23.8244 C   0  0  0  0  0  0
  -21.3626   -5.6810   24.9192 C   0  0  0  0  0  0
  -21.6034   -4.3091   24.7245 C   0  0  0  0  0  0
  -21.8800   -3.8166   23.4373 C   0  0  0  0  0  0
  -21.9150   -4.6956   22.3438 C   0  0  0  0  0  0
  -22.7639  -13.5159   21.1920 C   0  0  0  0  0  0
  -22.1661   -4.2115   21.1030 F   0  0  0  0  0  0
  -21.5651   -3.4626   25.7783 F   0  0  0  0  0  0
  -29.9520  -13.4769   20.4545 N   0  0  0  0  0  0
  -26.2767  -12.9250   20.3342 N   0  0  0  0  0  0
  -25.9183  -11.6419   20.5898 N   0  0  0  0  0  0
  -22.0328  -12.8032   22.0440 N   0  0  0  0  0  0
  -25.4135  -15.1791   20.4000 N   0  0  0  0  0  0
  -31.6716  -14.9178   20.1748 O   0  0  0  0  0  0
  -21.6618   -6.8858   21.4288 O   0  0  0  0  0  0
  -22.3315  -14.5558   20.6952 O   0  0  0  0  0  0
  -24.6336  -31.8572   23.2010 C   0  0  0  0  0  0
  -25.9124  -32.4782   23.8380 C   0  0  1  0  0  0
  -27.1627  -27.2394   20.1269 C   0  0  0  0  0  0
  -25.5920  -33.8594   24.2307 N   0  0  0  0  0  0
  -23.4305  -30.4858   21.5440 C   0  0  2  0  0  0
  -24.8661  -28.9369   20.1116 C   0  0  0  0  0  0
  -22.7519  -29.4639   22.4890 C   0  0  0  0  0  0
  -18.0303  -28.1392   22.8450 C   0  0  0  0  0  0
  -24.1488  -36.7267   23.2633 C   0  0  0  0  0  0
  -25.9805  -30.7674   21.3795 C   0  0  0  0  0  0
  -26.0454  -29.3884   20.7233 C   0  0  0  0  0  0
  -27.2115  -28.5487   20.7178 C   0  0  0  0  0  0
  -25.9797  -26.8820   19.4577 C   0  0  0  0  0  0
  -24.8379  -27.6936   19.4679 C   0  0  0  0  0  0
  -23.6467  -29.8342   20.1556 C   0  0  0  0  0  0
  -25.4118  -36.3101   24.0331 C   0  0  1  0  0  0
  -20.5899  -28.3719   23.1231 C   0  0  2  0  0  0
  -20.6777  -26.9426   22.5396 C   0  0  0  0  0  0
  -19.5759  -26.6374   21.5185 C   0  0  0  0  0  0
  -18.1946  -26.7935   22.1608 C   0  0  0  0  0  0
  -19.1552  -28.8885   23.2843 C   0  0  0  0  0  0
  -18.9481  -30.1471   23.8871 C   0  0  0  0  0  0
  -17.6470  -30.6599   24.0558 C   0  0  0  0  0  0
  -25.9061  -34.9466   23.5135 C   0  0  0  0  0  0
  -16.5359  -29.9097   23.6309 C   0  0  0  0  0  0
  -16.7288  -28.6527   23.0337 C   0  0  0  0  0  0
  -26.4474  -31.6593   25.0752 C   0  0  0  0  0  0
  -25.3645  -31.3694   26.1410 C   0  0  0  0  0  0
  -27.0301  -30.3044   24.6156 C   0  0  0  0  0  0
  -27.6079  -32.4255   25.7536 C   0  0  0  0  0  0
  -27.5595  -37.1804   24.8466 C   0  0  0  0  0  0
  -21.4224  -29.3080   22.3631 N   0  0  0  0  0  0
  -26.4296  -37.3798   23.9411 N   0  0  0  0  0  0
  -24.7024  -31.0542   22.0986 N   0  0  0  0  0  0
  -23.4221  -28.8135   23.2979 O   0  0  0  0  0  0
  -28.1599  -26.2436   20.1837 O   0  0  0  0  0  0
  -26.5631  -34.8921   22.4714 O   0  0  0  0  0  0
  -23.5455  -32.1429   23.7243 O   0  0  0  0  0  0
  -26.5802  -23.1418   19.5261 C   0  0  0  0  0  0
  -28.5049  -22.3506   20.7160 C   0  0  0  0  0  0
  -26.3106  -21.7882   19.2260 C   0  0  0  0  0  0
  -27.6998  -23.4958   20.3113 C   0  0  0  0  0  0
  -28.1749  -20.9815   20.3764 C   0  0  0  0  0  0
  -28.5877  -24.9426   22.2435 C   0  0  0  0  0  0
  -28.6757  -18.3554   20.6323 C   0  0  0  0  0  0
  -29.8839  -17.3025   20.9256 C   0  0  0  0  0  0
  -27.7932  -24.9773   20.9338 C   0  0  1  0  0  0
  -27.0740  -20.7386   19.6302 N   0  0  0  0  0  0
  -28.9583  -19.8390   20.8176 N   0  0  0  0  0  0
  -29.6506  -15.7924   20.8514 N   0  0  0  0  0  0
  -31.4493  -12.6617   19.1478 H   0  0  0  0  0  0
  -30.4179  -11.4791   19.8932 H   0  0  0  0  0  0
  -29.7607  -11.8243   17.4736 H   0  0  0  0  0  0
  -29.5747  -13.5369   17.7645 H   0  0  0  0  0  0
  -27.8647  -11.2959   18.8653 H   0  0  0  0  0  0
  -27.3417  -12.5869   17.8144 H   0  0  0  0  0  0
  -27.6430  -14.2465   19.5426 H   0  0  0  0  0  0
  -28.6890  -12.0309   21.3644 H   0  0  0  0  0  0
  -28.3666  -13.6549   21.8840 H   0  0  0  0  0  0
  -25.2753   -9.5629   22.4727 H   0  0  0  0  0  0
  -23.9995   -7.4522   22.7476 H   0  0  0  0  0  0
  -21.0879   -8.8707   19.8818 H   0  0  0  0  0  0
  -22.3781  -10.9605   19.6114 H   0  0  0  0  0  0
  -21.2003   -7.6160   23.9758 H   0  0  0  0  0  0
  -21.1483   -6.0552   25.9090 H   0  0  0  0  0  0
  -22.0605   -2.7602   23.2920 H   0  0  0  0  0  0
  -22.4179  -11.9758   22.4658 H   0  0  0  0  0  0
  -21.0897  -13.0827   22.2875 H   0  0  0  0  0  0
  -24.6648  -15.8619   20.4812 H   0  0  0  0  0  0
  -26.2655  -15.5850   20.0432 H   0  0  0  0  0  0
  -26.7215  -32.5434   23.1156 H   0  0  0  0  0  0
  -25.0040  -33.9791   25.0424 H   0  0  0  0  0  0
  -22.7286  -31.3093   21.4044 H   0  0  0  0  0  0
  -23.3800  -35.9553   23.3285 H   0  0  0  0  0  0
  -24.3574  -36.8894   22.2049 H   0  0  0  0  0  0
  -23.7175  -37.6433   23.6661 H   0  0  0  0  0  0
  -26.1101  -31.5226   20.6012 H   0  0  0  0  0  0
  -26.8670  -30.8266   22.0016 H   0  0  0  0  0  0
  -28.1197  -28.8741   21.2068 H   0  0  0  0  0  0
  -25.9245  -25.9381   18.9416 H   0  0  0  0  0  0
  -23.9377  -27.3517   18.9741 H   0  0  0  0  0  0
  -23.7864  -30.6205   19.4111 H   0  0  0  0  0  0
  -22.7600  -29.2778   19.8384 H   0  0  0  0  0  0
  -25.1297  -36.1994   25.0819 H   0  0  0  0  0  0
  -21.0008  -28.3327   24.1338 H   0  0  0  0  0  0
  -20.5626  -26.2356   23.3615 H   0  0  0  0  0  0
  -21.6659  -26.7396   22.1235 H   0  0  0  0  0  0
  -19.6920  -25.6281   21.1251 H   0  0  0  0  0  0
  -19.6704  -27.3138   20.6676 H   0  0  0  0  0  0
  -17.4198  -26.6638   21.4039 H   0  0  0  0  0  0
  -18.0382  -26.0104   22.9033 H   0  0  0  0  0  0
  -19.7951  -30.7267   24.2243 H   0  0  0  0  0  0
  -17.5040  -31.6271   24.5181 H   0  0  0  0  0  0
  -15.5365  -30.3007   23.7631 H   0  0  0  0  0  0
  -15.8716  -28.0848   22.7036 H   0  0  0  0  0  0
  -24.5879  -30.7011   25.7688 H   0  0  0  0  0  0
  -24.8710  -32.2795   26.4817 H   0  0  0  0  0  0
  -25.7861  -30.8870   27.0230 H   0  0  0  0  0  0
  -26.2868  -29.6838   24.1128 H   0  0  0  0  0  0
  -27.4014  -29.7265   25.4633 H   0  0  0  0  0  0
  -27.8748  -30.4438   23.9404 H   0  0  0  0  0  0
  -27.2824  -33.3633   26.2089 H   0  0  0  0  0  0
  -28.3919  -32.6644   25.0327 H   0  0  0  0  0  0
  -28.0700  -31.8307   26.5448 H   0  0  0  0  0  0
  -28.2583  -38.0139   24.7560 H   0  0  0  0  0  0
  -28.1118  -36.2647   24.6251 H   0  0  0  0  0  0
  -27.2291  -37.1429   25.8867 H   0  0  0  0  0  0
  -20.9399  -29.8888   21.6905 H   0  0  0  0  0  0
  -26.0184  -38.2872   24.1428 H   0  0  0  0  0  0
  -25.8607  -23.8730   19.1988 H   0  0  0  0  0  0
  -29.3573  -22.5213   21.3563 H   0  0  0  0  0  0
  -25.4114  -21.5521   18.6699 H   0  0  0  0  0  0
  -28.1471  -24.2017   22.9173 H   0  0  0  0  0  0
  -28.5734  -25.9000   22.7624 H   0  0  0  0  0  0
  -29.6289  -24.6669   22.0743 H   0  0  0  0  0  0
  -27.8339  -18.1003   21.2836 H   0  0  0  0  0  0
  -28.2977  -18.2135   19.6181 H   0  0  0  0  0  0
  -30.2484  -17.5132   21.9379 H   0  0  0  0  0  0
  -30.7266  -17.5379   20.2713 H   0  0  0  0  0  0
  -26.7680  -25.1342   21.2692 H   0  0  0  0  0  0
  -29.7204  -20.0537   21.4585 H   0  0  0  0  0  0
  -28.7203  -15.5003   21.1201 H   0  0  0  0  0  0
  1 25  1  0  0  0
  1 30  2  0  0  0
  1 82  1  0  0  0
  2  3  1  0  0  0
  2 25  1  0  0  0
  2 83  1  0  0  0
  2 84  1  0  0  0
  3  4  1  0  0  0
  3 85  1  0  0  0
  3 86  1  0  0  0
  4  5  1  0  0  0
  4 87  1  0  0  0
  4 88  1  0  0  0
  5  6  1  0  0  0
  5 26  1  0  0  0
  5 89  1  0  0  0
  6 25  1  0  0  0
  6 90  1  0  0  0
  6 91  1  0  0  0
  7  8  2  0  0  0
  7 26  1  0  0  0
  7 29  1  0  0  0
  8  9  1  0  0  0
  8 22  1  0  0  0
  9 10  1  0  0  0
  9 27  2  0  0  0
 10 11  2  0  0  0
 10 15  1  0  0  0
 11 12  1  0  0  0
 11 92  1  0  0  0
 12 13  2  0  0  0
 12 93  1  0  0  0
 13 14  1  0  0  0
 13 31  1  0  0  0
 14 15  2  0  0  0
 14 94  1  0  0  0
 15 95  1  0  0  0
 16 17  2  0  0  0
 16 21  1  0  0  0
 16 31  1  0  0  0
 17 18  1  0  0  0
 17 96  1  0  0  0
 18 19  2  0  0  0
 18 97  1  0  0  0
 19 20  1  0  0  0
 19 24  1  0  0  0
 20 21  2  0  0  0
 20 98  1  0  0  0
 21 23  1  0  0  0
 22 28  1  0  0  0
 22 32  2  0  0  0
 26 27  1  0  0  0
 28 99  1  0  0  0
 28100  1  0  0  0
 29101  1  0  0  0
 29102  1  0  0  0
 33 34  1  0  0  0
 33 66  1  0  0  0
 33 70  2  0  0  0
 34 36  1  0  0  0
 34 59  1  0  0  0
 34103  1  0  0  0
 35 44  2  0  0  0
 35 45  1  0  0  0
 35 68  1  0  0  0
 36 56  1  0  0  0
 36104  1  0  0  0
 37 39  1  0  0  0
 37 47  1  0  0  0
 37 66  1  0  0  0
 37105  1  0  0  0
 38 43  2  0  0  0
 38 46  1  0  0  0
 38 47  1  0  0  0
 39 64  1  0  0  0
 39 67  2  0  0  0
 40 52  1  0  0  0
 40 53  2  0  0  0
 40 58  1  0  0  0
 41106  1  0  0  0
 41107  1  0  0  0
 41108  1  0  0  0
 41 48  1  0  0  0
 42 43  1  0  0  0
 42 66  1  0  0  0
 42109  1  0  0  0
 42110  1  0  0  0
 43 44  1  0  0  0
 44111  1  0  0  0
 45 46  2  0  0  0
 45112  1  0  0  0
 46113  1  0  0  0
 47114  1  0  0  0
 47115  1  0  0  0
 48 56  1  0  0  0
 48 65  1  0  0  0
 48116  1  0  0  0
 49 50  1  0  0  0
 49 53  1  0  0  0
 49 64  1  0  0  0
 49117  1  0  0  0
 50 51  1  0  0  0
 50118  1  0  0  0
 50119  1  0  0  0
 51 52  1  0  0  0
 51120  1  0  0  0
 51121  1  0  0  0
 52122  1  0  0  0
 52123  1  0  0  0
 53 54  1  0  0  0
 54 55  2  0  0  0
 54124  1  0  0  0
 55 57  1  0  0  0
 55125  1  0  0  0
 56 69  2  0  0  0
 57 58  2  0  0  0
 57126  1  0  0  0
 58127  1  0  0  0
 59 60  1  0  0  0
 59 61  1  0  0  0
 59 62  1  0  0  0
 60128  1  0  0  0
 60129  1  0  0  0
 60130  1  0  0  0
 61131  1  0  0  0
 61132  1  0  0  0
 61133  1  0  0  0
 62134  1  0  0  0
 62135  1  0  0  0
 62136  1  0  0  0
 63 65  1  0  0  0
 63137  1  0  0  0
 63138  1  0  0  0
 63139  1  0  0  0
 64140  1  0  0  0
 65141  1  0  0  0
 68 79  1  0  0  0
 71 73  2  0  0  0
 71 74  1  0  0  0
 71142  1  0  0  0
 72 74  2  0  0  0
 72 75  1  0  0  0
 72143  1  0  0  0
 73 80  1  0  0  0
 73144  1  0  0  0
 74 79  1  0  0  0
 75 80  2  0  0  0
 75 81  1  0  0  0
 76145  1  0  0  0
 76146  1  0  0  0
 76147  1  0  0  0
 76 79  1  0  0  0
 77 78  1  0  0  0
 77 81  1  0  0  0
 77148  1  0  0  0
 77149  1  0  0  0
 78 82  1  0  0  0
 78150  1  0  0  0
 78151  1  0  0  0
 79152  1  0  0  0
 81153  1  0  0  0
 82154  1  0  0  0
M  ISO  4   1 100  68 101  79 101  82 100
M  END
> <chiral flag>
0

> <version>
0

> <s_m_source_file>
/data/baiqing/PycharmProjects/Reinvent-master-3.2/result/LINK_invent/BTK/process_docking_weight1_custom_sum_contain_oxygen_bond_distance_aromatic_linkinvent_7_9_3/rearranged_h_0132.sdf

> <i_m_source_file_index>
4

> <r_mmod_Potential_Energy-OPLS-2005>
-99.9296798706055

> <r_mmod_Stretch_Energy-OPLS-2005>
127.390510559082

> <r_mmod_Bend_Energy-OPLS-2005>
182.36735534668

> <r_mmod_Torsional_Energy-OPLS-2005>
230.157684326172

> <r_mmod_Improper_Torsional_Energy-OPLS-2005>
7.08195924758911

> <r_mmod_Van_der_Waal_Energy-OPLS-2005>
142.546722412109

> <r_mmod_Electrostatic_Energy-OPLS-2005>
-653.424987792969

> <r_mmod_Solvation_Energy-OPLS-2005>
-242.988998413086

> <b_mmod_Minimization_Converged-OPLS-2005>
0

> <r_mmod_RMS_Derivative-OPLS-2005>
9.32384777069092

$$$$
4
                    3D
 Structure written by MMmdl.
169178  0  0  1  0            999 V2000
  -30.7256  -14.3814   20.6789 C   0  0  0  0  0  0
  -30.4312  -12.3144   19.3627 C   0  0  0  0  0  0
  -29.4718  -12.5340   18.1752 C   0  0  0  0  0  0
  -27.9978  -12.3700   18.6004 C   0  0  0  0  0  0
  -27.6657  -13.1687   19.8851 C   0  0  2  0  0  0
  -28.7171  -12.8580   20.9786 C   0  0  0  0  0  0
  -25.2643  -13.8076   20.5654 C   0  0  0  0  0  0
  -24.1874  -13.0416   20.9242 C   0  0  0  0  0  0
  -24.6360  -11.6860   20.8814 C   0  0  0  0  0  0
  -23.9017  -10.4276   21.0468 C   0  0  0  0  0  0
  -24.3584   -9.4170   21.9231 C   0  0  0  0  0  0
  -23.6271   -8.2204   22.0764 C   0  0  0  0  0  0
  -22.4253   -8.0263   21.3550 C   0  0  0  0  0  0
  -21.9890   -9.0239   20.4646 C   0  0  0  0  0  0
  -22.7208  -10.2125   20.3089 C   0  0  0  0  0  0
  -21.6848   -6.0727   22.5277 C   0  0  0  0  0  0
  -21.3996   -6.5633   23.8209 C   0  0  0  0  0  0
  -21.3665   -5.6788   24.9172 C   0  0  0  0  0  0
  -21.6042   -4.3058   24.7221 C   0  0  0  0  0  0
  -21.8824   -3.8141   23.4354 C   0  0  0  0  0  0
  -21.9177   -4.6955   22.3400 C   0  0  0  0  0  0
  -22.7896  -13.5233   21.1850 C   0  0  0  0  0  0
  -22.1663   -4.2133   21.0988 F   0  0  0  0  0  0
  -21.5630   -3.4546   25.7747 F   0  0  0  0  0  0
  -30.0378  -13.2300   20.4426 N   0  0  0  0  0  0
  -26.3033  -12.9159   20.3405 N   0  0  0  0  0  0
  -25.9268  -11.6368   20.5826 N   0  0  0  0  0  0
  -22.0497  -12.8262   22.0387 N   0  0  0  0  0  0
  -25.4385  -15.1799   20.3791 N   0  0  0  0  0  0
  -31.8158  -14.6341   20.1599 O   0  0  0  0  0  0
  -21.6625   -6.8867   21.4241 O   0  0  0  0  0  0
  -22.3665  -14.5582   20.6689 O   0  0  0  0  0  0
  -24.6129  -31.8705   23.2148 C   0  0  0  0  0  0
  -25.9029  -32.4831   23.8441 C   0  0  1  0  0  0
  -27.2309  -27.4524   20.0726 C   0  0  0  0  0  0
  -25.5898  -33.8630   24.2358 N   0  0  0  0  0  0
  -23.3986  -30.4970   21.5558 C   0  0  2  0  0  0
  -24.8411  -28.9734   20.1085 C   0  0  0  0  0  0
  -22.7403  -29.4686   22.5025 C   0  0  0  0  0  0
  -18.0293  -28.1308   22.8484 C   0  0  0  0  0  0
  -24.1479  -36.7321   23.2638 C   0  0  0  0  0  0
  -25.9274  -30.8337   21.3719 C   0  0  0  0  0  0
  -25.9986  -29.4716   20.7176 C   0  0  0  0  0  0
  -27.1902  -28.7123   20.7097 C   0  0  0  0  0  0
  -26.0633  -26.9928   19.4181 C   0  0  0  0  0  0
  -24.8661  -27.7275   19.4635 C   0  0  0  0  0  0
  -23.6010  -29.8340   20.1670 C   0  0  0  0  0  0
  -25.4105  -36.3116   24.0336 C   0  0  1  0  0  0
  -20.5880  -28.3590   23.1243 C   0  0  2  0  0  0
  -20.6828  -26.9396   22.5172 C   0  0  0  0  0  0
  -19.5698  -26.6398   21.5072 C   0  0  0  0  0  0
  -18.1913  -26.7890   22.1556 C   0  0  0  0  0  0
  -19.1550  -28.8748   23.2918 C   0  0  0  0  0  0
  -18.9498  -30.1377   23.8935 C   0  0  0  0  0  0
  -17.6501  -30.6528   24.0570 C   0  0  0  0  0  0
  -25.9041  -34.9477   23.5146 C   0  0  0  0  0  0
  -16.5403  -29.9040   23.6343 C   0  0  0  0  0  0
  -16.7288  -28.6456   23.0356 C   0  0  0  0  0  0
  -26.4457  -31.6620   25.0771 C   0  0  0  0  0  0
  -25.3735  -31.3726   26.1538 C   0  0  0  0  0  0
  -27.0289  -30.3067   24.6148 C   0  0  0  0  0  0
  -27.6031  -32.4355   25.7524 C   0  0  0  0  0  0
  -27.5585  -37.1820   24.8470 C   0  0  0  0  0  0
  -21.4135  -29.3046   22.3733 N   0  0  0  0  0  0
  -26.4306  -37.3800   23.9397 N   0  0  0  0  0  0
  -24.6639  -31.0810   22.1054 N   0  0  0  0  0  0
  -23.4176  -28.8201   23.3044 O   0  0  0  0  0  0
  -28.4163  -26.7448   20.1061 O   0  0  0  0  0  0
  -26.5586  -34.8938   22.4696 O   0  0  0  0  0  0
  -23.5322  -32.1458   23.7539 O   0  0  0  0  0  0
  -26.2308  -23.3031   21.9960 C   0  0  0  0  0  0
  -28.4494  -22.3252   21.9776 C   0  0  0  0  0  0
  -26.6719  -24.3051   21.1190 C   0  0  0  0  0  0
  -28.8887  -23.3361   21.0992 C   0  0  0  0  0  0
  -27.1058  -22.2789   22.4234 C   0  0  0  0  0  0
  -28.0018  -24.3375   20.6533 C   0  0  0  0  0  0
  -25.8025  -19.6118   21.1377 C   0  0  0  0  0  0
  -27.3275  -19.8032   23.1893 C   0  0  0  0  0  0
  -24.7300  -19.8859   22.2109 C   0  0  0  0  0  0
  -26.5936  -21.1607   23.3524 C   0  0  1  0  0  0
  -27.1760  -19.2463   21.7505 C   0  0  2  0  0  0
  -28.4776  -25.3884   19.6471 C   0  0  0  0  0  0
  -28.9306  -15.9315   21.2924 C   0  0  0  0  0  0
  -28.7780  -17.3035   21.9532 C   0  0  0  0  0  0
  -30.1928  -15.2387   21.5637 N   0  0  0  0  0  0
  -25.1326  -20.9442   23.1724 N   0  3  0  0  0  0
  -27.4084  -17.7877   21.6614 N   0  3  0  0  0  0
  -31.4608  -12.4703   19.0352 H   0  0  0  0  0  0
  -30.3835  -11.2803   19.7084 H   0  0  0  0  0  0
  -29.7030  -11.8377   17.3678 H   0  0  0  0  0  0
  -29.6232  -13.5359   17.7649 H   0  0  0  0  0  0
  -27.8057  -11.3064   18.7592 H   0  0  0  0  0  0
  -27.3413  -12.6838   17.7871 H   0  0  0  0  0  0
  -27.7296  -14.2183   19.6129 H   0  0  0  0  0  0
  -28.7096  -11.7876   21.1901 H   0  0  0  0  0  0
  -28.4898  -13.3053   21.9450 H   0  0  0  0  0  0
  -25.2735   -9.5637   22.4798 H   0  0  0  0  0  0
  -23.9992   -7.4583   22.7458 H   0  0  0  0  0  0
  -21.0840   -8.8739   19.8943 H   0  0  0  0  0  0
  -22.3687  -10.9670   19.6192 H   0  0  0  0  0  0
  -21.1992   -7.6138   23.9705 H   0  0  0  0  0  0
  -21.1489   -6.0526   25.9075 H   0  0  0  0  0  0
  -22.0600   -2.7601   23.2859 H   0  0  0  0  0  0
  -22.4089  -11.9926   22.4799 H   0  0  0  0  0  0
  -21.1086  -13.1270   22.2522 H   0  0  0  0  0  0
  -24.5480  -15.6561   20.2818 H   0  0  0  0  0  0
  -26.0270  -15.3786   19.5798 H   0  0  0  0  0  0
  -26.7083  -32.5539   23.1203 H   0  0  0  0  0  0
  -25.0037  -33.9798   25.0497 H   0  0  0  0  0  0
  -22.6868  -31.3130   21.4226 H   0  0  0  0  0  0
  -23.3745  -35.9658   23.3320 H   0  0  0  0  0  0
  -24.3577  -36.8916   22.2053 H   0  0  0  0  0  0
  -23.7241  -37.6539   23.6637 H   0  0  0  0  0  0
  -26.0462  -31.6021   20.6057 H   0  0  0  0  0  0
  -26.8141  -30.8797   21.9918 H   0  0  0  0  0  0
  -28.0803  -29.0880   21.1938 H   0  0  0  0  0  0
  -26.0439  -26.0578   18.8797 H   0  0  0  0  0  0
  -23.9793  -27.3426   18.9773 H   0  0  0  0  0  0
  -23.6984  -30.6119   19.4093 H   0  0  0  0  0  0
  -22.7269  -29.2471   19.8773 H   0  0  0  0  0  0
  -25.1282  -36.1997   25.0835 H   0  0  0  0  0  0
  -20.9996  -28.3041   24.1361 H   0  0  0  0  0  0
  -20.6034  -26.2099   23.3247 H   0  0  0  0  0  0
  -21.6628  -26.7663   22.0693 H   0  0  0  0  0  0
  -19.6514  -27.3245   20.6622 H   0  0  0  0  0  0
  -19.6872  -25.6328   21.1054 H   0  0  0  0  0  0
  -17.4154  -26.6633   21.3978 H   0  0  0  0  0  0
  -18.0346  -25.9961   22.8874 H   0  0  0  0  0  0
  -19.7965  -30.7225   24.2282 H   0  0  0  0  0  0
  -17.5045  -31.6207   24.5179 H   0  0  0  0  0  0
  -15.5396  -30.2918   23.7706 H   0  0  0  0  0  0
  -15.8700  -28.0763   22.7106 H   0  0  0  0  0  0
  -24.5888  -30.7091   25.7889 H   0  0  0  0  0  0
  -24.8963  -32.2884   26.5034 H   0  0  0  0  0  0
  -25.8117  -30.8871   27.0270 H   0  0  0  0  0  0
  -26.2840  -29.6863   24.1154 H   0  0  0  0  0  0
  -27.3997  -29.7277   25.4615 H   0  0  0  0  0  0
  -27.8704  -30.4400   23.9347 H   0  0  0  0  0  0
  -27.2627  -33.3623   26.2161 H   0  0  0  0  0  0
  -28.3805  -32.6979   25.0334 H   0  0  0  0  0  0
  -28.0738  -31.8458   26.5403 H   0  0  0  0  0  0
  -28.2620  -38.0097   24.7508 H   0  0  0  0  0  0
  -28.1057  -36.2639   24.6304 H   0  0  0  0  0  0
  -27.2301  -37.1487   25.8872 H   0  0  0  0  0  0
  -20.9290  -29.8768   21.6957 H   0  0  0  0  0  0
  -26.0195  -38.2887   24.1383 H   0  0  0  0  0  0
  -25.2000  -23.3456   22.3164 H   0  0  0  0  0  0
  -29.1689  -21.5843   22.2921 H   0  0  0  0  0  0
  -25.9491  -25.0346   20.8173 H   0  0  0  0  0  0
  -29.9146  -23.3302   20.7606 H   0  0  0  0  0  0
  -25.9165  -20.5051   20.5204 H   0  0  0  0  0  0
  -25.4580  -18.8353   20.4530 H   0  0  0  0  0  0
  -26.9184  -19.0961   23.9144 H   0  0  0  0  0  0
  -28.3805  -19.8986   23.4480 H   0  0  0  0  0  0
  -24.5331  -18.9716   22.7714 H   0  0  0  0  0  0
  -23.7865  -20.1623   21.7402 H   0  0  0  0  0  0
  -26.7441  -21.5242   24.3698 H   0  0  0  0  0  0
  -27.9291  -19.7183   21.1171 H   0  0  0  0  0  0
  -27.9821  -25.2450   18.6893 H   0  0  0  0  0  0
  -29.5293  -25.1954   19.4347 H   0  0  0  0  0  0
  -28.8224  -16.0614   20.2125 H   0  0  0  0  0  0
  -28.0911  -15.3301   21.6306 H   0  0  0  0  0  0
  -28.9288  -17.2337   23.0314 H   0  0  0  0  0  0
  -29.5219  -18.0000   21.5609 H   0  0  0  0  0  0
  -30.8890  -15.8322   21.9925 H   0  0  0  0  0  0
  -24.7236  -20.7236   24.0672 H   0  0  0  0  0  0
  -24.7283  -21.8174   22.8804 H   0  0  0  0  0  0
  -27.2167  -17.5363   20.7042 H   0  0  0  0  0  0
  -26.7479  -17.2757   22.2274 H   0  0  0  0  0  0
  1 25  1  0  0  0
  1 30  2  0  0  0
  1 85  1  0  0  0
  2  3  1  0  0  0
  2 25  1  0  0  0
  2 88  1  0  0  0
  2 89  1  0  0  0
  3  4  1  0  0  0
  3 90  1  0  0  0
  3 91  1  0  0  0
  4  5  1  0  0  0
  4 92  1  0  0  0
  4 93  1  0  0  0
  5  6  1  0  0  0
  5 26  1  0  0  0
  5 94  1  0  0  0
  6 25  1  0  0  0
  6 95  1  0  0  0
  6 96  1  0  0  0
  7  8  2  0  0  0
  7 26  1  0  0  0
  7 29  1  0  0  0
  8  9  1  0  0  0
  8 22  1  0  0  0
  9 10  1  0  0  0
  9 27  2  0  0  0
 10 11  2  0  0  0
 10 15  1  0  0  0
 11 12  1  0  0  0
 11 97  1  0  0  0
 12 13  2  0  0  0
 12 98  1  0  0  0
 13 14  1  0  0  0
 13 31  1  0  0  0
 14 15  2  0  0  0
 14 99  1  0  0  0
 15100  1  0  0  0
 16 17  2  0  0  0
 16 21  1  0  0  0
 16 31  1  0  0  0
 17 18  1  0  0  0
 17101  1  0  0  0
 18 19  2  0  0  0
 18102  1  0  0  0
 19 20  1  0  0  0
 19 24  1  0  0  0
 20 21  2  0  0  0
 20103  1  0  0  0
 21 23  1  0  0  0
 22 28  1  0  0  0
 22 32  2  0  0  0
 26 27  1  0  0  0
 28104  1  0  0  0
 28105  1  0  0  0
 29106  1  0  0  0
 29107  1  0  0  0
 33 34  1  0  0  0
 33 66  1  0  0  0
 33 70  2  0  0  0
 34 36  1  0  0  0
 34 59  1  0  0  0
 34108  1  0  0  0
 35 44  2  0  0  0
 35 45  1  0  0  0
 35 68  1  0  0  0
 36 56  1  0  0  0
 36109  1  0  0  0
 37 39  1  0  0  0
 37 47  1  0  0  0
 37 66  1  0  0  0
 37110  1  0  0  0
 38 43  2  0  0  0
 38 46  1  0  0  0
 38 47  1  0  0  0
 39 64  1  0  0  0
 39 67  2  0  0  0
 40 52  1  0  0  0
 40 53  2  0  0  0
 40 58  1  0  0  0
 41111  1  0  0  0
 41112  1  0  0  0
 41113  1  0  0  0
 41 48  1  0  0  0
 42 43  1  0  0  0
 42 66  1  0  0  0
 42114  1  0  0  0
 42115  1  0  0  0
 43 44  1  0  0  0
 44116  1  0  0  0
 45 46  2  0  0  0
 45117  1  0  0  0
 46118  1  0  0  0
 47119  1  0  0  0
 47120  1  0  0  0
 48 56  1  0  0  0
 48 65  1  0  0  0
 48121  1  0  0  0
 49 50  1  0  0  0
 49 53  1  0  0  0
 49 64  1  0  0  0
 49122  1  0  0  0
 50 51  1  0  0  0
 50123  1  0  0  0
 50124  1  0  0  0
 51 52  1  0  0  0
 51125  1  0  0  0
 51126  1  0  0  0
 52127  1  0  0  0
 52128  1  0  0  0
 53 54  1  0  0  0
 54 55  2  0  0  0
 54129  1  0  0  0
 55 57  1  0  0  0
 55130  1  0  0  0
 56 69  2  0  0  0
 57 58  2  0  0  0
 57131  1  0  0  0
 58132  1  0  0  0
 59 60  1  0  0  0
 59 61  1  0  0  0
 59 62  1  0  0  0
 60133  1  0  0  0
 60134  1  0  0  0
 60135  1  0  0  0
 61136  1  0  0  0
 61137  1  0  0  0
 61138  1  0  0  0
 62139  1  0  0  0
 62140  1  0  0  0
 62141  1  0  0  0
 63 65  1  0  0  0
 63142  1  0  0  0
 63143  1  0  0  0
 63144  1  0  0  0
 64145  1  0  0  0
 65146  1  0  0  0
 68 82  1  0  0  0
 71 73  2  0  0  0
 71 75  1  0  0  0
 71147  1  0  0  0
 72 74  1  0  0  0
 72 75  2  0  0  0
 72148  1  0  0  0
 73 76  1  0  0  0
 73149  1  0  0  0
 74 76  2  0  0  0
 74150  1  0  0  0
 75 80  1  0  0  0
 76 82  1  0  0  0
 77 79  1  0  0  0
 77 81  1  0  0  0
 77151  1  0  0  0
 77152  1  0  0  0
 78 80  1  0  0  0
 78 81  1  0  0  0
 78153  1  0  0  0
 78154  1  0  0  0
 79 86  1  0  0  0
 79155  1  0  0  0
 79156  1  0  0  0
 80 86  1  0  0  0
 80157  1  0  0  0
 81 87  1  0  0  0
 81158  1  0  0  0
 82159  1  0  0  0
 82160  1  0  0  0
 83 84  1  0  0  0
 83 85  1  0  0  0
 83161  1  0  0  0
 83162  1  0  0  0
 84 87  1  0  0  0
 84163  1  0  0  0
 84164  1  0  0  0
 85165  1  0  0  0
 86166  1  0  0  0
 86167  1  0  0  0
 87168  1  0  0  0
 87169  1  0  0  0
M  CHG  2  86   1  87   1
M  ISO  4   1 100  68 101  82 101  85 100
M  END
> <chiral flag>
0

> <version>
0

> <s_m_source_file>
/data/baiqing/PycharmProjects/Reinvent-master-3.2/result/LINK_invent/BTK/process_docking_weight1_custom_sum_contain_oxygen_bond_distance_aromatic_linkinvent_7_9_3/rearranged_h_0132.sdf

> <i_m_source_file_index>
5

> <r_mmod_Potential_Energy-OPLS-2005>
-329.288269042969

> <r_mmod_Stretch_Energy-OPLS-2005>
36.6617736816406

> <r_mmod_Bend_Energy-OPLS-2005>
112.454055786133

> <r_mmod_Torsional_Energy-OPLS-2005>
324.093383789062

> <r_mmod_Improper_Torsional_Energy-OPLS-2005>
11.4577140808105

> <r_mmod_Van_der_Waal_Energy-OPLS-2005>
177.542205810547

> <r_mmod_Electrostatic_Energy-OPLS-2005>
28.3599281311035

> <r_mmod_Solvation_Energy-OPLS-2005>
-1032.53051757812

> <b_mmod_Minimization_Converged-OPLS-2005>
0

> <r_mmod_RMS_Derivative-OPLS-2005>
3.90714621543884

$$$$
5
                    3D
 Structure written by MMmdl.
167175  0  0  1  0            999 V2000
  -30.5260  -14.9263   20.4473 C   0  0  0  0  0  0
  -30.4473  -12.5801   19.4929 C   0  0  0  0  0  0
  -29.5288  -12.5312   18.2512 C   0  0  0  0  0  0
  -28.0599  -12.3179   18.6683 C   0  0  0  0  0  0
  -27.6347  -13.2442   19.8396 C   0  0  2  0  0  0
  -28.6718  -13.2537   20.9791 C   0  0  0  0  0  0
  -25.2489  -13.8196   20.5683 C   0  0  0  0  0  0
  -24.1816  -13.0443   20.9220 C   0  0  0  0  0  0
  -24.6435  -11.6911   20.8768 C   0  0  0  0  0  0
  -23.9131  -10.4288   21.0435 C   0  0  0  0  0  0
  -24.3672   -9.4189   21.9199 C   0  0  0  0  0  0
  -23.6330   -8.2241   22.0776 C   0  0  0  0  0  0
  -22.4314   -8.0318   21.3556 C   0  0  0  0  0  0
  -21.9960   -9.0298   20.4652 C   0  0  0  0  0  0
  -22.7318  -10.2152   20.3064 C   0  0  0  0  0  0
  -21.6853   -6.0774   22.5276 C   0  0  0  0  0  0
  -21.4023   -6.5662   23.8215 C   0  0  0  0  0  0
  -21.3652   -5.6798   24.9164 C   0  0  0  0  0  0
  -21.6044   -4.3066   24.7198 C   0  0  0  0  0  0
  -21.8815   -3.8172   23.4312 C   0  0  0  0  0  0
  -21.9186   -4.7004   22.3380 C   0  0  0  0  0  0
  -22.7827  -13.5223   21.1824 C   0  0  0  0  0  0
  -22.1650   -4.2205   21.0950 F   0  0  0  0  0  0
  -21.5626   -3.4534   25.7695 F   0  0  0  0  0  0
  -29.9472  -13.6661   20.3790 N   0  0  0  0  0  0
  -26.2926  -12.9421   20.3230 N   0  0  0  0  0  0
  -25.9364  -11.6556   20.5740 N   0  0  0  0  0  0
  -22.0447  -12.8259   22.0374 N   0  0  0  0  0  0
  -25.4159  -15.1925   20.4045 N   0  0  0  0  0  0
  -31.7376  -15.0152   20.2171 O   0  0  0  0  0  0
  -21.6643   -6.8942   21.4263 O   0  0  0  0  0  0
  -22.3519  -14.5534   20.6663 O   0  0  0  0  0  0
  -24.6445  -31.8419   23.1841 C   0  0  0  0  0  0
  -25.9237  -32.4677   23.8214 C   0  0  1  0  0  0
  -27.2326  -27.1447   20.1544 C   0  0  0  0  0  0
  -25.5983  -33.8482   24.2162 N   0  0  0  0  0  0
  -23.4467  -30.4610   21.5282 C   0  0  2  0  0  0
  -24.8963  -28.8714   20.1176 C   0  0  0  0  0  0
  -22.7549  -29.4586   22.4856 C   0  0  0  0  0  0
  -18.0306  -28.1461   22.8472 C   0  0  0  0  0  0
  -24.1496  -36.7235   23.2631 C   0  0  0  0  0  0
  -25.9982  -30.7164   21.3804 C   0  0  0  0  0  0
  -26.0703  -29.3228   20.7347 C   0  0  0  0  0  0
  -27.2373  -28.4745   20.7371 C   0  0  0  0  0  0
  -26.0327  -26.7793   19.5125 C   0  0  0  0  0  0
  -24.8876  -27.6100   19.4956 C   0  0  0  0  0  0
  -23.6738  -29.7762   20.1520 C   0  0  0  0  0  0
  -25.4130  -36.3013   24.0313 C   0  0  1  0  0  0
  -20.5912  -28.3801   23.1216 C   0  0  2  0  0  0
  -20.6820  -26.9514   22.5402 C   0  0  0  0  0  0
  -19.5793  -26.6448   21.5217 C   0  0  0  0  0  0
  -18.1967  -26.7991   22.1630 C   0  0  0  0  0  0
  -19.1564  -28.8947   23.2835 C   0  0  0  0  0  0
  -18.9499  -30.1535   23.8873 C   0  0  0  0  0  0
  -17.6495  -30.6643   24.0595 C   0  0  0  0  0  0
  -25.9078  -34.9398   23.5045 C   0  0  0  0  0  0
  -16.5389  -29.9142   23.6363 C   0  0  0  0  0  0
  -16.7285  -28.6577   23.0353 C   0  0  0  0  0  0
  -26.4559  -31.6531   25.0653 C   0  0  0  0  0  0
  -25.3771  -31.3721   26.1371 C   0  0  0  0  0  0
  -27.0401  -30.2918   24.6227 C   0  0  0  0  0  0
  -27.6064  -32.4308   25.7460 C   0  0  0  0  0  0
  -27.5574  -37.1767   24.8466 C   0  0  0  0  0  0
  -21.4245  -29.3098   22.3577 N   0  0  0  0  0  0
  -26.4278  -37.3749   23.9415 N   0  0  0  0  0  0
  -24.7155  -31.0276   22.0865 N   0  0  0  0  0  0
  -23.4182  -28.8168   23.3061 O   0  0  0  0  0  0
  -28.3438  -26.2359   20.1290 O   0  0  0  0  0  0
  -26.5652  -34.8903   22.4621 O   0  0  0  0  0  0
  -23.5586  -32.1303   23.7106 O   0  0  0  0  0  0
  -29.1997  -22.4462   19.5044 C   0  0  0  0  0  0
  -29.0180  -23.8839   19.3189 C   0  0  0  0  0  0
  -27.8860  -24.0253   21.3641 C   0  0  0  0  0  0
  -28.0670  -22.5926   21.5813 C   0  0  0  0  0  0
  -28.7663  -21.7089   20.6590 C   0  0  0  0  0  0
  -28.3520  -24.7706   20.2392 C   0  0  0  0  0  0
  -29.6558  -21.7533   24.0939 C   0  0  0  0  0  0
  -25.4288  -20.4981   20.3518 C   0  0  0  0  0  0
  -28.2477  -21.2036   23.8214 C   0  0  0  0  0  0
  -29.2183  -18.9334   20.1873 C   0  0  0  0  0  0
  -29.9867  -17.6025   20.8837 C   0  0  0  0  0  0
  -26.0020  -21.4543   22.5710 C   0  0  0  0  0  0
  -27.3901  -22.0629   22.8603 C   0  0  2  0  0  0
  -29.0431  -20.2726   20.9685 N   0  0  0  0  0  0
  -29.7108  -16.0792   20.5837 N   0  0  0  0  0  0
  -26.0718  -20.2878   21.6644 N   0  3  0  0  0  0
  -31.4796  -12.7514   19.1833 H   0  0  0  0  0  0
  -30.4476  -11.6255   20.0204 H   0  0  0  0  0  0
  -29.8488  -11.7356   17.5768 H   0  0  0  0  0  0
  -29.6197  -13.4644   17.6930 H   0  0  0  0  0  0
  -27.9541  -11.2744   18.9695 H   0  0  0  0  0  0
  -27.3970  -12.4533   17.8132 H   0  0  0  0  0  0
  -27.6056  -14.2510   19.4222 H   0  0  0  0  0  0
  -28.7507  -12.2758   21.4556 H   0  0  0  0  0  0
  -28.3715  -13.9576   21.7570 H   0  0  0  0  0  0
  -25.2824   -9.5644   22.4768 H   0  0  0  0  0  0
  -24.0020   -7.4622   22.7505 H   0  0  0  0  0  0
  -21.0881   -8.8848   19.8951 H   0  0  0  0  0  0
  -22.3823  -10.9705   19.6160 H   0  0  0  0  0  0
  -21.2040   -7.6173   23.9750 H   0  0  0  0  0  0
  -21.1475   -6.0508   25.9070 H   0  0  0  0  0  0
  -22.0609   -2.7648   23.2767 H   0  0  0  0  0  0
  -22.4054  -11.9945   22.4819 H   0  0  0  0  0  0
  -21.1059  -13.1310   22.2535 H   0  0  0  0  0  0
  -24.6330  -15.8336   20.4833 H   0  0  0  0  0  0
  -26.2377  -15.6173   19.9949 H   0  0  0  0  0  0
  -26.7289  -32.5270   23.0916 H   0  0  0  0  0  0
  -25.0165  -33.9568   25.0336 H   0  0  0  0  0  0
  -22.7506  -31.2872   21.3658 H   0  0  0  0  0  0
  -23.3759  -35.9559   23.3298 H   0  0  0  0  0  0
  -24.3572  -36.8880   22.2035 H   0  0  0  0  0  0
  -23.7244  -37.6437   23.6670 H   0  0  0  0  0  0
  -26.1497  -31.4637   20.6002 H   0  0  0  0  0  0
  -26.8703  -30.7705   22.0207 H   0  0  0  0  0  0
  -28.1427  -28.8242   21.2136 H   0  0  0  0  0  0
  -25.9769  -25.8135   19.0328 H   0  0  0  0  0  0
  -23.9932  -27.2587   18.9964 H   0  0  0  0  0  0
  -23.8111  -30.5406   19.3855 H   0  0  0  0  0  0
  -22.7864  -29.2175   19.8454 H   0  0  0  0  0  0
  -25.1313  -36.1820   25.0803 H   0  0  0  0  0  0
  -21.0009  -28.3452   24.1330 H   0  0  0  0  0  0
  -20.5801  -26.2418   23.3637 H   0  0  0  0  0  0
  -21.6679  -26.7583   22.1165 H   0  0  0  0  0  0
  -19.6973  -25.6346   21.1281 H   0  0  0  0  0  0
  -19.6736  -27.3235   20.6722 H   0  0  0  0  0  0
  -17.4246  -26.6741   21.4027 H   0  0  0  0  0  0
  -18.0378  -26.0140   22.9033 H   0  0  0  0  0  0
  -19.7980  -30.7367   24.2235 H   0  0  0  0  0  0
  -17.5059  -31.6303   24.5239 H   0  0  0  0  0  0
  -15.5401  -30.3063   23.7696 H   0  0  0  0  0  0
  -15.8682  -28.0908   22.7060 H   0  0  0  0  0  0
  -24.5963  -30.7037   25.7725 H   0  0  0  0  0  0
  -24.8951  -32.2901   26.4733 H   0  0  0  0  0  0
  -25.8103  -30.8962   27.0182 H   0  0  0  0  0  0
  -26.2975  -29.6637   24.1289 H   0  0  0  0  0  0
  -27.4049  -29.7226   25.4785 H   0  0  0  0  0  0
  -27.8888  -30.4124   23.9501 H   0  0  0  0  0  0
  -27.2619  -33.3629   26.1967 H   0  0  0  0  0  0
  -28.3933  -32.6851   25.0337 H   0  0  0  0  0  0
  -28.0671  -31.8483   26.5460 H   0  0  0  0  0  0
  -28.2575  -38.0077   24.7534 H   0  0  0  0  0  0
  -28.1100  -36.2606   24.6285 H   0  0  0  0  0  0
  -27.2300  -37.1413   25.8875 H   0  0  0  0  0  0
  -20.9502  -29.8692   21.6626 H   0  0  0  0  0  0
  -26.0143  -38.2820   24.1441 H   0  0  0  0  0  0
  -29.7421  -21.9127   18.7365 H   0  0  0  0  0  0
  -29.4525  -24.3224   18.4307 H   0  0  0  0  0  0
  -27.3816  -24.6059   22.1217 H   0  0  0  0  0  0
  -30.1844  -21.1163   24.8050 H   0  0  0  0  0  0
  -29.6117  -22.7560   24.5184 H   0  0  0  0  0  0
  -30.2576  -21.8068   23.1882 H   0  0  0  0  0  0
  -25.5593  -19.6173   19.7213 H   0  0  0  0  0  0
  -25.8741  -21.3522   19.8392 H   0  0  0  0  0  0
  -24.3586  -20.6799   20.4539 H   0  0  0  0  0  0
  -27.7208  -21.1213   24.7749 H   0  0  0  0  0  0
  -28.3274  -20.1793   23.4595 H   0  0  0  0  0  0
  -28.2115  -18.6096   19.9203 H   0  0  0  0  0  0
  -29.7017  -19.1511   19.2338 H   0  0  0  0  0  0
  -29.7721  -17.6733   21.9514 H   0  0  0  0  0  0
  -31.0654  -17.7531   20.8227 H   0  0  0  0  0  0
  -25.3495  -22.2254   22.1554 H   0  0  0  0  0  0
  -25.5284  -21.1507   23.5051 H   0  0  0  0  0  0
  -27.1675  -22.9478   23.4582 H   0  0  0  0  0  0
  -29.3635  -20.1612   21.9284 H   0  0  0  0  0  0
  -28.7324  -15.8380   20.6317 H   0  0  0  0  0  0
  -27.0510  -20.0749   21.5054 H   0  0  0  0  0  0
  -25.6408  -19.4953   22.1150 H   0  0  0  0  0  0
  1 25  1  0  0  0
  1 30  2  0  0  0
  1 85  1  0  0  0
  2  3  1  0  0  0
  2 25  1  0  0  0
  2 87  1  0  0  0
  2 88  1  0  0  0
  3  4  1  0  0  0
  3 89  1  0  0  0
  3 90  1  0  0  0
  4  5  1  0  0  0
  4 91  1  0  0  0
  4 92  1  0  0  0
  5  6  1  0  0  0
  5 26  1  0  0  0
  5 93  1  0  0  0
  6 25  1  0  0  0
  6 94  1  0  0  0
  6 95  1  0  0  0
  7  8  2  0  0  0
  7 26  1  0  0  0
  7 29  1  0  0  0
  8  9  1  0  0  0
  8 22  1  0  0  0
  9 10  1  0  0  0
  9 27  2  0  0  0
 10 11  2  0  0  0
 10 15  1  0  0  0
 11 12  1  0  0  0
 11 96  1  0  0  0
 12 13  2  0  0  0
 12 97  1  0  0  0
 13 14  1  0  0  0
 13 31  1  0  0  0
 14 15  2  0  0  0
 14 98  1  0  0  0
 15 99  1  0  0  0
 16 17  2  0  0  0
 16 21  1  0  0  0
 16 31  1  0  0  0
 17 18  1  0  0  0
 17100  1  0  0  0
 18 19  2  0  0  0
 18101  1  0  0  0
 19 20  1  0  0  0
 19 24  1  0  0  0
 20 21  2  0  0  0
 20102  1  0  0  0
 21 23  1  0  0  0
 22 28  1  0  0  0
 22 32  2  0  0  0
 26 27  1  0  0  0
 28103  1  0  0  0
 28104  1  0  0  0
 29105  1  0  0  0
 29106  1  0  0  0
 33 34  1  0  0  0
 33 66  1  0  0  0
 33 70  2  0  0  0
 34 36  1  0  0  0
 34 59  1  0  0  0
 34107  1  0  0  0
 35 44  2  0  0  0
 35 45  1  0  0  0
 35 68  1  0  0  0
 36 56  1  0  0  0
 36108  1  0  0  0
 37 39  1  0  0  0
 37 47  1  0  0  0
 37 66  1  0  0  0
 37109  1  0  0  0
 38 43  2  0  0  0
 38 46  1  0  0  0
 38 47  1  0  0  0
 39 64  1  0  0  0
 39 67  2  0  0  0
 40 52  1  0  0  0
 40 53  2  0  0  0
 40 58  1  0  0  0
 41110  1  0  0  0
 41111  1  0  0  0
 41112  1  0  0  0
 41 48  1  0  0  0
 42 43  1  0  0  0
 42 66  1  0  0  0
 42113  1  0  0  0
 42114  1  0  0  0
 43 44  1  0  0  0
 44115  1  0  0  0
 45 46  2  0  0  0
 45116  1  0  0  0
 46117  1  0  0  0
 47118  1  0  0  0
 47119  1  0  0  0
 48 56  1  0  0  0
 48 65  1  0  0  0
 48120  1  0  0  0
 49 50  1  0  0  0
 49 53  1  0  0  0
 49 64  1  0  0  0
 49121  1  0  0  0
 50 51  1  0  0  0
 50122  1  0  0  0
 50123  1  0  0  0
 51 52  1  0  0  0
 51124  1  0  0  0
 51125  1  0  0  0
 52126  1  0  0  0
 52127  1  0  0  0
 53 54  1  0  0  0
 54 55  2  0  0  0
 54128  1  0  0  0
 55 57  1  0  0  0
 55129  1  0  0  0
 56 69  2  0  0  0
 57 58  2  0  0  0
 57130  1  0  0  0
 58131  1  0  0  0
 59 60  1  0  0  0
 59 61  1  0  0  0
 59 62  1  0  0  0
 60132  1  0  0  0
 60133  1  0  0  0
 60134  1  0  0  0
 61135  1  0  0  0
 61136  1  0  0  0
 61137  1  0  0  0
 62138  1  0  0  0
 62139  1  0  0  0
 62140  1  0  0  0
 63 65  1  0  0  0
 63141  1  0  0  0
 63142  1  0  0  0
 63143  1  0  0  0
 64144  1  0  0  0
 65145  1  0  0  0
 68 76  1  0  0  0
 71 72  2  0  0  0
 71 75  1  0  0  0
 71146  1  0  0  0
 72 76  1  0  0  0
 72147  1  0  0  0
 73 74  1  0  0  0
 73 76  2  0  0  0
 73148  1  0  0  0
 74 75  2  0  0  0
 74 83  1  0  0  0
 75 84  1  0  0  0
 77 79  1  0  0  0
 77149  1  0  0  0
 77150  1  0  0  0
 77151  1  0  0  0
 78 86  1  0  0  0
 78152  1  0  0  0
 78153  1  0  0  0
 78154  1  0  0  0
 79155  1  0  0  0
 79156  1  0  0  0
 79 83  1  0  0  0
 80 81  1  0  0  0
 80 84  1  0  0  0
 80157  1  0  0  0
 80158  1  0  0  0
 81 85  1  0  0  0
 81159  1  0  0  0
 81160  1  0  0  0
 82 83  1  0  0  0
 82 86  1  0  0  0
 82161  1  0  0  0
 82162  1  0  0  0
 83163  1  0  0  0
 84164  1  0  0  0
 85165  1  0  0  0
 86166  1  0  0  0
 86167  1  0  0  0
M  CHG  1  86   1
M  ISO  4   1 100  68 101  76 101  85 100
M  END
> <chiral flag>
0

> <version>
0

> <s_m_source_file>
/data/baiqing/PycharmProjects/Reinvent-master-3.2/result/LINK_invent/BTK/process_docking_weight1_custom_sum_contain_oxygen_bond_distance_aromatic_linkinvent_7_9_3/rearranged_h_0132.sdf

> <i_m_source_file_index>
6

> <r_mmod_Potential_Energy-OPLS-2005>
196.850448608398

> <r_mmod_Stretch_Energy-OPLS-2005>
214.927871704102

> <r_mmod_Bend_Energy-OPLS-2005>
277.439178466797

> <r_mmod_Torsional_Energy-OPLS-2005>
250.529876708984

> <r_mmod_Improper_Torsional_Energy-OPLS-2005>
6.19781875610352

> <r_mmod_Van_der_Waal_Energy-OPLS-2005>
126.032386779785

> <r_mmod_Electrostatic_Energy-OPLS-2005>
-391.362426757812

> <r_mmod_Solvation_Energy-OPLS-2005>
-460.790496826172

> <b_mmod_Minimization_Converged-OPLS-2005>
0

> <r_mmod_RMS_Derivative-OPLS-2005>
3.7739737033844

$$$$
6
                    3D
 Structure written by MMmdl.
163172  0  0  1  0            999 V2000
  -30.6806  -14.4110   20.5903 C   0  0  0  0  0  0
  -30.4315  -12.2834   19.3997 C   0  0  0  0  0  0
  -29.4865  -12.5124   18.2031 C   0  0  0  0  0  0
  -28.0101  -12.3714   18.6220 C   0  0  0  0  0  0
  -27.6698  -13.1901   19.8954 C   0  0  2  0  0  0
  -28.7112  -12.9063   21.0031 C   0  0  0  0  0  0
  -25.2644  -13.8130   20.5703 C   0  0  0  0  0  0
  -24.1857  -13.0423   20.9125 C   0  0  0  0  0  0
  -24.6369  -11.6869   20.8692 C   0  0  0  0  0  0
  -23.8994  -10.4248   21.0417 C   0  0  0  0  0  0
  -24.3527   -9.4162   21.9197 C   0  0  0  0  0  0
  -23.6209   -8.2206   22.0768 C   0  0  0  0  0  0
  -22.4219   -8.0241   21.3549 C   0  0  0  0  0  0
  -21.9828   -9.0207   20.4669 C   0  0  0  0  0  0
  -22.7165  -10.2087   20.3083 C   0  0  0  0  0  0
  -21.6834   -6.0694   22.5257 C   0  0  0  0  0  0
  -21.4015   -6.5608   23.8192 C   0  0  0  0  0  0
  -21.3668   -5.6792   24.9171 C   0  0  0  0  0  0
  -21.6049   -4.3045   24.7222 C   0  0  0  0  0  0
  -21.8817   -3.8107   23.4343 C   0  0  0  0  0  0
  -21.9177   -4.6923   22.3400 C   0  0  0  0  0  0
  -22.7877  -13.5251   21.1849 C   0  0  0  0  0  0
  -22.1658   -4.2104   21.0973 F   0  0  0  0  0  0
  -21.5613   -3.4526   25.7730 F   0  0  0  0  0  0
  -30.0459  -13.2236   20.4659 N   0  0  0  0  0  0
  -26.3063  -12.9263   20.3501 N   0  0  0  0  0  0
  -25.9330  -11.6439   20.5890 N   0  0  0  0  0  0
  -22.0497  -12.8260   22.0406 N   0  0  0  0  0  0
  -25.4468  -15.1806   20.4076 N   0  0  0  0  0  0
  -31.7827  -14.6487   20.0842 O   0  0  0  0  0  0
  -21.6613   -6.8810   21.4233 O   0  0  0  0  0  0
  -22.3590  -14.5571   20.6708 O   0  0  0  0  0  0
  -24.6162  -31.8686   23.2162 C   0  0  0  0  0  0
  -25.9072  -32.4801   23.8472 C   0  0  1  0  0  0
  -27.2221  -27.4338   20.1042 C   0  0  0  0  0  0
  -25.5971  -33.8611   24.2379 N   0  0  0  0  0  0
  -23.4067  -30.4947   21.5566 C   0  0  2  0  0  0
  -24.8520  -28.9723   20.1085 C   0  0  0  0  0  0
  -22.7462  -29.4697   22.5068 C   0  0  0  0  0  0
  -18.0232  -28.1426   22.8571 C   0  0  0  0  0  0
  -24.1497  -36.7322   23.2644 C   0  0  0  0  0  0
  -25.9340  -30.8410   21.3676 C   0  0  0  0  0  0
  -26.0145  -29.4796   20.7052 C   0  0  0  0  0  0
  -27.2070  -28.7167   20.7015 C   0  0  0  0  0  0
  -26.0525  -26.9668   19.4613 C   0  0  0  0  0  0
  -24.8656  -27.7191   19.4787 C   0  0  0  0  0  0
  -23.6121  -29.8298   20.1699 C   0  0  0  0  0  0
  -25.4113  -36.3099   24.0323 C   0  0  1  0  0  0
  -20.5856  -28.3780   23.1424 C   0  0  2  0  0  0
  -20.6848  -26.9566   22.5434 C   0  0  0  0  0  0
  -19.5712  -26.6333   21.5375 C   0  0  0  0  0  0
  -18.1833  -26.8012   22.1673 C   0  0  0  0  0  0
  -19.1493  -28.8867   23.2968 C   0  0  0  0  0  0
  -18.9404  -30.1502   23.8919 C   0  0  0  0  0  0
  -17.6473  -30.6724   24.0595 C   0  0  0  0  0  0
  -25.9032  -34.9456   23.5110 C   0  0  0  0  0  0
  -16.5352  -29.9255   23.6417 C   0  0  0  0  0  0
  -16.7256  -28.6599   23.0516 C   0  0  0  0  0  0
  -26.4471  -31.6578   25.0796 C   0  0  0  0  0  0
  -25.3745  -31.3701   26.1556 C   0  0  0  0  0  0
  -27.0330  -30.3015   24.6201 C   0  0  0  0  0  0
  -27.6029  -32.4296   25.7586 C   0  0  0  0  0  0
  -27.5579  -37.1817   24.8455 C   0  0  0  0  0  0
  -21.4125  -29.3285   22.4045 N   0  0  0  0  0  0
  -26.4311  -37.3756   23.9376 N   0  0  0  0  0  0
  -24.6719  -31.0813   22.1058 N   0  0  0  0  0  0
  -23.4239  -28.8034   23.2908 O   0  0  0  0  0  0
  -28.3155  -26.5977   20.2081 O   0  0  0  0  0  0
  -26.5531  -34.8910   22.4648 O   0  0  0  0  0  0
  -23.5350  -32.1435   23.7551 O   0  0  0  0  0  0
  -30.0238  -19.7222   22.7435 C   0  0  0  0  0  0
  -30.0953  -18.3929   22.2740 C   0  0  0  0  0  0
  -28.7813  -20.3619   20.7535 C   0  0  0  0  0  0
  -28.7950  -19.0255   20.2885 C   0  0  0  0  0  0
  -29.4017  -20.7269   21.9697 C   0  0  0  0  0  0
  -29.5120  -18.0478   21.0317 C   0  0  0  0  0  0
  -27.1312  -19.5709   18.2525 C   0  0  0  0  0  0
  -26.5449  -18.4552   19.0889 C   0  0  0  0  0  0
  -28.0452  -18.6407   19.0279 C   0  0  0  0  0  0
  -29.7084  -16.6592   20.4103 C   0  0  0  0  0  0
  -29.4682  -22.1911   22.4243 C   0  0  0  0  0  0
  -29.0914  -24.3434   21.1163 C   0  0  0  0  0  0
  -27.9774  -25.3998   20.9470 C   0  0  0  0  0  0
  -29.9144  -15.3896   21.1069 N   0  0  0  0  0  0
  -28.5292  -23.0823   21.7001 N   0  3  0  0  0  0
  -31.4695  -12.4127   19.0834 H   0  0  0  0  0  0
  -30.3528  -11.2568   19.7624 H   0  0  0  0  0  0
  -29.7143  -11.8010   17.4074 H   0  0  0  0  0  0
  -29.6634  -13.5104   17.7931 H   0  0  0  0  0  0
  -27.8161  -11.3117   18.7877 H   0  0  0  0  0  0
  -27.3622  -12.6690   17.7999 H   0  0  0  0  0  0
  -27.7332  -14.2480   19.6293 H   0  0  0  0  0  0
  -28.6819  -11.8558   21.2982 H   0  0  0  0  0  0
  -28.4851  -13.4660   21.9119 H   0  0  0  0  0  0
  -25.2686   -9.5631   22.4740 H   0  0  0  0  0  0
  -23.9948   -7.4588   22.7432 H   0  0  0  0  0  0
  -21.0796   -8.8672   19.8918 H   0  0  0  0  0  0
  -22.3639  -10.9585   19.6128 H   0  0  0  0  0  0
  -21.2032   -7.6127   23.9687 H   0  0  0  0  0  0
  -21.1526   -6.0527   25.9078 H   0  0  0  0  0  0
  -22.0597   -2.7571   23.2864 H   0  0  0  0  0  0
  -22.4103  -11.9903   22.4774 H   0  0  0  0  0  0
  -21.1079  -13.1213   22.2570 H   0  0  0  0  0  0
  -24.6834  -15.8434   20.4757 H   0  0  0  0  0  0
  -26.3026  -15.5918   20.0622 H   0  0  0  0  0  0
  -26.7145  -32.5507   23.1275 H   0  0  0  0  0  0
  -25.0257  -33.9756   25.0616 H   0  0  0  0  0  0
  -22.6882  -31.3050   21.4177 H   0  0  0  0  0  0
  -23.3726  -35.9681   23.3297 H   0  0  0  0  0  0
  -24.3610  -36.8942   22.2066 H   0  0  0  0  0  0
  -23.7309  -37.6557   23.6646 H   0  0  0  0  0  0
  -26.0450  -31.6150   20.6070 H   0  0  0  0  0  0
  -26.8154  -30.8831   21.9945 H   0  0  0  0  0  0
  -28.0940  -29.0938   21.1936 H   0  0  0  0  0  0
  -26.0452  -26.0120   18.9582 H   0  0  0  0  0  0
  -23.9750  -27.3324   18.9968 H   0  0  0  0  0  0
  -23.7040  -30.6039   19.4093 H   0  0  0  0  0  0
  -22.7394  -29.2407   19.8782 H   0  0  0  0  0  0
  -25.1287  -36.1965   25.0802 H   0  0  0  0  0  0
  -20.9905  -28.3419   24.1580 H   0  0  0  0  0  0
  -20.6113  -26.2366   23.3577 H   0  0  0  0  0  0
  -21.6633  -26.7833   22.0978 H   0  0  0  0  0  0
  -19.6887  -25.6206   21.1521 H   0  0  0  0  0  0
  -19.6637  -27.3058   20.6848 H   0  0  0  0  0  0
  -17.4105  -26.6915   21.4049 H   0  0  0  0  0  0
  -18.0052  -26.0159   22.9018 H   0  0  0  0  0  0
  -19.7889  -30.7362   24.2178 H   0  0  0  0  0  0
  -17.5036  -31.6513   24.5056 H   0  0  0  0  0  0
  -15.5360  -30.3136   23.7779 H   0  0  0  0  0  0
  -15.8572  -28.0988   22.7437 H   0  0  0  0  0  0
  -24.5875  -30.7085   25.7932 H   0  0  0  0  0  0
  -24.9013  -32.2869   26.5038 H   0  0  0  0  0  0
  -25.8131  -30.8871   27.0302 H   0  0  0  0  0  0
  -26.2914  -29.6758   24.1230 H   0  0  0  0  0  0
  -27.4067  -29.7253   25.4689 H   0  0  0  0  0  0
  -27.8739  -30.4303   23.9391 H   0  0  0  0  0  0
  -27.2589  -33.3531   26.2240 H   0  0  0  0  0  0
  -28.3837  -32.6950   25.0451 H   0  0  0  0  0  0
  -28.0695  -31.8399   26.5486 H   0  0  0  0  0  0
  -28.2574  -38.0128   24.7462 H   0  0  0  0  0  0
  -28.1093  -36.2657   24.6300 H   0  0  0  0  0  0
  -27.2285  -37.1486   25.8857 H   0  0  0  0  0  0
  -20.9228  -29.9544   21.7829 H   0  0  0  0  0  0
  -26.0195  -38.2828   24.1366 H   0  0  0  0  0  0
  -30.4909  -19.9845   23.6824 H   0  0  0  0  0  0
  -30.6287  -17.6402   22.8441 H   0  0  0  0  0  0
  -28.3208  -21.1158   20.1385 H   0  0  0  0  0  0
  -26.9348  -20.5804   18.5992 H   0  0  0  0  0  0
  -27.1264  -19.4561   17.1726 H   0  0  0  0  0  0
  -26.0950  -17.6043   18.5650 H   0  0  0  0  0  0
  -26.0474  -18.7407   20.0191 H   0  0  0  0  0  0
  -28.6071  -17.9217   18.4297 H   0  0  0  0  0  0
  -30.7605  -16.8758   20.6078 H   0  0  0  0  0  0
  -28.8140  -16.5479   21.0242 H   0  0  0  0  0  0
  -30.4979  -22.5386   22.3282 H   0  0  0  0  0  0
  -29.2131  -22.2400   23.4860 H   0  0  0  0  0  0
  -29.8645  -24.7528   21.7659 H   0  0  0  0  0  0
  -29.5491  -24.1094   20.1534 H   0  0  0  0  0  0
  -27.6535  -25.7010   21.9450 H   0  0  0  0  0  0
  -27.1177  -24.8994   20.5011 H   0  0  0  0  0  0
  -29.1091  -15.0596   21.6225 H   0  0  0  0  0  0
  -28.0966  -22.5326   20.9712 H   0  0  0  0  0  0
  -27.7971  -23.3073   22.3573 H   0  0  0  0  0  0
  1 25  1  0  0  0
  1 30  2  0  0  0
  1 84  1  0  0  0
  2  3  1  0  0  0
  2 25  1  0  0  0
  2 86  1  0  0  0
  2 87  1  0  0  0
  3  4  1  0  0  0
  3 88  1  0  0  0
  3 89  1  0  0  0
  4  5  1  0  0  0
  4 90  1  0  0  0
  4 91  1  0  0  0
  5  6  1  0  0  0
  5 26  1  0  0  0
  5 92  1  0  0  0
  6 25  1  0  0  0
  6 93  1  0  0  0
  6 94  1  0  0  0
  7  8  2  0  0  0
  7 26  1  0  0  0
  7 29  1  0  0  0
  8  9  1  0  0  0
  8 22  1  0  0  0
  9 10  1  0  0  0
  9 27  2  0  0  0
 10 11  2  0  0  0
 10 15  1  0  0  0
 11 12  1  0  0  0
 11 95  1  0  0  0
 12 13  2  0  0  0
 12 96  1  0  0  0
 13 14  1  0  0  0
 13 31  1  0  0  0
 14 15  2  0  0  0
 14 97  1  0  0  0
 15 98  1  0  0  0
 16 17  2  0  0  0
 16 21  1  0  0  0
 16 31  1  0  0  0
 17 18  1  0  0  0
 17 99  1  0  0  0
 18 19  2  0  0  0
 18100  1  0  0  0
 19 20  1  0  0  0
 19 24  1  0  0  0
 20 21  2  0  0  0
 20101  1  0  0  0
 21 23  1  0  0  0
 22 28  1  0  0  0
 22 32  2  0  0  0
 26 27  1  0  0  0
 28102  1  0  0  0
 28103  1  0  0  0
 29104  1  0  0  0
 29105  1  0  0  0
 33 34  1  0  0  0
 33 66  1  0  0  0
 33 70  2  0  0  0
 34 36  1  0  0  0
 34 59  1  0  0  0
 34106  1  0  0  0
 35 44  2  0  0  0
 35 45  1  0  0  0
 35 68  1  0  0  0
 36 56  1  0  0  0
 36107  1  0  0  0
 37 39  1  0  0  0
 37 47  1  0  0  0
 37 66  1  0  0  0
 37108  1  0  0  0
 38 43  2  0  0  0
 38 46  1  0  0  0
 38 47  1  0  0  0
 39 64  1  0  0  0
 39 67  2  0  0  0
 40 52  1  0  0  0
 40 53  2  0  0  0
 40 58  1  0  0  0
 41109  1  0  0  0
 41110  1  0  0  0
 41111  1  0  0  0
 41 48  1  0  0  0
 42 43  1  0  0  0
 42 66  1  0  0  0
 42112  1  0  0  0
 42113  1  0  0  0
 43 44  1  0  0  0
 44114  1  0  0  0
 45 46  2  0  0  0
 45115  1  0  0  0
 46116  1  0  0  0
 47117  1  0  0  0
 47118  1  0  0  0
 48 56  1  0  0  0
 48 65  1  0  0  0
 48119  1  0  0  0
 49 50  1  0  0  0
 49 53  1  0  0  0
 49 64  1  0  0  0
 49120  1  0  0  0
 50 51  1  0  0  0
 50121  1  0  0  0
 50122  1  0  0  0
 51 52  1  0  0  0
 51123  1  0  0  0
 51124  1  0  0  0
 52125  1  0  0  0
 52126  1  0  0  0
 53 54  1  0  0  0
 54 55  2  0  0  0
 54127  1  0  0  0
 55 57  1  0  0  0
 55128  1  0  0  0
 56 69  2  0  0  0
 57 58  2  0  0  0
 57129  1  0  0  0
 58130  1  0  0  0
 59 60  1  0  0  0
 59 61  1  0  0  0
 59 62  1  0  0  0
 60131  1  0  0  0
 60132  1  0  0  0
 60133  1  0  0  0
 61134  1  0  0  0
 61135  1  0  0  0
 61136  1  0  0  0
 62137  1  0  0  0
 62138  1  0  0  0
 62139  1  0  0  0
 63 65  1  0  0  0
 63140  1  0  0  0
 63141  1  0  0  0
 63142  1  0  0  0
 64143  1  0  0  0
 65144  1  0  0  0
 68 83  1  0  0  0
 71 72  2  0  0  0
 71 75  1  0  0  0
 71145  1  0  0  0
 72 76  1  0  0  0
 72146  1  0  0  0
 73 74  1  0  0  0
 73 75  2  0  0  0
 73147  1  0  0  0
 74 76  2  0  0  0
 74 79  1  0  0  0
 75 81  1  0  0  0
 76 80  1  0  0  0
 77 78  1  0  0  0
 77 79  1  0  0  0
 77148  1  0  0  0
 77149  1  0  0  0
 78 79  1  0  0  0
 78150  1  0  0  0
 78151  1  0  0  0
 79152  1  0  0  0
 80 84  1  0  0  0
 80153  1  0  0  0
 80154  1  0  0  0
 81 85  1  0  0  0
 81155  1  0  0  0
 81156  1  0  0  0
 82 83  1  0  0  0
 82 85  1  0  0  0
 82157  1  0  0  0
 82158  1  0  0  0
 83159  1  0  0  0
 83160  1  0  0  0
 84161  1  0  0  0
 85162  1  0  0  0
 85163  1  0  0  0
M  CHG  1  85   1
M  ISO  4   1 100  68 101  83 101  84 100
M  END
> <chiral flag>
0

> <version>
0

> <s_m_source_file>
/data/baiqing/PycharmProjects/Reinvent-master-3.2/result/LINK_invent/BTK/process_docking_weight1_custom_sum_contain_oxygen_bond_distance_aromatic_linkinvent_7_9_3/rearranged_h_0132.sdf

> <i_m_source_file_index>
7

> <r_mmod_Potential_Energy-OPLS-2005>
34.9170265197754

> <r_mmod_Stretch_Energy-OPLS-2005>
38.2253646850586

> <r_mmod_Bend_Energy-OPLS-2005>
300.786682128906

> <r_mmod_Torsional_Energy-OPLS-2005>
288.242828369141

> <r_mmod_Improper_Torsional_Energy-OPLS-2005>
8.83484363555908

> <r_mmod_Van_der_Waal_Energy-OPLS-2005>
166.018478393555

> <r_mmod_Electrostatic_Energy-OPLS-2005>
-330.000244140625

> <r_mmod_Solvation_Energy-OPLS-2005>
-453.707458496094

> <b_mmod_Minimization_Converged-OPLS-2005>
0

> <r_mmod_RMS_Derivative-OPLS-2005>
8.20739936828613

$$$$
7
                    3D
 Structure written by MMmdl.
161170  0  0  1  0            999 V2000
  -30.6958  -14.6041   20.4713 C   0  0  0  0  0  0
  -30.4063  -12.3975   19.4185 C   0  0  0  0  0  0
  -29.4777  -12.5161   18.1913 C   0  0  0  0  0  0
  -28.0148  -12.3184   18.6331 C   0  0  0  0  0  0
  -27.6375  -13.2162   19.8423 C   0  0  2  0  0  0
  -28.6872  -13.1245   20.9726 C   0  0  0  0  0  0
  -25.2503  -13.8101   20.5672 C   0  0  0  0  0  0
  -24.1819  -13.0409   20.9270 C   0  0  0  0  0  0
  -24.6380  -11.6865   20.8799 C   0  0  0  0  0  0
  -23.9084  -10.4293   21.0479 C   0  0  0  0  0  0
  -24.3637   -9.4194   21.9236 C   0  0  0  0  0  0
  -23.6309   -8.2246   22.0759 C   0  0  0  0  0  0
  -22.4292   -8.0336   21.3561 C   0  0  0  0  0  0
  -21.9968   -9.0322   20.4660 C   0  0  0  0  0  0
  -22.7297  -10.2182   20.3093 C   0  0  0  0  0  0
  -21.6865   -6.0786   22.5307 C   0  0  0  0  0  0
  -21.4016   -6.5659   23.8238 C   0  0  0  0  0  0
  -21.3626   -5.6808   24.9201 C   0  0  0  0  0  0
  -21.6017   -4.3058   24.7232 C   0  0  0  0  0  0
  -21.8832   -3.8177   23.4342 C   0  0  0  0  0  0
  -21.9188   -4.7021   22.3411 C   0  0  0  0  0  0
  -22.7850  -13.5242   21.1932 C   0  0  0  0  0  0
  -22.1664   -4.2213   21.0984 F   0  0  0  0  0  0
  -21.5625   -3.4526   25.7716 F   0  0  0  0  0  0
  -29.9849  -13.4431   20.3734 N   0  0  0  0  0  0
  -26.2922  -12.9309   20.3255 N   0  0  0  0  0  0
  -25.9276  -11.6458   20.5733 N   0  0  0  0  0  0
  -22.0448  -12.8243   22.0419 N   0  0  0  0  0  0
  -25.4080  -15.1833   20.3884 N   0  0  0  0  0  0
  -31.8917  -14.6307   20.1862 O   0  0  0  0  0  0
  -21.6637   -6.8942   21.4266 O   0  0  0  0  0  0
  -22.3617  -14.5604   20.6818 O   0  0  0  0  0  0
  -24.6255  -31.8641   23.2121 C   0  0  0  0  0  0
  -25.9112  -32.4804   23.8414 C   0  0  1  0  0  0
  -27.1859  -27.3226   20.0963 C   0  0  0  0  0  0
  -25.5945  -33.8603   24.2355 N   0  0  0  0  0  0
  -23.4175  -30.4952   21.5561 C   0  0  2  0  0  0
  -24.8521  -28.9675   20.1071 C   0  0  0  0  0  0
  -22.7488  -29.4655   22.4957 C   0  0  0  0  0  0
  -18.0284  -28.1388   22.8483 C   0  0  0  0  0  0
  -24.1489  -36.7277   23.2642 C   0  0  0  0  0  0
  -25.9642  -30.7895   21.3889 C   0  0  0  0  0  0
  -26.0272  -29.4262   20.7170 C   0  0  0  0  0  0
  -27.2018  -28.6162   20.7036 C   0  0  0  0  0  0
  -25.9876  -26.9313   19.4503 C   0  0  0  0  0  0
  -24.8372  -27.7298   19.4591 C   0  0  0  0  0  0
  -23.6278  -29.8521   20.1638 C   0  0  0  0  0  0
  -25.4113  -36.3107   24.0351 C   0  0  1  0  0  0
  -20.5886  -28.3686   23.1282 C   0  0  2  0  0  0
  -20.6779  -26.9419   22.5397 C   0  0  0  0  0  0
  -19.5743  -26.6391   21.5207 C   0  0  0  0  0  0
  -18.1929  -26.7931   22.1630 C   0  0  0  0  0  0
  -19.1539  -28.8851   23.2871 C   0  0  0  0  0  0
  -18.9459  -30.1450   23.8893 C   0  0  0  0  0  0
  -17.6459  -30.6585   24.0557 C   0  0  0  0  0  0
  -25.9055  -34.9475   23.5157 C   0  0  0  0  0  0
  -16.5348  -29.9079   23.6329 C   0  0  0  0  0  0
  -16.7274  -28.6495   23.0355 C   0  0  0  0  0  0
  -26.4502  -31.6592   25.0771 C   0  0  0  0  0  0
  -25.3755  -31.3687   26.1499 C   0  0  0  0  0  0
  -27.0354  -30.3027   24.6233 C   0  0  0  0  0  0
  -27.6091  -32.4318   25.7505 C   0  0  0  0  0  0
  -27.5592  -37.1802   24.8479 C   0  0  0  0  0  0
  -21.4216  -29.3041   22.3693 N   0  0  0  0  0  0
  -26.4298  -37.3795   23.9432 N   0  0  0  0  0  0
  -24.6880  -31.0653   22.1078 N   0  0  0  0  0  0
  -23.4214  -28.8160   23.3006 O   0  0  0  0  0  0
  -28.2725  -26.4352   20.1583 O   0  0  0  0  0  0
  -26.5607  -34.8927   22.4730 O   0  0  0  0  0  0
  -23.5424  -32.1436   23.7446 O   0  0  0  0  0  0
  -30.3148  -24.2585   20.5092 C   0  0  0  0  0  0
  -31.3282  -23.2890   20.4770 C   0  0  0  0  0  0
  -28.6872  -22.4987   20.0367 C   0  0  0  0  0  0
  -29.7086  -21.4833   20.0262 C   0  0  0  0  0  0
  -28.9903  -23.8964   20.2209 C   0  0  0  0  0  0
  -31.0449  -21.9456   20.1625 C   0  0  0  0  0  0
  -30.8069  -19.2381   19.2934 C   0  0  0  0  0  0
  -31.8893  -20.2005   18.8314 C   0  0  0  0  0  0
  -29.4839  -19.9650   19.6497 C   0  0  1  0  0  0
  -27.9229  -25.0053   20.0177 C   0  0  0  0  0  0
  -28.9490  -16.4919   21.0195 C   0  0  0  0  0  0
  -29.1642  -18.0159   21.4205 C   0  0  0  0  0  0
  -30.0634  -15.8008   20.3180 N   0  0  0  0  0  0
  -28.6034  -19.1008   20.5185 N   0  3  0  0  0  0
  -32.1133  -21.1334   19.8838 O   0  0  0  0  0  0
  -31.4474  -12.4949   19.1066 H   0  0  0  0  0  0
  -30.3202  -11.4074   19.8739 H   0  0  0  0  0  0
  -29.7589  -11.7812   17.4359 H   0  0  0  0  0  0
  -29.5852  -13.4947   17.7124 H   0  0  0  0  0  0
  -27.9099  -11.2656   18.8980 H   0  0  0  0  0  0
  -27.3251  -12.4851   17.8044 H   0  0  0  0  0  0
  -27.6347  -14.2403   19.4616 H   0  0  0  0  0  0
  -28.7126  -12.1154   21.3865 H   0  0  0  0  0  0
  -28.4374  -13.7900   21.7994 H   0  0  0  0  0  0
  -25.2783   -9.5654   22.4802 H   0  0  0  0  0  0
  -24.0036   -7.4595   22.7421 H   0  0  0  0  0  0
  -21.0937   -8.8861   19.8909 H   0  0  0  0  0  0
  -22.3812  -10.9743   19.6200 H   0  0  0  0  0  0
  -21.2026   -7.6160   23.9780 H   0  0  0  0  0  0
  -21.1413   -6.0505   25.9096 H   0  0  0  0  0  0
  -22.0626   -2.7642   23.2816 H   0  0  0  0  0  0
  -22.4023  -11.9859   22.4775 H   0  0  0  0  0  0
  -21.1051  -13.1225   22.2520 H   0  0  0  0  0  0
  -24.6237  -15.8169   20.4991 H   0  0  0  0  0  0
  -26.2126  -15.6146   19.9502 H   0  0  0  0  0  0
  -26.7183  -32.5458   23.1152 H   0  0  0  0  0  0
  -25.0120  -33.9745   25.0511 H   0  0  0  0  0  0
  -22.7100  -31.3170   21.4271 H   0  0  0  0  0  0
  -23.3788  -35.9574   23.3315 H   0  0  0  0  0  0
  -24.3582  -36.8872   22.2056 H   0  0  0  0  0  0
  -23.7179  -37.6468   23.6630 H   0  0  0  0  0  0
  -26.1195  -31.5613   20.6321 H   0  0  0  0  0  0
  -26.8376  -30.8144   22.0300 H   0  0  0  0  0  0
  -28.0986  -28.9628   21.1957 H   0  0  0  0  0  0
  -25.8884  -25.9926   18.9285 H   0  0  0  0  0  0
  -23.9399  -27.3880   18.9610 H   0  0  0  0  0  0
  -23.7564  -30.6423   19.4212 H   0  0  0  0  0  0
  -22.7441  -29.2921   19.8512 H   0  0  0  0  0  0
  -25.1289  -36.2009   25.0839 H   0  0  0  0  0  0
  -20.9963  -28.3259   24.1399 H   0  0  0  0  0  0
  -20.5709  -26.2305   23.3586 H   0  0  0  0  0  0
  -21.6647  -26.7470   22.1165 H   0  0  0  0  0  0
  -19.6918  -25.6305   21.1222 H   0  0  0  0  0  0
  -19.6673  -27.3213   20.6742 H   0  0  0  0  0  0
  -17.4200  -26.6663   21.4035 H   0  0  0  0  0  0
  -18.0343  -26.0064   22.9023 H   0  0  0  0  0  0
  -19.7934  -30.7270   24.2268 H   0  0  0  0  0  0
  -17.5012  -31.6269   24.5171 H   0  0  0  0  0  0
  -15.5352  -30.2986   23.7655 H   0  0  0  0  0  0
  -15.8668  -28.0815   22.7080 H   0  0  0  0  0  0
  -24.5920  -30.7053   25.7814 H   0  0  0  0  0  0
  -24.8918  -32.2809   26.5004 H   0  0  0  0  0  0
  -25.8060  -30.8800   27.0241 H   0  0  0  0  0  0
  -26.2926  -29.6771   24.1267 H   0  0  0  0  0  0
  -27.4076  -29.7290   25.4729 H   0  0  0  0  0  0
  -27.8795  -30.4338   23.9459 H   0  0  0  0  0  0
  -27.2748  -33.3617   26.2121 H   0  0  0  0  0  0
  -28.3843  -32.6892   25.0274 H   0  0  0  0  0  0
  -28.0837  -31.8427   26.5364 H   0  0  0  0  0  0
  -28.2638  -38.0080   24.7560 H   0  0  0  0  0  0
  -28.1071  -36.2628   24.6289 H   0  0  0  0  0  0
  -27.2312  -37.1430   25.8878 H   0  0  0  0  0  0
  -20.9409  -29.8778   21.6902 H   0  0  0  0  0  0
  -26.0219  -38.2894   24.1411 H   0  0  0  0  0  0
  -30.5684  -25.2989   20.6728 H   0  0  0  0  0  0
  -32.3544  -23.5979   20.5951 H   0  0  0  0  0  0
  -27.6707  -22.2155   19.8197 H   0  0  0  0  0  0
  -31.2517  -18.7563   20.1565 H   0  0  0  0  0  0
  -30.6354  -18.4463   18.5656 H   0  0  0  0  0  0
  -31.6132  -20.7110   17.9038 H   0  0  0  0  0  0
  -32.8131  -19.6480   18.6498 H   0  0  0  0  0  0
  -28.9323  -20.0486   18.7142 H   0  0  0  0  0  0
  -27.0883  -24.7644   20.6780 H   0  0  0  0  0  0
  -27.5938  -24.8362   18.9919 H   0  0  0  0  0  0
  -28.0251  -16.3813   20.4505 H   0  0  0  0  0  0
  -28.7814  -15.9381   21.9438 H   0  0  0  0  0  0
  -30.1506  -18.2362   21.8287 H   0  0  0  0  0  0
  -28.5229  -18.1367   22.2945 H   0  0  0  0  0  0
  -30.7024  -16.4417   19.8704 H   0  0  0  0  0  0
  -27.9128  -18.6771   19.9240 H   0  0  0  0  0  0
  -28.0818  -19.7265   21.1103 H   0  0  0  0  0  0
  1 25  1  0  0  0
  1 30  2  0  0  0
  1 83  1  0  0  0
  2  3  1  0  0  0
  2 25  1  0  0  0
  2 86  1  0  0  0
  2 87  1  0  0  0
  3  4  1  0  0  0
  3 88  1  0  0  0
  3 89  1  0  0  0
  4  5  1  0  0  0
  4 90  1  0  0  0
  4 91  1  0  0  0
  5  6  1  0  0  0
  5 26  1  0  0  0
  5 92  1  0  0  0
  6 25  1  0  0  0
  6 93  1  0  0  0
  6 94  1  0  0  0
  7  8  2  0  0  0
  7 26  1  0  0  0
  7 29  1  0  0  0
  8  9  1  0  0  0
  8 22  1  0  0  0
  9 10  1  0  0  0
  9 27  2  0  0  0
 10 11  2  0  0  0
 10 15  1  0  0  0
 11 12  1  0  0  0
 11 95  1  0  0  0
 12 13  2  0  0  0
 12 96  1  0  0  0
 13 14  1  0  0  0
 13 31  1  0  0  0
 14 15  2  0  0  0
 14 97  1  0  0  0
 15 98  1  0  0  0
 16 17  2  0  0  0
 16 21  1  0  0  0
 16 31  1  0  0  0
 17 18  1  0  0  0
 17 99  1  0  0  0
 18 19  2  0  0  0
 18100  1  0  0  0
 19 20  1  0  0  0
 19 24  1  0  0  0
 20 21  2  0  0  0
 20101  1  0  0  0
 21 23  1  0  0  0
 22 28  1  0  0  0
 22 32  2  0  0  0
 26 27  1  0  0  0
 28102  1  0  0  0
 28103  1  0  0  0
 29104  1  0  0  0
 29105  1  0  0  0
 33 34  1  0  0  0
 33 66  1  0  0  0
 33 70  2  0  0  0
 34 36  1  0  0  0
 34 59  1  0  0  0
 34106  1  0  0  0
 35 44  2  0  0  0
 35 45  1  0  0  0
 35 68  1  0  0  0
 36 56  1  0  0  0
 36107  1  0  0  0
 37 39  1  0  0  0
 37 47  1  0  0  0
 37 66  1  0  0  0
 37108  1  0  0  0
 38 43  2  0  0  0
 38 46  1  0  0  0
 38 47  1  0  0  0
 39 64  1  0  0  0
 39 67  2  0  0  0
 40 52  1  0  0  0
 40 53  2  0  0  0
 40 58  1  0  0  0
 41109  1  0  0  0
 41110  1  0  0  0
 41111  1  0  0  0
 41 48  1  0  0  0
 42 43  1  0  0  0
 42 66  1  0  0  0
 42112  1  0  0  0
 42113  1  0  0  0
 43 44  1  0  0  0
 44114  1  0  0  0
 45 46  2  0  0  0
 45115  1  0  0  0
 46116  1  0  0  0
 47117  1  0  0  0
 47118  1  0  0  0
 48 56  1  0  0  0
 48 65  1  0  0  0
 48119  1  0  0  0
 49 50  1  0  0  0
 49 53  1  0  0  0
 49 64  1  0  0  0
 49120  1  0  0  0
 50 51  1  0  0  0
 50121  1  0  0  0
 50122  1  0  0  0
 51 52  1  0  0  0
 51123  1  0  0  0
 51124  1  0  0  0
 52125  1  0  0  0
 52126  1  0  0  0
 53 54  1  0  0  0
 54 55  2  0  0  0
 54127  1  0  0  0
 55 57  1  0  0  0
 55128  1  0  0  0
 56 69  2  0  0  0
 57 58  2  0  0  0
 57129  1  0  0  0
 58130  1  0  0  0
 59 60  1  0  0  0
 59 61  1  0  0  0
 59 62  1  0  0  0
 60131  1  0  0  0
 60132  1  0  0  0
 60133  1  0  0  0
 61134  1  0  0  0
 61135  1  0  0  0
 61136  1  0  0  0
 62137  1  0  0  0
 62138  1  0  0  0
 62139  1  0  0  0
 63 65  1  0  0  0
 63140  1  0  0  0
 63141  1  0  0  0
 63142  1  0  0  0
 64143  1  0  0  0
 65144  1  0  0  0
 68 80  1  0  0  0
 71 72  2  0  0  0
 71 75  1  0  0  0
 71145  1  0  0  0
 72 76  1  0  0  0
 72146  1  0  0  0
 73 74  1  0  0  0
 73 75  2  0  0  0
 73147  1  0  0  0
 74 76  2  0  0  0
 74 79  1  0  0  0
 75 80  1  0  0  0
 76 85  1  0  0  0
 77 78  1  0  0  0
 77 79  1  0  0  0
 77148  1  0  0  0
 77149  1  0  0  0
 78 85  1  0  0  0
 78150  1  0  0  0
 78151  1  0  0  0
 79 84  1  0  0  0
 79152  1  0  0  0
 80153  1  0  0  0
 80154  1  0  0  0
 81 82  1  0  0  0
 81 83  1  0  0  0
 81155  1  0  0  0
 81156  1  0  0  0
 82 84  1  0  0  0
 82157  1  0  0  0
 82158  1  0  0  0
 83159  1  0  0  0
 84160  1  0  0  0
 84161  1  0  0  0
M  CHG  1  84   1
M  ISO  4   1 100  68 101  80 101  83 100
M  END
> <chiral flag>
0

> <version>
0

> <s_m_source_file>
/data/baiqing/PycharmProjects/Reinvent-master-3.2/result/LINK_invent/BTK/process_docking_weight1_custom_sum_contain_oxygen_bond_distance_aromatic_linkinvent_7_9_3/rearranged_h_0132.sdf

> <i_m_source_file_index>
8

> <r_mmod_Potential_Energy-OPLS-2005>
-42.8951950073242

> <r_mmod_Stretch_Energy-OPLS-2005>
72.7897415161133

> <r_mmod_Bend_Energy-OPLS-2005>
183.376708984375

> <r_mmod_Torsional_Energy-OPLS-2005>
326.519470214844

> <r_mmod_Improper_Torsional_Energy-OPLS-2005>
22.7223453521729

> <r_mmod_Van_der_Waal_Energy-OPLS-2005>
159.00227355957

> <r_mmod_Electrostatic_Energy-OPLS-2005>
-352.648651123047

> <r_mmod_Solvation_Energy-OPLS-2005>
-510.467224121094

> <b_mmod_Minimization_Converged-OPLS-2005>
0

> <r_mmod_RMS_Derivative-OPLS-2005>
8.26124095916748

$$$$
8
                    3D
 Structure written by MMmdl.
173182  0  0  1  0            999 V2000
  -29.6909  -12.7609   20.1623 C   0  0  0  0  0  0
  -30.6930  -11.9067   19.2686 C   0  0  0  0  0  0
  -29.5797  -12.4711   17.8391 C   0  0  0  0  0  0
  -28.0537  -13.3148   18.2935 C   0  0  0  0  0  0
  -27.6227  -13.8063   20.0290 C   0  0  2  0  0  0
  -28.8377  -13.2761   21.3768 C   0  0  0  0  0  0
  -25.3401  -14.3019   21.0466 C   0  0  0  0  0  0
  -24.2886  -13.5738   21.4691 C   0  0  0  0  0  0
  -24.8084  -12.3047   21.3781 C   0  0  0  0  0  0
  -24.0932  -11.1967   21.0342 C   0  0  0  0  0  0
  -24.1798  -10.0613   22.3358 C   0  0  0  0  0  0
  -23.6063   -8.5033   22.1967 C   0  0  0  0  0  0
  -22.8394   -7.8012   20.9045 C   0  0  0  0  0  0
  -22.6355   -8.4844   19.3592 C   0  0  0  0  0  0
  -23.1318  -10.1205   18.9789 C   0  0  0  0  0  0
  -21.8081   -6.0957   22.4157 C   0  0  0  0  0  0
  -21.4716   -6.6043   23.7020 C   0  0  0  0  0  0
  -21.3894   -5.7370   24.8223 C   0  0  0  0  0  0
  -21.6052   -4.3533   24.6694 C   0  0  0  0  0  0
  -21.8802   -3.8395   23.3910 C   0  0  0  0  0  0
  -21.9646   -4.7026   22.2823 C   0  0  0  0  0  0
  -22.8493  -13.9519   21.6292 C   0  0  0  0  0  0
  -22.1902   -4.1848   21.0530 F   0  0  0  0  0  0
  -21.5412   -3.5131   25.7336 F   0  0  0  0  0  0
  -30.2418  -12.3680   20.9041 N   0  0  0  0  0  0
  -26.3386  -13.4559   20.6337 N   0  0  0  0  0  0
  -26.1015  -12.2638   21.1993 N   0  0  0  0  0  0
  -22.1202  -13.2259   22.4776 N   0  0  0  0  0  0
  -25.5373  -15.6507   20.9532 N   0  0  0  0  0  0
  -30.2423  -14.0155   19.7853 O   0  0  0  0  0  0
  -21.8718   -6.8404   21.2385 O   0  0  0  0  0  0
  -22.3436  -14.7980   20.8938 O   0  0  0  0  0  0
  -24.6676  -31.8271   23.1794 C   0  0  0  0  0  0
  -25.9391  -32.4572   23.8190 C   0  0  1  0  0  0
  -26.9278  -26.8159   20.0615 C   0  0  0  0  0  0
  -25.6078  -33.8402   24.2075 N   0  0  0  0  0  0
  -23.4606  -30.4731   21.5393 C   0  0  2  0  0  0
  -24.8490  -28.8788   20.0835 C   0  0  0  0  0  0
  -22.7588  -29.4550   22.4761 C   0  0  0  0  0  0
  -18.0318  -28.1385   22.8470 C   0  0  0  0  0  0
  -24.1494  -36.7158   23.2641 C   0  0  0  0  0  0
  -26.0438  -30.5822   21.4246 C   0  0  0  0  0  0
  -26.0550  -29.1789   20.7290 C   0  0  0  0  0  0
  -27.1199  -28.1549   20.7021 C   0  0  0  0  0  0
  -25.7513  -26.7408   19.3357 C   0  0  0  0  0  0
  -24.7269  -27.6872   19.3747 C   0  0  0  0  0  0
  -23.6765  -29.8440   20.1463 C   0  0  0  0  0  0
  -25.4152  -36.2945   24.0276 C   0  0  1  0  0  0
  -20.5939  -28.3758   23.1152 C   0  0  2  0  0  0
  -20.6803  -26.9444   22.5374 C   0  0  0  0  0  0
  -19.5772  -26.6362   21.5193 C   0  0  0  0  0  0
  -18.1952  -26.7919   22.1610 C   0  0  0  0  0  0
  -19.1580  -28.8886   23.2806 C   0  0  0  0  0  0
  -18.9502  -30.1475   23.8846 C   0  0  0  0  0  0
  -17.6504  -30.6599   24.0546 C   0  0  0  0  0  0
  -25.9146  -34.9341   23.4981 C   0  0  0  0  0  0
  -16.5390  -29.9085   23.6345 C   0  0  0  0  0  0
  -16.7302  -28.6486   23.0389 C   0  0  0  0  0  0
  -26.4614  -31.6557   25.0758 C   0  0  0  0  0  0
  -25.3685  -31.3926   26.1378 C   0  0  0  0  0  0
  -27.0546  -30.2883   24.6651 C   0  0  0  0  0  0
  -27.6059  -32.4402   25.7597 C   0  0  0  0  0  0
  -27.5560  -37.1748   24.8453 C   0  0  0  0  0  0
  -21.4270  -29.3082   22.3490 N   0  0  0  0  0  0
  -26.4272  -37.3704   23.9392 N   0  0  0  0  0  0
  -24.7501  -30.9888   22.0971 N   0  0  0  0  0  0
  -23.4177  -28.8051   23.2917 O   0  0  0  0  0  0
  -27.6633  -25.5249   19.9814 O   0  0  0  0  0  0
  -26.5732  -34.8884   22.4564 O   0  0  0  0  0  0
  -23.5763  -32.1336   23.6888 O   0  0  0  0  0  0
  -22.2455  -10.0980   20.9636 C   0  0  0  0  0  0
  -21.8306  -11.5945   20.2560 C   0  0  0  0  0  0
  -24.7173   -9.3221   20.1771 C   0  0  0  0  0  0
  -22.8900  -12.4689   19.2477 C   0  0  0  0  0  0
  -25.4854  -10.7160   19.1917 C   0  0  0  0  0  0
  -24.4980  -12.2159   18.7672 C   0  0  0  0  0  0
  -27.4513  -20.9368   19.6434 C   0  0  0  0  0  0
  -27.9370  -22.5777   19.5805 C   0  0  0  0  0  0
  -25.2888  -21.6002   19.2759 C   0  0  0  0  0  0
  -26.1631  -20.2594   18.8605 C   0  0  2  0  0  0
  -27.0415  -23.9286   19.9696 C   0  0  2  0  0  0
  -25.7510  -23.2380   19.1855 C   0  0  2  0  0  0
  -27.2468  -10.7569   19.1536 C   0  0  0  0  0  0
  -24.9304  -13.8103   18.0188 C   0  0  0  0  0  0
  -25.4993  -18.5292   19.0267 C   0  0  0  0  0  0
  -25.5913  -16.8861   18.1922 C   0  0  0  0  0  0
  -28.5450  -11.4796   19.9901 N   0  0  0  0  0  0
  -24.7749  -15.4365   18.5014 N   0  3  0  0  0  0
  -24.5943  -23.8571   19.7193 O   0  0  0  0  0  0
  -31.7358  -12.1932   19.0541 H   0  0  0  0  0  0
  -30.7933  -10.8111   19.1916 H   0  0  0  0  0  0
  -29.3486  -11.6080   17.2123 H   0  0  0  0  0  0
  -30.1601  -13.1206   17.1794 H   0  0  0  0  0  0
  -27.3111  -12.7186   17.7963 H   0  0  0  0  0  0
  -28.0608  -14.2451   17.7209 H   0  0  0  0  0  0
  -27.6975  -14.8955   19.9909 H   0  0  0  0  0  0
  -28.3286  -12.7103   22.1742 H   0  0  0  0  0  0
  -29.1080  -14.1727   21.9623 H   0  0  0  0  0  0
  -24.6388  -10.3707   23.2644 H   0  0  0  0  0  0
  -23.6631   -7.9342   23.1091 H   0  0  0  0  0  0
  -22.0910   -7.9423   18.5957 H   0  0  0  0  0  0
  -23.0270  -10.4725   17.9565 H   0  0  0  0  0  0
  -21.2871   -7.6606   23.8346 H   0  0  0  0  0  0
  -21.1639   -6.1354   25.8009 H   0  0  0  0  0  0
  -22.0241   -2.7795   23.2450 H   0  0  0  0  0  0
  -22.5453  -12.5291   23.0672 H   0  0  0  0  0  0
  -21.1221  -13.3696   22.5355 H   0  0  0  0  0  0
  -24.9735  -16.2270   21.5737 H   0  0  0  0  0  0
  -26.5103  -15.9272   21.0589 H   0  0  0  0  0  0
  -26.7408  -32.5026   23.0835 H   0  0  0  0  0  0
  -25.0195  -33.9499   25.0206 H   0  0  0  0  0  0
  -22.7761  -31.3146   21.4016 H   0  0  0  0  0  0
  -23.3797  -35.9447   23.3274 H   0  0  0  0  0  0
  -24.3557  -36.8846   22.2061 H   0  0  0  0  0  0
  -23.7218  -37.6312   23.6739 H   0  0  0  0  0  0
  -26.2713  -31.3423   20.6745 H   0  0  0  0  0  0
  -26.8851  -30.5943   22.1049 H   0  0  0  0  0  0
  -28.0393  -28.3483   21.2379 H   0  0  0  0  0  0
  -25.5713  -25.8662   18.7356 H   0  0  0  0  0  0
  -23.8117  -27.4723   18.8388 H   0  0  0  0  0  0
  -23.8558  -30.6364   19.4185 H   0  0  0  0  0  0
  -22.7638  -29.3474   19.8105 H   0  0  0  0  0  0
  -25.1368  -36.1721   25.0769 H   0  0  0  0  0  0
  -21.0065  -28.3373   24.1259 H   0  0  0  0  0  0
  -20.5661  -26.2393   23.3618 H   0  0  0  0  0  0
  -21.6669  -26.7410   22.1198 H   0  0  0  0  0  0
  -19.6936  -25.6247   21.1278 H   0  0  0  0  0  0
  -19.6695  -27.3117   20.6670 H   0  0  0  0  0  0
  -17.4215  -26.6657   21.4019 H   0  0  0  0  0  0
  -18.0363  -26.0063   22.9008 H   0  0  0  0  0  0
  -19.7993  -30.7290   24.2178 H   0  0  0  0  0  0
  -17.5080  -31.6280   24.5142 H   0  0  0  0  0  0
  -15.5396  -30.2988   23.7707 H   0  0  0  0  0  0
  -15.8687  -28.0788   22.7172 H   0  0  0  0  0  0
  -24.5836  -30.7310   25.7698 H   0  0  0  0  0  0
  -24.8934  -32.3204   26.4577 H   0  0  0  0  0  0
  -25.7844  -30.9226   27.0294 H   0  0  0  0  0  0
  -26.3258  -29.6454   24.1699 H   0  0  0  0  0  0
  -27.4014  -29.7381   25.5409 H   0  0  0  0  0  0
  -27.9235  -30.3980   24.0153 H   0  0  0  0  0  0
  -27.2560  -33.3728   26.2035 H   0  0  0  0  0  0
  -28.3980  -32.6917   25.0534 H   0  0  0  0  0  0
  -28.0601  -31.8632   26.5659 H   0  0  0  0  0  0
  -28.2550  -38.0073   24.7539 H   0  0  0  0  0  0
  -28.1084  -36.2598   24.6255 H   0  0  0  0  0  0
  -27.2256  -37.1347   25.8848 H   0  0  0  0  0  0
  -20.9451  -29.8833   21.6722 H   0  0  0  0  0  0
  -26.0096  -38.2741   24.1449 H   0  0  0  0  0  0
  -21.5052   -9.6182   21.5997 H   0  0  0  0  0  0
  -20.8378  -11.9859   20.4315 H   0  0  0  0  0  0
  -25.2931   -8.4448   20.4618 H   0  0  0  0  0  0
  -22.4499  -13.3726   18.8594 H   0  0  0  0  0  0
  -27.3531  -20.6757   20.6990 H   0  0  0  0  0  0
  -28.3146  -20.3508   19.3207 H   0  0  0  0  0  0
  -28.2895  -22.7357   18.5616 H   0  0  0  0  0  0
  -28.8484  -22.6342   20.1763 H   0  0  0  0  0  0
  -24.9783  -21.4290   20.3084 H   0  0  0  0  0  0
  -24.3639  -21.5186   18.7062 H   0  0  0  0  0  0
  -26.3596  -20.3693   17.7943 H   0  0  0  0  0  0
  -26.8095  -23.8100   21.0301 H   0  0  0  0  0  0
  -25.8305  -23.5080   18.1311 H   0  0  0  0  0  0
  -27.5285  -10.6445   18.1120 H   0  0  0  0  0  0
  -27.4130   -9.7356   19.4934 H   0  0  0  0  0  0
  -24.1517  -13.8086   17.2521 H   0  0  0  0  0  0
  -25.7483  -13.7682   17.3075 H   0  0  0  0  0  0
  -24.4238  -18.7050   18.9774 H   0  0  0  0  0  0
  -25.6422  -18.2967   20.0799 H   0  0  0  0  0  0
  -26.6395  -16.5990   18.2128 H   0  0  0  0  0  0
  -25.3757  -17.0749   17.1430 H   0  0  0  0  0  0
  -28.7535  -10.8652   20.7613 H   0  0  0  0  0  0
  -24.9563  -15.4075   19.5116 H   0  0  0  0  0  0
  -23.7937  -15.6639   18.4440 H   0  0  0  0  0  0
  -23.8594  -23.6282   19.1590 H   0  0  0  0  0  0
  1 25  1  0  0  0
  1 30  2  0  0  0
  1 87  1  0  0  0
  2  3  1  0  0  0
  2 25  1  0  0  0
  2 90  1  0  0  0
  2 91  1  0  0  0
  3  4  1  0  0  0
  3 92  1  0  0  0
  3 93  1  0  0  0
  4  5  1  0  0  0
  4 94  1  0  0  0
  4 95  1  0  0  0
  5  6  1  0  0  0
  5 26  1  0  0  0
  5 96  1  0  0  0
  6 25  1  0  0  0
  6 97  1  0  0  0
  6 98  1  0  0  0
  7  8  2  0  0  0
  7 26  1  0  0  0
  7 29  1  0  0  0
  8  9  1  0  0  0
  8 22  1  0  0  0
  9 10  1  0  0  0
  9 27  2  0  0  0
 10 11  2  0  0  0
 10 15  1  0  0  0
 11 12  1  0  0  0
 11 99  1  0  0  0
 12 13  2  0  0  0
 12100  1  0  0  0
 13 14  1  0  0  0
 13 31  1  0  0  0
 14 15  2  0  0  0
 14101  1  0  0  0
 15102  1  0  0  0
 16 17  2  0  0  0
 16 21  1  0  0  0
 16 31  1  0  0  0
 17 18  1  0  0  0
 17103  1  0  0  0
 18 19  2  0  0  0
 18104  1  0  0  0
 19 20  1  0  0  0
 19 24  1  0  0  0
 20 21  2  0  0  0
 20105  1  0  0  0
 21 23  1  0  0  0
 22 28  1  0  0  0
 22 32  2  0  0  0
 26 27  1  0  0  0
 28106  1  0  0  0
 28107  1  0  0  0
 29108  1  0  0  0
 29109  1  0  0  0
 33 34  1  0  0  0
 33 66  1  0  0  0
 33 70  2  0  0  0
 34 36  1  0  0  0
 34 59  1  0  0  0
 34110  1  0  0  0
 35 44  2  0  0  0
 35 45  1  0  0  0
 35 68  1  0  0  0
 36 56  1  0  0  0
 36111  1  0  0  0
 37 39  1  0  0  0
 37 47  1  0  0  0
 37 66  1  0  0  0
 37112  1  0  0  0
 38 43  2  0  0  0
 38 46  1  0  0  0
 38 47  1  0  0  0
 39 64  1  0  0  0
 39 67  2  0  0  0
 40 52  1  0  0  0
 40 53  2  0  0  0
 40 58  1  0  0  0
 41113  1  0  0  0
 41114  1  0  0  0
 41115  1  0  0  0
 41 48  1  0  0  0
 42 43  1  0  0  0
 42 66  1  0  0  0
 42116  1  0  0  0
 42117  1  0  0  0
 43 44  1  0  0  0
 44118  1  0  0  0
 45 46  2  0  0  0
 45119  1  0  0  0
 46120  1  0  0  0
 47121  1  0  0  0
 47122  1  0  0  0
 48 56  1  0  0  0
 48 65  1  0  0  0
 48123  1  0  0  0
 49 50  1  0  0  0
 49 53  1  0  0  0
 49 64  1  0  0  0
 49124  1  0  0  0
 50 51  1  0  0  0
 50125  1  0  0  0
 50126  1  0  0  0
 51 52  1  0  0  0
 51127  1  0  0  0
 51128  1  0  0  0
 52129  1  0  0  0
 52130  1  0  0  0
 53 54  1  0  0  0
 54 55  2  0  0  0
 54131  1  0  0  0
 55 57  1  0  0  0
 55132  1  0  0  0
 56 69  2  0  0  0
 57 58  2  0  0  0
 57133  1  0  0  0
 58134  1  0  0  0
 59 60  1  0  0  0
 59 61  1  0  0  0
 59 62  1  0  0  0
 60135  1  0  0  0
 60136  1  0  0  0
 60137  1  0  0  0
 61138  1  0  0  0
 61139  1  0  0  0
 61140  1  0  0  0
 62141  1  0  0  0
 62142  1  0  0  0
 62143  1  0  0  0
 63 65  1  0  0  0
 63144  1  0  0  0
 63145  1  0  0  0
 63146  1  0  0  0
 64147  1  0  0  0
 65148  1  0  0  0
 68 81  1  0  0  0
 71 72  2  0  0  0
 71 73  1  0  0  0
 71149  1  0  0  0
 72 74  1  0  0  0
 72150  1  0  0  0
 73 75  2  0  0  0
 73151  1  0  0  0
 74 76  2  0  0  0
 74152  1  0  0  0
 75 76  1  0  0  0
 75 83  1  0  0  0
 76 84  1  0  0  0
 77 78  1  0  0  0
 77 80  1  0  0  0
 77153  1  0  0  0
 77154  1  0  0  0
 78 81  1  0  0  0
 78155  1  0  0  0
 78156  1  0  0  0
 79 80  1  0  0  0
 79 82  1  0  0  0
 79157  1  0  0  0
 79158  1  0  0  0
 80 85  1  0  0  0
 80159  1  0  0  0
 81 82  1  0  0  0
 81160  1  0  0  0
 82 89  1  0  0  0
 82161  1  0  0  0
 83 87  1  0  0  0
 83162  1  0  0  0
 83163  1  0  0  0
 84 88  1  0  0  0
 84164  1  0  0  0
 84165  1  0  0  0
 85 86  1  0  0  0
 85166  1  0  0  0
 85167  1  0  0  0
 86 88  1  0  0  0
 86168  1  0  0  0
 86169  1  0  0  0
 87170  1  0  0  0
 88171  1  0  0  0
 88172  1  0  0  0
 89173  1  0  0  0
M  CHG  1  88   1
M  ISO  4   1 100  68 101  81 101  87 100
M  END
> <chiral flag>
0

> <version>
0

> <s_m_source_file>
/data/baiqing/PycharmProjects/Reinvent-master-3.2/result/LINK_invent/BTK/process_docking_weight1_custom_sum_contain_oxygen_bond_distance_aromatic_linkinvent_7_9_3/rearranged_h_0132.sdf

> <i_m_source_file_index>
9

> <r_mmod_Potential_Energy-OPLS-2005>
18995.234375

> <r_mmod_Stretch_Energy-OPLS-2005>
10510.5419921875

> <r_mmod_Bend_Energy-OPLS-2005>
1646.89697265625

> <r_mmod_Torsional_Energy-OPLS-2005>
476.146179199219

> <r_mmod_Improper_Torsional_Energy-OPLS-2005>
30.5672836303711

> <r_mmod_Van_der_Waal_Energy-OPLS-2005>
4839.24755859375

> <r_mmod_Electrostatic_Energy-OPLS-2005>
-388.340087890625

> <r_mmod_Solvation_Energy-OPLS-2005>
-452.84619140625

> <b_mmod_Minimization_Converged-OPLS-2005>
0

> <r_mmod_RMS_Derivative-OPLS-2005>
12.4727306365967

$$$$
9
                    3D
 Structure written by MMmdl.
165175  0  0  1  0            999 V2000
  -30.7160  -14.4582   20.6073 C   0  0  0  0  0  0
  -30.4204  -12.3154   19.4119 C   0  0  0  0  0  0
  -29.4889  -12.5099   18.1994 C   0  0  0  0  0  0
  -28.0121  -12.3664   18.6162 C   0  0  0  0  0  0
  -27.6598  -13.2067   19.8729 C   0  0  2  0  0  0
  -28.7011  -12.9856   20.9916 C   0  0  0  0  0  0
  -25.2580  -13.8161   20.5678 C   0  0  0  0  0  0
  -24.1832  -13.0437   20.9172 C   0  0  0  0  0  0
  -24.6387  -11.6905   20.8731 C   0  0  0  0  0  0
  -23.9056  -10.4291   21.0403 C   0  0  0  0  0  0
  -24.3610   -9.4209   21.9182 C   0  0  0  0  0  0
  -23.6289   -8.2243   22.0755 C   0  0  0  0  0  0
  -22.4271   -8.0279   21.3545 C   0  0  0  0  0  0
  -21.9903   -9.0252   20.4648 C   0  0  0  0  0  0
  -22.7228  -10.2132   20.3054 C   0  0  0  0  0  0
  -21.6851   -6.0734   22.5280 C   0  0  0  0  0  0
  -21.4012   -6.5637   23.8213 C   0  0  0  0  0  0
  -21.3659   -5.6790   24.9175 C   0  0  0  0  0  0
  -21.6044   -4.3055   24.7226 C   0  0  0  0  0  0
  -21.8820   -3.8147   23.4349 C   0  0  0  0  0  0
  -21.9192   -4.6962   22.3404 C   0  0  0  0  0  0
  -22.7856  -13.5237   21.1842 C   0  0  0  0  0  0
  -22.1662   -4.2149   21.0981 F   0  0  0  0  0  0
  -21.5630   -3.4540   25.7738 F   0  0  0  0  0  0
  -30.0299  -13.2955   20.4376 N   0  0  0  0  0  0
  -26.3014  -12.9330   20.3357 N   0  0  0  0  0  0
  -25.9312  -11.6490   20.5758 N   0  0  0  0  0  0
  -22.0499  -12.8233   22.0401 N   0  0  0  0  0  0
  -25.4304  -15.1880   20.4097 N   0  0  0  0  0  0
  -31.8250  -14.6576   20.1036 O   0  0  0  0  0  0
  -21.6636   -6.8876   21.4242 O   0  0  0  0  0  0
  -22.3544  -14.5547   20.6694 O   0  0  0  0  0  0
  -24.6151  -31.8669   23.2094 C   0  0  0  0  0  0
  -25.9043  -32.4811   23.8390 C   0  0  1  0  0  0
  -27.2291  -27.4257   20.1000 C   0  0  0  0  0  0
  -25.5898  -33.8612   24.2324 N   0  0  0  0  0  0
  -23.4023  -30.4909   21.5500 C   0  0  2  0  0  0
  -24.8472  -28.9544   20.1139 C   0  0  0  0  0  0
  -22.7405  -29.4658   22.4986 C   0  0  0  0  0  0
  -18.0271  -28.1375   22.8496 C   0  0  0  0  0  0
  -24.1487  -36.7314   23.2640 C   0  0  0  0  0  0
  -25.9315  -30.8305   21.3625 C   0  0  0  0  0  0
  -26.0078  -29.4650   20.7081 C   0  0  0  0  0  0
  -27.2029  -28.7099   20.6924 C   0  0  0  0  0  0
  -26.0524  -26.9317   19.4949 C   0  0  0  0  0  0
  -24.8649  -27.6883   19.5028 C   0  0  0  0  0  0
  -23.6098  -29.8224   20.1646 C   0  0  0  0  0  0
  -25.4109  -36.3106   24.0338 C   0  0  1  0  0  0
  -20.5861  -28.3664   23.1318 C   0  0  2  0  0  0
  -20.6761  -26.9400   22.5420 C   0  0  0  0  0  0
  -19.5740  -26.6386   21.5214 C   0  0  0  0  0  0
  -18.1918  -26.7925   22.1624 C   0  0  0  0  0  0
  -19.1520  -28.8837   23.2904 C   0  0  0  0  0  0
  -18.9450  -30.1443   23.8913 C   0  0  0  0  0  0
  -17.6452  -30.6584   24.0570 C   0  0  0  0  0  0
  -25.9037  -34.9470   23.5130 C   0  0  0  0  0  0
  -16.5343  -29.9089   23.6326 C   0  0  0  0  0  0
  -16.7261  -28.6505   23.0351 C   0  0  0  0  0  0
  -26.4473  -31.6593   25.0721 C   0  0  0  0  0  0
  -25.3740  -31.3694   26.1470 C   0  0  0  0  0  0
  -27.0306  -30.3034   24.6099 C   0  0  0  0  0  0
  -27.6057  -32.4310   25.7474 C   0  0  0  0  0  0
  -27.5582  -37.1809   24.8466 C   0  0  0  0  0  0
  -21.4134  -29.3032   22.3723 N   0  0  0  0  0  0
  -26.4296  -37.3791   23.9409 N   0  0  0  0  0  0
  -24.6679  -31.0770   22.0991 N   0  0  0  0  0  0
  -23.4177  -28.8201   23.3030 O   0  0  0  0  0  0
  -28.3988  -26.6939   20.1152 O   0  0  0  0  0  0
  -26.5600  -34.8921   22.4690 O   0  0  0  0  0  0
  -23.5345  -32.1425   23.7492 O   0  0  0  0  0  0
  -32.5306  -22.1625   24.3450 C   0  0  0  0  0  0
  -32.2115  -23.5088   24.1537 C   0  0  0  0  0  0
  -30.9705  -25.2387   23.0504 C   0  0  0  0  0  0
  -30.0246  -25.6715   22.1154 C   0  0  0  0  0  0
  -31.8910  -21.1802   23.5762 C   0  0  0  0  0  0
  -29.6319  -23.3516   21.4461 C   0  0  0  0  0  0
  -31.2524  -23.8686   23.1921 C   0  0  0  0  0  0
  -30.5889  -22.8855   22.3964 C   0  0  0  0  0  0
  -29.3516  -24.7418   21.2994 C   0  0  0  0  0  0
  -30.9122  -21.4980   22.5932 C   0  0  0  0  0  0
  -30.0483  -18.4480   23.3777 C   0  0  0  0  0  0
  -30.3114  -16.9379   23.2728 C   0  0  0  0  0  0
  -30.3129  -17.9738   21.0584 C   0  0  0  0  0  0
  -30.6746  -19.0409   22.1093 C   0  0  1  0  0  0
  -30.6954  -16.6655   21.8042 C   0  0  2  0  0  0
  -28.3034  -25.2672   20.3151 C   0  0  0  0  0  0
  -30.3034  -20.4472   21.8523 N   0  0  0  0  0  0
  -30.0860  -15.4181   21.3123 N   0  0  0  0  0  0
  -31.4632  -12.4198   19.1067 H   0  0  0  0  0  0
  -30.3282  -11.3030   19.8083 H   0  0  0  0  0  0
  -29.7285  -11.7852   17.4201 H   0  0  0  0  0  0
  -29.6534  -13.4957   17.7616 H   0  0  0  0  0  0
  -27.8258  -11.3101   18.8141 H   0  0  0  0  0  0
  -27.3585  -12.6380   17.7865 H   0  0  0  0  0  0
  -27.7054  -14.2552   19.5774 H   0  0  0  0  0  0
  -28.6808  -11.9477   21.3276 H   0  0  0  0  0  0
  -28.4561  -13.5787   21.8733 H   0  0  0  0  0  0
  -25.2757   -9.5685   22.4753 H   0  0  0  0  0  0
  -24.0000   -7.4636   22.7473 H   0  0  0  0  0  0
  -21.0833   -8.8768   19.8955 H   0  0  0  0  0  0
  -22.3687  -10.9668   19.6161 H   0  0  0  0  0  0
  -21.2002   -7.6144   23.9715 H   0  0  0  0  0  0
  -21.1480   -6.0521   25.9077 H   0  0  0  0  0  0
  -22.0600   -2.7609   23.2848 H   0  0  0  0  0  0
  -22.4111  -11.9890   22.4785 H   0  0  0  0  0  0
  -21.1122  -13.1266   22.2617 H   0  0  0  0  0  0
  -24.6658  -15.8453   20.5204 H   0  0  0  0  0  0
  -26.2881  -15.6282   20.0999 H   0  0  0  0  0  0
  -26.7112  -32.5519   23.1151 H   0  0  0  0  0  0
  -25.0048  -33.9774   25.0468 H   0  0  0  0  0  0
  -22.6916  -31.3084   21.4110 H   0  0  0  0  0  0
  -23.3746  -35.9649   23.3305 H   0  0  0  0  0  0
  -24.3580  -36.8929   22.2053 H   0  0  0  0  0  0
  -23.7244  -37.6521   23.6655 H   0  0  0  0  0  0
  -26.0457  -31.5966   20.5944 H   0  0  0  0  0  0
  -26.8189  -30.8822   21.9816 H   0  0  0  0  0  0
  -28.1004  -29.0997   21.1523 H   0  0  0  0  0  0
  -26.0460  -25.9651   19.0113 H   0  0  0  0  0  0
  -23.9729  -27.2922   19.0372 H   0  0  0  0  0  0
  -23.7184  -30.5972   19.4047 H   0  0  0  0  0  0
  -22.7327  -29.2433   19.8697 H   0  0  0  0  0  0
  -25.1284  -36.1969   25.0831 H   0  0  0  0  0  0
  -20.9958  -28.3231   24.1438 H   0  0  0  0  0  0
  -20.5667  -26.2270   23.3605 H   0  0  0  0  0  0
  -21.6631  -26.7443   22.1211 H   0  0  0  0  0  0
  -19.6903  -25.6301   21.1233 H   0  0  0  0  0  0
  -19.6681  -27.3205   20.6751 H   0  0  0  0  0  0
  -17.4189  -26.6680   21.4022 H   0  0  0  0  0  0
  -18.0316  -26.0059   22.9011 H   0  0  0  0  0  0
  -19.7925  -30.7257   24.2289 H   0  0  0  0  0  0
  -17.5008  -31.6267   24.5168 H   0  0  0  0  0  0
  -15.5346  -30.2998   23.7642 H   0  0  0  0  0  0
  -15.8660  -28.0834   22.7055 H   0  0  0  0  0  0
  -24.5918  -30.7034   25.7807 H   0  0  0  0  0  0
  -24.8923  -32.2844   26.4929 H   0  0  0  0  0  0
  -25.8099  -30.8859   27.0222 H   0  0  0  0  0  0
  -26.2849  -29.6783   24.1171 H   0  0  0  0  0  0
  -27.4096  -29.7280   25.4555 H   0  0  0  0  0  0
  -27.8672  -30.4352   23.9233 H   0  0  0  0  0  0
  -27.2695  -33.3610   26.2069 H   0  0  0  0  0  0
  -28.3853  -32.6868   25.0286 H   0  0  0  0  0  0
  -28.0736  -31.8419   26.5370 H   0  0  0  0  0  0
  -28.2607  -38.0099   24.7509 H   0  0  0  0  0  0
  -28.1073  -36.2633   24.6298 H   0  0  0  0  0  0
  -27.2299  -37.1467   25.8869 H   0  0  0  0  0  0
  -20.9293  -29.8752   21.6946 H   0  0  0  0  0  0
  -26.0185  -38.2871   24.1403 H   0  0  0  0  0  0
  -33.2680  -21.8794   25.0834 H   0  0  0  0  0  0
  -32.7074  -24.2622   24.7512 H   0  0  0  0  0  0
  -31.4765  -25.9706   23.6649 H   0  0  0  0  0  0
  -29.8200  -26.7300   22.0383 H   0  0  0  0  0  0
  -32.1967  -20.1695   23.7895 H   0  0  0  0  0  0
  -29.1007  -22.6441   20.8266 H   0  0  0  0  0  0
  -30.4460  -18.8641   24.3031 H   0  0  0  0  0  0
  -28.9720  -18.6294   23.3805 H   0  0  0  0  0  0
  -29.4230  -16.3859   23.5831 H   0  0  0  0  0  0
  -31.1234  -16.6373   23.9367 H   0  0  0  0  0  0
  -30.8680  -18.0952   20.1271 H   0  0  0  0  0  0
  -29.2465  -17.9969   20.8273 H   0  0  0  0  0  0
  -31.7621  -18.9888   22.1810 H   0  0  0  0  0  0
  -31.7841  -16.5761   21.7686 H   0  0  0  0  0  0
  -27.3303  -24.9747   20.7134 H   0  0  0  0  0  0
  -28.4238  -24.7650   19.3547 H   0  0  0  0  0  0
  -29.6297  -20.6622   21.1231 H   0  0  0  0  0  0
  -29.1580  -15.1939   21.6392 H   0  0  0  0  0  0
  1 25  1  0  0  0
  1 30  2  0  0  0
  1 88  1  0  0  0
  2  3  1  0  0  0
  2 25  1  0  0  0
  2 89  1  0  0  0
  2 90  1  0  0  0
  3  4  1  0  0  0
  3 91  1  0  0  0
  3 92  1  0  0  0
  4  5  1  0  0  0
  4 93  1  0  0  0
  4 94  1  0  0  0
  5  6  1  0  0  0
  5 26  1  0  0  0
  5 95  1  0  0  0
  6 25  1  0  0  0
  6 96  1  0  0  0
  6 97  1  0  0  0
  7  8  2  0  0  0
  7 26  1  0  0  0
  7 29  1  0  0  0
  8  9  1  0  0  0
  8 22  1  0  0  0
  9 10  1  0  0  0
  9 27  2  0  0  0
 10 11  2  0  0  0
 10 15  1  0  0  0
 11 12  1  0  0  0
 11 98  1  0  0  0
 12 13  2  0  0  0
 12 99  1  0  0  0
 13 14  1  0  0  0
 13 31  1  0  0  0
 14 15  2  0  0  0
 14100  1  0  0  0
 15101  1  0  0  0
 16 17  2  0  0  0
 16 21  1  0  0  0
 16 31  1  0  0  0
 17 18  1  0  0  0
 17102  1  0  0  0
 18 19  2  0  0  0
 18103  1  0  0  0
 19 20  1  0  0  0
 19 24  1  0  0  0
 20 21  2  0  0  0
 20104  1  0  0  0
 21 23  1  0  0  0
 22 28  1  0  0  0
 22 32  2  0  0  0
 26 27  1  0  0  0
 28105  1  0  0  0
 28106  1  0  0  0
 29107  1  0  0  0
 29108  1  0  0  0
 33 34  1  0  0  0
 33 66  1  0  0  0
 33 70  2  0  0  0
 34 36  1  0  0  0
 34 59  1  0  0  0
 34109  1  0  0  0
 35 44  2  0  0  0
 35 45  1  0  0  0
 35 68  1  0  0  0
 36 56  1  0  0  0
 36110  1  0  0  0
 37 39  1  0  0  0
 37 47  1  0  0  0
 37 66  1  0  0  0
 37111  1  0  0  0
 38 43  2  0  0  0
 38 46  1  0  0  0
 38 47  1  0  0  0
 39 64  1  0  0  0
 39 67  2  0  0  0
 40 52  1  0  0  0
 40 53  2  0  0  0
 40 58  1  0  0  0
 41112  1  0  0  0
 41113  1  0  0  0
 41114  1  0  0  0
 41 48  1  0  0  0
 42 43  1  0  0  0
 42 66  1  0  0  0
 42115  1  0  0  0
 42116  1  0  0  0
 43 44  1  0  0  0
 44117  1  0  0  0
 45 46  2  0  0  0
 45118  1  0  0  0
 46119  1  0  0  0
 47120  1  0  0  0
 47121  1  0  0  0
 48 56  1  0  0  0
 48 65  1  0  0  0
 48122  1  0  0  0
 49 50  1  0  0  0
 49 53  1  0  0  0
 49 64  1  0  0  0
 49123  1  0  0  0
 50 51  1  0  0  0
 50124  1  0  0  0
 50125  1  0  0  0
 51 52  1  0  0  0
 51126  1  0  0  0
 51127  1  0  0  0
 52128  1  0  0  0
 52129  1  0  0  0
 53 54  1  0  0  0
 54 55  2  0  0  0
 54130  1  0  0  0
 55 57  1  0  0  0
 55131  1  0  0  0
 56 69  2  0  0  0
 57 58  2  0  0  0
 57132  1  0  0  0
 58133  1  0  0  0
 59 60  1  0  0  0
 59 61  1  0  0  0
 59 62  1  0  0  0
 60134  1  0  0  0
 60135  1  0  0  0
 60136  1  0  0  0
 61137  1  0  0  0
 61138  1  0  0  0
 61139  1  0  0  0
 62140  1  0  0  0
 62141  1  0  0  0
 62142  1  0  0  0
 63 65  1  0  0  0
 63143  1  0  0  0
 63144  1  0  0  0
 63145  1  0  0  0
 64146  1  0  0  0
 65147  1  0  0  0
 68 86  1  0  0  0
 71 72  2  0  0  0
 71 75  1  0  0  0
 71148  1  0  0  0
 72 77  1  0  0  0
 72149  1  0  0  0
 73 74  1  0  0  0
 73 77  2  0  0  0
 73150  1  0  0  0
 74 79  2  0  0  0
 74151  1  0  0  0
 75 80  2  0  0  0
 75152  1  0  0  0
 76 78  2  0  0  0
 76 79  1  0  0  0
 76153  1  0  0  0
 77 78  1  0  0  0
 78 80  1  0  0  0
 79 86  1  0  0  0
 80 87  1  0  0  0
 81 82  1  0  0  0
 81 84  1  0  0  0
 81154  1  0  0  0
 81155  1  0  0  0
 82 85  1  0  0  0
 82156  1  0  0  0
 82157  1  0  0  0
 83 84  1  0  0  0
 83 85  1  0  0  0
 83158  1  0  0  0
 83159  1  0  0  0
 84 87  1  0  0  0
 84160  1  0  0  0
 85 88  1  0  0  0
 85161  1  0  0  0
 86162  1  0  0  0
 86163  1  0  0  0
 87164  1  0  0  0
 88165  1  0  0  0
M  ISO  4   1 100  68 101  86 101  88 100
M  END
> <chiral flag>
0

> <version>
0

> <s_m_source_file>
/data/baiqing/PycharmProjects/Reinvent-master-3.2/result/LINK_invent/BTK/process_docking_weight1_custom_sum_contain_oxygen_bond_distance_aromatic_linkinvent_7_9_3/rearranged_h_0132.sdf

> <i_m_source_file_index>
10

> <r_mmod_Potential_Energy-OPLS-2005>
29.3167133331299

> <r_mmod_Stretch_Energy-OPLS-2005>
45.6564559936523

> <r_mmod_Bend_Energy-OPLS-2005>
147.983413696289

> <r_mmod_Torsional_Energy-OPLS-2005>
235.585418701172

> <r_mmod_Improper_Torsional_Energy-OPLS-2005>
2.17286968231201

> <r_mmod_Van_der_Waal_Energy-OPLS-2005>
178.937088012695

> <r_mmod_Electrostatic_Energy-OPLS-2005>
-376.427398681641

> <r_mmod_Solvation_Energy-OPLS-2005>
-216.752746582031

> <b_mmod_Minimization_Converged-OPLS-2005>
0

> <r_mmod_RMS_Derivative-OPLS-2005>
0.501260697841644

$$$$
10
                    3D
 Structure written by MMmdl.
164173  0  0  1  0            999 V2000
  -30.6873  -14.5604   20.4544 C   0  0  0  0  0  0
  -30.4172  -12.3281   19.4589 C   0  0  0  0  0  0
  -29.4984  -12.4598   18.2255 C   0  0  0  0  0  0
  -28.0179  -12.3411   18.6331 C   0  0  0  0  0  0
  -27.6514  -13.2203   19.8599 C   0  0  2  0  0  0
  -28.6959  -13.0902   20.9920 C   0  0  0  0  0  0
  -25.2556  -13.8191   20.5699 C   0  0  0  0  0  0
  -24.1825  -13.0444   20.9191 C   0  0  0  0  0  0
  -24.6399  -11.6921   20.8747 C   0  0  0  0  0  0
  -23.9071  -10.4298   21.0404 C   0  0  0  0  0  0
  -24.3622   -9.4213   21.9182 C   0  0  0  0  0  0
  -23.6295   -8.2250   22.0754 C   0  0  0  0  0  0
  -22.4278   -8.0288   21.3543 C   0  0  0  0  0  0
  -21.9915   -9.0261   20.4645 C   0  0  0  0  0  0
  -22.7244  -10.2139   20.3053 C   0  0  0  0  0  0
  -21.6857   -6.0743   22.5276 C   0  0  0  0  0  0
  -21.4021   -6.5649   23.8209 C   0  0  0  0  0  0
  -21.3655   -5.6799   24.9169 C   0  0  0  0  0  0
  -21.6041   -4.3062   24.7218 C   0  0  0  0  0  0
  -21.8822   -3.8155   23.4341 C   0  0  0  0  0  0
  -21.9194   -4.6971   22.3396 C   0  0  0  0  0  0
  -22.7848  -13.5232   21.1833 C   0  0  0  0  0  0
  -22.1665   -4.2161   21.0973 F   0  0  0  0  0  0
  -21.5615   -3.4543   25.7727 F   0  0  0  0  0  0
  -30.0180  -13.3717   20.4195 N   0  0  0  0  0  0
  -26.2985  -12.9383   20.3329 N   0  0  0  0  0  0
  -25.9330  -11.6532   20.5785 N   0  0  0  0  0  0
  -22.0500  -12.8219   22.0391 N   0  0  0  0  0  0
  -25.4249  -15.1913   20.4133 N   0  0  0  0  0  0
  -31.8839  -14.6394   20.1639 O   0  0  0  0  0  0
  -21.6644   -6.8884   21.4238 O   0  0  0  0  0  0
  -22.3529  -14.5528   20.6667 O   0  0  0  0  0  0
  -24.6194  -31.8650   23.2067 C   0  0  0  0  0  0
  -25.9072  -32.4801   23.8376 C   0  0  1  0  0  0
  -27.2252  -27.3868   20.1139 C   0  0  0  0  0  0
  -25.5912  -33.8601   24.2307 N   0  0  0  0  0  0
  -23.4095  -30.4893   21.5479 C   0  0  2  0  0  0
  -24.8568  -28.9516   20.1110 C   0  0  0  0  0  0
  -22.7437  -29.4651   22.4964 C   0  0  0  0  0  0
  -18.0281  -28.1383   22.8492 C   0  0  0  0  0  0
  -24.1492  -36.7308   23.2639 C   0  0  0  0  0  0
  -25.9432  -30.8178   21.3658 C   0  0  0  0  0  0
  -26.0204  -29.4492   20.7124 C   0  0  0  0  0  0
  -27.2114  -28.6773   20.7063 C   0  0  0  0  0  0
  -26.0489  -26.9267   19.4827 C   0  0  0  0  0  0
  -24.8686  -27.6925   19.4883 C   0  0  0  0  0  0
  -23.6200  -29.8230   20.1622 C   0  0  0  0  0  0
  -25.4112  -36.3094   24.0335 C   0  0  1  0  0  0
  -20.5874  -28.3682   23.1302 C   0  0  2  0  0  0
  -20.6772  -26.9415   22.5414 C   0  0  0  0  0  0
  -19.5749  -26.6391   21.5211 C   0  0  0  0  0  0
  -18.1928  -26.7930   22.1621 C   0  0  0  0  0  0
  -19.1531  -28.8849   23.2895 C   0  0  0  0  0  0
  -18.9455  -30.1452   23.8912 C   0  0  0  0  0  0
  -17.6456  -30.6589   24.0565 C   0  0  0  0  0  0
  -25.9043  -34.9464   23.5117 C   0  0  0  0  0  0
  -16.5348  -29.9088   23.6330 C   0  0  0  0  0  0
  -16.7269  -28.6504   23.0354 C   0  0  0  0  0  0
  -26.4483  -31.6580   25.0711 C   0  0  0  0  0  0
  -25.3739  -31.3684   26.1448 C   0  0  0  0  0  0
  -27.0310  -30.3019   24.6093 C   0  0  0  0  0  0
  -27.6058  -32.4295   25.7478 C   0  0  0  0  0  0
  -27.5577  -37.1808   24.8467 C   0  0  0  0  0  0
  -21.4160  -29.3042   22.3702 N   0  0  0  0  0  0
  -26.4293  -37.3782   23.9410 N   0  0  0  0  0  0
  -24.6760  -31.0721   22.0982 N   0  0  0  0  0  0
  -23.4193  -28.8195   23.3021 O   0  0  0  0  0  0
  -28.3457  -26.5682   20.1487 O   0  0  0  0  0  0
  -26.5604  -34.8920   22.4676 O   0  0  0  0  0  0
  -23.5376  -32.1416   23.7446 O   0  0  0  0  0  0
  -30.2629  -17.7160   17.6078 C   0  0  0  0  0  0
  -30.2004  -16.4646   18.2682 C   0  0  0  0  0  0
  -30.1062  -18.6876   18.5525 C   0  0  0  0  0  0
  -30.0189  -16.7101   19.6058 C   0  0  0  0  0  0
  -26.4802  -21.0335   20.4795 C   0  0  0  0  0  0
  -27.4468  -19.8557   20.3033 C   0  0  0  0  0  0
  -27.0878  -22.3378   19.9378 C   0  0  0  0  0  0
  -29.3582  -21.5501   20.5124 C   0  0  0  0  0  0
  -28.7861  -20.1574   21.0003 C   0  0  2  0  0  0
  -29.7498  -18.8987   21.0367 C   0  0  0  0  0  0
  -28.8852  -24.0392   20.1653 C   0  0  0  0  0  0
  -28.1430  -25.2733   20.7951 C   0  0  0  0  0  0
  -29.9076  -18.1072   19.8005 N   0  0  0  0  0  0
  -29.9380  -15.6969   20.5377 N   0  0  0  0  0  0
  -28.3684  -22.6881   20.6154 N   0  3  1  0  0  0
  -31.4637  -12.4110   19.1591 H   0  0  0  0  0  0
  -30.3138  -11.3414   19.9133 H   0  0  0  0  0  0
  -29.7423  -11.6896   17.4927 H   0  0  0  0  0  0
  -29.6668  -13.4115   17.7253 H   0  0  0  0  0  0
  -27.8277  -11.2918   18.8595 H   0  0  0  0  0  0
  -27.3738  -12.5881   17.7883 H   0  0  0  0  0  0
  -27.6683  -14.2533   19.5121 H   0  0  0  0  0  0
  -28.6807  -12.0861   21.4185 H   0  0  0  0  0  0
  -28.4667  -13.7731   21.8114 H   0  0  0  0  0  0
  -25.2768   -9.5686   22.4758 H   0  0  0  0  0  0
  -24.0006   -7.4640   22.7473 H   0  0  0  0  0  0
  -21.0849   -8.8777   19.8952 H   0  0  0  0  0  0
  -22.3703  -10.9677   19.6164 H   0  0  0  0  0  0
  -21.2034   -7.6162   23.9713 H   0  0  0  0  0  0
  -21.1464   -6.0532   25.9068 H   0  0  0  0  0  0
  -22.0607   -2.7620   23.2832 H   0  0  0  0  0  0
  -22.4142  -11.9896   22.4785 H   0  0  0  0  0  0
  -21.1112  -13.1223   22.2586 H   0  0  0  0  0  0
  -24.6544  -15.8420   20.5190 H   0  0  0  0  0  0
  -26.2724  -15.6329   20.0799 H   0  0  0  0  0  0
  -26.7142  -32.5496   23.1136 H   0  0  0  0  0  0
  -25.0077  -33.9766   25.0460 H   0  0  0  0  0  0
  -22.7003  -31.3078   21.4080 H   0  0  0  0  0  0
  -23.3742  -35.9650   23.3307 H   0  0  0  0  0  0
  -24.3592  -36.8921   22.2052 H   0  0  0  0  0  0
  -23.7262  -37.6523   23.6653 H   0  0  0  0  0  0
  -26.0613  -31.5818   20.5965 H   0  0  0  0  0  0
  -26.8295  -30.8709   21.9858 H   0  0  0  0  0  0
  -28.1061  -29.0531   21.1828 H   0  0  0  0  0  0
  -26.0353  -25.9634   18.9920 H   0  0  0  0  0  0
  -23.9775  -27.3082   19.0114 H   0  0  0  0  0  0
  -23.7304  -30.5992   19.4039 H   0  0  0  0  0  0
  -22.7422  -29.2463   19.8648 H   0  0  0  0  0  0
  -25.1289  -36.1953   25.0828 H   0  0  0  0  0  0
  -20.9968  -28.3249   24.1420 H   0  0  0  0  0  0
  -20.5682  -26.2288   23.3603 H   0  0  0  0  0  0
  -21.6644  -26.7459   22.1202 H   0  0  0  0  0  0
  -19.6919  -25.6304   21.1236 H   0  0  0  0  0  0
  -19.6692  -27.3205   20.6741 H   0  0  0  0  0  0
  -17.4200  -26.6681   21.4020 H   0  0  0  0  0  0
  -18.0334  -26.0068   22.9012 H   0  0  0  0  0  0
  -19.7932  -30.7263   24.2291 H   0  0  0  0  0  0
  -17.5013  -31.6274   24.5156 H   0  0  0  0  0  0
  -15.5352  -30.2992   23.7654 H   0  0  0  0  0  0
  -15.8666  -28.0827   22.7066 H   0  0  0  0  0  0
  -24.5933  -30.7008   25.7780 H   0  0  0  0  0  0
  -24.8901  -32.2829   26.4883 H   0  0  0  0  0  0
  -25.8085  -30.8865   27.0215 H   0  0  0  0  0  0
  -26.2850  -29.6785   24.1145 H   0  0  0  0  0  0
  -27.4081  -29.7251   25.4550 H   0  0  0  0  0  0
  -27.8690  -30.4341   23.9243 H   0  0  0  0  0  0
  -27.2688  -33.3599   26.2062 H   0  0  0  0  0  0
  -28.3864  -32.6843   25.0296 H   0  0  0  0  0  0
  -28.0722  -31.8403   26.5386 H   0  0  0  0  0  0
  -28.2595  -38.0103   24.7504 H   0  0  0  0  0  0
  -28.1071  -36.2633   24.6299 H   0  0  0  0  0  0
  -27.2297  -37.1470   25.8872 H   0  0  0  0  0  0
  -20.9324  -29.8754   21.6913 H   0  0  0  0  0  0
  -26.0174  -38.2861   24.1394 H   0  0  0  0  0  0
  -30.4223  -17.8902   16.5522 H   0  0  0  0  0  0
  -30.3057  -15.4988   17.7982 H   0  0  0  0  0  0
  -30.1235  -19.7562   18.4202 H   0  0  0  0  0  0
  -26.2157  -21.1521   21.5315 H   0  0  0  0  0  0
  -25.5475  -20.8219   19.9553 H   0  0  0  0  0  0
  -27.5984  -19.6666   19.2402 H   0  0  0  0  0  0
  -27.0032  -18.9497   20.7178 H   0  0  0  0  0  0
  -26.3554  -23.1351   20.0570 H   0  0  0  0  0  0
  -27.2600  -22.2406   18.8648 H   0  0  0  0  0  0
  -29.6902  -21.5000   19.4784 H   0  0  0  0  0  0
  -30.2430  -21.7988   21.1003 H   0  0  0  0  0  0
  -28.5475  -20.3219   22.0523 H   0  0  0  0  0  0
  -29.3884  -18.2128   21.8037 H   0  0  0  0  0  0
  -30.7428  -19.2037   21.3685 H   0  0  0  0  0  0
  -29.9438  -24.1241   20.4129 H   0  0  0  0  0  0
  -28.8287  -24.0935   19.0777 H   0  0  0  0  0  0
  -28.4753  -25.3794   21.8280 H   0  0  0  0  0  0
  -27.0818  -25.0459   20.8806 H   0  0  0  0  0  0
  -29.0466  -15.6012   21.0002 H   0  0  0  0  0  0
  -28.1651  -22.7762   21.6015 H   0  0  0  0  0  0
  1 25  1  0  0  0
  1 30  2  0  0  0
  1 84  1  0  0  0
  2  3  1  0  0  0
  2 25  1  0  0  0
  2 86  1  0  0  0
  2 87  1  0  0  0
  3  4  1  0  0  0
  3 88  1  0  0  0
  3 89  1  0  0  0
  4  5  1  0  0  0
  4 90  1  0  0  0
  4 91  1  0  0  0
  5  6  1  0  0  0
  5 26  1  0  0  0
  5 92  1  0  0  0
  6 25  1  0  0  0
  6 93  1  0  0  0
  6 94  1  0  0  0
  7  8  2  0  0  0
  7 26  1  0  0  0
  7 29  1  0  0  0
  8  9  1  0  0  0
  8 22  1  0  0  0
  9 10  1  0  0  0
  9 27  2  0  0  0
 10 11  2  0  0  0
 10 15  1  0  0  0
 11 12  1  0  0  0
 11 95  1  0  0  0
 12 13  2  0  0  0
 12 96  1  0  0  0
 13 14  1  0  0  0
 13 31  1  0  0  0
 14 15  2  0  0  0
 14 97  1  0  0  0
 15 98  1  0  0  0
 16 17  2  0  0  0
 16 21  1  0  0  0
 16 31  1  0  0  0
 17 18  1  0  0  0
 17 99  1  0  0  0
 18 19  2  0  0  0
 18100  1  0  0  0
 19 20  1  0  0  0
 19 24  1  0  0  0
 20 21  2  0  0  0
 20101  1  0  0  0
 21 23  1  0  0  0
 22 28  1  0  0  0
 22 32  2  0  0  0
 26 27  1  0  0  0
 28102  1  0  0  0
 28103  1  0  0  0
 29104  1  0  0  0
 29105  1  0  0  0
 33 34  1  0  0  0
 33 66  1  0  0  0
 33 70  2  0  0  0
 34 36  1  0  0  0
 34 59  1  0  0  0
 34106  1  0  0  0
 35 44  2  0  0  0
 35 45  1  0  0  0
 35 68  1  0  0  0
 36 56  1  0  0  0
 36107  1  0  0  0
 37 39  1  0  0  0
 37 47  1  0  0  0
 37 66  1  0  0  0
 37108  1  0  0  0
 38 43  2  0  0  0
 38 46  1  0  0  0
 38 47  1  0  0  0
 39 64  1  0  0  0
 39 67  2  0  0  0
 40 52  1  0  0  0
 40 53  2  0  0  0
 40 58  1  0  0  0
 41109  1  0  0  0
 41110  1  0  0  0
 41111  1  0  0  0
 41 48  1  0  0  0
 42 43  1  0  0  0
 42 66  1  0  0  0
 42112  1  0  0  0
 42113  1  0  0  0
 43 44  1  0  0  0
 44114  1  0  0  0
 45 46  2  0  0  0
 45115  1  0  0  0
 46116  1  0  0  0
 47117  1  0  0  0
 47118  1  0  0  0
 48 56  1  0  0  0
 48 65  1  0  0  0
 48119  1  0  0  0
 49 50  1  0  0  0
 49 53  1  0  0  0
 49 64  1  0  0  0
 49120  1  0  0  0
 50 51  1  0  0  0
 50121  1  0  0  0
 50122  1  0  0  0
 51 52  1  0  0  0
 51123  1  0  0  0
 51124  1  0  0  0
 52125  1  0  0  0
 52126  1  0  0  0
 53 54  1  0  0  0
 54 55  2  0  0  0
 54127  1  0  0  0
 55 57  1  0  0  0
 55128  1  0  0  0
 56 69  2  0  0  0
 57 58  2  0  0  0
 57129  1  0  0  0
 58130  1  0  0  0
 59 60  1  0  0  0
 59 61  1  0  0  0
 59 62  1  0  0  0
 60131  1  0  0  0
 60132  1  0  0  0
 60133  1  0  0  0
 61134  1  0  0  0
 61135  1  0  0  0
 61136  1  0  0  0
 62137  1  0  0  0
 62138  1  0  0  0
 62139  1  0  0  0
 63 65  1  0  0  0
 63140  1  0  0  0
 63141  1  0  0  0
 63142  1  0  0  0
 64143  1  0  0  0
 65144  1  0  0  0
 68 82  1  0  0  0
 71 72  1  0  0  0
 71 73  2  0  0  0
 71145  1  0  0  0
 72 74  2  0  0  0
 72146  1  0  0  0
 73 83  1  0  0  0
 73147  1  0  0  0
 74 83  1  0  0  0
 74 84  1  0  0  0
 75 76  1  0  0  0
 75 77  1  0  0  0
 75148  1  0  0  0
 75149  1  0  0  0
 76 79  1  0  0  0
 76150  1  0  0  0
 76151  1  0  0  0
 77 85  1  0  0  0
 77152  1  0  0  0
 77153  1  0  0  0
 78 79  1  0  0  0
 78 85  1  0  0  0
 78154  1  0  0  0
 78155  1  0  0  0
 79 80  1  0  0  0
 79156  1  0  0  0
 80 83  1  0  0  0
 80157  1  0  0  0
 80158  1  0  0  0
 81 82  1  0  0  0
 81159  1  0  0  0
 81160  1  0  0  0
 81 85  1  0  0  0
 82161  1  0  0  0
 82162  1  0  0  0
 84163  1  0  0  0
 85164  1  0  0  0
M  CHG  1  85   1
M  ISO  4   1 100  68 101  82 101  84 100
M  END
> <chiral flag>
0

> <version>
0

> <s_m_source_file>
/data/baiqing/PycharmProjects/Reinvent-master-3.2/result/LINK_invent/BTK/process_docking_weight1_custom_sum_contain_oxygen_bond_distance_aromatic_linkinvent_7_9_3/rearranged_h_0132.sdf

> <i_m_source_file_index>
11

> <r_mmod_Potential_Energy-OPLS-2005>
17.5287952423096

> <r_mmod_Stretch_Energy-OPLS-2005>
58.331413269043

> <r_mmod_Bend_Energy-OPLS-2005>
127.943778991699

> <r_mmod_Torsional_Energy-OPLS-2005>
316.873474121094

> <r_mmod_Improper_Torsional_Energy-OPLS-2005>
9.18432998657227

> <r_mmod_Van_der_Waal_Energy-OPLS-2005>
130.138610839844

> <r_mmod_Electrostatic_Energy-OPLS-2005>
-207.513656616211

> <r_mmod_Solvation_Energy-OPLS-2005>
-450.048919677734

> <b_mmod_Minimization_Converged-OPLS-2005>
0

> <r_mmod_RMS_Derivative-OPLS-2005>
0.946219265460968

$$$$
11
                    3D
 Structure written by MMmdl.
172181  0  0  1  0            999 V2000
  -29.9463  -12.9478   20.1790 C   0  0  0  0  0  0
  -31.0641  -12.2656   19.2413 C   0  0  0  0  0  0
  -30.0457  -13.0718   17.8387 C   0  0  0  0  0  0
  -28.5428  -13.9512   18.3862 C   0  0  0  0  0  0
  -27.7423  -13.8268   20.0952 C   0  0  2  0  0  0
  -28.8949  -13.1443   21.3943 C   0  0  0  0  0  0
  -25.2079  -13.9501   20.6005 C   0  0  0  0  0  0
  -24.1803  -13.1022   20.9101 C   0  0  0  0  0  0
  -24.7051  -11.7781   20.8476 C   0  0  0  0  0  0
  -23.9805  -10.4783   21.0025 C   0  0  0  0  0  0
  -24.4277   -9.4558   21.8737 C   0  0  0  0  0  0
  -23.6834   -8.2637   22.0541 C   0  0  0  0  0  0
  -22.4650   -8.0617   21.3568 C   0  0  0  0  0  0
  -22.0304   -9.0662   20.4762 C   0  0  0  0  0  0
  -22.7702  -10.2531   20.3009 C   0  0  0  0  0  0
  -21.7051   -6.0968   22.5279 C   0  0  0  0  0  0
  -21.4171   -6.5812   23.8225 C   0  0  0  0  0  0
  -21.3668   -5.6872   24.9100 C   0  0  0  0  0  0
  -21.6007   -4.3142   24.7103 C   0  0  0  0  0  0
  -21.8820   -3.8318   23.4199 C   0  0  0  0  0  0
  -21.9240   -4.7192   22.3313 C   0  0  0  0  0  0
  -22.7664  -13.5259   21.1856 C   0  0  0  0  0  0
  -22.1676   -4.2383   21.0884 F   0  0  0  0  0  0
  -21.5556   -3.4564   25.7580 F   0  0  0  0  0  0
  -30.3795  -12.3736   20.8781 N   0  0  0  0  0  0
  -26.3523  -13.2143   20.3839 N   0  0  0  0  0  0
  -26.0257  -11.8713   20.5758 N   0  0  0  0  0  0
  -22.0659  -12.8229   22.0698 N   0  0  0  0  0  0
  -25.2696  -15.3234   20.4722 N   0  0  0  0  0  0
  -30.4760  -14.2304   20.1054 O   0  0  0  0  0  0
  -21.6986   -6.9205   21.4288 O   0  0  0  0  0  0
  -22.2994  -14.5375   20.6650 O   0  0  0  0  0  0
  -24.6278  -31.8585   23.2000 C   0  0  0  0  0  0
  -25.9129  -32.4757   23.8323 C   0  0  1  0  0  0
  -27.1683  -27.2832   20.0141 C   0  0  0  0  0  0
  -25.5943  -33.8572   24.2243 N   0  0  0  0  0  0
  -23.4177  -30.4841   21.5519 C   0  0  2  0  0  0
  -24.8439  -28.9337   20.1076 C   0  0  0  0  0  0
  -22.7463  -29.4615   22.4978 C   0  0  0  0  0  0
  -18.0294  -28.1386   22.8496 C   0  0  0  0  0  0
  -24.1495  -36.7273   23.2633 C   0  0  0  0  0  0
  -25.9651  -30.7618   21.3854 C   0  0  0  0  0  0
  -26.0281  -29.3918   20.7049 C   0  0  0  0  0  0
  -27.1997  -28.5699   20.6558 C   0  0  0  0  0  0
  -25.9601  -26.8839   19.4211 C   0  0  0  0  0  0
  -24.8121  -27.6861   19.4687 C   0  0  0  0  0  0
  -23.6233  -29.8282   20.1672 C   0  0  0  0  0  0
  -25.4135  -36.3076   24.0310 C   0  0  1  0  0  0
  -20.5881  -28.3697   23.1313 C   0  0  2  0  0  0
  -20.6800  -26.9442   22.5421 C   0  0  0  0  0  0
  -19.5766  -26.6396   21.5230 C   0  0  0  0  0  0
  -18.1939  -26.7935   22.1639 C   0  0  0  0  0  0
  -19.1542  -28.8864   23.2882 C   0  0  0  0  0  0
  -18.9451  -30.1463   23.8888 C   0  0  0  0  0  0
  -17.6446  -30.6590   24.0560 C   0  0  0  0  0  0
  -25.9075  -34.9445   23.5091 C   0  0  0  0  0  0
  -16.5344  -29.9072   23.6339 C   0  0  0  0  0  0
  -16.7278  -28.6493   23.0365 C   0  0  0  0  0  0
  -26.4521  -31.6594   25.0699 C   0  0  0  0  0  0
  -25.3733  -31.3721   26.1379 C   0  0  0  0  0  0
  -27.0368  -30.3012   24.6222 C   0  0  0  0  0  0
  -27.6074  -32.4351   25.7442 C   0  0  0  0  0  0
  -27.5596  -37.1801   24.8470 C   0  0  0  0  0  0
  -21.4173  -29.3042   22.3707 N   0  0  0  0  0  0
  -26.4320  -37.3771   23.9386 N   0  0  0  0  0  0
  -24.6897  -31.0512   22.1025 N   0  0  0  0  0  0
  -23.4176  -28.8197   23.3091 O   0  0  0  0  0  0
  -28.2379  -26.3880   19.8942 O   0  0  0  0  0  0
  -26.5635  -34.8921   22.4644 O   0  0  0  0  0  0
  -23.5429  -32.1445   23.7280 O   0  0  0  0  0  0
  -26.1920  -21.6983   19.0223 C   0  0  0  0  0  0
  -28.3757  -21.6554   18.0761 C   0  0  0  0  0  0
  -26.4383  -23.0181   19.5356 C   0  0  0  0  0  0
  -28.6311  -22.9760   18.6052 C   0  0  0  0  0  0
  -27.1521  -20.9389   18.2919 C   0  0  0  0  0  0
  -27.6759  -23.7046   19.3807 C   0  0  0  0  0  0
  -25.7307  -18.6238   18.4610 C   0  0  0  0  0  0
  -27.9537  -18.4492   17.4171 C   0  0  0  0  0  0
  -25.3082  -17.2575   17.7752 C   0  0  0  0  0  0
  -27.5152  -17.0392   16.7935 C   0  0  0  0  0  0
  -26.8010  -19.4804   17.6937 C   0  0  2  0  0  0
  -26.4285  -16.1813   17.5658 C   0  0  2  0  0  0
  -28.0147  -24.9684   20.3077 C   0  0  0  0  0  0
  -25.9455  -14.7438   16.8823 C   0  0  0  0  0  0
  -27.8980  -11.3241   18.4457 C   0  0  0  0  0  0
  -26.9421  -12.1820   17.3325 C   0  0  0  0  0  0
  -28.9166  -11.7351   19.6123 N   0  0  0  0  0  0
  -25.9715  -13.3737   17.6401 N   0  3  0  0  0  0
  -32.1030  -12.6373   19.2182 H   0  0  0  0  0  0
  -31.2406  -11.2103   18.9781 H   0  0  0  0  0  0
  -29.8513  -12.3459   17.0500 H   0  0  0  0  0  0
  -30.6962  -13.8014   17.3497 H   0  0  0  0  0  0
  -28.1076  -14.3184   17.4887 H   0  0  0  0  0  0
  -28.9661  -14.9488   18.5206 H   0  0  0  0  0  0
  -27.6734  -14.8754   20.3825 H   0  0  0  0  0  0
  -28.3245  -12.4307   22.0076 H   0  0  0  0  0  0
  -29.0698  -13.9356   22.1422 H   0  0  0  0  0  0
  -25.3578   -9.5951   22.4097 H   0  0  0  0  0  0
  -24.0668   -7.5093   22.7258 H   0  0  0  0  0  0
  -21.1096   -8.9241   19.9253 H   0  0  0  0  0  0
  -22.3913  -11.0052   19.6220 H   0  0  0  0  0  0
  -21.2313   -7.6349   23.9763 H   0  0  0  0  0  0
  -21.1431   -6.0604   25.8984 H   0  0  0  0  0  0
  -22.0593   -2.7827   23.2601 H   0  0  0  0  0  0
  -22.4666  -12.0288   22.5473 H   0  0  0  0  0  0
  -21.1296  -13.1153   22.3115 H   0  0  0  0  0  0
  -24.4612  -15.9105   20.6389 H   0  0  0  0  0  0
  -26.1152  -15.8622   20.3401 H   0  0  0  0  0  0
  -26.7129  -32.5377   23.0982 H   0  0  0  0  0  0
  -25.0083  -33.9723   25.0389 H   0  0  0  0  0  0
  -22.7104  -31.3037   21.4141 H   0  0  0  0  0  0
  -23.3782  -35.9586   23.3304 H   0  0  0  0  0  0
  -24.3566  -36.8899   22.2049 H   0  0  0  0  0  0
  -23.7239  -37.6467   23.6660 H   0  0  0  0  0  0
  -26.1101  -31.5313   20.6278 H   0  0  0  0  0  0
  -26.8380  -30.7903   22.0267 H   0  0  0  0  0  0
  -28.1149  -28.9050   21.1225 H   0  0  0  0  0  0
  -25.8982  -25.9385   18.9005 H   0  0  0  0  0  0
  -23.9031  -27.3340   19.0003 H   0  0  0  0  0  0
  -23.7452  -30.6055   19.4113 H   0  0  0  0  0  0
  -22.7355  -29.2674   19.8695 H   0  0  0  0  0  0
  -25.1323  -36.1907   25.0808 H   0  0  0  0  0  0
  -20.9944  -28.3259   24.1440 H   0  0  0  0  0  0
  -20.5765  -26.2290   23.3600 H   0  0  0  0  0  0
  -21.6660  -26.7522   22.1165 H   0  0  0  0  0  0
  -19.6939  -25.6302   21.1259 H   0  0  0  0  0  0
  -19.6699  -27.3209   20.6758 H   0  0  0  0  0  0
  -17.4226  -26.6693   21.4025 H   0  0  0  0  0  0
  -18.0321  -26.0076   22.9034 H   0  0  0  0  0  0
  -19.7925  -30.7296   24.2258 H   0  0  0  0  0  0
  -17.4997  -31.6273   24.5159 H   0  0  0  0  0  0
  -15.5340  -30.2955   23.7684 H   0  0  0  0  0  0
  -15.8676  -28.0786   22.7096 H   0  0  0  0  0  0
  -24.5912  -30.7090   25.7645 H   0  0  0  0  0  0
  -24.8905  -32.2877   26.4814 H   0  0  0  0  0  0
  -25.8012  -30.8845   27.0148 H   0  0  0  0  0  0
  -26.2944  -29.6705   24.1305 H   0  0  0  0  0  0
  -27.4085  -29.7320   25.4752 H   0  0  0  0  0  0
  -27.8815  -30.4244   23.9434 H   0  0  0  0  0  0
  -27.2711  -33.3669   26.2002 H   0  0  0  0  0  0
  -28.3880  -32.6917   25.0263 H   0  0  0  0  0  0
  -28.0763  -31.8505   26.5362 H   0  0  0  0  0  0
  -28.2620  -38.0096   24.7508 H   0  0  0  0  0  0
  -28.1099  -36.2623   24.6322 H   0  0  0  0  0  0
  -27.2290  -37.1463   25.8870 H   0  0  0  0  0  0
  -20.9358  -29.8696   21.6857 H   0  0  0  0  0  0
  -26.0197  -38.2847   24.1386 H   0  0  0  0  0  0
  -25.2260  -21.2705   19.2279 H   0  0  0  0  0  0
  -29.1652  -21.1835   17.5058 H   0  0  0  0  0  0
  -25.6611  -23.4876   20.1251 H   0  0  0  0  0  0
  -29.6146  -23.4080   18.4544 H   0  0  0  0  0  0
  -26.0917  -18.4267   19.4713 H   0  0  0  0  0  0
  -24.8176  -19.2041   18.5851 H   0  0  0  0  0  0
  -28.6830  -18.9105   16.7487 H   0  0  0  0  0  0
  -28.4980  -18.2810   18.3461 H   0  0  0  0  0  0
  -24.8901  -17.4903   16.7963 H   0  0  0  0  0  0
  -24.4842  -16.8191   18.3374 H   0  0  0  0  0  0
  -28.4156  -16.4384   16.6646 H   0  0  0  0  0  0
  -27.1493  -17.2188   15.7791 H   0  0  0  0  0  0
  -26.3694  -19.7049   16.7180 H   0  0  0  0  0  0
  -26.8460  -15.9634   18.5451 H   0  0  0  0  0  0
  -28.9382  -24.6998   20.8178 H   0  0  0  0  0  0
  -27.2637  -24.9910   21.0978 H   0  0  0  0  0  0
  -26.4595  -14.5997   15.9326 H   0  0  0  0  0  0
  -24.9044  -14.8783   16.5932 H   0  0  0  0  0  0
  -28.5245  -10.6906   17.8127 H   0  0  0  0  0  0
  -27.2537  -10.5702   18.8949 H   0  0  0  0  0  0
  -26.3048  -11.4317   16.8634 H   0  0  0  0  0  0
  -27.5709  -12.4765   16.4902 H   0  0  0  0  0  0
  -29.0068  -10.9530   20.2432 H   0  0  0  0  0  0
  -25.0558  -12.9794   17.4892 H   0  0  0  0  0  0
  -26.0210  -13.5638   18.6282 H   0  0  0  0  0  0
  1 25  1  0  0  0
  1 30  2  0  0  0
  1 87  1  0  0  0
  2  3  1  0  0  0
  2 25  1  0  0  0
  2 89  1  0  0  0
  2 90  1  0  0  0
  3  4  1  0  0  0
  3 91  1  0  0  0
  3 92  1  0  0  0
  4  5  1  0  0  0
  4 93  1  0  0  0
  4 94  1  0  0  0
  5  6  1  0  0  0
  5 26  1  0  0  0
  5 95  1  0  0  0
  6 25  1  0  0  0
  6 96  1  0  0  0
  6 97  1  0  0  0
  7  8  2  0  0  0
  7 26  1  0  0  0
  7 29  1  0  0  0
  8  9  1  0  0  0
  8 22  1  0  0  0
  9 10  1  0  0  0
  9 27  2  0  0  0
 10 11  2  0  0  0
 10 15  1  0  0  0
 11 12  1  0  0  0
 11 98  1  0  0  0
 12 13  2  0  0  0
 12 99  1  0  0  0
 13 14  1  0  0  0
 13 31  1  0  0  0
 14 15  2  0  0  0
 14100  1  0  0  0
 15101  1  0  0  0
 16 17  2  0  0  0
 16 21  1  0  0  0
 16 31  1  0  0  0
 17 18  1  0  0  0
 17102  1  0  0  0
 18 19  2  0  0  0
 18103  1  0  0  0
 19 20  1  0  0  0
 19 24  1  0  0  0
 20 21  2  0  0  0
 20104  1  0  0  0
 21 23  1  0  0  0
 22 28  1  0  0  0
 22 32  2  0  0  0
 26 27  1  0  0  0
 28105  1  0  0  0
 28106  1  0  0  0
 29107  1  0  0  0
 29108  1  0  0  0
 33 34  1  0  0  0
 33 66  1  0  0  0
 33 70  2  0  0  0
 34 36  1  0  0  0
 34 59  1  0  0  0
 34109  1  0  0  0
 35 44  2  0  0  0
 35 45  1  0  0  0
 35 68  1  0  0  0
 36 56  1  0  0  0
 36110  1  0  0  0
 37 39  1  0  0  0
 37 47  1  0  0  0
 37 66  1  0  0  0
 37111  1  0  0  0
 38 43  2  0  0  0
 38 46  1  0  0  0
 38 47  1  0  0  0
 39 64  1  0  0  0
 39 67  2  0  0  0
 40 52  1  0  0  0
 40 53  2  0  0  0
 40 58  1  0  0  0
 41112  1  0  0  0
 41113  1  0  0  0
 41114  1  0  0  0
 41 48  1  0  0  0
 42 43  1  0  0  0
 42 66  1  0  0  0
 42115  1  0  0  0
 42116  1  0  0  0
 43 44  1  0  0  0
 44117  1  0  0  0
 45 46  2  0  0  0
 45118  1  0  0  0
 46119  1  0  0  0
 47120  1  0  0  0
 47121  1  0  0  0
 48 56  1  0  0  0
 48 65  1  0  0  0
 48122  1  0  0  0
 49 50  1  0  0  0
 49 53  1  0  0  0
 49 64  1  0  0  0
 49123  1  0  0  0
 50 51  1  0  0  0
 50124  1  0  0  0
 50125  1  0  0  0
 51 52  1  0  0  0
 51126  1  0  0  0
 51127  1  0  0  0
 52128  1  0  0  0
 52129  1  0  0  0
 53 54  1  0  0  0
 54 55  2  0  0  0
 54130  1  0  0  0
 55 57  1  0  0  0
 55131  1  0  0  0
 56 69  2  0  0  0
 57 58  2  0  0  0
 57132  1  0  0  0
 58133  1  0  0  0
 59 60  1  0  0  0
 59 61  1  0  0  0
 59 62  1  0  0  0
 60134  1  0  0  0
 60135  1  0  0  0
 60136  1  0  0  0
 61137  1  0  0  0
 61138  1  0  0  0
 61139  1  0  0  0
 62140  1  0  0  0
 62141  1  0  0  0
 62142  1  0  0  0
 63 65  1  0  0  0
 63143  1  0  0  0
 63144  1  0  0  0
 63145  1  0  0  0
 64146  1  0  0  0
 65147  1  0  0  0
 68 83  1  0  0  0
 71 73  2  0  0  0
 71 75  1  0  0  0
 71148  1  0  0  0
 72 74  1  0  0  0
 72 75  2  0  0  0
 72149  1  0  0  0
 73 76  1  0  0  0
 73150  1  0  0  0
 74 76  2  0  0  0
 74151  1  0  0  0
 75 81  1  0  0  0
 76 83  1  0  0  0
 77 79  1  0  0  0
 77 81  1  0  0  0
 77152  1  0  0  0
 77153  1  0  0  0
 78 80  1  0  0  0
 78 81  1  0  0  0
 78154  1  0  0  0
 78155  1  0  0  0
 79 82  1  0  0  0
 79156  1  0  0  0
 79157  1  0  0  0
 80 82  1  0  0  0
 80158  1  0  0  0
 80159  1  0  0  0
 81160  1  0  0  0
 82 84  1  0  0  0
 82161  1  0  0  0
 83162  1  0  0  0
 83163  1  0  0  0
 84 88  1  0  0  0
 84164  1  0  0  0
 84165  1  0  0  0
 85 86  1  0  0  0
 85 87  1  0  0  0
 85166  1  0  0  0
 85167  1  0  0  0
 86 88  1  0  0  0
 86168  1  0  0  0
 86169  1  0  0  0
 87170  1  0  0  0
 88171  1  0  0  0
 88172  1  0  0  0
M  CHG  1  88   1
M  ISO  4   1 100  68 101  83 101  87 100
M  END
> <chiral flag>
0

> <version>
0

> <s_m_source_file>
/data/baiqing/PycharmProjects/Reinvent-master-3.2/result/LINK_invent/BTK/process_docking_weight1_custom_sum_contain_oxygen_bond_distance_aromatic_linkinvent_7_9_3/rearranged_h_0132.sdf

> <i_m_source_file_index>
12

> <r_mmod_Potential_Energy-OPLS-2005>
4523.16552734375

> <r_mmod_Stretch_Energy-OPLS-2005>
1600.32287597656

> <r_mmod_Bend_Energy-OPLS-2005>
1022.40582275391

> <r_mmod_Torsional_Energy-OPLS-2005>
409.474182128906

> <r_mmod_Improper_Torsional_Energy-OPLS-2005>
5.38794136047363

> <r_mmod_Van_der_Waal_Energy-OPLS-2005>
1154.31079101562

> <r_mmod_Electrostatic_Energy-OPLS-2005>
-333.806091308594

> <r_mmod_Solvation_Energy-OPLS-2005>
-435.471649169922

> <b_mmod_Minimization_Converged-OPLS-2005>
0

> <r_mmod_RMS_Derivative-OPLS-2005>
7.34662008285522

$$$$
12
                    3D
 Structure written by MMmdl.
161169  0  0  1  0            999 V2000
  -30.7011  -14.4189   20.6044 C   0  0  0  0  0  0
  -30.4275  -12.2832   19.4110 C   0  0  0  0  0  0
  -29.4918  -12.5099   18.2038 C   0  0  0  0  0  0
  -28.0124  -12.3691   18.6136 C   0  0  0  0  0  0
  -27.6678  -13.1908   19.8835 C   0  0  2  0  0  0
  -28.7078  -12.9269   20.9998 C   0  0  0  0  0  0
  -25.2600  -13.8123   20.5644 C   0  0  0  0  0  0
  -24.1844  -13.0423   20.9178 C   0  0  0  0  0  0
  -24.6372  -11.6882   20.8742 C   0  0  0  0  0  0
  -23.9030  -10.4278   21.0417 C   0  0  0  0  0  0
  -24.3595   -9.4197   21.9196 C   0  0  0  0  0  0
  -23.6277   -8.2229   22.0766 C   0  0  0  0  0  0
  -22.4262   -8.0267   21.3546 C   0  0  0  0  0  0
  -21.9887   -9.0238   20.4657 C   0  0  0  0  0  0
  -22.7203  -10.2123   20.3062 C   0  0  0  0  0  0
  -21.6853   -6.0721   22.5275 C   0  0  0  0  0  0
  -21.4015   -6.5630   23.8203 C   0  0  0  0  0  0
  -21.3663   -5.6792   24.9176 C   0  0  0  0  0  0
  -21.6040   -4.3050   24.7233 C   0  0  0  0  0  0
  -21.8822   -3.8134   23.4355 C   0  0  0  0  0  0
  -21.9190   -4.6946   22.3408 C   0  0  0  0  0  0
  -22.7862  -13.5240   21.1834 C   0  0  0  0  0  0
  -22.1651   -4.2127   21.0991 F   0  0  0  0  0  0
  -21.5642   -3.4539   25.7755 F   0  0  0  0  0  0
  -30.0485  -13.2350   20.4652 N   0  0  0  0  0  0
  -26.3037  -12.9262   20.3382 N   0  0  0  0  0  0
  -25.9291  -11.6437   20.5763 N   0  0  0  0  0  0
  -22.0498  -12.8250   22.0408 N   0  0  0  0  0  0
  -25.4309  -15.1833   20.3984 N   0  0  0  0  0  0
  -31.7775  -14.6752   20.0575 O   0  0  0  0  0  0
  -21.6634   -6.8857   21.4233 O   0  0  0  0  0  0
  -22.3552  -14.5535   20.6672 O   0  0  0  0  0  0
  -24.6117  -31.8713   23.2147 C   0  0  0  0  0  0
  -25.9031  -32.4838   23.8424 C   0  0  1  0  0  0
  -27.2356  -27.4565   20.0736 C   0  0  0  0  0  0
  -25.5906  -33.8640   24.2358 N   0  0  0  0  0  0
  -23.3971  -30.4971   21.5560 C   0  0  2  0  0  0
  -24.8400  -28.9655   20.1182 C   0  0  0  0  0  0
  -22.7385  -29.4679   22.5024 C   0  0  0  0  0  0
  -18.0274  -28.1358   22.8504 C   0  0  0  0  0  0
  -24.1486  -36.7314   23.2636 C   0  0  0  0  0  0
  -25.9256  -30.8354   21.3707 C   0  0  0  0  0  0
  -25.9980  -29.4707   20.7201 C   0  0  0  0  0  0
  -27.1908  -28.7157   20.7107 C   0  0  0  0  0  0
  -26.0520  -26.9588   19.4755 C   0  0  0  0  0  0
  -24.8588  -27.7039   19.5025 C   0  0  0  0  0  0
  -23.6038  -29.8339   20.1691 C   0  0  0  0  0  0
  -25.4105  -36.3123   24.0340 C   0  0  1  0  0  0
  -20.5852  -28.3670   23.1362 C   0  0  2  0  0  0
  -20.6779  -26.9422   22.5425 C   0  0  0  0  0  0
  -19.5774  -26.6446   21.5192 C   0  0  0  0  0  0
  -18.1942  -26.7930   22.1596 C   0  0  0  0  0  0
  -19.1508  -28.8832   23.2920 C   0  0  0  0  0  0
  -18.9415  -30.1457   23.8894 C   0  0  0  0  0  0
  -17.6410  -30.6591   24.0499 C   0  0  0  0  0  0
  -25.9034  -34.9484   23.5144 C   0  0  0  0  0  0
  -16.5312  -29.9059   23.6276 C   0  0  0  0  0  0
  -16.7252  -28.6460   23.0341 C   0  0  0  0  0  0
  -26.4474  -31.6608   25.0740 C   0  0  0  0  0  0
  -25.3753  -31.3690   26.1493 C   0  0  0  0  0  0
  -27.0295  -30.3054   24.6095 C   0  0  0  0  0  0
  -27.6065  -32.4317   25.7489 C   0  0  0  0  0  0
  -27.5580  -37.1815   24.8470 C   0  0  0  0  0  0
  -21.4108  -29.3069   22.3795 N   0  0  0  0  0  0
  -26.4296  -37.3801   23.9411 N   0  0  0  0  0  0
  -24.6632  -31.0820   22.1050 N   0  0  0  0  0  0
  -23.4173  -28.8190   23.3029 O   0  0  0  0  0  0
  -28.4361  -26.7732   20.0687 O   0  0  0  0  0  0
  -26.5579  -34.8925   22.4697 O   0  0  0  0  0  0
  -23.5319  -32.1472   23.7550 O   0  0  0  0  0  0
  -28.0921  -20.0751   17.9881 C   0  0  0  0  0  0
  -28.4852  -18.8267   18.4980 C   0  0  0  0  0  0
  -27.7782  -20.8094   20.2649 C   0  0  0  0  0  0
  -27.6889  -21.0863   18.8827 C   0  0  0  0  0  0
  -28.4606  -18.6166   19.8868 C   0  0  0  0  0  0
  -25.7086  -22.7278   18.9350 C   0  0  0  0  0  0
  -28.6158  -17.2022   20.4370 C   0  0  0  0  0  0
  -30.0100  -16.7977   20.9609 C   0  0  0  0  0  0
  -28.2011  -24.3798   19.4705 C   0  0  0  0  0  0
  -28.6655  -25.7921   19.0548 C   0  0  0  0  0  0
  -27.0866  -22.3823   18.3296 C   0  0  1  0  0  0
  -28.1536  -19.6042   20.7596 N   0  0  0  0  0  0
  -30.0002  -15.3571   21.2548 N   0  0  0  0  0  0
  -28.0365  -23.5229   18.2677 N   0  3  0  0  0  0
  -31.4703  -12.3939   19.1064 H   0  0  0  0  0  0
  -30.3373  -11.2618   19.7828 H   0  0  0  0  0  0
  -29.7234  -11.7995   17.4097 H   0  0  0  0  0  0
  -29.6631  -13.5023   17.7844 H   0  0  0  0  0  0
  -27.8156  -11.3104   18.7909 H   0  0  0  0  0  0
  -27.3637  -12.6613   17.7873 H   0  0  0  0  0  0
  -27.7261  -14.2423   19.6066 H   0  0  0  0  0  0
  -28.6755  -11.8780   21.3004 H   0  0  0  0  0  0
  -28.4646  -13.4870   21.9035 H   0  0  0  0  0  0
  -25.2743   -9.5675   22.4761 H   0  0  0  0  0  0
  -23.9984   -7.4634   22.7502 H   0  0  0  0  0  0
  -21.0810   -8.8758   19.8980 H   0  0  0  0  0  0
  -22.3662  -10.9663   19.6170 H   0  0  0  0  0  0
  -21.1998   -7.6138   23.9696 H   0  0  0  0  0  0
  -21.1485   -6.0532   25.9080 H   0  0  0  0  0  0
  -22.0595   -2.7591   23.2868 H   0  0  0  0  0  0
  -22.4088  -11.9902   22.4790 H   0  0  0  0  0  0
  -21.1123  -13.1310   22.2623 H   0  0  0  0  0  0
  -24.6598  -15.8341   20.5003 H   0  0  0  0  0  0
  -26.2628  -15.6128   20.0182 H   0  0  0  0  0  0
  -26.7099  -32.5553   23.1185 H   0  0  0  0  0  0
  -25.0103  -33.9823   25.0532 H   0  0  0  0  0  0
  -22.6847  -31.3134   21.4228 H   0  0  0  0  0  0
  -23.3752  -35.9648   23.3321 H   0  0  0  0  0  0
  -24.3584  -36.8900   22.2049 H   0  0  0  0  0  0
  -23.7239  -37.6526   23.6629 H   0  0  0  0  0  0
  -26.0428  -31.6021   20.6038 H   0  0  0  0  0  0
  -26.8126  -30.8840   21.9909 H   0  0  0  0  0  0
  -28.0843  -29.1053   21.1788 H   0  0  0  0  0  0
  -26.0185  -26.0018   18.9794 H   0  0  0  0  0  0
  -23.9659  -27.3076   19.0382 H   0  0  0  0  0  0
  -23.7161  -30.6122   19.4134 H   0  0  0  0  0  0
  -22.7255  -29.2586   19.8701 H   0  0  0  0  0  0
  -25.1285  -36.1997   25.0833 H   0  0  0  0  0  0
  -20.9919  -28.3210   24.1496 H   0  0  0  0  0  0
  -20.5709  -26.2263   23.3589 H   0  0  0  0  0  0
  -21.6652  -26.7484   22.1219 H   0  0  0  0  0  0
  -19.6718  -27.3324   20.6771 H   0  0  0  0  0  0
  -19.6967  -25.6396   21.1144 H   0  0  0  0  0  0
  -17.4235  -26.6699   21.3972 H   0  0  0  0  0  0
  -18.0333  -26.0026   22.8941 H   0  0  0  0  0  0
  -19.7875  -30.7299   24.2250 H   0  0  0  0  0  0
  -17.4932  -31.6303   24.5021 H   0  0  0  0  0  0
  -15.5303  -30.2954   23.7547 H   0  0  0  0  0  0
  -15.8665  -28.0757   22.7053 H   0  0  0  0  0  0
  -24.5938  -30.7023   25.7830 H   0  0  0  0  0  0
  -24.8930  -32.2832   26.4962 H   0  0  0  0  0  0
  -25.8123  -30.8855   27.0239 H   0  0  0  0  0  0
  -26.2829  -29.6830   24.1144 H   0  0  0  0  0  0
  -27.4071  -29.7268   25.4535 H   0  0  0  0  0  0
  -27.8668  -30.4385   23.9237 H   0  0  0  0  0  0
  -27.2705  -33.3610   26.2097 H   0  0  0  0  0  0
  -28.3849  -32.6884   25.0292 H   0  0  0  0  0  0
  -28.0760  -31.8423   26.5376 H   0  0  0  0  0  0
  -28.2614  -38.0097   24.7505 H   0  0  0  0  0  0
  -28.1060  -36.2631   24.6314 H   0  0  0  0  0  0
  -27.2299  -37.1481   25.8874 H   0  0  0  0  0  0
  -20.9258  -29.8869   21.7089 H   0  0  0  0  0  0
  -26.0193  -38.2884   24.1406 H   0  0  0  0  0  0
  -28.0513  -20.2281   16.9191 H   0  0  0  0  0  0
  -28.7288  -18.0199   17.8196 H   0  0  0  0  0  0
  -27.4980  -21.5523   20.9973 H   0  0  0  0  0  0
  -24.9919  -21.9331   18.7255 H   0  0  0  0  0  0
  -25.3032  -23.6405   18.4992 H   0  0  0  0  0  0
  -25.7342  -22.8552   20.0171 H   0  0  0  0  0  0
  -28.3347  -16.5217   19.6331 H   0  0  0  0  0  0
  -27.8717  -17.0555   21.2218 H   0  0  0  0  0  0
  -30.7684  -17.0409   20.2147 H   0  0  0  0  0  0
  -30.2530  -17.3607   21.8623 H   0  0  0  0  0  0
  -27.2712  -24.4697   20.0260 H   0  0  0  0  0  0
  -28.9165  -23.9254   20.1573 H   0  0  0  0  0  0
  -28.1930  -26.1081   18.1228 H   0  0  0  0  0  0
  -29.7342  -25.7727   18.8396 H   0  0  0  0  0  0
  -26.8770  -22.1769   17.2781 H   0  0  0  0  0  0
  -29.1849  -15.0111   21.7387 H   0  0  0  0  0  0
  -28.9375  -23.1890   17.9580 H   0  0  0  0  0  0
  -27.7000  -24.1208   17.5270 H   0  0  0  0  0  0
  1 25  1  0  0  0
  1 30  2  0  0  0
  1 83  1  0  0  0
  2  3  1  0  0  0
  2 25  1  0  0  0
  2 85  1  0  0  0
  2 86  1  0  0  0
  3  4  1  0  0  0
  3 87  1  0  0  0
  3 88  1  0  0  0
  4  5  1  0  0  0
  4 89  1  0  0  0
  4 90  1  0  0  0
  5  6  1  0  0  0
  5 26  1  0  0  0
  5 91  1  0  0  0
  6 25  1  0  0  0
  6 92  1  0  0  0
  6 93  1  0  0  0
  7  8  2  0  0  0
  7 26  1  0  0  0
  7 29  1  0  0  0
  8  9  1  0  0  0
  8 22  1  0  0  0
  9 10  1  0  0  0
  9 27  2  0  0  0
 10 11  2  0  0  0
 10 15  1  0  0  0
 11 12  1  0  0  0
 11 94  1  0  0  0
 12 13  2  0  0  0
 12 95  1  0  0  0
 13 14  1  0  0  0
 13 31  1  0  0  0
 14 15  2  0  0  0
 14 96  1  0  0  0
 15 97  1  0  0  0
 16 17  2  0  0  0
 16 21  1  0  0  0
 16 31  1  0  0  0
 17 18  1  0  0  0
 17 98  1  0  0  0
 18 19  2  0  0  0
 18 99  1  0  0  0
 19 20  1  0  0  0
 19 24  1  0  0  0
 20 21  2  0  0  0
 20100  1  0  0  0
 21 23  1  0  0  0
 22 28  1  0  0  0
 22 32  2  0  0  0
 26 27  1  0  0  0
 28101  1  0  0  0
 28102  1  0  0  0
 29103  1  0  0  0
 29104  1  0  0  0
 33 34  1  0  0  0
 33 66  1  0  0  0
 33 70  2  0  0  0
 34 36  1  0  0  0
 34 59  1  0  0  0
 34105  1  0  0  0
 35 44  2  0  0  0
 35 45  1  0  0  0
 35 68  1  0  0  0
 36 56  1  0  0  0
 36106  1  0  0  0
 37 39  1  0  0  0
 37 47  1  0  0  0
 37 66  1  0  0  0
 37107  1  0  0  0
 38 43  2  0  0  0
 38 46  1  0  0  0
 38 47  1  0  0  0
 39 64  1  0  0  0
 39 67  2  0  0  0
 40 52  1  0  0  0
 40 53  2  0  0  0
 40 58  1  0  0  0
 41108  1  0  0  0
 41109  1  0  0  0
 41110  1  0  0  0
 41 48  1  0  0  0
 42 43  1  0  0  0
 42 66  1  0  0  0
 42111  1  0  0  0
 42112  1  0  0  0
 43 44  1  0  0  0
 44113  1  0  0  0
 45 46  2  0  0  0
 45114  1  0  0  0
 46115  1  0  0  0
 47116  1  0  0  0
 47117  1  0  0  0
 48 56  1  0  0  0
 48 65  1  0  0  0
 48118  1  0  0  0
 49 50  1  0  0  0
 49 53  1  0  0  0
 49 64  1  0  0  0
 49119  1  0  0  0
 50 51  1  0  0  0
 50120  1  0  0  0
 50121  1  0  0  0
 51 52  1  0  0  0
 51122  1  0  0  0
 51123  1  0  0  0
 52124  1  0  0  0
 52125  1  0  0  0
 53 54  1  0  0  0
 54 55  2  0  0  0
 54126  1  0  0  0
 55 57  1  0  0  0
 55127  1  0  0  0
 56 69  2  0  0  0
 57 58  2  0  0  0
 57128  1  0  0  0
 58129  1  0  0  0
 59 60  1  0  0  0
 59 61  1  0  0  0
 59 62  1  0  0  0
 60130  1  0  0  0
 60131  1  0  0  0
 60132  1  0  0  0
 61133  1  0  0  0
 61134  1  0  0  0
 61135  1  0  0  0
 62136  1  0  0  0
 62137  1  0  0  0
 62138  1  0  0  0
 63 65  1  0  0  0
 63139  1  0  0  0
 63140  1  0  0  0
 63141  1  0  0  0
 64142  1  0  0  0
 65143  1  0  0  0
 68 80  1  0  0  0
 71 72  2  0  0  0
 71 74  1  0  0  0
 71144  1  0  0  0
 72 75  1  0  0  0
 72145  1  0  0  0
 73 74  2  0  0  0
 73 82  1  0  0  0
 73146  1  0  0  0
 74 81  1  0  0  0
 75 77  1  0  0  0
 75 82  2  0  0  0
 76147  1  0  0  0
 76148  1  0  0  0
 76149  1  0  0  0
 76 81  1  0  0  0
 77 78  1  0  0  0
 77150  1  0  0  0
 77151  1  0  0  0
 78 83  1  0  0  0
 78152  1  0  0  0
 78153  1  0  0  0
 79 80  1  0  0  0
 79 84  1  0  0  0
 79154  1  0  0  0
 79155  1  0  0  0
 80156  1  0  0  0
 80157  1  0  0  0
 81 84  1  0  0  0
 81158  1  0  0  0
 83159  1  0  0  0
 84160  1  0  0  0
 84161  1  0  0  0
M  CHG  1  84   1
M  ISO  4   1 100  68 101  80 101  83 100
M  END
> <chiral flag>
0

> <version>
0

> <s_m_source_file>
/data/baiqing/PycharmProjects/Reinvent-master-3.2/result/LINK_invent/BTK/process_docking_weight1_custom_sum_contain_oxygen_bond_distance_aromatic_linkinvent_7_9_3/rearranged_h_0132.sdf

> <i_m_source_file_index>
13

> <r_mmod_Potential_Energy-OPLS-2005>
-330.792449951172

> <r_mmod_Stretch_Energy-OPLS-2005>
34.5487747192383

> <r_mmod_Bend_Energy-OPLS-2005>
104.826599121094

> <r_mmod_Torsional_Energy-OPLS-2005>
202.924682617188

> <r_mmod_Improper_Torsional_Energy-OPLS-2005>
6.07130241394043

> <r_mmod_Van_der_Waal_Energy-OPLS-2005>
152.815902709961

> <r_mmod_Electrostatic_Energy-OPLS-2005>
-361.310821533203

> <r_mmod_Solvation_Energy-OPLS-2005>
-479.784912109375

> <b_mmod_Minimization_Converged-OPLS-2005>
0

> <r_mmod_RMS_Derivative-OPLS-2005>
1.80777513980865

$$$$
13
                    3D
 Structure written by MMmdl.
180189  0  0  1  0            999 V2000
  -30.7688  -14.3978   20.6697 C   0  0  0  0  0  0
  -30.4092  -12.2995   19.4140 C   0  0  0  0  0  0
  -29.4858  -12.5265   18.2027 C   0  0  0  0  0  0
  -28.0092  -12.3850   18.6141 C   0  0  0  0  0  0
  -27.6635  -13.2100   19.8816 C   0  0  2  0  0  0
  -28.7010  -12.9744   21.0029 C   0  0  0  0  0  0
  -25.2584  -13.8176   20.5686 C   0  0  0  0  0  0
  -24.1838  -13.0447   20.9171 C   0  0  0  0  0  0
  -24.6397  -11.6908   20.8729 C   0  0  0  0  0  0
  -23.9066  -10.4293   21.0401 C   0  0  0  0  0  0
  -24.3619   -9.4209   21.9179 C   0  0  0  0  0  0
  -23.6289   -8.2242   22.0754 C   0  0  0  0  0  0
  -22.4271   -8.0284   21.3545 C   0  0  0  0  0  0
  -21.9908   -9.0257   20.4645 C   0  0  0  0  0  0
  -22.7234  -10.2132   20.3047 C   0  0  0  0  0  0
  -21.6852   -6.0737   22.5279 C   0  0  0  0  0  0
  -21.4014   -6.5642   23.8212 C   0  0  0  0  0  0
  -21.3658   -5.6790   24.9172 C   0  0  0  0  0  0
  -21.6044   -4.3055   24.7222 C   0  0  0  0  0  0
  -21.8816   -3.8149   23.4340 C   0  0  0  0  0  0
  -21.9192   -4.6965   22.3399 C   0  0  0  0  0  0
  -22.7855  -13.5237   21.1832 C   0  0  0  0  0  0
  -22.1660   -4.2153   21.0976 F   0  0  0  0  0  0
  -21.5628   -3.4537   25.7735 F   0  0  0  0  0  0
  -30.0408  -13.2661   20.4636 N   0  0  0  0  0  0
  -26.3029  -12.9354   20.3387 N   0  0  0  0  0  0
  -25.9327  -11.6506   20.5764 N   0  0  0  0  0  0
  -22.0498  -12.8226   22.0387 N   0  0  0  0  0  0
  -25.4318  -15.1889   20.4108 N   0  0  0  0  0  0
  -31.7904  -14.6395   20.0203 O   0  0  0  0  0  0
  -21.6634   -6.8879   21.4240 O   0  0  0  0  0  0
  -22.3540  -14.5545   20.6684 O   0  0  0  0  0  0
  -24.6089  -31.8696   23.2114 C   0  0  0  0  0  0
  -25.8986  -32.4818   23.8424 C   0  0  1  0  0  0
  -27.2386  -27.4555   20.1017 C   0  0  0  0  0  0
  -25.5857  -33.8613   24.2365 N   0  0  0  0  0  0
  -23.4005  -30.4899   21.5494 C   0  0  2  0  0  0
  -24.8505  -28.9535   20.1203 C   0  0  0  0  0  0
  -22.7378  -29.4668   22.4988 C   0  0  0  0  0  0
  -18.0269  -28.1400   22.8478 C   0  0  0  0  0  0
  -24.1491  -36.7330   23.2643 C   0  0  0  0  0  0
  -25.9240  -30.8399   21.3627 C   0  0  0  0  0  0
  -26.0058  -29.4709   20.7219 C   0  0  0  0  0  0
  -27.2040  -28.7246   20.7168 C   0  0  0  0  0  0
  -26.0765  -26.9453   19.4916 C   0  0  0  0  0  0
  -24.8788  -27.6863   19.5081 C   0  0  0  0  0  0
  -23.6115  -29.8182   20.1658 C   0  0  0  0  0  0
  -25.4098  -36.3106   24.0355 C   0  0  1  0  0  0
  -20.5847  -28.3700   23.1311 C   0  0  2  0  0  0
  -20.6768  -26.9444   22.5417 C   0  0  0  0  0  0
  -19.5763  -26.6421   21.5196 C   0  0  0  0  0  0
  -18.1928  -26.7941   22.1603 C   0  0  0  0  0  0
  -19.1509  -28.8861   23.2888 C   0  0  0  0  0  0
  -18.9443  -30.1452   23.8936 C   0  0  0  0  0  0
  -17.6452  -30.6609   24.0572 C   0  0  0  0  0  0
  -25.9010  -34.9466   23.5159 C   0  0  0  0  0  0
  -16.5346  -29.9119   23.6320 C   0  0  0  0  0  0
  -16.7253  -28.6525   23.0344 C   0  0  0  0  0  0
  -26.4426  -31.6567   25.0729 C   0  0  0  0  0  0
  -25.3734  -31.3634   26.1518 C   0  0  0  0  0  0
  -27.0246  -30.3028   24.6025 C   0  0  0  0  0  0
  -27.6028  -32.4279   25.7459 C   0  0  0  0  0  0
  -27.5582  -37.1805   24.8455 C   0  0  0  0  0  0
  -21.4112  -29.3061   22.3708 N   0  0  0  0  0  0
  -26.4293  -37.3786   23.9411 N   0  0  0  0  0  0
  -24.6628  -31.0814   22.1009 N   0  0  0  0  0  0
  -23.4138  -28.8206   23.3034 O   0  0  0  0  0  0
  -28.4035  -26.7375   20.0317 O   0  0  0  0  0  0
  -26.5571  -34.8909   22.4725 O   0  0  0  0  0  0
  -23.5292  -32.1419   23.7519 O   0  0  0  0  0  0
  -32.9388  -17.6880   22.7589 C   0  0  0  0  0  0
  -32.3413  -16.5778   22.1442 C   0  0  0  0  0  0
  -30.1552  -17.3653   22.8555 C   0  0  0  0  0  0
  -30.7505  -18.4669   23.5297 C   0  0  0  0  0  0
  -32.1622  -18.6283   23.4623 C   0  0  0  0  0  0
  -30.9386  -16.3990   22.1753 C   0  0  0  0  0  0
  -26.7332  -19.0907   24.3554 C   0  0  0  0  0  0
  -27.5886  -20.3695   24.3313 C   0  0  0  0  0  0
  -27.0384  -18.1552   25.5351 C   0  0  0  0  0  0
  -29.4454  -18.7125   25.7118 C   0  0  0  0  0  0
  -29.8852  -19.4052   24.3908 C   0  0  2  0  0  0
  -32.8922  -19.7740   24.1477 C   0  0  0  0  0  0
  -28.9722  -23.9930   19.4675 C   0  0  0  0  0  0
  -29.4139  -21.4117   23.1431 C   0  0  0  0  0  0
  -28.6744  -22.1182   21.9722 C   0  0  0  0  0  0
  -28.6798  -25.8985   21.1546 C   0  0  0  0  0  0
  -28.4234  -24.3946   20.8534 C   0  0  2  0  0  0
  -28.8474  -20.1289   23.6077 N   0  0  0  0  0  0
  -30.2997  -15.2451   21.6105 N   0  0  0  0  0  0
  -28.4292  -17.6601   25.5227 N   0  3  0  0  0  0
  -29.0281  -23.5599   21.9330 N   0  3  0  0  0  0
  -31.4552  -12.3813   19.1122 H   0  0  0  0  0  0
  -30.2951  -11.2825   19.7928 H   0  0  0  0  0  0
  -29.7223  -11.8167   17.4088 H   0  0  0  0  0  0
  -29.6586  -13.5206   17.7869 H   0  0  0  0  0  0
  -27.8135  -11.3276   18.7943 H   0  0  0  0  0  0
  -27.3593  -12.6771   17.7887 H   0  0  0  0  0  0
  -27.7151  -14.2622   19.6009 H   0  0  0  0  0  0
  -28.6655  -11.9350   21.3332 H   0  0  0  0  0  0
  -28.4509  -13.5658   21.8839 H   0  0  0  0  0  0
  -25.2763   -9.5677   22.4749 H   0  0  0  0  0  0
  -23.9999   -7.4631   22.7473 H   0  0  0  0  0  0
  -21.0837   -8.8771   19.8950 H   0  0  0  0  0  0
  -22.3698  -10.9670   19.6152 H   0  0  0  0  0  0
  -21.2006   -7.6147   23.9715 H   0  0  0  0  0  0
  -21.1484   -6.0522   25.9075 H   0  0  0  0  0  0
  -22.0598   -2.7613   23.2838 H   0  0  0  0  0  0
  -22.4112  -11.9886   22.4766 H   0  0  0  0  0  0
  -21.1108  -13.1243   22.2577 H   0  0  0  0  0  0
  -24.6670  -15.8473   20.5112 H   0  0  0  0  0  0
  -26.2886  -15.6234   20.0910 H   0  0  0  0  0  0
  -26.7075  -32.5560   23.1216 H   0  0  0  0  0  0
  -25.0020  -33.9790   25.0516 H   0  0  0  0  0  0
  -22.6910  -31.3073   21.4046 H   0  0  0  0  0  0
  -23.3737  -35.9679   23.3295 H   0  0  0  0  0  0
  -24.3610  -36.8952   22.2063 H   0  0  0  0  0  0
  -23.7275  -37.6553   23.6653 H   0  0  0  0  0  0
  -26.0233  -31.6000   20.5870 H   0  0  0  0  0  0
  -26.8185  -30.9080   21.9696 H   0  0  0  0  0  0
  -28.1005  -29.1214   21.1712 H   0  0  0  0  0  0
  -26.1061  -25.9814   18.9999 H   0  0  0  0  0  0
  -23.9930  -27.2829   19.0369 H   0  0  0  0  0  0
  -23.7204  -30.5923   19.4049 H   0  0  0  0  0  0
  -22.7378  -29.2342   19.8701 H   0  0  0  0  0  0
  -25.1263  -36.1986   25.0849 H   0  0  0  0  0  0
  -20.9920  -28.3297   24.1434 H   0  0  0  0  0  0
  -20.5681  -26.2315   23.3600 H   0  0  0  0  0  0
  -21.6642  -26.7521   22.1211 H   0  0  0  0  0  0
  -19.6954  -25.6326   21.1237 H   0  0  0  0  0  0
  -19.6723  -27.3226   20.6713 H   0  0  0  0  0  0
  -17.4196  -26.6678   21.3998 H   0  0  0  0  0  0
  -18.0344  -26.0087   22.9008 H   0  0  0  0  0  0
  -19.7929  -30.7222   24.2358 H   0  0  0  0  0  0
  -17.5028  -31.6287   24.5176 H   0  0  0  0  0  0
  -15.5350  -30.3047   23.7635 H   0  0  0  0  0  0
  -15.8637  -28.0862   22.7066 H   0  0  0  0  0  0
  -24.5975  -30.6868   25.7914 H   0  0  0  0  0  0
  -24.8818  -32.2742   26.4942 H   0  0  0  0  0  0
  -25.8151  -30.8892   27.0295 H   0  0  0  0  0  0
  -26.2764  -29.6803   24.1104 H   0  0  0  0  0  0
  -27.4092  -29.7215   25.4410 H   0  0  0  0  0  0
  -27.8550  -30.4386   23.9102 H   0  0  0  0  0  0
  -27.2699  -33.3623   26.1998 H   0  0  0  0  0  0
  -28.3831  -32.6774   25.0253 H   0  0  0  0  0  0
  -28.0690  -31.8412   26.5388 H   0  0  0  0  0  0
  -28.2566  -38.0127   24.7512 H   0  0  0  0  0  0
  -28.1105  -36.2654   24.6254 H   0  0  0  0  0  0
  -27.2297  -37.1432   25.8856 H   0  0  0  0  0  0
  -20.9263  -29.8779   21.6930 H   0  0  0  0  0  0
  -26.0176  -38.2862   24.1422 H   0  0  0  0  0  0
  -34.0140  -17.7914   22.7092 H   0  0  0  0  0  0
  -32.9972  -15.8646   21.6690 H   0  0  0  0  0  0
  -29.0818  -17.2503   22.8790 H   0  0  0  0  0  0
  -26.8043  -18.5579   23.4058 H   0  0  0  0  0  0
  -25.6864  -19.3863   24.4388 H   0  0  0  0  0  0
  -27.7446  -20.7851   25.3286 H   0  0  0  0  0  0
  -26.9920  -21.1173   23.8136 H   0  0  0  0  0  0
  -26.3669  -17.2968   25.4977 H   0  0  0  0  0  0
  -26.8308  -18.6605   26.4800 H   0  0  0  0  0  0
  -29.1249  -19.4334   26.4646 H   0  0  0  0  0  0
  -30.3262  -18.2363   26.1456 H   0  0  0  0  0  0
  -30.5402  -20.1836   24.7803 H   0  0  0  0  0  0
  -33.9693  -19.7177   23.9832 H   0  0  0  0  0  0
  -32.7310  -19.7519   25.2256 H   0  0  0  0  0  0
  -32.5587  -20.7368   23.7609 H   0  0  0  0  0  0
  -28.5514  -24.6166   18.6781 H   0  0  0  0  0  0
  -28.7186  -22.9652   19.2086 H   0  0  0  0  0  0
  -30.0559  -24.1016   19.4196 H   0  0  0  0  0  0
  -29.4583  -22.0867   24.0017 H   0  0  0  0  0  0
  -30.4466  -21.2668   22.8232 H   0  0  0  0  0  0
  -27.5919  -22.0416   22.0564 H   0  0  0  0  0  0
  -28.9423  -21.6261   21.0379 H   0  0  0  0  0  0
  -29.7308  -26.0500   21.3991 H   0  0  0  0  0  0
  -28.1184  -26.2077   22.0395 H   0  0  0  0  0  0
  -27.3434  -24.2350   20.8537 H   0  0  0  0  0  0
  -29.3935  -15.0029   21.9807 H   0  0  0  0  0  0
  -28.6248  -17.1666   24.6682 H   0  0  0  0  0  0
  -28.5242  -17.0063   26.2832 H   0  0  0  0  0  0
  -30.0342  -23.6367   21.8919 H   0  0  0  0  0  0
  -28.7421  -23.9514   22.8180 H   0  0  0  0  0  0
  1 25  1  0  0  0
  1 30  2  0  0  0
  1 89  1  0  0  0
  2  3  1  0  0  0
  2 25  1  0  0  0
  2 92  1  0  0  0
  2 93  1  0  0  0
  3  4  1  0  0  0
  3 94  1  0  0  0
  3 95  1  0  0  0
  4  5  1  0  0  0
  4 96  1  0  0  0
  4 97  1  0  0  0
  5  6  1  0  0  0
  5 26  1  0  0  0
  5 98  1  0  0  0
  6 25  1  0  0  0
  6 99  1  0  0  0
  6100  1  0  0  0
  7  8  2  0  0  0
  7 26  1  0  0  0
  7 29  1  0  0  0
  8  9  1  0  0  0
  8 22  1  0  0  0
  9 10  1  0  0  0
  9 27  2  0  0  0
 10 11  2  0  0  0
 10 15  1  0  0  0
 11 12  1  0  0  0
 11101  1  0  0  0
 12 13  2  0  0  0
 12102  1  0  0  0
 13 14  1  0  0  0
 13 31  1  0  0  0
 14 15  2  0  0  0
 14103  1  0  0  0
 15104  1  0  0  0
 16 17  2  0  0  0
 16 21  1  0  0  0
 16 31  1  0  0  0
 17 18  1  0  0  0
 17105  1  0  0  0
 18 19  2  0  0  0
 18106  1  0  0  0
 19 20  1  0  0  0
 19 24  1  0  0  0
 20 21  2  0  0  0
 20107  1  0  0  0
 21 23  1  0  0  0
 22 28  1  0  0  0
 22 32  2  0  0  0
 26 27  1  0  0  0
 28108  1  0  0  0
 28109  1  0  0  0
 29110  1  0  0  0
 29111  1  0  0  0
 33 34  1  0  0  0
 33 66  1  0  0  0
 33 70  2  0  0  0
 34 36  1  0  0  0
 34 59  1  0  0  0
 34112  1  0  0  0
 35 44  2  0  0  0
 35 45  1  0  0  0
 35 68  1  0  0  0
 36 56  1  0  0  0
 36113  1  0  0  0
 37 39  1  0  0  0
 37 47  1  0  0  0
 37 66  1  0  0  0
 37114  1  0  0  0
 38 43  2  0  0  0
 38 46  1  0  0  0
 38 47  1  0  0  0
 39 64  1  0  0  0
 39 67  2  0  0  0
 40 52  1  0  0  0
 40 53  2  0  0  0
 40 58  1  0  0  0
 41115  1  0  0  0
 41116  1  0  0  0
 41117  1  0  0  0
 41 48  1  0  0  0
 42 43  1  0  0  0
 42 66  1  0  0  0
 42118  1  0  0  0
 42119  1  0  0  0
 43 44  1  0  0  0
 44120  1  0  0  0
 45 46  2  0  0  0
 45121  1  0  0  0
 46122  1  0  0  0
 47123  1  0  0  0
 47124  1  0  0  0
 48 56  1  0  0  0
 48 65  1  0  0  0
 48125  1  0  0  0
 49 50  1  0  0  0
 49 53  1  0  0  0
 49 64  1  0  0  0
 49126  1  0  0  0
 50 51  1  0  0  0
 50127  1  0  0  0
 50128  1  0  0  0
 51 52  1  0  0  0
 51129  1  0  0  0
 51130  1  0  0  0
 52131  1  0  0  0
 52132  1  0  0  0
 53 54  1  0  0  0
 54 55  2  0  0  0
 54133  1  0  0  0
 55 57  1  0  0  0
 55134  1  0  0  0
 56 69  2  0  0  0
 57 58  2  0  0  0
 57135  1  0  0  0
 58136  1  0  0  0
 59 60  1  0  0  0
 59 61  1  0  0  0
 59 62  1  0  0  0
 60137  1  0  0  0
 60138  1  0  0  0
 60139  1  0  0  0
 61140  1  0  0  0
 61141  1  0  0  0
 61142  1  0  0  0
 62143  1  0  0  0
 62144  1  0  0  0
 62145  1  0  0  0
 63 65  1  0  0  0
 63146  1  0  0  0
 63147  1  0  0  0
 63148  1  0  0  0
 64149  1  0  0  0
 65150  1  0  0  0
 68 86  1  0  0  0
 71 72  2  0  0  0
 71 75  1  0  0  0
 71151  1  0  0  0
 72 76  1  0  0  0
 72152  1  0  0  0
 73 74  1  0  0  0
 73 76  2  0  0  0
 73153  1  0  0  0
 74 75  2  0  0  0
 74 81  1  0  0  0
 75 82  1  0  0  0
 76 89  1  0  0  0
 77 78  1  0  0  0
 77 79  1  0  0  0
 77154  1  0  0  0
 77155  1  0  0  0
 78 88  1  0  0  0
 78156  1  0  0  0
 78157  1  0  0  0
 79 90  1  0  0  0
 79158  1  0  0  0
 79159  1  0  0  0
 80 81  1  0  0  0
 80 90  1  0  0  0
 80160  1  0  0  0
 80161  1  0  0  0
 81 88  1  0  0  0
 81162  1  0  0  0
 82163  1  0  0  0
 82164  1  0  0  0
 82165  1  0  0  0
 83166  1  0  0  0
 83167  1  0  0  0
 83168  1  0  0  0
 83 87  1  0  0  0
 84 85  1  0  0  0
 84 88  1  0  0  0
 84169  1  0  0  0
 84170  1  0  0  0
 85 91  1  0  0  0
 85171  1  0  0  0
 85172  1  0  0  0
 86 87  1  0  0  0
 86173  1  0  0  0
 86174  1  0  0  0
 87 91  1  0  0  0
 87175  1  0  0  0
 89176  1  0  0  0
 90177  1  0  0  0
 90178  1  0  0  0
 91179  1  0  0  0
 91180  1  0  0  0
M  CHG  2  90   1  91   1
M  ISO  4   1 100  68 101  86 101  89 100
M  END
> <chiral flag>
0

> <version>
0

> <s_m_source_file>
/data/baiqing/PycharmProjects/Reinvent-master-3.2/result/LINK_invent/BTK/process_docking_weight1_custom_sum_contain_oxygen_bond_distance_aromatic_linkinvent_7_9_3/rearranged_h_0132.sdf

> <i_m_source_file_index>
14

> <r_mmod_Potential_Energy-OPLS-2005>
-244.676696777344

> <r_mmod_Stretch_Energy-OPLS-2005>
44.1744499206543

> <r_mmod_Bend_Energy-OPLS-2005>
121.834495544434

> <r_mmod_Torsional_Energy-OPLS-2005>
300.935272216797

> <r_mmod_Improper_Torsional_Energy-OPLS-2005>
2.12063908576965

> <r_mmod_Van_der_Waal_Energy-OPLS-2005>
166.776290893555

> <r_mmod_Electrostatic_Energy-OPLS-2005>
21.4996013641357

> <r_mmod_Solvation_Energy-OPLS-2005>
-909.144165039062

> <b_mmod_Minimization_Converged-OPLS-2005>
0

> <r_mmod_RMS_Derivative-OPLS-2005>
2.20641088485718

$$$$
14
                    3D
 Structure written by MMmdl.
183193  0  0  1  0            999 V2000
  -28.4495  -17.3628   21.1948 C   0  0  0  0  0  0
  -29.7492  -14.6711   19.9314 C   0  0  0  0  0  0
  -29.4546  -13.5081   18.7770 C   0  0  0  0  0  0
  -28.3067  -12.5704   19.1339 C   0  0  0  0  0  0
  -27.4407  -13.4781   19.9954 C   0  0  2  0  0  0
  -28.0775  -14.2902   21.2041 C   0  0  0  0  0  0
  -25.1152  -13.8351   20.5742 C   0  0  0  0  0  0
  -24.0911  -13.0249   20.9193 C   0  0  0  0  0  0
  -24.5990  -11.6849   20.8716 C   0  0  0  0  0  0
  -23.8881  -10.4183   21.0398 C   0  0  0  0  0  0
  -24.3492   -9.4173   21.9215 C   0  0  0  0  0  0
  -23.6231   -8.2187   22.0788 C   0  0  0  0  0  0
  -22.4247   -8.0175   21.3551 C   0  0  0  0  0  0
  -21.9824   -9.0093   20.4631 C   0  0  0  0  0  0
  -22.7084  -10.1995   20.3034 C   0  0  0  0  0  0
  -21.6879   -6.0659   22.5220 C   0  0  0  0  0  0
  -21.4082   -6.5615   23.8132 C   0  0  0  0  0  0
  -21.3623   -5.6803   24.9119 C   0  0  0  0  0  0
  -21.6029   -4.3053   24.7221 C   0  0  0  0  0  0
  -21.8824   -3.8094   23.4359 C   0  0  0  0  0  0
  -21.9207   -4.6889   22.3386 C   0  0  0  0  0  0
  -22.7020  -13.4975   21.1854 C   0  0  0  0  0  0
  -22.1656   -4.2070   21.0966 F   0  0  0  0  0  0
  -21.5569   -3.4519   25.7728 F   0  0  0  0  0  0
  -28.6057  -15.6733   20.7488 N   0  0  0  0  0  0
  -26.1704  -12.9871   20.3662 N   0  0  0  0  0  0
  -25.8981  -11.6805   20.5792 N   0  0  0  0  0  0
  -21.9853  -12.7994   22.0534 N   0  0  0  0  0  0
  -25.2551  -15.2149   20.4072 N   0  0  0  0  0  0
  -29.7563  -17.2548   20.9579 O   0  0  0  0  0  0
  -21.6655   -6.8760   21.4186 O   0  0  0  0  0  0
  -22.2744  -14.5334   20.6754 O   0  0  0  0  0  0
  -24.5899  -31.5907   23.1559 C   0  0  0  0  0  0
  -25.8252  -32.3763   23.7868 C   0  0  1  0  0  0
  -27.1556  -27.4020   19.8934 C   0  0  0  0  0  0
  -25.4693  -33.7790   24.1438 N   0  0  0  0  0  0
  -23.8028  -29.4883   21.5790 C   0  0  2  0  0  0
  -25.1481  -29.2734   19.7339 C   0  0  0  0  0  0
  -24.0298  -27.7001   21.7240 C   0  0  0  0  0  0
  -18.0117  -27.6091   23.2276 C   0  0  0  0  0  0
  -24.1340  -36.7044   23.2813 C   0  0  0  0  0  0
  -26.0725  -30.6625   21.5149 C   0  0  0  0  0  0
  -26.2192  -29.4995   20.6121 C   0  0  0  0  0  0
  -27.2076  -28.5026   20.7957 C   0  0  0  0  0  0
  -26.4963  -27.6074   18.7224 C   0  0  0  0  0  0
  -25.3654  -28.4020   18.7041 C   0  0  0  0  0  0
  -23.7843  -29.8128   20.0777 C   0  0  0  0  0  0
  -25.3983  -36.2730   24.0429 C   0  0  1  0  0  0
  -21.1153  -25.6412   23.0456 C   0  0  2  0  0  0
  -21.3693  -25.6961   21.6463 C   0  0  0  0  0  0
  -19.2731  -28.2324   20.6419 C   0  0  0  0  0  0
  -17.9108  -28.2037   21.6886 C   0  0  0  0  0  0
  -19.3086  -27.0096   24.0067 C   0  0  0  0  0  0
  -19.3549  -28.4695   24.6335 C   0  0  0  0  0  0
  -18.4450  -29.6864   24.5747 C   0  0  0  0  0  0
  -25.8783  -34.8973   23.5087 C   0  0  0  0  0  0
  -17.1091  -29.5754   24.1251 C   0  0  0  0  0  0
  -16.8499  -28.2860   23.6918 C   0  0  0  0  0  0
  -26.4168  -31.6436   25.0635 C   0  0  0  0  0  0
  -25.3425  -31.3756   26.1443 C   0  0  0  0  0  0
  -27.0660  -30.2852   24.7015 C   0  0  0  0  0  0
  -27.5529  -32.4818   25.7070 C   0  0  0  0  0  0
  -27.5444  -37.1458   24.8471 C   0  0  0  0  0  0
  -22.9582  -26.3281   21.5593 N   0  0  0  0  0  0
  -26.4182  -37.3433   23.9403 N   0  0  0  0  0  0
  -24.7739  -30.5812   22.1965 N   0  0  0  0  0  0
  -24.6163  -27.8727   22.8117 O   0  0  0  0  0  0
  -27.5652  -26.1084   20.0388 O   0  0  0  0  0  0
  -26.6011  -34.8577   22.5086 O   0  0  0  0  0  0
  -23.4748  -31.9109   23.5918 O   0  0  0  0  0  0
  -20.6433  -27.7621   22.3446 C   0  0  0  0  0  0
  -19.3101  -26.2944   21.6036 C   0  0  0  0  0  0
  -21.5371  -28.0732   21.3716 C   0  0  0  0  0  0
  -21.1292  -27.0616   19.8467 C   0  0  0  0  0  0
  -22.1013  -27.6013   23.1678 C   0  0  0  0  0  0
  -19.7642  -26.0586   20.0699 C   0  0  0  0  0  0
  -16.8465  -22.0910   20.6488 C   0  0  0  0  0  0
  -17.7080  -22.2747   21.9017 C   0  0  0  0  0  0
  -17.5933  -22.8581   19.5295 C   0  0  0  0  0  0
  -18.9224  -23.0872   21.4262 C   0  0  0  0  0  0
  -23.1234  -26.6236   17.8859 C   0  0  0  0  0  0
  -22.5252  -24.5796   19.0892 C   0  0  0  0  0  0
  -24.4736  -25.7502   17.7819 C   0  0  0  0  0  0
  -24.0206  -24.3287   19.6168 C   0  0  0  0  0  0
  -22.0436  -26.1044   18.8404 C   0  0  1  0  0  0
  -18.3655  -23.9644   20.2689 C   0  0  0  0  0  0
  -24.4055  -23.5093   23.0348 C   0  0  0  0  0  0
  -26.1981  -21.3047   22.2534 C   0  0  0  0  0  0
  -26.6964  -25.0522   19.3863 C   0  0  0  0  0  0
  -19.2968  -24.8321   19.4639 N   0  0  0  0  0  0
  -23.4628  -25.6801   23.6536 N   0  0  0  0  0  0
  -27.2477  -19.0129   21.6912 N   0  0  0  0  0  0
  -24.9930  -25.3700   19.1568 N   0  3  1  0  0  0
  -30.3897  -15.3717   19.3921 H   0  0  0  0  0  0
  -30.4413  -14.2561   20.6729 H   0  0  0  0  0  0
  -30.3500  -12.9304   18.5774 H   0  0  0  0  0  0
  -29.2157  -14.0059   17.8345 H   0  0  0  0  0  0
  -28.6856  -11.7198   19.6978 H   0  0  0  0  0  0
  -27.7785  -12.1830   18.2633 H   0  0  0  0  0  0
  -27.1820  -14.2374   19.2534 H   0  0  0  0  0  0
  -28.7618  -13.6857   21.8056 H   0  0  0  0  0  0
  -27.3096  -14.5286   21.9423 H   0  0  0  0  0  0
  -25.2573   -9.5743   22.4880 H   0  0  0  0  0  0
  -23.9869   -7.4656   22.7594 H   0  0  0  0  0  0
  -21.0724   -8.8608   19.8972 H   0  0  0  0  0  0
  -22.3482  -10.9544   19.6183 H   0  0  0  0  0  0
  -21.2177   -7.6134   23.9615 H   0  0  0  0  0  0
  -21.1425   -6.0543   25.9012 H   0  0  0  0  0  0
  -22.0666   -2.7552   23.2882 H   0  0  0  0  0  0
  -22.3549  -11.9644   22.4798 H   0  0  0  0  0  0
  -21.0511  -13.0998   22.2879 H   0  0  0  0  0  0
  -24.4804  -15.8634   20.4846 H   0  0  0  0  0  0
  -26.1042  -15.6337   20.0525 H   0  0  0  0  0  0
  -26.6480  -32.4525   23.0780 H   0  0  0  0  0  0
  -24.7829  -33.8920   24.8767 H   0  0  0  0  0  0
  -22.9679  -29.8266   22.1871 H   0  0  0  0  0  0
  -23.3601  -35.9370   23.3493 H   0  0  0  0  0  0
  -24.3441  -36.8598   22.2222 H   0  0  0  0  0  0
  -23.6964  -37.6215   23.6780 H   0  0  0  0  0  0
  -26.1798  -31.5916   20.9356 H   0  0  0  0  0  0
  -26.9407  -30.5955   22.1641 H   0  0  0  0  0  0
  -27.8243  -28.5051   21.6844 H   0  0  0  0  0  0
  -26.8441  -27.0790   17.8477 H   0  0  0  0  0  0
  -24.8527  -28.5690   17.7699 H   0  0  0  0  0  0
  -23.7174  -30.8730   19.8323 H   0  0  0  0  0  0
  -22.9961  -29.3196   19.5052 H   0  0  0  0  0  0
  -25.1152  -36.1706   25.0942 H   0  0  0  0  0  0
  -21.2698  -24.6733   23.5514 H   0  0  0  0  0  0
  -20.8494  -24.7317   21.6707 H   0  0  0  0  0  0
  -21.6934  -24.7642   21.1658 H   0  0  0  0  0  0
  -18.8648  -28.2236   19.6101 H   0  0  0  0  0  0
  -19.6120  -29.2725   20.6902 H   0  0  0  0  0  0
  -17.4742  -29.1999   21.6371 H   0  0  0  0  0  0
  -17.1449  -27.5862   21.2053 H   0  0  0  0  0  0
  -20.3166  -28.7055   25.0669 H   0  0  0  0  0  0
  -18.8031  -30.6230   24.9743 H   0  0  0  0  0  0
  -16.3940  -30.3929   24.1516 H   0  0  0  0  0  0
  -15.9090  -28.2162   23.1663 H   0  0  0  0  0  0
  -24.5707  -30.6895   25.7904 H   0  0  0  0  0  0
  -24.8400  -32.2946   26.4497 H   0  0  0  0  0  0
  -25.7611  -30.9261   27.0485 H   0  0  0  0  0  0
  -26.3795  -29.5891   24.2167 H   0  0  0  0  0  0
  -27.4211  -29.7731   25.5987 H   0  0  0  0  0  0
  -27.9467  -30.4018   24.0698 H   0  0  0  0  0  0
  -27.1876  -33.4191   26.1302 H   0  0  0  0  0  0
  -28.3135  -32.7388   24.9697 H   0  0  0  0  0  0
  -28.0608  -31.9521   26.5135 H   0  0  0  0  0  0
  -28.2522  -37.9684   24.7476 H   0  0  0  0  0  0
  -28.0844  -36.2211   24.6377 H   0  0  0  0  0  0
  -27.2173  -37.1191   25.8872 H   0  0  0  0  0  0
  -22.5591  -26.3108   20.6321 H   0  0  0  0  0  0
  -26.0188  -38.2592   24.1230 H   0  0  0  0  0  0
  -20.1775  -28.7528   22.6541 H   0  0  0  0  0  0
  -18.6643  -25.6171   22.1422 H   0  0  0  0  0  0
  -21.5694  -29.1251   21.0216 H   0  0  0  0  0  0
  -15.8649  -22.5286   20.8322 H   0  0  0  0  0  0
  -16.6808  -21.0336   20.4205 H   0  0  0  0  0  0
  -17.9880  -21.3236   22.3541 H   0  0  0  0  0  0
  -17.1450  -22.8273   22.6650 H   0  0  0  0  0  0
  -16.9104  -23.2358   18.7814 H   0  0  0  0  0  0
  -18.2693  -22.1594   19.0391 H   0  0  0  0  0  0
  -19.7042  -22.4132   21.0704 H   0  0  0  0  0  0
  -19.3186  -23.5883   22.2986 H   0  0  0  0  0  0
  -22.7274  -26.7249   16.8819 H   0  0  0  0  0  0
  -23.2062  -27.6337   18.2185 H   0  0  0  0  0  0
  -21.7997  -23.8426   19.4511 H   0  0  0  0  0  0
  -22.4979  -24.1696   18.0804 H   0  0  0  0  0  0
  -25.1815  -26.2292   17.1162 H   0  0  0  0  0  0
  -24.3194  -24.8490   17.1813 H   0  0  0  0  0  0
  -24.3749  -23.3730   19.2274 H   0  0  0  0  0  0
  -24.0603  -24.2783   20.6994 H   0  0  0  0  0  0
  -21.2535  -25.9279   18.1123 H   0  0  0  0  0  0
  -17.6003  -24.6270   20.6697 H   0  0  0  0  0  0
  -24.1100  -23.0428   23.9778 H   0  0  0  0  0  0
  -23.5862  -23.2407   22.3712 H   0  0  0  0  0  0
  -26.3552  -21.6702   21.2419 H   0  0  0  0  0  0
  -27.0768  -21.6416   22.7862 H   0  0  0  0  0  0
  -27.1231  -24.8345   18.4151 H   0  0  0  0  0  0
  -26.7818  -24.1257   19.9591 H   0  0  0  0  0  0
  -19.8931  -24.3674   18.8031 H   0  0  0  0  0  0
  -24.1322  -26.0492   24.3048 H   0  0  0  0  0  0
  -28.1343  -19.4936   21.6499 H   0  0  0  0  0  0
  -24.8045  -26.1858   19.7148 H   0  0  0  0  0  0
  1 25  1  0  0  0
  1 30  2  0  0  0
  1 92  1  0  0  0
  2  3  1  0  0  0
  2 25  1  0  0  0
  2 94  1  0  0  0
  2 95  1  0  0  0
  3  4  1  0  0  0
  3 96  1  0  0  0
  3 97  1  0  0  0
  4  5  1  0  0  0
  4 98  1  0  0  0
  4 99  1  0  0  0
  5  6  1  0  0  0
  5 26  1  0  0  0
  5100  1  0  0  0
  6 25  1  0  0  0
  6101  1  0  0  0
  6102  1  0  0  0
  7  8  2  0  0  0
  7 26  1  0  0  0
  7 29  1  0  0  0
  8  9  1  0  0  0
  8 22  1  0  0  0
  9 10  1  0  0  0
  9 27  2  0  0  0
 10 11  2  0  0  0
 10 15  1  0  0  0
 11 12  1  0  0  0
 11103  1  0  0  0
 12 13  2  0  0  0
 12104  1  0  0  0
 13 14  1  0  0  0
 13 31  1  0  0  0
 14 15  2  0  0  0
 14105  1  0  0  0
 15106  1  0  0  0
 16 17  2  0  0  0
 16 21  1  0  0  0
 16 31  1  0  0  0
 17 18  1  0  0  0
 17107  1  0  0  0
 18 19  2  0  0  0
 18108  1  0  0  0
 19 20  1  0  0  0
 19 24  1  0  0  0
 20 21  2  0  0  0
 20109  1  0  0  0
 21 23  1  0  0  0
 22 28  1  0  0  0
 22 32  2  0  0  0
 26 27  1  0  0  0
 28110  1  0  0  0
 28111  1  0  0  0
 29112  1  0  0  0
 29113  1  0  0  0
 33 34  1  0  0  0
 33 66  1  0  0  0
 33 70  2  0  0  0
 34 36  1  0  0  0
 34 59  1  0  0  0
 34114  1  0  0  0
 35 44  2  0  0  0
 35 45  1  0  0  0
 35 68  1  0  0  0
 36 56  1  0  0  0
 36115  1  0  0  0
 37 39  1  0  0  0
 37 47  1  0  0  0
 37 66  1  0  0  0
 37116  1  0  0  0
 38 43  2  0  0  0
 38 46  1  0  0  0
 38 47  1  0  0  0
 39 64  1  0  0  0
 39 67  2  0  0  0
 40 52  1  0  0  0
 40 53  2  0  0  0
 40 58  1  0  0  0
 41117  1  0  0  0
 41118  1  0  0  0
 41119  1  0  0  0
 41 48  1  0  0  0
 42 43  1  0  0  0
 42 66  1  0  0  0
 42120  1  0  0  0
 42121  1  0  0  0
 43 44  1  0  0  0
 44122  1  0  0  0
 45 46  2  0  0  0
 45123  1  0  0  0
 46124  1  0  0  0
 47125  1  0  0  0
 47126  1  0  0  0
 48 56  1  0  0  0
 48 65  1  0  0  0
 48127  1  0  0  0
 49 50  1  0  0  0
 49 53  1  0  0  0
 49 64  1  0  0  0
 49128  1  0  0  0
 50 51  1  0  0  0
 50129  1  0  0  0
 50130  1  0  0  0
 51 52  1  0  0  0
 51131  1  0  0  0
 51132  1  0  0  0
 52133  1  0  0  0
 52134  1  0  0  0
 53 54  1  0  0  0
 54 55  2  0  0  0
 54135  1  0  0  0
 55 57  1  0  0  0
 55136  1  0  0  0
 56 69  2  0  0  0
 57 58  2  0  0  0
 57137  1  0  0  0
 58138  1  0  0  0
 59 60  1  0  0  0
 59 61  1  0  0  0
 59 62  1  0  0  0
 60139  1  0  0  0
 60140  1  0  0  0
 60141  1  0  0  0
 61142  1  0  0  0
 61143  1  0  0  0
 61144  1  0  0  0
 62145  1  0  0  0
 62146  1  0  0  0
 62147  1  0  0  0
 63 65  1  0  0  0
 63148  1  0  0  0
 63149  1  0  0  0
 63150  1  0  0  0
 64151  1  0  0  0
 65152  1  0  0  0
 68 89  1  0  0  0
 71 72  2  0  0  0
 71 75  1  0  0  0
 71153  1  0  0  0
 72 76  1  0  0  0
 72154  1  0  0  0
 73 74  1  0  0  0
 73 75  2  0  0  0
 73155  1  0  0  0
 74 76  2  0  0  0
 74 85  1  0  0  0
 75 91  1  0  0  0
 76 90  1  0  0  0
 77 78  1  0  0  0
 77 79  1  0  0  0
 77156  1  0  0  0
 77157  1  0  0  0
 78 80  1  0  0  0
 78158  1  0  0  0
 78159  1  0  0  0
 79 86  1  0  0  0
 79160  1  0  0  0
 79161  1  0  0  0
 80 86  1  0  0  0
 80162  1  0  0  0
 80163  1  0  0  0
 81 83  1  0  0  0
 81 85  1  0  0  0
 81164  1  0  0  0
 81165  1  0  0  0
 82 84  1  0  0  0
 82 85  1  0  0  0
 82166  1  0  0  0
 82167  1  0  0  0
 83 93  1  0  0  0
 83168  1  0  0  0
 83169  1  0  0  0
 84 93  1  0  0  0
 84170  1  0  0  0
 84171  1  0  0  0
 85172  1  0  0  0
 86 90  1  0  0  0
 86173  1  0  0  0
 87 88  1  0  0  0
 87 91  1  0  0  0
 87174  1  0  0  0
 87175  1  0  0  0
 88 92  1  0  0  0
 88176  1  0  0  0
 88177  1  0  0  0
 89178  1  0  0  0
 89179  1  0  0  0
 89 93  1  0  0  0
 90180  1  0  0  0
 91181  1  0  0  0
 92182  1  0  0  0
 93183  1  0  0  0
M  CHG  1  93   1
M  ISO  4   1 100  68 101  89 101  92 100
M  END
> <chiral flag>
0

> <version>
0

> <s_m_source_file>
/data/baiqing/PycharmProjects/Reinvent-master-3.2/result/LINK_invent/BTK/process_docking_weight1_custom_sum_contain_oxygen_bond_distance_aromatic_linkinvent_7_9_3/rearranged_h_0132.sdf

> <i_m_source_file_index>
15

> <r_mmod_Potential_Energy-OPLS-2005>
38865.390625

> <r_mmod_Stretch_Energy-OPLS-2005>
19609.337890625

> <r_mmod_Bend_Energy-OPLS-2005>
3673.44018554688

> <r_mmod_Torsional_Energy-OPLS-2005>
1075.0986328125

> <r_mmod_Improper_Torsional_Energy-OPLS-2005>
159.602233886719

> <r_mmod_Van_der_Waal_Energy-OPLS-2005>
5289.69140625

> <r_mmod_Electrostatic_Energy-OPLS-2005>
-343.156890869141

> <r_mmod_Solvation_Energy-OPLS-2005>
-469.344543457031

> <b_mmod_Minimization_Converged-OPLS-2005>
0

> <r_mmod_RMS_Derivative-OPLS-2005>
36.1413726806641

$$$$
15
                    3D
 Structure written by MMmdl.
162171  0  0  1  0            999 V2000
  -30.6060  -14.6511   20.5195 C   0  0  0  0  0  0
  -30.4482  -12.4069   19.4537 C   0  0  0  0  0  0
  -29.5130  -12.5063   18.2269 C   0  0  0  0  0  0
  -28.0359  -12.3385   18.6382 C   0  0  0  0  0  0
  -27.6528  -13.2127   19.8609 C   0  0  2  0  0  0
  -28.6937  -13.0648   20.9929 C   0  0  0  0  0  0
  -25.2565  -13.8160   20.5684 C   0  0  0  0  0  0
  -24.1821  -13.0446   20.9213 C   0  0  0  0  0  0
  -24.6374  -11.6914   20.8750 C   0  0  0  0  0  0
  -23.9031  -10.4309   21.0427 C   0  0  0  0  0  0
  -24.3597   -9.4227   21.9204 C   0  0  0  0  0  0
  -23.6286   -8.2251   22.0751 C   0  0  0  0  0  0
  -22.4267   -8.0280   21.3546 C   0  0  0  0  0  0
  -21.9898   -9.0254   20.4652 C   0  0  0  0  0  0
  -22.7206  -10.2150   20.3065 C   0  0  0  0  0  0
  -21.6849   -6.0732   22.5283 C   0  0  0  0  0  0
  -21.4010   -6.5634   23.8219 C   0  0  0  0  0  0
  -21.3657   -5.6784   24.9182 C   0  0  0  0  0  0
  -21.6049   -4.3047   24.7225 C   0  0  0  0  0  0
  -21.8816   -3.8137   23.4345 C   0  0  0  0  0  0
  -21.9198   -4.6960   22.3408 C   0  0  0  0  0  0
  -22.7845  -13.5267   21.1860 C   0  0  0  0  0  0
  -22.1668   -4.2146   21.0985 F   0  0  0  0  0  0
  -21.5631   -3.4527   25.7734 F   0  0  0  0  0  0
  -30.0105  -13.4187   20.4363 N   0  0  0  0  0  0
  -26.2968  -12.9329   20.3272 N   0  0  0  0  0  0
  -25.9298  -11.6494   20.5723 N   0  0  0  0  0  0
  -22.0451  -12.8288   22.0413 N   0  0  0  0  0  0
  -25.4289  -15.1879   20.4099 N   0  0  0  0  0  0
  -31.7718  -14.8164   20.1402 O   0  0  0  0  0  0
  -21.6632   -6.8873   21.4241 O   0  0  0  0  0  0
  -22.3568  -14.5583   20.6698 O   0  0  0  0  0  0
  -24.6225  -31.8620   23.2050 C   0  0  0  0  0  0
  -25.9090  -32.4792   23.8371 C   0  0  1  0  0  0
  -27.2367  -27.3470   20.1039 C   0  0  0  0  0  0
  -25.5929  -33.8591   24.2311 N   0  0  0  0  0  0
  -23.4151  -30.4846   21.5479 C   0  0  2  0  0  0
  -24.8619  -28.9440   20.1103 C   0  0  0  0  0  0
  -22.7455  -29.4625   22.4968 C   0  0  0  0  0  0
  -18.0275  -28.1379   22.8488 C   0  0  0  0  0  0
  -24.1486  -36.7291   23.2640 C   0  0  0  0  0  0
  -25.9525  -30.7996   21.3727 C   0  0  0  0  0  0
  -26.0266  -29.4289   20.7158 C   0  0  0  0  0  0
  -27.2098  -28.6392   20.7089 C   0  0  0  0  0  0
  -26.0472  -26.9106   19.4717 C   0  0  0  0  0  0
  -24.8735  -27.6888   19.4824 C   0  0  0  0  0  0
  -23.6267  -29.8188   20.1626 C   0  0  0  0  0  0
  -25.4108  -36.3096   24.0346 C   0  0  1  0  0  0
  -20.5874  -28.3669   23.1297 C   0  0  2  0  0  0
  -20.6759  -26.9399   22.5416 C   0  0  0  0  0  0
  -19.5741  -26.6379   21.5209 C   0  0  0  0  0  0
  -18.1916  -26.7922   22.1613 C   0  0  0  0  0  0
  -19.1525  -28.8842   23.2884 C   0  0  0  0  0  0
  -18.9452  -30.1448   23.8890 C   0  0  0  0  0  0
  -17.6456  -30.6586   24.0551 C   0  0  0  0  0  0
  -25.9043  -34.9464   23.5126 C   0  0  0  0  0  0
  -16.5343  -29.9082   23.6335 C   0  0  0  0  0  0
  -16.7265  -28.6497   23.0356 C   0  0  0  0  0  0
  -26.4489  -31.6589   25.0724 C   0  0  0  0  0  0
  -25.3733  -31.3736   26.1467 C   0  0  0  0  0  0
  -27.0311  -30.3014   24.6160 C   0  0  0  0  0  0
  -27.6078  -32.4302   25.7470 C   0  0  0  0  0  0
  -27.5589  -37.1792   24.8464 C   0  0  0  0  0  0
  -21.4174  -29.3029   22.3707 N   0  0  0  0  0  0
  -26.4295  -37.3790   23.9417 N   0  0  0  0  0  0
  -24.6822  -31.0649   22.0993 N   0  0  0  0  0  0
  -23.4192  -28.8159   23.3035 O   0  0  0  0  0  0
  -28.3961  -26.5613   20.1860 O   0  0  0  0  0  0
  -26.5599  -34.8925   22.4683 O   0  0  0  0  0  0
  -23.5398  -32.1413   23.7399 O   0  0  0  0  0  0
  -28.6088  -19.2428   21.2955 C   0  0  0  0  0  0
  -28.6588  -17.8233   21.2270 C   0  0  0  0  0  0
  -30.8830  -19.2475   20.6045 C   0  0  0  0  0  0
  -29.7548  -20.0182   21.0012 C   0  0  0  0  0  0
  -29.8392  -17.1303   20.8584 C   0  0  0  0  0  0
  -31.1842  -22.0475   21.7142 C   0  0  0  0  0  0
  -31.8207  -22.5829   20.4176 C   0  0  0  0  0  0
  -29.7780  -21.5767   21.3000 C   0  0  1  0  0  0
  -29.4543  -22.6325   20.1606 C   0  0  1  0  0  0
  -29.3764  -25.3741   18.3808 C   0  0  0  0  0  0
  -29.0801  -24.1176   20.6546 C   0  0  0  0  0  0
  -28.5077  -25.1983   19.6378 C   0  0  1  0  0  0
  -30.9248  -17.8812   20.5312 N   0  0  0  0  0  0
  -29.7678  -15.6729   20.8849 N   0  0  0  0  0  0
  -30.7306  -22.6628   19.4230 N   0  3  0  0  0  0
  -31.4847  -12.5576   19.1445 H   0  0  0  0  0  0
  -30.4095  -11.4106   19.8945 H   0  0  0  0  0  0
  -29.7851  -11.7494   17.4890 H   0  0  0  0  0  0
  -29.6466  -13.4727   17.7381 H   0  0  0  0  0  0
  -27.8784  -11.2865   18.8763 H   0  0  0  0  0  0
  -27.3796  -12.5580   17.7937 H   0  0  0  0  0  0
  -27.6708  -14.2464   19.5153 H   0  0  0  0  0  0
  -28.7073  -12.0428   21.3721 H   0  0  0  0  0  0
  -28.4269  -13.6896   21.8471 H   0  0  0  0  0  0
  -25.2753   -9.5707   22.4775 H   0  0  0  0  0  0
  -24.0008   -7.4633   22.7458 H   0  0  0  0  0  0
  -21.0829   -8.8771   19.8963 H   0  0  0  0  0  0
  -22.3667  -10.9686   19.6162 H   0  0  0  0  0  0
  -21.1990   -7.6140   23.9718 H   0  0  0  0  0  0
  -21.1487   -6.0515   25.9092 H   0  0  0  0  0  0
  -22.0598   -2.7593   23.2836 H   0  0  0  0  0  0
  -22.4014  -11.9948   22.4844 H   0  0  0  0  0  0
  -21.1070  -13.1355   22.2566 H   0  0  0  0  0  0
  -24.6552  -15.8353   20.5125 H   0  0  0  0  0  0
  -26.2543  -15.6202   20.0151 H   0  0  0  0  0  0
  -26.7155  -32.5472   23.1118 H   0  0  0  0  0  0
  -25.0102  -33.9745   25.0475 H   0  0  0  0  0  0
  -22.7087  -31.3053   21.4076 H   0  0  0  0  0  0
  -23.3767  -35.9605   23.3295 H   0  0  0  0  0  0
  -24.3585  -36.8906   22.2057 H   0  0  0  0  0  0
  -23.7213  -37.6487   23.6644 H   0  0  0  0  0  0
  -26.0813  -31.5650   20.6058 H   0  0  0  0  0  0
  -26.8340  -30.8474   22.0000 H   0  0  0  0  0  0
  -28.1027  -29.0101   21.1925 H   0  0  0  0  0  0
  -25.9751  -25.9649   18.9618 H   0  0  0  0  0  0
  -23.9818  -27.3136   18.9993 H   0  0  0  0  0  0
  -23.7362  -30.5942   19.4031 H   0  0  0  0  0  0
  -22.7488  -29.2413   19.8676 H   0  0  0  0  0  0
  -25.1277  -36.1969   25.0841 H   0  0  0  0  0  0
  -20.9961  -28.3233   24.1417 H   0  0  0  0  0  0
  -20.5642  -26.2283   23.3611 H   0  0  0  0  0  0
  -21.6632  -26.7419   22.1223 H   0  0  0  0  0  0
  -19.6899  -25.6284   21.1248 H   0  0  0  0  0  0
  -19.6692  -27.3180   20.6731 H   0  0  0  0  0  0
  -17.4198  -26.6689   21.4002 H   0  0  0  0  0  0
  -18.0299  -26.0059   22.8997 H   0  0  0  0  0  0
  -19.7932  -30.7259   24.2260 H   0  0  0  0  0  0
  -17.5015  -31.6270   24.5142 H   0  0  0  0  0  0
  -15.5345  -30.2979   23.7660 H   0  0  0  0  0  0
  -15.8664  -28.0814   22.7071 H   0  0  0  0  0  0
  -24.5898  -30.7091   25.7806 H   0  0  0  0  0  0
  -24.8923  -32.2899   26.4893 H   0  0  0  0  0  0
  -25.8062  -30.8918   27.0241 H   0  0  0  0  0  0
  -26.2864  -29.6776   24.1199 H   0  0  0  0  0  0
  -27.4030  -29.7265   25.4651 H   0  0  0  0  0  0
  -27.8733  -30.4302   23.9357 H   0  0  0  0  0  0
  -27.2730  -33.3612   26.2057 H   0  0  0  0  0  0
  -28.3868  -32.6845   25.0268 H   0  0  0  0  0  0
  -28.0766  -31.8411   26.5363 H   0  0  0  0  0  0
  -28.2608  -38.0090   24.7524 H   0  0  0  0  0  0
  -28.1080  -36.2621   24.6263 H   0  0  0  0  0  0
  -27.2315  -37.1425   25.8871 H   0  0  0  0  0  0
  -20.9350  -29.8778   21.6940 H   0  0  0  0  0  0
  -26.0189  -38.2873   24.1410 H   0  0  0  0  0  0
  -27.6993  -19.7255   21.6235 H   0  0  0  0  0  0
  -27.7675  -17.2721   21.4966 H   0  0  0  0  0  0
  -31.8199  -19.7323   20.3794 H   0  0  0  0  0  0
  -31.0948  -22.8769   22.4182 H   0  0  0  0  0  0
  -31.7857  -21.2907   22.2193 H   0  0  0  0  0  0
  -32.6146  -21.9365   20.0457 H   0  0  0  0  0  0
  -32.2540  -23.5706   20.5842 H   0  0  0  0  0  0
  -29.0852  -21.7301   22.1300 H   0  0  0  0  0  0
  -28.6462  -22.2632   19.5281 H   0  0  0  0  0  0
  -29.4013  -24.4709   17.7734 H   0  0  0  0  0  0
  -30.4003  -25.6560   18.6323 H   0  0  0  0  0  0
  -28.9768  -26.1675   17.7476 H   0  0  0  0  0  0
  -29.9394  -24.5625   21.1570 H   0  0  0  0  0  0
  -28.3319  -24.0186   21.4411 H   0  0  0  0  0  0
  -27.5544  -24.7923   19.3175 H   0  0  0  0  0  0
  -28.8650  -15.3238   21.1618 H   0  0  0  0  0  0
  -30.7724  -21.8378   18.8454 H   0  0  0  0  0  0
  -30.8254  -23.4654   18.8240 H   0  0  0  0  0  0
  1 25  1  0  0  0
  1 30  2  0  0  0
  1 84  1  0  0  0
  2  3  1  0  0  0
  2 25  1  0  0  0
  2 86  1  0  0  0
  2 87  1  0  0  0
  3  4  1  0  0  0
  3 88  1  0  0  0
  3 89  1  0  0  0
  4  5  1  0  0  0
  4 90  1  0  0  0
  4 91  1  0  0  0
  5  6  1  0  0  0
  5 26  1  0  0  0
  5 92  1  0  0  0
  6 25  1  0  0  0
  6 93  1  0  0  0
  6 94  1  0  0  0
  7  8  2  0  0  0
  7 26  1  0  0  0
  7 29  1  0  0  0
  8  9  1  0  0  0
  8 22  1  0  0  0
  9 10  1  0  0  0
  9 27  2  0  0  0
 10 11  2  0  0  0
 10 15  1  0  0  0
 11 12  1  0  0  0
 11 95  1  0  0  0
 12 13  2  0  0  0
 12 96  1  0  0  0
 13 14  1  0  0  0
 13 31  1  0  0  0
 14 15  2  0  0  0
 14 97  1  0  0  0
 15 98  1  0  0  0
 16 17  2  0  0  0
 16 21  1  0  0  0
 16 31  1  0  0  0
 17 18  1  0  0  0
 17 99  1  0  0  0
 18 19  2  0  0  0
 18100  1  0  0  0
 19 20  1  0  0  0
 19 24  1  0  0  0
 20 21  2  0  0  0
 20101  1  0  0  0
 21 23  1  0  0  0
 22 28  1  0  0  0
 22 32  2  0  0  0
 26 27  1  0  0  0
 28102  1  0  0  0
 28103  1  0  0  0
 29104  1  0  0  0
 29105  1  0  0  0
 33 34  1  0  0  0
 33 66  1  0  0  0
 33 70  2  0  0  0
 34 36  1  0  0  0
 34 59  1  0  0  0
 34106  1  0  0  0
 35 44  2  0  0  0
 35 45  1  0  0  0
 35 68  1  0  0  0
 36 56  1  0  0  0
 36107  1  0  0  0
 37 39  1  0  0  0
 37 47  1  0  0  0
 37 66  1  0  0  0
 37108  1  0  0  0
 38 43  2  0  0  0
 38 46  1  0  0  0
 38 47  1  0  0  0
 39 64  1  0  0  0
 39 67  2  0  0  0
 40 52  1  0  0  0
 40 53  2  0  0  0
 40 58  1  0  0  0
 41109  1  0  0  0
 41110  1  0  0  0
 41111  1  0  0  0
 41 48  1  0  0  0
 42 43  1  0  0  0
 42 66  1  0  0  0
 42112  1  0  0  0
 42113  1  0  0  0
 43 44  1  0  0  0
 44114  1  0  0  0
 45 46  2  0  0  0
 45115  1  0  0  0
 46116  1  0  0  0
 47117  1  0  0  0
 47118  1  0  0  0
 48 56  1  0  0  0
 48 65  1  0  0  0
 48119  1  0  0  0
 49 50  1  0  0  0
 49 53  1  0  0  0
 49 64  1  0  0  0
 49120  1  0  0  0
 50 51  1  0  0  0
 50121  1  0  0  0
 50122  1  0  0  0
 51 52  1  0  0  0
 51123  1  0  0  0
 51124  1  0  0  0
 52125  1  0  0  0
 52126  1  0  0  0
 53 54  1  0  0  0
 54 55  2  0  0  0
 54127  1  0  0  0
 55 57  1  0  0  0
 55128  1  0  0  0
 56 69  2  0  0  0
 57 58  2  0  0  0
 57129  1  0  0  0
 58130  1  0  0  0
 59 60  1  0  0  0
 59 61  1  0  0  0
 59 62  1  0  0  0
 60131  1  0  0  0
 60132  1  0  0  0
 60133  1  0  0  0
 61134  1  0  0  0
 61135  1  0  0  0
 61136  1  0  0  0
 62137  1  0  0  0
 62138  1  0  0  0
 62139  1  0  0  0
 63 65  1  0  0  0
 63140  1  0  0  0
 63141  1  0  0  0
 63142  1  0  0  0
 64143  1  0  0  0
 65144  1  0  0  0
 68 82  1  0  0  0
 71 72  2  0  0  0
 71 74  1  0  0  0
 71145  1  0  0  0
 72 75  1  0  0  0
 72146  1  0  0  0
 73 74  2  0  0  0
 73 83  1  0  0  0
 73147  1  0  0  0
 74 78  1  0  0  0
 75 83  2  0  0  0
 75 84  1  0  0  0
 76 77  1  0  0  0
 76 78  1  0  0  0
 76148  1  0  0  0
 76149  1  0  0  0
 77 85  1  0  0  0
 77150  1  0  0  0
 77151  1  0  0  0
 78 79  1  0  0  0
 78152  1  0  0  0
 79 81  1  0  0  0
 79 85  1  0  0  0
 79153  1  0  0  0
 80154  1  0  0  0
 80155  1  0  0  0
 80156  1  0  0  0
 80 82  1  0  0  0
 81 82  1  0  0  0
 81157  1  0  0  0
 81158  1  0  0  0
 82159  1  0  0  0
 84160  1  0  0  0
 85161  1  0  0  0
 85162  1  0  0  0
M  CHG  1  85   1
M  ISO  4   1 100  68 101  82 101  84 100
M  END
> <chiral flag>
0

> <version>
0

> <s_m_source_file>
/data/baiqing/PycharmProjects/Reinvent-master-3.2/result/LINK_invent/BTK/process_docking_weight1_custom_sum_contain_oxygen_bond_distance_aromatic_linkinvent_7_9_3/rearranged_h_0132.sdf

> <i_m_source_file_index>
16

> <r_mmod_Potential_Energy-OPLS-2005>
-180.005172729492

> <r_mmod_Stretch_Energy-OPLS-2005>
78.7098999023438

> <r_mmod_Bend_Energy-OPLS-2005>
186.40869140625

> <r_mmod_Torsional_Energy-OPLS-2005>
286.142578125

> <r_mmod_Improper_Torsional_Energy-OPLS-2005>
4.99288463592529

> <r_mmod_Van_der_Waal_Energy-OPLS-2005>
143.476577758789

> <r_mmod_Electrostatic_Energy-OPLS-2005>
-432.579162597656

> <r_mmod_Solvation_Energy-OPLS-2005>
-491.606140136719

> <b_mmod_Minimization_Converged-OPLS-2005>
0

> <r_mmod_RMS_Derivative-OPLS-2005>
2.42553162574768

$$$$
16
                    3D
 Structure written by MMmdl.
167175  0  0  1  0            999 V2000
  -30.6763  -14.5468   20.5104 C   0  0  0  0  0  0
  -30.4187  -12.3275   19.4575 C   0  0  0  0  0  0
  -29.5085  -12.5027   18.2241 C   0  0  0  0  0  0
  -28.0279  -12.3455   18.6216 C   0  0  0  0  0  0
  -27.6525  -13.2113   19.8553 C   0  0  2  0  0  0
  -28.6902  -13.0640   20.9954 C   0  0  0  0  0  0
  -25.2545  -13.8128   20.5566 C   0  0  0  0  0  0
  -24.1817  -13.0430   20.9075 C   0  0  0  0  0  0
  -24.6382  -11.6887   20.8672 C   0  0  0  0  0  0
  -23.9061  -10.4293   21.0380 C   0  0  0  0  0  0
  -24.3594   -9.4256   21.9190 C   0  0  0  0  0  0
  -23.6276   -8.2290   22.0789 C   0  0  0  0  0  0
  -22.4273   -8.0304   21.3557 C   0  0  0  0  0  0
  -21.9899   -9.0277   20.4645 C   0  0  0  0  0  0
  -22.7217  -10.2155   20.3039 C   0  0  0  0  0  0
  -21.6870   -6.0763   22.5289 C   0  0  0  0  0  0
  -21.4025   -6.5659   23.8225 C   0  0  0  0  0  0
  -21.3651   -5.6786   24.9160 C   0  0  0  0  0  0
  -21.6052   -4.3053   24.7193 C   0  0  0  0  0  0
  -21.8828   -3.8164   23.4312 C   0  0  0  0  0  0
  -21.9193   -4.7003   22.3380 C   0  0  0  0  0  0
  -22.7854  -13.5279   21.1749 C   0  0  0  0  0  0
  -22.1629   -4.2206   21.0944 F   0  0  0  0  0  0
  -21.5621   -3.4524   25.7705 F   0  0  0  0  0  0
  -30.0208  -13.3520   20.4395 N   0  0  0  0  0  0
  -26.2968  -12.9326   20.3204 N   0  0  0  0  0  0
  -25.9301  -11.6481   20.5650 N   0  0  0  0  0  0
  -22.0464  -12.8326   22.0294 N   0  0  0  0  0  0
  -25.4302  -15.1818   20.3983 N   0  0  0  0  0  0
  -31.8383  -14.6828   20.1190 O   0  0  0  0  0  0
  -21.6614   -6.8923   21.4259 O   0  0  0  0  0  0
  -22.3592  -14.5614   20.6645 O   0  0  0  0  0  0
  -24.6196  -31.8607   23.2063 C   0  0  0  0  0  0
  -25.9058  -32.4786   23.8359 C   0  0  1  0  0  0
  -27.2462  -27.3872   20.1025 C   0  0  0  0  0  0
  -25.5913  -33.8606   24.2294 N   0  0  0  0  0  0
  -23.4099  -30.4821   21.5465 C   0  0  2  0  0  0
  -24.8594  -28.9362   20.1169 C   0  0  0  0  0  0
  -22.7424  -29.4597   22.4965 C   0  0  0  0  0  0
  -18.0280  -28.1381   22.8512 C   0  0  0  0  0  0
  -24.1502  -36.7281   23.2646 C   0  0  0  0  0  0
  -25.9443  -30.8125   21.3665 C   0  0  0  0  0  0
  -26.0209  -29.4445   20.7100 C   0  0  0  0  0  0
  -27.2145  -28.6801   20.6906 C   0  0  0  0  0  0
  -26.0596  -26.8980   19.5125 C   0  0  0  0  0  0
  -24.8764  -27.6644   19.5175 C   0  0  0  0  0  0
  -23.6205  -29.8056   20.1647 C   0  0  0  0  0  0
  -25.4130  -36.3101   24.0329 C   0  0  1  0  0  0
  -20.5875  -28.3662   23.1325 C   0  0  2  0  0  0
  -20.6785  -26.9401   22.5426 C   0  0  0  0  0  0
  -19.5747  -26.6392   21.5234 C   0  0  0  0  0  0
  -18.1917  -26.7935   22.1631 C   0  0  0  0  0  0
  -19.1539  -28.8838   23.2915 C   0  0  0  0  0  0
  -18.9454  -30.1460   23.8889 C   0  0  0  0  0  0
  -17.6455  -30.6587   24.0580 C   0  0  0  0  0  0
  -25.9043  -34.9465   23.5114 C   0  0  0  0  0  0
  -16.5344  -29.9082   23.6367 C   0  0  0  0  0  0
  -16.7264  -28.6513   23.0355 C   0  0  0  0  0  0
  -26.4481  -31.6604   25.0714 C   0  0  0  0  0  0
  -25.3743  -31.3695   26.1455 C   0  0  0  0  0  0
  -27.0327  -30.3042   24.6135 C   0  0  0  0  0  0
  -27.6039  -32.4345   25.7469 C   0  0  0  0  0  0
  -27.5577  -37.1808   24.8469 C   0  0  0  0  0  0
  -21.4155  -29.3021   22.3707 N   0  0  0  0  0  0
  -26.4304  -37.3786   23.9402 N   0  0  0  0  0  0
  -24.6756  -31.0658   22.0980 N   0  0  0  0  0  0
  -23.4185  -28.8159   23.3020 O   0  0  0  0  0  0
  -28.4341  -26.6673   20.1278 O   0  0  0  0  0  0
  -26.5609  -34.8919   22.4685 O   0  0  0  0  0  0
  -23.5364  -32.1392   23.7406 O   0  0  0  0  0  0
  -29.3234  -19.4346   20.3096 C   0  0  0  0  0  0
  -27.6733  -20.1092   21.9267 C   0  0  0  0  0  0
  -28.4513  -20.4478   20.8014 C   0  0  0  0  0  0
  -29.3325  -18.1421   20.9085 C   0  0  0  0  0  0
  -27.7431  -18.8094   22.4650 C   0  0  0  0  0  0
  -26.8337  -21.9295   19.5447 C   0  0  0  0  0  0
  -27.4876  -17.4726   24.6287 C   0  0  0  0  0  0
  -25.4657  -17.9342   23.1346 C   0  0  0  0  0  0
  -30.2996  -17.0284   20.4540 C   0  0  0  0  0  0
  -27.9582  -24.3224   20.9459 C   0  0  0  0  0  0
  -28.5022  -25.2496   19.8127 C   0  0  0  0  0  0
  -28.2581  -21.8364   20.1322 C   0  0  1  0  0  0
  -26.8281  -18.4364   23.6273 C   0  0  0  0  0  0
  -28.5238  -17.8347   21.9440 N   0  0  0  0  0  0
  -29.9270  -15.6348   20.7981 N   0  0  0  0  0  0
  -28.5696  -22.9466   21.0873 N   0  3  0  0  0  0
  -31.4684  -12.4102   19.1717 H   0  0  0  0  0  0
  -30.3058  -11.3283   19.8848 H   0  0  0  0  0  0
  -29.7672  -11.7758   17.4536 H   0  0  0  0  0  0
  -29.6771  -13.4883   17.7849 H   0  0  0  0  0  0
  -27.8525  -11.2904   18.8422 H   0  0  0  0  0  0
  -27.3862  -12.5895   17.7743 H   0  0  0  0  0  0
  -27.6757  -14.2467   19.5147 H   0  0  0  0  0  0
  -28.6695  -12.0550   21.4090 H   0  0  0  0  0  0
  -28.4492  -13.7340   21.8216 H   0  0  0  0  0  0
  -25.2747   -9.5757   22.4754 H   0  0  0  0  0  0
  -24.0007   -7.4729   22.7554 H   0  0  0  0  0  0
  -21.0825   -8.8771   19.8980 H   0  0  0  0  0  0
  -22.3667  -10.9680   19.6142 H   0  0  0  0  0  0
  -21.2003   -7.6167   23.9740 H   0  0  0  0  0  0
  -21.1431   -6.0482   25.9059 H   0  0  0  0  0  0
  -22.0603   -2.7640   23.2747 H   0  0  0  0  0  0
  -22.3972  -11.9988   22.4738 H   0  0  0  0  0  0
  -21.1162  -13.1594   22.2471 H   0  0  0  0  0  0
  -24.6656  -15.8350   20.5099 H   0  0  0  0  0  0
  -26.2959  -15.6240   20.1212 H   0  0  0  0  0  0
  -26.7121  -32.5438   23.1093 H   0  0  0  0  0  0
  -25.0144  -33.9798   25.0491 H   0  0  0  0  0  0
  -22.7017  -31.2999   21.4010 H   0  0  0  0  0  0
  -23.3786  -35.9588   23.3329 H   0  0  0  0  0  0
  -24.3571  -36.8875   22.2048 H   0  0  0  0  0  0
  -23.7228  -37.6490   23.6640 H   0  0  0  0  0  0
  -26.0732  -31.5785   20.6017 H   0  0  0  0  0  0
  -26.8255  -30.8550   21.9961 H   0  0  0  0  0  0
  -28.1121  -29.0745   21.1503 H   0  0  0  0  0  0
  -26.0262  -25.9246   19.0475 H   0  0  0  0  0  0
  -23.9808  -27.2665   19.0607 H   0  0  0  0  0  0
  -23.7227  -30.5758   19.3988 H   0  0  0  0  0  0
  -22.7468  -29.2185   19.8747 H   0  0  0  0  0  0
  -25.1319  -36.1970   25.0813 H   0  0  0  0  0  0
  -20.9974  -28.3227   24.1435 H   0  0  0  0  0  0
  -20.5743  -26.2235   23.3594 H   0  0  0  0  0  0
  -21.6637  -26.7470   22.1159 H   0  0  0  0  0  0
  -19.6907  -25.6319   21.1213 H   0  0  0  0  0  0
  -19.6693  -27.3247   20.6796 H   0  0  0  0  0  0
  -17.4206  -26.6731   21.4007 H   0  0  0  0  0  0
  -18.0291  -26.0055   22.8989 H   0  0  0  0  0  0
  -19.7920  -30.7331   24.2177 H   0  0  0  0  0  0
  -17.4992  -31.6244   24.5221 H   0  0  0  0  0  0
  -15.5344  -30.2972   23.7699 H   0  0  0  0  0  0
  -15.8659  -28.0847   22.7033 H   0  0  0  0  0  0
  -24.5894  -30.7068   25.7791 H   0  0  0  0  0  0
  -24.8964  -32.2847   26.4958 H   0  0  0  0  0  0
  -25.8091  -30.8823   27.0187 H   0  0  0  0  0  0
  -26.2883  -29.6763   24.1220 H   0  0  0  0  0  0
  -27.4132  -29.7307   25.4601 H   0  0  0  0  0  0
  -27.8696  -30.4365   23.9274 H   0  0  0  0  0  0
  -27.2647  -33.3626   26.2076 H   0  0  0  0  0  0
  -28.3822  -32.6933   25.0282 H   0  0  0  0  0  0
  -28.0740  -31.8457   26.5366 H   0  0  0  0  0  0
  -28.2631  -38.0079   24.7542 H   0  0  0  0  0  0
  -28.1046  -36.2620   24.6298 H   0  0  0  0  0  0
  -27.2276  -37.1465   25.8866 H   0  0  0  0  0  0
  -20.9301  -29.8705   21.6904 H   0  0  0  0  0  0
  -26.0196  -38.2856   24.1427 H   0  0  0  0  0  0
  -29.9657  -19.6320   19.4613 H   0  0  0  0  0  0
  -26.9762  -20.8214   22.3473 H   0  0  0  0  0  0
  -26.6546  -21.1033   18.8560 H   0  0  0  0  0  0
  -26.6689  -22.8510   18.9855 H   0  0  0  0  0  0
  -26.0720  -21.8683   20.3229 H   0  0  0  0  0  0
  -28.4029  -17.8997   25.0395 H   0  0  0  0  0  0
  -27.7467  -16.5198   24.1621 H   0  0  0  0  0  0
  -26.8173  -17.2527   25.4599 H   0  0  0  0  0  0
  -24.9996  -18.6743   22.4835 H   0  0  0  0  0  0
  -24.7872  -17.7632   23.9722 H   0  0  0  0  0  0
  -25.5568  -17.0021   22.5765 H   0  0  0  0  0  0
  -31.2806  -17.2488   20.8765 H   0  0  0  0  0  0
  -30.4056  -17.0975   19.3697 H   0  0  0  0  0  0
  -26.8716  -24.2670   20.9015 H   0  0  0  0  0  0
  -28.1737  -24.8309   21.8876 H   0  0  0  0  0  0
  -28.0450  -25.0255   18.8494 H   0  0  0  0  0  0
  -29.5656  -25.0438   19.6758 H   0  0  0  0  0  0
  -28.9639  -21.9198   19.3058 H   0  0  0  0  0  0
  -26.6459  -19.3641   24.1716 H   0  0  0  0  0  0
  -28.9927  -15.5127   21.1535 H   0  0  0  0  0  0
  -28.2523  -22.5894   21.9745 H   0  0  0  0  0  0
  -29.5723  -23.0124   21.1722 H   0  0  0  0  0  0
  1 25  1  0  0  0
  1 30  2  0  0  0
  1 85  1  0  0  0
  2  3  1  0  0  0
  2 25  1  0  0  0
  2 87  1  0  0  0
  2 88  1  0  0  0
  3  4  1  0  0  0
  3 89  1  0  0  0
  3 90  1  0  0  0
  4  5  1  0  0  0
  4 91  1  0  0  0
  4 92  1  0  0  0
  5  6  1  0  0  0
  5 26  1  0  0  0
  5 93  1  0  0  0
  6 25  1  0  0  0
  6 94  1  0  0  0
  6 95  1  0  0  0
  7  8  2  0  0  0
  7 26  1  0  0  0
  7 29  1  0  0  0
  8  9  1  0  0  0
  8 22  1  0  0  0
  9 10  1  0  0  0
  9 27  2  0  0  0
 10 11  2  0  0  0
 10 15  1  0  0  0
 11 12  1  0  0  0
 11 96  1  0  0  0
 12 13  2  0  0  0
 12 97  1  0  0  0
 13 14  1  0  0  0
 13 31  1  0  0  0
 14 15  2  0  0  0
 14 98  1  0  0  0
 15 99  1  0  0  0
 16 17  2  0  0  0
 16 21  1  0  0  0
 16 31  1  0  0  0
 17 18  1  0  0  0
 17100  1  0  0  0
 18 19  2  0  0  0
 18101  1  0  0  0
 19 20  1  0  0  0
 19 24  1  0  0  0
 20 21  2  0  0  0
 20102  1  0  0  0
 21 23  1  0  0  0
 22 28  1  0  0  0
 22 32  2  0  0  0
 26 27  1  0  0  0
 28103  1  0  0  0
 28104  1  0  0  0
 29105  1  0  0  0
 29106  1  0  0  0
 33 34  1  0  0  0
 33 66  1  0  0  0
 33 70  2  0  0  0
 34 36  1  0  0  0
 34 59  1  0  0  0
 34107  1  0  0  0
 35 44  2  0  0  0
 35 45  1  0  0  0
 35 68  1  0  0  0
 36 56  1  0  0  0
 36108  1  0  0  0
 37 39  1  0  0  0
 37 47  1  0  0  0
 37 66  1  0  0  0
 37109  1  0  0  0
 38 43  2  0  0  0
 38 46  1  0  0  0
 38 47  1  0  0  0
 39 64  1  0  0  0
 39 67  2  0  0  0
 40 52  1  0  0  0
 40 53  2  0  0  0
 40 58  1  0  0  0
 41110  1  0  0  0
 41111  1  0  0  0
 41112  1  0  0  0
 41 48  1  0  0  0
 42 43  1  0  0  0
 42 66  1  0  0  0
 42113  1  0  0  0
 42114  1  0  0  0
 43 44  1  0  0  0
 44115  1  0  0  0
 45 46  2  0  0  0
 45116  1  0  0  0
 46117  1  0  0  0
 47118  1  0  0  0
 47119  1  0  0  0
 48 56  1  0  0  0
 48 65  1  0  0  0
 48120  1  0  0  0
 49 50  1  0  0  0
 49 53  1  0  0  0
 49 64  1  0  0  0
 49121  1  0  0  0
 50 51  1  0  0  0
 50122  1  0  0  0
 50123  1  0  0  0
 51 52  1  0  0  0
 51124  1  0  0  0
 51125  1  0  0  0
 52126  1  0  0  0
 52127  1  0  0  0
 53 54  1  0  0  0
 54 55  2  0  0  0
 54128  1  0  0  0
 55 57  1  0  0  0
 55129  1  0  0  0
 56 69  2  0  0  0
 57 58  2  0  0  0
 57130  1  0  0  0
 58131  1  0  0  0
 59 60  1  0  0  0
 59 61  1  0  0  0
 59 62  1  0  0  0
 60132  1  0  0  0
 60133  1  0  0  0
 60134  1  0  0  0
 61135  1  0  0  0
 61136  1  0  0  0
 61137  1  0  0  0
 62138  1  0  0  0
 62139  1  0  0  0
 62140  1  0  0  0
 63 65  1  0  0  0
 63141  1  0  0  0
 63142  1  0  0  0
 63143  1  0  0  0
 64144  1  0  0  0
 65145  1  0  0  0
 68 81  1  0  0  0
 71 73  2  0  0  0
 71 74  1  0  0  0
 71146  1  0  0  0
 72 73  1  0  0  0
 72 75  2  0  0  0
 72147  1  0  0  0
 73 82  1  0  0  0
 74 79  1  0  0  0
 74 84  2  0  0  0
 75 83  1  0  0  0
 75 84  1  0  0  0
 76148  1  0  0  0
 76149  1  0  0  0
 76150  1  0  0  0
 76 82  1  0  0  0
 77151  1  0  0  0
 77152  1  0  0  0
 77153  1  0  0  0
 77 83  1  0  0  0
 78 83  1  0  0  0
 78154  1  0  0  0
 78155  1  0  0  0
 78156  1  0  0  0
 79 85  1  0  0  0
 79157  1  0  0  0
 79158  1  0  0  0
 80 81  1  0  0  0
 80 86  1  0  0  0
 80159  1  0  0  0
 80160  1  0  0  0
 81161  1  0  0  0
 81162  1  0  0  0
 82 86  1  0  0  0
 82163  1  0  0  0
 83164  1  0  0  0
 85165  1  0  0  0
 86166  1  0  0  0
 86167  1  0  0  0
M  CHG  1  86   1
M  ISO  4   1 100  68 101  81 101  85 100
M  END
> <chiral flag>
0

> <version>
0

> <s_m_source_file>
/data/baiqing/PycharmProjects/Reinvent-master-3.2/result/LINK_invent/BTK/process_docking_weight1_custom_sum_contain_oxygen_bond_distance_aromatic_linkinvent_7_9_3/rearranged_h_0132.sdf

> <i_m_source_file_index>
17

> <r_mmod_Potential_Energy-OPLS-2005>
-569.485778808594

> <r_mmod_Stretch_Energy-OPLS-2005>
49.8861427307129

> <r_mmod_Bend_Energy-OPLS-2005>
126.224052429199

> <r_mmod_Torsional_Energy-OPLS-2005>
195.287216186523

> <r_mmod_Improper_Torsional_Energy-OPLS-2005>
6.09506702423096

> <r_mmod_Van_der_Waal_Energy-OPLS-2005>
142.249298095703

> <r_mmod_Electrostatic_Energy-OPLS-2005>
-652.434326171875

> <r_mmod_Solvation_Energy-OPLS-2005>
-461.136413574219

> <b_mmod_Minimization_Converged-OPLS-2005>
0

> <r_mmod_RMS_Derivative-OPLS-2005>
4.62137985229492

$$$$
17
                    3D
 Structure written by MMmdl.
160169  0  0  1  0            999 V2000
  -30.7271  -14.4957   20.6162 C   0  0  0  0  0  0
  -30.4259  -12.3514   19.4171 C   0  0  0  0  0  0
  -29.4848  -12.5048   18.2050 C   0  0  0  0  0  0
  -28.0131  -12.3446   18.6291 C   0  0  0  0  0  0
  -27.6583  -13.1985   19.8728 C   0  0  2  0  0  0
  -28.7056  -13.0124   20.9948 C   0  0  0  0  0  0
  -25.2611  -13.8153   20.5699 C   0  0  0  0  0  0
  -24.1870  -13.0448   20.9271 C   0  0  0  0  0  0
  -24.6406  -11.6908   20.8823 C   0  0  0  0  0  0
  -23.9066  -10.4304   21.0459 C   0  0  0  0  0  0
  -24.3613   -9.4204   21.9221 C   0  0  0  0  0  0
  -23.6292   -8.2234   22.0769 C   0  0  0  0  0  0
  -22.4282   -8.0286   21.3544 C   0  0  0  0  0  0
  -21.9920   -9.0270   20.4654 C   0  0  0  0  0  0
  -22.7252  -10.2154   20.3089 C   0  0  0  0  0  0
  -21.6859   -6.0744   22.5273 C   0  0  0  0  0  0
  -21.4007   -6.5640   23.8209 C   0  0  0  0  0  0
  -21.3656   -5.6795   24.9165 C   0  0  0  0  0  0
  -21.6045   -4.3057   24.7224 C   0  0  0  0  0  0
  -21.8818   -3.8154   23.4340 C   0  0  0  0  0  0
  -21.9195   -4.6966   22.3400 C   0  0  0  0  0  0
  -22.7891  -13.5259   21.1858 C   0  0  0  0  0  0
  -22.1666   -4.2145   21.0980 F   0  0  0  0  0  0
  -21.5632   -3.4548   25.7739 F   0  0  0  0  0  0
  -30.0254  -13.3398   20.4336 N   0  0  0  0  0  0
  -26.3014  -12.9288   20.3389 N   0  0  0  0  0  0
  -25.9314  -11.6470   20.5855 N   0  0  0  0  0  0
  -22.0473  -12.8282   22.0380 N   0  0  0  0  0  0
  -25.4319  -15.1865   20.3891 N   0  0  0  0  0  0
  -31.8495  -14.6666   20.1366 O   0  0  0  0  0  0
  -21.6644   -6.8879   21.4237 O   0  0  0  0  0  0
  -22.3637  -14.5570   20.6667 O   0  0  0  0  0  0
  -24.6153  -31.8666   23.2049 C   0  0  0  0  0  0
  -25.9034  -32.4819   23.8363 C   0  0  1  0  0  0
  -27.2520  -27.4190   20.0916 C   0  0  0  0  0  0
  -25.5884  -33.8615   24.2310 N   0  0  0  0  0  0
  -23.4045  -30.4887   21.5418 C   0  0  2  0  0  0
  -24.8552  -28.9461   20.1128 C   0  0  0  0  0  0
  -22.7387  -29.4678   22.4937 C   0  0  0  0  0  0
  -18.0265  -28.1359   22.8424 C   0  0  0  0  0  0
  -24.1486  -36.7324   23.2643 C   0  0  0  0  0  0
  -25.9336  -30.8264   21.3593 C   0  0  0  0  0  0
  -26.0118  -29.4548   20.7138 C   0  0  0  0  0  0
  -27.2051  -28.6952   20.7054 C   0  0  0  0  0  0
  -26.0702  -26.9227   19.4936 C   0  0  0  0  0  0
  -24.8797  -27.6787   19.5028 C   0  0  0  0  0  0
  -23.6174  -29.8151   20.1576 C   0  0  0  0  0  0
  -25.4104  -36.3107   24.0345 C   0  0  1  0  0  0
  -20.5835  -28.3646   23.1209 C   0  0  2  0  0  0
  -20.6749  -26.9407   22.5280 C   0  0  0  0  0  0
  -19.5709  -26.6374   21.5099 C   0  0  0  0  0  0
  -18.1902  -26.7926   22.1519 C   0  0  0  0  0  0
  -19.1494  -28.8819   23.2842 C   0  0  0  0  0  0
  -18.9404  -30.1403   23.8907 C   0  0  0  0  0  0
  -17.6397  -30.6506   24.0565 C   0  0  0  0  0  0
  -25.9033  -34.9478   23.5126 C   0  0  0  0  0  0
  -16.5299  -29.9025   23.6271 C   0  0  0  0  0  0
  -16.7253  -28.6469   23.0251 C   0  0  0  0  0  0
  -26.4466  -31.6595   25.0696 C   0  0  0  0  0  0
  -25.3730  -31.3679   26.1438 C   0  0  0  0  0  0
  -27.0310  -30.3049   24.6068 C   0  0  0  0  0  0
  -27.6053  -32.4307   25.7461 C   0  0  0  0  0  0
  -27.5577  -37.1815   24.8471 C   0  0  0  0  0  0
  -21.4116  -29.3031   22.3620 N   0  0  0  0  0  0
  -26.4284  -37.3800   23.9417 N   0  0  0  0  0  0
  -24.6693  -31.0760   22.0944 N   0  0  0  0  0  0
  -23.4123  -28.8251   23.3034 O   0  0  0  0  0  0
  -28.4470  -26.7168   20.1284 O   0  0  0  0  0  0
  -26.5602  -34.8931   22.4696 O   0  0  0  0  0  0
  -23.5338  -32.1425   23.7417 O   0  0  0  0  0  0
  -28.8160  -22.6993   21.8056 C   0  0  0  0  0  0
  -28.9438  -21.7644   19.5729 C   0  0  0  0  0  0
  -28.7422  -24.0063   21.2643 C   0  0  0  0  0  0
  -28.8667  -23.0716   19.0332 C   0  0  0  0  0  0
  -28.9020  -21.5579   20.9706 C   0  0  0  0  0  0
  -28.7487  -24.2088   19.8667 C   0  0  0  0  0  0
  -29.6328  -18.9567   21.0020 C   0  0  0  0  0  0
  -27.4154  -19.5786   21.6160 C   0  0  0  0  0  0
  -28.8349  -20.1455   21.5957 C   0  0  2  0  0  0
  -28.9702  -17.7202   21.6854 C   0  0  2  0  0  0
  -28.7046  -25.6132   19.2361 C   0  0  0  0  0  0
  -29.0627  -16.3299   20.9600 C   0  0  0  0  0  0
  -30.1854  -15.4681   21.3798 N   0  0  0  0  0  0
  -27.5548  -18.1299   21.8508 N   0  3  0  0  0  0
  -31.4627  -12.4729   19.0980 H   0  0  0  0  0  0
  -30.3615  -11.3447   19.8317 H   0  0  0  0  0  0
  -29.7335  -11.7667   17.4409 H   0  0  0  0  0  0
  -29.6272  -13.4849   17.7482 H   0  0  0  0  0  0
  -27.8385  -11.2899   18.8463 H   0  0  0  0  0  0
  -27.3534  -12.5975   17.7989 H   0  0  0  0  0  0
  -27.6923  -14.2366   19.5469 H   0  0  0  0  0  0
  -28.7026  -11.9817   21.3540 H   0  0  0  0  0  0
  -28.4632  -13.6203   21.8663 H   0  0  0  0  0  0
  -25.2747   -9.5679   22.4818 H   0  0  0  0  0  0
  -23.9998   -7.4627   22.7479 H   0  0  0  0  0  0
  -21.0860   -8.8811   19.8954 H   0  0  0  0  0  0
  -22.3719  -10.9713   19.6221 H   0  0  0  0  0  0
  -21.1987   -7.6147   23.9708 H   0  0  0  0  0  0
  -21.1481   -6.0524   25.9067 H   0  0  0  0  0  0
  -22.0599   -2.7615   23.2850 H   0  0  0  0  0  0
  -22.4046  -11.9940   22.4810 H   0  0  0  0  0  0
  -21.1074  -13.1316   22.2473 H   0  0  0  0  0  0
  -24.5735  -15.7244   20.3155 H   0  0  0  0  0  0
  -26.1097  -15.4689   19.6935 H   0  0  0  0  0  0
  -26.7109  -32.5536   23.1134 H   0  0  0  0  0  0
  -25.0020  -33.9766   25.0444 H   0  0  0  0  0  0
  -22.6946  -31.3044   21.3970 H   0  0  0  0  0  0
  -23.3740  -35.9664   23.3311 H   0  0  0  0  0  0
  -24.3574  -36.8935   22.2052 H   0  0  0  0  0  0
  -23.7242  -37.6535   23.6654 H   0  0  0  0  0  0
  -26.0404  -31.5852   20.5834 H   0  0  0  0  0  0
  -26.8264  -30.8898   21.9710 H   0  0  0  0  0  0
  -28.0992  -29.0857   21.1712 H   0  0  0  0  0  0
  -26.0473  -25.9466   19.0302 H   0  0  0  0  0  0
  -23.9895  -27.2761   19.0396 H   0  0  0  0  0  0
  -23.7278  -30.5873   19.3954 H   0  0  0  0  0  0
  -22.7422  -29.2349   19.8596 H   0  0  0  0  0  0
  -25.1277  -36.1972   25.0839 H   0  0  0  0  0  0
  -20.9942  -28.3153   24.1323 H   0  0  0  0  0  0
  -20.5726  -26.2238   23.3433 H   0  0  0  0  0  0
  -21.6610  -26.7518   22.1026 H   0  0  0  0  0  0
  -19.6812  -25.6283   21.1110 H   0  0  0  0  0  0
  -19.6626  -27.3150   20.6599 H   0  0  0  0  0  0
  -17.4210  -26.6762   21.3864 H   0  0  0  0  0  0
  -18.0195  -26.0032   22.8849 H   0  0  0  0  0  0
  -19.7847  -30.7249   24.2317 H   0  0  0  0  0  0
  -17.4934  -31.6160   24.5205 H   0  0  0  0  0  0
  -15.5290  -30.2916   23.7569 H   0  0  0  0  0  0
  -15.8683  -28.0796   22.6875 H   0  0  0  0  0  0
  -24.5927  -30.7015   25.7758 H   0  0  0  0  0  0
  -24.8893  -32.2815   26.4896 H   0  0  0  0  0  0
  -25.8076  -30.8839   27.0191 H   0  0  0  0  0  0
  -26.2852  -29.6806   24.1146 H   0  0  0  0  0  0
  -27.4117  -29.7290   25.4515 H   0  0  0  0  0  0
  -27.8667  -30.4390   23.9198 H   0  0  0  0  0  0
  -27.2701  -33.3616   26.2042 H   0  0  0  0  0  0
  -28.3859  -32.6841   25.0279 H   0  0  0  0  0  0
  -28.0728  -31.8422   26.5363 H   0  0  0  0  0  0
  -28.2602  -38.0103   24.7504 H   0  0  0  0  0  0
  -28.1052  -36.2635   24.6305 H   0  0  0  0  0  0
  -27.2296  -37.1493   25.8872 H   0  0  0  0  0  0
  -20.9363  -29.8599   21.6655 H   0  0  0  0  0  0
  -26.0173  -38.2882   24.1410 H   0  0  0  0  0  0
  -28.7737  -22.5827   22.8800 H   0  0  0  0  0  0
  -29.0114  -20.9203   18.9011 H   0  0  0  0  0  0
  -28.6749  -24.8550   21.9297 H   0  0  0  0  0  0
  -28.9002  -23.1998   17.9590 H   0  0  0  0  0  0
  -30.7002  -19.0328   21.2073 H   0  0  0  0  0  0
  -29.5021  -18.8987   19.9210 H   0  0  0  0  0  0
  -26.7896  -20.0545   22.3733 H   0  0  0  0  0  0
  -26.9284  -19.7237   20.6503 H   0  0  0  0  0  0
  -29.1587  -20.2469   22.6340 H   0  0  0  0  0  0
  -29.3750  -17.6342   22.6973 H   0  0  0  0  0  0
  -28.0685  -25.6180   18.3528 H   0  0  0  0  0  0
  -29.7054  -25.7892   18.8372 H   0  0  0  0  0  0
  -28.1508  -15.7708   21.1538 H   0  0  0  0  0  0
  -29.1019  -16.4812   19.8790 H   0  0  0  0  0  0
  -30.8886  -15.9932   21.8821 H   0  0  0  0  0  0
  -27.2581  -17.9143   22.7884 H   0  0  0  0  0  0
  -26.9537  -17.6310   21.2154 H   0  0  0  0  0  0
  1 25  1  0  0  0
  1 30  2  0  0  0
  1 83  1  0  0  0
  2  3  1  0  0  0
  2 25  1  0  0  0
  2 85  1  0  0  0
  2 86  1  0  0  0
  3  4  1  0  0  0
  3 87  1  0  0  0
  3 88  1  0  0  0
  4  5  1  0  0  0
  4 89  1  0  0  0
  4 90  1  0  0  0
  5  6  1  0  0  0
  5 26  1  0  0  0
  5 91  1  0  0  0
  6 25  1  0  0  0
  6 92  1  0  0  0
  6 93  1  0  0  0
  7  8  2  0  0  0
  7 26  1  0  0  0
  7 29  1  0  0  0
  8  9  1  0  0  0
  8 22  1  0  0  0
  9 10  1  0  0  0
  9 27  2  0  0  0
 10 11  2  0  0  0
 10 15  1  0  0  0
 11 12  1  0  0  0
 11 94  1  0  0  0
 12 13  2  0  0  0
 12 95  1  0  0  0
 13 14  1  0  0  0
 13 31  1  0  0  0
 14 15  2  0  0  0
 14 96  1  0  0  0
 15 97  1  0  0  0
 16 17  2  0  0  0
 16 21  1  0  0  0
 16 31  1  0  0  0
 17 18  1  0  0  0
 17 98  1  0  0  0
 18 19  2  0  0  0
 18 99  1  0  0  0
 19 20  1  0  0  0
 19 24  1  0  0  0
 20 21  2  0  0  0
 20100  1  0  0  0
 21 23  1  0  0  0
 22 28  1  0  0  0
 22 32  2  0  0  0
 26 27  1  0  0  0
 28101  1  0  0  0
 28102  1  0  0  0
 29103  1  0  0  0
 29104  1  0  0  0
 33 34  1  0  0  0
 33 66  1  0  0  0
 33 70  2  0  0  0
 34 36  1  0  0  0
 34 59  1  0  0  0
 34105  1  0  0  0
 35 44  2  0  0  0
 35 45  1  0  0  0
 35 68  1  0  0  0
 36 56  1  0  0  0
 36106  1  0  0  0
 37 39  1  0  0  0
 37 47  1  0  0  0
 37 66  1  0  0  0
 37107  1  0  0  0
 38 43  2  0  0  0
 38 46  1  0  0  0
 38 47  1  0  0  0
 39 64  1  0  0  0
 39 67  2  0  0  0
 40 52  1  0  0  0
 40 53  2  0  0  0
 40 58  1  0  0  0
 41108  1  0  0  0
 41109  1  0  0  0
 41110  1  0  0  0
 41 48  1  0  0  0
 42 43  1  0  0  0
 42 66  1  0  0  0
 42111  1  0  0  0
 42112  1  0  0  0
 43 44  1  0  0  0
 44113  1  0  0  0
 45 46  2  0  0  0
 45114  1  0  0  0
 46115  1  0  0  0
 47116  1  0  0  0
 47117  1  0  0  0
 48 56  1  0  0  0
 48 65  1  0  0  0
 48118  1  0  0  0
 49 50  1  0  0  0
 49 53  1  0  0  0
 49 64  1  0  0  0
 49119  1  0  0  0
 50 51  1  0  0  0
 50120  1  0  0  0
 50121  1  0  0  0
 51 52  1  0  0  0
 51122  1  0  0  0
 51123  1  0  0  0
 52124  1  0  0  0
 52125  1  0  0  0
 53 54  1  0  0  0
 54 55  2  0  0  0
 54126  1  0  0  0
 55 57  1  0  0  0
 55127  1  0  0  0
 56 69  2  0  0  0
 57 58  2  0  0  0
 57128  1  0  0  0
 58129  1  0  0  0
 59 60  1  0  0  0
 59 61  1  0  0  0
 59 62  1  0  0  0
 60130  1  0  0  0
 60131  1  0  0  0
 60132  1  0  0  0
 61133  1  0  0  0
 61134  1  0  0  0
 61135  1  0  0  0
 62136  1  0  0  0
 62137  1  0  0  0
 62138  1  0  0  0
 63 65  1  0  0  0
 63139  1  0  0  0
 63140  1  0  0  0
 63141  1  0  0  0
 64142  1  0  0  0
 65143  1  0  0  0
 68 81  1  0  0  0
 71 73  2  0  0  0
 71 75  1  0  0  0
 71144  1  0  0  0
 72 74  1  0  0  0
 72 75  2  0  0  0
 72145  1  0  0  0
 73 76  1  0  0  0
 73146  1  0  0  0
 74 76  2  0  0  0
 74147  1  0  0  0
 75 79  1  0  0  0
 76 81  1  0  0  0
 77 79  1  0  0  0
 77 80  1  0  0  0
 77148  1  0  0  0
 77149  1  0  0  0
 78 79  1  0  0  0
 78 84  1  0  0  0
 78150  1  0  0  0
 78151  1  0  0  0
 79152  1  0  0  0
 80 82  1  0  0  0
 80 84  1  0  0  0
 80153  1  0  0  0
 81154  1  0  0  0
 81155  1  0  0  0
 82 83  1  0  0  0
 82156  1  0  0  0
 82157  1  0  0  0
 83158  1  0  0  0
 84159  1  0  0  0
 84160  1  0  0  0
M  CHG  1  84   1
M  ISO  4   1 100  68 101  81 101  83 100
M  END
> <chiral flag>
0

> <version>
0

> <s_m_source_file>
/data/baiqing/PycharmProjects/Reinvent-master-3.2/result/LINK_invent/BTK/process_docking_weight1_custom_sum_contain_oxygen_bond_distance_aromatic_linkinvent_7_9_3/rearranged_h_0132.sdf

> <i_m_source_file_index>
18

> <r_mmod_Potential_Energy-OPLS-2005>
-114.221733093262

> <r_mmod_Stretch_Energy-OPLS-2005>
43.6404113769531

> <r_mmod_Bend_Energy-OPLS-2005>
145.202697753906

> <r_mmod_Torsional_Energy-OPLS-2005>
350.687225341797

> <r_mmod_Improper_Torsional_Energy-OPLS-2005>
9.99857997894287

> <r_mmod_Van_der_Waal_Energy-OPLS-2005>
138.107879638672

> <r_mmod_Electrostatic_Energy-OPLS-2005>
-333.167327880859

> <r_mmod_Solvation_Energy-OPLS-2005>
-485.169952392578

> <b_mmod_Minimization_Converged-OPLS-2005>
0

> <r_mmod_RMS_Derivative-OPLS-2005>
3.75123763084412

$$$$
18
                    3D
 Structure written by MMmdl.
161169  0  0  1  0            999 V2000
  -30.7467  -14.4133   20.6182 C   0  0  0  0  0  0
  -30.4181  -12.2967   19.4027 C   0  0  0  0  0  0
  -29.4875  -12.5096   18.1929 C   0  0  0  0  0  0
  -28.0130  -12.3483   18.6129 C   0  0  0  0  0  0
  -27.6568  -13.1836   19.8701 C   0  0  2  0  0  0
  -28.7014  -12.9672   20.9888 C   0  0  0  0  0  0
  -25.2596  -13.8070   20.5692 C   0  0  0  0  0  0
  -24.1823  -13.0372   20.9196 C   0  0  0  0  0  0
  -24.6347  -11.6840   20.8743 C   0  0  0  0  0  0
  -23.8998  -10.4241   21.0416 C   0  0  0  0  0  0
  -24.3559   -9.4164   21.9198 C   0  0  0  0  0  0
  -23.6254   -8.2194   22.0756 C   0  0  0  0  0  0
  -22.4238   -8.0232   21.3543 C   0  0  0  0  0  0
  -21.9859   -9.0200   20.4648 C   0  0  0  0  0  0
  -22.7173  -10.2087   20.3067 C   0  0  0  0  0  0
  -21.6847   -6.0688   22.5270 C   0  0  0  0  0  0
  -21.4006   -6.5616   23.8192 C   0  0  0  0  0  0
  -21.3671   -5.6791   24.9173 C   0  0  0  0  0  0
  -21.6054   -4.3051   24.7232 C   0  0  0  0  0  0
  -21.8827   -3.8119   23.4358 C   0  0  0  0  0  0
  -21.9189   -4.6917   22.3404 C   0  0  0  0  0  0
  -22.7869  -13.5212   21.1872 C   0  0  0  0  0  0
  -22.1664   -4.2099   21.0983 F   0  0  0  0  0  0
  -21.5641   -3.4537   25.7745 F   0  0  0  0  0  0
  -30.0353  -13.2680   20.4366 N   0  0  0  0  0  0
  -26.2988  -12.9185   20.3352 N   0  0  0  0  0  0
  -25.9257  -11.6372   20.5761 N   0  0  0  0  0  0
  -22.0496  -12.8209   22.0429 N   0  0  0  0  0  0
  -25.4355  -15.1778   20.4062 N   0  0  0  0  0  0
  -31.8511  -14.6188   20.1141 O   0  0  0  0  0  0
  -21.6631   -6.8808   21.4219 O   0  0  0  0  0  0
  -22.3573  -14.5537   20.6731 O   0  0  0  0  0  0
  -24.6131  -31.8698   23.2133 C   0  0  0  0  0  0
  -25.9037  -32.4828   23.8413 C   0  0  1  0  0  0
  -27.2250  -27.4501   20.0820 C   0  0  0  0  0  0
  -25.5894  -33.8628   24.2348 N   0  0  0  0  0  0
  -23.3979  -30.4989   21.5535 C   0  0  2  0  0  0
  -24.8400  -28.9666   20.1149 C   0  0  0  0  0  0
  -22.7371  -29.4710   22.5002 C   0  0  0  0  0  0
  -18.0268  -28.1393   22.8484 C   0  0  0  0  0  0
  -24.1487  -36.7324   23.2639 C   0  0  0  0  0  0
  -25.9264  -30.8409   21.3622 C   0  0  0  0  0  0
  -26.0009  -29.4776   20.7059 C   0  0  0  0  0  0
  -27.1961  -28.7265   20.6867 C   0  0  0  0  0  0
  -26.0474  -26.9577   19.4723 C   0  0  0  0  0  0
  -24.8569  -27.7047   19.4985 C   0  0  0  0  0  0
  -23.6039  -29.8328   20.1677 C   0  0  0  0  0  0
  -25.4104  -36.3118   24.0346 C   0  0  1  0  0  0
  -20.5856  -28.3701   23.1319 C   0  0  2  0  0  0
  -20.6776  -26.9438   22.5425 C   0  0  0  0  0  0
  -19.5757  -26.6399   21.5222 C   0  0  0  0  0  0
  -18.1921  -26.7944   22.1612 C   0  0  0  0  0  0
  -19.1512  -28.8847   23.2909 C   0  0  0  0  0  0
  -18.9438  -30.1458   23.8922 C   0  0  0  0  0  0
  -17.6441  -30.6589   24.0581 C   0  0  0  0  0  0
  -25.9028  -34.9477   23.5145 C   0  0  0  0  0  0
  -16.5327  -29.9097   23.6319 C   0  0  0  0  0  0
  -16.7250  -28.6520   23.0335 C   0  0  0  0  0  0
  -26.4463  -31.6600   25.0735 C   0  0  0  0  0  0
  -25.3733  -31.3705   26.1487 C   0  0  0  0  0  0
  -27.0292  -30.3048   24.6104 C   0  0  0  0  0  0
  -27.6042  -32.4316   25.7482 C   0  0  0  0  0  0
  -27.5578  -37.1819   24.8465 C   0  0  0  0  0  0
  -21.4105  -29.3098   22.3751 N   0  0  0  0  0  0
  -26.4291  -37.3802   23.9404 N   0  0  0  0  0  0
  -24.6650  -31.0828   22.1012 N   0  0  0  0  0  0
  -23.4141  -28.8226   23.3016 O   0  0  0  0  0  0
  -28.3963  -26.7241   20.1291 O   0  0  0  0  0  0
  -26.5591  -34.8920   22.4707 O   0  0  0  0  0  0
  -23.5331  -32.1445   23.7539 O   0  0  0  0  0  0
  -29.2197  -21.9607   21.0000 C   0  0  0  0  0  0
  -29.3294  -20.6188   20.6079 C   0  0  0  0  0  0
  -28.0359  -22.4142   21.6192 C   0  0  0  0  0  0
  -26.9647  -21.4755   21.7841 C   0  0  0  0  0  0
  -28.2372  -19.7729   20.8259 C   0  0  0  0  0  0
  -25.6452  -21.8089   22.4331 C   0  0  0  0  0  0
  -24.5772  -20.7151   22.4244 C   0  0  0  0  0  0
  -29.3629  -17.6623   21.0609 C   0  0  0  0  0  0
  -29.0882  -16.1623   20.9092 C   0  0  0  0  0  0
  -27.3787  -24.6932   21.1586 C   0  0  0  0  0  0
  -28.3136  -25.2933   20.0709 C   0  0  0  0  0  0
  -27.0905  -20.1902   21.3694 N   0  0  0  0  0  0
  -28.0133  -23.7456   22.0718 N   0  0  0  0  0  0
  -28.2584  -18.4239   20.5020 N   0  0  0  0  0  0
  -30.1972  -15.3492   21.3977 N   0  0  0  0  0  0
  -25.3721  -22.8829   22.9807 O   0  0  0  0  0  0
  -31.4631  -12.3943   19.1036 H   0  0  0  0  0  0
  -30.3138  -11.2821   19.7920 H   0  0  0  0  0  0
  -29.7348  -11.8011   17.4015 H   0  0  0  0  0  0
  -29.6455  -13.5056   17.7749 H   0  0  0  0  0  0
  -27.8448  -11.2895   18.8157 H   0  0  0  0  0  0
  -27.3531  -12.6128   17.7847 H   0  0  0  0  0  0
  -27.6841  -14.2208   19.5551 H   0  0  0  0  0  0
  -28.6774  -11.9330   21.3317 H   0  0  0  0  0  0
  -28.4586  -13.5634   21.8689 H   0  0  0  0  0  0
  -25.2688   -9.5658   22.4786 H   0  0  0  0  0  0
  -23.9967   -7.4589   22.7482 H   0  0  0  0  0  0
  -21.0782   -8.8721   19.8954 H   0  0  0  0  0  0
  -22.3626  -10.9638   19.6193 H   0  0  0  0  0  0
  -21.1999   -7.6123   23.9678 H   0  0  0  0  0  0
  -21.1507   -6.0529   25.9080 H   0  0  0  0  0  0
  -22.0594   -2.7571   23.2888 H   0  0  0  0  0  0
  -22.4064  -11.9851   22.4813 H   0  0  0  0  0  0
  -21.1125  -13.1275   22.2612 H   0  0  0  0  0  0
  -24.6699  -15.8353   20.5031 H   0  0  0  0  0  0
  -26.2742  -15.5972   20.0293 H   0  0  0  0  0  0
  -26.7103  -32.5542   23.1163 H   0  0  0  0  0  0
  -25.0028  -33.9796   25.0481 H   0  0  0  0  0  0
  -22.6879  -31.3175   21.4168 H   0  0  0  0  0  0
  -23.3739  -35.9669   23.3316 H   0  0  0  0  0  0
  -24.3581  -36.8923   22.2052 H   0  0  0  0  0  0
  -23.7250  -37.6543   23.6637 H   0  0  0  0  0  0
  -26.0403  -31.6113   20.5998 H   0  0  0  0  0  0
  -26.8139  -30.8903   21.9813 H   0  0  0  0  0  0
  -28.0914  -29.1179   21.1504 H   0  0  0  0  0  0
  -26.0274  -26.0017   18.9709 H   0  0  0  0  0  0
  -23.9610  -27.3095   19.0405 H   0  0  0  0  0  0
  -23.7117  -30.6091   19.4090 H   0  0  0  0  0  0
  -22.7258  -29.2556   19.8718 H   0  0  0  0  0  0
  -25.1278  -36.1993   25.0843 H   0  0  0  0  0  0
  -20.9931  -28.3284   24.1447 H   0  0  0  0  0  0
  -21.6649  -26.7502   22.1176 H   0  0  0  0  0  0
  -20.5691  -26.2317   23.3624 H   0  0  0  0  0  0
  -19.6926  -25.6301   21.1295 H   0  0  0  0  0  0
  -19.6711  -27.3192   20.6735 H   0  0  0  0  0  0
  -17.4208  -26.6691   21.4003 H   0  0  0  0  0  0
  -18.0300  -26.0083   22.9001 H   0  0  0  0  0  0
  -19.7922  -30.7258   24.2305 H   0  0  0  0  0  0
  -17.4990  -31.6263   24.5183 H   0  0  0  0  0  0
  -15.5329  -30.3000   23.7621 H   0  0  0  0  0  0
  -15.8659  -28.0837   22.7032 H   0  0  0  0  0  0
  -24.5894  -30.7065   25.7819 H   0  0  0  0  0  0
  -24.8930  -32.2864   26.4946 H   0  0  0  0  0  0
  -25.8085  -30.8858   27.0237 H   0  0  0  0  0  0
  -26.2846  -29.6813   24.1147 H   0  0  0  0  0  0
  -27.4057  -29.7271   25.4554 H   0  0  0  0  0  0
  -27.8674  -30.4366   23.9260 H   0  0  0  0  0  0
  -27.2672  -33.3599   26.2101 H   0  0  0  0  0  0
  -28.3823  -32.6913   25.0294 H   0  0  0  0  0  0
  -28.0748  -31.8424   26.5362 H   0  0  0  0  0  0
  -28.2615  -38.0099   24.7497 H   0  0  0  0  0  0
  -28.1060  -36.2634   24.6308 H   0  0  0  0  0  0
  -27.2296  -37.1490   25.8870 H   0  0  0  0  0  0
  -20.9246  -29.8886   21.7050 H   0  0  0  0  0  0
  -26.0188  -38.2888   24.1388 H   0  0  0  0  0  0
  -30.0545  -22.6297   20.8492 H   0  0  0  0  0  0
  -30.2396  -20.2639   20.1477 H   0  0  0  0  0  0
  -23.6684  -21.0601   22.9157 H   0  0  0  0  0  0
  -24.9482  -19.8368   22.9514 H   0  0  0  0  0  0
  -24.3382  -20.4261   21.4009 H   0  0  0  0  0  0
  -30.2841  -17.9320   20.5411 H   0  0  0  0  0  0
  -29.4910  -17.9226   22.1140 H   0  0  0  0  0  0
  -28.1842  -15.8890   21.4552 H   0  0  0  0  0  0
  -28.9073  -15.9643   19.8496 H   0  0  0  0  0  0
  -26.5065  -24.2396   20.6831 H   0  0  0  0  0  0
  -26.9730  -25.4876   21.7860 H   0  0  0  0  0  0
  -28.0058  -24.9735   19.0741 H   0  0  0  0  0  0
  -29.3281  -24.9127   20.1899 H   0  0  0  0  0  0
  -27.5476  -23.8202   22.9765 H   0  0  0  0  0  0
  -27.3545  -17.9936   20.6569 H   0  0  0  0  0  0
  -30.8990  -15.9168   21.8485 H   0  0  0  0  0  0
  1 25  1  0  0  0
  1 30  2  0  0  0
  1 85  1  0  0  0
  2  3  1  0  0  0
  2 25  1  0  0  0
  2 87  1  0  0  0
  2 88  1  0  0  0
  3  4  1  0  0  0
  3 89  1  0  0  0
  3 90  1  0  0  0
  4  5  1  0  0  0
  4 91  1  0  0  0
  4 92  1  0  0  0
  5  6  1  0  0  0
  5 26  1  0  0  0
  5 93  1  0  0  0
  6 25  1  0  0  0
  6 94  1  0  0  0
  6 95  1  0  0  0
  7  8  2  0  0  0
  7 26  1  0  0  0
  7 29  1  0  0  0
  8  9  1  0  0  0
  8 22  1  0  0  0
  9 10  1  0  0  0
  9 27  2  0  0  0
 10 11  2  0  0  0
 10 15  1  0  0  0
 11 12  1  0  0  0
 11 96  1  0  0  0
 12 13  2  0  0  0
 12 97  1  0  0  0
 13 14  1  0  0  0
 13 31  1  0  0  0
 14 15  2  0  0  0
 14 98  1  0  0  0
 15 99  1  0  0  0
 16 17  2  0  0  0
 16 21  1  0  0  0
 16 31  1  0  0  0
 17 18  1  0  0  0
 17100  1  0  0  0
 18 19  2  0  0  0
 18101  1  0  0  0
 19 20  1  0  0  0
 19 24  1  0  0  0
 20 21  2  0  0  0
 20102  1  0  0  0
 21 23  1  0  0  0
 22 28  1  0  0  0
 22 32  2  0  0  0
 26 27  1  0  0  0
 28103  1  0  0  0
 28104  1  0  0  0
 29105  1  0  0  0
 29106  1  0  0  0
 33 34  1  0  0  0
 33 66  1  0  0  0
 33 70  2  0  0  0
 34 36  1  0  0  0
 34 59  1  0  0  0
 34107  1  0  0  0
 35 44  2  0  0  0
 35 45  1  0  0  0
 35 68  1  0  0  0
 36 56  1  0  0  0
 36108  1  0  0  0
 37 39  1  0  0  0
 37 47  1  0  0  0
 37 66  1  0  0  0
 37109  1  0  0  0
 38 43  2  0  0  0
 38 46  1  0  0  0
 38 47  1  0  0  0
 39 64  1  0  0  0
 39 67  2  0  0  0
 40 52  1  0  0  0
 40 53  2  0  0  0
 40 58  1  0  0  0
 41110  1  0  0  0
 41111  1  0  0  0
 41112  1  0  0  0
 41 48  1  0  0  0
 42 43  1  0  0  0
 42 66  1  0  0  0
 42113  1  0  0  0
 42114  1  0  0  0
 43 44  1  0  0  0
 44115  1  0  0  0
 45 46  2  0  0  0
 45116  1  0  0  0
 46117  1  0  0  0
 47118  1  0  0  0
 47119  1  0  0  0
 48 56  1  0  0  0
 48 65  1  0  0  0
 48120  1  0  0  0
 49 50  1  0  0  0
 49 53  1  0  0  0
 49 64  1  0  0  0
 49121  1  0  0  0
 50 51  1  0  0  0
 50122  1  0  0  0
 50123  1  0  0  0
 51 52  1  0  0  0
 51124  1  0  0  0
 51125  1  0  0  0
 52126  1  0  0  0
 52127  1  0  0  0
 53 54  1  0  0  0
 54 55  2  0  0  0
 54128  1  0  0  0
 55 57  1  0  0  0
 55129  1  0  0  0
 56 69  2  0  0  0
 57 58  2  0  0  0
 57130  1  0  0  0
 58131  1  0  0  0
 59 60  1  0  0  0
 59 61  1  0  0  0
 59 62  1  0  0  0
 60132  1  0  0  0
 60133  1  0  0  0
 60134  1  0  0  0
 61135  1  0  0  0
 61136  1  0  0  0
 61137  1  0  0  0
 62138  1  0  0  0
 62139  1  0  0  0
 62140  1  0  0  0
 63 65  1  0  0  0
 63141  1  0  0  0
 63142  1  0  0  0
 63143  1  0  0  0
 64144  1  0  0  0
 65145  1  0  0  0
 68 81  1  0  0  0
 71 72  2  0  0  0
 71 73  1  0  0  0
 71146  1  0  0  0
 72 75  1  0  0  0
 72147  1  0  0  0
 73 74  2  0  0  0
 73 83  1  0  0  0
 74 76  1  0  0  0
 74 82  1  0  0  0
 75 82  2  0  0  0
 75 84  1  0  0  0
 76 77  1  0  0  0
 76 86  2  0  0  0
 77148  1  0  0  0
 77149  1  0  0  0
 77150  1  0  0  0
 78 79  1  0  0  0
 78 84  1  0  0  0
 78151  1  0  0  0
 78152  1  0  0  0
 79 85  1  0  0  0
 79153  1  0  0  0
 79154  1  0  0  0
 80 81  1  0  0  0
 80 83  1  0  0  0
 80155  1  0  0  0
 80156  1  0  0  0
 81157  1  0  0  0
 81158  1  0  0  0
 83159  1  0  0  0
 84160  1  0  0  0
 85161  1  0  0  0
M  ISO  4   1 100  68 101  81 101  85 100
M  END
> <chiral flag>
0

> <version>
0

> <s_m_source_file>
/data/baiqing/PycharmProjects/Reinvent-master-3.2/result/LINK_invent/BTK/process_docking_weight1_custom_sum_contain_oxygen_bond_distance_aromatic_linkinvent_7_9_3/rearranged_h_0132.sdf

> <i_m_source_file_index>
19

> <r_mmod_Potential_Energy-OPLS-2005>
-136.513885498047

> <r_mmod_Stretch_Energy-OPLS-2005>
36.5210266113281

> <r_mmod_Bend_Energy-OPLS-2005>
109.561492919922

> <r_mmod_Torsional_Energy-OPLS-2005>
282.280822753906

> <r_mmod_Improper_Torsional_Energy-OPLS-2005>
17.0061054229736

> <r_mmod_Van_der_Waal_Energy-OPLS-2005>
165.910369873047

> <r_mmod_Electrostatic_Energy-OPLS-2005>
-518.0869140625

> <r_mmod_Solvation_Energy-OPLS-2005>
-240.986679077148

> <b_mmod_Minimization_Converged-OPLS-2005>
0

> <r_mmod_RMS_Derivative-OPLS-2005>
2.53111219406128

$$$$
19
                    3D
 Structure written by MMmdl.
166175  0  0  1  0            999 V2000
  -30.6918  -14.5490   20.5065 C   0  0  0  0  0  0
  -30.4129  -12.3365   19.4476 C   0  0  0  0  0  0
  -29.4944  -12.4858   18.2180 C   0  0  0  0  0  0
  -28.0176  -12.3425   18.6330 C   0  0  0  0  0  0
  -27.6487  -13.2194   19.8610 C   0  0  2  0  0  0
  -28.6917  -13.0797   20.9911 C   0  0  0  0  0  0
  -25.2545  -13.8197   20.5703 C   0  0  0  0  0  0
  -24.1807  -13.0454   20.9196 C   0  0  0  0  0  0
  -24.6381  -11.6922   20.8749 C   0  0  0  0  0  0
  -23.9063  -10.4301   21.0414 C   0  0  0  0  0  0
  -24.3617   -9.4212   21.9190 C   0  0  0  0  0  0
  -23.6292   -8.2248   22.0755 C   0  0  0  0  0  0
  -22.4276   -8.0283   21.3541 C   0  0  0  0  0  0
  -21.9913   -9.0263   20.4648 C   0  0  0  0  0  0
  -22.7238  -10.2142   20.3064 C   0  0  0  0  0  0
  -21.6854   -6.0735   22.5282 C   0  0  0  0  0  0
  -21.4013   -6.5641   23.8214 C   0  0  0  0  0  0
  -21.3657   -5.6793   24.9177 C   0  0  0  0  0  0
  -21.6048   -4.3060   24.7227 C   0  0  0  0  0  0
  -21.8817   -3.8145   23.4350 C   0  0  0  0  0  0
  -21.9192   -4.6964   22.3405 C   0  0  0  0  0  0
  -22.7832  -13.5234   21.1858 C   0  0  0  0  0  0
  -22.1658   -4.2149   21.0982 F   0  0  0  0  0  0
  -21.5630   -3.4542   25.7739 F   0  0  0  0  0  0
  -30.0084  -13.3716   20.4145 N   0  0  0  0  0  0
  -26.2964  -12.9381   20.3337 N   0  0  0  0  0  0
  -25.9309  -11.6531   20.5776 N   0  0  0  0  0  0
  -22.0481  -12.8231   22.0423 N   0  0  0  0  0  0
  -25.4297  -15.1912   20.4121 N   0  0  0  0  0  0
  -31.8829  -14.6210   20.1834 O   0  0  0  0  0  0
  -21.6638   -6.8882   21.4242 O   0  0  0  0  0  0
  -22.3515  -14.5539   20.6704 O   0  0  0  0  0  0
  -24.6196  -31.8641   23.2070 C   0  0  0  0  0  0
  -25.9074  -32.4804   23.8378 C   0  0  1  0  0  0
  -27.2267  -27.3818   20.1238 C   0  0  0  0  0  0
  -25.5922  -33.8605   24.2316 N   0  0  0  0  0  0
  -23.4104  -30.4850   21.5477 C   0  0  2  0  0  0
  -24.8598  -28.9406   20.1172 C   0  0  0  0  0  0
  -22.7446  -29.4627   22.4980 C   0  0  0  0  0  0
  -18.0279  -28.1355   22.8482 C   0  0  0  0  0  0
  -24.1491  -36.7307   23.2638 C   0  0  0  0  0  0
  -25.9435  -30.8137   21.3683 C   0  0  0  0  0  0
  -26.0214  -29.4421   20.7203 C   0  0  0  0  0  0
  -27.2120  -28.6708   20.7197 C   0  0  0  0  0  0
  -26.0532  -26.9068   19.5081 C   0  0  0  0  0  0
  -24.8725  -27.6747   19.5057 C   0  0  0  0  0  0
  -23.6239  -29.8136   20.1630 C   0  0  0  0  0  0
  -25.4111  -36.3101   24.0327 C   0  0  1  0  0  0
  -20.5871  -28.3660   23.1297 C   0  0  2  0  0  0
  -20.6775  -26.9393   22.5406 C   0  0  0  0  0  0
  -19.5758  -26.6365   21.5198 C   0  0  0  0  0  0
  -18.1931  -26.7903   22.1604 C   0  0  0  0  0  0
  -19.1529  -28.8827   23.2886 C   0  0  0  0  0  0
  -18.9452  -30.1428   23.8902 C   0  0  0  0  0  0
  -17.6456  -30.6576   24.0542 C   0  0  0  0  0  0
  -25.9038  -34.9468   23.5119 C   0  0  0  0  0  0
  -16.5347  -29.9068   23.6316 C   0  0  0  0  0  0
  -16.7264  -28.6474   23.0351 C   0  0  0  0  0  0
  -26.4484  -31.6597   25.0720 C   0  0  0  0  0  0
  -25.3739  -31.3707   26.1461 C   0  0  0  0  0  0
  -27.0322  -30.3037   24.6118 C   0  0  0  0  0  0
  -27.6052  -32.4324   25.7487 C   0  0  0  0  0  0
  -27.5587  -37.1812   24.8463 C   0  0  0  0  0  0
  -21.4172  -29.3019   22.3715 N   0  0  0  0  0  0
  -26.4303  -37.3782   23.9397 N   0  0  0  0  0  0
  -24.6756  -31.0707   22.0989 N   0  0  0  0  0  0
  -23.4196  -28.8168   23.3038 O   0  0  0  0  0  0
  -28.3513  -26.5776   20.1033 O   0  0  0  0  0  0
  -26.5597  -34.8926   22.4682 O   0  0  0  0  0  0
  -23.5378  -32.1405   23.7440 O   0  0  0  0  0  0
  -28.7112  -22.0257   19.6543 C   0  0  0  0  0  0
  -27.8318  -23.2956   21.9713 C   0  0  0  0  0  0
  -28.8230  -23.4421   19.7716 C   0  0  0  0  0  0
  -27.7298  -21.8846   21.8617 C   0  0  0  0  0  0
  -28.1543  -21.2215   20.6808 C   0  0  0  0  0  0
  -28.3501  -24.1095   20.9344 C   0  0  0  0  0  0
  -29.1841  -17.8020   19.3192 C   0  0  0  0  0  0
  -28.7305  -17.5955   21.7335 C   0  0  0  0  0  0
  -30.2346  -16.6749   19.4570 C   0  0  0  0  0  0
  -29.7642  -16.4250   21.8079 C   0  0  0  0  0  0
  -29.0059  -18.6344   20.6089 C   0  0  0  0  0  0
  -29.4535  -24.2230   18.6334 C   0  0  0  0  0  0
  -27.1198  -21.1113   23.0191 C   0  0  0  0  0  0
  -27.8682  -19.7124   20.4326 C   0  0  0  0  0  0
  -28.4771  -25.6402   21.2036 C   0  0  0  0  0  0
  -29.9441  -15.6989   20.5331 N   0  0  0  0  0  0
  -31.4587  -12.4222   19.1491 H   0  0  0  0  0  0
  -30.3103  -11.3447   19.8911 H   0  0  0  0  0  0
  -29.7449  -11.7366   17.4660 H   0  0  0  0  0  0
  -29.6546  -13.4583   17.7491 H   0  0  0  0  0  0
  -27.8461  -11.2905   18.8671 H   0  0  0  0  0  0
  -27.3631  -12.5755   17.7921 H   0  0  0  0  0  0
  -27.6700  -14.2545   19.5188 H   0  0  0  0  0  0
  -28.6797  -12.0718   21.4080 H   0  0  0  0  0  0
  -28.4567  -13.7547   21.8146 H   0  0  0  0  0  0
  -25.2763   -9.5688   22.4764 H   0  0  0  0  0  0
  -24.0005   -7.4638   22.7471 H   0  0  0  0  0  0
  -21.0849   -8.8781   19.8953 H   0  0  0  0  0  0
  -22.3698  -10.9683   19.6174 H   0  0  0  0  0  0
  -21.2005   -7.6146   23.9719 H   0  0  0  0  0  0
  -21.1481   -6.0521   25.9080 H   0  0  0  0  0  0
  -22.0597   -2.7610   23.2849 H   0  0  0  0  0  0
  -22.4095  -11.9888   22.4809 H   0  0  0  0  0  0
  -21.1101  -13.1255   22.2634 H   0  0  0  0  0  0
  -24.6726  -15.8550   20.5298 H   0  0  0  0  0  0
  -26.2989  -15.6241   20.1274 H   0  0  0  0  0  0
  -26.7151  -32.5493   23.1138 H   0  0  0  0  0  0
  -25.0120  -33.9752   25.0496 H   0  0  0  0  0  0
  -22.7004  -31.3026   21.4053 H   0  0  0  0  0  0
  -23.3754  -35.9646   23.3299 H   0  0  0  0  0  0
  -24.3599  -36.8922   22.2057 H   0  0  0  0  0  0
  -23.7246  -37.6508   23.6657 H   0  0  0  0  0  0
  -26.0635  -31.5764   20.5976 H   0  0  0  0  0  0
  -26.8280  -30.8688   21.9911 H   0  0  0  0  0  0
  -28.1114  -29.0507   21.1856 H   0  0  0  0  0  0
  -26.0508  -25.9309   19.0430 H   0  0  0  0  0  0
  -23.9800  -27.2837   19.0377 H   0  0  0  0  0  0
  -23.7393  -30.5866   19.4030 H   0  0  0  0  0  0
  -22.7459  -29.2379   19.8655 H   0  0  0  0  0  0
  -25.1292  -36.1966   25.0819 H   0  0  0  0  0  0
  -20.9951  -28.3228   24.1421 H   0  0  0  0  0  0
  -20.5679  -26.2269   23.3598 H   0  0  0  0  0  0
  -21.6646  -26.7439   22.1198 H   0  0  0  0  0  0
  -19.6926  -25.6273   21.1236 H   0  0  0  0  0  0
  -19.6694  -27.3173   20.6726 H   0  0  0  0  0  0
  -17.4202  -26.6645   21.4001 H   0  0  0  0  0  0
  -18.0329  -26.0034   22.8991 H   0  0  0  0  0  0
  -19.7931  -30.7227   24.2286 H   0  0  0  0  0  0
  -17.5013  -31.6252   24.5148 H   0  0  0  0  0  0
  -15.5353  -30.2969   23.7633 H   0  0  0  0  0  0
  -15.8655  -28.0788   22.7074 H   0  0  0  0  0  0
  -24.5920  -30.7043   25.7800 H   0  0  0  0  0  0
  -24.8920  -32.2866   26.4904 H   0  0  0  0  0  0
  -25.8084  -30.8888   27.0231 H   0  0  0  0  0  0
  -26.2877  -29.6800   24.1160 H   0  0  0  0  0  0
  -27.4073  -29.7271   25.4586 H   0  0  0  0  0  0
  -27.8725  -30.4343   23.9288 H   0  0  0  0  0  0
  -27.2667  -33.3624   26.2071 H   0  0  0  0  0  0
  -28.3865  -32.6891   25.0316 H   0  0  0  0  0  0
  -28.0726  -31.8447   26.5400 H   0  0  0  0  0  0
  -28.2596  -38.0116   24.7526 H   0  0  0  0  0  0
  -28.1087  -36.2652   24.6271 H   0  0  0  0  0  0
  -27.2309  -37.1441   25.8865 H   0  0  0  0  0  0
  -20.9355  -29.8761   21.6937 H   0  0  0  0  0  0
  -26.0188  -38.2858   24.1397 H   0  0  0  0  0  0
  -29.0336  -21.5441   18.7413 H   0  0  0  0  0  0
  -27.5009  -23.7706   22.8840 H   0  0  0  0  0  0
  -28.2301  -17.3604   19.0277 H   0  0  0  0  0  0
  -29.4762  -18.4603   18.4993 H   0  0  0  0  0  0
  -28.7011  -18.1042   22.6973 H   0  0  0  0  0  0
  -27.7370  -17.1676   21.5930 H   0  0  0  0  0  0
  -31.2182  -17.1190   19.6244 H   0  0  0  0  0  0
  -30.3008  -16.1502   18.5011 H   0  0  0  0  0  0
  -29.4607  -15.7275   22.5895 H   0  0  0  0  0  0
  -30.7326  -16.8200   22.1217 H   0  0  0  0  0  0
  -29.9460  -19.1457   20.8213 H   0  0  0  0  0  0
  -29.9122  -23.5590   17.8995 H   0  0  0  0  0  0
  -30.2307  -24.8904   19.0086 H   0  0  0  0  0  0
  -28.6990  -24.8231   18.1239 H   0  0  0  0  0  0
  -27.0980  -21.7094   23.9303 H   0  0  0  0  0  0
  -27.6929  -20.2112   23.2374 H   0  0  0  0  0  0
  -26.0955  -20.8184   22.7848 H   0  0  0  0  0  0
  -27.5027  -19.6616   19.4059 H   0  0  0  0  0  0
  -26.9971  -19.4100   21.0126 H   0  0  0  0  0  0
  -29.4638  -25.7942   21.6404 H   0  0  0  0  0  0
  -27.7734  -25.9078   21.9948 H   0  0  0  0  0  0
  1 25  1  0  0  0
  1 30  2  0  0  0
  1 86  1  0  0  0
  2  3  1  0  0  0
  2 25  1  0  0  0
  2 87  1  0  0  0
  2 88  1  0  0  0
  3  4  1  0  0  0
  3 89  1  0  0  0
  3 90  1  0  0  0
  4  5  1  0  0  0
  4 91  1  0  0  0
  4 92  1  0  0  0
  5  6  1  0  0  0
  5 26  1  0  0  0
  5 93  1  0  0  0
  6 25  1  0  0  0
  6 94  1  0  0  0
  6 95  1  0  0  0
  7  8  2  0  0  0
  7 26  1  0  0  0
  7 29  1  0  0  0
  8  9  1  0  0  0
  8 22  1  0  0  0
  9 10  1  0  0  0
  9 27  2  0  0  0
 10 11  2  0  0  0
 10 15  1  0  0  0
 11 12  1  0  0  0
 11 96  1  0  0  0
 12 13  2  0  0  0
 12 97  1  0  0  0
 13 14  1  0  0  0
 13 31  1  0  0  0
 14 15  2  0  0  0
 14 98  1  0  0  0
 15 99  1  0  0  0
 16 17  2  0  0  0
 16 21  1  0  0  0
 16 31  1  0  0  0
 17 18  1  0  0  0
 17100  1  0  0  0
 18 19  2  0  0  0
 18101  1  0  0  0
 19 20  1  0  0  0
 19 24  1  0  0  0
 20 21  2  0  0  0
 20102  1  0  0  0
 21 23  1  0  0  0
 22 28  1  0  0  0
 22 32  2  0  0  0
 26 27  1  0  0  0
 28103  1  0  0  0
 28104  1  0  0  0
 29105  1  0  0  0
 29106  1  0  0  0
 33 34  1  0  0  0
 33 66  1  0  0  0
 33 70  2  0  0  0
 34 36  1  0  0  0
 34 59  1  0  0  0
 34107  1  0  0  0
 35 44  2  0  0  0
 35 45  1  0  0  0
 35 68  1  0  0  0
 36 56  1  0  0  0
 36108  1  0  0  0
 37 39  1  0  0  0
 37 47  1  0  0  0
 37 66  1  0  0  0
 37109  1  0  0  0
 38 43  2  0  0  0
 38 46  1  0  0  0
 38 47  1  0  0  0
 39 64  1  0  0  0
 39 67  2  0  0  0
 40 52  1  0  0  0
 40 53  2  0  0  0
 40 58  1  0  0  0
 41110  1  0  0  0
 41111  1  0  0  0
 41112  1  0  0  0
 41 48  1  0  0  0
 42 43  1  0  0  0
 42 66  1  0  0  0
 42113  1  0  0  0
 42114  1  0  0  0
 43 44  1  0  0  0
 44115  1  0  0  0
 45 46  2  0  0  0
 45116  1  0  0  0
 46117  1  0  0  0
 47118  1  0  0  0
 47119  1  0  0  0
 48 56  1  0  0  0
 48 65  1  0  0  0
 48120  1  0  0  0
 49 50  1  0  0  0
 49 53  1  0  0  0
 49 64  1  0  0  0
 49121  1  0  0  0
 50 51  1  0  0  0
 50122  1  0  0  0
 50123  1  0  0  0
 51 52  1  0  0  0
 51124  1  0  0  0
 51125  1  0  0  0
 52126  1  0  0  0
 52127  1  0  0  0
 53 54  1  0  0  0
 54 55  2  0  0  0
 54128  1  0  0  0
 55 57  1  0  0  0
 55129  1  0  0  0
 56 69  2  0  0  0
 57 58  2  0  0  0
 57130  1  0  0  0
 58131  1  0  0  0
 59 60  1  0  0  0
 59 61  1  0  0  0
 59 62  1  0  0  0
 60132  1  0  0  0
 60133  1  0  0  0
 60134  1  0  0  0
 61135  1  0  0  0
 61136  1  0  0  0
 61137  1  0  0  0
 62138  1  0  0  0
 62139  1  0  0  0
 62140  1  0  0  0
 63 65  1  0  0  0
 63141  1  0  0  0
 63142  1  0  0  0
 63143  1  0  0  0
 64144  1  0  0  0
 65145  1  0  0  0
 68 85  1  0  0  0
 71 73  2  0  0  0
 71 75  1  0  0  0
 71146  1  0  0  0
 72 74  1  0  0  0
 72 76  2  0  0  0
 72147  1  0  0  0
 73 76  1  0  0  0
 73 82  1  0  0  0
 74 75  2  0  0  0
 74 83  1  0  0  0
 75 84  1  0  0  0
 76 85  1  0  0  0
 77 79  1  0  0  0
 77 81  1  0  0  0
 77148  1  0  0  0
 77149  1  0  0  0
 78 80  1  0  0  0
 78 81  1  0  0  0
 78150  1  0  0  0
 78151  1  0  0  0
 79 86  1  0  0  0
 79152  1  0  0  0
 79153  1  0  0  0
 80 86  1  0  0  0
 80154  1  0  0  0
 80155  1  0  0  0
 81 84  1  0  0  0
 81156  1  0  0  0
 82157  1  0  0  0
 82158  1  0  0  0
 82159  1  0  0  0
 83160  1  0  0  0
 83161  1  0  0  0
 83162  1  0  0  0
 84163  1  0  0  0
 84164  1  0  0  0
 85165  1  0  0  0
 85166  1  0  0  0
M  ISO  4   1 100  68 101  85 101  86 100
M  END
> <chiral flag>
0

> <version>
0

> <s_m_source_file>
/data/baiqing/PycharmProjects/Reinvent-master-3.2/result/LINK_invent/BTK/process_docking_weight1_custom_sum_contain_oxygen_bond_distance_aromatic_linkinvent_7_9_3/rearranged_h_0132.sdf

> <i_m_source_file_index>
20

> <r_mmod_Potential_Energy-OPLS-2005>
268.549102783203

> <r_mmod_Stretch_Energy-OPLS-2005>
55.3015975952148

> <r_mmod_Bend_Energy-OPLS-2005>
124.896705627441

> <r_mmod_Torsional_Energy-OPLS-2005>
360.936462402344

> <r_mmod_Improper_Torsional_Energy-OPLS-2005>
17.7440872192383

> <r_mmod_Van_der_Waal_Energy-OPLS-2005>
141.967956542969

> <r_mmod_Electrostatic_Energy-OPLS-2005>
-278.665191650391

> <r_mmod_Solvation_Energy-OPLS-2005>
-182.860961914062

> <b_mmod_Minimization_Converged-OPLS-2005>
0

> <r_mmod_RMS_Derivative-OPLS-2005>
1.65415596961975

$$$$
20
                    3D
 Structure written by MMmdl.
164172  0  0  1  0            999 V2000
  -30.7252  -14.3936   20.6349 C   0  0  0  0  0  0
  -30.4197  -12.2856   19.3972 C   0  0  0  0  0  0
  -29.4858  -12.5138   18.1923 C   0  0  0  0  0  0
  -28.0068  -12.3808   18.6062 C   0  0  0  0  0  0
  -27.6642  -13.2009   19.8793 C   0  0  2  0  0  0
  -28.7024  -12.9323   20.9918 C   0  0  0  0  0  0
  -25.2576  -13.8153   20.5649 C   0  0  0  0  0  0
  -24.1829  -13.0433   20.9183 C   0  0  0  0  0  0
  -24.6382  -11.6906   20.8744 C   0  0  0  0  0  0
  -23.9050  -10.4296   21.0409 C   0  0  0  0  0  0
  -24.3609   -9.4214   21.9175 C   0  0  0  0  0  0
  -23.6290   -8.2242   22.0736 C   0  0  0  0  0  0
  -22.4270   -8.0281   21.3530 C   0  0  0  0  0  0
  -21.9908   -9.0257   20.4627 C   0  0  0  0  0  0
  -22.7224  -10.2140   20.3040 C   0  0  0  0  0  0
  -21.6854   -6.0736   22.5277 C   0  0  0  0  0  0
  -21.4011   -6.5635   23.8210 C   0  0  0  0  0  0
  -21.3659   -5.6779   24.9174 C   0  0  0  0  0  0
  -21.6046   -4.3047   24.7219 C   0  0  0  0  0  0
  -21.8822   -3.8139   23.4340 C   0  0  0  0  0  0
  -21.9191   -4.6962   22.3399 C   0  0  0  0  0  0
  -22.7856  -13.5241   21.1861 C   0  0  0  0  0  0
  -22.1657   -4.2153   21.0979 F   0  0  0  0  0  0
  -21.5634   -3.4523   25.7732 F   0  0  0  0  0  0
  -30.0410  -13.2354   20.4538 N   0  0  0  0  0  0
  -26.3019  -12.9316   20.3360 N   0  0  0  0  0  0
  -25.9307  -11.6485   20.5767 N   0  0  0  0  0  0
  -22.0498  -12.8223   22.0428 N   0  0  0  0  0  0
  -25.4300  -15.1857   20.3980 N   0  0  0  0  0  0
  -31.7885  -14.6512   20.0631 O   0  0  0  0  0  0
  -21.6632   -6.8879   21.4234 O   0  0  0  0  0  0
  -22.3549  -14.5545   20.6723 O   0  0  0  0  0  0
  -24.6127  -31.8695   23.2132 C   0  0  0  0  0  0
  -25.9039  -32.4831   23.8398 C   0  0  1  0  0  0
  -27.2248  -27.4455   20.0994 C   0  0  0  0  0  0
  -25.5895  -33.8618   24.2339 N   0  0  0  0  0  0
  -23.3996  -30.4944   21.5535 C   0  0  2  0  0  0
  -24.8444  -28.9590   20.1205 C   0  0  0  0  0  0
  -22.7394  -29.4682   22.5019 C   0  0  0  0  0  0
  -18.0289  -28.1379   22.8515 C   0  0  0  0  0  0
  -24.1483  -36.7324   23.2640 C   0  0  0  0  0  0
  -25.9262  -30.8376   21.3646 C   0  0  0  0  0  0
  -26.0035  -29.4710   20.7171 C   0  0  0  0  0  0
  -27.1990  -28.7207   20.7058 C   0  0  0  0  0  0
  -26.0567  -26.9505   19.4854 C   0  0  0  0  0  0
  -24.8639  -27.6965   19.5032 C   0  0  0  0  0  0
  -23.6080  -29.8268   20.1685 C   0  0  0  0  0  0
  -25.4109  -36.3119   24.0338 C   0  0  1  0  0  0
  -20.5869  -28.3664   23.1362 C   0  0  2  0  0  0
  -20.6789  -26.9406   22.5437 C   0  0  0  0  0  0
  -19.5766  -26.6378   21.5233 C   0  0  0  0  0  0
  -18.1937  -26.7933   22.1638 C   0  0  0  0  0  0
  -19.1533  -28.8837   23.2931 C   0  0  0  0  0  0
  -18.9465  -30.1452   23.8919 C   0  0  0  0  0  0
  -17.6474  -30.6595   24.0574 C   0  0  0  0  0  0
  -25.9033  -34.9481   23.5141 C   0  0  0  0  0  0
  -16.5369  -29.9090   23.6342 C   0  0  0  0  0  0
  -16.7278  -28.6510   23.0357 C   0  0  0  0  0  0
  -26.4485  -31.6599   25.0711 C   0  0  0  0  0  0
  -25.3778  -31.3693   26.1477 C   0  0  0  0  0  0
  -27.0302  -30.3038   24.6074 C   0  0  0  0  0  0
  -27.6050  -32.4320   25.7483 C   0  0  0  0  0  0
  -27.5587  -37.1804   24.8473 C   0  0  0  0  0  0
  -21.4123  -29.3058   22.3772 N   0  0  0  0  0  0
  -26.4307  -37.3791   23.9413 N   0  0  0  0  0  0
  -24.6648  -31.0798   22.1035 N   0  0  0  0  0  0
  -23.4187  -28.8215   23.3033 O   0  0  0  0  0  0
  -28.3918  -26.7225   20.0479 O   0  0  0  0  0  0
  -26.5596  -34.8933   22.4700 O   0  0  0  0  0  0
  -23.5317  -32.1425   23.7536 O   0  0  0  0  0  0
  -25.4901  -20.5249   21.0486 C   0  0  0  0  0  0
  -26.6969  -19.6699   21.3972 C   0  0  0  0  0  0
  -26.0023  -21.9442   21.2201 C   0  0  0  0  0  0
  -27.9198  -20.5970   21.2580 C   0  0  1  0  0  0
  -29.0242  -20.0245   20.3288 C   0  0  0  0  0  0
  -27.7460  -24.3278   20.4161 C   0  0  0  0  0  0
  -28.1596  -23.0386   21.1654 C   0  0  0  0  0  0
  -30.5185  -16.6888   21.5991 C   0  0  0  0  0  0
  -29.4916  -17.6406   20.9496 C   0  0  0  0  0  0
  -28.4741  -25.5928   20.9259 C   0  0  0  0  0  0
  -27.3816  -21.8661   20.7372 N   0  0  0  0  0  0
  -30.1224  -15.2893   21.4282 N   0  0  0  0  0  0
  -29.9205  -19.0567   21.0044 N   0  3  0  0  0  0
  -31.4621  -12.3946   19.0920 H   0  0  0  0  0  0
  -30.3232  -11.2631   19.7653 H   0  0  0  0  0  0
  -29.7165  -11.7997   17.4002 H   0  0  0  0  0  0
  -29.6626  -13.5046   17.7700 H   0  0  0  0  0  0
  -27.8063  -11.3232   18.7835 H   0  0  0  0  0  0
  -27.3566  -12.6776   17.7827 H   0  0  0  0  0  0
  -27.7223  -14.2567   19.6126 H   0  0  0  0  0  0
  -28.6684  -11.8826   21.2854 H   0  0  0  0  0  0
  -28.4575  -13.4871   21.8989 H   0  0  0  0  0  0
  -25.2766   -9.5688   22.4729 H   0  0  0  0  0  0
  -24.0011   -7.4628   22.7440 H   0  0  0  0  0  0
  -21.0841   -8.8764   19.8931 H   0  0  0  0  0  0
  -22.3685  -10.9673   19.6134 H   0  0  0  0  0  0
  -21.1989   -7.6140   23.9720 H   0  0  0  0  0  0
  -21.1489   -6.0510   25.9083 H   0  0  0  0  0  0
  -22.0610   -2.7604   23.2835 H   0  0  0  0  0  0
  -22.4127  -11.9900   22.4831 H   0  0  0  0  0  0
  -21.1095  -13.1209   22.2599 H   0  0  0  0  0  0
  -24.6586  -15.8374   20.4832 H   0  0  0  0  0  0
  -26.2673  -15.6098   20.0204 H   0  0  0  0  0  0
  -26.7114  -32.5561   23.1155 H   0  0  0  0  0  0
  -25.0051  -33.9778   25.0494 H   0  0  0  0  0  0
  -22.6867  -31.3093   21.4138 H   0  0  0  0  0  0
  -23.3740  -35.9665   23.3330 H   0  0  0  0  0  0
  -24.3571  -36.8910   22.2051 H   0  0  0  0  0  0
  -23.7236  -37.6539   23.6632 H   0  0  0  0  0  0
  -26.0335  -31.6022   20.5930 H   0  0  0  0  0  0
  -26.8163  -30.8955   21.9791 H   0  0  0  0  0  0
  -28.0994  -29.1148   21.1561 H   0  0  0  0  0  0
  -26.0653  -25.9966   18.9778 H   0  0  0  0  0  0
  -23.9730  -27.3049   19.0308 H   0  0  0  0  0  0
  -23.7150  -30.6002   19.4059 H   0  0  0  0  0  0
  -22.7306  -29.2498   19.8735 H   0  0  0  0  0  0
  -25.1268  -36.1992   25.0824 H   0  0  0  0  0  0
  -20.9955  -28.3233   24.1491 H   0  0  0  0  0  0
  -20.5721  -26.2242   23.3606 H   0  0  0  0  0  0
  -21.6649  -26.7481   22.1214 H   0  0  0  0  0  0
  -19.6737  -27.3191   20.6776 H   0  0  0  0  0  0
  -19.6916  -25.6288   21.1256 H   0  0  0  0  0  0
  -17.4217  -26.6694   21.4027 H   0  0  0  0  0  0
  -18.0341  -26.0071   22.9027 H   0  0  0  0  0  0
  -19.7950  -30.7265   24.2274 H   0  0  0  0  0  0
  -17.5033  -31.6291   24.5146 H   0  0  0  0  0  0
  -15.5373  -30.3005   23.7650 H   0  0  0  0  0  0
  -15.8668  -28.0854   22.7057 H   0  0  0  0  0  0
  -24.5940  -30.7037   25.7848 H   0  0  0  0  0  0
  -24.8988  -32.2844   26.4953 H   0  0  0  0  0  0
  -25.8153  -30.8850   27.0219 H   0  0  0  0  0  0
  -26.2835  -29.6797   24.1157 H   0  0  0  0  0  0
  -27.4120  -29.7248   25.4503 H   0  0  0  0  0  0
  -27.8643  -30.4355   23.9184 H   0  0  0  0  0  0
  -27.2651  -33.3599   26.2091 H   0  0  0  0  0  0
  -28.3844  -32.6920   25.0315 H   0  0  0  0  0  0
  -28.0747  -31.8442   26.5373 H   0  0  0  0  0  0
  -28.2602  -38.0104   24.7497 H   0  0  0  0  0  0
  -28.1068  -36.2617   24.6315 H   0  0  0  0  0  0
  -27.2293  -37.1501   25.8876 H   0  0  0  0  0  0
  -20.9272  -29.8791   21.7010 H   0  0  0  0  0  0
  -26.0197  -38.2867   24.1407 H   0  0  0  0  0  0
  -24.6320  -20.3139   21.6878 H   0  0  0  0  0  0
  -25.1889  -20.3523   20.0133 H   0  0  0  0  0  0
  -26.7387  -18.7951   20.7490 H   0  0  0  0  0  0
  -26.6254  -19.3054   22.4234 H   0  0  0  0  0  0
  -25.9738  -22.2248   22.2753 H   0  0  0  0  0  0
  -25.3983  -22.6606   20.6604 H   0  0  0  0  0  0
  -28.3247  -20.7848   22.2554 H   0  0  0  0  0  0
  -29.6660  -20.8382   19.9912 H   0  0  0  0  0  0
  -28.6008  -19.5998   19.4171 H   0  0  0  0  0  0
  -26.6753  -24.4849   20.5292 H   0  0  0  0  0  0
  -27.9373  -24.2042   19.3483 H   0  0  0  0  0  0
  -28.0589  -23.1779   22.2440 H   0  0  0  0  0  0
  -29.2189  -22.8607   20.9775 H   0  0  0  0  0  0
  -30.5956  -16.8927   22.6688 H   0  0  0  0  0  0
  -31.5110  -16.8677   21.1817 H   0  0  0  0  0  0
  -28.5358  -17.5255   21.4588 H   0  0  0  0  0  0
  -29.3311  -17.3597   19.9070 H   0  0  0  0  0  0
  -28.1234  -25.8597   21.9252 H   0  0  0  0  0  0
  -29.5341  -25.3641   21.0318 H   0  0  0  0  0  0
  -29.2659  -14.9898   21.8715 H   0  0  0  0  0  0
  -30.0721  -19.3428   21.9580 H   0  0  0  0  0  0
  -30.8078  -19.1168   20.5318 H   0  0  0  0  0  0
  1 25  1  0  0  0
  1 30  2  0  0  0
  1 82  1  0  0  0
  2  3  1  0  0  0
  2 25  1  0  0  0
  2 84  1  0  0  0
  2 85  1  0  0  0
  3  4  1  0  0  0
  3 86  1  0  0  0
  3 87  1  0  0  0
  4  5  1  0  0  0
  4 88  1  0  0  0
  4 89  1  0  0  0
  5  6  1  0  0  0
  5 26  1  0  0  0
  5 90  1  0  0  0
  6 25  1  0  0  0
  6 91  1  0  0  0
  6 92  1  0  0  0
  7  8  2  0  0  0
  7 26  1  0  0  0
  7 29  1  0  0  0
  8  9  1  0  0  0
  8 22  1  0  0  0
  9 10  1  0  0  0
  9 27  2  0  0  0
 10 11  2  0  0  0
 10 15  1  0  0  0
 11 12  1  0  0  0
 11 93  1  0  0  0
 12 13  2  0  0  0
 12 94  1  0  0  0
 13 14  1  0  0  0
 13 31  1  0  0  0
 14 15  2  0  0  0
 14 95  1  0  0  0
 15 96  1  0  0  0
 16 17  2  0  0  0
 16 21  1  0  0  0
 16 31  1  0  0  0
 17 18  1  0  0  0
 17 97  1  0  0  0
 18 19  2  0  0  0
 18 98  1  0  0  0
 19 20  1  0  0  0
 19 24  1  0  0  0
 20 21  2  0  0  0
 20 99  1  0  0  0
 21 23  1  0  0  0
 22 28  1  0  0  0
 22 32  2  0  0  0
 26 27  1  0  0  0
 28100  1  0  0  0
 28101  1  0  0  0
 29102  1  0  0  0
 29103  1  0  0  0
 33 34  1  0  0  0
 33 66  1  0  0  0
 33 70  2  0  0  0
 34 36  1  0  0  0
 34 59  1  0  0  0
 34104  1  0  0  0
 35 44  2  0  0  0
 35 45  1  0  0  0
 35 68  1  0  0  0
 36 56  1  0  0  0
 36105  1  0  0  0
 37 39  1  0  0  0
 37 47  1  0  0  0
 37 66  1  0  0  0
 37106  1  0  0  0
 38 43  2  0  0  0
 38 46  1  0  0  0
 38 47  1  0  0  0
 39 64  1  0  0  0
 39 67  2  0  0  0
 40 52  1  0  0  0
 40 53  2  0  0  0
 40 58  1  0  0  0
 41107  1  0  0  0
 41108  1  0  0  0
 41109  1  0  0  0
 41 48  1  0  0  0
 42 43  1  0  0  0
 42 66  1  0  0  0
 42110  1  0  0  0
 42111  1  0  0  0
 43 44  1  0  0  0
 44112  1  0  0  0
 45 46  2  0  0  0
 45113  1  0  0  0
 46114  1  0  0  0
 47115  1  0  0  0
 47116  1  0  0  0
 48 56  1  0  0  0
 48 65  1  0  0  0
 48117  1  0  0  0
 49 50  1  0  0  0
 49 53  1  0  0  0
 49 64  1  0  0  0
 49118  1  0  0  0
 50 51  1  0  0  0
 50119  1  0  0  0
 50120  1  0  0  0
 51 52  1  0  0  0
 51121  1  0  0  0
 51122  1  0  0  0
 52123  1  0  0  0
 52124  1  0  0  0
 53 54  1  0  0  0
 54 55  2  0  0  0
 54125  1  0  0  0
 55 57  1  0  0  0
 55126  1  0  0  0
 56 69  2  0  0  0
 57 58  2  0  0  0
 57127  1  0  0  0
 58128  1  0  0  0
 59 60  1  0  0  0
 59 61  1  0  0  0
 59 62  1  0  0  0
 60129  1  0  0  0
 60130  1  0  0  0
 60131  1  0  0  0
 61132  1  0  0  0
 61133  1  0  0  0
 61134  1  0  0  0
 62135  1  0  0  0
 62136  1  0  0  0
 62137  1  0  0  0
 63 65  1  0  0  0
 63138  1  0  0  0
 63139  1  0  0  0
 63140  1  0  0  0
 64141  1  0  0  0
 65142  1  0  0  0
 68 80  1  0  0  0
 71 72  1  0  0  0
 71 73  1  0  0  0
 71143  1  0  0  0
 71144  1  0  0  0
 72 74  1  0  0  0
 72145  1  0  0  0
 72146  1  0  0  0
 73 81  1  0  0  0
 73147  1  0  0  0
 73148  1  0  0  0
 74 75  1  0  0  0
 74 81  1  0  0  0
 74149  1  0  0  0
 75 83  1  0  0  0
 75150  1  0  0  0
 75151  1  0  0  0
 76 77  1  0  0  0
 76 80  1  0  0  0
 76152  1  0  0  0
 76153  1  0  0  0
 77 81  1  0  0  0
 77154  1  0  0  0
 77155  1  0  0  0
 78 79  1  0  0  0
 78 82  1  0  0  0
 78156  1  0  0  0
 78157  1  0  0  0
 79 83  1  0  0  0
 79158  1  0  0  0
 79159  1  0  0  0
 80160  1  0  0  0
 80161  1  0  0  0
 82162  1  0  0  0
 83163  1  0  0  0
 83164  1  0  0  0
M  CHG  1  83   1
M  ISO  4   1 100  68 101  80 101  82 100
M  END
> <chiral flag>
0

> <version>
0

> <s_m_source_file>
/data/baiqing/PycharmProjects/Reinvent-master-3.2/result/LINK_invent/BTK/process_docking_weight1_custom_sum_contain_oxygen_bond_distance_aromatic_linkinvent_7_9_3/rearranged_h_0132.sdf

> <i_m_source_file_index>
21

> <r_mmod_Potential_Energy-OPLS-2005>
-210.890335083008

> <r_mmod_Stretch_Energy-OPLS-2005>
33.9639358520508

> <r_mmod_Bend_Energy-OPLS-2005>
106.705940246582

> <r_mmod_Torsional_Energy-OPLS-2005>
290.656890869141

> <r_mmod_Improper_Torsional_Energy-OPLS-2005>
2.72398018836975

> <r_mmod_Van_der_Waal_Energy-OPLS-2005>
131.311721801758

> <r_mmod_Electrostatic_Energy-OPLS-2005>
-300.599334716797

> <r_mmod_Solvation_Energy-OPLS-2005>
-483.094055175781

> <b_mmod_Minimization_Converged-OPLS-2005>
0

> <r_mmod_RMS_Derivative-OPLS-2005>
2.35194373130798

$$$$
21
                    3D
 Structure written by MMmdl.
156164  0  0  1  0            999 V2000
  -30.6493  -14.4652   20.6169 C   0  0  0  0  0  0
  -30.4374  -12.3202   19.3946 C   0  0  0  0  0  0
  -29.4940  -12.5255   18.1898 C   0  0  0  0  0  0
  -28.0126  -12.3836   18.5996 C   0  0  0  0  0  0
  -27.6650  -13.1934   19.8777 C   0  0  2  0  0  0
  -28.7056  -12.9140   20.9828 C   0  0  0  0  0  0
  -25.2612  -13.8132   20.5642 C   0  0  0  0  0  0
  -24.1839  -13.0423   20.9148 C   0  0  0  0  0  0
  -24.6385  -11.6892   20.8710 C   0  0  0  0  0  0
  -23.9049  -10.4286   21.0399 C   0  0  0  0  0  0
  -24.3611   -9.4206   21.9168 C   0  0  0  0  0  0
  -23.6280   -8.2244   22.0764 C   0  0  0  0  0  0
  -22.4257   -8.0284   21.3560 C   0  0  0  0  0  0
  -21.9874   -9.0261   20.4669 C   0  0  0  0  0  0
  -22.7216  -10.2133   20.3060 C   0  0  0  0  0  0
  -21.6851   -6.0731   22.5279 C   0  0  0  0  0  0
  -21.4032   -6.5634   23.8215 C   0  0  0  0  0  0
  -21.3665   -5.6789   24.9176 C   0  0  0  0  0  0
  -21.6046   -4.3049   24.7212 C   0  0  0  0  0  0
  -21.8830   -3.8143   23.4332 C   0  0  0  0  0  0
  -21.9193   -4.6962   22.3395 C   0  0  0  0  0  0
  -22.7870  -13.5251   21.1831 C   0  0  0  0  0  0
  -22.1651   -4.2155   21.0965 F   0  0  0  0  0  0
  -21.5624   -3.4529   25.7716 F   0  0  0  0  0  0
  -30.0322  -13.2652   20.4446 N   0  0  0  0  0  0
  -26.3035  -12.9276   20.3342 N   0  0  0  0  0  0
  -25.9303  -11.6450   20.5741 N   0  0  0  0  0  0
  -22.0490  -12.8257   22.0399 N   0  0  0  0  0  0
  -25.4326  -15.1844   20.4058 N   0  0  0  0  0  0
  -31.7571  -14.7381   20.1439 O   0  0  0  0  0  0
  -21.6647   -6.8871   21.4239 O   0  0  0  0  0  0
  -22.3565  -14.5543   20.6669 O   0  0  0  0  0  0
  -24.6166  -31.8628   23.2075 C   0  0  0  0  0  0
  -25.9063  -32.4789   23.8358 C   0  0  1  0  0  0
  -27.2382  -27.4168   20.0639 C   0  0  0  0  0  0
  -25.5896  -33.8577   24.2293 N   0  0  0  0  0  0
  -23.4053  -30.4856   21.5510 C   0  0  2  0  0  0
  -24.8487  -28.9497   20.1129 C   0  0  0  0  0  0
  -22.7411  -29.4623   22.5006 C   0  0  0  0  0  0
  -18.0262  -28.1363   22.8503 C   0  0  0  0  0  0
  -24.1472  -36.7277   23.2651 C   0  0  0  0  0  0
  -25.9379  -30.8157   21.3687 C   0  0  0  0  0  0
  -26.0111  -29.4510   20.7107 C   0  0  0  0  0  0
  -27.2035  -28.6875   20.6919 C   0  0  0  0  0  0
  -26.0439  -26.9251   19.4864 C   0  0  0  0  0  0
  -24.8598  -27.6846   19.5032 C   0  0  0  0  0  0
  -23.6120  -29.8176   20.1659 C   0  0  0  0  0  0
  -25.4098  -36.3085   24.0345 C   0  0  1  0  0  0
  -20.5854  -28.3636   23.1328 C   0  0  2  0  0  0
  -20.6750  -26.9373   22.5420 C   0  0  0  0  0  0
  -19.5728  -26.6378   21.5212 C   0  0  0  0  0  0
  -18.1911  -26.7908   22.1636 C   0  0  0  0  0  0
  -19.1515  -28.8818   23.2909 C   0  0  0  0  0  0
  -18.9444  -30.1427   23.8912 C   0  0  0  0  0  0
  -17.6447  -30.6576   24.0560 C   0  0  0  0  0  0
  -25.9035  -34.9454   23.5128 C   0  0  0  0  0  0
  -16.5336  -29.9074   23.6330 C   0  0  0  0  0  0
  -16.7256  -28.6487   23.0368 C   0  0  0  0  0  0
  -26.4488  -31.6583   25.0699 C   0  0  0  0  0  0
  -25.3770  -31.3686   26.1463 C   0  0  0  0  0  0
  -27.0331  -30.3019   24.6112 C   0  0  0  0  0  0
  -27.6048  -32.4317   25.7457 C   0  0  0  0  0  0
  -27.5558  -37.1794   24.8478 C   0  0  0  0  0  0
  -21.4134  -29.2999   22.3733 N   0  0  0  0  0  0
  -26.4276  -37.3773   23.9413 N   0  0  0  0  0  0
  -24.6716  -31.0710   22.0994 N   0  0  0  0  0  0
  -23.4170  -28.8171   23.3071 O   0  0  0  0  0  0
  -28.4138  -26.6822   20.0594 O   0  0  0  0  0  0
  -26.5604  -34.8925   22.4692 O   0  0  0  0  0  0
  -23.5354  -32.1392   23.7459 O   0  0  0  0  0  0
  -28.4702  -21.9286   18.9651 C   0  0  0  0  0  0
  -30.4748  -22.5812   20.1702 C   0  0  0  0  0  0
  -28.1127  -23.2888   18.8231 C   0  0  0  0  0  0
  -30.1125  -23.9450   20.0278 C   0  0  0  0  0  0
  -29.6722  -21.5568   19.6092 C   0  0  0  0  0  0
  -28.9441  -24.3162   19.3225 C   0  0  0  0  0  0
  -30.1611  -20.0980   19.5275 C   0  0  0  0  0  0
  -28.6765  -25.7866   18.9593 C   0  0  0  0  0  0
  -30.1114  -16.8062   21.5295 C   0  0  0  0  0  0
  -29.8910  -17.7468   20.3118 C   0  0  0  0  0  0
  -29.8813  -15.3785   21.2424 N   0  0  0  0  0  0
  -29.8018  -19.1999   20.6546 N   0  3  0  0  0  0
  -31.4775  -12.4547   19.0931 H   0  0  0  0  0  0
  -30.3675  -11.2956   19.7627 H   0  0  0  0  0  0
  -29.7306  -11.8112   17.4003 H   0  0  0  0  0  0
  -29.6615  -13.5142   17.7597 H   0  0  0  0  0  0
  -27.8101  -11.3247   18.7641 H   0  0  0  0  0  0
  -27.3681  -12.6939   17.7752 H   0  0  0  0  0  0
  -27.7242  -14.2502   19.6136 H   0  0  0  0  0  0
  -28.6955  -11.8560   21.2502 H   0  0  0  0  0  0
  -28.4577  -13.4379   21.9065 H   0  0  0  0  0  0
  -25.2759   -9.5682   22.4738 H   0  0  0  0  0  0
  -24.0005   -7.4634   22.7477 H   0  0  0  0  0  0
  -21.0805   -8.8779   19.8958 H   0  0  0  0  0  0
  -22.3673  -10.9678   19.6174 H   0  0  0  0  0  0
  -21.2040   -7.6147   23.9709 H   0  0  0  0  0  0
  -21.1467   -6.0519   25.9084 H   0  0  0  0  0  0
  -22.0594   -2.7603   23.2818 H   0  0  0  0  0  0
  -22.4113  -11.9941   22.4825 H   0  0  0  0  0  0
  -21.1137  -13.1348   22.2645 H   0  0  0  0  0  0
  -24.6555  -15.8291   20.5032 H   0  0  0  0  0  0
  -26.2749  -15.6248   20.0582 H   0  0  0  0  0  0
  -26.7119  -32.5475   23.1097 H   0  0  0  0  0  0
  -25.0024  -33.9712   25.0424 H   0  0  0  0  0  0
  -22.6958  -31.3028   21.4121 H   0  0  0  0  0  0
  -23.3724  -35.9623   23.3360 H   0  0  0  0  0  0
  -24.3555  -36.8833   22.2053 H   0  0  0  0  0  0
  -23.7236  -37.6501   23.6629 H   0  0  0  0  0  0
  -26.0682  -31.5843   20.6052 H   0  0  0  0  0  0
  -26.8173  -30.8551   22.0001 H   0  0  0  0  0  0
  -28.1036  -29.0737   21.1500 H   0  0  0  0  0  0
  -25.9970  -25.9467   19.0315 H   0  0  0  0  0  0
  -23.9627  -27.2843   19.0500 H   0  0  0  0  0  0
  -23.7144  -30.5891   19.4007 H   0  0  0  0  0  0
  -22.7362  -29.2325   19.8804 H   0  0  0  0  0  0
  -25.1283  -36.1941   25.0835 H   0  0  0  0  0  0
  -20.9941  -28.3193   24.1455 H   0  0  0  0  0  0
  -20.5643  -26.2239   23.3600 H   0  0  0  0  0  0
  -21.6620  -26.7417   22.1218 H   0  0  0  0  0  0
  -19.6881  -25.6301   21.1214 H   0  0  0  0  0  0
  -19.6665  -27.3216   20.6764 H   0  0  0  0  0  0
  -17.4178  -26.6652   21.4047 H   0  0  0  0  0  0
  -18.0318  -26.0046   22.9032 H   0  0  0  0  0  0
  -19.7917  -30.7227   24.2303 H   0  0  0  0  0  0
  -17.5008  -31.6274   24.5128 H   0  0  0  0  0  0
  -15.5337  -30.2986   23.7637 H   0  0  0  0  0  0
  -15.8657  -28.0799   22.7098 H   0  0  0  0  0  0
  -24.5922  -30.7064   25.7797 H   0  0  0  0  0  0
  -24.9008  -32.2851   26.4952 H   0  0  0  0  0  0
  -25.8143  -30.8812   27.0190 H   0  0  0  0  0  0
  -26.2890  -29.6759   24.1181 H   0  0  0  0  0  0
  -27.4104  -29.7271   25.4577 H   0  0  0  0  0  0
  -27.8723  -30.4310   23.9275 H   0  0  0  0  0  0
  -27.2644  -33.3592   26.2069 H   0  0  0  0  0  0
  -28.3835  -32.6918   25.0277 H   0  0  0  0  0  0
  -28.0759  -31.8440   26.5347 H   0  0  0  0  0  0
  -28.2618  -38.0048   24.7486 H   0  0  0  0  0  0
  -28.1012  -36.2583   24.6366 H   0  0  0  0  0  0
  -27.2277  -37.1527   25.8883 H   0  0  0  0  0  0
  -20.9293  -29.8718   21.6951 H   0  0  0  0  0  0
  -26.0165  -38.2850   24.1410 H   0  0  0  0  0  0
  -27.8458  -21.1714   18.5116 H   0  0  0  0  0  0
  -31.4122  -22.3378   20.6511 H   0  0  0  0  0  0
  -27.2212  -23.5341   18.2625 H   0  0  0  0  0  0
  -30.7719  -24.7181   20.3987 H   0  0  0  0  0  0
  -31.2454  -20.0896   19.4064 H   0  0  0  0  0  0
  -29.7648  -19.6707   18.6056 H   0  0  0  0  0  0
  -27.9486  -25.8438   18.1519 H   0  0  0  0  0  0
  -29.5917  -26.1505   18.4905 H   0  0  0  0  0  0
  -29.4128  -17.0768   22.3211 H   0  0  0  0  0  0
  -31.1136  -16.9364   21.9414 H   0  0  0  0  0  0
  -28.9815  -17.4676   19.7762 H   0  0  0  0  0  0
  -30.7162  -17.5950   19.6157 H   0  0  0  0  0  0
  -28.9924  -15.0151   21.5553 H   0  0  0  0  0  0
  -28.8582  -19.4050   20.9399 H   0  0  0  0  0  0
  -30.4037  -19.4151   21.4305 H   0  0  0  0  0  0
  1 25  1  0  0  0
  1 30  2  0  0  0
  1 81  1  0  0  0
  2  3  1  0  0  0
  2 25  1  0  0  0
  2 83  1  0  0  0
  2 84  1  0  0  0
  3  4  1  0  0  0
  3 85  1  0  0  0
  3 86  1  0  0  0
  4  5  1  0  0  0
  4 87  1  0  0  0
  4 88  1  0  0  0
  5  6  1  0  0  0
  5 26  1  0  0  0
  5 89  1  0  0  0
  6 25  1  0  0  0
  6 90  1  0  0  0
  6 91  1  0  0  0
  7  8  2  0  0  0
  7 26  1  0  0  0
  7 29  1  0  0  0
  8  9  1  0  0  0
  8 22  1  0  0  0
  9 10  1  0  0  0
  9 27  2  0  0  0
 10 11  2  0  0  0
 10 15  1  0  0  0
 11 12  1  0  0  0
 11 92  1  0  0  0
 12 13  2  0  0  0
 12 93  1  0  0  0
 13 14  1  0  0  0
 13 31  1  0  0  0
 14 15  2  0  0  0
 14 94  1  0  0  0
 15 95  1  0  0  0
 16 17  2  0  0  0
 16 21  1  0  0  0
 16 31  1  0  0  0
 17 18  1  0  0  0
 17 96  1  0  0  0
 18 19  2  0  0  0
 18 97  1  0  0  0
 19 20  1  0  0  0
 19 24  1  0  0  0
 20 21  2  0  0  0
 20 98  1  0  0  0
 21 23  1  0  0  0
 22 28  1  0  0  0
 22 32  2  0  0  0
 26 27  1  0  0  0
 28 99  1  0  0  0
 28100  1  0  0  0
 29101  1  0  0  0
 29102  1  0  0  0
 33 34  1  0  0  0
 33 66  1  0  0  0
 33 70  2  0  0  0
 34 36  1  0  0  0
 34 59  1  0  0  0
 34103  1  0  0  0
 35 44  2  0  0  0
 35 45  1  0  0  0
 35 68  1  0  0  0
 36 56  1  0  0  0
 36104  1  0  0  0
 37 39  1  0  0  0
 37 47  1  0  0  0
 37 66  1  0  0  0
 37105  1  0  0  0
 38 43  2  0  0  0
 38 46  1  0  0  0
 38 47  1  0  0  0
 39 64  1  0  0  0
 39 67  2  0  0  0
 40 52  1  0  0  0
 40 53  2  0  0  0
 40 58  1  0  0  0
 41106  1  0  0  0
 41107  1  0  0  0
 41108  1  0  0  0
 41 48  1  0  0  0
 42 43  1  0  0  0
 42 66  1  0  0  0
 42109  1  0  0  0
 42110  1  0  0  0
 43 44  1  0  0  0
 44111  1  0  0  0
 45 46  2  0  0  0
 45112  1  0  0  0
 46113  1  0  0  0
 47114  1  0  0  0
 47115  1  0  0  0
 48 56  1  0  0  0
 48 65  1  0  0  0
 48116  1  0  0  0
 49 50  1  0  0  0
 49 53  1  0  0  0
 49 64  1  0  0  0
 49117  1  0  0  0
 50 51  1  0  0  0
 50118  1  0  0  0
 50119  1  0  0  0
 51 52  1  0  0  0
 51120  1  0  0  0
 51121  1  0  0  0
 52122  1  0  0  0
 52123  1  0  0  0
 53 54  1  0  0  0
 54 55  2  0  0  0
 54124  1  0  0  0
 55 57  1  0  0  0
 55125  1  0  0  0
 56 69  2  0  0  0
 57 58  2  0  0  0
 57126  1  0  0  0
 58127  1  0  0  0
 59 60  1  0  0  0
 59 61  1  0  0  0
 59 62  1  0  0  0
 60128  1  0  0  0
 60129  1  0  0  0
 60130  1  0  0  0
 61131  1  0  0  0
 61132  1  0  0  0
 61133  1  0  0  0
 62134  1  0  0  0
 62135  1  0  0  0
 62136  1  0  0  0
 63 65  1  0  0  0
 63137  1  0  0  0
 63138  1  0  0  0
 63139  1  0  0  0
 64140  1  0  0  0
 65141  1  0  0  0
 68 78  1  0  0  0
 71 73  2  0  0  0
 71 75  1  0  0  0
 71142  1  0  0  0
 72 74  1  0  0  0
 72 75  2  0  0  0
 72143  1  0  0  0
 73 76  1  0  0  0
 73144  1  0  0  0
 74 76  2  0  0  0
 74145  1  0  0  0
 75 77  1  0  0  0
 76 78  1  0  0  0
 77 82  1  0  0  0
 77146  1  0  0  0
 77147  1  0  0  0
 78148  1  0  0  0
 78149  1  0  0  0
 79 80  1  0  0  0
 79 81  1  0  0  0
 79150  1  0  0  0
 79151  1  0  0  0
 80 82  1  0  0  0
 80152  1  0  0  0
 80153  1  0  0  0
 81154  1  0  0  0
 82155  1  0  0  0
 82156  1  0  0  0
M  CHG  1  82   1
M  ISO  4   1 100  68 101  78 101  81 100
M  END
> <chiral flag>
0

> <version>
0

> <s_m_source_file>
/data/baiqing/PycharmProjects/Reinvent-master-3.2/result/LINK_invent/BTK/process_docking_weight1_custom_sum_contain_oxygen_bond_distance_aromatic_linkinvent_7_9_3/rearranged_h_0132.sdf

> <i_m_source_file_index>
22

> <r_mmod_Potential_Energy-OPLS-2005>
-288.826049804688

> <r_mmod_Stretch_Energy-OPLS-2005>
40.1489868164062

> <r_mmod_Bend_Energy-OPLS-2005>
104.516700744629

> <r_mmod_Torsional_Energy-OPLS-2005>
211.46794128418

> <r_mmod_Improper_Torsional_Energy-OPLS-2005>
4.52138900756836

> <r_mmod_Van_der_Waal_Energy-OPLS-2005>
149.172790527344

> <r_mmod_Electrostatic_Energy-OPLS-2005>
-326.719024658203

> <r_mmod_Solvation_Energy-OPLS-2005>
-486.35546875

> <b_mmod_Minimization_Converged-OPLS-2005>
0

> <r_mmod_RMS_Derivative-OPLS-2005>
2.90253758430481

$$$$
22
                    3D
 Structure written by MMmdl.
163171  0  0  1  0            999 V2000
  -30.6577  -14.5056   20.5825 C   0  0  0  0  0  0
  -30.4399  -12.3315   19.4191 C   0  0  0  0  0  0
  -29.5039  -12.5140   18.2046 C   0  0  0  0  0  0
  -28.0235  -12.3661   18.6149 C   0  0  0  0  0  0
  -27.6636  -13.2010   19.8727 C   0  0  2  0  0  0
  -28.7045  -12.9679   20.9901 C   0  0  0  0  0  0
  -25.2604  -13.8138   20.5681 C   0  0  0  0  0  0
  -24.1846  -13.0429   20.9176 C   0  0  0  0  0  0
  -24.6382  -11.6891   20.8716 C   0  0  0  0  0  0
  -23.9039  -10.4286   21.0398 C   0  0  0  0  0  0
  -24.3602   -9.4204   21.9174 C   0  0  0  0  0  0
  -23.6294   -8.2231   22.0752 C   0  0  0  0  0  0
  -22.4277   -8.0274   21.3549 C   0  0  0  0  0  0
  -21.9894   -9.0238   20.4649 C   0  0  0  0  0  0
  -22.7216  -10.2118   20.3050 C   0  0  0  0  0  0
  -21.6854   -6.0729   22.5284 C   0  0  0  0  0  0
  -21.4006   -6.5635   23.8212 C   0  0  0  0  0  0
  -21.3659   -5.6789   24.9176 C   0  0  0  0  0  0
  -21.6042   -4.3050   24.7226 C   0  0  0  0  0  0
  -21.8817   -3.8138   23.4342 C   0  0  0  0  0  0
  -21.9193   -4.6956   22.3397 C   0  0  0  0  0  0
  -22.7871  -13.5238   21.1830 C   0  0  0  0  0  0
  -22.1672   -4.2142   21.0978 F   0  0  0  0  0  0
  -21.5621   -3.4536   25.7738 F   0  0  0  0  0  0
  -30.0329  -13.3033   20.4443 N   0  0  0  0  0  0
  -26.3033  -12.9297   20.3332 N   0  0  0  0  0  0
  -25.9301  -11.6467   20.5720 N   0  0  0  0  0  0
  -22.0494  -12.8257   22.0399 N   0  0  0  0  0  0
  -25.4323  -15.1853   20.4118 N   0  0  0  0  0  0
  -31.7837  -14.7382   20.1344 O   0  0  0  0  0  0
  -21.6638   -6.8871   21.4256 O   0  0  0  0  0  0
  -22.3563  -14.5543   20.6660 O   0  0  0  0  0  0
  -24.6184  -31.8663   23.2082 C   0  0  0  0  0  0
  -25.9064  -32.4810   23.8389 C   0  0  1  0  0  0
  -27.2356  -27.4099   20.0800 C   0  0  0  0  0  0
  -25.5916  -33.8608   24.2321 N   0  0  0  0  0  0
  -23.4063  -30.4915   21.5500 C   0  0  2  0  0  0
  -24.8486  -28.9524   20.1162 C   0  0  0  0  0  0
  -22.7425  -29.4664   22.4976 C   0  0  0  0  0  0
  -18.0280  -28.1377   22.8493 C   0  0  0  0  0  0
  -24.1489  -36.7310   23.2640 C   0  0  0  0  0  0
  -25.9389  -30.8225   21.3653 C   0  0  0  0  0  0
  -26.0120  -29.4558   20.7090 C   0  0  0  0  0  0
  -27.2037  -28.6910   20.6884 C   0  0  0  0  0  0
  -26.0387  -26.9166   19.5079 C   0  0  0  0  0  0
  -24.8576  -27.6821   19.5175 C   0  0  0  0  0  0
  -23.6135  -29.8247   20.1646 C   0  0  0  0  0  0
  -25.4108  -36.3105   24.0339 C   0  0  1  0  0  0
  -20.5870  -28.3668   23.1312 C   0  0  2  0  0  0
  -20.6763  -26.9401   22.5411 C   0  0  0  0  0  0
  -19.5738  -26.6386   21.5210 C   0  0  0  0  0  0
  -18.1921  -26.7924   22.1625 C   0  0  0  0  0  0
  -19.1526  -28.8837   23.2902 C   0  0  0  0  0  0
  -18.9452  -30.1442   23.8912 C   0  0  0  0  0  0
  -17.6451  -30.6579   24.0563 C   0  0  0  0  0  0
  -25.9038  -34.9474   23.5125 C   0  0  0  0  0  0
  -16.5344  -29.9079   23.6324 C   0  0  0  0  0  0
  -16.7266  -28.6498   23.0345 C   0  0  0  0  0  0
  -26.4481  -31.6594   25.0726 C   0  0  0  0  0  0
  -25.3745  -31.3711   26.1476 C   0  0  0  0  0  0
  -27.0310  -30.3033   24.6122 C   0  0  0  0  0  0
  -27.6057  -32.4318   25.7484 C   0  0  0  0  0  0
  -27.5582  -37.1808   24.8464 C   0  0  0  0  0  0
  -21.4147  -29.3046   22.3721 N   0  0  0  0  0  0
  -26.4295  -37.3789   23.9407 N   0  0  0  0  0  0
  -24.6730  -31.0754   22.0992 N   0  0  0  0  0  0
  -23.4198  -28.8207   23.3017 O   0  0  0  0  0  0
  -28.4281  -26.6993   20.0762 O   0  0  0  0  0  0
  -26.5602  -34.8923   22.4687 O   0  0  0  0  0  0
  -23.5365  -32.1427   23.7464 O   0  0  0  0  0  0
  -27.9601  -20.5690   19.2768 C   0  0  0  0  0  0
  -28.5030  -19.2810   19.4702 C   0  0  0  0  0  0
  -29.7967  -19.1536   20.0359 C   0  0  0  0  0  0
  -30.4501  -20.3630   20.4083 C   0  0  0  0  0  0
  -28.6882  -21.7059   19.6597 C   0  0  0  0  0  0
  -27.6998  -18.0721   19.0229 C   0  0  0  0  0  0
  -31.8528  -20.3759   20.9888 C   0  0  0  0  0  0
  -31.0358  -17.0890   22.5793 C   0  0  0  0  0  0
  -30.4685  -17.7579   20.1404 C   0  0  0  0  0  0
  -28.3892  -24.1751   20.1837 C   0  0  0  0  0  0
  -28.5615  -25.4672   19.3326 C   0  0  0  0  0  0
  -30.0807  -16.9052   21.3900 C   0  0  1  0  0  0
  -29.9022  -21.5974   20.2348 N   0  0  0  0  0  0
  -28.1670  -22.9779   19.3599 N   0  0  0  0  0  0
  -29.8776  -15.4643   21.1253 N   0  0  0  0  0  0
  -31.4812  -12.4612   19.1179 H   0  0  0  0  0  0
  -30.3678  -11.3157   19.8105 H   0  0  0  0  0  0
  -29.7519  -11.7884   17.4286 H   0  0  0  0  0  0
  -29.6649  -13.4986   17.7628 H   0  0  0  0  0  0
  -27.8410  -11.3098   18.8123 H   0  0  0  0  0  0
  -27.3717  -12.6378   17.7845 H   0  0  0  0  0  0
  -27.7099  -14.2494   19.5801 H   0  0  0  0  0  0
  -28.6898  -11.9243   21.3047 H   0  0  0  0  0  0
  -28.4529  -13.5392   21.8842 H   0  0  0  0  0  0
  -25.2745   -9.5677   22.4750 H   0  0  0  0  0  0
  -24.0002   -7.4614   22.7456 H   0  0  0  0  0  0
  -21.0828   -8.8738   19.8966 H   0  0  0  0  0  0
  -22.3667  -10.9647   19.6147 H   0  0  0  0  0  0
  -21.2014   -7.6146   23.9717 H   0  0  0  0  0  0
  -21.1485   -6.0520   25.9076 H   0  0  0  0  0  0
  -22.0603   -2.7608   23.2843 H   0  0  0  0  0  0
  -22.4108  -11.9942   22.4835 H   0  0  0  0  0  0
  -21.1099  -13.1273   22.2553 H   0  0  0  0  0  0
  -24.6641  -15.8380   20.5189 H   0  0  0  0  0  0
  -26.2830  -15.6218   20.0851 H   0  0  0  0  0  0
  -26.7136  -32.5506   23.1148 H   0  0  0  0  0  0
  -25.0069  -33.9758   25.0469 H   0  0  0  0  0  0
  -22.6961  -31.3087   21.4121 H   0  0  0  0  0  0
  -23.3746  -35.9649   23.3304 H   0  0  0  0  0  0
  -24.3587  -36.8919   22.2055 H   0  0  0  0  0  0
  -23.7243  -37.6518   23.6648 H   0  0  0  0  0  0
  -26.0603  -31.5898   20.5992 H   0  0  0  0  0  0
  -26.8233  -30.8692   21.9890 H   0  0  0  0  0  0
  -28.1050  -29.0826   21.1381 H   0  0  0  0  0  0
  -25.9810  -25.9361   19.0608 H   0  0  0  0  0  0
  -23.9576  -27.2837   19.0701 H   0  0  0  0  0  0
  -23.7243  -30.6004   19.4060 H   0  0  0  0  0  0
  -22.7347  -29.2494   19.8680 H   0  0  0  0  0  0
  -25.1282  -36.1970   25.0833 H   0  0  0  0  0  0
  -20.9970  -28.3226   24.1428 H   0  0  0  0  0  0
  -20.5670  -26.2269   23.3595 H   0  0  0  0  0  0
  -21.6630  -26.7437   22.1196 H   0  0  0  0  0  0
  -19.6893  -25.6303   21.1220 H   0  0  0  0  0  0
  -19.6671  -27.3207   20.6750 H   0  0  0  0  0  0
  -17.4188  -26.6678   21.4030 H   0  0  0  0  0  0
  -18.0322  -26.0062   22.9018 H   0  0  0  0  0  0
  -19.7928  -30.7258   24.2283 H   0  0  0  0  0  0
  -17.5005  -31.6258   24.5164 H   0  0  0  0  0  0
  -15.5342  -30.2980   23.7642 H   0  0  0  0  0  0
  -15.8672  -28.0822   22.7044 H   0  0  0  0  0  0
  -24.5896  -30.7088   25.7807 H   0  0  0  0  0  0
  -24.8970  -32.2875   26.4957 H   0  0  0  0  0  0
  -25.8095  -30.8845   27.0214 H   0  0  0  0  0  0
  -26.2858  -29.6793   24.1180 H   0  0  0  0  0  0
  -27.4069  -29.7273   25.4584 H   0  0  0  0  0  0
  -27.8698  -30.4335   23.9282 H   0  0  0  0  0  0
  -27.2674  -33.3598   26.2103 H   0  0  0  0  0  0
  -28.3844  -32.6912   25.0301 H   0  0  0  0  0  0
  -28.0759  -31.8428   26.5367 H   0  0  0  0  0  0
  -28.2605  -38.0101   24.7504 H   0  0  0  0  0  0
  -28.1072  -36.2632   24.6292 H   0  0  0  0  0  0
  -27.2304  -37.1463   25.8869 H   0  0  0  0  0  0
  -20.9305  -29.8786   21.6958 H   0  0  0  0  0  0
  -26.0185  -38.2871   24.1388 H   0  0  0  0  0  0
  -26.9898  -20.6760   18.8102 H   0  0  0  0  0  0
  -26.6608  -18.3376   18.8257 H   0  0  0  0  0  0
  -27.6981  -17.2972   19.7880 H   0  0  0  0  0  0
  -28.1172  -17.6556   18.1061 H   0  0  0  0  0  0
  -31.9217  -19.7335   21.8621 H   0  0  0  0  0  0
  -32.1455  -21.3774   21.3055 H   0  0  0  0  0  0
  -32.5781  -20.0327   20.2511 H   0  0  0  0  0  0
  -30.9901  -18.1044   22.9692 H   0  0  0  0  0  0
  -32.0699  -16.8772   22.3041 H   0  0  0  0  0  0
  -30.7686  -16.4298   23.4062 H   0  0  0  0  0  0
  -31.5522  -17.8524   20.0795 H   0  0  0  0  0  0
  -30.2118  -17.2075   19.2355 H   0  0  0  0  0  0
  -27.5174  -24.2891   20.8285 H   0  0  0  0  0  0
  -29.2465  -24.0487   20.8456 H   0  0  0  0  0  0
  -27.9245  -25.4535   18.4489 H   0  0  0  0  0  0
  -29.5711  -25.4568   18.9207 H   0  0  0  0  0  0
  -29.0974  -17.2437   21.7174 H   0  0  0  0  0  0
  -27.2867  -22.9731   18.8555 H   0  0  0  0  0  0
  -28.9727  -15.1166   21.4067 H   0  0  0  0  0  0
  1 25  1  0  0  0
  1 30  2  0  0  0
  1 85  1  0  0  0
  2  3  1  0  0  0
  2 25  1  0  0  0
  2 86  1  0  0  0
  2 87  1  0  0  0
  3  4  1  0  0  0
  3 88  1  0  0  0
  3 89  1  0  0  0
  4  5  1  0  0  0
  4 90  1  0  0  0
  4 91  1  0  0  0
  5  6  1  0  0  0
  5 26  1  0  0  0
  5 92  1  0  0  0
  6 25  1  0  0  0
  6 93  1  0  0  0
  6 94  1  0  0  0
  7  8  2  0  0  0
  7 26  1  0  0  0
  7 29  1  0  0  0
  8  9  1  0  0  0
  8 22  1  0  0  0
  9 10  1  0  0  0
  9 27  2  0  0  0
 10 11  2  0  0  0
 10 15  1  0  0  0
 11 12  1  0  0  0
 11 95  1  0  0  0
 12 13  2  0  0  0
 12 96  1  0  0  0
 13 14  1  0  0  0
 13 31  1  0  0  0
 14 15  2  0  0  0
 14 97  1  0  0  0
 15 98  1  0  0  0
 16 17  2  0  0  0
 16 21  1  0  0  0
 16 31  1  0  0  0
 17 18  1  0  0  0
 17 99  1  0  0  0
 18 19  2  0  0  0
 18100  1  0  0  0
 19 20  1  0  0  0
 19 24  1  0  0  0
 20 21  2  0  0  0
 20101  1  0  0  0
 21 23  1  0  0  0
 22 28  1  0  0  0
 22 32  2  0  0  0
 26 27  1  0  0  0
 28102  1  0  0  0
 28103  1  0  0  0
 29104  1  0  0  0
 29105  1  0  0  0
 33 34  1  0  0  0
 33 66  1  0  0  0
 33 70  2  0  0  0
 34 36  1  0  0  0
 34 59  1  0  0  0
 34106  1  0  0  0
 35 44  2  0  0  0
 35 45  1  0  0  0
 35 68  1  0  0  0
 36 56  1  0  0  0
 36107  1  0  0  0
 37 39  1  0  0  0
 37 47  1  0  0  0
 37 66  1  0  0  0
 37108  1  0  0  0
 38 43  2  0  0  0
 38 46  1  0  0  0
 38 47  1  0  0  0
 39 64  1  0  0  0
 39 67  2  0  0  0
 40 52  1  0  0  0
 40 53  2  0  0  0
 40 58  1  0  0  0
 41109  1  0  0  0
 41110  1  0  0  0
 41111  1  0  0  0
 41 48  1  0  0  0
 42 43  1  0  0  0
 42 66  1  0  0  0
 42112  1  0  0  0
 42113  1  0  0  0
 43 44  1  0  0  0
 44114  1  0  0  0
 45 46  2  0  0  0
 45115  1  0  0  0
 46116  1  0  0  0
 47117  1  0  0  0
 47118  1  0  0  0
 48 56  1  0  0  0
 48 65  1  0  0  0
 48119  1  0  0  0
 49 50  1  0  0  0
 49 53  1  0  0  0
 49 64  1  0  0  0
 49120  1  0  0  0
 50 51  1  0  0  0
 50121  1  0  0  0
 50122  1  0  0  0
 51 52  1  0  0  0
 51123  1  0  0  0
 51124  1  0  0  0
 52125  1  0  0  0
 52126  1  0  0  0
 53 54  1  0  0  0
 54 55  2  0  0  0
 54127  1  0  0  0
 55 57  1  0  0  0
 55128  1  0  0  0
 56 69  2  0  0  0
 57 58  2  0  0  0
 57129  1  0  0  0
 58130  1  0  0  0
 59 60  1  0  0  0
 59 61  1  0  0  0
 59 62  1  0  0  0
 60131  1  0  0  0
 60132  1  0  0  0
 60133  1  0  0  0
 61134  1  0  0  0
 61135  1  0  0  0
 61136  1  0  0  0
 62137  1  0  0  0
 62138  1  0  0  0
 62139  1  0  0  0
 63 65  1  0  0  0
 63140  1  0  0  0
 63141  1  0  0  0
 63142  1  0  0  0
 64143  1  0  0  0
 65144  1  0  0  0
 68 81  1  0  0  0
 71 72  2  0  0  0
 71 75  1  0  0  0
 71145  1  0  0  0
 72 73  1  0  0  0
 72 76  1  0  0  0
 73 74  2  0  0  0
 73 79  1  0  0  0
 74 77  1  0  0  0
 74 83  1  0  0  0
 75 83  2  0  0  0
 75 84  1  0  0  0
 76146  1  0  0  0
 76147  1  0  0  0
 76148  1  0  0  0
 77149  1  0  0  0
 77150  1  0  0  0
 77151  1  0  0  0
 78152  1  0  0  0
 78153  1  0  0  0
 78154  1  0  0  0
 78 82  1  0  0  0
 79 82  1  0  0  0
 79155  1  0  0  0
 79156  1  0  0  0
 80 81  1  0  0  0
 80 84  1  0  0  0
 80157  1  0  0  0
 80158  1  0  0  0
 81159  1  0  0  0
 81160  1  0  0  0
 82 85  1  0  0  0
 82161  1  0  0  0
 84162  1  0  0  0
 85163  1  0  0  0
M  ISO  4   1 100  68 101  81 101  85 100
M  END
> <chiral flag>
0

> <version>
0

> <s_m_source_file>
/data/baiqing/PycharmProjects/Reinvent-master-3.2/result/LINK_invent/BTK/process_docking_weight1_custom_sum_contain_oxygen_bond_distance_aromatic_linkinvent_7_9_3/rearranged_h_0132.sdf

> <i_m_source_file_index>
23

> <r_mmod_Potential_Energy-OPLS-2005>
-345.255279541016

> <r_mmod_Stretch_Energy-OPLS-2005>
43.7372932434082

> <r_mmod_Bend_Energy-OPLS-2005>
128.100997924805

> <r_mmod_Torsional_Energy-OPLS-2005>
192.302352905273

> <r_mmod_Improper_Torsional_Energy-OPLS-2005>
5.72168159484863

> <r_mmod_Van_der_Waal_Energy-OPLS-2005>
150.123504638672

> <r_mmod_Electrostatic_Energy-OPLS-2005>
-641.161376953125

> <r_mmod_Solvation_Energy-OPLS-2005>
-240.454391479492

> <b_mmod_Minimization_Converged-OPLS-2005>
0

> <r_mmod_RMS_Derivative-OPLS-2005>
1.88310015201569

$$$$
23
                    3D
 Structure written by MMmdl.
170179  0  0  1  0            999 V2000
  -30.5233  -14.9616   20.5217 C   0  0  0  0  0  0
  -30.4521  -12.6131   19.5097 C   0  0  0  0  0  0
  -29.5341  -12.5548   18.2631 C   0  0  0  0  0  0
  -28.0665  -12.3178   18.6682 C   0  0  0  0  0  0
  -27.6340  -13.2371   19.8371 C   0  0  2  0  0  0
  -28.6639  -13.2191   20.9802 C   0  0  0  0  0  0
  -25.2495  -13.8195   20.5678 C   0  0  0  0  0  0
  -24.1781  -13.0444   20.9179 C   0  0  0  0  0  0
  -24.6372  -11.6914   20.8703 C   0  0  0  0  0  0
  -23.9051  -10.4292   21.0391 C   0  0  0  0  0  0
  -24.3610   -9.4213   21.9167 C   0  0  0  0  0  0
  -23.6284   -8.2248   22.0754 C   0  0  0  0  0  0
  -22.4259   -8.0276   21.3552 C   0  0  0  0  0  0
  -21.9886   -9.0247   20.4658 C   0  0  0  0  0  0
  -22.7220  -10.2120   20.3051 C   0  0  0  0  0  0
  -21.6847   -6.0731   22.5281 C   0  0  0  0  0  0
  -21.4023   -6.5638   23.8215 C   0  0  0  0  0  0
  -21.3663   -5.6788   24.9170 C   0  0  0  0  0  0
  -21.6039   -4.3049   24.7226 C   0  0  0  0  0  0
  -21.8822   -3.8147   23.4348 C   0  0  0  0  0  0
  -21.9193   -4.6959   22.3403 C   0  0  0  0  0  0
  -22.7817  -13.5236   21.1848 C   0  0  0  0  0  0
  -22.1662   -4.2147   21.0982 F   0  0  0  0  0  0
  -21.5615   -3.4533   25.7744 F   0  0  0  0  0  0
  -29.9496  -13.6834   20.4258 N   0  0  0  0  0  0
  -26.2881  -12.9388   20.3147 N   0  0  0  0  0  0
  -25.9289  -11.6531   20.5644 N   0  0  0  0  0  0
  -22.0464  -12.8242   22.0414 N   0  0  0  0  0  0
  -25.4230  -15.1920   20.4208 N   0  0  0  0  0  0
  -31.6612  -15.0953   20.0508 O   0  0  0  0  0  0
  -21.6628   -6.8871   21.4242 O   0  0  0  0  0  0
  -22.3505  -14.5548   20.6689 O   0  0  0  0  0  0
  -24.6464  -31.8416   23.1852 C   0  0  0  0  0  0
  -25.9218  -32.4685   23.8255 C   0  0  1  0  0  0
  -27.2186  -27.1102   20.1548 C   0  0  0  0  0  0
  -25.5958  -33.8491   24.2170 N   0  0  0  0  0  0
  -23.4510  -30.4599   21.5313 C   0  0  2  0  0  0
  -24.9007  -28.8804   20.1123 C   0  0  0  0  0  0
  -22.7581  -29.4532   22.4844 C   0  0  0  0  0  0
  -18.0307  -28.1400   22.8477 C   0  0  0  0  0  0
  -24.1492  -36.7251   23.2638 C   0  0  0  0  0  0
  -26.0092  -30.7070   21.3876 C   0  0  0  0  0  0
  -26.0800  -29.3158   20.7298 C   0  0  0  0  0  0
  -27.2395  -28.4485   20.7310 C   0  0  0  0  0  0
  -26.0092  -26.7803   19.5034 C   0  0  0  0  0  0
  -24.8795  -27.6265   19.4841 C   0  0  0  0  0  0
  -23.6796  -29.7869   20.1523 C   0  0  0  0  0  0
  -25.4123  -36.3022   24.0309 C   0  0  1  0  0  0
  -20.5923  -28.3723   23.1229 C   0  0  2  0  0  0
  -20.6792  -26.9423   22.5402 C   0  0  0  0  0  0
  -19.5763  -26.6380   21.5214 C   0  0  0  0  0  0
  -18.1944  -26.7938   22.1624 C   0  0  0  0  0  0
  -19.1566  -28.8876   23.2843 C   0  0  0  0  0  0
  -18.9484  -30.1475   23.8869 C   0  0  0  0  0  0
  -17.6482  -30.6595   24.0558 C   0  0  0  0  0  0
  -25.9076  -34.9402   23.5047 C   0  0  0  0  0  0
  -16.5370  -29.9089   23.6340 C   0  0  0  0  0  0
  -16.7291  -28.6506   23.0359 C   0  0  0  0  0  0
  -26.4525  -31.6568   25.0711 C   0  0  0  0  0  0
  -25.3709  -31.3790   26.1413 C   0  0  0  0  0  0
  -27.0384  -30.2953   24.6322 C   0  0  0  0  0  0
  -27.6045  -32.4346   25.7499 C   0  0  0  0  0  0
  -27.5575  -37.1775   24.8460 C   0  0  0  0  0  0
  -21.4272  -29.3050   22.3601 N   0  0  0  0  0  0
  -26.4280  -37.3740   23.9413 N   0  0  0  0  0  0
  -24.7222  -31.0246   22.0902 N   0  0  0  0  0  0
  -23.4210  -28.8082   23.3004 O   0  0  0  0  0  0
  -28.2730  -26.1180   20.2146 O   0  0  0  0  0  0
  -26.5667  -34.8904   22.4627 O   0  0  0  0  0  0
  -23.5572  -32.1308   23.7051 O   0  0  0  0  0  0
  -29.1447  -19.0958   17.4734 C   0  0  0  0  0  0
  -29.5756  -20.5764   17.5091 C   0  0  0  0  0  0
  -28.6511  -18.5673   18.8349 C   0  0  0  0  0  0
  -30.5406  -20.8928   18.6757 C   0  0  0  0  0  0
  -30.5883  -16.8776   23.2097 C   0  0  0  0  0  0
  -29.6650  -15.8598   22.5313 C   0  0  0  0  0  0
  -29.6797  -18.8694   19.9351 C   0  0  2  0  0  0
  -29.7261  -17.6808   21.1132 C   0  0  2  0  0  0
  -29.8806  -20.5833   20.0466 C   0  0  2  0  0  0
  -30.6640  -18.0689   22.2578 C   0  0  1  0  0  0
  -31.1122  -19.8650   23.7488 C   0  0  0  0  0  0
  -29.1183  -23.2954   20.2857 C   0  0  0  0  0  0
  -28.0019  -24.5689   20.1438 C   0  0  0  0  0  0
  -29.7867  -16.0663   21.0715 N   0  0  0  0  0  0
  -28.7743  -21.7215   20.2503 N   0  3  0  0  0  0
  -30.1727  -19.2506   22.8773 O   0  0  0  0  0  0
  -31.4844  -12.7898   19.2034 H   0  0  0  0  0  0
  -30.4648  -11.6504   20.0232 H   0  0  0  0  0  0
  -29.8690  -11.7688   17.5845 H   0  0  0  0  0  0
  -29.6134  -13.4925   17.7107 H   0  0  0  0  0  0
  -27.9690  -11.2745   18.9714 H   0  0  0  0  0  0
  -27.4080  -12.4505   17.8093 H   0  0  0  0  0  0
  -27.6131  -14.2490   19.4306 H   0  0  0  0  0  0
  -28.7580  -12.2177   21.4045 H   0  0  0  0  0  0
  -28.2960  -13.8458   21.7886 H   0  0  0  0  0  0
  -25.2759   -9.5694   22.4734 H   0  0  0  0  0  0
  -23.9997   -7.4645   22.7478 H   0  0  0  0  0  0
  -21.0809   -8.8776   19.8972 H   0  0  0  0  0  0
  -22.3680  -10.9655   19.6162 H   0  0  0  0  0  0
  -21.2030   -7.6148   23.9729 H   0  0  0  0  0  0
  -21.1472   -6.0504   25.9069 H   0  0  0  0  0  0
  -22.0595   -2.7610   23.2845 H   0  0  0  0  0  0
  -22.4054  -11.9919   22.4849 H   0  0  0  0  0  0
  -21.1092  -13.1303   22.2625 H   0  0  0  0  0  0
  -24.6652  -15.8521   20.5584 H   0  0  0  0  0  0
  -26.2855  -15.6331   20.1291 H   0  0  0  0  0  0
  -26.7286  -32.5276   23.0980 H   0  0  0  0  0  0
  -25.0080  -33.9601   25.0303 H   0  0  0  0  0  0
  -22.7543  -31.2862   21.3743 H   0  0  0  0  0  0
  -23.3762  -35.9572   23.3276 H   0  0  0  0  0  0
  -24.3579  -36.8914   22.2058 H   0  0  0  0  0  0
  -23.7239  -37.6434   23.6699 H   0  0  0  0  0  0
  -26.1679  -31.4592   20.6139 H   0  0  0  0  0  0
  -26.8787  -30.7572   22.0320 H   0  0  0  0  0  0
  -28.1378  -28.7780   21.2340 H   0  0  0  0  0  0
  -25.8981  -25.8235   19.0172 H   0  0  0  0  0  0
  -23.9787  -27.2870   18.9915 H   0  0  0  0  0  0
  -23.8207  -30.5607   19.3968 H   0  0  0  0  0  0
  -22.7937  -29.2319   19.8390 H   0  0  0  0  0  0
  -25.1309  -36.1838   25.0800 H   0  0  0  0  0  0
  -21.0012  -28.3318   24.1353 H   0  0  0  0  0  0
  -20.5692  -26.2335   23.3622 H   0  0  0  0  0  0
  -21.6658  -26.7432   22.1198 H   0  0  0  0  0  0
  -19.6927  -25.6283   21.1261 H   0  0  0  0  0  0
  -19.6708  -27.3176   20.6731 H   0  0  0  0  0  0
  -17.4216  -26.6679   21.4029 H   0  0  0  0  0  0
  -18.0346  -26.0087   22.9028 H   0  0  0  0  0  0
  -19.7958  -30.7298   24.2226 H   0  0  0  0  0  0
  -17.5035  -31.6274   24.5164 H   0  0  0  0  0  0
  -15.5369  -30.2981   23.7682 H   0  0  0  0  0  0
  -15.8691  -28.0816   22.7092 H   0  0  0  0  0  0
  -24.5846  -30.7188   25.7741 H   0  0  0  0  0  0
  -24.8952  -32.2993   26.4809 H   0  0  0  0  0  0
  -25.7978  -30.8966   27.0213 H   0  0  0  0  0  0
  -26.3003  -29.6677   24.1316 H   0  0  0  0  0  0
  -27.3961  -29.7257   25.4910 H   0  0  0  0  0  0
  -27.8929  -30.4170   23.9664 H   0  0  0  0  0  0
  -27.2613  -33.3643   26.2051 H   0  0  0  0  0  0
  -28.3866  -32.6926   25.0348 H   0  0  0  0  0  0
  -28.0711  -31.8507   26.5443 H   0  0  0  0  0  0
  -28.2572  -38.0090   24.7515 H   0  0  0  0  0  0
  -28.1087  -36.2616   24.6270 H   0  0  0  0  0  0
  -27.2295  -37.1404   25.8863 H   0  0  0  0  0  0
  -20.9484  -29.8758   21.6778 H   0  0  0  0  0  0
  -26.0141  -38.2799   24.1440 H   0  0  0  0  0  0
  -29.9919  -18.4905   17.1475 H   0  0  0  0  0  0
  -28.3705  -18.9522   16.7175 H   0  0  0  0  0  0
  -28.6915  -21.2120   17.5687 H   0  0  0  0  0  0
  -30.0542  -20.8324   16.5627 H   0  0  0  0  0  0
  -28.4871  -17.4912   18.7581 H   0  0  0  0  0  0
  -27.6873  -19.0042   19.0960 H   0  0  0  0  0  0
  -30.8876  -21.9200   18.6071 H   0  0  0  0  0  0
  -31.4544  -20.3107   18.5530 H   0  0  0  0  0  0
  -31.5845  -16.4527   23.3445 H   0  0  0  0  0  0
  -30.2118  -17.1441   24.1988 H   0  0  0  0  0  0
  -28.6289  -16.0271   22.8306 H   0  0  0  0  0  0
  -29.9217  -14.8624   22.8986 H   0  0  0  0  0  0
  -30.6265  -18.5685   19.4869 H   0  0  0  0  0  0
  -28.7196  -17.8286   21.5119 H   0  0  0  0  0  0
  -30.6296  -20.7672   20.8170 H   0  0  0  0  0  0
  -31.6777  -18.2063   21.8740 H   0  0  0  0  0  0
  -30.6688  -20.7574   24.1919 H   0  0  0  0  0  0
  -32.0102  -20.1704   23.2097 H   0  0  0  0  0  0
  -31.4059  -19.2026   24.5637 H   0  0  0  0  0  0
  -29.6649  -23.4542   21.2149 H   0  0  0  0  0  0
  -29.8443  -23.4951   19.5037 H   0  0  0  0  0  0
  -27.2270  -24.3820   20.8874 H   0  0  0  0  0  0
  -27.5193  -24.4016   19.1820 H   0  0  0  0  0  0
  -28.2955  -21.5033   21.1107 H   0  0  0  0  0  0
  -28.0949  -21.5865   19.5189 H   0  0  0  0  0  0
  1 25  1  0  0  0
  1 30  2  0  0  0
  1 84  1  0  0  0
  2  3  1  0  0  0
  2 25  1  0  0  0
  2 87  1  0  0  0
  2 88  1  0  0  0
  3  4  1  0  0  0
  3 89  1  0  0  0
  3 90  1  0  0  0
  4  5  1  0  0  0
  4 91  1  0  0  0
  4 92  1  0  0  0
  5  6  1  0  0  0
  5 26  1  0  0  0
  5 93  1  0  0  0
  6 25  1  0  0  0
  6 94  1  0  0  0
  6 95  1  0  0  0
  7  8  2  0  0  0
  7 26  1  0  0  0
  7 29  1  0  0  0
  8  9  1  0  0  0
  8 22  1  0  0  0
  9 10  1  0  0  0
  9 27  2  0  0  0
 10 11  2  0  0  0
 10 15  1  0  0  0
 11 12  1  0  0  0
 11 96  1  0  0  0
 12 13  2  0  0  0
 12 97  1  0  0  0
 13 14  1  0  0  0
 13 31  1  0  0  0
 14 15  2  0  0  0
 14 98  1  0  0  0
 15 99  1  0  0  0
 16 17  2  0  0  0
 16 21  1  0  0  0
 16 31  1  0  0  0
 17 18  1  0  0  0
 17100  1  0  0  0
 18 19  2  0  0  0
 18101  1  0  0  0
 19 20  1  0  0  0
 19 24  1  0  0  0
 20 21  2  0  0  0
 20102  1  0  0  0
 21 23  1  0  0  0
 22 28  1  0  0  0
 22 32  2  0  0  0
 26 27  1  0  0  0
 28103  1  0  0  0
 28104  1  0  0  0
 29105  1  0  0  0
 29106  1  0  0  0
 33 34  1  0  0  0
 33 66  1  0  0  0
 33 70  2  0  0  0
 34 36  1  0  0  0
 34 59  1  0  0  0
 34107  1  0  0  0
 35 44  2  0  0  0
 35 45  1  0  0  0
 35 68  1  0  0  0
 36 56  1  0  0  0
 36108  1  0  0  0
 37 39  1  0  0  0
 37 47  1  0  0  0
 37 66  1  0  0  0
 37109  1  0  0  0
 38 43  2  0  0  0
 38 46  1  0  0  0
 38 47  1  0  0  0
 39 64  1  0  0  0
 39 67  2  0  0  0
 40 52  1  0  0  0
 40 53  2  0  0  0
 40 58  1  0  0  0
 41110  1  0  0  0
 41111  1  0  0  0
 41112  1  0  0  0
 41 48  1  0  0  0
 42 43  1  0  0  0
 42 66  1  0  0  0
 42113  1  0  0  0
 42114  1  0  0  0
 43 44  1  0  0  0
 44115  1  0  0  0
 45 46  2  0  0  0
 45116  1  0  0  0
 46117  1  0  0  0
 47118  1  0  0  0
 47119  1  0  0  0
 48 56  1  0  0  0
 48 65  1  0  0  0
 48120  1  0  0  0
 49 50  1  0  0  0
 49 53  1  0  0  0
 49 64  1  0  0  0
 49121  1  0  0  0
 50 51  1  0  0  0
 50122  1  0  0  0
 50123  1  0  0  0
 51 52  1  0  0  0
 51124  1  0  0  0
 51125  1  0  0  0
 52126  1  0  0  0
 52127  1  0  0  0
 53 54  1  0  0  0
 54 55  2  0  0  0
 54128  1  0  0  0
 55 57  1  0  0  0
 55129  1  0  0  0
 56 69  2  0  0  0
 57 58  2  0  0  0
 57130  1  0  0  0
 58131  1  0  0  0
 59 60  1  0  0  0
 59 61  1  0  0  0
 59 62  1  0  0  0
 60132  1  0  0  0
 60133  1  0  0  0
 60134  1  0  0  0
 61135  1  0  0  0
 61136  1  0  0  0
 61137  1  0  0  0
 62138  1  0  0  0
 62139  1  0  0  0
 62140  1  0  0  0
 63 65  1  0  0  0
 63141  1  0  0  0
 63142  1  0  0  0
 63143  1  0  0  0
 64144  1  0  0  0
 65145  1  0  0  0
 68 83  1  0  0  0
 71 72  1  0  0  0
 71 73  1  0  0  0
 71146  1  0  0  0
 71147  1  0  0  0
 72 74  1  0  0  0
 72148  1  0  0  0
 72149  1  0  0  0
 73150  1  0  0  0
 73151  1  0  0  0
 73 77  1  0  0  0
 74 79  1  0  0  0
 74152  1  0  0  0
 74153  1  0  0  0
 75 76  1  0  0  0
 75 80  1  0  0  0
 75154  1  0  0  0
 75155  1  0  0  0
 76 84  1  0  0  0
 76156  1  0  0  0
 76157  1  0  0  0
 77 78  1  0  0  0
 77 79  1  0  0  0
 77158  1  0  0  0
 78 80  1  0  0  0
 78 84  1  0  0  0
 78159  1  0  0  0
 79 85  1  0  0  0
 79160  1  0  0  0
 80 86  1  0  0  0
 80161  1  0  0  0
 81 86  1  0  0  0
 81162  1  0  0  0
 81163  1  0  0  0
 81164  1  0  0  0
 82 83  1  0  0  0
 82 85  1  0  0  0
 82165  1  0  0  0
 82166  1  0  0  0
 83167  1  0  0  0
 83168  1  0  0  0
 85169  1  0  0  0
 85170  1  0  0  0
M  CHG  1  85   1
M  ISO  4   1 100  68 101  83 101  84 100
M  END
> <chiral flag>
0

> <version>
0

> <s_m_source_file>
/data/baiqing/PycharmProjects/Reinvent-master-3.2/result/LINK_invent/BTK/process_docking_weight1_custom_sum_contain_oxygen_bond_distance_aromatic_linkinvent_7_9_3/rearranged_h_0132.sdf

> <i_m_source_file_index>
24

> <r_mmod_Potential_Energy-OPLS-2005>
835.097534179688

> <r_mmod_Stretch_Energy-OPLS-2005>
326.059692382812

> <r_mmod_Bend_Energy-OPLS-2005>
435.027465820312

> <r_mmod_Torsional_Energy-OPLS-2005>
374.459045410156

> <r_mmod_Improper_Torsional_Energy-OPLS-2005>
6.92646455764771

> <r_mmod_Van_der_Waal_Energy-OPLS-2005>
127.321640014648

> <r_mmod_Electrostatic_Energy-OPLS-2005>
-229.469451904297

> <r_mmod_Solvation_Energy-OPLS-2005>
-410.788360595703

> <b_mmod_Minimization_Converged-OPLS-2005>
0

> <r_mmod_RMS_Derivative-OPLS-2005>
1.69974648952484

$$$$
24
                    3D
 Structure written by MMmdl.
155163  0  0  1  0            999 V2000
  -30.6229  -14.6511   20.4933 C   0  0  0  0  0  0
  -30.4293  -12.3986   19.4530 C   0  0  0  0  0  0
  -29.5009  -12.5054   18.2235 C   0  0  0  0  0  0
  -28.0266  -12.3354   18.6414 C   0  0  0  0  0  0
  -27.6459  -13.2191   19.8589 C   0  0  2  0  0  0
  -28.6896  -13.0962   20.9892 C   0  0  0  0  0  0
  -25.2516  -13.8166   20.5664 C   0  0  0  0  0  0
  -24.1801  -13.0420   20.9175 C   0  0  0  0  0  0
  -24.6381  -11.6895   20.8740 C   0  0  0  0  0  0
  -23.9045  -10.4279   21.0416 C   0  0  0  0  0  0
  -24.3605   -9.4204   21.9197 C   0  0  0  0  0  0
  -23.6288   -8.2237   22.0762 C   0  0  0  0  0  0
  -22.4277   -8.0265   21.3546 C   0  0  0  0  0  0
  -21.9902   -9.0233   20.4648 C   0  0  0  0  0  0
  -22.7222  -10.2119   20.3062 C   0  0  0  0  0  0
  -21.6848   -6.0724   22.5277 C   0  0  0  0  0  0
  -21.4012   -6.5633   23.8208 C   0  0  0  0  0  0
  -21.3660   -5.6792   24.9174 C   0  0  0  0  0  0
  -21.6055   -4.3056   24.7230 C   0  0  0  0  0  0
  -21.8812   -3.8145   23.4347 C   0  0  0  0  0  0
  -21.9190   -4.6957   22.3400 C   0  0  0  0  0  0
  -22.7831  -13.5219   21.1861 C   0  0  0  0  0  0
  -22.1661   -4.2139   21.0977 F   0  0  0  0  0  0
  -21.5632   -3.4543   25.7741 F   0  0  0  0  0  0
  -29.9984  -13.4340   20.4123 N   0  0  0  0  0  0
  -26.2951  -12.9360   20.3323 N   0  0  0  0  0  0
  -25.9313  -11.6508   20.5760 N   0  0  0  0  0  0
  -22.0489  -12.8196   22.0413 N   0  0  0  0  0  0
  -25.4188  -15.1888   20.4029 N   0  0  0  0  0  0
  -31.8063  -14.7851   20.1705 O   0  0  0  0  0  0
  -21.6638   -6.8873   21.4244 O   0  0  0  0  0  0
  -22.3514  -14.5532   20.6727 O   0  0  0  0  0  0
  -24.6291  -31.8574   23.2026 C   0  0  0  0  0  0
  -25.9136  -32.4755   23.8352 C   0  0  1  0  0  0
  -27.2146  -27.2981   20.1087 C   0  0  0  0  0  0
  -25.5959  -33.8554   24.2283 N   0  0  0  0  0  0
  -23.4208  -30.4864   21.5425 C   0  0  2  0  0  0
  -24.8641  -28.9405   20.1074 C   0  0  0  0  0  0
  -22.7473  -29.4612   22.4886 C   0  0  0  0  0  0
  -18.0290  -28.1392   22.8468 C   0  0  0  0  0  0
  -24.1477  -36.7255   23.2618 C   0  0  0  0  0  0
  -25.9641  -30.7831   21.3738 C   0  0  0  0  0  0
  -26.0346  -29.4083   20.7160 C   0  0  0  0  0  0
  -27.2081  -28.5965   20.7114 C   0  0  0  0  0  0
  -26.0089  -26.8769   19.4997 C   0  0  0  0  0  0
  -24.8547  -27.6800   19.4920 C   0  0  0  0  0  0
  -23.6375  -29.8283   20.1554 C   0  0  0  0  0  0
  -25.4087  -36.3039   24.0331 C   0  0  1  0  0  0
  -20.5888  -28.3678   23.1268 C   0  0  2  0  0  0
  -20.6773  -26.9395   22.5393 C   0  0  0  0  0  0
  -19.5750  -26.6384   21.5196 C   0  0  0  0  0  0
  -18.1929  -26.7940   22.1604 C   0  0  0  0  0  0
  -19.1545  -28.8863   23.2870 C   0  0  0  0  0  0
  -18.9480  -30.1467   23.8885 C   0  0  0  0  0  0
  -17.6474  -30.6594   24.0563 C   0  0  0  0  0  0
  -25.9058  -34.9430   23.5099 C   0  0  0  0  0  0
  -16.5365  -29.9084   23.6355 C   0  0  0  0  0  0
  -16.7278  -28.6516   23.0344 C   0  0  0  0  0  0
  -26.4539  -31.6562   25.0727 C   0  0  0  0  0  0
  -25.3776  -31.3634   26.1465 C   0  0  0  0  0  0
  -27.0397  -30.3008   24.6150 C   0  0  0  0  0  0
  -27.6137  -32.4281   25.7474 C   0  0  0  0  0  0
  -27.5632  -37.1678   24.8400 C   0  0  0  0  0  0
  -21.4187  -29.3043   22.3676 N   0  0  0  0  0  0
  -26.4205  -37.3805   23.9547 N   0  0  0  0  0  0
  -24.6908  -31.0581   22.0972 N   0  0  0  0  0  0
  -23.4201  -28.8144   23.2956 O   0  0  0  0  0  0
  -28.3319  -26.4463   20.1876 O   0  0  0  0  0  0
  -26.5607  -34.8914   22.4653 O   0  0  0  0  0  0
  -23.5461  -32.1379   23.7342 O   0  0  0  0  0  0
  -29.2264  -22.8194   18.9448 C   0  0  0  0  0  0
  -29.4044  -21.4464   19.2939 C   0  0  0  0  0  0
  -28.2845  -23.2938   21.0964 C   0  0  0  0  0  0
  -28.6813  -23.7919   19.8294 C   0  0  0  0  0  0
  -28.4428  -21.9115   21.4519 C   0  0  0  0  0  0
  -29.0341  -20.9509   20.5688 C   0  0  0  0  0  0
  -27.9433  -21.4579   22.8124 C   0  0  0  0  0  0
  -28.4841  -25.2697   19.3016 C   0  0  0  0  0  0
  -29.5590  -18.3665   20.2071 C   0  0  0  0  0  0
  -30.2271  -17.1711   21.0412 C   0  0  0  0  0  0
  -29.2393  -19.5937   21.0058 N   0  0  0  0  0  0
  -29.8354  -15.7404   20.7677 N   0  0  0  0  0  0
  -31.4730  -12.5166   19.1557 H   0  0  0  0  0  0
  -30.3550  -11.4076   19.9055 H   0  0  0  0  0  0
  -29.7683  -11.7540   17.4792 H   0  0  0  0  0  0
  -29.6364  -13.4760   17.7435 H   0  0  0  0  0  0
  -27.8768  -11.2844   18.8913 H   0  0  0  0  0  0
  -27.3651  -12.5455   17.7994 H   0  0  0  0  0  0
  -27.6568  -14.2498   19.5054 H   0  0  0  0  0  0
  -28.7045  -12.0816   21.3916 H   0  0  0  0  0  0
  -28.4384  -13.7465   21.8293 H   0  0  0  0  0  0
  -25.2751   -9.5678   22.4769 H   0  0  0  0  0  0
  -23.9990   -7.4636   22.7498 H   0  0  0  0  0  0
  -21.0830   -8.8755   19.8960 H   0  0  0  0  0  0
  -22.3687  -10.9658   19.6165 H   0  0  0  0  0  0
  -21.2000   -7.6142   23.9704 H   0  0  0  0  0  0
  -21.1498   -6.0528   25.9072 H   0  0  0  0  0  0
  -22.0591   -2.7603   23.2853 H   0  0  0  0  0  0
  -22.4107  -11.9823   22.4734 H   0  0  0  0  0  0
  -21.1130  -13.1238   22.2693 H   0  0  0  0  0  0
  -24.6391  -15.8324   20.4813 H   0  0  0  0  0  0
  -26.2569  -15.6281   20.0448 H   0  0  0  0  0  0
  -26.7199  -32.5421   23.1087 H   0  0  0  0  0  0
  -25.0213  -33.9698   25.0494 H   0  0  0  0  0  0
  -22.7152  -31.3086   21.4023 H   0  0  0  0  0  0
  -23.3807  -35.9500   23.3080 H   0  0  0  0  0  0
  -24.3630  -36.9071   22.2078 H   0  0  0  0  0  0
  -23.7117  -37.6347   23.6759 H   0  0  0  0  0  0
  -26.0950  -31.5408   20.6009 H   0  0  0  0  0  0
  -26.8467  -30.8340   21.9991 H   0  0  0  0  0  0
  -28.1067  -28.9470   21.2007 H   0  0  0  0  0  0
  -25.9041  -25.8977   19.0598 H   0  0  0  0  0  0
  -23.9500  -27.3129   19.0272 H   0  0  0  0  0  0
  -23.7653  -30.6129   19.4089 H   0  0  0  0  0  0
  -22.7529  -29.2694   19.8438 H   0  0  0  0  0  0
  -25.1198  -36.1820   25.0790 H   0  0  0  0  0  0
  -20.9991  -28.3249   24.1377 H   0  0  0  0  0  0
  -20.5670  -26.2257   23.3576 H   0  0  0  0  0  0
  -21.6640  -26.7407   22.1187 H   0  0  0  0  0  0
  -19.6901  -25.6292   21.1231 H   0  0  0  0  0  0
  -19.6723  -27.3187   20.6724 H   0  0  0  0  0  0
  -17.4184  -26.6697   21.4014 H   0  0  0  0  0  0
  -18.0347  -26.0068   22.9002 H   0  0  0  0  0  0
  -19.7949  -30.7315   24.2211 H   0  0  0  0  0  0
  -17.5020  -31.6273   24.5167 H   0  0  0  0  0  0
  -15.5365  -30.2978   23.7700 H   0  0  0  0  0  0
  -15.8672  -28.0860   22.7023 H   0  0  0  0  0  0
  -24.6062  -30.6823   25.7822 H   0  0  0  0  0  0
  -24.8826  -32.2732   26.4859 H   0  0  0  0  0  0
  -25.8163  -30.8909   27.0260 H   0  0  0  0  0  0
  -26.2954  -29.6706   24.1268 H   0  0  0  0  0  0
  -27.4244  -29.7304   25.4612 H   0  0  0  0  0  0
  -27.8736  -30.4330   23.9252 H   0  0  0  0  0  0
  -27.2859  -33.3662   26.1940 H   0  0  0  0  0  0
  -28.4008  -32.6670   25.0305 H   0  0  0  0  0  0
  -28.0712  -31.8428   26.5458 H   0  0  0  0  0  0
  -28.2285  -38.0310   24.7997 H   0  0  0  0  0  0
  -28.1475  -36.2934   24.5512 H   0  0  0  0  0  0
  -27.2468  -37.0435   25.8766 H   0  0  0  0  0  0
  -20.9340  -29.8796   21.6929 H   0  0  0  0  0  0
  -26.0044  -38.2757   24.1925 H   0  0  0  0  0  0
  -29.5231  -23.1338   17.9537 H   0  0  0  0  0  0
  -29.8394  -20.7823   18.5596 H   0  0  0  0  0  0
  -27.8369  -23.9787   21.8015 H   0  0  0  0  0  0
  -27.3581  -22.2340   23.3079 H   0  0  0  0  0  0
  -28.7842  -21.1959   23.4551 H   0  0  0  0  0  0
  -27.3023  -20.5804   22.7071 H   0  0  0  0  0  0
  -27.7492  -25.2338   18.5009 H   0  0  0  0  0  0
  -29.4089  -25.4834   18.7668 H   0  0  0  0  0  0
  -28.6314  -18.0205   19.7497 H   0  0  0  0  0  0
  -30.2177  -18.6318   19.3785 H   0  0  0  0  0  0
  -29.9850  -17.3164   22.0947 H   0  0  0  0  0  0
  -31.3143  -17.2651   20.9963 H   0  0  0  0  0  0
  -28.9166  -19.3971   21.9484 H   0  0  0  0  0  0
  -28.8660  -15.5206   20.9378 H   0  0  0  0  0  0
  1 25  1  0  0  0
  1 30  2  0  0  0
  1 82  1  0  0  0
  2  3  1  0  0  0
  2 25  1  0  0  0
  2 83  1  0  0  0
  2 84  1  0  0  0
  3  4  1  0  0  0
  3 85  1  0  0  0
  3 86  1  0  0  0
  4  5  1  0  0  0
  4 87  1  0  0  0
  4 88  1  0  0  0
  5  6  1  0  0  0
  5 26  1  0  0  0
  5 89  1  0  0  0
  6 25  1  0  0  0
  6 90  1  0  0  0
  6 91  1  0  0  0
  7  8  2  0  0  0
  7 26  1  0  0  0
  7 29  1  0  0  0
  8  9  1  0  0  0
  8 22  1  0  0  0
  9 10  1  0  0  0
  9 27  2  0  0  0
 10 11  2  0  0  0
 10 15  1  0  0  0
 11 12  1  0  0  0
 11 92  1  0  0  0
 12 13  2  0  0  0
 12 93  1  0  0  0
 13 14  1  0  0  0
 13 31  1  0  0  0
 14 15  2  0  0  0
 14 94  1  0  0  0
 15 95  1  0  0  0
 16 17  2  0  0  0
 16 21  1  0  0  0
 16 31  1  0  0  0
 17 18  1  0  0  0
 17 96  1  0  0  0
 18 19  2  0  0  0
 18 97  1  0  0  0
 19 20  1  0  0  0
 19 24  1  0  0  0
 20 21  2  0  0  0
 20 98  1  0  0  0
 21 23  1  0  0  0
 22 28  1  0  0  0
 22 32  2  0  0  0
 26 27  1  0  0  0
 28 99  1  0  0  0
 28100  1  0  0  0
 29101  1  0  0  0
 29102  1  0  0  0
 33 34  1  0  0  0
 33 66  1  0  0  0
 33 70  2  0  0  0
 34 36  1  0  0  0
 34 59  1  0  0  0
 34103  1  0  0  0
 35 44  2  0  0  0
 35 45  1  0  0  0
 35 68  1  0  0  0
 36 56  1  0  0  0
 36104  1  0  0  0
 37 39  1  0  0  0
 37 47  1  0  0  0
 37 66  1  0  0  0
 37105  1  0  0  0
 38 43  2  0  0  0
 38 46  1  0  0  0
 38 47  1  0  0  0
 39 64  1  0  0  0
 39 67  2  0  0  0
 40 52  1  0  0  0
 40 53  2  0  0  0
 40 58  1  0  0  0
 41106  1  0  0  0
 41107  1  0  0  0
 41108  1  0  0  0
 41 48  1  0  0  0
 42 43  1  0  0  0
 42 66  1  0  0  0
 42109  1  0  0  0
 42110  1  0  0  0
 43 44  1  0  0  0
 44111  1  0  0  0
 45 46  2  0  0  0
 45112  1  0  0  0
 46113  1  0  0  0
 47114  1  0  0  0
 47115  1  0  0  0
 48 56  1  0  0  0
 48 65  1  0  0  0
 48116  1  0  0  0
 49 50  1  0  0  0
 49 53  1  0  0  0
 49 64  1  0  0  0
 49117  1  0  0  0
 50 51  1  0  0  0
 50118  1  0  0  0
 50119  1  0  0  0
 51 52  1  0  0  0
 51120  1  0  0  0
 51121  1  0  0  0
 52122  1  0  0  0
 52123  1  0  0  0
 53 54  1  0  0  0
 54 55  2  0  0  0
 54124  1  0  0  0
 55 57  1  0  0  0
 55125  1  0  0  0
 56 69  2  0  0  0
 57 58  2  0  0  0
 57126  1  0  0  0
 58127  1  0  0  0
 59 60  1  0  0  0
 59 61  1  0  0  0
 59 62  1  0  0  0
 60128  1  0  0  0
 60129  1  0  0  0
 60130  1  0  0  0
 61131  1  0  0  0
 61132  1  0  0  0
 61133  1  0  0  0
 62134  1  0  0  0
 62135  1  0  0  0
 62136  1  0  0  0
 63 65  1  0  0  0
 63137  1  0  0  0
 63138  1  0  0  0
 63139  1  0  0  0
 64140  1  0  0  0
 65141  1  0  0  0
 68 78  1  0  0  0
 71 72  2  0  0  0
 71 74  1  0  0  0
 71142  1  0  0  0
 72 76  1  0  0  0
 72143  1  0  0  0
 73 74  2  0  0  0
 73 75  1  0  0  0
 73144  1  0  0  0
 74 78  1  0  0  0
 75 76  2  0  0  0
 75 77  1  0  0  0
 76 81  1  0  0  0
 77145  1  0  0  0
 77146  1  0  0  0
 77147  1  0  0  0
 78148  1  0  0  0
 78149  1  0  0  0
 79 80  1  0  0  0
 79 81  1  0  0  0
 79150  1  0  0  0
 79151  1  0  0  0
 80 82  1  0  0  0
 80152  1  0  0  0
 80153  1  0  0  0
 81154  1  0  0  0
 82155  1  0  0  0
M  ISO  4   1 100  68 101  78 101  82 100
M  END
> <chiral flag>
0

> <version>
0

> <s_m_source_file>
/data/baiqing/PycharmProjects/Reinvent-master-3.2/result/LINK_invent/BTK/process_docking_weight1_custom_sum_contain_oxygen_bond_distance_aromatic_linkinvent_7_9_3/rearranged_h_0132.sdf

> <i_m_source_file_index>
25

> <r_mmod_Potential_Energy-OPLS-2005>
2.75107836723328

> <r_mmod_Stretch_Energy-OPLS-2005>
82.9481582641602

> <r_mmod_Bend_Energy-OPLS-2005>
169.712844848633

> <r_mmod_Torsional_Energy-OPLS-2005>
206.219131469727

> <r_mmod_Improper_Torsional_Energy-OPLS-2005>
5.20110940933228

> <r_mmod_Van_der_Waal_Energy-OPLS-2005>
144.788864135742

> <r_mmod_Electrostatic_Energy-OPLS-2005>
-444.659606933594

> <r_mmod_Solvation_Energy-OPLS-2005>
-218.855834960938

> <b_mmod_Minimization_Converged-OPLS-2005>
0

> <r_mmod_RMS_Derivative-OPLS-2005>
3.17561507225037

$$$$
25
                    3D
 Structure written by MMmdl.
177187  0  0  1  0            999 V2000
  -30.7658  -14.4272   20.6690 C   0  0  0  0  0  0
  -30.4256  -12.3179   19.4288 C   0  0  0  0  0  0
  -29.5005  -12.5321   18.2120 C   0  0  0  0  0  0
  -28.0175  -12.3917   18.6122 C   0  0  0  0  0  0
  -27.6666  -13.2038   19.8864 C   0  0  2  0  0  0
  -28.7021  -12.9141   20.9908 C   0  0  0  0  0  0
  -25.2592  -13.8164   20.5665 C   0  0  0  0  0  0
  -24.1842  -13.0446   20.9167 C   0  0  0  0  0  0
  -24.6388  -11.6904   20.8723 C   0  0  0  0  0  0
  -23.9060  -10.4300   21.0399 C   0  0  0  0  0  0
  -24.3613   -9.4209   21.9175 C   0  0  0  0  0  0
  -23.6291   -8.2243   22.0748 C   0  0  0  0  0  0
  -22.4273   -8.0290   21.3551 C   0  0  0  0  0  0
  -21.9912   -9.0252   20.4639 C   0  0  0  0  0  0
  -22.7238  -10.2125   20.3039 C   0  0  0  0  0  0
  -21.6848   -6.0745   22.5284 C   0  0  0  0  0  0
  -21.4015   -6.5642   23.8221 C   0  0  0  0  0  0
  -21.3655   -5.6790   24.9177 C   0  0  0  0  0  0
  -21.6043   -4.3059   24.7227 C   0  0  0  0  0  0
  -21.8818   -3.8150   23.4348 C   0  0  0  0  0  0
  -21.9196   -4.6972   22.3404 C   0  0  0  0  0  0
  -22.7871  -13.5240   21.1848 C   0  0  0  0  0  0
  -22.1658   -4.2158   21.0986 F   0  0  0  0  0  0
  -21.5629   -3.4535   25.7735 F   0  0  0  0  0  0
  -30.0377  -13.2811   20.4818 N   0  0  0  0  0  0
  -26.3031  -12.9315   20.3379 N   0  0  0  0  0  0
  -25.9310  -11.6478   20.5743 N   0  0  0  0  0  0
  -22.0510  -12.8210   22.0390 N   0  0  0  0  0  0
  -25.4362  -15.1874   20.4077 N   0  0  0  0  0  0
  -31.8255  -14.6024   20.0536 O   0  0  0  0  0  0
  -21.6637   -6.8881   21.4246 O   0  0  0  0  0  0
  -22.3559  -14.5559   20.6730 O   0  0  0  0  0  0
  -24.6121  -31.8663   23.2125 C   0  0  0  0  0  0
  -25.9032  -32.4801   23.8382 C   0  0  1  0  0  0
  -27.2273  -27.4465   20.0773 C   0  0  0  0  0  0
  -25.5913  -33.8604   24.2327 N   0  0  0  0  0  0
  -23.3960  -30.4951   21.5483 C   0  0  2  0  0  0
  -24.8389  -28.9620   20.1101 C   0  0  0  0  0  0
  -22.7376  -29.4679   22.4955 C   0  0  0  0  0  0
  -18.0274  -28.1359   22.8494 C   0  0  0  0  0  0
  -24.1474  -36.7302   23.2643 C   0  0  0  0  0  0
  -25.9251  -30.8320   21.3656 C   0  0  0  0  0  0
  -25.9975  -29.4667   20.7148 C   0  0  0  0  0  0
  -27.1908  -28.7091   20.7094 C   0  0  0  0  0  0
  -26.0549  -26.9655   19.4489 C   0  0  0  0  0  0
  -24.8610  -27.7051   19.4814 C   0  0  0  0  0  0
  -23.6030  -29.8320   20.1601 C   0  0  0  0  0  0
  -25.4086  -36.3087   24.0355 C   0  0  1  0  0  0
  -20.5854  -28.3644   23.1305 C   0  0  2  0  0  0
  -20.6751  -26.9381   22.5409 C   0  0  0  0  0  0
  -19.5735  -26.6369   21.5204 C   0  0  0  0  0  0
  -18.1914  -26.7908   22.1624 C   0  0  0  0  0  0
  -19.1517  -28.8825   23.2900 C   0  0  0  0  0  0
  -18.9460  -30.1439   23.8883 C   0  0  0  0  0  0
  -17.6467  -30.6574   24.0576 C   0  0  0  0  0  0
  -25.9030  -34.9458   23.5133 C   0  0  0  0  0  0
  -16.5350  -29.9081   23.6339 C   0  0  0  0  0  0
  -16.7267  -28.6507   23.0338 C   0  0  0  0  0  0
  -26.4470  -31.6570   25.0696 C   0  0  0  0  0  0
  -25.3778  -31.3713   26.1494 C   0  0  0  0  0  0
  -27.0316  -30.3012   24.6092 C   0  0  0  0  0  0
  -27.6042  -32.4267   25.7460 C   0  0  0  0  0  0
  -27.5570  -37.1797   24.8466 C   0  0  0  0  0  0
  -21.4109  -29.3032   22.3709 N   0  0  0  0  0  0
  -26.4263  -37.3779   23.9439 N   0  0  0  0  0  0
  -24.6618  -31.0784   22.1003 N   0  0  0  0  0  0
  -23.4164  -28.8225   23.2975 O   0  0  0  0  0  0
  -28.4058  -26.7232   20.0780 O   0  0  0  0  0  0
  -26.5572  -34.8926   22.4676 O   0  0  0  0  0  0
  -23.5320  -32.1408   23.7536 O   0  0  0  0  0  0
  -32.8676  -19.8705   23.8697 C   0  0  0  0  0  0
  -32.2524  -21.1247   23.9880 C   0  0  0  0  0  0
  -32.1672  -18.8013   23.2829 C   0  0  0  0  0  0
  -30.9482  -21.3069   23.4995 C   0  0  0  0  0  0
  -30.8527  -18.9659   22.7793 C   0  0  0  0  0  0
  -30.2429  -20.2538   22.8739 C   0  0  0  0  0  0
  -29.6809  -16.7703   23.3426 C   0  0  0  0  0  0
  -27.5854  -23.3056   21.3435 C   0  0  0  0  0  0
  -29.4268  -15.4577   22.5994 C   0  0  0  0  0  0
  -27.7279  -24.8396   21.3189 C   0  0  0  0  0  0
  -30.8795  -16.8074   21.2865 C   0  0  0  0  0  0
  -29.5357  -24.7115   19.7363 C   0  0  0  0  0  0
  -30.1103  -17.7304   22.2448 C   0  0  2  0  0  0
  -28.9399  -22.6388   21.0515 C   0  0  2  0  0  0
  -29.4737  -23.1604   19.7038 C   0  0  2  0  0  0
  -31.3485  -22.6565   18.1229 C   0  0  0  0  0  0
  -28.8403  -20.5704   22.3570 C   0  0  0  0  0  0
  -30.2627  -15.4713   21.3933 N   0  0  0  0  0  0
  -28.2082  -25.2785   20.0033 N   0  0  0  0  0  0
  -28.8484  -21.1736   21.0211 N   0  0  0  0  0  0
  -30.7967  -22.5433   19.4866 N   0  3  0  0  0  0
  -31.4685  -12.4137   19.1208 H   0  0  0  0  0  0
  -30.3384  -11.2975   19.8032 H   0  0  0  0  0  0
  -29.7449  -11.8179   17.4244 H   0  0  0  0  0  0
  -29.6723  -13.5237   17.7899 H   0  0  0  0  0  0
  -27.8180  -11.3334   18.7840 H   0  0  0  0  0  0
  -27.3725  -12.6926   17.7861 H   0  0  0  0  0  0
  -27.7320  -14.2616   19.6334 H   0  0  0  0  0  0
  -28.6911  -11.8483   21.2255 H   0  0  0  0  0  0
  -28.4069  -13.3592   21.9291 H   0  0  0  0  0  0
  -25.2764   -9.5685   22.4742 H   0  0  0  0  0  0
  -24.0008   -7.4627   22.7455 H   0  0  0  0  0  0
  -21.0850   -8.8768   19.8933 H   0  0  0  0  0  0
  -22.3716  -10.9660   19.6134 H   0  0  0  0  0  0
  -21.2003   -7.6149   23.9730 H   0  0  0  0  0  0
  -21.1474   -6.0519   25.9083 H   0  0  0  0  0  0
  -22.0602   -2.7615   23.2841 H   0  0  0  0  0  0
  -22.4114  -11.9833   22.4721 H   0  0  0  0  0  0
  -21.1124  -13.1223   22.2608 H   0  0  0  0  0  0
  -24.6779  -15.8526   20.5135 H   0  0  0  0  0  0
  -26.2980  -15.6169   20.0960 H   0  0  0  0  0  0
  -26.7094  -32.5503   23.1137 H   0  0  0  0  0  0
  -25.0111  -33.9749   25.0516 H   0  0  0  0  0  0
  -22.6855  -31.3123   21.4123 H   0  0  0  0  0  0
  -23.3737  -35.9638   23.3265 H   0  0  0  0  0  0
  -24.3615  -36.8933   22.2076 H   0  0  0  0  0  0
  -23.7218  -37.6503   23.6664 H   0  0  0  0  0  0
  -26.0364  -31.5965   20.5959 H   0  0  0  0  0  0
  -26.8139  -30.8818   21.9809 H   0  0  0  0  0  0
  -28.0826  -29.0932   21.1867 H   0  0  0  0  0  0
  -26.0502  -26.0142   18.9349 H   0  0  0  0  0  0
  -23.9752  -27.3077   19.0047 H   0  0  0  0  0  0
  -23.7132  -30.6093   19.4025 H   0  0  0  0  0  0
  -22.7260  -29.2541   19.8599 H   0  0  0  0  0  0
  -25.1257  -36.1917   25.0842 H   0  0  0  0  0  0
  -20.9970  -28.3179   24.1423 H   0  0  0  0  0  0
  -20.5618  -26.2258   23.3584 H   0  0  0  0  0  0
  -21.6618  -26.7399   22.1218 H   0  0  0  0  0  0
  -19.6885  -25.6288   21.1206 H   0  0  0  0  0  0
  -19.6663  -27.3208   20.6748 H   0  0  0  0  0  0
  -17.4183  -26.6670   21.4023 H   0  0  0  0  0  0
  -18.0318  -26.0042   22.8998 H   0  0  0  0  0  0
  -19.7941  -30.7263   24.2199 H   0  0  0  0  0  0
  -17.5041  -31.6252   24.5185 H   0  0  0  0  0  0
  -15.5355  -30.2998   23.7692 H   0  0  0  0  0  0
  -15.8656  -28.0859   22.7011 H   0  0  0  0  0  0
  -24.5899  -30.7089   25.7902 H   0  0  0  0  0  0
  -24.9054  -32.2902   26.4968 H   0  0  0  0  0  0
  -25.8170  -30.8883   27.0236 H   0  0  0  0  0  0
  -26.2879  -29.6736   24.1183 H   0  0  0  0  0  0
  -27.4132  -29.7274   25.4553 H   0  0  0  0  0  0
  -27.8686  -30.4327   23.9233 H   0  0  0  0  0  0
  -27.2672  -33.3579   26.2021 H   0  0  0  0  0  0
  -28.3896  -32.6772   25.0317 H   0  0  0  0  0  0
  -28.0668  -31.8385   26.5401 H   0  0  0  0  0  0
  -28.2551  -38.0123   24.7526 H   0  0  0  0  0  0
  -28.1066  -36.2654   24.6212 H   0  0  0  0  0  0
  -27.2306  -37.1346   25.8868 H   0  0  0  0  0  0
  -20.9203  -29.8823   21.7034 H   0  0  0  0  0  0
  -26.0121  -38.2835   24.1467 H   0  0  0  0  0  0
  -33.8694  -19.7235   24.2505 H   0  0  0  0  0  0
  -32.7758  -21.9462   24.4592 H   0  0  0  0  0  0
  -32.6522  -17.8368   23.2512 H   0  0  0  0  0  0
  -30.4825  -22.2737   23.6245 H   0  0  0  0  0  0
  -30.4922  -16.6216   24.0576 H   0  0  0  0  0  0
  -28.8111  -17.1252   23.8963 H   0  0  0  0  0  0
  -26.8317  -22.9956   20.6154 H   0  0  0  0  0  0
  -27.2113  -23.0057   22.3232 H   0  0  0  0  0  0
  -28.3771  -15.4377   22.3055 H   0  0  0  0  0  0
  -29.6401  -14.6047   23.2458 H   0  0  0  0  0  0
  -28.4087  -25.1704   22.1039 H   0  0  0  0  0  0
  -26.7544  -25.2826   21.5310 H   0  0  0  0  0  0
  -31.9274  -16.7143   21.5714 H   0  0  0  0  0  0
  -30.8569  -17.1846   20.2627 H   0  0  0  0  0  0
  -29.8919  -25.0943   18.7795 H   0  0  0  0  0  0
  -30.2390  -25.0429   20.5015 H   0  0  0  0  0  0
  -29.2235  -18.0304   21.6908 H   0  0  0  0  0  0
  -29.6429  -22.9481   21.8224 H   0  0  0  0  0  0
  -28.8025  -22.8491   18.9003 H   0  0  0  0  0  0
  -32.2627  -22.0671   18.0435 H   0  0  0  0  0  0
  -31.5993  -23.6899   17.8817 H   0  0  0  0  0  0
  -30.6435  -22.2829   17.3806 H   0  0  0  0  0  0
  -28.3377  -21.2246   23.0709 H   0  0  0  0  0  0
  -28.2196  -19.6755   22.3497 H   0  0  0  0  0  0
  -28.0279  -20.8647   20.5051 H   0  0  0  0  0  0
  -30.6403  -21.5683   19.7019 H   0  0  0  0  0  0
  -31.4618  -22.8891   20.1588 H   0  0  0  0  0  0
  1 25  1  0  0  0
  1 30  2  0  0  0
  1 88  1  0  0  0
  2  3  1  0  0  0
  2 25  1  0  0  0
  2 92  1  0  0  0
  2 93  1  0  0  0
  3  4  1  0  0  0
  3 94  1  0  0  0
  3 95  1  0  0  0
  4  5  1  0  0  0
  4 96  1  0  0  0
  4 97  1  0  0  0
  5  6  1  0  0  0
  5 26  1  0  0  0
  5 98  1  0  0  0
  6 25  1  0  0  0
  6 99  1  0  0  0
  6100  1  0  0  0
  7  8  2  0  0  0
  7 26  1  0  0  0
  7 29  1  0  0  0
  8  9  1  0  0  0
  8 22  1  0  0  0
  9 10  1  0  0  0
  9 27  2  0  0  0
 10 11  2  0  0  0
 10 15  1  0  0  0
 11 12  1  0  0  0
 11101  1  0  0  0
 12 13  2  0  0  0
 12102  1  0  0  0
 13 14  1  0  0  0
 13 31  1  0  0  0
 14 15  2  0  0  0
 14103  1  0  0  0
 15104  1  0  0  0
 16 17  2  0  0  0
 16 21  1  0  0  0
 16 31  1  0  0  0
 17 18  1  0  0  0
 17105  1  0  0  0
 18 19  2  0  0  0
 18106  1  0  0  0
 19 20  1  0  0  0
 19 24  1  0  0  0
 20 21  2  0  0  0
 20107  1  0  0  0
 21 23  1  0  0  0
 22 28  1  0  0  0
 22 32  2  0  0  0
 26 27  1  0  0  0
 28108  1  0  0  0
 28109  1  0  0  0
 29110  1  0  0  0
 29111  1  0  0  0
 33 34  1  0  0  0
 33 66  1  0  0  0
 33 70  2  0  0  0
 34 36  1  0  0  0
 34 59  1  0  0  0
 34112  1  0  0  0
 35 44  2  0  0  0
 35 45  1  0  0  0
 35 68  1  0  0  0
 36 56  1  0  0  0
 36113  1  0  0  0
 37 39  1  0  0  0
 37 47  1  0  0  0
 37 66  1  0  0  0
 37114  1  0  0  0
 38 43  2  0  0  0
 38 46  1  0  0  0
 38 47  1  0  0  0
 39 64  1  0  0  0
 39 67  2  0  0  0
 40 52  1  0  0  0
 40 53  2  0  0  0
 40 58  1  0  0  0
 41115  1  0  0  0
 41116  1  0  0  0
 41117  1  0  0  0
 41 48  1  0  0  0
 42 43  1  0  0  0
 42 66  1  0  0  0
 42118  1  0  0  0
 42119  1  0  0  0
 43 44  1  0  0  0
 44120  1  0  0  0
 45 46  2  0  0  0
 45121  1  0  0  0
 46122  1  0  0  0
 47123  1  0  0  0
 47124  1  0  0  0
 48 56  1  0  0  0
 48 65  1  0  0  0
 48125  1  0  0  0
 49 50  1  0  0  0
 49 53  1  0  0  0
 49 64  1  0  0  0
 49126  1  0  0  0
 50 51  1  0  0  0
 50127  1  0  0  0
 50128  1  0  0  0
 51 52  1  0  0  0
 51129  1  0  0  0
 51130  1  0  0  0
 52131  1  0  0  0
 52132  1  0  0  0
 53 54  1  0  0  0
 54 55  2  0  0  0
 54133  1  0  0  0
 55 57  1  0  0  0
 55134  1  0  0  0
 56 69  2  0  0  0
 57 58  2  0  0  0
 57135  1  0  0  0
 58136  1  0  0  0
 59 60  1  0  0  0
 59 61  1  0  0  0
 59 62  1  0  0  0
 60137  1  0  0  0
 60138  1  0  0  0
 60139  1  0  0  0
 61140  1  0  0  0
 61141  1  0  0  0
 61142  1  0  0  0
 62143  1  0  0  0
 62144  1  0  0  0
 62145  1  0  0  0
 63 65  1  0  0  0
 63146  1  0  0  0
 63147  1  0  0  0
 63148  1  0  0  0
 64149  1  0  0  0
 65150  1  0  0  0
 68 89  1  0  0  0
 71 72  2  0  0  0
 71 73  1  0  0  0
 71151  1  0  0  0
 72 74  1  0  0  0
 72152  1  0  0  0
 73 75  2  0  0  0
 73153  1  0  0  0
 74 76  2  0  0  0
 74154  1  0  0  0
 75 76  1  0  0  0
 75 83  1  0  0  0
 76 87  1  0  0  0
 77 79  1  0  0  0
 77 83  1  0  0  0
 77155  1  0  0  0
 77156  1  0  0  0
 78 80  1  0  0  0
 78 84  1  0  0  0
 78157  1  0  0  0
 78158  1  0  0  0
 79 88  1  0  0  0
 79159  1  0  0  0
 79160  1  0  0  0
 80 89  1  0  0  0
 80161  1  0  0  0
 80162  1  0  0  0
 81 83  1  0  0  0
 81 88  1  0  0  0
 81163  1  0  0  0
 81164  1  0  0  0
 82 85  1  0  0  0
 82 89  1  0  0  0
 82165  1  0  0  0
 82166  1  0  0  0
 83167  1  0  0  0
 84 85  1  0  0  0
 84 90  1  0  0  0
 84168  1  0  0  0
 85 91  1  0  0  0
 85169  1  0  0  0
 86 91  1  0  0  0
 86170  1  0  0  0
 86171  1  0  0  0
 86172  1  0  0  0
 87 90  1  0  0  0
 87173  1  0  0  0
 87174  1  0  0  0
 90175  1  0  0  0
 91176  1  0  0  0
 91177  1  0  0  0
M  CHG  1  91   1
M  ISO  4   1 100  68 101  88 100  89 101
M  END
> <chiral flag>
0

> <version>
0

> <s_m_source_file>
/data/baiqing/PycharmProjects/Reinvent-master-3.2/result/LINK_invent/BTK/process_docking_weight1_custom_sum_contain_oxygen_bond_distance_aromatic_linkinvent_7_9_3/rearranged_h_0132.sdf

> <i_m_source_file_index>
26

> <r_mmod_Potential_Energy-OPLS-2005>
-5.57507181167603

> <r_mmod_Stretch_Energy-OPLS-2005>
44.087776184082

> <r_mmod_Bend_Energy-OPLS-2005>
152.029922485352

> <r_mmod_Torsional_Energy-OPLS-2005>
335.465454101562

> <r_mmod_Improper_Torsional_Energy-OPLS-2005>
4.8204402923584

> <r_mmod_Van_der_Waal_Energy-OPLS-2005>
178.810256958008

> <r_mmod_Electrostatic_Energy-OPLS-2005>
-295.211334228516

> <r_mmod_Solvation_Energy-OPLS-2005>
-436.217681884766

> <b_mmod_Minimization_Converged-OPLS-2005>
0

> <r_mmod_RMS_Derivative-OPLS-2005>
3.2897264957428

$$$$
26
                    3D
 Structure written by MMmdl.
173182  0  0  1  0            999 V2000
  -30.7295  -14.4948   20.5289 C   0  0  0  0  0  0
  -30.4165  -12.3157   19.4185 C   0  0  0  0  0  0
  -29.4844  -12.4840   18.2026 C   0  0  0  0  0  0
  -28.0101  -12.3213   18.6240 C   0  0  0  0  0  0
  -27.6428  -13.1796   19.8616 C   0  0  2  0  0  0
  -28.7017  -13.0463   20.9828 C   0  0  0  0  0  0
  -25.2555  -13.8055   20.5712 C   0  0  0  0  0  0
  -24.1793  -13.0377   20.9216 C   0  0  0  0  0  0
  -24.6326  -11.6837   20.8785 C   0  0  0  0  0  0
  -23.9001  -10.4247   21.0439 C   0  0  0  0  0  0
  -24.3576   -9.4169   21.9204 C   0  0  0  0  0  0
  -23.6265   -8.2203   22.0760 C   0  0  0  0  0  0
  -22.4252   -8.0248   21.3545 C   0  0  0  0  0  0
  -21.9873   -9.0218   20.4650 C   0  0  0  0  0  0
  -22.7187  -10.2102   20.3068 C   0  0  0  0  0  0
  -21.6841   -6.0716   22.5282 C   0  0  0  0  0  0
  -21.3999   -6.5628   23.8212 C   0  0  0  0  0  0
  -21.3653   -5.6783   24.9177 C   0  0  0  0  0  0
  -21.6045   -4.3045   24.7230 C   0  0  0  0  0  0
  -21.8822   -3.8133   23.4353 C   0  0  0  0  0  0
  -21.9189   -4.6947   22.3409 C   0  0  0  0  0  0
  -22.7832  -13.5215   21.1861 C   0  0  0  0  0  0
  -22.1663   -4.2136   21.0985 F   0  0  0  0  0  0
  -21.5632   -3.4527   25.7744 F   0  0  0  0  0  0
  -30.0276  -13.3319   20.4068 N   0  0  0  0  0  0
  -26.2935  -12.9144   20.3380 N   0  0  0  0  0  0
  -25.9240  -11.6348   20.5825 N   0  0  0  0  0  0
  -22.0453  -12.8227   22.0420 N   0  0  0  0  0  0
  -25.4300  -15.1772   20.4098 N   0  0  0  0  0  0
  -31.9000  -14.6128   20.1593 O   0  0  0  0  0  0
  -21.6622   -6.8848   21.4238 O   0  0  0  0  0  0
  -22.3546  -14.5532   20.6706 O   0  0  0  0  0  0
  -24.6107  -31.8697   23.2107 C   0  0  0  0  0  0
  -25.9011  -32.4834   23.8398 C   0  0  1  0  0  0
  -27.2453  -27.4576   20.1048 C   0  0  0  0  0  0
  -25.5886  -33.8632   24.2336 N   0  0  0  0  0  0
  -23.3992  -30.4904   21.5495 C   0  0  2  0  0  0
  -24.8513  -28.9567   20.1142 C   0  0  0  0  0  0
  -22.7395  -29.4662   22.4999 C   0  0  0  0  0  0
  -18.0268  -28.1373   22.8497 C   0  0  0  0  0  0
  -24.1484  -36.7313   23.2636 C   0  0  0  0  0  0
  -25.9235  -30.8429   21.3601 C   0  0  0  0  0  0
  -26.0055  -29.4766   20.7138 C   0  0  0  0  0  0
  -27.2053  -28.7336   20.7110 C   0  0  0  0  0  0
  -26.0829  -26.9506   19.4899 C   0  0  0  0  0  0
  -24.8839  -27.6914   19.4990 C   0  0  0  0  0  0
  -23.6082  -29.8172   20.1650 C   0  0  0  0  0  0
  -25.4101  -36.3119   24.0345 C   0  0  1  0  0  0
  -20.5855  -28.3655   23.1334 C   0  0  2  0  0  0
  -20.6758  -26.9394   22.5430 C   0  0  0  0  0  0
  -19.5744  -26.6382   21.5217 C   0  0  0  0  0  0
  -18.1916  -26.7927   22.1615 C   0  0  0  0  0  0
  -19.1515  -28.8830   23.2913 C   0  0  0  0  0  0
  -18.9445  -30.1438   23.8918 C   0  0  0  0  0  0
  -17.6451  -30.6585   24.0563 C   0  0  0  0  0  0
  -25.9031  -34.9486   23.5139 C   0  0  0  0  0  0
  -16.5340  -29.9088   23.6328 C   0  0  0  0  0  0
  -16.7255  -28.6501   23.0352 C   0  0  0  0  0  0
  -26.4458  -31.6604   25.0713 C   0  0  0  0  0  0
  -25.3740  -31.3710   26.1478 C   0  0  0  0  0  0
  -27.0267  -30.3045   24.6058 C   0  0  0  0  0  0
  -27.6049  -32.4313   25.7459 C   0  0  0  0  0  0
  -27.5592  -37.1791   24.8452 C   0  0  0  0  0  0
  -21.4125  -29.3023   22.3739 N   0  0  0  0  0  0
  -26.4282  -37.3809   23.9433 N   0  0  0  0  0  0
  -24.6623  -31.0818   22.0993 N   0  0  0  0  0  0
  -23.4181  -28.8213   23.3038 O   0  0  0  0  0  0
  -28.3862  -26.6895   20.1108 O   0  0  0  0  0  0
  -26.5594  -34.8937   22.4700 O   0  0  0  0  0  0
  -23.5307  -32.1432   23.7520 O   0  0  0  0  0  0
  -31.1013  -17.8239   21.4895 C   0  0  0  0  0  0
  -29.6683  -17.6087   19.4734 C   0  0  0  0  0  0
  -31.4629  -22.1471   20.0102 C   0  0  0  0  0  0
  -30.5387  -16.4730   22.0107 C   0  0  0  0  0  0
  -29.1283  -16.2700   20.0011 C   0  0  0  0  0  0
  -31.4229  -23.5385   20.6720 C   0  0  0  0  0  0
  -29.2411  -23.0416   21.6703 C   0  0  0  0  0  0
  -30.0865  -18.5678   20.5944 C   0  0  0  0  0  0
  -30.6377  -21.0810   20.7726 C   0  0  1  0  0  0
  -29.2117  -21.6374   21.0108 C   0  0  2  0  0  0
  -27.1692  -21.6906   19.7590 C   0  0  0  0  0  0
  -30.0414  -25.4140   21.4437 C   0  0  0  0  0  0
  -28.6975  -26.1788   21.4110 C   0  0  0  0  0  0
  -30.0382  -15.5883   20.9405 N   0  0  0  0  0  0
  -30.0316  -24.0299   20.8742 N   0  3  1  0  0  0
  -30.6294  -19.8128   19.9846 N   0  3  0  0  0  0
  -28.5927  -21.7184   19.7269 O   0  0  0  0  0  0
  -31.4600  -12.4052   19.1105 H   0  0  0  0  0  0
  -30.3159  -11.3175   19.8479 H   0  0  0  0  0  0
  -29.7340  -11.7521   17.4331 H   0  0  0  0  0  0
  -29.6349  -13.4659   17.7510 H   0  0  0  0  0  0
  -27.8432  -11.2666   18.8454 H   0  0  0  0  0  0
  -27.3504  -12.5631   17.7897 H   0  0  0  0  0  0
  -27.6200  -14.1981   19.5064 H   0  0  0  0  0  0
  -28.6931  -12.0378   21.3984 H   0  0  0  0  0  0
  -28.4672  -13.7142   21.8134 H   0  0  0  0  0  0
  -25.2724   -9.5652   22.4775 H   0  0  0  0  0  0
  -23.9981   -7.4588   22.7471 H   0  0  0  0  0  0
  -21.0806   -8.8726   19.8957 H   0  0  0  0  0  0
  -22.3648  -10.9641   19.6178 H   0  0  0  0  0  0
  -21.1982   -7.6137   23.9710 H   0  0  0  0  0  0
  -21.1473   -6.0514   25.9078 H   0  0  0  0  0  0
  -22.0607   -2.7596   23.2853 H   0  0  0  0  0  0
  -22.4040  -11.9873   22.4801 H   0  0  0  0  0  0
  -21.1080  -13.1271   22.2629 H   0  0  0  0  0  0
  -24.6658  -15.8351   20.5179 H   0  0  0  0  0  0
  -26.2850  -15.6107   20.0888 H   0  0  0  0  0  0
  -26.7083  -32.5567   23.1170 H   0  0  0  0  0  0
  -25.0054  -33.9799   25.0493 H   0  0  0  0  0  0
  -22.6863  -31.3058   21.4091 H   0  0  0  0  0  0
  -23.3764  -35.9622   23.3268 H   0  0  0  0  0  0
  -24.3592  -36.8954   22.2057 H   0  0  0  0  0  0
  -23.7203  -37.6497   23.6662 H   0  0  0  0  0  0
  -26.0285  -31.6072   20.5886 H   0  0  0  0  0  0
  -26.8134  -30.9027   21.9743 H   0  0  0  0  0  0
  -28.0947  -29.1389   21.1731 H   0  0  0  0  0  0
  -26.1039  -25.9783   19.0181 H   0  0  0  0  0  0
  -23.9977  -27.2857   19.0306 H   0  0  0  0  0  0
  -23.7084  -30.5893   19.4012 H   0  0  0  0  0  0
  -22.7347  -29.2302   19.8748 H   0  0  0  0  0  0
  -25.1268  -36.1979   25.0835 H   0  0  0  0  0  0
  -20.9950  -28.3217   24.1455 H   0  0  0  0  0  0
  -20.5658  -26.2262   23.3611 H   0  0  0  0  0  0
  -21.6629  -26.7440   22.1225 H   0  0  0  0  0  0
  -19.6906  -25.6298   21.1234 H   0  0  0  0  0  0
  -19.6698  -27.3202   20.6758 H   0  0  0  0  0  0
  -17.4201  -26.6702   21.3996 H   0  0  0  0  0  0
  -18.0293  -26.0051   22.8988 H   0  0  0  0  0  0
  -19.7925  -30.7244   24.2297 H   0  0  0  0  0  0
  -17.5010  -31.6271   24.5156 H   0  0  0  0  0  0
  -15.5342  -30.2996   23.7644 H   0  0  0  0  0  0
  -15.8654  -28.0828   22.7059 H   0  0  0  0  0  0
  -24.5906  -30.7058   25.7834 H   0  0  0  0  0  0
  -24.8939  -32.2866   26.4942 H   0  0  0  0  0  0
  -25.8109  -30.8878   27.0226 H   0  0  0  0  0  0
  -26.2786  -29.6819   24.1138 H   0  0  0  0  0  0
  -27.4071  -29.7271   25.4495 H   0  0  0  0  0  0
  -27.8614  -30.4367   23.9170 H   0  0  0  0  0  0
  -27.2682  -33.3610   26.2061 H   0  0  0  0  0  0
  -28.3840  -32.6877   25.0265 H   0  0  0  0  0  0
  -28.0736  -31.8419   26.5350 H   0  0  0  0  0  0
  -28.2569  -38.0132   24.7580 H   0  0  0  0  0  0
  -28.1134  -36.2675   24.6162 H   0  0  0  0  0  0
  -27.2338  -37.1299   25.8858 H   0  0  0  0  0  0
  -20.9279  -29.8738   21.6961 H   0  0  0  0  0  0
  -26.0176  -38.2878   24.1486 H   0  0  0  0  0  0
  -32.0197  -17.6332   20.9322 H   0  0  0  0  0  0
  -31.3836  -18.4491   22.3372 H   0  0  0  0  0  0
  -28.9055  -18.0726   18.8457 H   0  0  0  0  0  0
  -30.5196  -17.4102   18.8195 H   0  0  0  0  0  0
  -32.5023  -21.8261   19.9290 H   0  0  0  0  0  0
  -31.0992  -22.2430   18.9855 H   0  0  0  0  0  0
  -29.7136  -16.6614   22.6991 H   0  0  0  0  0  0
  -31.3030  -15.9610   22.5994 H   0  0  0  0  0  0
  -28.9702  -15.6673   19.1082 H   0  0  0  0  0  0
  -28.1606  -16.4093   20.4836 H   0  0  0  0  0  0
  -31.9751  -24.2421   20.0465 H   0  0  0  0  0  0
  -31.9441  -23.5081   21.6310 H   0  0  0  0  0  0
  -29.6754  -22.9556   22.6674 H   0  0  0  0  0  0
  -28.2213  -23.3879   21.8204 H   0  0  0  0  0  0
  -29.1971  -18.7998   21.1808 H   0  0  0  0  0  0
  -31.1119  -20.8928   21.7370 H   0  0  0  0  0  0
  -28.6598  -20.9522   21.6564 H   0  0  0  0  0  0
  -26.7836  -21.7413   18.7404 H   0  0  0  0  0  0
  -26.7490  -22.5342   20.3074 H   0  0  0  0  0  0
  -26.7966  -20.7664   20.2039 H   0  0  0  0  0  0
  -30.3811  -25.3525   22.4788 H   0  0  0  0  0  0
  -30.7822  -26.0250   20.9259 H   0  0  0  0  0  0
  -28.7843  -27.0149   22.1066 H   0  0  0  0  0  0
  -27.8755  -25.5682   21.7844 H   0  0  0  0  0  0
  -29.6094  -24.0925   19.9555 H   0  0  0  0  0  0
  -30.0695  -20.0032   19.1655 H   0  0  0  0  0  0
  -31.5640  -19.6197   19.6600 H   0  0  0  0  0  0
  1 25  1  0  0  0
  1 30  2  0  0  0
  1 84  1  0  0  0
  2  3  1  0  0  0
  2 25  1  0  0  0
  2 88  1  0  0  0
  2 89  1  0  0  0
  3  4  1  0  0  0
  3 90  1  0  0  0
  3 91  1  0  0  0
  4  5  1  0  0  0
  4 92  1  0  0  0
  4 93  1  0  0  0
  5  6  1  0  0  0
  5 26  1  0  0  0
  5 94  1  0  0  0
  6 25  1  0  0  0
  6 95  1  0  0  0
  6 96  1  0  0  0
  7  8  2  0  0  0
  7 26  1  0  0  0
  7 29  1  0  0  0
  8  9  1  0  0  0
  8 22  1  0  0  0
  9 10  1  0  0  0
  9 27  2  0  0  0
 10 11  2  0  0  0
 10 15  1  0  0  0
 11 12  1  0  0  0
 11 97  1  0  0  0
 12 13  2  0  0  0
 12 98  1  0  0  0
 13 14  1  0  0  0
 13 31  1  0  0  0
 14 15  2  0  0  0
 14 99  1  0  0  0
 15100  1  0  0  0
 16 17  2  0  0  0
 16 21  1  0  0  0
 16 31  1  0  0  0
 17 18  1  0  0  0
 17101  1  0  0  0
 18 19  2  0  0  0
 18102  1  0  0  0
 19 20  1  0  0  0
 19 24  1  0  0  0
 20 21  2  0  0  0
 20103  1  0  0  0
 21 23  1  0  0  0
 22 28  1  0  0  0
 22 32  2  0  0  0
 26 27  1  0  0  0
 28104  1  0  0  0
 28105  1  0  0  0
 29106  1  0  0  0
 29107  1  0  0  0
 33 34  1  0  0  0
 33 66  1  0  0  0
 33 70  2  0  0  0
 34 36  1  0  0  0
 34 59  1  0  0  0
 34108  1  0  0  0
 35 44  2  0  0  0
 35 45  1  0  0  0
 35 68  1  0  0  0
 36 56  1  0  0  0
 36109  1  0  0  0
 37 39  1  0  0  0
 37 47  1  0  0  0
 37 66  1  0  0  0
 37110  1  0  0  0
 38 43  2  0  0  0
 38 46  1  0  0  0
 38 47  1  0  0  0
 39 64  1  0  0  0
 39 67  2  0  0  0
 40 52  1  0  0  0
 40 53  2  0  0  0
 40 58  1  0  0  0
 41111  1  0  0  0
 41112  1  0  0  0
 41113  1  0  0  0
 41 48  1  0  0  0
 42 43  1  0  0  0
 42 66  1  0  0  0
 42114  1  0  0  0
 42115  1  0  0  0
 43 44  1  0  0  0
 44116  1  0  0  0
 45 46  2  0  0  0
 45117  1  0  0  0
 46118  1  0  0  0
 47119  1  0  0  0
 47120  1  0  0  0
 48 56  1  0  0  0
 48 65  1  0  0  0
 48121  1  0  0  0
 49 50  1  0  0  0
 49 53  1  0  0  0
 49 64  1  0  0  0
 49122  1  0  0  0
 50 51  1  0  0  0
 50123  1  0  0  0
 50124  1  0  0  0
 51 52  1  0  0  0
 51125  1  0  0  0
 51126  1  0  0  0
 52127  1  0  0  0
 52128  1  0  0  0
 53 54  1  0  0  0
 54 55  2  0  0  0
 54129  1  0  0  0
 55 57  1  0  0  0
 55130  1  0  0  0
 56 69  2  0  0  0
 57 58  2  0  0  0
 57131  1  0  0  0
 58132  1  0  0  0
 59 60  1  0  0  0
 59 61  1  0  0  0
 59 62  1  0  0  0
 60133  1  0  0  0
 60134  1  0  0  0
 60135  1  0  0  0
 61136  1  0  0  0
 61137  1  0  0  0
 61138  1  0  0  0
 62139  1  0  0  0
 62140  1  0  0  0
 62141  1  0  0  0
 63 65  1  0  0  0
 63142  1  0  0  0
 63143  1  0  0  0
 63144  1  0  0  0
 64145  1  0  0  0
 65146  1  0  0  0
 68 83  1  0  0  0
 71 74  1  0  0  0
 71 78  1  0  0  0
 71147  1  0  0  0
 71148  1  0  0  0
 72 75  1  0  0  0
 72 78  1  0  0  0
 72149  1  0  0  0
 72150  1  0  0  0
 73 76  1  0  0  0
 73 79  1  0  0  0
 73151  1  0  0  0
 73152  1  0  0  0
 74 84  1  0  0  0
 74153  1  0  0  0
 74154  1  0  0  0
 75 84  1  0  0  0
 75155  1  0  0  0
 75156  1  0  0  0
 76 85  1  0  0  0
 76157  1  0  0  0
 76158  1  0  0  0
 77 80  1  0  0  0
 77 85  1  0  0  0
 77159  1  0  0  0
 77160  1  0  0  0
 78 86  1  0  0  0
 78161  1  0  0  0
 79 80  1  0  0  0
 79 86  1  0  0  0
 79162  1  0  0  0
 80 87  1  0  0  0
 80163  1  0  0  0
 81 87  1  0  0  0
 81164  1  0  0  0
 81165  1  0  0  0
 81166  1  0  0  0
 82 83  1  0  0  0
 82167  1  0  0  0
 82168  1  0  0  0
 82 85  1  0  0  0
 83169  1  0  0  0
 83170  1  0  0  0
 85171  1  0  0  0
 86172  1  0  0  0
 86173  1  0  0  0
M  CHG  2  85   1  86   1
M  ISO  4   1 100  68 101  83 101  84 100
M  END
> <chiral flag>
0

> <version>
0

> <s_m_source_file>
/data/baiqing/PycharmProjects/Reinvent-master-3.2/result/LINK_invent/BTK/process_docking_weight1_custom_sum_contain_oxygen_bond_distance_aromatic_linkinvent_7_9_3/rearranged_h_0132.sdf

> <i_m_source_file_index>
27

> <r_mmod_Potential_Energy-OPLS-2005>
9.57282447814941

> <r_mmod_Stretch_Energy-OPLS-2005>
39.9657173156738

> <r_mmod_Bend_Energy-OPLS-2005>
110.234909057617

> <r_mmod_Torsional_Energy-OPLS-2005>
411.866455078125

> <r_mmod_Improper_Torsional_Energy-OPLS-2005>
4.80533504486084

> <r_mmod_Van_der_Waal_Energy-OPLS-2005>
136.313369750977

> <r_mmod_Electrostatic_Energy-OPLS-2005>
194.115341186523

> <r_mmod_Solvation_Energy-OPLS-2005>
-905.932556152344

> <b_mmod_Minimization_Converged-OPLS-2005>
0

> <r_mmod_RMS_Derivative-OPLS-2005>
0.675052046775818

$$$$
27
                    3D
 Structure written by MMmdl.
160169  0  0  1  0            999 V2000
  -30.6251  -14.7506   20.4617 C   0  0  0  0  0  0
  -30.4270  -12.4613   19.4782 C   0  0  0  0  0  0
  -29.5066  -12.5027   18.2394 C   0  0  0  0  0  0
  -28.0348  -12.3252   18.6570 C   0  0  0  0  0  0
  -27.6385  -13.2344   19.8506 C   0  0  2  0  0  0
  -28.6818  -13.1852   20.9872 C   0  0  0  0  0  0
  -25.2490  -13.8203   20.5703 C   0  0  0  0  0  0
  -24.1783  -13.0442   20.9208 C   0  0  0  0  0  0
  -24.6377  -11.6921   20.8758 C   0  0  0  0  0  0
  -23.9064  -10.4293   21.0413 C   0  0  0  0  0  0
  -24.3612   -9.4205   21.9186 C   0  0  0  0  0  0
  -23.6289   -8.2242   22.0756 C   0  0  0  0  0  0
  -22.4275   -8.0275   21.3543 C   0  0  0  0  0  0
  -21.9905   -9.0252   20.4649 C   0  0  0  0  0  0
  -22.7235  -10.2132   20.3060 C   0  0  0  0  0  0
  -21.6857   -6.0724   22.5278 C   0  0  0  0  0  0
  -21.4009   -6.5631   23.8208 C   0  0  0  0  0  0
  -21.3661   -5.6791   24.9171 C   0  0  0  0  0  0
  -21.6049   -4.3053   24.7230 C   0  0  0  0  0  0
  -21.8820   -3.8137   23.4354 C   0  0  0  0  0  0
  -21.9191   -4.6950   22.3402 C   0  0  0  0  0  0
  -22.7805  -13.5218   21.1874 C   0  0  0  0  0  0
  -22.1662   -4.2130   21.0983 F   0  0  0  0  0  0
  -21.5634   -3.4541   25.7745 F   0  0  0  0  0  0
  -29.9806  -13.5339   20.4000 N   0  0  0  0  0  0
  -26.2914  -12.9414   20.3293 N   0  0  0  0  0  0
  -25.9310  -11.6555   20.5769 N   0  0  0  0  0  0
  -22.0466  -12.8201   22.0438 N   0  0  0  0  0  0
  -25.4161  -15.1930   20.4098 N   0  0  0  0  0  0
  -31.8165  -14.8174   20.1473 O   0  0  0  0  0  0
  -21.6646   -6.8865   21.4237 O   0  0  0  0  0  0
  -22.3483  -14.5524   20.6727 O   0  0  0  0  0  0
  -24.6307  -31.8528   23.1995 C   0  0  0  0  0  0
  -25.9136  -32.4734   23.8337 C   0  0  1  0  0  0
  -27.2123  -27.2465   20.1231 C   0  0  0  0  0  0
  -25.5938  -33.8542   24.2244 N   0  0  0  0  0  0
  -23.4277  -30.4784   21.5424 C   0  0  2  0  0  0
  -24.8733  -28.9302   20.1051 C   0  0  0  0  0  0
  -22.7513  -29.4581   22.4902 C   0  0  0  0  0  0
  -18.0291  -28.1375   22.8478 C   0  0  0  0  0  0
  -24.1492  -36.7280   23.2644 C   0  0  0  0  0  0
  -25.9755  -30.7610   21.3834 C   0  0  0  0  0  0
  -26.0449  -29.3841   20.7230 C   0  0  0  0  0  0
  -27.2127  -28.5538   20.7247 C   0  0  0  0  0  0
  -26.0221  -26.8807   19.4509 C   0  0  0  0  0  0
  -24.8701  -27.6886   19.4558 C   0  0  0  0  0  0
  -23.6463  -29.8187   20.1564 C   0  0  0  0  0  0
  -25.4117  -36.3056   24.0327 C   0  0  1  0  0  0
  -20.5895  -28.3676   23.1255 C   0  0  2  0  0  0
  -20.6777  -26.9391   22.5394 C   0  0  0  0  0  0
  -19.5754  -26.6359   21.5205 C   0  0  0  0  0  0
  -18.1933  -26.7909   22.1620 C   0  0  0  0  0  0
  -19.1545  -28.8848   23.2862 C   0  0  0  0  0  0
  -18.9468  -30.1457   23.8867 C   0  0  0  0  0  0
  -17.6466  -30.6578   24.0560 C   0  0  0  0  0  0
  -25.9054  -34.9429   23.5081 C   0  0  0  0  0  0
  -16.5360  -29.9074   23.6334 C   0  0  0  0  0  0
  -16.7275  -28.6501   23.0337 C   0  0  0  0  0  0
  -26.4502  -31.6576   25.0734 C   0  0  0  0  0  0
  -25.3737  -31.3727   26.1464 C   0  0  0  0  0  0
  -27.0349  -30.2985   24.6234 C   0  0  0  0  0  0
  -27.6040  -32.4336   25.7506 C   0  0  0  0  0  0
  -27.5573  -37.1791   24.8467 C   0  0  0  0  0  0
  -21.4216  -29.3026   22.3654 N   0  0  0  0  0  0
  -26.4278  -37.3759   23.9420 N   0  0  0  0  0  0
  -24.6972  -31.0490   22.0977 N   0  0  0  0  0  0
  -23.4225  -28.8104   23.2973 O   0  0  0  0  0  0
  -28.3052  -26.3445   20.2196 O   0  0  0  0  0  0
  -26.5624  -34.8904   22.4648 O   0  0  0  0  0  0
  -23.5452  -32.1357   23.7274 O   0  0  0  0  0  0
  -30.0869  -20.0195   20.0980 C   0  0  0  0  0  0
  -28.3750  -18.9904   21.0453 C   0  0  0  0  0  0
  -29.6317  -18.7080   20.5514 C   0  0  0  0  0  0
  -29.1349  -21.0093   20.3141 C   0  0  0  0  0  0
  -25.9270  -22.6889   23.0077 C   0  0  0  0  0  0
  -25.3749  -21.3513   23.4193 C   0  0  0  0  0  0
  -26.6871  -21.4224   22.6663 C   0  0  0  0  0  0
  -30.4573  -17.3364   20.4977 C   0  0  0  0  0  0
  -26.7673  -20.9451   21.2257 C   0  0  0  0  0  0
  -28.8577  -23.6613   20.6303 C   0  0  0  0  0  0
  -28.2052  -24.8952   19.7985 C   0  0  0  0  0  0
  -28.0556  -20.3559   20.8934 N   0  0  0  0  0  0
  -29.2115  -22.3933   19.8718 N   0  0  0  0  0  0
  -29.8999  -15.9211   20.6580 N   0  0  0  0  0  0
  -31.4682  -12.5806   19.1725 H   0  0  0  0  0  0
  -30.3714  -11.4886   19.9697 H   0  0  0  0  0  0
  -29.7899  -11.7244   17.5298 H   0  0  0  0  0  0
  -29.6291  -13.4534   17.7185 H   0  0  0  0  0  0
  -27.8977  -11.2783   18.9314 H   0  0  0  0  0  0
  -27.3740  -12.5052   17.8082 H   0  0  0  0  0  0
  -27.6282  -14.2524   19.4612 H   0  0  0  0  0  0
  -28.7197  -12.1939   21.4410 H   0  0  0  0  0  0
  -28.4180  -13.8799   21.7854 H   0  0  0  0  0  0
  -25.2755   -9.5689   22.4764 H   0  0  0  0  0  0
  -24.0001   -7.4631   22.7480 H   0  0  0  0  0  0
  -21.0834   -8.8768   19.8959 H   0  0  0  0  0  0
  -22.3687  -10.9667   19.6174 H   0  0  0  0  0  0
  -21.1999   -7.6138   23.9700 H   0  0  0  0  0  0
  -21.1487   -6.0524   25.9072 H   0  0  0  0  0  0
  -22.0597   -2.7597   23.2863 H   0  0  0  0  0  0
  -22.4087  -11.9852   22.4801 H   0  0  0  0  0  0
  -21.1088  -13.1225   22.2673 H   0  0  0  0  0  0
  -24.6448  -15.8442   20.5111 H   0  0  0  0  0  0
  -26.2585  -15.6312   20.0607 H   0  0  0  0  0  0
  -26.7194  -32.5360   23.1065 H   0  0  0  0  0  0
  -25.0115  -33.9693   25.0403 H   0  0  0  0  0  0
  -22.7250  -31.3022   21.3992 H   0  0  0  0  0  0
  -23.3748  -35.9615   23.3301 H   0  0  0  0  0  0
  -24.3584  -36.8901   22.2058 H   0  0  0  0  0  0
  -23.7244  -37.6479   23.6671 H   0  0  0  0  0  0
  -26.1183  -31.5213   20.6145 H   0  0  0  0  0  0
  -26.8511  -30.8056   22.0198 H   0  0  0  0  0  0
  -28.1052  -28.8949   21.2307 H   0  0  0  0  0  0
  -25.9298  -25.9538   18.9097 H   0  0  0  0  0  0
  -23.9786  -27.3446   18.9495 H   0  0  0  0  0  0
  -23.7734  -30.5993   19.4051 H   0  0  0  0  0  0
  -22.7623  -29.2574   19.8486 H   0  0  0  0  0  0
  -25.1285  -36.1896   25.0813 H   0  0  0  0  0  0
  -20.9994  -28.3234   24.1374 H   0  0  0  0  0  0
  -20.5646  -26.2289   23.3596 H   0  0  0  0  0  0
  -21.6646  -26.7384   22.1204 H   0  0  0  0  0  0
  -19.6923  -25.6268   21.1241 H   0  0  0  0  0  0
  -19.6703  -27.3169   20.6737 H   0  0  0  0  0  0
  -17.4201  -26.6646   21.4027 H   0  0  0  0  0  0
  -18.0341  -26.0041   22.9006 H   0  0  0  0  0  0
  -19.7947  -30.7282   24.2209 H   0  0  0  0  0  0
  -17.5024  -31.6256   24.5165 H   0  0  0  0  0  0
  -15.5357  -30.2975   23.7681 H   0  0  0  0  0  0
  -15.8673  -28.0838   22.7036 H   0  0  0  0  0  0
  -24.5924  -30.7050   25.7812 H   0  0  0  0  0  0
  -24.8925  -32.2898   26.4873 H   0  0  0  0  0  0
  -25.8069  -30.8933   27.0255 H   0  0  0  0  0  0
  -26.2935  -29.6729   24.1244 H   0  0  0  0  0  0
  -27.4004  -29.7252   25.4765 H   0  0  0  0  0  0
  -27.8831  -30.4245   23.9497 H   0  0  0  0  0  0
  -27.2627  -33.3645   26.2044 H   0  0  0  0  0  0
  -28.3867  -32.6876   25.0351 H   0  0  0  0  0  0
  -28.0694  -31.8498   26.5457 H   0  0  0  0  0  0
  -28.2567  -38.0107   24.7498 H   0  0  0  0  0  0
  -28.1079  -36.2625   24.6289 H   0  0  0  0  0  0
  -27.2289  -37.1430   25.8868 H   0  0  0  0  0  0
  -20.9395  -29.8797   21.6908 H   0  0  0  0  0  0
  -26.0152  -38.2819   24.1439 H   0  0  0  0  0  0
  -31.0472  -20.2073   19.6371 H   0  0  0  0  0  0
  -27.6477  -18.3246   21.4903 H   0  0  0  0  0  0
  -26.3376  -23.3264   23.7887 H   0  0  0  0  0  0
  -25.4219  -23.2149   22.1986 H   0  0  0  0  0  0
  -24.5012  -20.9823   22.8846 H   0  0  0  0  0  0
  -25.4161  -21.0933   24.4756 H   0  0  0  0  0  0
  -27.5824  -21.2320   23.2566 H   0  0  0  0  0  0
  -31.2411  -17.4387   21.2494 H   0  0  0  0  0  0
  -30.9858  -17.3539   19.5435 H   0  0  0  0  0  0
  -26.5712  -21.7762   20.5463 H   0  0  0  0  0  0
  -25.9896  -20.2033   21.0398 H   0  0  0  0  0  0
  -28.2243  -23.4225   21.4837 H   0  0  0  0  0  0
  -29.7923  -24.0198   21.0636 H   0  0  0  0  0  0
  -27.1698  -24.5860   19.6938 H   0  0  0  0  0  0
  -28.6149  -24.8692   18.7884 H   0  0  0  0  0  0
  -30.0144  -22.5480   19.2662 H   0  0  0  0  0  0
  -28.9168  -15.8292   20.8629 H   0  0  0  0  0  0
  1 25  1  0  0  0
  1 30  2  0  0  0
  1 84  1  0  0  0
  2  3  1  0  0  0
  2 25  1  0  0  0
  2 85  1  0  0  0
  2 86  1  0  0  0
  3  4  1  0  0  0
  3 87  1  0  0  0
  3 88  1  0  0  0
  4  5  1  0  0  0
  4 89  1  0  0  0
  4 90  1  0  0  0
  5  6  1  0  0  0
  5 26  1  0  0  0
  5 91  1  0  0  0
  6 25  1  0  0  0
  6 92  1  0  0  0
  6 93  1  0  0  0
  7  8  2  0  0  0
  7 26  1  0  0  0
  7 29  1  0  0  0
  8  9  1  0  0  0
  8 22  1  0  0  0
  9 10  1  0  0  0
  9 27  2  0  0  0
 10 11  2  0  0  0
 10 15  1  0  0  0
 11 12  1  0  0  0
 11 94  1  0  0  0
 12 13  2  0  0  0
 12 95  1  0  0  0
 13 14  1  0  0  0
 13 31  1  0  0  0
 14 15  2  0  0  0
 14 96  1  0  0  0
 15 97  1  0  0  0
 16 17  2  0  0  0
 16 21  1  0  0  0
 16 31  1  0  0  0
 17 18  1  0  0  0
 17 98  1  0  0  0
 18 19  2  0  0  0
 18 99  1  0  0  0
 19 20  1  0  0  0
 19 24  1  0  0  0
 20 21  2  0  0  0
 20100  1  0  0  0
 21 23  1  0  0  0
 22 28  1  0  0  0
 22 32  2  0  0  0
 26 27  1  0  0  0
 28101  1  0  0  0
 28102  1  0  0  0
 29103  1  0  0  0
 29104  1  0  0  0
 33 34  1  0  0  0
 33 66  1  0  0  0
 33 70  2  0  0  0
 34 36  1  0  0  0
 34 59  1  0  0  0
 34105  1  0  0  0
 35 44  2  0  0  0
 35 45  1  0  0  0
 35 68  1  0  0  0
 36 56  1  0  0  0
 36106  1  0  0  0
 37 39  1  0  0  0
 37 47  1  0  0  0
 37 66  1  0  0  0
 37107  1  0  0  0
 38 43  2  0  0  0
 38 46  1  0  0  0
 38 47  1  0  0  0
 39 64  1  0  0  0
 39 67  2  0  0  0
 40 52  1  0  0  0
 40 53  2  0  0  0
 40 58  1  0  0  0
 41108  1  0  0  0
 41109  1  0  0  0
 41110  1  0  0  0
 41 48  1  0  0  0
 42 43  1  0  0  0
 42 66  1  0  0  0
 42111  1  0  0  0
 42112  1  0  0  0
 43 44  1  0  0  0
 44113  1  0  0  0
 45 46  2  0  0  0
 45114  1  0  0  0
 46115  1  0  0  0
 47116  1  0  0  0
 47117  1  0  0  0
 48 56  1  0  0  0
 48 65  1  0  0  0
 48118  1  0  0  0
 49 50  1  0  0  0
 49 53  1  0  0  0
 49 64  1  0  0  0
 49119  1  0  0  0
 50 51  1  0  0  0
 50120  1  0  0  0
 50121  1  0  0  0
 51 52  1  0  0  0
 51122  1  0  0  0
 51123  1  0  0  0
 52124  1  0  0  0
 52125  1  0  0  0
 53 54  1  0  0  0
 54 55  2  0  0  0
 54126  1  0  0  0
 55 57  1  0  0  0
 55127  1  0  0  0
 56 69  2  0  0  0
 57 58  2  0  0  0
 57128  1  0  0  0
 58129  1  0  0  0
 59 60  1  0  0  0
 59 61  1  0  0  0
 59 62  1  0  0  0
 60130  1  0  0  0
 60131  1  0  0  0
 60132  1  0  0  0
 61133  1  0  0  0
 61134  1  0  0  0
 61135  1  0  0  0
 62136  1  0  0  0
 62137  1  0  0  0
 62138  1  0  0  0
 63 65  1  0  0  0
 63139  1  0  0  0
 63140  1  0  0  0
 63141  1  0  0  0
 64142  1  0  0  0
 65143  1  0  0  0
 68 81  1  0  0  0
 71 73  1  0  0  0
 71 74  2  0  0  0
 71144  1  0  0  0
 72 73  2  0  0  0
 72 82  1  0  0  0
 72145  1  0  0  0
 73 78  1  0  0  0
 74 82  1  0  0  0
 74 83  1  0  0  0
 75 76  1  0  0  0
 75 77  1  0  0  0
 75146  1  0  0  0
 75147  1  0  0  0
 76 77  1  0  0  0
 76148  1  0  0  0
 76149  1  0  0  0
 77 79  1  0  0  0
 77150  1  0  0  0
 78 84  1  0  0  0
 78151  1  0  0  0
 78152  1  0  0  0
 79 82  1  0  0  0
 79153  1  0  0  0
 79154  1  0  0  0
 80 81  1  0  0  0
 80 83  1  0  0  0
 80155  1  0  0  0
 80156  1  0  0  0
 81157  1  0  0  0
 81158  1  0  0  0
 83159  1  0  0  0
 84160  1  0  0  0
M  ISO  4   1 100  68 101  81 101  84 100
M  END
> <chiral flag>
0

> <version>
0

> <s_m_source_file>
/data/baiqing/PycharmProjects/Reinvent-master-3.2/result/LINK_invent/BTK/process_docking_weight1_custom_sum_contain_oxygen_bond_distance_aromatic_linkinvent_7_9_3/rearranged_h_0132.sdf

> <i_m_source_file_index>
28

> <r_mmod_Potential_Energy-OPLS-2005>
142.988983154297

> <r_mmod_Stretch_Energy-OPLS-2005>
119.066108703613

> <r_mmod_Bend_Energy-OPLS-2005>
193.768432617188

> <r_mmod_Torsional_Energy-OPLS-2005>
268.13818359375

> <r_mmod_Improper_Torsional_Energy-OPLS-2005>
8.51808643341064

> <r_mmod_Van_der_Waal_Energy-OPLS-2005>
115.204193115234

> <r_mmod_Electrostatic_Energy-OPLS-2005>
-431.176330566406

> <r_mmod_Solvation_Energy-OPLS-2005>
-223.315490722656

> <b_mmod_Minimization_Converged-OPLS-2005>
0

> <r_mmod_RMS_Derivative-OPLS-2005>
1.59861385822296

$$$$
28
                    3D
 Structure written by MMmdl.
168177  0  0  1  0            999 V2000
  -30.6457  -14.6215   20.4336 C   0  0  0  0  0  0
  -30.4180  -12.3513   19.4945 C   0  0  0  0  0  0
  -29.5125  -12.4742   18.2490 C   0  0  0  0  0  0
  -28.0333  -12.2965   18.6446 C   0  0  0  0  0  0
  -27.6342  -13.2136   19.8328 C   0  0  2  0  0  0
  -28.6654  -13.1422   20.9812 C   0  0  0  0  0  0
  -25.2489  -13.8208   20.5693 C   0  0  0  0  0  0
  -24.1761  -13.0535   20.9173 C   0  0  0  0  0  0
  -24.6311  -11.6996   20.8695 C   0  0  0  0  0  0
  -23.8984  -10.4381   21.0403 C   0  0  0  0  0  0
  -24.3576   -9.4299   21.9165 C   0  0  0  0  0  0
  -23.6288   -8.2310   22.0712 C   0  0  0  0  0  0
  -22.4271   -8.0317   21.3513 C   0  0  0  0  0  0
  -21.9897   -9.0288   20.4606 C   0  0  0  0  0  0
  -22.7179  -10.2214   20.3035 C   0  0  0  0  0  0
  -21.6831   -6.0733   22.5300 C   0  0  0  0  0  0
  -21.3988   -6.5619   23.8242 C   0  0  0  0  0  0
  -21.3669   -5.6793   24.9207 C   0  0  0  0  0  0
  -21.6062   -4.3051   24.7260 C   0  0  0  0  0  0
  -21.8812   -3.8147   23.4373 C   0  0  0  0  0  0
  -21.9153   -4.6949   22.3442 C   0  0  0  0  0  0
  -22.7781  -13.5265   21.1972 C   0  0  0  0  0  0
  -22.1634   -4.2139   21.1016 F   0  0  0  0  0  0
  -21.5677   -3.4568   25.7780 F   0  0  0  0  0  0
  -29.9918  -13.4182   20.4071 N   0  0  0  0  0  0
  -26.2862  -12.9364   20.3134 N   0  0  0  0  0  0
  -25.9206  -11.6550   20.5581 N   0  0  0  0  0  0
  -22.0471  -12.8169   22.0467 N   0  0  0  0  0  0
  -25.4337  -15.1959   20.4228 N   0  0  0  0  0  0
  -31.8424  -14.7247   20.1596 O   0  0  0  0  0  0
  -21.6639   -6.8909   21.4263 O   0  0  0  0  0  0
  -22.3444  -14.5608   20.6848 O   0  0  0  0  0  0
  -24.6259  -31.8761   23.2233 C   0  0  0  0  0  0
  -25.9130  -32.4876   23.8539 C   0  0  1  0  0  0
  -27.2825  -27.4253   20.1253 C   0  0  0  0  0  0
  -25.5956  -33.8639   24.2460 N   0  0  0  0  0  0
  -23.4425  -30.4890   21.5731 C   0  0  2  0  0  0
  -24.8858  -28.9508   20.1395 C   0  0  0  0  0  0
  -22.7784  -29.4774   22.5308 C   0  0  0  0  0  0
  -17.9903  -28.1106   22.8776 C   0  0  0  0  0  0
  -24.1488  -36.7321   23.2639 C   0  0  0  0  0  0
  -25.9582  -30.8449   21.3776 C   0  0  0  0  0  0
  -26.0448  -29.4712   20.7281 C   0  0  0  0  0  0
  -27.2455  -28.7188   20.7136 C   0  0  0  0  0  0
  -26.1069  -26.9464   19.5015 C   0  0  0  0  0  0
  -24.9125  -27.6853   19.5330 C   0  0  0  0  0  0
  -23.6443  -29.8120   20.1868 C   0  0  0  0  0  0
  -25.4101  -36.3131   24.0367 C   0  0  1  0  0  0
  -20.4743  -28.4469   22.7847 C   0  0  2  0  0  0
  -20.6827  -26.9503   22.5293 C   0  0  0  0  0  0
  -19.5419  -26.4453   21.6226 C   0  0  0  0  0  0
  -18.1455  -26.7427   22.2078 C   0  0  0  0  0  0
  -19.1138  -28.8874   23.2566 C   0  0  0  0  0  0
  -18.9362  -30.1406   23.8746 C   0  0  0  0  0  0
  -17.6399  -30.6480   24.0717 C   0  0  0  0  0  0
  -25.9030  -34.9474   23.5222 C   0  0  0  0  0  0
  -16.5232  -29.8973   23.6737 C   0  0  0  0  0  0
  -16.6972  -28.6240   23.0956 C   0  0  0  0  0  0
  -26.4529  -31.6583   25.0814 C   0  0  0  0  0  0
  -25.3773  -31.3628   26.1538 C   0  0  0  0  0  0
  -27.0319  -30.3015   24.6115 C   0  0  0  0  0  0
  -27.6128  -32.4245   25.7562 C   0  0  0  0  0  0
  -27.5600  -37.1821   24.8486 C   0  0  0  0  0  0
  -21.4557  -29.4377   22.4087 N   0  0  0  0  0  0
  -26.4314  -37.3808   23.9423 N   0  0  0  0  0  0
  -24.6954  -31.0826   22.1173 N   0  0  0  0  0  0
  -23.4278  -28.7502   23.2818 O   0  0  0  0  0  0
  -28.4527  -26.6655   20.1716 O   0  0  0  0  0  0
  -26.5546  -34.8965   22.4756 O   0  0  0  0  0  0
  -23.5404  -32.1490   23.7598 O   0  0  0  0  0  0
  -30.2546  -20.6771   19.8817 C   0  0  0  0  0  0
  -29.4871  -21.8771   20.0468 C   0  0  0  0  0  0
  -28.1992  -21.4556   20.2737 C   0  0  0  0  0  0
  -29.4416  -19.5736   19.7660 C   0  0  0  0  0  0
  -26.7694  -22.5740   22.1570 C   0  0  0  0  0  0
  -25.6738  -22.0293   21.3055 C   0  0  0  0  0  0
  -27.0233  -22.3306   20.6644 C   0  0  0  0  0  0
  -25.9279  -20.0370   18.7961 C   0  0  0  0  0  0
  -26.4115  -18.6868   21.0347 C   0  0  0  0  0  0
  -29.7993  -18.1057   19.4268 C   0  0  0  0  0  0
  -30.2376  -17.1685   20.6169 C   0  0  0  0  0  0
  -28.3711  -25.2338   19.9121 C   0  0  0  0  0  0
  -29.4771  -24.3485   20.5951 C   0  0  0  0  0  0
  -26.9276  -19.2985   19.7252 C   0  0  0  0  0  0
  -28.1425  -20.0823   19.9250 N   0  0  0  0  0  0
  -29.8537  -15.7234   20.5408 N   0  0  0  0  0  0
  -29.9858  -23.1767   19.8925 O   0  0  0  0  0  0
  -31.4750  -12.4219   19.2305 H   0  0  0  0  0  0
  -30.2940  -11.3802   19.9813 H   0  0  0  0  0  0
  -29.7965  -11.7408   17.4927 H   0  0  0  0  0  0
  -29.6404  -13.4566   17.7941 H   0  0  0  0  0  0
  -27.8869  -11.2496   18.9062 H   0  0  0  0  0  0
  -27.3846  -12.4748   17.7868 H   0  0  0  0  0  0
  -27.6357  -14.2328   19.4431 H   0  0  0  0  0  0
  -28.6558  -12.1576   21.4520 H   0  0  0  0  0  0
  -28.4164  -13.8505   21.7747 H   0  0  0  0  0  0
  -25.2742   -9.5813   22.4683 H   0  0  0  0  0  0
  -24.0074   -7.4673   22.7381 H   0  0  0  0  0  0
  -21.0847   -8.8755   19.8836 H   0  0  0  0  0  0
  -22.3615  -10.9752   19.6148 H   0  0  0  0  0  0
  -21.1912   -7.6143   23.9743 H   0  0  0  0  0  0
  -21.1529   -6.0540   25.9116 H   0  0  0  0  0  0
  -22.0533   -2.7601   23.2913 H   0  0  0  0  0  0
  -22.4190  -11.9810   22.4721 H   0  0  0  0  0  0
  -21.1094  -13.1125   22.2905 H   0  0  0  0  0  0
  -24.6845  -15.8730   20.5224 H   0  0  0  0  0  0
  -26.3014  -15.5968   20.1037 H   0  0  0  0  0  0
  -26.7189  -32.5623   23.1311 H   0  0  0  0  0  0
  -25.0196  -33.9787   25.0660 H   0  0  0  0  0  0
  -22.7390  -31.3105   21.4160 H   0  0  0  0  0  0
  -23.3787  -35.9631   23.3321 H   0  0  0  0  0  0
  -24.3631  -36.8892   22.2059 H   0  0  0  0  0  0
  -23.7202  -37.6528   23.6615 H   0  0  0  0  0  0
  -26.0692  -31.6225   20.6218 H   0  0  0  0  0  0
  -26.8420  -30.9040   21.9975 H   0  0  0  0  0  0
  -28.1363  -29.1386   21.1620 H   0  0  0  0  0  0
  -26.0989  -25.9975   18.9866 H   0  0  0  0  0  0
  -24.0275  -27.2672   19.0816 H   0  0  0  0  0  0
  -23.7697  -30.5940   19.4364 H   0  0  0  0  0  0
  -22.7718  -29.2279   19.8770 H   0  0  0  0  0  0
  -25.1246  -36.2076   25.0856 H   0  0  0  0  0  0
  -20.1510  -28.6688   21.7664 H   0  0  0  0  0  0
  -20.6824  -26.3988   23.4695 H   0  0  0  0  0  0
  -21.6406  -26.7627   22.0534 H   0  0  0  0  0  0
  -19.6485  -25.3764   21.4410 H   0  0  0  0  0  0
  -19.6238  -26.9151   20.6390 H   0  0  0  0  0  0
  -17.3942  -26.6394   21.4225 H   0  0  0  0  0  0
  -17.8999  -25.9854   22.9543 H   0  0  0  0  0  0
  -19.7880  -30.7429   24.1498 H   0  0  0  0  0  0
  -17.5066  -31.6192   24.5301 H   0  0  0  0  0  0
  -15.5287  -30.2928   23.8260 H   0  0  0  0  0  0
  -15.8287  -28.0493   22.8028 H   0  0  0  0  0  0
  -24.6024  -30.6873   25.7923 H   0  0  0  0  0  0
  -24.8854  -32.2701   26.4993 H   0  0  0  0  0  0
  -25.8128  -30.8852   27.0308 H   0  0  0  0  0  0
  -26.2832  -29.6812   24.1151 H   0  0  0  0  0  0
  -27.4106  -29.7194   25.4535 H   0  0  0  0  0  0
  -27.8683  -30.4386   23.9259 H   0  0  0  0  0  0
  -27.2799  -33.3567   26.2133 H   0  0  0  0  0  0
  -28.3927  -32.6708   25.0348 H   0  0  0  0  0  0
  -28.0780  -31.8326   26.5457 H   0  0  0  0  0  0
  -28.2606  -38.0116   24.7509 H   0  0  0  0  0  0
  -28.1077  -36.2643   24.6315 H   0  0  0  0  0  0
  -27.2313  -37.1489   25.8883 H   0  0  0  0  0  0
  -21.0701  -30.1611   21.8165 H   0  0  0  0  0  0
  -26.0241  -38.2914   24.1391 H   0  0  0  0  0  0
  -31.3222  -20.6308   19.7493 H   0  0  0  0  0  0
  -27.0990  -21.8454   22.9042 H   0  0  0  0  0  0
  -26.6470  -23.5964   22.5260 H   0  0  0  0  0  0
  -24.8667  -22.7455   21.1640 H   0  0  0  0  0  0
  -25.3422  -21.0083   21.4563 H   0  0  0  0  0  0
  -26.8693  -23.0567   19.8768 H   0  0  0  0  0  0
  -25.8592  -19.4920   17.8547 H   0  0  0  0  0  0
  -26.2705  -21.0395   18.5130 H   0  0  0  0  0  0
  -24.9282  -20.1438   19.2332 H   0  0  0  0  0  0
  -26.7911  -17.6657   21.1576 H   0  0  0  0  0  0
  -25.3230  -18.6140   21.0583 H   0  0  0  0  0  0
  -26.7339  -19.2751   21.8952 H   0  0  0  0  0  0
  -30.6207  -18.1561   18.7052 H   0  0  0  0  0  0
  -29.0285  -17.6134   18.8329 H   0  0  0  0  0  0
  -31.3170  -17.2556   20.7653 H   0  0  0  0  0  0
  -29.7961  -17.5706   21.5280 H   0  0  0  0  0  0
  -27.4175  -24.9120   20.3058 H   0  0  0  0  0  0
  -28.3802  -25.0825   18.8289 H   0  0  0  0  0  0
  -30.3431  -25.0009   20.6660 H   0  0  0  0  0  0
  -29.2259  -24.1272   21.6351 H   0  0  0  0  0  0
  -27.1860  -18.4120   19.1561 H   0  0  0  0  0  0
  -28.8671  -15.5396   20.6486 H   0  0  0  0  0  0
  1 25  1  0  0  0
  1 30  2  0  0  0
  1 86  1  0  0  0
  2  3  1  0  0  0
  2 25  1  0  0  0
  2 88  1  0  0  0
  2 89  1  0  0  0
  3  4  1  0  0  0
  3 90  1  0  0  0
  3 91  1  0  0  0
  4  5  1  0  0  0
  4 92  1  0  0  0
  4 93  1  0  0  0
  5  6  1  0  0  0
  5 26  1  0  0  0
  5 94  1  0  0  0
  6 25  1  0  0  0
  6 95  1  0  0  0
  6 96  1  0  0  0
  7  8  2  0  0  0
  7 26  1  0  0  0
  7 29  1  0  0  0
  8  9  1  0  0  0
  8 22  1  0  0  0
  9 10  1  0  0  0
  9 27  2  0  0  0
 10 11  2  0  0  0
 10 15  1  0  0  0
 11 12  1  0  0  0
 11 97  1  0  0  0
 12 13  2  0  0  0
 12 98  1  0  0  0
 13 14  1  0  0  0
 13 31  1  0  0  0
 14 15  2  0  0  0
 14 99  1  0  0  0
 15100  1  0  0  0
 16 17  2  0  0  0
 16 21  1  0  0  0
 16 31  1  0  0  0
 17 18  1  0  0  0
 17101  1  0  0  0
 18 19  2  0  0  0
 18102  1  0  0  0
 19 20  1  0  0  0
 19 24  1  0  0  0
 20 21  2  0  0  0
 20103  1  0  0  0
 21 23  1  0  0  0
 22 28  1  0  0  0
 22 32  2  0  0  0
 26 27  1  0  0  0
 28104  1  0  0  0
 28105  1  0  0  0
 29106  1  0  0  0
 29107  1  0  0  0
 33 34  1  0  0  0
 33 66  1  0  0  0
 33 70  2  0  0  0
 34 36  1  0  0  0
 34 59  1  0  0  0
 34108  1  0  0  0
 35 44  2  0  0  0
 35 45  1  0  0  0
 35 68  1  0  0  0
 36 56  1  0  0  0
 36109  1  0  0  0
 37 39  1  0  0  0
 37 47  1  0  0  0
 37 66  1  0  0  0
 37110  1  0  0  0
 38 43  2  0  0  0
 38 46  1  0  0  0
 38 47  1  0  0  0
 39 64  1  0  0  0
 39 67  2  0  0  0
 40 52  1  0  0  0
 40 53  2  0  0  0
 40 58  1  0  0  0
 41111  1  0  0  0
 41112  1  0  0  0
 41113  1  0  0  0
 41 48  1  0  0  0
 42 43  1  0  0  0
 42 66  1  0  0  0
 42114  1  0  0  0
 42115  1  0  0  0
 43 44  1  0  0  0
 44116  1  0  0  0
 45 46  2  0  0  0
 45117  1  0  0  0
 46118  1  0  0  0
 47119  1  0  0  0
 47120  1  0  0  0
 48 56  1  0  0  0
 48 65  1  0  0  0
 48121  1  0  0  0
 49 50  1  0  0  0
 49 53  1  0  0  0
 49 64  1  0  0  0
 49122  1  0  0  0
 50 51  1  0  0  0
 50123  1  0  0  0
 50124  1  0  0  0
 51 52  1  0  0  0
 51125  1  0  0  0
 51126  1  0  0  0
 52127  1  0  0  0
 52128  1  0  0  0
 53 54  1  0  0  0
 54 55  2  0  0  0
 54129  1  0  0  0
 55 57  1  0  0  0
 55130  1  0  0  0
 56 69  2  0  0  0
 57 58  2  0  0  0
 57131  1  0  0  0
 58132  1  0  0  0
 59 60  1  0  0  0
 59 61  1  0  0  0
 59 62  1  0  0  0
 60133  1  0  0  0
 60134  1  0  0  0
 60135  1  0  0  0
 61136  1  0  0  0
 61137  1  0  0  0
 61138  1  0  0  0
 62139  1  0  0  0
 62140  1  0  0  0
 62141  1  0  0  0
 63 65  1  0  0  0
 63142  1  0  0  0
 63143  1  0  0  0
 63144  1  0  0  0
 64145  1  0  0  0
 65146  1  0  0  0
 68 82  1  0  0  0
 71 72  1  0  0  0
 71 74  2  0  0  0
 71147  1  0  0  0
 72 73  2  0  0  0
 72 87  1  0  0  0
 73 85  1  0  0  0
 73 77  1  0  0  0
 74 80  1  0  0  0
 74 85  1  0  0  0
 75 76  1  0  0  0
 75 77  1  0  0  0
 75148  1  0  0  0
 75149  1  0  0  0
 76 77  1  0  0  0
 76150  1  0  0  0
 76151  1  0  0  0
 77152  1  0  0  0
 78153  1  0  0  0
 78154  1  0  0  0
 78155  1  0  0  0
 78 84  1  0  0  0
 79 84  1  0  0  0
 79156  1  0  0  0
 79157  1  0  0  0
 79158  1  0  0  0
 80 81  1  0  0  0
 80159  1  0  0  0
 80160  1  0  0  0
 81 86  1  0  0  0
 81161  1  0  0  0
 81162  1  0  0  0
 82 83  1  0  0  0
 82163  1  0  0  0
 82164  1  0  0  0
 83 87  1  0  0  0
 83165  1  0  0  0
 83166  1  0  0  0
 84 85  1  0  0  0
 84167  1  0  0  0
 86168  1  0  0  0
M  ISO  4   1 100  68 101  82 101  86 100
M  END
> <chiral flag>
0

> <version>
0

> <s_m_source_file>
/data/baiqing/PycharmProjects/Reinvent-master-3.2/result/LINK_invent/BTK/process_docking_weight1_custom_sum_contain_oxygen_bond_distance_aromatic_linkinvent_7_9_3/rearranged_h_0132.sdf

> <i_m_source_file_index>
29

> <r_mmod_Potential_Energy-OPLS-2005>
254.352783203125

> <r_mmod_Stretch_Energy-OPLS-2005>
60.7803268432617

> <r_mmod_Bend_Energy-OPLS-2005>
284.442504882812

> <r_mmod_Torsional_Energy-OPLS-2005>
317.739105224609

> <r_mmod_Improper_Torsional_Energy-OPLS-2005>
7.97253370285034

> <r_mmod_Van_der_Waal_Energy-OPLS-2005>
141.872680664062

> <r_mmod_Electrostatic_Energy-OPLS-2005>
-394.848480224609

> <r_mmod_Solvation_Energy-OPLS-2005>
-223.886154174805

> <b_mmod_Minimization_Converged-OPLS-2005>
0

> <r_mmod_RMS_Derivative-OPLS-2005>
13.5866327285767

$$$$
29
                    3D
 Structure written by MMmdl.
159168  0  0  1  0            999 V2000
  -30.6178  -14.7155   20.4597 C   0  0  0  0  0  0
  -30.4321  -12.4459   19.4508 C   0  0  0  0  0  0
  -29.4991  -12.4904   18.2206 C   0  0  0  0  0  0
  -28.0314  -12.3129   18.6502 C   0  0  0  0  0  0
  -27.6409  -13.2242   19.8430 C   0  0  2  0  0  0
  -28.6872  -13.1613   20.9741 C   0  0  0  0  0  0
  -25.2523  -13.8185   20.5674 C   0  0  0  0  0  0
  -24.1806  -13.0450   20.9189 C   0  0  0  0  0  0
  -24.6408  -11.6923   20.8784 C   0  0  0  0  0  0
  -23.9093  -10.4305   21.0454 C   0  0  0  0  0  0
  -24.3645   -9.4206   21.9239 C   0  0  0  0  0  0
  -23.6298   -8.2248   22.0770 C   0  0  0  0  0  0
  -22.4294   -8.0299   21.3547 C   0  0  0  0  0  0
  -21.9952   -9.0280   20.4646 C   0  0  0  0  0  0
  -22.7273  -10.2145   20.3083 C   0  0  0  0  0  0
  -21.6858   -6.0772   22.5293 C   0  0  0  0  0  0
  -21.3993   -6.5655   23.8224 C   0  0  0  0  0  0
  -21.3642   -5.6794   24.9175 C   0  0  0  0  0  0
  -21.6037   -4.3085   24.7222 C   0  0  0  0  0  0
  -21.8818   -3.8197   23.4340 C   0  0  0  0  0  0
  -21.9175   -4.6998   22.3400 C   0  0  0  0  0  0
  -22.7822  -13.5235   21.1855 C   0  0  0  0  0  0
  -22.1661   -4.2205   21.0983 F   0  0  0  0  0  0
  -21.5624   -3.4558   25.7724 F   0  0  0  0  0  0
  -29.9849  -13.5019   20.3825 N   0  0  0  0  0  0
  -26.2941  -12.9403   20.3253 N   0  0  0  0  0  0
  -25.9339  -11.6551   20.5780 N   0  0  0  0  0  0
  -22.0452  -12.8207   22.0394 N   0  0  0  0  0  0
  -25.4218  -15.1895   20.4052 N   0  0  0  0  0  0
  -31.8178  -14.8069   20.1852 O   0  0  0  0  0  0
  -21.6632   -6.8918   21.4271 O   0  0  0  0  0  0
  -22.3539  -14.5570   20.6722 O   0  0  0  0  0  0
  -24.6261  -31.8563   23.1994 C   0  0  0  0  0  0
  -25.9095  -32.4741   23.8328 C   0  0  1  0  0  0
  -27.2238  -27.3019   20.1076 C   0  0  0  0  0  0
  -25.5909  -33.8534   24.2264 N   0  0  0  0  0  0
  -23.4186  -30.4837   21.5393 C   0  0  2  0  0  0
  -24.8683  -28.9404   20.1029 C   0  0  0  0  0  0
  -22.7444  -29.4616   22.4872 C   0  0  0  0  0  0
  -18.0266  -28.1381   22.8472 C   0  0  0  0  0  0
  -24.1491  -36.7292   23.2650 C   0  0  0  0  0  0
  -25.9604  -30.7884   21.3666 C   0  0  0  0  0  0
  -26.0348  -29.4093   20.7175 C   0  0  0  0  0  0
  -27.2119  -28.6009   20.7149 C   0  0  0  0  0  0
  -26.0231  -26.8814   19.4926 C   0  0  0  0  0  0
  -24.8673  -27.6836   19.4832 C   0  0  0  0  0  0
  -23.6344  -29.8211   20.1519 C   0  0  0  0  0  0
  -25.4086  -36.3034   24.0338 C   0  0  1  0  0  0
  -20.5872  -28.3677   23.1274 C   0  0  2  0  0  0
  -20.6759  -26.9380   22.5414 C   0  0  0  0  0  0
  -19.5740  -26.6392   21.5211 C   0  0  0  0  0  0
  -18.1912  -26.7925   22.1589 C   0  0  0  0  0  0
  -19.1540  -28.8839   23.2870 C   0  0  0  0  0  0
  -18.9474  -30.1462   23.8880 C   0  0  0  0  0  0
  -17.6486  -30.6576   24.0578 C   0  0  0  0  0  0
  -25.9036  -34.9418   23.5088 C   0  0  0  0  0  0
  -16.5375  -29.9093   23.6357 C   0  0  0  0  0  0
  -16.7262  -28.6537   23.0316 C   0  0  0  0  0  0
  -26.4485  -31.6526   25.0687 C   0  0  0  0  0  0
  -25.3718  -31.3592   26.1417 C   0  0  0  0  0  0
  -27.0388  -30.2980   24.6116 C   0  0  0  0  0  0
  -27.6072  -32.4240   25.7427 C   0  0  0  0  0  0
  -27.5554  -37.1798   24.8440 C   0  0  0  0  0  0
  -21.4144  -29.3053   22.3683 N   0  0  0  0  0  0
  -26.4235  -37.3760   23.9428 N   0  0  0  0  0  0
  -24.6877  -31.0566   22.0947 N   0  0  0  0  0  0
  -23.4171  -28.8142   23.2928 O   0  0  0  0  0  0
  -28.3521  -26.4634   20.1759 O   0  0  0  0  0  0
  -26.5617  -34.8904   22.4679 O   0  0  0  0  0  0
  -23.5397  -32.1389   23.7286 O   0  0  0  0  0  0
  -29.5975  -19.7314   21.3522 C   0  0  0  0  0  0
  -29.2212  -22.1579   21.7994 C   0  0  0  0  0  0
  -28.6234  -22.6303   19.1359 C   0  0  0  0  0  0
  -29.2823  -18.8453   19.1334 C   0  0  0  0  0  0
  -29.2303  -21.0467   20.9102 C   0  0  0  0  0  0
  -28.8990  -21.2794   19.5540 C   0  0  0  0  0  0
  -29.6722  -18.5999   20.4776 C   0  0  0  0  0  0
  -28.9532  -23.4967   21.3772 C   0  0  0  0  0  0
  -28.6563  -23.7714   20.0102 C   0  0  0  0  0  0
  -28.8965  -20.1478   18.6734 C   0  0  0  0  0  0
  -29.0297  -24.6091   22.4171 C   0  0  0  0  0  0
  -28.5121  -20.3044   17.2014 C   0  0  0  0  0  0
  -30.3468  -17.2451   20.9667 C   0  0  0  0  0  0
  -28.4831  -25.2166   19.3768 C   0  0  0  0  0  0
  -29.8497  -15.8466   20.6569 N   0  0  0  0  0  0
  -31.4713  -12.5766   19.1407 H   0  0  0  0  0  0
  -30.3896  -11.4737   19.9396 H   0  0  0  0  0  0
  -29.7782  -11.7037   17.5170 H   0  0  0  0  0  0
  -29.6193  -13.4371   17.6899 H   0  0  0  0  0  0
  -27.9097  -11.2680   18.9351 H   0  0  0  0  0  0
  -27.3628  -12.4781   17.8053 H   0  0  0  0  0  0
  -27.6322  -14.2410   19.4519 H   0  0  0  0  0  0
  -28.7228  -12.1700   21.4230 H   0  0  0  0  0  0
  -28.4291  -13.8504   21.7789 H   0  0  0  0  0  0
  -25.2790   -9.5675   22.4812 H   0  0  0  0  0  0
  -24.0002   -7.4652   22.7518 H   0  0  0  0  0  0
  -21.0881   -8.8824   19.8954 H   0  0  0  0  0  0
  -22.3788  -10.9707   19.6184 H   0  0  0  0  0  0
  -21.1992   -7.6156   23.9755 H   0  0  0  0  0  0
  -21.1449   -6.0521   25.9067 H   0  0  0  0  0  0
  -22.0607   -2.7663   23.2837 H   0  0  0  0  0  0
  -22.4020  -11.9823   22.4741 H   0  0  0  0  0  0
  -21.1064  -13.1271   22.2626 H   0  0  0  0  0  0
  -24.6505  -15.8400   20.5000 H   0  0  0  0  0  0
  -26.2627  -15.6289   20.0562 H   0  0  0  0  0  0
  -26.7162  -32.5423   23.1059 H   0  0  0  0  0  0
  -25.0033  -33.9707   25.0390 H   0  0  0  0  0  0
  -22.7129  -31.3047   21.3947 H   0  0  0  0  0  0
  -23.3738  -35.9637   23.3225 H   0  0  0  0  0  0
  -24.3581  -36.8999   22.2085 H   0  0  0  0  0  0
  -23.7301  -37.6491   23.6728 H   0  0  0  0  0  0
  -26.0690  -31.5423   20.5865 H   0  0  0  0  0  0
  -26.8481  -30.8556   21.9820 H   0  0  0  0  0  0
  -28.1073  -28.9528   21.2079 H   0  0  0  0  0  0
  -25.9298  -25.9077   19.0417 H   0  0  0  0  0  0
  -23.9707  -27.3185   19.0019 H   0  0  0  0  0  0
  -23.7460  -30.6041   19.4016 H   0  0  0  0  0  0
  -22.7539  -29.2536   19.8467 H   0  0  0  0  0  0
  -25.1252  -36.1857   25.0816 H   0  0  0  0  0  0
  -20.9985  -28.3270   24.1385 H   0  0  0  0  0  0
  -20.5654  -26.2255   23.3597 H   0  0  0  0  0  0
  -21.6635  -26.7395   22.1229 H   0  0  0  0  0  0
  -19.6908  -25.6314   21.1224 H   0  0  0  0  0  0
  -19.6732  -27.3230   20.6756 H   0  0  0  0  0  0
  -17.4193  -26.6713   21.3977 H   0  0  0  0  0  0
  -18.0274  -26.0031   22.8941 H   0  0  0  0  0  0
  -19.7947  -30.7308   24.2197 H   0  0  0  0  0  0
  -17.5022  -31.6249   24.5195 H   0  0  0  0  0  0
  -15.5381  -30.2995   23.7714 H   0  0  0  0  0  0
  -15.8629  -28.0921   22.6956 H   0  0  0  0  0  0
  -24.6040  -30.6742   25.7763 H   0  0  0  0  0  0
  -24.8730  -32.2698   26.4743 H   0  0  0  0  0  0
  -25.8102  -30.8927   27.0248 H   0  0  0  0  0  0
  -26.3006  -29.6644   24.1218 H   0  0  0  0  0  0
  -27.4229  -29.7276   25.4572 H   0  0  0  0  0  0
  -27.8702  -30.4294   23.9202 H   0  0  0  0  0  0
  -27.2805  -33.3653   26.1828 H   0  0  0  0  0  0
  -28.3971  -32.6603   25.0284 H   0  0  0  0  0  0
  -28.0587  -31.8428   26.5482 H   0  0  0  0  0  0
  -28.2506  -38.0152   24.7546 H   0  0  0  0  0  0
  -28.1145  -36.2722   24.6175 H   0  0  0  0  0  0
  -27.2278  -37.1270   25.8831 H   0  0  0  0  0  0
  -20.9260  -29.8863   21.6995 H   0  0  0  0  0  0
  -26.0088  -38.2798   24.1508 H   0  0  0  0  0  0
  -29.8852  -19.6078   22.3858 H   0  0  0  0  0  0
  -29.4644  -21.9785   22.8381 H   0  0  0  0  0  0
  -28.4151  -22.8130   18.0904 H   0  0  0  0  0  0
  -29.3259  -18.0327   18.4197 H   0  0  0  0  0  0
  -29.1469  -24.2107   23.4295 H   0  0  0  0  0  0
  -28.1222  -25.2147   22.4206 H   0  0  0  0  0  0
  -29.8807  -25.2653   22.2240 H   0  0  0  0  0  0
  -28.5745  -19.3612   16.6569 H   0  0  0  0  0  0
  -29.1726  -21.0062   16.6898 H   0  0  0  0  0  0
  -27.4876  -20.6659   17.1002 H   0  0  0  0  0  0
  -30.4083  -17.2932   22.0550 H   0  0  0  0  0  0
  -31.3840  -17.3113   20.6332 H   0  0  0  0  0  0
  -27.7718  -25.1570   18.5580 H   0  0  0  0  0  0
  -29.4298  -25.3646   18.8553 H   0  0  0  0  0  0
  -28.8586  -15.6950   20.7666 H   0  0  0  0  0  0
  1 25  1  0  0  0
  1 30  2  0  0  0
  1 85  1  0  0  0
  2  3  1  0  0  0
  2 25  1  0  0  0
  2 86  1  0  0  0
  2 87  1  0  0  0
  3  4  1  0  0  0
  3 88  1  0  0  0
  3 89  1  0  0  0
  4  5  1  0  0  0
  4 90  1  0  0  0
  4 91  1  0  0  0
  5  6  1  0  0  0
  5 26  1  0  0  0
  5 92  1  0  0  0
  6 25  1  0  0  0
  6 93  1  0  0  0
  6 94  1  0  0  0
  7  8  2  0  0  0
  7 26  1  0  0  0
  7 29  1  0  0  0
  8  9  1  0  0  0
  8 22  1  0  0  0
  9 10  1  0  0  0
  9 27  2  0  0  0
 10 11  2  0  0  0
 10 15  1  0  0  0
 11 12  1  0  0  0
 11 95  1  0  0  0
 12 13  2  0  0  0
 12 96  1  0  0  0
 13 14  1  0  0  0
 13 31  1  0  0  0
 14 15  2  0  0  0
 14 97  1  0  0  0
 15 98  1  0  0  0
 16 17  2  0  0  0
 16 21  1  0  0  0
 16 31  1  0  0  0
 17 18  1  0  0  0
 17 99  1  0  0  0
 18 19  2  0  0  0
 18100  1  0  0  0
 19 20  1  0  0  0
 19 24  1  0  0  0
 20 21  2  0  0  0
 20101  1  0  0  0
 21 23  1  0  0  0
 22 28  1  0  0  0
 22 32  2  0  0  0
 26 27  1  0  0  0
 28102  1  0  0  0
 28103  1  0  0  0
 29104  1  0  0  0
 29105  1  0  0  0
 33 34  1  0  0  0
 33 66  1  0  0  0
 33 70  2  0  0  0
 34 36  1  0  0  0
 34 59  1  0  0  0
 34106  1  0  0  0
 35 44  2  0  0  0
 35 45  1  0  0  0
 35 68  1  0  0  0
 36 56  1  0  0  0
 36107  1  0  0  0
 37 39  1  0  0  0
 37 47  1  0  0  0
 37 66  1  0  0  0
 37108  1  0  0  0
 38 43  2  0  0  0
 38 46  1  0  0  0
 38 47  1  0  0  0
 39 64  1  0  0  0
 39 67  2  0  0  0
 40 52  1  0  0  0
 40 53  2  0  0  0
 40 58  1  0  0  0
 41109  1  0  0  0
 41110  1  0  0  0
 41111  1  0  0  0
 41 48  1  0  0  0
 42 43  1  0  0  0
 42 66  1  0  0  0
 42112  1  0  0  0
 42113  1  0  0  0
 43 44  1  0  0  0
 44114  1  0  0  0
 45 46  2  0  0  0
 45115  1  0  0  0
 46116  1  0  0  0
 47117  1  0  0  0
 47118  1  0  0  0
 48 56  1  0  0  0
 48 65  1  0  0  0
 48119  1  0  0  0
 49 50  1  0  0  0
 49 53  1  0  0  0
 49 64  1  0  0  0
 49120  1  0  0  0
 50 51  1  0  0  0
 50121  1  0  0  0
 50122  1  0  0  0
 51 52  1  0  0  0
 51123  1  0  0  0
 51124  1  0  0  0
 52125  1  0  0  0
 52126  1  0  0  0
 53 54  1  0  0  0
 54 55  2  0  0  0
 54127  1  0  0  0
 55 57  1  0  0  0
 55128  1  0  0  0
 56 69  2  0  0  0
 57 58  2  0  0  0
 57129  1  0  0  0
 58130  1  0  0  0
 59 60  1  0  0  0
 59 61  1  0  0  0
 59 62  1  0  0  0
 60131  1  0  0  0
 60132  1  0  0  0
 60133  1  0  0  0
 61134  1  0  0  0
 61135  1  0  0  0
 61136  1  0  0  0
 62137  1  0  0  0
 62138  1  0  0  0
 62139  1  0  0  0
 63 65  1  0  0  0
 63140  1  0  0  0
 63141  1  0  0  0
 63142  1  0  0  0
 64143  1  0  0  0
 65144  1  0  0  0
 68 84  1  0  0  0
 71 75  2  0  0  0
 71 77  1  0  0  0
 71145  1  0  0  0
 72 75  1  0  0  0
 72 78  2  0  0  0
 72146  1  0  0  0
 73 76  1  0  0  0
 73 79  2  0  0  0
 73147  1  0  0  0
 74 77  2  0  0  0
 74 80  1  0  0  0
 74148  1  0  0  0
 75 76  1  0  0  0
 76 80  2  0  0  0
 77 83  1  0  0  0
 78 79  1  0  0  0
 78 81  1  0  0  0
 79 84  1  0  0  0
 80 82  1  0  0  0
 81149  1  0  0  0
 81150  1  0  0  0
 81151  1  0  0  0
 82152  1  0  0  0
 82153  1  0  0  0
 82154  1  0  0  0
 83 85  1  0  0  0
 83155  1  0  0  0
 83156  1  0  0  0
 84157  1  0  0  0
 84158  1  0  0  0
 85159  1  0  0  0
M  ISO  4   1 100  68 101  84 101  85 100
M  END
> <chiral flag>
0

> <version>
0

> <s_m_source_file>
/data/baiqing/PycharmProjects/Reinvent-master-3.2/result/LINK_invent/BTK/process_docking_weight1_custom_sum_contain_oxygen_bond_distance_aromatic_linkinvent_7_9_3/rearranged_h_0132.sdf

> <i_m_source_file_index>
30

> <r_mmod_Potential_Energy-OPLS-2005>
90.762092590332

> <r_mmod_Stretch_Energy-OPLS-2005>
94.9904098510742

> <r_mmod_Bend_Energy-OPLS-2005>
160.770095825195

> <r_mmod_Torsional_Energy-OPLS-2005>
216.352035522461

> <r_mmod_Improper_Torsional_Energy-OPLS-2005>
5.81856441497803

> <r_mmod_Van_der_Waal_Energy-OPLS-2005>
156.935699462891

> <r_mmod_Electrostatic_Energy-OPLS-2005>
-406.504669189453

> <r_mmod_Solvation_Energy-OPLS-2005>
-207.327362060547

> <b_mmod_Minimization_Converged-OPLS-2005>
0

> <r_mmod_RMS_Derivative-OPLS-2005>
5.44903993606567

$$$$
30
                    3D
 Structure written by MMmdl.
164173  0  0  1  0            999 V2000
  -30.7015  -14.4674   20.4978 C   0  0  0  0  0  0
  -30.4221  -12.2805   19.4380 C   0  0  0  0  0  0
  -29.5019  -12.4798   18.2156 C   0  0  0  0  0  0
  -28.0220  -12.3492   18.6256 C   0  0  0  0  0  0
  -27.6623  -13.2004   19.8725 C   0  0  2  0  0  0
  -28.7053  -13.0109   20.9999 C   0  0  0  0  0  0
  -25.2597  -13.8143   20.5656 C   0  0  0  0  0  0
  -24.1840  -13.0437   20.9174 C   0  0  0  0  0  0
  -24.6386  -11.6900   20.8737 C   0  0  0  0  0  0
  -23.9051  -10.4288   21.0414 C   0  0  0  0  0  0
  -24.3601   -9.4214   21.9192 C   0  0  0  0  0  0
  -23.6277   -8.2244   22.0761 C   0  0  0  0  0  0
  -22.4255   -8.0275   21.3558 C   0  0  0  0  0  0
  -21.9894   -9.0257   20.4665 C   0  0  0  0  0  0
  -22.7219  -10.2131   20.3074 C   0  0  0  0  0  0
  -21.6840   -6.0726   22.5282 C   0  0  0  0  0  0
  -21.4008   -6.5633   23.8211 C   0  0  0  0  0  0
  -21.3671   -5.6785   24.9179 C   0  0  0  0  0  0
  -21.6041   -4.3051   24.7230 C   0  0  0  0  0  0
  -21.8825   -3.8142   23.4353 C   0  0  0  0  0  0
  -21.9192   -4.6957   22.3402 C   0  0  0  0  0  0
  -22.7864  -13.5259   21.1823 C   0  0  0  0  0  0
  -22.1658   -4.2145   21.0980 F   0  0  0  0  0  0
  -21.5639   -3.4537   25.7747 F   0  0  0  0  0  0
  -30.0401  -13.2828   20.4432 N   0  0  0  0  0  0
  -26.3030  -12.9292   20.3344 N   0  0  0  0  0  0
  -25.9314  -11.6472   20.5771 N   0  0  0  0  0  0
  -22.0466  -12.8297   22.0379 N   0  0  0  0  0  0
  -25.4347  -15.1847   20.4029 N   0  0  0  0  0  0
  -31.8665  -14.6086   20.1189 O   0  0  0  0  0  0
  -21.6633   -6.8869   21.4235 O   0  0  0  0  0  0
  -22.3569  -14.5567   20.6666 O   0  0  0  0  0  0
  -24.6117  -31.8695   23.2123 C   0  0  0  0  0  0
  -25.9017  -32.4834   23.8411 C   0  0  1  0  0  0
  -27.2468  -27.4577   20.0986 C   0  0  0  0  0  0
  -25.5879  -33.8630   24.2341 N   0  0  0  0  0  0
  -23.4003  -30.4901   21.5517 C   0  0  2  0  0  0
  -24.8520  -28.9562   20.1176 C   0  0  0  0  0  0
  -22.7396  -29.4653   22.5014 C   0  0  0  0  0  0
  -18.0265  -28.1371   22.8493 C   0  0  0  0  0  0
  -24.1480  -36.7324   23.2639 C   0  0  0  0  0  0
  -25.9253  -30.8402   21.3638 C   0  0  0  0  0  0
  -26.0067  -29.4727   20.7202 C   0  0  0  0  0  0
  -27.2056  -28.7279   20.7187 C   0  0  0  0  0  0
  -26.0831  -26.9558   19.4835 C   0  0  0  0  0  0
  -24.8829  -27.6931   19.4995 C   0  0  0  0  0  0
  -23.6099  -29.8178   20.1672 C   0  0  0  0  0  0
  -25.4100  -36.3120   24.0340 C   0  0  1  0  0  0
  -20.5852  -28.3650   23.1330 C   0  0  2  0  0  0
  -20.6754  -26.9389   22.5426 C   0  0  0  0  0  0
  -19.5737  -26.6381   21.5213 C   0  0  0  0  0  0
  -18.1912  -26.7923   22.1617 C   0  0  0  0  0  0
  -19.1514  -28.8830   23.2908 C   0  0  0  0  0  0
  -18.9448  -30.1438   23.8916 C   0  0  0  0  0  0
  -17.6449  -30.6581   24.0565 C   0  0  0  0  0  0
  -25.9022  -34.9485   23.5139 C   0  0  0  0  0  0
  -16.5338  -29.9084   23.6326 C   0  0  0  0  0  0
  -16.7252  -28.6497   23.0351 C   0  0  0  0  0  0
  -26.4461  -31.6610   25.0729 C   0  0  0  0  0  0
  -25.3740  -31.3724   26.1492 C   0  0  0  0  0  0
  -27.0282  -30.3055   24.6088 C   0  0  0  0  0  0
  -27.6051  -32.4327   25.7471 C   0  0  0  0  0  0
  -27.5580  -37.1806   24.8460 C   0  0  0  0  0  0
  -21.4130  -29.3016   22.3737 N   0  0  0  0  0  0
  -26.4291  -37.3800   23.9408 N   0  0  0  0  0  0
  -24.6634  -31.0807   22.1013 N   0  0  0  0  0  0
  -23.4175  -28.8203   23.3054 O   0  0  0  0  0  0
  -28.3874  -26.6920   20.0512 O   0  0  0  0  0  0
  -26.5589  -34.8928   22.4701 O   0  0  0  0  0  0
  -23.5315  -32.1437   23.7524 O   0  0  0  0  0  0
  -32.6750  -21.9416   21.2607 C   0  0  0  0  0  0
  -32.1989  -20.7086   20.7794 C   0  0  0  0  0  0
  -31.8244  -23.0614   21.3082 C   0  0  0  0  0  0
  -30.0027  -21.7038   20.4386 C   0  0  0  0  0  0
  -30.8637  -20.5801   20.3441 C   0  0  0  0  0  0
  -30.4704  -22.9555   20.9026 C   0  0  0  0  0  0
  -28.9980  -18.0850   17.9581 C   0  0  0  0  0  0
  -29.2280  -19.3871   18.7407 C   0  0  0  0  0  0
  -28.8406  -16.8908   18.9082 C   0  0  0  0  0  0
  -30.2335  -18.0721   20.6724 C   0  0  0  0  0  0
  -30.4356  -19.2602   19.6927 C   0  0  2  0  0  0
  -30.0467  -16.7659   19.8600 C   0  0  1  0  0  0
  -30.0702  -25.3221   21.2088 C   0  0  0  0  0  0
  -28.9352  -26.3592   21.3259 C   0  0  0  0  0  0
  -29.9084  -15.5410   20.6675 N   0  0  0  0  0  0
  -29.5730  -24.0105   20.9206 O   0  0  0  0  0  0
  -31.4694  -12.3611   19.1425 H   0  0  0  0  0  0
  -30.3078  -11.2764   19.8485 H   0  0  0  0  0  0
  -29.7416  -11.7457   17.4457 H   0  0  0  0  0  0
  -29.6782  -13.4596   17.7683 H   0  0  0  0  0  0
  -27.8289  -11.2953   18.8278 H   0  0  0  0  0  0
  -27.3775  -12.6199   17.7885 H   0  0  0  0  0  0
  -27.6977  -14.2406   19.5545 H   0  0  0  0  0  0
  -28.6724  -11.9898   21.3811 H   0  0  0  0  0  0
  -28.4831  -13.6552   21.8515 H   0  0  0  0  0  0
  -25.2743   -9.5694   22.4773 H   0  0  0  0  0  0
  -23.9995   -7.4636   22.7473 H   0  0  0  0  0  0
  -21.0826   -8.8786   19.8962 H   0  0  0  0  0  0
  -22.3683  -10.9682   19.6192 H   0  0  0  0  0  0
  -21.1991   -7.6139   23.9721 H   0  0  0  0  0  0
  -21.1482   -6.0509   25.9080 H   0  0  0  0  0  0
  -22.0595   -2.7607   23.2852 H   0  0  0  0  0  0
  -22.4052  -11.9979   22.4827 H   0  0  0  0  0  0
  -21.1096  -13.1374   22.2558 H   0  0  0  0  0  0
  -24.6685  -15.8411   20.5043 H   0  0  0  0  0  0
  -26.2836  -15.6169   20.0634 H   0  0  0  0  0  0
  -26.7093  -32.5567   23.1186 H   0  0  0  0  0  0
  -25.0031  -33.9801   25.0488 H   0  0  0  0  0  0
  -22.6875  -31.3052   21.4108 H   0  0  0  0  0  0
  -23.3736  -35.9665   23.3319 H   0  0  0  0  0  0
  -24.3576  -36.8921   22.2051 H   0  0  0  0  0  0
  -23.7240  -37.6536   23.6643 H   0  0  0  0  0  0
  -26.0296  -31.6021   20.5902 H   0  0  0  0  0  0
  -26.8157  -30.9025   21.9768 H   0  0  0  0  0  0
  -28.0952  -29.1334   21.1790 H   0  0  0  0  0  0
  -26.1065  -25.9883   19.0018 H   0  0  0  0  0  0
  -23.9962  -27.2888   19.0295 H   0  0  0  0  0  0
  -23.7115  -30.5898   19.4034 H   0  0  0  0  0  0
  -22.7369  -29.2304   19.8768 H   0  0  0  0  0  0
  -25.1273  -36.1991   25.0834 H   0  0  0  0  0  0
  -20.9941  -28.3213   24.1452 H   0  0  0  0  0  0
  -20.5642  -26.2257   23.3607 H   0  0  0  0  0  0
  -21.6629  -26.7425   22.1229 H   0  0  0  0  0  0
  -19.6896  -25.6298   21.1228 H   0  0  0  0  0  0
  -19.6683  -27.3203   20.6752 H   0  0  0  0  0  0
  -17.4187  -26.6681   21.4012 H   0  0  0  0  0  0
  -18.0301  -26.0055   22.9000 H   0  0  0  0  0  0
  -19.7927  -30.7246   24.2297 H   0  0  0  0  0  0
  -17.5007  -31.6264   24.5159 H   0  0  0  0  0  0
  -15.5340  -30.2990   23.7644 H   0  0  0  0  0  0
  -15.8653  -28.0817   22.7068 H   0  0  0  0  0  0
  -24.5900  -30.7076   25.7847 H   0  0  0  0  0  0
  -24.8941  -32.2883   26.4952 H   0  0  0  0  0  0
  -25.8104  -30.8894   27.0243 H   0  0  0  0  0  0
  -26.2814  -29.6823   24.1156 H   0  0  0  0  0  0
  -27.4071  -29.7287   25.4534 H   0  0  0  0  0  0
  -27.8641  -30.4379   23.9215 H   0  0  0  0  0  0
  -27.2679  -33.3610   26.2096 H   0  0  0  0  0  0
  -28.3822  -32.6919   25.0268 H   0  0  0  0  0  0
  -28.0763  -31.8428   26.5343 H   0  0  0  0  0  0
  -28.2612  -38.0091   24.7503 H   0  0  0  0  0  0
  -28.1059  -36.2625   24.6281 H   0  0  0  0  0  0
  -27.2304  -37.1460   25.8866 H   0  0  0  0  0  0
  -20.9291  -29.8729   21.6953 H   0  0  0  0  0  0
  -26.0185  -38.2879   24.1414 H   0  0  0  0  0  0
  -33.7060  -22.0358   21.5730 H   0  0  0  0  0  0
  -32.8742  -19.8659   20.7170 H   0  0  0  0  0  0
  -32.2455  -23.9906   21.6643 H   0  0  0  0  0  0
  -28.9748  -21.6318   20.1143 H   0  0  0  0  0  0
  -29.8352  -17.9069   17.2824 H   0  0  0  0  0  0
  -28.1120  -18.1785   17.3292 H   0  0  0  0  0  0
  -28.3250  -19.6372   19.2980 H   0  0  0  0  0  0
  -29.3953  -20.2000   18.0334 H   0  0  0  0  0  0
  -28.7340  -15.9830   18.3125 H   0  0  0  0  0  0
  -27.9183  -17.0026   19.4791 H   0  0  0  0  0  0
  -29.3748  -18.2561   21.3186 H   0  0  0  0  0  0
  -31.1027  -17.9733   21.3240 H   0  0  0  0  0  0
  -31.2851  -18.9981   19.0582 H   0  0  0  0  0  0
  -30.9291  -16.6725   19.2225 H   0  0  0  0  0  0
  -30.5835  -25.3071   22.1708 H   0  0  0  0  0  0
  -30.7924  -25.6338   20.4528 H   0  0  0  0  0  0
  -29.3419  -27.2626   21.7819 H   0  0  0  0  0  0
  -28.1586  -25.9863   21.9955 H   0  0  0  0  0  0
  -28.9877  -15.3443   21.0291 H   0  0  0  0  0  0
  1 25  1  0  0  0
  1 30  2  0  0  0
  1 85  1  0  0  0
  2  3  1  0  0  0
  2 25  1  0  0  0
  2 87  1  0  0  0
  2 88  1  0  0  0
  3  4  1  0  0  0
  3 89  1  0  0  0
  3 90  1  0  0  0
  4  5  1  0  0  0
  4 91  1  0  0  0
  4 92  1  0  0  0
  5  6  1  0  0  0
  5 26  1  0  0  0
  5 93  1  0  0  0
  6 25  1  0  0  0
  6 94  1  0  0  0
  6 95  1  0  0  0
  7  8  2  0  0  0
  7 26  1  0  0  0
  7 29  1  0  0  0
  8  9  1  0  0  0
  8 22  1  0  0  0
  9 10  1  0  0  0
  9 27  2  0  0  0
 10 11  2  0  0  0
 10 15  1  0  0  0
 11 12  1  0  0  0
 11 96  1  0  0  0
 12 13  2  0  0  0
 12 97  1  0  0  0
 13 14  1  0  0  0
 13 31  1  0  0  0
 14 15  2  0  0  0
 14 98  1  0  0  0
 15 99  1  0  0  0
 16 17  2  0  0  0
 16 21  1  0  0  0
 16 31  1  0  0  0
 17 18  1  0  0  0
 17100  1  0  0  0
 18 19  2  0  0  0
 18101  1  0  0  0
 19 20  1  0  0  0
 19 24  1  0  0  0
 20 21  2  0  0  0
 20102  1  0  0  0
 21 23  1  0  0  0
 22 28  1  0  0  0
 22 32  2  0  0  0
 26 27  1  0  0  0
 28103  1  0  0  0
 28104  1  0  0  0
 29105  1  0  0  0
 29106  1  0  0  0
 33 34  1  0  0  0
 33 66  1  0  0  0
 33 70  2  0  0  0
 34 36  1  0  0  0
 34 59  1  0  0  0
 34107  1  0  0  0
 35 44  2  0  0  0
 35 45  1  0  0  0
 35 68  1  0  0  0
 36 56  1  0  0  0
 36108  1  0  0  0
 37 39  1  0  0  0
 37 47  1  0  0  0
 37 66  1  0  0  0
 37109  1  0  0  0
 38 43  2  0  0  0
 38 46  1  0  0  0
 38 47  1  0  0  0
 39 64  1  0  0  0
 39 67  2  0  0  0
 40 52  1  0  0  0
 40 53  2  0  0  0
 40 58  1  0  0  0
 41110  1  0  0  0
 41111  1  0  0  0
 41112  1  0  0  0
 41 48  1  0  0  0
 42 43  1  0  0  0
 42 66  1  0  0  0
 42113  1  0  0  0
 42114  1  0  0  0
 43 44  1  0  0  0
 44115  1  0  0  0
 45 46  2  0  0  0
 45116  1  0  0  0
 46117  1  0  0  0
 47118  1  0  0  0
 47119  1  0  0  0
 48 56  1  0  0  0
 48 65  1  0  0  0
 48120  1  0  0  0
 49 50  1  0  0  0
 49 53  1  0  0  0
 49 64  1  0  0  0
 49121  1  0  0  0
 50 51  1  0  0  0
 50122  1  0  0  0
 50123  1  0  0  0
 51 52  1  0  0  0
 51124  1  0  0  0
 51125  1  0  0  0
 52126  1  0  0  0
 52127  1  0  0  0
 53 54  1  0  0  0
 54 55  2  0  0  0
 54128  1  0  0  0
 55 57  1  0  0  0
 55129  1  0  0  0
 56 69  2  0  0  0
 57 58  2  0  0  0
 57130  1  0  0  0
 58131  1  0  0  0
 59 60  1  0  0  0
 59 61  1  0  0  0
 59 62  1  0  0  0
 60132  1  0  0  0
 60133  1  0  0  0
 60134  1  0  0  0
 61135  1  0  0  0
 61136  1  0  0  0
 61137  1  0  0  0
 62138  1  0  0  0
 62139  1  0  0  0
 62140  1  0  0  0
 63 65  1  0  0  0
 63141  1  0  0  0
 63142  1  0  0  0
 63143  1  0  0  0
 64144  1  0  0  0
 65145  1  0  0  0
 68 84  1  0  0  0
 71 72  2  0  0  0
 71 73  1  0  0  0
 71146  1  0  0  0
 72 75  1  0  0  0
 72147  1  0  0  0
 73 76  2  0  0  0
 73148  1  0  0  0
 74 75  2  0  0  0
 74 76  1  0  0  0
 74149  1  0  0  0
 75 81  1  0  0  0
 76 86  1  0  0  0
 77 78  1  0  0  0
 77 79  1  0  0  0
 77150  1  0  0  0
 77151  1  0  0  0
 78 81  1  0  0  0
 78152  1  0  0  0
 78153  1  0  0  0
 79 82  1  0  0  0
 79154  1  0  0  0
 79155  1  0  0  0
 80 81  1  0  0  0
 80 82  1  0  0  0
 80156  1  0  0  0
 80157  1  0  0  0
 81158  1  0  0  0
 82 85  1  0  0  0
 82159  1  0  0  0
 83 84  1  0  0  0
 83 86  1  0  0  0
 83160  1  0  0  0
 83161  1  0  0  0
 84162  1  0  0  0
 84163  1  0  0  0
 85164  1  0  0  0
M  ISO  4   1 100  68 101  84 101  85 100
M  END
> <chiral flag>
0

> <version>
0

> <s_m_source_file>
/data/baiqing/PycharmProjects/Reinvent-master-3.2/result/LINK_invent/BTK/process_docking_weight1_custom_sum_contain_oxygen_bond_distance_aromatic_linkinvent_7_9_3/rearranged_h_0132.sdf

> <i_m_source_file_index>
31

> <r_mmod_Potential_Energy-OPLS-2005>
-9.17291355133057

> <r_mmod_Stretch_Energy-OPLS-2005>
36.0569267272949

> <r_mmod_Bend_Energy-OPLS-2005>
101.888786315918

> <r_mmod_Torsional_Energy-OPLS-2005>
249.497894287109

> <r_mmod_Improper_Torsional_Energy-OPLS-2005>
10.8050937652588

> <r_mmod_Van_der_Waal_Energy-OPLS-2005>
157.147109985352

> <r_mmod_Electrostatic_Energy-OPLS-2005>
-365.955352783203

> <r_mmod_Solvation_Energy-OPLS-2005>
-212.748764038086

> <b_mmod_Minimization_Converged-OPLS-2005>
0

> <r_mmod_RMS_Derivative-OPLS-2005>
1.84800291061401

$$$$
31
                    3D
 Structure written by MMmdl.
168177  0  0  1  0            999 V2000
  -30.7660  -14.3522   20.7186 C   0  0  0  0  0  0
  -30.4207  -12.2975   19.3909 C   0  0  0  0  0  0
  -29.4836  -12.5319   18.1920 C   0  0  0  0  0  0
  -28.0089  -12.3824   18.6086 C   0  0  0  0  0  0
  -27.6671  -13.1994   19.8812 C   0  0  2  0  0  0
  -28.7023  -12.9268   20.9927 C   0  0  0  0  0  0
  -25.2613  -13.8152   20.5658 C   0  0  0  0  0  0
  -24.1844  -13.0429   20.9141 C   0  0  0  0  0  0
  -24.6390  -11.6899   20.8711 C   0  0  0  0  0  0
  -23.9053  -10.4289   21.0397 C   0  0  0  0  0  0
  -24.3604   -9.4209   21.9179 C   0  0  0  0  0  0
  -23.6282   -8.2243   22.0756 C   0  0  0  0  0  0
  -22.4263   -8.0281   21.3546 C   0  0  0  0  0  0
  -21.9901   -9.0246   20.4640 C   0  0  0  0  0  0
  -22.7226  -10.2131   20.3049 C   0  0  0  0  0  0
  -21.6858   -6.0734   22.5280 C   0  0  0  0  0  0
  -21.4012   -6.5638   23.8208 C   0  0  0  0  0  0
  -21.3661   -5.6791   24.9173 C   0  0  0  0  0  0
  -21.6044   -4.3054   24.7223 C   0  0  0  0  0  0
  -21.8826   -3.8144   23.4343 C   0  0  0  0  0  0
  -21.9187   -4.6960   22.3400 C   0  0  0  0  0  0
  -22.7875  -13.5239   21.1809 C   0  0  0  0  0  0
  -22.1661   -4.2144   21.0982 F   0  0  0  0  0  0
  -21.5626   -3.4538   25.7740 F   0  0  0  0  0  0
  -30.0459  -13.2306   20.4625 N   0  0  0  0  0  0
  -26.3046  -12.9304   20.3373 N   0  0  0  0  0  0
  -25.9310  -11.6470   20.5735 N   0  0  0  0  0  0
  -22.0516  -12.8234   22.0374 N   0  0  0  0  0  0
  -25.4375  -15.1864   20.4110 N   0  0  0  0  0  0
  -31.7764  -14.6713   20.0813 O   0  0  0  0  0  0
  -21.6635   -6.8875   21.4241 O   0  0  0  0  0  0
  -22.3564  -14.5553   20.6681 O   0  0  0  0  0  0
  -24.6095  -31.8722   23.2177 C   0  0  0  0  0  0
  -25.9007  -32.4838   23.8459 C   0  0  1  0  0  0
  -27.2256  -27.4626   20.0836 C   0  0  0  0  0  0
  -25.5856  -33.8634   24.2371 N   0  0  0  0  0  0
  -23.3957  -30.5030   21.5570 C   0  0  2  0  0  0
  -24.8398  -28.9746   20.1250 C   0  0  0  0  0  0
  -22.7387  -29.4710   22.5012 C   0  0  0  0  0  0
  -18.0276  -28.1384   22.8521 C   0  0  0  0  0  0
  -24.1481  -36.7332   23.2646 C   0  0  0  0  0  0
  -25.9255  -30.8439   21.3734 C   0  0  0  0  0  0
  -26.0015  -29.4815   20.7215 C   0  0  0  0  0  0
  -27.1984  -28.7315   20.7031 C   0  0  0  0  0  0
  -26.0495  -26.9779   19.4689 C   0  0  0  0  0  0
  -24.8559  -27.7182   19.5024 C   0  0  0  0  0  0
  -23.6035  -29.8410   20.1724 C   0  0  0  0  0  0
  -25.4094  -36.3119   24.0357 C   0  0  1  0  0  0
  -20.5849  -28.3675   23.1318 C   0  0  2  0  0  0
  -20.6746  -26.9416   22.5416 C   0  0  0  0  0  0
  -19.5722  -26.6391   21.5226 C   0  0  0  0  0  0
  -18.1904  -26.7942   22.1641 C   0  0  0  0  0  0
  -19.1521  -28.8847   23.2922 C   0  0  0  0  0  0
  -18.9454  -30.1440   23.8947 C   0  0  0  0  0  0
  -17.6451  -30.6581   24.0581 C   0  0  0  0  0  0
  -25.9022  -34.9483   23.5172 C   0  0  0  0  0  0
  -16.5338  -29.9092   23.6332 C   0  0  0  0  0  0
  -16.7266  -28.6505   23.0375 C   0  0  0  0  0  0
  -26.4455  -31.6599   25.0775 C   0  0  0  0  0  0
  -25.3716  -31.3668   26.1523 C   0  0  0  0  0  0
  -27.0353  -30.3074   24.6142 C   0  0  0  0  0  0
  -27.6048  -32.4331   25.7493 C   0  0  0  0  0  0
  -27.5587  -37.1808   24.8469 C   0  0  0  0  0  0
  -21.4119  -29.3061   22.3745 N   0  0  0  0  0  0
  -26.4291  -37.3791   23.9414 N   0  0  0  0  0  0
  -24.6611  -31.0871   22.1060 N   0  0  0  0  0  0
  -23.4184  -28.8228   23.3010 O   0  0  0  0  0  0
  -28.4034  -26.7544   20.0272 O   0  0  0  0  0  0
  -26.5605  -34.8926   22.4748 O   0  0  0  0  0  0
  -23.5289  -32.1439   23.7614 O   0  0  0  0  0  0
  -28.3360  -19.8622   20.5573 C   0  0  0  0  0  0
  -29.3089  -19.2793   18.0608 C   0  0  0  0  0  0
  -28.6040  -20.4879   18.2234 C   0  0  0  0  0  0
  -28.0966  -20.7776   19.5128 C   0  0  0  0  0  0
  -29.0764  -18.7003   20.2914 C   0  0  0  0  0  0
  -29.4592  -21.6061   15.9920 C   0  0  0  0  0  0
  -29.1233  -22.7276   16.9457 C   0  0  0  0  0  0
  -28.3935  -21.4067   17.0484 C   0  0  0  0  0  0
  -30.5226  -16.4100   23.8158 C   0  0  0  0  0  0
  -27.3253  -22.0560   19.8002 C   0  0  0  0  0  0
  -30.7687  -17.4821   21.4980 C   0  0  0  0  0  0
  -28.4300  -25.4970   20.7111 C   0  0  0  0  0  0
  -27.6231  -24.3799   20.0246 C   0  0  0  0  0  0
  -30.9947  -16.2260   22.3630 C   0  0  2  0  0  0
  -29.5457  -18.4083   19.0646 N   0  0  0  0  0  0
  -29.3521  -17.7940   21.3164 N   0  0  0  0  0  0
  -30.3473  -15.0534   21.7800 N   0  0  0  0  0  0
  -28.1893  -23.0976   20.2468 O   0  0  0  0  0  0
  -31.4627  -12.4134   19.0859 H   0  0  0  0  0  0
  -30.3332  -11.2708   19.7497 H   0  0  0  0  0  0
  -29.7179  -11.8336   17.3876 H   0  0  0  0  0  0
  -29.6493  -13.5316   17.7883 H   0  0  0  0  0  0
  -27.8159  -11.3232   18.7825 H   0  0  0  0  0  0
  -27.3571  -12.6792   17.7869 H   0  0  0  0  0  0
  -27.7304  -14.2552   19.6159 H   0  0  0  0  0  0
  -28.6667  -11.8772   21.2869 H   0  0  0  0  0  0
  -28.4420  -13.4830   21.8926 H   0  0  0  0  0  0
  -25.2748   -9.5686   22.4747 H   0  0  0  0  0  0
  -23.9988   -7.4644   22.7484 H   0  0  0  0  0  0
  -21.0830   -8.8761   19.8943 H   0  0  0  0  0  0
  -22.3681  -10.9665   19.6154 H   0  0  0  0  0  0
  -21.2014   -7.6150   23.9713 H   0  0  0  0  0  0
  -21.1476   -6.0524   25.9077 H   0  0  0  0  0  0
  -22.0605   -2.7603   23.2850 H   0  0  0  0  0  0
  -22.4134  -11.9878   22.4723 H   0  0  0  0  0  0
  -21.1144  -13.1279   22.2595 H   0  0  0  0  0  0
  -24.6823  -15.8522   20.5361 H   0  0  0  0  0  0
  -26.3086  -15.6217   20.1305 H   0  0  0  0  0  0
  -26.7078  -32.5573   23.1229 H   0  0  0  0  0  0
  -24.9988  -33.9770   25.0510 H   0  0  0  0  0  0
  -22.6831  -31.3202   21.4241 H   0  0  0  0  0  0
  -23.3735  -35.9678   23.3313 H   0  0  0  0  0  0
  -24.3568  -36.8956   22.2057 H   0  0  0  0  0  0
  -23.7265  -37.6550   23.6675 H   0  0  0  0  0  0
  -26.0364  -31.6097   20.6050 H   0  0  0  0  0  0
  -26.8143  -30.8918   21.9922 H   0  0  0  0  0  0
  -28.0991  -29.1235   21.1555 H   0  0  0  0  0  0
  -26.0352  -26.0504   18.9217 H   0  0  0  0  0  0
  -23.9651  -27.3273   19.0272 H   0  0  0  0  0  0
  -23.7172  -30.6195   19.4166 H   0  0  0  0  0  0
  -22.7240  -29.2661   19.8743 H   0  0  0  0  0  0
  -25.1252  -36.1994   25.0850 H   0  0  0  0  0  0
  -20.9967  -28.3258   24.1425 H   0  0  0  0  0  0
  -20.5669  -26.2300   23.3614 H   0  0  0  0  0  0
  -21.6610  -26.7453   22.1203 H   0  0  0  0  0  0
  -19.6890  -25.6307   21.1245 H   0  0  0  0  0  0
  -19.6648  -27.3219   20.6769 H   0  0  0  0  0  0
  -17.4175  -26.6726   21.4029 H   0  0  0  0  0  0
  -18.0273  -26.0058   22.9001 H   0  0  0  0  0  0
  -19.7928  -30.7239   24.2348 H   0  0  0  0  0  0
  -17.5016  -31.6279   24.5154 H   0  0  0  0  0  0
  -15.5340  -30.3013   23.7628 H   0  0  0  0  0  0
  -15.8669  -28.0829   22.7075 H   0  0  0  0  0  0
  -24.5886  -30.7015   25.7854 H   0  0  0  0  0  0
  -24.8878  -32.2791   26.5012 H   0  0  0  0  0  0
  -25.8051  -30.8810   27.0269 H   0  0  0  0  0  0
  -26.2941  -29.6735   24.1257 H   0  0  0  0  0  0
  -27.4252  -29.7375   25.4583 H   0  0  0  0  0  0
  -27.8683  -30.4453   23.9248 H   0  0  0  0  0  0
  -27.2707  -33.3650   26.2068 H   0  0  0  0  0  0
  -28.3816  -32.6850   25.0260 H   0  0  0  0  0  0
  -28.0764  -31.8459   26.5385 H   0  0  0  0  0  0
  -28.2574  -38.0126   24.7521 H   0  0  0  0  0  0
  -28.1107  -36.2657   24.6273 H   0  0  0  0  0  0
  -27.2304  -37.1423   25.8869 H   0  0  0  0  0  0
  -20.9290  -29.8815   21.6990 H   0  0  0  0  0  0
  -26.0191  -38.2877   24.1421 H   0  0  0  0  0  0
  -27.9653  -20.0731   21.5512 H   0  0  0  0  0  0
  -29.7024  -18.9987   17.0959 H   0  0  0  0  0  0
  -30.4234  -21.1180   16.1199 H   0  0  0  0  0  0
  -29.1357  -21.7235   14.9592 H   0  0  0  0  0  0
  -28.5920  -23.5819   16.5285 H   0  0  0  0  0  0
  -29.8593  -22.9662   17.7101 H   0  0  0  0  0  0
  -27.3576  -21.3799   16.7112 H   0  0  0  0  0  0
  -30.9773  -17.2893   24.2728 H   0  0  0  0  0  0
  -30.7941  -15.5523   24.4328 H   0  0  0  0  0  0
  -29.4402  -16.5290   23.8812 H   0  0  0  0  0  0
  -26.5718  -21.8675   20.5659 H   0  0  0  0  0  0
  -26.7714  -22.3479   18.9069 H   0  0  0  0  0  0
  -31.2676  -17.3464   20.5377 H   0  0  0  0  0  0
  -31.2514  -18.3435   21.9639 H   0  0  0  0  0  0
  -29.4784  -25.1959   20.7467 H   0  0  0  0  0  0
  -28.1148  -25.6151   21.7478 H   0  0  0  0  0  0
  -27.6226  -24.5425   18.9459 H   0  0  0  0  0  0
  -26.5879  -24.4042   20.3711 H   0  0  0  0  0  0
  -32.0696  -16.0360   22.3943 H   0  0  0  0  0  0
  -28.8942  -18.0232   22.1903 H   0  0  0  0  0  0
  -29.5133  -14.7169   22.2357 H   0  0  0  0  0  0
  1 25  1  0  0  0
  1 30  2  0  0  0
  1 87  1  0  0  0
  2  3  1  0  0  0
  2 25  1  0  0  0
  2 89  1  0  0  0
  2 90  1  0  0  0
  3  4  1  0  0  0
  3 91  1  0  0  0
  3 92  1  0  0  0
  4  5  1  0  0  0
  4 93  1  0  0  0
  4 94  1  0  0  0
  5  6  1  0  0  0
  5 26  1  0  0  0
  5 95  1  0  0  0
  6 25  1  0  0  0
  6 96  1  0  0  0
  6 97  1  0  0  0
  7  8  2  0  0  0
  7 26  1  0  0  0
  7 29  1  0  0  0
  8  9  1  0  0  0
  8 22  1  0  0  0
  9 10  1  0  0  0
  9 27  2  0  0  0
 10 11  2  0  0  0
 10 15  1  0  0  0
 11 12  1  0  0  0
 11 98  1  0  0  0
 12 13  2  0  0  0
 12 99  1  0  0  0
 13 14  1  0  0  0
 13 31  1  0  0  0
 14 15  2  0  0  0
 14100  1  0  0  0
 15101  1  0  0  0
 16 17  2  0  0  0
 16 21  1  0  0  0
 16 31  1  0  0  0
 17 18  1  0  0  0
 17102  1  0  0  0
 18 19  2  0  0  0
 18103  1  0  0  0
 19 20  1  0  0  0
 19 24  1  0  0  0
 20 21  2  0  0  0
 20104  1  0  0  0
 21 23  1  0  0  0
 22 28  1  0  0  0
 22 32  2  0  0  0
 26 27  1  0  0  0
 28105  1  0  0  0
 28106  1  0  0  0
 29107  1  0  0  0
 29108  1  0  0  0
 33 34  1  0  0  0
 33 66  1  0  0  0
 33 70  2  0  0  0
 34 36  1  0  0  0
 34 59  1  0  0  0
 34109  1  0  0  0
 35 44  2  0  0  0
 35 45  1  0  0  0
 35 68  1  0  0  0
 36 56  1  0  0  0
 36110  1  0  0  0
 37 39  1  0  0  0
 37 47  1  0  0  0
 37 66  1  0  0  0
 37111  1  0  0  0
 38 43  2  0  0  0
 38 46  1  0  0  0
 38 47  1  0  0  0
 39 64  1  0  0  0
 39 67  2  0  0  0
 40 52  1  0  0  0
 40 53  2  0  0  0
 40 58  1  0  0  0
 41112  1  0  0  0
 41113  1  0  0  0
 41114  1  0  0  0
 41 48  1  0  0  0
 42 43  1  0  0  0
 42 66  1  0  0  0
 42115  1  0  0  0
 42116  1  0  0  0
 43 44  1  0  0  0
 44117  1  0  0  0
 45 46  2  0  0  0
 45118  1  0  0  0
 46119  1  0  0  0
 47120  1  0  0  0
 47121  1  0  0  0
 48 56  1  0  0  0
 48 65  1  0  0  0
 48122  1  0  0  0
 49 50  1  0  0  0
 49 53  1  0  0  0
 49 64  1  0  0  0
 49123  1  0  0  0
 50 51  1  0  0  0
 50124  1  0  0  0
 50125  1  0  0  0
 51 52  1  0  0  0
 51126  1  0  0  0
 51127  1  0  0  0
 52128  1  0  0  0
 52129  1  0  0  0
 53 54  1  0  0  0
 54 55  2  0  0  0
 54130  1  0  0  0
 55 57  1  0  0  0
 55131  1  0  0  0
 56 69  2  0  0  0
 57 58  2  0  0  0
 57132  1  0  0  0
 58133  1  0  0  0
 59 60  1  0  0  0
 59 61  1  0  0  0
 59 62  1  0  0  0
 60134  1  0  0  0
 60135  1  0  0  0
 60136  1  0  0  0
 61137  1  0  0  0
 61138  1  0  0  0
 61139  1  0  0  0
 62140  1  0  0  0
 62141  1  0  0  0
 62142  1  0  0  0
 63 65  1  0  0  0
 63143  1  0  0  0
 63144  1  0  0  0
 63145  1  0  0  0
 64146  1  0  0  0
 65147  1  0  0  0
 68 82  1  0  0  0
 71 74  2  0  0  0
 71 75  1  0  0  0
 71148  1  0  0  0
 72 73  2  0  0  0
 72 85  1  0  0  0
 72149  1  0  0  0
 73 74  1  0  0  0
 73 78  1  0  0  0
 74 80  1  0  0  0
 75 85  2  0  0  0
 75 86  1  0  0  0
 76 77  1  0  0  0
 76 78  1  0  0  0
 76150  1  0  0  0
 76151  1  0  0  0
 77 78  1  0  0  0
 77152  1  0  0  0
 77153  1  0  0  0
 78154  1  0  0  0
 79155  1  0  0  0
 79156  1  0  0  0
 79157  1  0  0  0
 79 84  1  0  0  0
 80 88  1  0  0  0
 80158  1  0  0  0
 80159  1  0  0  0
 81 84  1  0  0  0
 81 86  1  0  0  0
 81160  1  0  0  0
 81161  1  0  0  0
 82 83  1  0  0  0
 82162  1  0  0  0
 82163  1  0  0  0
 83 88  1  0  0  0
 83164  1  0  0  0
 83165  1  0  0  0
 84 87  1  0  0  0
 84166  1  0  0  0
 86167  1  0  0  0
 87168  1  0  0  0
M  ISO  4   1 100  68 101  82 101  87 100
M  END
> <chiral flag>
0

> <version>
0

> <s_m_source_file>
/data/baiqing/PycharmProjects/Reinvent-master-3.2/result/LINK_invent/BTK/process_docking_weight1_custom_sum_contain_oxygen_bond_distance_aromatic_linkinvent_7_9_3/rearranged_h_0132.sdf

> <i_m_source_file_index>
32

> <r_mmod_Potential_Energy-OPLS-2005>
-305.253936767578

> <r_mmod_Stretch_Energy-OPLS-2005>
31.5939960479736

> <r_mmod_Bend_Energy-OPLS-2005>
91.3715438842773

> <r_mmod_Torsional_Energy-OPLS-2005>
277.580688476562

> <r_mmod_Improper_Torsional_Energy-OPLS-2005>
6.87275457382202

> <r_mmod_Van_der_Waal_Energy-OPLS-2005>
158.123413085938

> <r_mmod_Electrostatic_Energy-OPLS-2005>
-644.75732421875

> <r_mmod_Solvation_Energy-OPLS-2005>
-233.45947265625

> <b_mmod_Minimization_Converged-OPLS-2005>
0

> <r_mmod_RMS_Derivative-OPLS-2005>
2.82931089401245

$$$$
32
                    3D
 Structure written by MMmdl.
163172  0  0  1  0            999 V2000
  -30.6542  -14.5898   20.5074 C   0  0  0  0  0  0
  -30.4303  -12.3573   19.4617 C   0  0  0  0  0  0
  -29.5061  -12.5008   18.2316 C   0  0  0  0  0  0
  -28.0295  -12.3449   18.6422 C   0  0  0  0  0  0
  -27.6580  -13.2142   19.8733 C   0  0  2  0  0  0
  -28.7005  -13.0607   21.0069 C   0  0  0  0  0  0
  -25.2575  -13.8168   20.5695 C   0  0  0  0  0  0
  -24.1836  -13.0435   20.9183 C   0  0  0  0  0  0
  -24.6399  -11.6906   20.8746 C   0  0  0  0  0  0
  -23.9062  -10.4292   21.0407 C   0  0  0  0  0  0
  -24.3613   -9.4210   21.9187 C   0  0  0  0  0  0
  -23.6293   -8.2244   22.0757 C   0  0  0  0  0  0
  -22.4277   -8.0279   21.3545 C   0  0  0  0  0  0
  -21.9909   -9.0251   20.4642 C   0  0  0  0  0  0
  -22.7236  -10.2131   20.3055 C   0  0  0  0  0  0
  -21.6851   -6.0737   22.5278 C   0  0  0  0  0  0
  -21.4012   -6.5643   23.8212 C   0  0  0  0  0  0
  -21.3657   -5.6794   24.9173 C   0  0  0  0  0  0
  -21.6047   -4.3056   24.7224 C   0  0  0  0  0  0
  -21.8818   -3.8148   23.4341 C   0  0  0  0  0  0
  -21.9197   -4.6966   22.3398 C   0  0  0  0  0  0
  -22.7859  -13.5238   21.1844 C   0  0  0  0  0  0
  -22.1665   -4.2151   21.0973 F   0  0  0  0  0  0
  -21.5630   -3.4538   25.7735 F   0  0  0  0  0  0
  -30.0260  -13.3760   20.4513 N   0  0  0  0  0  0
  -26.3013  -12.9349   20.3380 N   0  0  0  0  0  0
  -25.9334  -11.6504   20.5789 N   0  0  0  0  0  0
  -22.0498  -12.8224   22.0390 N   0  0  0  0  0  0
  -25.4299  -15.1883   20.4087 N   0  0  0  0  0  0
  -31.7941  -14.7541   20.0664 O   0  0  0  0  0  0
  -21.6642   -6.8878   21.4238 O   0  0  0  0  0  0
  -22.3546  -14.5548   20.6698 O   0  0  0  0  0  0
  -24.6237  -31.8600   23.2046 C   0  0  0  0  0  0
  -25.9090  -32.4779   23.8365 C   0  0  1  0  0  0
  -27.2248  -27.3443   20.1215 C   0  0  0  0  0  0
  -25.5915  -33.8578   24.2292 N   0  0  0  0  0  0
  -23.4166  -30.4854   21.5462 C   0  0  2  0  0  0
  -24.8643  -28.9453   20.1103 C   0  0  0  0  0  0
  -22.7457  -29.4634   22.4942 C   0  0  0  0  0  0
  -18.0272  -28.1393   22.8483 C   0  0  0  0  0  0
  -24.1477  -36.7295   23.2642 C   0  0  0  0  0  0
  -25.9554  -30.7998   21.3729 C   0  0  0  0  0  0
  -26.0312  -29.4294   20.7172 C   0  0  0  0  0  0
  -27.2161  -28.6399   20.7152 C   0  0  0  0  0  0
  -26.0447  -26.9139   19.4755 C   0  0  0  0  0  0
  -24.8724  -27.6917   19.4797 C   0  0  0  0  0  0
  -23.6299  -29.8204   20.1609 C   0  0  0  0  0  0
  -25.4098  -36.3083   24.0333 C   0  0  1  0  0  0
  -20.5872  -28.3679   23.1285 C   0  0  2  0  0  0
  -20.6762  -26.9410   22.5408 C   0  0  0  0  0  0
  -19.5745  -26.6385   21.5212 C   0  0  0  0  0  0
  -18.1920  -26.7938   22.1610 C   0  0  0  0  0  0
  -19.1530  -28.8854   23.2879 C   0  0  0  0  0  0
  -18.9460  -30.1458   23.8884 C   0  0  0  0  0  0
  -17.6463  -30.6593   24.0573 C   0  0  0  0  0  0
  -25.9031  -34.9452   23.5114 C   0  0  0  0  0  0
  -16.5347  -29.9097   23.6342 C   0  0  0  0  0  0
  -16.7262  -28.6521   23.0352 C   0  0  0  0  0  0
  -26.4483  -31.6588   25.0733 C   0  0  0  0  0  0
  -25.3723  -31.3725   26.1468 C   0  0  0  0  0  0
  -27.0341  -30.3021   24.6172 C   0  0  0  0  0  0
  -27.6028  -32.4336   25.7513 C   0  0  0  0  0  0
  -27.5563  -37.1810   24.8466 C   0  0  0  0  0  0
  -21.4170  -29.3051   22.3700 N   0  0  0  0  0  0
  -26.4269  -37.3782   23.9414 N   0  0  0  0  0  0
  -24.6842  -31.0638   22.0982 N   0  0  0  0  0  0
  -23.4202  -28.8161   23.3000 O   0  0  0  0  0  0
  -28.3334  -26.4928   20.1604 O   0  0  0  0  0  0
  -26.5610  -34.8922   22.4680 O   0  0  0  0  0  0
  -23.5406  -32.1370   23.7391 O   0  0  0  0  0  0
  -27.7713  -18.0430   26.3945 C   0  0  0  0  0  0
  -27.3553  -19.3838   26.5136 C   0  0  0  0  0  0
  -28.4035  -17.6046   25.2139 C   0  0  0  0  0  0
  -27.5682  -20.2848   25.4521 C   0  0  0  0  0  0
  -29.2689  -18.0913   22.9771 C   0  0  0  0  0  0
  -28.4322  -20.7399   23.2107 C   0  0  0  0  0  0
  -28.6182  -18.5066   24.1504 C   0  0  0  0  0  0
  -28.1990  -19.8453   24.2686 C   0  0  0  0  0  0
  -29.5088  -18.9696   21.8929 C   0  0  0  0  0  0
  -29.0719  -20.3539   22.0001 C   0  0  0  0  0  0
  -28.4786  -22.5106   20.8334 C   0  0  0  0  0  0
  -30.3107  -18.3382   20.7325 C   0  0  0  0  0  0
  -28.9876  -23.8999   20.2914 C   0  0  0  0  0  0
  -29.8237  -16.9667   20.0967 C   0  0  0  0  0  0
  -28.0832  -25.1431   20.7080 C   0  0  0  0  0  0
  -29.3108  -21.4354   21.0439 N   0  0  0  0  0  0
  -29.8737  -15.6584   20.8321 N   0  0  0  0  0  0
  -27.2655  -22.3931   21.0278 O   0  0  0  0  0  0
  -31.4759  -12.4571   19.1643 H   0  0  0  0  0  0
  -30.3403  -11.3591   19.8928 H   0  0  0  0  0  0
  -29.7625  -11.7554   17.4778 H   0  0  0  0  0  0
  -29.6577  -13.4750   17.7640 H   0  0  0  0  0  0
  -27.8633  -11.2913   18.8720 H   0  0  0  0  0  0
  -27.3742  -12.5784   17.8026 H   0  0  0  0  0  0
  -27.6813  -14.2507   19.5372 H   0  0  0  0  0  0
  -28.6952  -12.0421   21.3975 H   0  0  0  0  0  0
  -28.4538  -13.7039   21.8529 H   0  0  0  0  0  0
  -25.2755   -9.5693   22.4763 H   0  0  0  0  0  0
  -24.0005   -7.4636   22.7475 H   0  0  0  0  0  0
  -21.0846   -8.8759   19.8942 H   0  0  0  0  0  0
  -22.3693  -10.9668   19.6160 H   0  0  0  0  0  0
  -21.1998   -7.6152   23.9712 H   0  0  0  0  0  0
  -21.1481   -6.0525   25.9074 H   0  0  0  0  0  0
  -22.0602   -2.7610   23.2838 H   0  0  0  0  0  0
  -22.4108  -11.9875   22.4768 H   0  0  0  0  0  0
  -21.1109  -13.1238   22.2582 H   0  0  0  0  0  0
  -24.6627  -15.8438   20.5076 H   0  0  0  0  0  0
  -26.2839  -15.6256   20.0869 H   0  0  0  0  0  0
  -26.7167  -32.5452   23.1125 H   0  0  0  0  0  0
  -25.0081  -33.9737   25.0452 H   0  0  0  0  0  0
  -22.7109  -31.3059   21.4042 H   0  0  0  0  0  0
  -23.3736  -35.9632   23.3305 H   0  0  0  0  0  0
  -24.3573  -36.8905   22.2057 H   0  0  0  0  0  0
  -23.7240  -37.6503   23.6657 H   0  0  0  0  0  0
  -26.0862  -31.5623   20.6039 H   0  0  0  0  0  0
  -26.8384  -30.8468   21.9989 H   0  0  0  0  0  0
  -28.1102  -29.0044   21.2016 H   0  0  0  0  0  0
  -26.0162  -25.9587   18.9704 H   0  0  0  0  0  0
  -23.9811  -27.3173   18.9945 H   0  0  0  0  0  0
  -23.7451  -30.5969   19.4029 H   0  0  0  0  0  0
  -22.7511  -29.2461   19.8598 H   0  0  0  0  0  0
  -25.1286  -36.1933   25.0828 H   0  0  0  0  0  0
  -20.9950  -28.3234   24.1406 H   0  0  0  0  0  0
  -20.5669  -26.2284   23.3594 H   0  0  0  0  0  0
  -21.6628  -26.7455   22.1193 H   0  0  0  0  0  0
  -19.6907  -25.6301   21.1226 H   0  0  0  0  0  0
  -19.6682  -27.3200   20.6752 H   0  0  0  0  0  0
  -17.4190  -26.6681   21.4010 H   0  0  0  0  0  0
  -18.0312  -26.0091   22.9014 H   0  0  0  0  0  0
  -19.7945  -30.7279   24.2230 H   0  0  0  0  0  0
  -17.5033  -31.6276   24.5174 H   0  0  0  0  0  0
  -15.5353  -30.3010   23.7696 H   0  0  0  0  0  0
  -15.8649  -28.0855   22.7071 H   0  0  0  0  0  0
  -24.5893  -30.7078   25.7803 H   0  0  0  0  0  0
  -24.8931  -32.2901   26.4894 H   0  0  0  0  0  0
  -25.8058  -30.8905   27.0238 H   0  0  0  0  0  0
  -26.2929  -29.6778   24.1171 H   0  0  0  0  0  0
  -27.4041  -29.7263   25.4666 H   0  0  0  0  0  0
  -27.8787  -30.4339   23.9404 H   0  0  0  0  0  0
  -27.2620  -33.3638   26.2074 H   0  0  0  0  0  0
  -28.3855  -32.6890   25.0359 H   0  0  0  0  0  0
  -28.0676  -31.8476   26.5454 H   0  0  0  0  0  0
  -28.2585  -38.0105   24.7503 H   0  0  0  0  0  0
  -28.1054  -36.2633   24.6295 H   0  0  0  0  0  0
  -27.2283  -37.1467   25.8871 H   0  0  0  0  0  0
  -20.9331  -29.8801   21.6944 H   0  0  0  0  0  0
  -26.0143  -38.2851   24.1418 H   0  0  0  0  0  0
  -27.6113  -17.3508   27.2103 H   0  0  0  0  0  0
  -26.8766  -19.7237   27.4213 H   0  0  0  0  0  0
  -28.7271  -16.5763   25.1337 H   0  0  0  0  0  0
  -27.2525  -21.3146   25.5531 H   0  0  0  0  0  0
  -29.6233  -17.0732   22.9287 H   0  0  0  0  0  0
  -28.1260  -21.7650   23.3643 H   0  0  0  0  0  0
  -31.3418  -18.2231   21.0681 H   0  0  0  0  0  0
  -30.3519  -19.0762   19.9313 H   0  0  0  0  0  0
  -29.0246  -23.8348   19.2042 H   0  0  0  0  0  0
  -30.0124  -24.0598   20.6267 H   0  0  0  0  0  0
  -30.3869  -16.8342   19.1713 H   0  0  0  0  0  0
  -28.7920  -17.0990   19.7684 H   0  0  0  0  0  0
  -28.1460  -25.2421   21.7928 H   0  0  0  0  0  0
  -27.0502  -24.8525   20.5291 H   0  0  0  0  0  0
  -30.2364  -21.4826   20.6379 H   0  0  0  0  0  0
  -29.0072  -15.3991   21.2801 H   0  0  0  0  0  0
  1 25  1  0  0  0
  1 30  2  0  0  0
  1 87  1  0  0  0
  2  3  1  0  0  0
  2 25  1  0  0  0
  2 89  1  0  0  0
  2 90  1  0  0  0
  3  4  1  0  0  0
  3 91  1  0  0  0
  3 92  1  0  0  0
  4  5  1  0  0  0
  4 93  1  0  0  0
  4 94  1  0  0  0
  5  6  1  0  0  0
  5 26  1  0  0  0
  5 95  1  0  0  0
  6 25  1  0  0  0
  6 96  1  0  0  0
  6 97  1  0  0  0
  7  8  2  0  0  0
  7 26  1  0  0  0
  7 29  1  0  0  0
  8  9  1  0  0  0
  8 22  1  0  0  0
  9 10  1  0  0  0
  9 27  2  0  0  0
 10 11  2  0  0  0
 10 15  1  0  0  0
 11 12  1  0  0  0
 11 98  1  0  0  0
 12 13  2  0  0  0
 12 99  1  0  0  0
 13 14  1  0  0  0
 13 31  1  0  0  0
 14 15  2  0  0  0
 14100  1  0  0  0
 15101  1  0  0  0
 16 17  2  0  0  0
 16 21  1  0  0  0
 16 31  1  0  0  0
 17 18  1  0  0  0
 17102  1  0  0  0
 18 19  2  0  0  0
 18103  1  0  0  0
 19 20  1  0  0  0
 19 24  1  0  0  0
 20 21  2  0  0  0
 20104  1  0  0  0
 21 23  1  0  0  0
 22 28  1  0  0  0
 22 32  2  0  0  0
 26 27  1  0  0  0
 28105  1  0  0  0
 28106  1  0  0  0
 29107  1  0  0  0
 29108  1  0  0  0
 33 34  1  0  0  0
 33 66  1  0  0  0
 33 70  2  0  0  0
 34 36  1  0  0  0
 34 59  1  0  0  0
 34109  1  0  0  0
 35 44  2  0  0  0
 35 45  1  0  0  0
 35 68  1  0  0  0
 36 56  1  0  0  0
 36110  1  0  0  0
 37 39  1  0  0  0
 37 47  1  0  0  0
 37 66  1  0  0  0
 37111  1  0  0  0
 38 43  2  0  0  0
 38 46  1  0  0  0
 38 47  1  0  0  0
 39 64  1  0  0  0
 39 67  2  0  0  0
 40 52  1  0  0  0
 40 53  2  0  0  0
 40 58  1  0  0  0
 41112  1  0  0  0
 41113  1  0  0  0
 41114  1  0  0  0
 41 48  1  0  0  0
 42 43  1  0  0  0
 42 66  1  0  0  0
 42115  1  0  0  0
 42116  1  0  0  0
 43 44  1  0  0  0
 44117  1  0  0  0
 45 46  2  0  0  0
 45118  1  0  0  0
 46119  1  0  0  0
 47120  1  0  0  0
 47121  1  0  0  0
 48 56  1  0  0  0
 48 65  1  0  0  0
 48122  1  0  0  0
 49 50  1  0  0  0
 49 53  1  0  0  0
 49 64  1  0  0  0
 49123  1  0  0  0
 50 51  1  0  0  0
 50124  1  0  0  0
 50125  1  0  0  0
 51 52  1  0  0  0
 51126  1  0  0  0
 51127  1  0  0  0
 52128  1  0  0  0
 52129  1  0  0  0
 53 54  1  0  0  0
 54 55  2  0  0  0
 54130  1  0  0  0
 55 57  1  0  0  0
 55131  1  0  0  0
 56 69  2  0  0  0
 57 58  2  0  0  0
 57132  1  0  0  0
 58133  1  0  0  0
 59 60  1  0  0  0
 59 61  1  0  0  0
 59 62  1  0  0  0
 60134  1  0  0  0
 60135  1  0  0  0
 60136  1  0  0  0
 61137  1  0  0  0
 61138  1  0  0  0
 61139  1  0  0  0
 62140  1  0  0  0
 62141  1  0  0  0
 62142  1  0  0  0
 63 65  1  0  0  0
 63143  1  0  0  0
 63144  1  0  0  0
 63145  1  0  0  0
 64146  1  0  0  0
 65147  1  0  0  0
 68 85  1  0  0  0
 71 72  2  0  0  0
 71 73  1  0  0  0
 71148  1  0  0  0
 72 74  1  0  0  0
 72149  1  0  0  0
 73 77  2  0  0  0
 73150  1  0  0  0
 74 78  2  0  0  0
 74151  1  0  0  0
 75 77  1  0  0  0
 75 79  2  0  0  0
 75152  1  0  0  0
 76 78  1  0  0  0
 76 80  2  0  0  0
 76153  1  0  0  0
 77 78  1  0  0  0
 79 80  1  0  0  0
 79 82  1  0  0  0
 80 86  1  0  0  0
 81 83  1  0  0  0
 81 86  1  0  0  0
 81 88  2  0  0  0
 82 84  1  0  0  0
 82154  1  0  0  0
 82155  1  0  0  0
 83 85  1  0  0  0
 83156  1  0  0  0
 83157  1  0  0  0
 84 87  1  0  0  0
 84158  1  0  0  0
 84159  1  0  0  0
 85160  1  0  0  0
 85161  1  0  0  0
 86162  1  0  0  0
 87163  1  0  0  0
M  ISO  4   1 100  68 101  85 101  87 100
M  END
> <chiral flag>
0

> <version>
0

> <s_m_source_file>
/data/baiqing/PycharmProjects/Reinvent-master-3.2/result/LINK_invent/BTK/process_docking_weight1_custom_sum_contain_oxygen_bond_distance_aromatic_linkinvent_7_9_3/rearranged_h_0132.sdf

> <i_m_source_file_index>
33

> <r_mmod_Potential_Energy-OPLS-2005>
43.1070938110352

> <r_mmod_Stretch_Energy-OPLS-2005>
78.1108093261719

> <r_mmod_Bend_Energy-OPLS-2005>
144.362167358398

> <r_mmod_Torsional_Energy-OPLS-2005>
270.287139892578

> <r_mmod_Improper_Torsional_Energy-OPLS-2005>
9.15392589569092

> <r_mmod_Van_der_Waal_Energy-OPLS-2005>
171.309997558594

> <r_mmod_Electrostatic_Energy-OPLS-2005>
-428.025512695312

> <r_mmod_Solvation_Energy-OPLS-2005>
-239.514053344727

> <b_mmod_Minimization_Converged-OPLS-2005>
0

> <r_mmod_RMS_Derivative-OPLS-2005>
1.53890442848206

$$$$
33
                    3D
 Structure written by MMmdl.
159167  0  0  1  0            999 V2000
  -30.7616  -14.5290   20.5239 C   0  0  0  0  0  0
  -30.4015  -12.3325   19.4600 C   0  0  0  0  0  0
  -29.5214  -12.4682   18.1934 C   0  0  0  0  0  0
  -28.0370  -12.7946   18.4925 C   0  0  0  0  0  0
  -27.7087  -12.7385   19.9847 C   0  0  2  0  0  0
  -28.7113  -13.1981   21.0401 C   0  0  0  0  0  0
  -25.3101  -13.7499   20.5495 C   0  0  0  0  0  0
  -24.1874  -13.0392   20.9096 C   0  0  0  0  0  0
  -24.5720  -11.6692   20.8875 C   0  0  0  0  0  0
  -23.8393  -10.4247   21.0620 C   0  0  0  0  0  0
  -24.3192   -9.4190   21.9290 C   0  0  0  0  0  0
  -23.6083   -8.2124   22.0750 C   0  0  0  0  0  0
  -22.4085   -8.0126   21.3525 C   0  0  0  0  0  0
  -21.9555   -9.0080   20.4683 C   0  0  0  0  0  0
  -22.6667  -10.2073   20.3187 C   0  0  0  0  0  0
  -21.6776   -6.0629   22.5268 C   0  0  0  0  0  0
  -21.3943   -6.5577   23.8180 C   0  0  0  0  0  0
  -21.3665   -5.6767   24.9178 C   0  0  0  0  0  0
  -21.6058   -4.3027   24.7270 C   0  0  0  0  0  0
  -21.8825   -3.8083   23.4404 C   0  0  0  0  0  0
  -21.9181   -4.6876   22.3434 C   0  0  0  0  0  0
  -22.8028  -13.5567   21.1787 C   0  0  0  0  0  0
  -22.1680   -4.2056   21.1013 F   0  0  0  0  0  0
  -21.5650   -3.4518   25.7791 F   0  0  0  0  0  0
  -30.0349  -13.3900   20.4209 N   0  0  0  0  0  0
  -26.3034  -12.7808   20.3644 N   0  0  0  0  0  0
  -25.8338  -11.5493   20.5982 N   0  0  0  0  0  0
  -22.0533  -12.8667   22.0359 N   0  0  0  0  0  0
  -25.5537  -15.1090   20.3673 N   0  0  0  0  0  0
  -31.8937  -14.6544   20.0589 O   0  0  0  0  0  0
  -21.6552   -6.8682   21.4190 O   0  0  0  0  0  0
  -22.3887  -14.5900   20.6584 O   0  0  0  0  0  0
  -24.6120  -31.8686   23.2105 C   0  0  0  0  0  0
  -25.9020  -32.4823   23.8404 C   0  0  1  0  0  0
  -27.2373  -27.4549   20.0926 C   0  0  0  0  0  0
  -25.5861  -33.8618   24.2324 N   0  0  0  0  0  0
  -23.4018  -30.4899   21.5515 C   0  0  2  0  0  0
  -24.8502  -28.9574   20.1168 C   0  0  0  0  0  0
  -22.7413  -29.4649   22.5008 C   0  0  0  0  0  0
  -18.0264  -28.1385   22.8486 C   0  0  0  0  0  0
  -24.1500  -36.7325   23.2640 C   0  0  0  0  0  0
  -25.9293  -30.8377   21.3651 C   0  0  0  0  0  0
  -26.0084  -29.4738   20.7127 C   0  0  0  0  0  0
  -27.2067  -28.7286   20.7003 C   0  0  0  0  0  0
  -26.0690  -26.9419   19.4953 C   0  0  0  0  0  0
  -24.8739  -27.6890   19.5068 C   0  0  0  0  0  0
  -23.6104  -29.8218   20.1661 C   0  0  0  0  0  0
  -25.4114  -36.3115   24.0342 C   0  0  1  0  0  0
  -20.5853  -28.3663   23.1331 C   0  0  2  0  0  0
  -20.6765  -26.9399   22.5442 C   0  0  0  0  0  0
  -19.5752  -26.6383   21.5227 C   0  0  0  0  0  0
  -18.1920  -26.7928   22.1625 C   0  0  0  0  0  0
  -19.1512  -28.8839   23.2899 C   0  0  0  0  0  0
  -18.9442  -30.1444   23.8906 C   0  0  0  0  0  0
  -17.6445  -30.6587   24.0562 C   0  0  0  0  0  0
  -25.9032  -34.9479   23.5138 C   0  0  0  0  0  0
  -16.5335  -29.9093   23.6320 C   0  0  0  0  0  0
  -16.7252  -28.6515   23.0333 C   0  0  0  0  0  0
  -26.4457  -31.6596   25.0724 C   0  0  0  0  0  0
  -25.3729  -31.3703   26.1468 C   0  0  0  0  0  0
  -27.0276  -30.3043   24.6084 C   0  0  0  0  0  0
  -27.6055  -32.4310   25.7445 C   0  0  0  0  0  0
  -27.5593  -37.1823   24.8457 C   0  0  0  0  0  0
  -21.4143  -29.3013   22.3734 N   0  0  0  0  0  0
  -26.4301  -37.3803   23.9400 N   0  0  0  0  0  0
  -24.6658  -31.0795   22.1005 N   0  0  0  0  0  0
  -23.4197  -28.8201   23.3052 O   0  0  0  0  0  0
  -28.3934  -26.7162   20.0632 O   0  0  0  0  0  0
  -26.5632  -34.8927   22.4721 O   0  0  0  0  0  0
  -23.5311  -32.1421   23.7509 O   0  0  0  0  0  0
  -29.0091  -22.5691   19.1063 C   0  0  0  0  0  0
  -28.9672  -23.9302   19.4795 C   0  0  0  0  0  0
  -28.1267  -21.9567   21.2867 C   0  0  0  0  0  0
  -28.5873  -21.5700   20.0109 C   0  0  0  0  0  0
  -28.5045  -24.3223   20.7561 C   0  0  0  0  0  0
  -28.0889  -23.3166   21.6687 C   0  0  0  0  0  0
  -27.5956  -23.6587   23.0656 C   0  0  0  0  0  0
  -28.5642  -20.0946   19.6134 C   0  0  0  0  0  0
  -28.5321  -25.8024   21.1561 C   0  0  0  0  0  0
  -30.4846  -17.0033   20.9454 C   0  0  0  0  0  0
  -29.3750  -17.8417   20.2646 C   0  0  0  0  0  0
  -30.0988  -15.5898   21.0082 N   0  0  0  0  0  0
  -29.6413  -19.3022   20.2510 N   0  3  0  0  0  0
  -31.4595  -12.3502   19.1919 H   0  0  0  0  0  0
  -30.2429  -11.3624   19.9339 H   0  0  0  0  0  0
  -29.5856  -11.5405   17.6213 H   0  0  0  0  0  0
  -29.9291  -13.2396   17.5378 H   0  0  0  0  0  0
  -27.3848  -12.1179   17.9372 H   0  0  0  0  0  0
  -27.8092  -13.7941   18.1224 H   0  0  0  0  0  0
  -27.9580  -11.6761   20.0711 H   0  0  0  0  0  0
  -28.8010  -12.4586   21.8376 H   0  0  0  0  0  0
  -28.3018  -14.0803   21.5307 H   0  0  0  0  0  0
  -25.2351   -9.5748   22.4835 H   0  0  0  0  0  0
  -23.9899   -7.4487   22.7382 H   0  0  0  0  0  0
  -21.0504   -8.8505   19.9001 H   0  0  0  0  0  0
  -22.3065  -10.9624   19.6328 H   0  0  0  0  0  0
  -21.1866   -7.6084   23.9653 H   0  0  0  0  0  0
  -21.1490   -6.0509   25.9078 H   0  0  0  0  0  0
  -22.0600   -2.7543   23.2922 H   0  0  0  0  0  0
  -22.3999  -12.0292   22.4796 H   0  0  0  0  0  0
  -21.1176  -13.1826   22.2539 H   0  0  0  0  0  0
  -26.4219  -15.4715   19.9938 H   0  0  0  0  0  0
  -24.8177  -15.8044   20.4148 H   0  0  0  0  0  0
  -26.7098  -32.5540   23.1178 H   0  0  0  0  0  0
  -24.9927  -33.9781   25.0413 H   0  0  0  0  0  0
  -22.6900  -31.3058   21.4127 H   0  0  0  0  0  0
  -23.3752  -35.9667   23.3308 H   0  0  0  0  0  0
  -24.3594  -36.8932   22.2053 H   0  0  0  0  0  0
  -23.7272  -37.6546   23.6644 H   0  0  0  0  0  0
  -26.0472  -31.6053   20.5995 H   0  0  0  0  0  0
  -26.8165  -30.8864   21.9845 H   0  0  0  0  0  0
  -28.1053  -29.1247   21.1529 H   0  0  0  0  0  0
  -26.0877  -25.9685   19.0244 H   0  0  0  0  0  0
  -23.9831  -27.2863   19.0442 H   0  0  0  0  0  0
  -23.7184  -30.5976   19.4074 H   0  0  0  0  0  0
  -22.7361  -29.2395   19.8696 H   0  0  0  0  0  0
  -25.1299  -36.1991   25.0841 H   0  0  0  0  0  0
  -20.9926  -28.3231   24.1459 H   0  0  0  0  0  0
  -20.5664  -26.2268   23.3629 H   0  0  0  0  0  0
  -21.6641  -26.7441   22.1243 H   0  0  0  0  0  0
  -19.6918  -25.6296   21.1254 H   0  0  0  0  0  0
  -19.6712  -27.3203   20.6769 H   0  0  0  0  0  0
  -17.4200  -26.6658   21.4018 H   0  0  0  0  0  0
  -18.0311  -26.0075   22.9027 H   0  0  0  0  0  0
  -19.7911  -30.7252   24.2305 H   0  0  0  0  0  0
  -17.4994  -31.6266   24.5165 H   0  0  0  0  0  0
  -15.5335  -30.3002   23.7638 H   0  0  0  0  0  0
  -15.8650  -28.0845   22.7041 H   0  0  0  0  0  0
  -24.5911  -30.7028   25.7821 H   0  0  0  0  0  0
  -24.8880  -32.2845   26.4902 H   0  0  0  0  0  0
  -25.8060  -30.8896   27.0249 H   0  0  0  0  0  0
  -26.2811  -29.6809   24.1132 H   0  0  0  0  0  0
  -27.4069  -29.7254   25.4521 H   0  0  0  0  0  0
  -27.8646  -30.4377   23.9220 H   0  0  0  0  0  0
  -27.2717  -33.3629   26.2018 H   0  0  0  0  0  0
  -28.3830  -32.6836   25.0226 H   0  0  0  0  0  0
  -28.0756  -31.8435   26.5338 H   0  0  0  0  0  0
  -28.2620  -38.0119   24.7495 H   0  0  0  0  0  0
  -28.1084  -36.2643   24.6286 H   0  0  0  0  0  0
  -27.2305  -37.1487   25.8864 H   0  0  0  0  0  0
  -20.9316  -29.8687   21.6907 H   0  0  0  0  0  0
  -26.0193  -38.2892   24.1366 H   0  0  0  0  0  0
  -29.3594  -22.3018   18.1180 H   0  0  0  0  0  0
  -29.3019  -24.6814   18.7772 H   0  0  0  0  0  0
  -27.7916  -21.1993   21.9822 H   0  0  0  0  0  0
  -27.4771  -22.7614   23.6750 H   0  0  0  0  0  0
  -26.6271  -24.1599   23.0203 H   0  0  0  0  0  0
  -28.3016  -24.3120   23.5793 H   0  0  0  0  0  0
  -28.6237  -19.9900   18.5292 H   0  0  0  0  0  0
  -27.5920  -19.6933   19.9011 H   0  0  0  0  0  0
  -29.4960  -25.9960   21.6266 H   0  0  0  0  0  0
  -27.7799  -26.0032   21.9206 H   0  0  0  0  0  0
  -30.6525  -17.3488   21.9661 H   0  0  0  0  0  0
  -31.4280  -17.1313   20.4116 H   0  0  0  0  0  0
  -28.4337  -17.6696   20.7893 H   0  0  0  0  0  0
  -29.2322  -17.4989   19.2390 H   0  0  0  0  0  0
  -29.1674  -15.3911   21.3449 H   0  0  0  0  0  0
  -30.5021  -19.4925   19.7642 H   0  0  0  0  0  0
  -29.7484  -19.6217   21.1996 H   0  0  0  0  0  0
  1 25  1  0  0  0
  1 30  2  0  0  0
  1 82  1  0  0  0
  2  3  1  0  0  0
  2 25  1  0  0  0
  2 84  1  0  0  0
  2 85  1  0  0  0
  3  4  1  0  0  0
  3 86  1  0  0  0
  3 87  1  0  0  0
  4  5  1  0  0  0
  4 88  1  0  0  0
  4 89  1  0  0  0
  5  6  1  0  0  0
  5 26  1  0  0  0
  5 90  1  0  0  0
  6 25  1  0  0  0
  6 91  1  0  0  0
  6 92  1  0  0  0
  7  8  2  0  0  0
  7 26  1  0  0  0
  7 29  1  0  0  0
  8  9  1  0  0  0
  8 22  1  0  0  0
  9 10  1  0  0  0
  9 27  2  0  0  0
 10 11  2  0  0  0
 10 15  1  0  0  0
 11 12  1  0  0  0
 11 93  1  0  0  0
 12 13  2  0  0  0
 12 94  1  0  0  0
 13 14  1  0  0  0
 13 31  1  0  0  0
 14 15  2  0  0  0
 14 95  1  0  0  0
 15 96  1  0  0  0
 16 17  2  0  0  0
 16 21  1  0  0  0
 16 31  1  0  0  0
 17 18  1  0  0  0
 17 97  1  0  0  0
 18 19  2  0  0  0
 18 98  1  0  0  0
 19 20  1  0  0  0
 19 24  1  0  0  0
 20 21  2  0  0  0
 20 99  1  0  0  0
 21 23  1  0  0  0
 22 28  1  0  0  0
 22 32  2  0  0  0
 26 27  1  0  0  0
 28100  1  0  0  0
 28101  1  0  0  0
 29102  1  0  0  0
 29103  1  0  0  0
 33 34  1  0  0  0
 33 66  1  0  0  0
 33 70  2  0  0  0
 34 36  1  0  0  0
 34 59  1  0  0  0
 34104  1  0  0  0
 35 44  2  0  0  0
 35 45  1  0  0  0
 35 68  1  0  0  0
 36 56  1  0  0  0
 36105  1  0  0  0
 37 39  1  0  0  0
 37 47  1  0  0  0
 37 66  1  0  0  0
 37106  1  0  0  0
 38 43  2  0  0  0
 38 46  1  0  0  0
 38 47  1  0  0  0
 39 64  1  0  0  0
 39 67  2  0  0  0
 40 52  1  0  0  0
 40 53  2  0  0  0
 40 58  1  0  0  0
 41107  1  0  0  0
 41108  1  0  0  0
 41109  1  0  0  0
 41 48  1  0  0  0
 42 43  1  0  0  0
 42 66  1  0  0  0
 42110  1  0  0  0
 42111  1  0  0  0
 43 44  1  0  0  0
 44112  1  0  0  0
 45 46  2  0  0  0
 45113  1  0  0  0
 46114  1  0  0  0
 47115  1  0  0  0
 47116  1  0  0  0
 48 56  1  0  0  0
 48 65  1  0  0  0
 48117  1  0  0  0
 49 50  1  0  0  0
 49 53  1  0  0  0
 49 64  1  0  0  0
 49118  1  0  0  0
 50 51  1  0  0  0
 50119  1  0  0  0
 50120  1  0  0  0
 51 52  1  0  0  0
 51121  1  0  0  0
 51122  1  0  0  0
 52123  1  0  0  0
 52124  1  0  0  0
 53 54  1  0  0  0
 54 55  2  0  0  0
 54125  1  0  0  0
 55 57  1  0  0  0
 55126  1  0  0  0
 56 69  2  0  0  0
 57 58  2  0  0  0
 57127  1  0  0  0
 58128  1  0  0  0
 59 60  1  0  0  0
 59 61  1  0  0  0
 59 62  1  0  0  0
 60129  1  0  0  0
 60130  1  0  0  0
 60131  1  0  0  0
 61132  1  0  0  0
 61133  1  0  0  0
 61134  1  0  0  0
 62135  1  0  0  0
 62136  1  0  0  0
 62137  1  0  0  0
 63 65  1  0  0  0
 63138  1  0  0  0
 63139  1  0  0  0
 63140  1  0  0  0
 64141  1  0  0  0
 65142  1  0  0  0
 68 79  1  0  0  0
 71 72  2  0  0  0
 71 74  1  0  0  0
 71143  1  0  0  0
 72 75  1  0  0  0
 72144  1  0  0  0
 73 74  2  0  0  0
 73 76  1  0  0  0
 73145  1  0  0  0
 74 78  1  0  0  0
 75 76  2  0  0  0
 75 79  1  0  0  0
 76 77  1  0  0  0
 77146  1  0  0  0
 77147  1  0  0  0
 77148  1  0  0  0
 78 83  1  0  0  0
 78149  1  0  0  0
 78150  1  0  0  0
 79151  1  0  0  0
 79152  1  0  0  0
 80 81  1  0  0  0
 80 82  1  0  0  0
 80153  1  0  0  0
 80154  1  0  0  0
 81 83  1  0  0  0
 81155  1  0  0  0
 81156  1  0  0  0
 82157  1  0  0  0
 83158  1  0  0  0
 83159  1  0  0  0
M  CHG  1  83   1
M  ISO  4   1 100  68 101  79 101  82 100
M  END
> <chiral flag>
0

> <version>
0

> <s_m_source_file>
/data/baiqing/PycharmProjects/Reinvent-master-3.2/result/LINK_invent/BTK/process_docking_weight1_custom_sum_contain_oxygen_bond_distance_aromatic_linkinvent_7_9_3/rearranged_h_0132.sdf

> <i_m_source_file_index>
34

> <r_mmod_Potential_Energy-OPLS-2005>
-144.548263549805

> <r_mmod_Stretch_Energy-OPLS-2005>
34.0746421813965

> <r_mmod_Bend_Energy-OPLS-2005>
140.502182006836

> <r_mmod_Torsional_Energy-OPLS-2005>
249.630966186523

> <r_mmod_Improper_Torsional_Energy-OPLS-2005>
4.08829307556152

> <r_mmod_Van_der_Waal_Energy-OPLS-2005>
162.043167114258

> <r_mmod_Electrostatic_Energy-OPLS-2005>
-326.664245605469

> <r_mmod_Solvation_Energy-OPLS-2005>
-484.42138671875

> <b_mmod_Minimization_Converged-OPLS-2005>
0

> <r_mmod_RMS_Derivative-OPLS-2005>
2.91202330589294

$$$$
34
                    3D
 Structure written by MMmdl.
152160  0  0  1  0            999 V2000
  -30.6225  -14.7109   20.4601 C   0  0  0  0  0  0
  -30.4213  -12.4249   19.4846 C   0  0  0  0  0  0
  -29.5089  -12.5163   18.2419 C   0  0  0  0  0  0
  -28.0316  -12.3531   18.6452 C   0  0  0  0  0  0
  -27.6437  -13.2368   19.8616 C   0  0  2  0  0  0
  -28.6876  -13.1527   20.9995 C   0  0  0  0  0  0
  -25.2496  -13.8218   20.5722 C   0  0  0  0  0  0
  -24.1799  -13.0455   20.9213 C   0  0  0  0  0  0
  -24.6393  -11.6924   20.8740 C   0  0  0  0  0  0
  -23.9075  -10.4299   21.0414 C   0  0  0  0  0  0
  -24.3619   -9.4214   21.9194 C   0  0  0  0  0  0
  -23.6297   -8.2248   22.0757 C   0  0  0  0  0  0
  -22.4277   -8.0290   21.3548 C   0  0  0  0  0  0
  -21.9917   -9.0270   20.4651 C   0  0  0  0  0  0
  -22.7242  -10.2154   20.3067 C   0  0  0  0  0  0
  -21.6859   -6.0739   22.5276 C   0  0  0  0  0  0
  -21.4021   -6.5642   23.8213 C   0  0  0  0  0  0
  -21.3668   -5.6797   24.9172 C   0  0  0  0  0  0
  -21.6041   -4.3057   24.7222 C   0  0  0  0  0  0
  -21.8817   -3.8144   23.4340 C   0  0  0  0  0  0
  -21.9196   -4.6961   22.3400 C   0  0  0  0  0  0
  -22.7812  -13.5229   21.1862 C   0  0  0  0  0  0
  -22.1662   -4.2142   21.0976 F   0  0  0  0  0  0
  -21.5627   -3.4544   25.7739 F   0  0  0  0  0  0
  -29.9968  -13.4857   20.4266 N   0  0  0  0  0  0
  -26.2945  -12.9436   20.3347 N   0  0  0  0  0  0
  -25.9336  -11.6562   20.5781 N   0  0  0  0  0  0
  -22.0451  -12.8234   22.0419 N   0  0  0  0  0  0
  -25.4146  -15.1954   20.4120 N   0  0  0  0  0  0
  -31.7935  -14.8161   20.0878 O   0  0  0  0  0  0
  -21.6638   -6.8882   21.4239 O   0  0  0  0  0  0
  -22.3494  -14.5529   20.6690 O   0  0  0  0  0  0
  -24.6293  -31.8582   23.2061 C   0  0  0  0  0  0
  -25.9120  -32.4792   23.8419 C   0  0  1  0  0  0
  -27.2258  -27.2739   20.1313 C   0  0  0  0  0  0
  -25.5930  -33.8594   24.2340 N   0  0  0  0  0  0
  -23.4263  -30.4811   21.5467 C   0  0  2  0  0  0
  -24.8792  -28.9351   20.1095 C   0  0  0  0  0  0
  -22.7497  -29.4600   22.4933 C   0  0  0  0  0  0
  -18.0271  -28.1374   22.8500 C   0  0  0  0  0  0
  -24.1463  -36.7265   23.2643 C   0  0  0  0  0  0
  -25.9725  -30.7744   21.3864 C   0  0  0  0  0  0
  -26.0480  -29.3977   20.7275 C   0  0  0  0  0  0
  -27.2211  -28.5773   20.7313 C   0  0  0  0  0  0
  -26.0397  -26.8898   19.4629 C   0  0  0  0  0  0
  -24.8809  -27.6887   19.4665 C   0  0  0  0  0  0
  -23.6473  -29.8187   20.1614 C   0  0  0  0  0  0
  -25.4086  -36.3083   24.0347 C   0  0  1  0  0  0
  -20.5873  -28.3672   23.1259 C   0  0  2  0  0  0
  -20.6720  -26.9375   22.5407 C   0  0  0  0  0  0
  -19.5703  -26.6370   21.5197 C   0  0  0  0  0  0
  -18.1895  -26.7915   22.1627 C   0  0  0  0  0  0
  -19.1534  -28.8836   23.2880 C   0  0  0  0  0  0
  -18.9453  -30.1424   23.8919 C   0  0  0  0  0  0
  -17.6456  -30.6583   24.0541 C   0  0  0  0  0  0
  -25.9031  -34.9456   23.5133 C   0  0  0  0  0  0
  -16.5341  -29.9080   23.6328 C   0  0  0  0  0  0
  -16.7256  -28.6479   23.0389 C   0  0  0  0  0  0
  -26.4503  -31.6608   25.0790 C   0  0  0  0  0  0
  -25.3755  -31.3746   26.1540 C   0  0  0  0  0  0
  -27.0334  -30.3027   24.6241 C   0  0  0  0  0  0
  -27.6075  -32.4335   25.7562 C   0  0  0  0  0  0
  -27.5562  -37.1785   24.8480 C   0  0  0  0  0  0
  -21.4195  -29.3037   22.3685 N   0  0  0  0  0  0
  -26.4267  -37.3774   23.9437 N   0  0  0  0  0  0
  -24.6950  -31.0546   22.1038 N   0  0  0  0  0  0
  -23.4216  -28.8138   23.3013 O   0  0  0  0  0  0
  -28.3184  -26.3782   20.2240 O   0  0  0  0  0  0
  -26.5585  -34.8909   22.4694 O   0  0  0  0  0  0
  -23.5434  -32.1419   23.7341 O   0  0  0  0  0  0
  -29.9497  -19.8181   22.9356 C   0  0  0  0  0  0
  -29.5597  -20.9879   22.2517 C   0  0  0  0  0  0
  -30.0641  -18.5975   22.2401 C   0  0  0  0  0  0
  -29.2762  -20.9352   20.8742 C   0  0  0  0  0  0
  -29.7970  -18.5570   20.8626 C   0  0  0  0  0  0
  -28.7154  -22.2184   20.1205 C   0  0  0  0  0  0
  -30.0570  -17.2172   20.0607 C   0  0  0  0  0  0
  -28.9966  -23.7386   20.6086 C   0  0  0  0  0  0
  -28.1021  -24.9148   19.9577 C   0  0  0  0  0  0
  -29.4026  -19.7199   20.2078 N   0  0  0  0  0  0
  -29.8503  -15.8347   20.6668 N   0  0  0  0  0  0
  -31.4680  -12.5226   19.1930 H   0  0  0  0  0  0
  -30.3325  -11.4451   19.9559 H   0  0  0  0  0  0
  -29.7838  -11.7579   17.5082 H   0  0  0  0  0  0
  -29.6499  -13.4798   17.7485 H   0  0  0  0  0  0
  -27.8711  -11.3004   18.8816 H   0  0  0  0  0  0
  -27.3852  -12.5791   17.7970 H   0  0  0  0  0  0
  -27.6399  -14.2642   19.4959 H   0  0  0  0  0  0
  -28.7095  -12.1527   21.4343 H   0  0  0  0  0  0
  -28.4319  -13.8355   21.8119 H   0  0  0  0  0  0
  -25.2763   -9.5690   22.4777 H   0  0  0  0  0  0
  -24.0006   -7.4636   22.7479 H   0  0  0  0  0  0
  -21.0851   -8.8786   19.8961 H   0  0  0  0  0  0
  -22.3693  -10.9695   19.6180 H   0  0  0  0  0  0
  -21.2011   -7.6154   23.9714 H   0  0  0  0  0  0
  -21.1499   -6.0525   25.9078 H   0  0  0  0  0  0
  -22.0585   -2.7604   23.2840 H   0  0  0  0  0  0
  -22.4074  -11.9935   22.4871 H   0  0  0  0  0  0
  -21.1068  -13.1262   22.2613 H   0  0  0  0  0  0
  -24.6348  -15.8385   20.4954 H   0  0  0  0  0  0
  -26.2614  -15.6406   20.0842 H   0  0  0  0  0  0
  -26.7181  -32.5450   23.1167 H   0  0  0  0  0  0
  -25.0090  -33.9772   25.0494 H   0  0  0  0  0  0
  -22.7188  -31.2999   21.4016 H   0  0  0  0  0  0
  -23.3744  -35.9578   23.3331 H   0  0  0  0  0  0
  -24.3535  -36.8869   22.2050 H   0  0  0  0  0  0
  -23.7206  -37.6465   23.6639 H   0  0  0  0  0  0
  -26.1011  -31.5362   20.6159 H   0  0  0  0  0  0
  -26.8537  -30.8321   22.0151 H   0  0  0  0  0  0
  -28.1099  -28.9213   21.2410 H   0  0  0  0  0  0
  -25.9739  -25.9470   18.9413 H   0  0  0  0  0  0
  -23.9905  -27.3325   18.9664 H   0  0  0  0  0  0
  -23.7671  -30.6010   19.4116 H   0  0  0  0  0  0
  -22.7683  -29.2482   19.8555 H   0  0  0  0  0  0
  -25.1255  -36.1932   25.0837 H   0  0  0  0  0  0
  -20.9960  -28.3225   24.1382 H   0  0  0  0  0  0
  -20.5502  -26.2289   23.3618 H   0  0  0  0  0  0
  -21.6591  -26.7322   22.1256 H   0  0  0  0  0  0
  -19.6829  -25.6282   21.1214 H   0  0  0  0  0  0
  -19.6634  -27.3185   20.6726 H   0  0  0  0  0  0
  -17.4134  -26.6671   21.4055 H   0  0  0  0  0  0
  -18.0312  -26.0048   22.9019 H   0  0  0  0  0  0
  -19.7923  -30.7220   24.2346 H   0  0  0  0  0  0
  -17.5005  -31.6280   24.5119 H   0  0  0  0  0  0
  -15.5340  -30.2984   23.7640 H   0  0  0  0  0  0
  -15.8652  -28.0777   22.7156 H   0  0  0  0  0  0
  -24.5926  -30.7078   25.7917 H   0  0  0  0  0  0
  -24.8942  -32.2898   26.4983 H   0  0  0  0  0  0
  -25.8108  -30.8951   27.0321 H   0  0  0  0  0  0
  -26.2935  -29.6837   24.1147 H   0  0  0  0  0  0
  -27.3894  -29.7212   25.4757 H   0  0  0  0  0  0
  -27.8864  -30.4328   23.9577 H   0  0  0  0  0  0
  -27.2714  -33.3637   26.2164 H   0  0  0  0  0  0
  -28.3886  -32.6916   25.0400 H   0  0  0  0  0  0
  -28.0743  -31.8447   26.5473 H   0  0  0  0  0  0
  -28.2595  -38.0062   24.7494 H   0  0  0  0  0  0
  -28.1038  -36.2595   24.6326 H   0  0  0  0  0  0
  -27.2277  -37.1469   25.8883 H   0  0  0  0  0  0
  -20.9352  -29.8847   21.6991 H   0  0  0  0  0  0
  -26.0148  -38.2842   24.1468 H   0  0  0  0  0  0
  -30.1655  -19.8547   23.9935 H   0  0  0  0  0  0
  -29.4626  -21.9104   22.8084 H   0  0  0  0  0  0
  -30.3891  -17.7060   22.7596 H   0  0  0  0  0  0
  -27.6334  -22.0886   20.1148 H   0  0  0  0  0  0
  -29.0211  -22.1398   19.0762 H   0  0  0  0  0  0
  -29.4328  -17.2569   19.1682 H   0  0  0  0  0  0
  -31.0812  -17.2821   19.6906 H   0  0  0  0  0  0
  -28.8510  -23.7922   21.6869 H   0  0  0  0  0  0
  -30.0533  -23.9552   20.4553 H   0  0  0  0  0  0
  -28.1349  -24.7893   18.8744 H   0  0  0  0  0  0
  -27.0863  -24.6612   20.2596 H   0  0  0  0  0  0
  -28.9182  -15.6625   21.0106 H   0  0  0  0  0  0
  1 25  1  0  0  0
  1 30  2  0  0  0
  1 81  1  0  0  0
  2  3  1  0  0  0
  2 25  1  0  0  0
  2 82  1  0  0  0
  2 83  1  0  0  0
  3  4  1  0  0  0
  3 84  1  0  0  0
  3 85  1  0  0  0
  4  5  1  0  0  0
  4 86  1  0  0  0
  4 87  1  0  0  0
  5  6  1  0  0  0
  5 26  1  0  0  0
  5 88  1  0  0  0
  6 25  1  0  0  0
  6 89  1  0  0  0
  6 90  1  0  0  0
  7  8  2  0  0  0
  7 26  1  0  0  0
  7 29  1  0  0  0
  8  9  1  0  0  0
  8 22  1  0  0  0
  9 10  1  0  0  0
  9 27  2  0  0  0
 10 11  2  0  0  0
 10 15  1  0  0  0
 11 12  1  0  0  0
 11 91  1  0  0  0
 12 13  2  0  0  0
 12 92  1  0  0  0
 13 14  1  0  0  0
 13 31  1  0  0  0
 14 15  2  0  0  0
 14 93  1  0  0  0
 15 94  1  0  0  0
 16 17  2  0  0  0
 16 21  1  0  0  0
 16 31  1  0  0  0
 17 18  1  0  0  0
 17 95  1  0  0  0
 18 19  2  0  0  0
 18 96  1  0  0  0
 19 20  1  0  0  0
 19 24  1  0  0  0
 20 21  2  0  0  0
 20 97  1  0  0  0
 21 23  1  0  0  0
 22 28  1  0  0  0
 22 32  2  0  0  0
 26 27  1  0  0  0
 28 98  1  0  0  0
 28 99  1  0  0  0
 29100  1  0  0  0
 29101  1  0  0  0
 33 34  1  0  0  0
 33 66  1  0  0  0
 33 70  2  0  0  0
 34 36  1  0  0  0
 34 59  1  0  0  0
 34102  1  0  0  0
 35 44  2  0  0  0
 35 45  1  0  0  0
 35 68  1  0  0  0
 36 56  1  0  0  0
 36103  1  0  0  0
 37 39  1  0  0  0
 37 47  1  0  0  0
 37 66  1  0  0  0
 37104  1  0  0  0
 38 43  2  0  0  0
 38 46  1  0  0  0
 38 47  1  0  0  0
 39 64  1  0  0  0
 39 67  2  0  0  0
 40 52  1  0  0  0
 40 53  2  0  0  0
 40 58  1  0  0  0
 41105  1  0  0  0
 41106  1  0  0  0
 41107  1  0  0  0
 41 48  1  0  0  0
 42 43  1  0  0  0
 42 66  1  0  0  0
 42108  1  0  0  0
 42109  1  0  0  0
 43 44  1  0  0  0
 44110  1  0  0  0
 45 46  2  0  0  0
 45111  1  0  0  0
 46112  1  0  0  0
 47113  1  0  0  0
 47114  1  0  0  0
 48 56  1  0  0  0
 48 65  1  0  0  0
 48115  1  0  0  0
 49 50  1  0  0  0
 49 53  1  0  0  0
 49 64  1  0  0  0
 49116  1  0  0  0
 50 51  1  0  0  0
 50117  1  0  0  0
 50118  1  0  0  0
 51 52  1  0  0  0
 51119  1  0  0  0
 51120  1  0  0  0
 52121  1  0  0  0
 52122  1  0  0  0
 53 54  1  0  0  0
 54 55  2  0  0  0
 54123  1  0  0  0
 55 57  1  0  0  0
 55124  1  0  0  0
 56 69  2  0  0  0
 57 58  2  0  0  0
 57125  1  0  0  0
 58126  1  0  0  0
 59 60  1  0  0  0
 59 61  1  0  0  0
 59 62  1  0  0  0
 60127  1  0  0  0
 60128  1  0  0  0
 60129  1  0  0  0
 61130  1  0  0  0
 61131  1  0  0  0
 61132  1  0  0  0
 62133  1  0  0  0
 62134  1  0  0  0
 62135  1  0  0  0
 63 65  1  0  0  0
 63136  1  0  0  0
 63137  1  0  0  0
 63138  1  0  0  0
 64139  1  0  0  0
 65140  1  0  0  0
 68 79  1  0  0  0
 71 72  2  0  0  0
 71 73  1  0  0  0
 71141  1  0  0  0
 72 74  1  0  0  0
 72142  1  0  0  0
 73 75  2  0  0  0
 73143  1  0  0  0
 74 76  1  0  0  0
 74 80  2  0  0  0
 75 77  1  0  0  0
 75 80  1  0  0  0
 76 78  1  0  0  0
 76144  1  0  0  0
 76145  1  0  0  0
 77 81  1  0  0  0
 77146  1  0  0  0
 77147  1  0  0  0
 78 79  1  0  0  0
 78148  1  0  0  0
 78149  1  0  0  0
 79150  1  0  0  0
 79151  1  0  0  0
 81152  1  0  0  0
M  ISO  4   1 100  68 101  79 101  81 100
M  END
> <chiral flag>
0

> <version>
0

> <s_m_source_file>
/data/baiqing/PycharmProjects/Reinvent-master-3.2/result/LINK_invent/BTK/process_docking_weight1_custom_sum_contain_oxygen_bond_distance_aromatic_linkinvent_7_9_3/rearranged_h_0132.sdf

> <i_m_source_file_index>
35

> <r_mmod_Potential_Energy-OPLS-2005>
-167.839782714844

> <r_mmod_Stretch_Energy-OPLS-2005>
111.251365661621

> <r_mmod_Bend_Energy-OPLS-2005>
155.781463623047

> <r_mmod_Torsional_Energy-OPLS-2005>
206.580108642578

> <r_mmod_Improper_Torsional_Energy-OPLS-2005>
7.50341176986694

> <r_mmod_Van_der_Waal_Energy-OPLS-2005>
142.828872680664

> <r_mmod_Electrostatic_Energy-OPLS-2005>
-642.901611328125

> <r_mmod_Solvation_Energy-OPLS-2005>
-224.875869750977

> <b_mmod_Minimization_Converged-OPLS-2005>
0

> <r_mmod_RMS_Derivative-OPLS-2005>
2.72009921073914

$$$$
35
                    3D
 Structure written by MMmdl.
172181  0  0  1  0            999 V2000
  -30.7141  -14.2619   20.8505 C   0  0  0  0  0  0
  -30.4211  -12.3405   19.3040 C   0  0  0  0  0  0
  -29.4481  -12.5864   18.1386 C   0  0  0  0  0  0
  -27.9786  -12.4129   18.5659 C   0  0  0  0  0  0
  -27.6565  -13.1828   19.8715 C   0  0  2  0  0  0
  -28.6932  -12.8011   20.9423 C   0  0  0  0  0  0
  -25.2573  -13.8120   20.5686 C   0  0  0  0  0  0
  -24.1830  -13.0424   20.9189 C   0  0  0  0  0  0
  -24.6335  -11.6877   20.8705 C   0  0  0  0  0  0
  -23.9013  -10.4269   21.0418 C   0  0  0  0  0  0
  -24.3574   -9.4184   21.9179 C   0  0  0  0  0  0
  -23.6243   -8.2230   22.0738 C   0  0  0  0  0  0
  -22.4235   -8.0264   21.3533 C   0  0  0  0  0  0
  -21.9847   -9.0264   20.4672 C   0  0  0  0  0  0
  -22.7191  -10.2128   20.3080 C   0  0  0  0  0  0
  -21.6839   -6.0742   22.5272 C   0  0  0  0  0  0
  -21.4026   -6.5641   23.8213 C   0  0  0  0  0  0
  -21.3650   -5.6800   24.9170 C   0  0  0  0  0  0
  -21.6023   -4.3068   24.7227 C   0  0  0  0  0  0
  -21.8807   -3.8154   23.4354 C   0  0  0  0  0  0
  -21.9183   -4.6968   22.3404 C   0  0  0  0  0  0
  -22.7867  -13.5244   21.1858 C   0  0  0  0  0  0
  -22.1648   -4.2151   21.0980 F   0  0  0  0  0  0
  -21.5611   -3.4543   25.7742 F   0  0  0  0  0  0
  -30.0199  -13.1760   20.4406 N   0  0  0  0  0  0
  -26.2952  -12.9232   20.3304 N   0  0  0  0  0  0
  -25.9204  -11.6392   20.5583 N   0  0  0  0  0  0
  -22.0496  -12.8234   22.0382 N   0  0  0  0  0  0
  -25.4360  -15.1856   20.4187 N   0  0  0  0  0  0
  -31.6436  -14.7386   20.1817 O   0  0  0  0  0  0
  -21.6601   -6.8887   21.4251 O   0  0  0  0  0  0
  -22.3598  -14.5557   20.6697 O   0  0  0  0  0  0
  -24.6145  -31.8679   23.2105 C   0  0  0  0  0  0
  -25.9055  -32.4827   23.8397 C   0  0  1  0  0  0
  -27.2351  -27.4485   20.0985 C   0  0  0  0  0  0
  -25.5916  -33.8630   24.2338 N   0  0  0  0  0  0
  -23.4002  -30.4973   21.5463 C   0  0  2  0  0  0
  -24.8492  -28.9601   20.1169 C   0  0  0  0  0  0
  -22.7395  -29.4708   22.4946 C   0  0  0  0  0  0
  -18.0268  -28.1386   22.8522 C   0  0  0  0  0  0
  -24.1469  -36.7311   23.2641 C   0  0  0  0  0  0
  -25.9287  -30.8346   21.3623 C   0  0  0  0  0  0
  -26.0058  -29.4670   20.7211 C   0  0  0  0  0  0
  -27.2030  -28.7181   20.7183 C   0  0  0  0  0  0
  -26.0669  -26.9571   19.4785 C   0  0  0  0  0  0
  -24.8723  -27.6997   19.4935 C   0  0  0  0  0  0
  -23.6135  -29.8295   20.1608 C   0  0  0  0  0  0
  -25.4093  -36.3120   24.0344 C   0  0  1  0  0  0
  -20.5867  -28.3691   23.1268 C   0  0  2  0  0  0
  -20.6774  -26.9428   22.5382 C   0  0  0  0  0  0
  -19.5739  -26.6397   21.5194 C   0  0  0  0  0  0
  -18.1919  -26.7925   22.1623 C   0  0  0  0  0  0
  -19.1534  -28.8849   23.2898 C   0  0  0  0  0  0
  -18.9476  -30.1457   23.8908 C   0  0  0  0  0  0
  -17.6490  -30.6591   24.0579 C   0  0  0  0  0  0
  -25.9032  -34.9488   23.5125 C   0  0  0  0  0  0
  -16.5376  -29.9099   23.6329 C   0  0  0  0  0  0
  -16.7260  -28.6502   23.0361 C   0  0  0  0  0  0
  -26.4485  -31.6587   25.0715 C   0  0  0  0  0  0
  -25.3794  -31.3661   26.1490 C   0  0  0  0  0  0
  -27.0317  -30.3034   24.6066 C   0  0  0  0  0  0
  -27.6057  -32.4293   25.7483 C   0  0  0  0  0  0
  -27.5557  -37.1811   24.8472 C   0  0  0  0  0  0
  -21.4122  -29.3069   22.3670 N   0  0  0  0  0  0
  -26.4260  -37.3808   23.9428 N   0  0  0  0  0  0
  -24.6660  -31.0813   22.0978 N   0  0  0  0  0  0
  -23.4170  -28.8260   23.2997 O   0  0  0  0  0  0
  -28.3878  -26.7051   20.0122 O   0  0  0  0  0  0
  -26.5569  -34.8934   22.4674 O   0  0  0  0  0  0
  -23.5332  -32.1435   23.7499 O   0  0  0  0  0  0
  -29.3598  -24.0269   22.4995 C   0  0  0  0  0  0
  -27.9146  -23.9355   20.5527 C   0  0  0  0  0  0
  -28.7301  -24.6874   21.4220 C   0  0  0  0  0  0
  -29.1447  -22.6502   22.7407 C   0  0  0  0  0  0
  -28.2509  -21.9178   21.9123 C   0  0  0  0  0  0
  -27.6650  -22.5699   20.7995 C   0  0  0  0  0  0
  -28.0654  -15.3581   23.3197 C   0  0  0  0  0  0
  -29.1716  -15.9074   24.1678 C   0  0  0  0  0  0
  -29.3962  -15.7550   22.6630 C   0  0  0  0  0  0
  -29.8685  -22.0059   23.9174 C   0  0  0  0  0  0
  -25.4025  -22.2402   20.2445 C   0  0  0  0  0  0
  -27.8532  -20.4801   22.2644 C   0  0  0  0  0  0
  -28.9232  -26.1963   21.2387 C   0  0  0  0  0  0
  -30.4949  -14.7285   22.3122 C   0  0  0  0  0  0
  -29.3882  -16.9833   21.7353 C   0  0  0  0  0  0
  -28.8031  -18.2462   22.4141 C   0  0  0  0  0  0
  -26.7900  -21.8892   19.9475 N   0  0  0  0  0  0
  -28.6298  -19.4378   21.5603 N   0  3  0  0  0  0
  -31.4394  -12.5506   18.9800 H   0  0  0  0  0  0
  -30.4102  -11.2905   19.5927 H   0  0  0  0  0  0
  -29.6699  -11.9148   17.3077 H   0  0  0  0  0  0
  -29.5890  -13.6025   17.7627 H   0  0  0  0  0  0
  -27.7809  -11.3487   18.6974 H   0  0  0  0  0  0
  -27.3152  -12.7499   17.7682 H   0  0  0  0  0  0
  -27.7420  -14.2488   19.6646 H   0  0  0  0  0  0
  -28.6649  -11.7246   21.1150 H   0  0  0  0  0  0
  -28.4350  -13.2392   21.8905 H   0  0  0  0  0  0
  -25.2712   -9.5622   22.4765 H   0  0  0  0  0  0
  -23.9950   -7.4622   22.7437 H   0  0  0  0  0  0
  -21.0812   -8.8777   19.8927 H   0  0  0  0  0  0
  -22.3680  -10.9696   19.6217 H   0  0  0  0  0  0
  -21.2045   -7.6155   23.9721 H   0  0  0  0  0  0
  -21.1471   -6.0536   25.9056 H   0  0  0  0  0  0
  -22.0591   -2.7626   23.2858 H   0  0  0  0  0  0
  -22.4101  -11.9893   22.4789 H   0  0  0  0  0  0
  -21.1121  -13.1303   22.2597 H   0  0  0  0  0  0
  -24.6767  -15.8434   20.5530 H   0  0  0  0  0  0
  -26.2925  -15.6217   20.1008 H   0  0  0  0  0  0
  -26.7143  -32.5555   23.1178 H   0  0  0  0  0  0
  -25.0146  -33.9805   25.0533 H   0  0  0  0  0  0
  -22.6863  -31.3142   21.4065 H   0  0  0  0  0  0
  -23.3718  -35.9660   23.3318 H   0  0  0  0  0  0
  -24.3561  -36.8891   22.2050 H   0  0  0  0  0  0
  -23.7230  -37.6520   23.6649 H   0  0  0  0  0  0
  -26.0360  -31.5938   20.5881 H   0  0  0  0  0  0
  -26.8192  -30.8955   21.9763 H   0  0  0  0  0  0
  -28.0997  -29.1175   21.1736 H   0  0  0  0  0  0
  -26.0824  -26.0015   18.9800 H   0  0  0  0  0  0
  -23.9885  -27.3005   19.0137 H   0  0  0  0  0  0
  -23.7299  -30.6080   19.4038 H   0  0  0  0  0  0
  -22.7376  -29.2573   19.8528 H   0  0  0  0  0  0
  -25.1266  -36.1959   25.0831 H   0  0  0  0  0  0
  -21.0001  -28.3276   24.1368 H   0  0  0  0  0  0
  -20.5675  -26.2315   23.3591 H   0  0  0  0  0  0
  -21.6645  -26.7451   22.1200 H   0  0  0  0  0  0
  -19.6906  -25.6308   21.1206 H   0  0  0  0  0  0
  -19.6670  -27.3226   20.6738 H   0  0  0  0  0  0
  -17.4203  -26.6702   21.4006 H   0  0  0  0  0  0
  -18.0335  -26.0036   22.8986 H   0  0  0  0  0  0
  -19.7971  -30.7278   24.2268 H   0  0  0  0  0  0
  -17.5049  -31.6289   24.5181 H   0  0  0  0  0  0
  -15.5369  -30.3035   23.7647 H   0  0  0  0  0  0
  -15.8648  -28.0836   22.7064 H   0  0  0  0  0  0
  -24.5993  -30.6961   25.7837 H   0  0  0  0  0  0
  -24.9000  -32.2826   26.4949 H   0  0  0  0  0  0
  -25.8241  -30.8843   27.0217 H   0  0  0  0  0  0
  -26.2822  -29.6750   24.1241 H   0  0  0  0  0  0
  -27.4197  -29.7300   25.4487 H   0  0  0  0  0  0
  -27.8620  -30.4289   23.9115 H   0  0  0  0  0  0
  -27.2652  -33.3567   26.2082 H   0  0  0  0  0  0
  -28.3891  -32.6864   25.0346 H   0  0  0  0  0  0
  -28.0719  -31.8415   26.5398 H   0  0  0  0  0  0
  -28.2598  -38.0076   24.7526 H   0  0  0  0  0  0
  -28.1026  -36.2633   24.6301 H   0  0  0  0  0  0
  -27.2304  -37.1450   25.8874 H   0  0  0  0  0  0
  -20.9257  -29.8743   21.6877 H   0  0  0  0  0  0
  -26.0142  -38.2873   24.1451 H   0  0  0  0  0  0
  -30.0009  -24.5954   23.1587 H   0  0  0  0  0  0
  -27.4456  -24.4168   19.7100 H   0  0  0  0  0  0
  -27.1957  -15.9901   23.1485 H   0  0  0  0  0  0
  -27.8125  -14.3274   23.5477 H   0  0  0  0  0  0
  -29.6755  -15.1997   24.8227 H   0  0  0  0  0  0
  -29.0204  -16.8821   24.6170 H   0  0  0  0  0  0
  -30.7505  -22.5838   24.1884 H   0  0  0  0  0  0
  -30.2121  -20.9979   23.6818 H   0  0  0  0  0  0
  -29.2204  -21.9543   24.7926 H   0  0  0  0  0  0
  -25.2672  -22.5909   21.2692 H   0  0  0  0  0  0
  -24.7500  -21.3808   20.0964 H   0  0  0  0  0  0
  -25.0596  -23.0317   19.5755 H   0  0  0  0  0  0
  -26.7934  -20.3124   22.0636 H   0  0  0  0  0  0
  -27.9403  -20.3519   23.3464 H   0  0  0  0  0  0
  -29.9932  -26.4078   21.2447 H   0  0  0  0  0  0
  -28.5061  -26.7078   22.1079 H   0  0  0  0  0  0
  -30.3269  -13.8364   22.9197 H   0  0  0  0  0  0
  -31.4444  -15.1263   22.6733 H   0  0  0  0  0  0
  -28.8007  -16.7254   20.8525 H   0  0  0  0  0  0
  -30.4015  -17.1918   21.3907 H   0  0  0  0  0  0
  -29.4512  -18.5332   23.2441 H   0  0  0  0  0  0
  -27.8277  -18.0151   22.8379 H   0  0  0  0  0  0
  -26.9919  -22.1034   18.9738 H   0  0  0  0  0  0
  -29.5262  -19.8076   21.2930 H   0  0  0  0  0  0
  -28.1206  -19.1985   20.7204 H   0  0  0  0  0  0
  1 25  1  0  0  0
  1 30  2  0  0  0
  1 84  1  0  0  0
  2  3  1  0  0  0
  2 25  1  0  0  0
  2 89  1  0  0  0
  2 90  1  0  0  0
  3  4  1  0  0  0
  3 91  1  0  0  0
  3 92  1  0  0  0
  4  5  1  0  0  0
  4 93  1  0  0  0
  4 94  1  0  0  0
  5  6  1  0  0  0
  5 26  1  0  0  0
  5 95  1  0  0  0
  6 25  1  0  0  0
  6 96  1  0  0  0
  6 97  1  0  0  0
  7  8  2  0  0  0
  7 26  1  0  0  0
  7 29  1  0  0  0
  8  9  1  0  0  0
  8 22  1  0  0  0
  9 10  1  0  0  0
  9 27  2  0  0  0
 10 11  2  0  0  0
 10 15  1  0  0  0
 11 12  1  0  0  0
 11 98  1  0  0  0
 12 13  2  0  0  0
 12 99  1  0  0  0
 13 14  1  0  0  0
 13 31  1  0  0  0
 14 15  2  0  0  0
 14100  1  0  0  0
 15101  1  0  0  0
 16 17  2  0  0  0
 16 21  1  0  0  0
 16 31  1  0  0  0
 17 18  1  0  0  0
 17102  1  0  0  0
 18 19  2  0  0  0
 18103  1  0  0  0
 19 20  1  0  0  0
 19 24  1  0  0  0
 20 21  2  0  0  0
 20104  1  0  0  0
 21 23  1  0  0  0
 22 28  1  0  0  0
 22 32  2  0  0  0
 26 27  1  0  0  0
 28105  1  0  0  0
 28106  1  0  0  0
 29107  1  0  0  0
 29108  1  0  0  0
 33 34  1  0  0  0
 33 66  1  0  0  0
 33 70  2  0  0  0
 34 36  1  0  0  0
 34 59  1  0  0  0
 34109  1  0  0  0
 35 44  2  0  0  0
 35 45  1  0  0  0
 35 68  1  0  0  0
 36 56  1  0  0  0
 36110  1  0  0  0
 37 39  1  0  0  0
 37 47  1  0  0  0
 37 66  1  0  0  0
 37111  1  0  0  0
 38 43  2  0  0  0
 38 46  1  0  0  0
 38 47  1  0  0  0
 39 64  1  0  0  0
 39 67  2  0  0  0
 40 52  1  0  0  0
 40 53  2  0  0  0
 40 58  1  0  0  0
 41112  1  0  0  0
 41113  1  0  0  0
 41114  1  0  0  0
 41 48  1  0  0  0
 42 43  1  0  0  0
 42 66  1  0  0  0
 42115  1  0  0  0
 42116  1  0  0  0
 43 44  1  0  0  0
 44117  1  0  0  0
 45 46  2  0  0  0
 45118  1  0  0  0
 46119  1  0  0  0
 47120  1  0  0  0
 47121  1  0  0  0
 48 56  1  0  0  0
 48 65  1  0  0  0
 48122  1  0  0  0
 49 50  1  0  0  0
 49 53  1  0  0  0
 49 64  1  0  0  0
 49123  1  0  0  0
 50 51  1  0  0  0
 50124  1  0  0  0
 50125  1  0  0  0
 51 52  1  0  0  0
 51126  1  0  0  0
 51127  1  0  0  0
 52128  1  0  0  0
 52129  1  0  0  0
 53 54  1  0  0  0
 54 55  2  0  0  0
 54130  1  0  0  0
 55 57  1  0  0  0
 55131  1  0  0  0
 56 69  2  0  0  0
 57 58  2  0  0  0
 57132  1  0  0  0
 58133  1  0  0  0
 59 60  1  0  0  0
 59 61  1  0  0  0
 59 62  1  0  0  0
 60134  1  0  0  0
 60135  1  0  0  0
 60136  1  0  0  0
 61137  1  0  0  0
 61138  1  0  0  0
 61139  1  0  0  0
 62140  1  0  0  0
 62141  1  0  0  0
 62142  1  0  0  0
 63 65  1  0  0  0
 63143  1  0  0  0
 63144  1  0  0  0
 63145  1  0  0  0
 64146  1  0  0  0
 65147  1  0  0  0
 68 83  1  0  0  0
 71 73  2  0  0  0
 71 74  1  0  0  0
 71148  1  0  0  0
 72 73  1  0  0  0
 72 76  2  0  0  0
 72149  1  0  0  0
 73 83  1  0  0  0
 74 75  2  0  0  0
 74 80  1  0  0  0
 75 76  1  0  0  0
 75 82  1  0  0  0
 76 87  1  0  0  0
 77 78  1  0  0  0
 77 79  1  0  0  0
 77150  1  0  0  0
 77151  1  0  0  0
 78 79  1  0  0  0
 78152  1  0  0  0
 78153  1  0  0  0
 79 84  1  0  0  0
 79 85  1  0  0  0
 80154  1  0  0  0
 80155  1  0  0  0
 80156  1  0  0  0
 81 87  1  0  0  0
 81157  1  0  0  0
 81158  1  0  0  0
 81159  1  0  0  0
 82 88  1  0  0  0
 82160  1  0  0  0
 82161  1  0  0  0
 83162  1  0  0  0
 83163  1  0  0  0
 84164  1  0  0  0
 84165  1  0  0  0
 85 86  1  0  0  0
 85166  1  0  0  0
 85167  1  0  0  0
 86 88  1  0  0  0
 86168  1  0  0  0
 86169  1  0  0  0
 87170  1  0  0  0
 88171  1  0  0  0
 88172  1  0  0  0
M  CHG  1  88   1
M  ISO  4   1 100  68 101  83 101  84 100
M  END
> <chiral flag>
0

> <version>
0

> <s_m_source_file>
/data/baiqing/PycharmProjects/Reinvent-master-3.2/result/LINK_invent/BTK/process_docking_weight1_custom_sum_contain_oxygen_bond_distance_aromatic_linkinvent_7_9_3/rearranged_h_0132.sdf

> <i_m_source_file_index>
36

> <r_mmod_Potential_Energy-OPLS-2005>
-67.7945861816406

> <r_mmod_Stretch_Energy-OPLS-2005>
38.1845779418945

> <r_mmod_Bend_Energy-OPLS-2005>
107.524536132812

> <r_mmod_Torsional_Energy-OPLS-2005>
272.948699951172

> <r_mmod_Improper_Torsional_Energy-OPLS-2005>
11.2408399581909

> <r_mmod_Van_der_Waal_Energy-OPLS-2005>
155.577346801758

> <r_mmod_Electrostatic_Energy-OPLS-2005>
-246.814392089844

> <r_mmod_Solvation_Energy-OPLS-2005>
-427.256622314453

> <b_mmod_Minimization_Converged-OPLS-2005>
0

> <r_mmod_RMS_Derivative-OPLS-2005>
5.34115266799927

$$$$
36
                    3D
 Structure written by MMmdl.
156164  0  0  1  0            999 V2000
  -30.6377  -15.0371   20.4688 C   0  0  0  0  0  0
  -30.4170  -12.6928   19.4847 C   0  0  0  0  0  0
  -29.4983  -12.5860   18.2479 C   0  0  0  0  0  0
  -28.0417  -12.3526   18.6847 C   0  0  0  0  0  0
  -27.6229  -13.2759   19.8588 C   0  0  2  0  0  0
  -28.6948  -13.3210   20.9814 C   0  0  0  0  0  0
  -25.2075  -13.7996   20.5343 C   0  0  0  0  0  0
  -24.1637  -13.0180   20.9248 C   0  0  0  0  0  0
  -24.6453  -11.6777   20.8806 C   0  0  0  0  0  0
  -23.9197  -10.4139   21.0393 C   0  0  0  0  0  0
  -24.3678   -9.4060   21.9188 C   0  0  0  0  0  0
  -23.6251   -8.2184   22.0811 C   0  0  0  0  0  0
  -22.4261   -8.0253   21.3562 C   0  0  0  0  0  0
  -21.9977   -9.0211   20.4638 C   0  0  0  0  0  0
  -22.7410  -10.2021   20.2973 C   0  0  0  0  0  0
  -21.6821   -6.0742   22.5284 C   0  0  0  0  0  0
  -21.4054   -6.5634   23.8231 C   0  0  0  0  0  0
  -21.3645   -5.6758   24.9148 C   0  0  0  0  0  0
  -21.6042   -4.3053   24.7176 C   0  0  0  0  0  0
  -21.8809   -3.8160   23.4282 C   0  0  0  0  0  0
  -21.9180   -4.6974   22.3352 C   0  0  0  0  0  0
  -22.7668  -13.4949   21.1888 C   0  0  0  0  0  0
  -22.1638   -4.2183   21.0930 F   0  0  0  0  0  0
  -21.5607   -3.4533   25.7687 F   0  0  0  0  0  0
  -29.9262  -13.8218   20.3494 N   0  0  0  0  0  0
  -26.2836  -12.9509   20.3455 N   0  0  0  0  0  0
  -25.9462  -11.6632   20.5984 N   0  0  0  0  0  0
  -22.0411  -12.8021   22.0562 N   0  0  0  0  0  0
  -25.2817  -15.1531   20.2663 N   0  0  0  0  0  0
  -31.8199  -14.9537   20.1187 O   0  0  0  0  0  0
  -21.6568   -6.8902   21.4266 O   0  0  0  0  0  0
  -22.3341  -14.5212   20.6663 O   0  0  0  0  0  0
  -24.6463  -31.8422   23.1897 C   0  0  0  0  0  0
  -25.9222  -32.4688   23.8299 C   0  0  1  0  0  0
  -27.2289  -27.1039   20.1514 C   0  0  0  0  0  0
  -25.5960  -33.8502   24.2202 N   0  0  0  0  0  0
  -23.4536  -30.4606   21.5328 C   0  0  2  0  0  0
  -24.9070  -28.8825   20.1121 C   0  0  0  0  0  0
  -22.7584  -29.4525   22.4837 C   0  0  0  0  0  0
  -18.0308  -28.1390   22.8470 C   0  0  0  0  0  0
  -24.1483  -36.7271   23.2642 C   0  0  0  0  0  0
  -26.0124  -30.7045   21.3923 C   0  0  0  0  0  0
  -26.0846  -29.3117   20.7349 C   0  0  0  0  0  0
  -27.2458  -28.4427   20.7341 C   0  0  0  0  0  0
  -26.0225  -26.7875   19.4863 C   0  0  0  0  0  0
  -24.8928  -27.6372   19.4689 C   0  0  0  0  0  0
  -23.6867  -29.7953   20.1520 C   0  0  0  0  0  0
  -25.4118  -36.3037   24.0312 C   0  0  1  0  0  0
  -20.5913  -28.3728   23.1227 C   0  0  2  0  0  0
  -20.6776  -26.9423   22.5405 C   0  0  0  0  0  0
  -19.5756  -26.6374   21.5210 C   0  0  0  0  0  0
  -18.1944  -26.7926   22.1613 C   0  0  0  0  0  0
  -19.1554  -28.8888   23.2838 C   0  0  0  0  0  0
  -18.9466  -30.1477   23.8884 C   0  0  0  0  0  0
  -17.6459  -30.6585   24.0567 C   0  0  0  0  0  0
  -25.9068  -34.9410   23.5067 C   0  0  0  0  0  0
  -16.5360  -29.9084   23.6315 C   0  0  0  0  0  0
  -16.7295  -28.6494   23.0359 C   0  0  0  0  0  0
  -26.4539  -31.6581   25.0767 C   0  0  0  0  0  0
  -25.3713  -31.3789   26.1453 C   0  0  0  0  0  0
  -27.0404  -30.2973   24.6356 C   0  0  0  0  0  0
  -27.6043  -32.4358   25.7562 C   0  0  0  0  0  0
  -27.5568  -37.1799   24.8457 C   0  0  0  0  0  0
  -21.4270  -29.3057   22.3600 N   0  0  0  0  0  0
  -26.4276  -37.3755   23.9400 N   0  0  0  0  0  0
  -24.7245  -31.0230   22.0945 N   0  0  0  0  0  0
  -23.4216  -28.8047   23.2972 O   0  0  0  0  0  0
  -28.2837  -26.1035   20.2057 O   0  0  0  0  0  0
  -26.5631  -34.8905   22.4633 O   0  0  0  0  0  0
  -23.5561  -32.1300   23.7093 O   0  0  0  0  0  0
  -27.5431  -18.4472   18.5123 C   0  0  0  0  0  0
  -27.0380  -17.6946   19.5906 C   0  0  0  0  0  0
  -28.8066  -19.0446   18.6348 C   0  0  0  0  0  0
  -27.9126  -17.2474   20.6081 C   0  0  0  0  0  0
  -29.4936  -18.8936   19.8563 C   0  0  0  0  0  0
  -29.2844  -17.5277   20.4822 C   0  0  0  0  0  0
  -27.3774  -16.5791   21.8627 C   0  0  0  0  0  0
  -29.7485  -20.4361   20.4514 C   0  0  0  0  0  0
  -29.1307  -23.2339   20.2622 C   0  0  0  0  0  0
  -28.0204  -24.5422   20.2006 C   0  0  0  0  0  0
  -30.2365  -16.3707   20.8754 N   0  0  0  0  0  0
  -28.7407  -21.6732   20.2470 N   0  3  0  0  0  0
  -31.4424  -12.8338   19.1440 H   0  0  0  0  0  0
  -30.4302  -11.7508   20.0327 H   0  0  0  0  0  0
  -29.8371  -11.7690   17.6097 H   0  0  0  0  0  0
  -29.5659  -13.5006   17.6542 H   0  0  0  0  0  0
  -27.9697  -11.3143   19.0050 H   0  0  0  0  0  0
  -27.3623  -12.4620   17.8404 H   0  0  0  0  0  0
  -27.5656  -14.2764   19.4319 H   0  0  0  0  0  0
  -28.8353  -12.3296   21.4142 H   0  0  0  0  0  0
  -28.4320  -13.9415   21.8307 H   0  0  0  0  0  0
  -25.2791   -9.5518   22.4803 H   0  0  0  0  0  0
  -23.9887   -7.4614   22.7608 H   0  0  0  0  0  0
  -21.0911   -8.8748   19.8954 H   0  0  0  0  0  0
  -22.3948  -10.9513   19.6025 H   0  0  0  0  0  0
  -21.2133   -7.6157   23.9772 H   0  0  0  0  0  0
  -21.1441   -6.0459   25.9058 H   0  0  0  0  0  0
  -22.0608   -2.7637   23.2732 H   0  0  0  0  0  0
  -22.4085  -11.9667   22.4870 H   0  0  0  0  0  0
  -21.1064  -13.1077   22.2795 H   0  0  0  0  0  0
  -24.4317  -15.6835   20.1087 H   0  0  0  0  0  0
  -26.1191  -15.6261   19.9437 H   0  0  0  0  0  0
  -26.7305  -32.5294   23.1022 H   0  0  0  0  0  0
  -25.0146  -33.9637   25.0380 H   0  0  0  0  0  0
  -22.7576  -31.2879   21.3785 H   0  0  0  0  0  0
  -23.3740  -35.9607   23.3285 H   0  0  0  0  0  0
  -24.3574  -36.8929   22.2064 H   0  0  0  0  0  0
  -23.7243  -37.6464   23.6697 H   0  0  0  0  0  0
  -26.1660  -31.4606   20.6197 H   0  0  0  0  0  0
  -26.8830  -30.7627   22.0366 H   0  0  0  0  0  0
  -28.1454  -28.7716   21.2373 H   0  0  0  0  0  0
  -25.9203  -25.8488   18.9649 H   0  0  0  0  0  0
  -23.9993  -27.3085   18.9584 H   0  0  0  0  0  0
  -23.8451  -30.5765   19.4071 H   0  0  0  0  0  0
  -22.7995  -29.2531   19.8228 H   0  0  0  0  0  0
  -25.1299  -36.1867   25.0805 H   0  0  0  0  0  0
  -21.0010  -28.3321   24.1343 H   0  0  0  0  0  0
  -20.5652  -26.2350   23.3633 H   0  0  0  0  0  0
  -21.6649  -26.7410   22.1216 H   0  0  0  0  0  0
  -19.6910  -25.6278   21.1273 H   0  0  0  0  0  0
  -19.6689  -27.3156   20.6723 H   0  0  0  0  0  0
  -17.4200  -26.6682   21.4022 H   0  0  0  0  0  0
  -18.0328  -26.0079   22.9021 H   0  0  0  0  0  0
  -19.7963  -30.7287   24.2249 H   0  0  0  0  0  0
  -17.5033  -31.6266   24.5169 H   0  0  0  0  0  0
  -15.5365  -30.2990   23.7663 H   0  0  0  0  0  0
  -15.8688  -28.0825   22.7081 H   0  0  0  0  0  0
  -24.5895  -30.7105   25.7800 H   0  0  0  0  0  0
  -24.8891  -32.2988   26.4785 H   0  0  0  0  0  0
  -25.8004  -30.9050   27.0290 H   0  0  0  0  0  0
  -26.3037  -29.6686   24.1319 H   0  0  0  0  0  0
  -27.3966  -29.7268   25.4943 H   0  0  0  0  0  0
  -27.8969  -30.4199   23.9713 H   0  0  0  0  0  0
  -27.2607  -33.3669   26.2062 H   0  0  0  0  0  0
  -28.3906  -32.6887   25.0446 H   0  0  0  0  0  0
  -28.0638  -31.8538   26.5549 H   0  0  0  0  0  0
  -28.2562  -38.0115   24.7498 H   0  0  0  0  0  0
  -28.1079  -36.2637   24.6271 H   0  0  0  0  0  0
  -27.2288  -37.1440   25.8862 H   0  0  0  0  0  0
  -20.9471  -29.8844   21.6845 H   0  0  0  0  0  0
  -26.0131  -38.2814   24.1416 H   0  0  0  0  0  0
  -26.9033  -18.7400   17.6918 H   0  0  0  0  0  0
  -25.9817  -17.4769   19.6207 H   0  0  0  0  0  0
  -29.0688  -19.8361   17.9479 H   0  0  0  0  0  0
  -26.4129  -17.0111   22.1267 H   0  0  0  0  0  0
  -28.0427  -16.7158   22.7172 H   0  0  0  0  0  0
  -27.2245  -15.5292   21.7204 H   0  0  0  0  0  0
  -30.6872  -20.7645   19.9956 H   0  0  0  0  0  0
  -29.9669  -20.3609   21.5174 H   0  0  0  0  0  0
  -29.7547  -23.3750   21.1456 H   0  0  0  0  0  0
  -29.8070  -23.3690   19.4166 H   0  0  0  0  0  0
  -27.3482  -24.3891   21.0461 H   0  0  0  0  0  0
  -27.4061  -24.3404   19.3233 H   0  0  0  0  0  0
  -31.1344  -16.7793   21.1028 H   0  0  0  0  0  0
  -28.0241  -21.5427   20.9473 H   0  0  0  0  0  0
  -28.2667  -21.5048   19.3686 H   0  0  0  0  0  0
  1 25  1  0  0  0
  1 30  2  0  0  0
  1 81  1  0  0  0
  2  3  1  0  0  0
  2 25  1  0  0  0
  2 83  1  0  0  0
  2 84  1  0  0  0
  3  4  1  0  0  0
  3 85  1  0  0  0
  3 86  1  0  0  0
  4  5  1  0  0  0
  4 87  1  0  0  0
  4 88  1  0  0  0
  5  6  1  0  0  0
  5 26  1  0  0  0
  5 89  1  0  0  0
  6 25  1  0  0  0
  6 90  1  0  0  0
  6 91  1  0  0  0
  7  8  2  0  0  0
  7 26  1  0  0  0
  7 29  1  0  0  0
  8  9  1  0  0  0
  8 22  1  0  0  0
  9 10  1  0  0  0
  9 27  2  0  0  0
 10 11  2  0  0  0
 10 15  1  0  0  0
 11 12  1  0  0  0
 11 92  1  0  0  0
 12 13  2  0  0  0
 12 93  1  0  0  0
 13 14  1  0  0  0
 13 31  1  0  0  0
 14 15  2  0  0  0
 14 94  1  0  0  0
 15 95  1  0  0  0
 16 17  2  0  0  0
 16 21  1  0  0  0
 16 31  1  0  0  0
 17 18  1  0  0  0
 17 96  1  0  0  0
 18 19  2  0  0  0
 18 97  1  0  0  0
 19 20  1  0  0  0
 19 24  1  0  0  0
 20 21  2  0  0  0
 20 98  1  0  0  0
 21 23  1  0  0  0
 22 28  1  0  0  0
 22 32  2  0  0  0
 26 27  1  0  0  0
 28 99  1  0  0  0
 28100  1  0  0  0
 29101  1  0  0  0
 29102  1  0  0  0
 33 34  1  0  0  0
 33 66  1  0  0  0
 33 70  2  0  0  0
 34 36  1  0  0  0
 34 59  1  0  0  0
 34103  1  0  0  0
 35 44  2  0  0  0
 35 45  1  0  0  0
 35 68  1  0  0  0
 36 56  1  0  0  0
 36104  1  0  0  0
 37 39  1  0  0  0
 37 47  1  0  0  0
 37 66  1  0  0  0
 37105  1  0  0  0
 38 43  2  0  0  0
 38 46  1  0  0  0
 38 47  1  0  0  0
 39 64  1  0  0  0
 39 67  2  0  0  0
 40 52  1  0  0  0
 40 53  2  0  0  0
 40 58  1  0  0  0
 41106  1  0  0  0
 41107  1  0  0  0
 41108  1  0  0  0
 41 48  1  0  0  0
 42 43  1  0  0  0
 42 66  1  0  0  0
 42109  1  0  0  0
 42110  1  0  0  0
 43 44  1  0  0  0
 44111  1  0  0  0
 45 46  2  0  0  0
 45112  1  0  0  0
 46113  1  0  0  0
 47114  1  0  0  0
 47115  1  0  0  0
 48 56  1  0  0  0
 48 65  1  0  0  0
 48116  1  0  0  0
 49 50  1  0  0  0
 49 53  1  0  0  0
 49 64  1  0  0  0
 49117  1  0  0  0
 50 51  1  0  0  0
 50118  1  0  0  0
 50119  1  0  0  0
 51 52  1  0  0  0
 51120  1  0  0  0
 51121  1  0  0  0
 52122  1  0  0  0
 52123  1  0  0  0
 53 54  1  0  0  0
 54 55  2  0  0  0
 54124  1  0  0  0
 55 57  1  0  0  0
 55125  1  0  0  0
 56 69  2  0  0  0
 57 58  2  0  0  0
 57126  1  0  0  0
 58127  1  0  0  0
 59 60  1  0  0  0
 59 61  1  0  0  0
 59 62  1  0  0  0
 60128  1  0  0  0
 60129  1  0  0  0
 60130  1  0  0  0
 61131  1  0  0  0
 61132  1  0  0  0
 61133  1  0  0  0
 62134  1  0  0  0
 62135  1  0  0  0
 62136  1  0  0  0
 63 65  1  0  0  0
 63137  1  0  0  0
 63138  1  0  0  0
 63139  1  0  0  0
 64140  1  0  0  0
 65141  1  0  0  0
 68 80  1  0  0  0
 71 72  2  0  0  0
 71 73  1  0  0  0
 71142  1  0  0  0
 72 74  1  0  0  0
 72143  1  0  0  0
 73 75  2  0  0  0
 73144  1  0  0  0
 74 76  2  0  0  0
 74 77  1  0  0  0
 75 76  1  0  0  0
 75 78  1  0  0  0
 76 81  1  0  0  0
 77145  1  0  0  0
 77146  1  0  0  0
 77147  1  0  0  0
 78 82  1  0  0  0
 78148  1  0  0  0
 78149  1  0  0  0
 79 80  1  0  0  0
 79 82  1  0  0  0
 79150  1  0  0  0
 79151  1  0  0  0
 80152  1  0  0  0
 80153  1  0  0  0
 81154  1  0  0  0
 82155  1  0  0  0
 82156  1  0  0  0
M  CHG  1  82   1
M  ISO  4   1 100  68 101  80 101  81 100
M  END
> <chiral flag>
0

> <version>
0

> <s_m_source_file>
/data/baiqing/PycharmProjects/Reinvent-master-3.2/result/LINK_invent/BTK/process_docking_weight1_custom_sum_contain_oxygen_bond_distance_aromatic_linkinvent_7_9_3/rearranged_h_0132.sdf

> <i_m_source_file_index>
37

> <r_mmod_Potential_Energy-OPLS-2005>
843.542541503906

> <r_mmod_Stretch_Energy-OPLS-2005>
337.323181152344

> <r_mmod_Bend_Energy-OPLS-2005>
408.257965087891

> <r_mmod_Torsional_Energy-OPLS-2005>
460.679534912109

> <r_mmod_Improper_Torsional_Energy-OPLS-2005>
17.3741493225098

> <r_mmod_Van_der_Waal_Energy-OPLS-2005>
148.795928955078

> <r_mmod_Electrostatic_Energy-OPLS-2005>
-313.518615722656

> <r_mmod_Solvation_Energy-OPLS-2005>
-452.660552978516

> <b_mmod_Minimization_Converged-OPLS-2005>
0

> <r_mmod_RMS_Derivative-OPLS-2005>
8.21096134185791

$$$$
37
                    3D
 Structure written by MMmdl.
169178  0  0  1  0            999 V2000
  -30.6570  -14.6674   20.4663 C   0  0  0  0  0  0
  -30.4256  -12.4053   19.4741 C   0  0  0  0  0  0
  -29.5103  -12.4878   18.2328 C   0  0  0  0  0  0
  -28.0351  -12.3224   18.6462 C   0  0  0  0  0  0
  -27.6436  -13.2250   19.8458 C   0  0  2  0  0  0
  -28.6837  -13.1533   20.9851 C   0  0  0  0  0  0
  -25.2526  -13.8178   20.5681 C   0  0  0  0  0  0
  -24.1790  -13.0439   20.9180 C   0  0  0  0  0  0
  -24.6366  -11.6913   20.8733 C   0  0  0  0  0  0
  -23.9042  -10.4300   21.0409 C   0  0  0  0  0  0
  -24.3606   -9.4223   21.9182 C   0  0  0  0  0  0
  -23.6276   -8.2260   22.0748 C   0  0  0  0  0  0
  -22.4255   -8.0300   21.3548 C   0  0  0  0  0  0
  -21.9885   -9.0266   20.4649 C   0  0  0  0  0  0
  -22.7216  -10.2139   20.3059 C   0  0  0  0  0  0
  -21.6851   -6.0741   22.5276 C   0  0  0  0  0  0
  -21.4022   -6.5639   23.8218 C   0  0  0  0  0  0
  -21.3655   -5.6782   24.9173 C   0  0  0  0  0  0
  -21.6043   -4.3053   24.7216 C   0  0  0  0  0  0
  -21.8818   -3.8149   23.4334 C   0  0  0  0  0  0
  -21.9188   -4.6968   22.3393 C   0  0  0  0  0  0
  -22.7821  -13.5236   21.1853 C   0  0  0  0  0  0
  -22.1668   -4.2168   21.0970 F   0  0  0  0  0  0
  -21.5617   -3.4527   25.7727 F   0  0  0  0  0  0
  -29.9944  -13.4680   20.4065 N   0  0  0  0  0  0
  -26.2927  -12.9380   20.3224 N   0  0  0  0  0  0
  -25.9290  -11.6531   20.5703 N   0  0  0  0  0  0
  -22.0466  -12.8249   22.0425 N   0  0  0  0  0  0
  -25.4223  -15.1905   20.4129 N   0  0  0  0  0  0
  -31.8548  -14.7284   20.1905 O   0  0  0  0  0  0
  -21.6630   -6.8885   21.4239 O   0  0  0  0  0  0
  -22.3519  -14.5554   20.6701 O   0  0  0  0  0  0
  -24.6274  -31.8582   23.2013 C   0  0  0  0  0  0
  -25.9109  -32.4765   23.8343 C   0  0  1  0  0  0
  -27.2252  -27.2971   20.1176 C   0  0  0  0  0  0
  -25.5910  -33.8565   24.2256 N   0  0  0  0  0  0
  -23.4212  -30.4812   21.5441 C   0  0  2  0  0  0
  -24.8673  -28.9332   20.1079 C   0  0  0  0  0  0
  -22.7481  -29.4602   22.4933 C   0  0  0  0  0  0
  -18.0284  -28.1386   22.8488 C   0  0  0  0  0  0
  -24.1484  -36.7284   23.2639 C   0  0  0  0  0  0
  -25.9639  -30.7800   21.3768 C   0  0  0  0  0  0
  -26.0359  -29.4065   20.7174 C   0  0  0  0  0  0
  -27.2119  -28.5975   20.7167 C   0  0  0  0  0  0
  -26.0265  -26.8744   19.4999 C   0  0  0  0  0  0
  -24.8658  -27.6727   19.4922 C   0  0  0  0  0  0
  -23.6359  -29.8156   20.1588 C   0  0  0  0  0  0
  -25.4110  -36.3073   24.0324 C   0  0  1  0  0  0
  -20.5886  -28.3683   23.1281 C   0  0  2  0  0  0
  -20.6769  -26.9404   22.5416 C   0  0  0  0  0  0
  -19.5746  -26.6381   21.5217 C   0  0  0  0  0  0
  -18.1924  -26.7929   22.1628 C   0  0  0  0  0  0
  -19.1538  -28.8857   23.2880 C   0  0  0  0  0  0
  -18.9466  -30.1453   23.8902 C   0  0  0  0  0  0
  -17.6464  -30.6586   24.0569 C   0  0  0  0  0  0
  -25.9050  -34.9447   23.5091 C   0  0  0  0  0  0
  -16.5355  -29.9087   23.6329 C   0  0  0  0  0  0
  -16.7268  -28.6504   23.0357 C   0  0  0  0  0  0
  -26.4490  -31.6595   25.0731 C   0  0  0  0  0  0
  -25.3717  -31.3769   26.1462 C   0  0  0  0  0  0
  -27.0320  -30.3004   24.6214 C   0  0  0  0  0  0
  -27.6050  -32.4343   25.7482 C   0  0  0  0  0  0
  -27.5577  -37.1789   24.8460 C   0  0  0  0  0  0
  -21.4199  -29.3034   22.3672 N   0  0  0  0  0  0
  -26.4286  -37.3777   23.9408 N   0  0  0  0  0  0
  -24.6887  -31.0577   22.0958 N   0  0  0  0  0  0
  -23.4199  -28.8144   23.3012 O   0  0  0  0  0  0
  -28.3510  -26.4534   20.2052 O   0  0  0  0  0  0
  -26.5641  -34.8917   22.4672 O   0  0  0  0  0  0
  -23.5431  -32.1387   23.7330 O   0  0  0  0  0  0
  -31.3681  -18.6717   18.3877 C   0  0  0  0  0  0
  -30.9687  -24.4204   19.5348 C   0  0  0  0  0  0
  -30.7761  -17.3087   18.7534 C   0  0  0  0  0  0
  -30.3437  -19.7950   18.5841 C   0  0  0  0  0  0
  -30.5704  -22.9453   19.4116 C   0  0  0  0  0  0
  -29.9476  -25.2974   18.8065 C   0  0  0  0  0  0
  -29.3926  -18.4881   20.5418 C   0  0  0  0  0  0
  -28.1419  -23.7141   19.9057 C   0  0  1  0  0  0
  -30.3746  -17.2412   20.2433 C   0  0  1  0  0  0
  -29.8886  -19.9553   20.0596 C   0  0  2  0  0  0
  -29.3051  -22.6203   20.2295 C   0  0  1  0  0  0
  -28.5266  -25.2185   19.3959 C   0  0  1  0  0  0
  -27.1542  -23.0963   18.8885 C   0  0  0  0  0  0
  -29.9141  -15.8277   20.5731 N   0  0  0  0  0  0
  -28.8934  -21.1259   20.2048 N   0  3  0  0  0  0
  -31.4713  -12.5066   19.1792 H   0  0  0  0  0  0
  -30.3441  -11.4268   19.9497 H   0  0  0  0  0  0
  -29.7840  -11.7216   17.5046 H   0  0  0  0  0  0
  -29.6474  -13.4469   17.7305 H   0  0  0  0  0  0
  -27.8888  -11.2747   18.9116 H   0  0  0  0  0  0
  -27.3805  -12.5218   17.7962 H   0  0  0  0  0  0
  -27.6424  -14.2448   19.4629 H   0  0  0  0  0  0
  -28.6915  -12.1629   21.4405 H   0  0  0  0  0  0
  -28.4300  -13.8544   21.7815 H   0  0  0  0  0  0
  -25.2762   -9.5711   22.4740 H   0  0  0  0  0  0
  -24.0009   -7.4642   22.7438 H   0  0  0  0  0  0
  -21.0827   -8.8762   19.8944 H   0  0  0  0  0  0
  -22.3672  -10.9663   19.6168 H   0  0  0  0  0  0
  -21.2048   -7.6152   23.9728 H   0  0  0  0  0  0
  -21.1466   -6.0514   25.9072 H   0  0  0  0  0  0
  -22.0604   -2.7613   23.2815 H   0  0  0  0  0  0
  -22.4061  -11.9924   22.4857 H   0  0  0  0  0  0
  -21.1083  -13.1293   22.2598 H   0  0  0  0  0  0
  -24.6526  -15.8402   20.5236 H   0  0  0  0  0  0
  -26.2657  -15.6331   20.0711 H   0  0  0  0  0  0
  -26.7172  -32.5427   23.1085 H   0  0  0  0  0  0
  -25.0032  -33.9708   25.0382 H   0  0  0  0  0  0
  -22.7151  -31.3014   21.4013 H   0  0  0  0  0  0
  -23.3756  -35.9610   23.3297 H   0  0  0  0  0  0
  -24.3574  -36.8918   22.2057 H   0  0  0  0  0  0
  -23.7233  -37.6476   23.6677 H   0  0  0  0  0  0
  -26.1036  -31.5438   20.6108 H   0  0  0  0  0  0
  -26.8407  -30.8253   22.0102 H   0  0  0  0  0  0
  -28.1046  -28.9556   21.2102 H   0  0  0  0  0  0
  -25.9427  -25.8994   19.0505 H   0  0  0  0  0  0
  -23.9654  -27.2980   19.0232 H   0  0  0  0  0  0
  -23.7549  -30.5917   19.4025 H   0  0  0  0  0  0
  -22.7555  -29.2457   19.8560 H   0  0  0  0  0  0
  -25.1294  -36.1922   25.0820 H   0  0  0  0  0  0
  -20.9980  -28.3271   24.1403 H   0  0  0  0  0  0
  -20.5662  -26.2302   23.3623 H   0  0  0  0  0  0
  -21.6639  -26.7425   22.1217 H   0  0  0  0  0  0
  -19.6904  -25.6296   21.1239 H   0  0  0  0  0  0
  -19.6674  -27.3200   20.6753 H   0  0  0  0  0  0
  -17.4193  -26.6681   21.4030 H   0  0  0  0  0  0
  -18.0313  -26.0066   22.9019 H   0  0  0  0  0  0
  -19.7944  -30.7265   24.2279 H   0  0  0  0  0  0
  -17.5022  -31.6263   24.5168 H   0  0  0  0  0  0
  -15.5359  -30.2996   23.7640 H   0  0  0  0  0  0
  -15.8668  -28.0811   22.7088 H   0  0  0  0  0  0
  -24.5869  -30.7139   25.7801 H   0  0  0  0  0  0
  -24.8943  -32.2959   26.4874 H   0  0  0  0  0  0
  -25.8036  -30.8953   27.0243 H   0  0  0  0  0  0
  -26.2895  -29.6765   24.1228 H   0  0  0  0  0  0
  -27.3974  -29.7259   25.4734 H   0  0  0  0  0  0
  -27.8788  -30.4256   23.9465 H   0  0  0  0  0  0
  -27.2658  -33.3651   26.2033 H   0  0  0  0  0  0
  -28.3860  -32.6893   25.0307 H   0  0  0  0  0  0
  -28.0718  -31.8496   26.5417 H   0  0  0  0  0  0
  -28.2597  -38.0082   24.7516 H   0  0  0  0  0  0
  -28.1070  -36.2619   24.6277 H   0  0  0  0  0  0
  -27.2301  -37.1432   25.8863 H   0  0  0  0  0  0
  -20.9384  -29.8756   21.6879 H   0  0  0  0  0  0
  -26.0165  -38.2846   24.1434 H   0  0  0  0  0  0
  -31.6940  -18.6535   17.3459 H   0  0  0  0  0  0
  -32.2610  -18.8687   18.9848 H   0  0  0  0  0  0
  -31.9512  -24.5686   19.0834 H   0  0  0  0  0  0
  -31.0592  -24.7156   20.5815 H   0  0  0  0  0  0
  -31.5204  -16.5509   18.5079 H   0  0  0  0  0  0
  -29.9114  -17.0974   18.1211 H   0  0  0  0  0  0
  -29.4782  -19.6088   17.9481 H   0  0  0  0  0  0
  -30.8093  -20.6927   18.1963 H   0  0  0  0  0  0
  -31.4086  -22.3322   19.7447 H   0  0  0  0  0  0
  -30.4024  -22.7339   18.3569 H   0  0  0  0  0  0
  -29.9138  -24.9877   17.7607 H   0  0  0  0  0  0
  -30.2909  -26.3330   18.7837 H   0  0  0  0  0  0
  -29.1847  -18.5171   21.6123 H   0  0  0  0  0  0
  -28.4377  -18.2764   20.0614 H   0  0  0  0  0  0
  -27.5668  -23.8453   20.8233 H   0  0  0  0  0  0
  -31.2784  -17.3981   20.8352 H   0  0  0  0  0  0
  -30.7594  -20.2089   20.6655 H   0  0  0  0  0  0
  -29.5958  -22.7961   21.2669 H   0  0  0  0  0  0
  -27.9241  -25.4036   18.5076 H   0  0  0  0  0  0
  -27.6502  -22.8751   17.9413 H   0  0  0  0  0  0
  -26.3226  -23.7644   18.6696 H   0  0  0  0  0  0
  -26.6993  -22.1764   19.2549 H   0  0  0  0  0  0
  -28.9330  -15.7064   20.7719 H   0  0  0  0  0  0
  -28.3978  -20.9787   21.0702 H   0  0  0  0  0  0
  -28.2065  -21.0183   19.4762 H   0  0  0  0  0  0
  1 25  1  0  0  0
  1 30  2  0  0  0
  1 84  1  0  0  0
  2  3  1  0  0  0
  2 25  1  0  0  0
  2 86  1  0  0  0
  2 87  1  0  0  0
  3  4  1  0  0  0
  3 88  1  0  0  0
  3 89  1  0  0  0
  4  5  1  0  0  0
  4 90  1  0  0  0
  4 91  1  0  0  0
  5  6  1  0  0  0
  5 26  1  0  0  0
  5 92  1  0  0  0
  6 25  1  0  0  0
  6 93  1  0  0  0
  6 94  1  0  0  0
  7  8  2  0  0  0
  7 26  1  0  0  0
  7 29  1  0  0  0
  8  9  1  0  0  0
  8 22  1  0  0  0
  9 10  1  0  0  0
  9 27  2  0  0  0
 10 11  2  0  0  0
 10 15  1  0  0  0
 11 12  1  0  0  0
 11 95  1  0  0  0
 12 13  2  0  0  0
 12 96  1  0  0  0
 13 14  1  0  0  0
 13 31  1  0  0  0
 14 15  2  0  0  0
 14 97  1  0  0  0
 15 98  1  0  0  0
 16 17  2  0  0  0
 16 21  1  0  0  0
 16 31  1  0  0  0
 17 18  1  0  0  0
 17 99  1  0  0  0
 18 19  2  0  0  0
 18100  1  0  0  0
 19 20  1  0  0  0
 19 24  1  0  0  0
 20 21  2  0  0  0
 20101  1  0  0  0
 21 23  1  0  0  0
 22 28  1  0  0  0
 22 32  2  0  0  0
 26 27  1  0  0  0
 28102  1  0  0  0
 28103  1  0  0  0
 29104  1  0  0  0
 29105  1  0  0  0
 33 34  1  0  0  0
 33 66  1  0  0  0
 33 70  2  0  0  0
 34 36  1  0  0  0
 34 59  1  0  0  0
 34106  1  0  0  0
 35 44  2  0  0  0
 35 45  1  0  0  0
 35 68  1  0  0  0
 36 56  1  0  0  0
 36107  1  0  0  0
 37 39  1  0  0  0
 37 47  1  0  0  0
 37 66  1  0  0  0
 37108  1  0  0  0
 38 43  2  0  0  0
 38 46  1  0  0  0
 38 47  1  0  0  0
 39 64  1  0  0  0
 39 67  2  0  0  0
 40 52  1  0  0  0
 40 53  2  0  0  0
 40 58  1  0  0  0
 41109  1  0  0  0
 41110  1  0  0  0
 41111  1  0  0  0
 41 48  1  0  0  0
 42 43  1  0  0  0
 42 66  1  0  0  0
 42112  1  0  0  0
 42113  1  0  0  0
 43 44  1  0  0  0
 44114  1  0  0  0
 45 46  2  0  0  0
 45115  1  0  0  0
 46116  1  0  0  0
 47117  1  0  0  0
 47118  1  0  0  0
 48 56  1  0  0  0
 48 65  1  0  0  0
 48119  1  0  0  0
 49 50  1  0  0  0
 49 53  1  0  0  0
 49 64  1  0  0  0
 49120  1  0  0  0
 50 51  1  0  0  0
 50121  1  0  0  0
 50122  1  0  0  0
 51 52  1  0  0  0
 51123  1  0  0  0
 51124  1  0  0  0
 52125  1  0  0  0
 52126  1  0  0  0
 53 54  1  0  0  0
 54 55  2  0  0  0
 54127  1  0  0  0
 55 57  1  0  0  0
 55128  1  0  0  0
 56 69  2  0  0  0
 57 58  2  0  0  0
 57129  1  0  0  0
 58130  1  0  0  0
 59 60  1  0  0  0
 59 61  1  0  0  0
 59 62  1  0  0  0
 60131  1  0  0  0
 60132  1  0  0  0
 60133  1  0  0  0
 61134  1  0  0  0
 61135  1  0  0  0
 61136  1  0  0  0
 62137  1  0  0  0
 62138  1  0  0  0
 62139  1  0  0  0
 63 65  1  0  0  0
 63140  1  0  0  0
 63141  1  0  0  0
 63142  1  0  0  0
 64143  1  0  0  0
 65144  1  0  0  0
 68 82  1  0  0  0
 71 73  1  0  0  0
 71 74  1  0  0  0
 71145  1  0  0  0
 71146  1  0  0  0
 72 75  1  0  0  0
 72 76  1  0  0  0
 72147  1  0  0  0
 72148  1  0  0  0
 73 79  1  0  0  0
 73149  1  0  0  0
 73150  1  0  0  0
 74 80  1  0  0  0
 74151  1  0  0  0
 74152  1  0  0  0
 75 81  1  0  0  0
 75153  1  0  0  0
 75154  1  0  0  0
 76 82  1  0  0  0
 76155  1  0  0  0
 76156  1  0  0  0
 77 79  1  0  0  0
 77 80  1  0  0  0
 77157  1  0  0  0
 77158  1  0  0  0
 78 81  1  0  0  0
 78 82  1  0  0  0
 78 83  1  0  0  0
 78159  1  0  0  0
 79 84  1  0  0  0
 79160  1  0  0  0
 80 85  1  0  0  0
 80161  1  0  0  0
 81 85  1  0  0  0
 81162  1  0  0  0
 82163  1  0  0  0
 83164  1  0  0  0
 83165  1  0  0  0
 83166  1  0  0  0
 84167  1  0  0  0
 85168  1  0  0  0
 85169  1  0  0  0
M  CHG  1  85   1
M  ISO  4   1 100  68 101  82 101  84 100
M  END
> <chiral flag>
0

> <version>
0

> <s_m_source_file>
/data/baiqing/PycharmProjects/Reinvent-master-3.2/result/LINK_invent/BTK/process_docking_weight1_custom_sum_contain_oxygen_bond_distance_aromatic_linkinvent_7_9_3/rearranged_h_0132.sdf

> <i_m_source_file_index>
38

> <r_mmod_Potential_Energy-OPLS-2005>
106.421165466309

> <r_mmod_Stretch_Energy-OPLS-2005>
119.864151000977

> <r_mmod_Bend_Energy-OPLS-2005>
188.054122924805

> <r_mmod_Torsional_Energy-OPLS-2005>
287.709625244141

> <r_mmod_Improper_Torsional_Energy-OPLS-2005>
6.4228572845459

> <r_mmod_Van_der_Waal_Energy-OPLS-2005>
136.301635742188

> <r_mmod_Electrostatic_Energy-OPLS-2005>
-236.025329589844

> <r_mmod_Solvation_Energy-OPLS-2005>
-458.908386230469

> <b_mmod_Minimization_Converged-OPLS-2005>
0

> <r_mmod_RMS_Derivative-OPLS-2005>
2.78834080696106

$$$$
38
                    3D
 Structure written by MMmdl.
158166  0  0  1  0            999 V2000
  -30.5613  -14.8023   20.4356 C   0  0  0  0  0  0
  -30.4405  -12.4918   19.4605 C   0  0  0  0  0  0
  -29.5085  -12.4925   18.2284 C   0  0  0  0  0  0
  -28.0411  -12.2973   18.6574 C   0  0  0  0  0  0
  -27.6350  -13.2211   19.8363 C   0  0  2  0  0  0
  -28.6809  -13.1806   20.9688 C   0  0  0  0  0  0
  -25.2503  -13.8149   20.5673 C   0  0  0  0  0  0
  -24.1795  -13.0402   20.9197 C   0  0  0  0  0  0
  -24.6384  -11.6887   20.8747 C   0  0  0  0  0  0
  -23.9054  -10.4278   21.0406 C   0  0  0  0  0  0
  -24.3611   -9.4191   21.9185 C   0  0  0  0  0  0
  -23.6286   -8.2224   22.0758 C   0  0  0  0  0  0
  -22.4267   -8.0265   21.3548 C   0  0  0  0  0  0
  -21.9899   -9.0232   20.4639 C   0  0  0  0  0  0
  -22.7224  -10.2113   20.3050 C   0  0  0  0  0  0
  -21.6849   -6.0721   22.5277 C   0  0  0  0  0  0
  -21.4003   -6.5633   23.8197 C   0  0  0  0  0  0
  -21.3658   -5.6796   24.9165 C   0  0  0  0  0  0
  -21.6046   -4.3057   24.7224 C   0  0  0  0  0  0
  -21.8818   -3.8143   23.4350 C   0  0  0  0  0  0
  -21.9185   -4.6952   22.3410 C   0  0  0  0  0  0
  -22.7821  -13.5189   21.1877 C   0  0  0  0  0  0
  -22.1658   -4.2130   21.0997 F   0  0  0  0  0  0
  -21.5636   -3.4547   25.7755 F   0  0  0  0  0  0
  -29.9693  -13.5580   20.3747 N   0  0  0  0  0  0
  -26.2906  -12.9341   20.3202 N   0  0  0  0  0  0
  -25.9304  -11.6496   20.5721 N   0  0  0  0  0  0
  -22.0475  -12.8171   22.0431 N   0  0  0  0  0  0
  -25.4168  -15.1874   20.4106 N   0  0  0  0  0  0
  -31.7665  -14.9142   20.1920 O   0  0  0  0  0  0
  -21.6635   -6.8859   21.4252 O   0  0  0  0  0  0
  -22.3504  -14.5502   20.6741 O   0  0  0  0  0  0
  -24.6356  -31.8524   23.1967 C   0  0  0  0  0  0
  -25.9167  -32.4736   23.8305 C   0  0  1  0  0  0
  -27.2142  -27.2300   20.1303 C   0  0  0  0  0  0
  -25.5937  -33.8532   24.2218 N   0  0  0  0  0  0
  -23.4315  -30.4745   21.5413 C   0  0  2  0  0  0
  -24.8789  -28.9144   20.1097 C   0  0  0  0  0  0
  -22.7523  -29.4592   22.4917 C   0  0  0  0  0  0
  -18.0288  -28.1398   22.8446 C   0  0  0  0  0  0
  -24.1497  -36.7273   23.2638 C   0  0  0  0  0  0
  -25.9814  -30.7519   21.3820 C   0  0  0  0  0  0
  -26.0549  -29.3728   20.7208 C   0  0  0  0  0  0
  -27.2271  -28.5453   20.7162 C   0  0  0  0  0  0
  -26.0190  -26.8513   19.4839 C   0  0  0  0  0  0
  -24.8692  -27.6634   19.4781 C   0  0  0  0  0  0
  -23.6504  -29.8032   20.1608 C   0  0  0  0  0  0
  -25.4122  -36.3056   24.0321 C   0  0  1  0  0  0
  -20.5892  -28.3704   23.1271 C   0  0  2  0  0  0
  -20.6783  -26.9422   22.5407 C   0  0  0  0  0  0
  -19.5766  -26.6378   21.5216 C   0  0  0  0  0  0
  -18.1928  -26.7934   22.1610 C   0  0  0  0  0  0
  -19.1535  -28.8874   23.2839 C   0  0  0  0  0  0
  -18.9477  -30.1467   23.8868 C   0  0  0  0  0  0
  -17.6471  -30.6597   24.0560 C   0  0  0  0  0  0
  -25.9076  -34.9443   23.5073 C   0  0  0  0  0  0
  -16.5363  -29.9089   23.6353 C   0  0  0  0  0  0
  -16.7280  -28.6513   23.0341 C   0  0  0  0  0  0
  -26.4505  -31.6576   25.0717 C   0  0  0  0  0  0
  -25.3706  -31.3742   26.1435 C   0  0  0  0  0  0
  -27.0371  -30.2994   24.6251 C   0  0  0  0  0  0
  -27.6071  -32.4315   25.7465 C   0  0  0  0  0  0
  -27.5581  -37.1780   24.8456 C   0  0  0  0  0  0
  -21.4228  -29.3034   22.3672 N   0  0  0  0  0  0
  -26.4286  -37.3757   23.9423 N   0  0  0  0  0  0
  -24.7021  -31.0442   22.0960 N   0  0  0  0  0  0
  -23.4204  -28.8127   23.3033 O   0  0  0  0  0  0
  -28.2866  -26.3025   20.1575 O   0  0  0  0  0  0
  -26.5647  -34.8905   22.4639 O   0  0  0  0  0  0
  -23.5506  -32.1371   23.7244 O   0  0  0  0  0  0
  -25.8028  -21.9950   18.3391 C   0  0  0  0  0  0
  -25.6887  -20.6864   18.8020 C   0  0  0  0  0  0
  -26.8797  -22.7672   18.7707 C   0  0  0  0  0  0
  -26.7044  -20.1025   19.5822 C   0  0  0  0  0  0
  -27.8917  -22.2733   19.6281 C   0  0  0  0  0  0
  -27.9265  -20.8019   19.8908 C   0  0  0  0  0  0
  -26.3374  -18.7231   20.1231 C   0  0  0  0  0  0
  -28.7803  -23.5022   20.1196 C   0  0  0  0  0  0
  -29.3649  -18.5864   19.8647 C   0  0  0  0  0  0
  -30.0048  -17.4183   20.8128 C   0  0  0  0  0  0
  -28.0029  -24.8778   20.5996 C   0  0  0  0  0  0
  -29.0180  -19.9860   20.4118 N   0  0  0  0  0  0
  -29.7353  -15.9188   20.5743 N   0  0  0  0  0  0
  -31.4748  -12.6475   19.1493 H   0  0  0  0  0  0
  -30.4162  -11.5229   19.9625 H   0  0  0  0  0  0
  -29.8002  -11.7014   17.5368 H   0  0  0  0  0  0
  -29.6104  -13.4310   17.6813 H   0  0  0  0  0  0
  -27.9309  -11.2545   18.9610 H   0  0  0  0  0  0
  -27.3696  -12.4376   17.8081 H   0  0  0  0  0  0
  -27.6163  -14.2320   19.4306 H   0  0  0  0  0  0
  -28.7365  -12.1846   21.4105 H   0  0  0  0  0  0
  -28.4036  -13.8601   21.7759 H   0  0  0  0  0  0
  -25.2765   -9.5661   22.4753 H   0  0  0  0  0  0
  -23.9992   -7.4612   22.7494 H   0  0  0  0  0  0
  -21.0822   -8.8747   19.8954 H   0  0  0  0  0  0
  -22.3688  -10.9651   19.6158 H   0  0  0  0  0  0
  -21.1994   -7.6129   23.9693 H   0  0  0  0  0  0
  -21.1487   -6.0532   25.9066 H   0  0  0  0  0  0
  -22.0601   -2.7605   23.2867 H   0  0  0  0  0  0
  -22.4122  -11.9830   22.4799 H   0  0  0  0  0  0
  -21.1089  -13.1176   22.2659 H   0  0  0  0  0  0
  -24.6430  -15.8326   20.5206 H   0  0  0  0  0  0
  -26.2549  -15.6287   20.0608 H   0  0  0  0  0  0
  -26.7227  -32.5359   23.1021 H   0  0  0  0  0  0
  -25.0063  -33.9636   25.0366 H   0  0  0  0  0  0
  -22.7282  -31.2977   21.3899 H   0  0  0  0  0  0
  -23.3770  -35.9594   23.3284 H   0  0  0  0  0  0
  -24.3571  -36.8933   22.2058 H   0  0  0  0  0  0
  -23.7263  -37.6464   23.6690 H   0  0  0  0  0  0
  -26.1205  -31.5096   20.6104 H   0  0  0  0  0  0
  -26.8606  -30.8020   22.0137 H   0  0  0  0  0  0
  -28.1276  -28.8885   21.2070 H   0  0  0  0  0  0
  -25.9628  -25.8955   18.9854 H   0  0  0  0  0  0
  -23.9715  -27.3103   18.9874 H   0  0  0  0  0  0
  -23.7732  -30.5779   19.4039 H   0  0  0  0  0  0
  -22.7672  -29.2374   19.8580 H   0  0  0  0  0  0
  -25.1297  -36.1875   25.0811 H   0  0  0  0  0  0
  -20.9951  -28.3298   24.1418 H   0  0  0  0  0  0
  -20.5724  -26.2306   23.3603 H   0  0  0  0  0  0
  -21.6635  -26.7466   22.1171 H   0  0  0  0  0  0
  -19.6946  -25.6293   21.1236 H   0  0  0  0  0  0
  -19.6736  -27.3198   20.6751 H   0  0  0  0  0  0
  -17.4205  -26.6696   21.4000 H   0  0  0  0  0  0
  -18.0315  -26.0080   22.9008 H   0  0  0  0  0  0
  -19.7958  -30.7269   24.2230 H   0  0  0  0  0  0
  -17.5038  -31.6277   24.5152 H   0  0  0  0  0  0
  -15.5358  -30.2974   23.7717 H   0  0  0  0  0  0
  -15.8675  -28.0846   22.7058 H   0  0  0  0  0  0
  -24.5872  -30.7110   25.7742 H   0  0  0  0  0  0
  -24.8887  -32.2910   26.4854 H   0  0  0  0  0  0
  -25.7973  -30.8906   27.0233 H   0  0  0  0  0  0
  -26.2982  -29.6701   24.1285 H   0  0  0  0  0  0
  -27.4063  -29.7293   25.4782 H   0  0  0  0  0  0
  -27.8835  -30.4248   23.9497 H   0  0  0  0  0  0
  -27.2746  -33.3685   26.1941 H   0  0  0  0  0  0
  -28.3921  -32.6777   25.0298 H   0  0  0  0  0  0
  -28.0697  -31.8501   26.5452 H   0  0  0  0  0  0
  -28.2567  -38.0102   24.7498 H   0  0  0  0  0  0
  -28.1096  -36.2619   24.6265 H   0  0  0  0  0  0
  -27.2269  -37.1404   25.8847 H   0  0  0  0  0  0
  -20.9454  -29.8749   21.6848 H   0  0  0  0  0  0
  -26.0165  -38.2827   24.1434 H   0  0  0  0  0  0
  -25.0302  -22.4282   17.7169 H   0  0  0  0  0  0
  -24.8011  -20.1247   18.5489 H   0  0  0  0  0  0
  -26.9006  -23.8001   18.4500 H   0  0  0  0  0  0
  -25.2954  -18.7191   20.4467 H   0  0  0  0  0  0
  -26.9297  -18.4328   20.9898 H   0  0  0  0  0  0
  -26.4262  -17.9623   19.3471 H   0  0  0  0  0  0
  -29.4553  -23.7594   19.3018 H   0  0  0  0  0  0
  -29.4197  -23.1501   20.9290 H   0  0  0  0  0  0
  -28.5379  -18.1551   19.3147 H   0  0  0  0  0  0
  -30.0925  -18.7660   19.0722 H   0  0  0  0  0  0
  -29.6466  -17.6036   21.8262 H   0  0  0  0  0  0
  -31.0840  -17.5702   20.8638 H   0  0  0  0  0  0
  -28.1677  -24.9201   21.6759 H   0  0  0  0  0  0
  -26.9309  -24.6881   20.5676 H   0  0  0  0  0  0
  -29.8403  -20.5279   20.6730 H   0  0  0  0  0  0
  -28.7611  -15.6721   20.6494 H   0  0  0  0  0  0
  1 25  1  0  0  0
  1 30  2  0  0  0
  1 83  1  0  0  0
  2  3  1  0  0  0
  2 25  1  0  0  0
  2 84  1  0  0  0
  2 85  1  0  0  0
  3  4  1  0  0  0
  3 86  1  0  0  0
  3 87  1  0  0  0
  4  5  1  0  0  0
  4 88  1  0  0  0
  4 89  1  0  0  0
  5  6  1  0  0  0
  5 26  1  0  0  0
  5 90  1  0  0  0
  6 25  1  0  0  0
  6 91  1  0  0  0
  6 92  1  0  0  0
  7  8  2  0  0  0
  7 26  1  0  0  0
  7 29  1  0  0  0
  8  9  1  0  0  0
  8 22  1  0  0  0
  9 10  1  0  0  0
  9 27  2  0  0  0
 10 11  2  0  0  0
 10 15  1  0  0  0
 11 12  1  0  0  0
 11 93  1  0  0  0
 12 13  2  0  0  0
 12 94  1  0  0  0
 13 14  1  0  0  0
 13 31  1  0  0  0
 14 15  2  0  0  0
 14 95  1  0  0  0
 15 96  1  0  0  0
 16 17  2  0  0  0
 16 21  1  0  0  0
 16 31  1  0  0  0
 17 18  1  0  0  0
 17 97  1  0  0  0
 18 19  2  0  0  0
 18 98  1  0  0  0
 19 20  1  0  0  0
 19 24  1  0  0  0
 20 21  2  0  0  0
 20 99  1  0  0  0
 21 23  1  0  0  0
 22 28  1  0  0  0
 22 32  2  0  0  0
 26 27  1  0  0  0
 28100  1  0  0  0
 28101  1  0  0  0
 29102  1  0  0  0
 29103  1  0  0  0
 33 34  1  0  0  0
 33 66  1  0  0  0
 33 70  2  0  0  0
 34 36  1  0  0  0
 34 59  1  0  0  0
 34104  1  0  0  0
 35 44  2  0  0  0
 35 45  1  0  0  0
 35 68  1  0  0  0
 36 56  1  0  0  0
 36105  1  0  0  0
 37 39  1  0  0  0
 37 47  1  0  0  0
 37 66  1  0  0  0
 37106  1  0  0  0
 38 43  2  0  0  0
 38 46  1  0  0  0
 38 47  1  0  0  0
 39 64  1  0  0  0
 39 67  2  0  0  0
 40 52  1  0  0  0
 40 53  2  0  0  0
 40 58  1  0  0  0
 41107  1  0  0  0
 41108  1  0  0  0
 41109  1  0  0  0
 41 48  1  0  0  0
 42 43  1  0  0  0
 42 66  1  0  0  0
 42110  1  0  0  0
 42111  1  0  0  0
 43 44  1  0  0  0
 44112  1  0  0  0
 45 46  2  0  0  0
 45113  1  0  0  0
 46114  1  0  0  0
 47115  1  0  0  0
 47116  1  0  0  0
 48 56  1  0  0  0
 48 65  1  0  0  0
 48117  1  0  0  0
 49 50  1  0  0  0
 49 53  1  0  0  0
 49 64  1  0  0  0
 49118  1  0  0  0
 50 51  1  0  0  0
 50119  1  0  0  0
 50120  1  0  0  0
 51 52  1  0  0  0
 51121  1  0  0  0
 51122  1  0  0  0
 52123  1  0  0  0
 52124  1  0  0  0
 53 54  1  0  0  0
 54 55  2  0  0  0
 54125  1  0  0  0
 55 57  1  0  0  0
 55126  1  0  0  0
 56 69  2  0  0  0
 57 58  2  0  0  0
 57127  1  0  0  0
 58128  1  0  0  0
 59 60  1  0  0  0
 59 61  1  0  0  0
 59 62  1  0  0  0
 60129  1  0  0  0
 60130  1  0  0  0
 60131  1  0  0  0
 61132  1  0  0  0
 61133  1  0  0  0
 61134  1  0  0  0
 62135  1  0  0  0
 62136  1  0  0  0
 62137  1  0  0  0
 63 65  1  0  0  0
 63138  1  0  0  0
 63139  1  0  0  0
 63140  1  0  0  0
 64141  1  0  0  0
 65142  1  0  0  0
 68 81  1  0  0  0
 71 72  2  0  0  0
 71 73  1  0  0  0
 71143  1  0  0  0
 72 74  1  0  0  0
 72144  1  0  0  0
 73 75  2  0  0  0
 73145  1  0  0  0
 74 76  2  0  0  0
 74 77  1  0  0  0
 75 76  1  0  0  0
 75 78  1  0  0  0
 76 82  1  0  0  0
 77146  1  0  0  0
 77147  1  0  0  0
 77148  1  0  0  0
 78 81  1  0  0  0
 78149  1  0  0  0
 78150  1  0  0  0
 79 80  1  0  0  0
 79 82  1  0  0  0
 79151  1  0  0  0
 79152  1  0  0  0
 80 83  1  0  0  0
 80153  1  0  0  0
 80154  1  0  0  0
 81155  1  0  0  0
 81156  1  0  0  0
 82157  1  0  0  0
 83158  1  0  0  0
M  ISO  4   1 100  68 101  81 101  83 100
M  END
> <chiral flag>
0

> <version>
0

> <s_m_source_file>
/data/baiqing/PycharmProjects/Reinvent-master-3.2/result/LINK_invent/BTK/process_docking_weight1_custom_sum_contain_oxygen_bond_distance_aromatic_linkinvent_7_9_3/rearranged_h_0132.sdf

> <i_m_source_file_index>
39

> <r_mmod_Potential_Energy-OPLS-2005>
240.302703857422

> <r_mmod_Stretch_Energy-OPLS-2005>
164.195068359375

> <r_mmod_Bend_Energy-OPLS-2005>
226.640106201172

> <r_mmod_Torsional_Energy-OPLS-2005>
265.334564208984

> <r_mmod_Improper_Torsional_Energy-OPLS-2005>
7.68132543563843

> <r_mmod_Van_der_Waal_Energy-OPLS-2005>
147.578262329102

> <r_mmod_Electrostatic_Energy-OPLS-2005>
-461.602752685547

> <r_mmod_Solvation_Energy-OPLS-2005>
-222.790557861328

> <b_mmod_Minimization_Converged-OPLS-2005>
0

> <r_mmod_RMS_Derivative-OPLS-2005>
3.58403539657593

$$$$
39
                    3D
 Structure written by MMmdl.
163172  0  0  1  0            999 V2000
  -30.5801  -14.8438   20.4449 C   0  0  0  0  0  0
  -30.4442  -12.5217   19.4770 C   0  0  0  0  0  0
  -29.5161  -12.5137   18.2407 C   0  0  0  0  0  0
  -28.0452  -12.3222   18.6589 C   0  0  0  0  0  0
  -27.6381  -13.2360   19.8438 C   0  0  2  0  0  0
  -28.6869  -13.2157   20.9771 C   0  0  0  0  0  0
  -25.2496  -13.8179   20.5713 C   0  0  0  0  0  0
  -24.1800  -13.0423   20.9236 C   0  0  0  0  0  0
  -24.6402  -11.6910   20.8752 C   0  0  0  0  0  0
  -23.9076  -10.4285   21.0403 C   0  0  0  0  0  0
  -24.3626   -9.4201   21.9177 C   0  0  0  0  0  0
  -23.6298   -8.2239   22.0749 C   0  0  0  0  0  0
  -22.4275   -8.0279   21.3545 C   0  0  0  0  0  0
  -21.9912   -9.0254   20.4644 C   0  0  0  0  0  0
  -22.7246  -10.2131   20.3052 C   0  0  0  0  0  0
  -21.6858   -6.0727   22.5270 C   0  0  0  0  0  0
  -21.4019   -6.5628   23.8205 C   0  0  0  0  0  0
  -21.3661   -5.6780   24.9163 C   0  0  0  0  0  0
  -21.6049   -4.3043   24.7214 C   0  0  0  0  0  0
  -21.8827   -3.8139   23.4332 C   0  0  0  0  0  0
  -21.9201   -4.6956   22.3391 C   0  0  0  0  0  0
  -22.7823  -13.5215   21.1887 C   0  0  0  0  0  0
  -22.1667   -4.2147   21.0964 F   0  0  0  0  0  0
  -21.5631   -3.4526   25.7726 F   0  0  0  0  0  0
  -29.9748  -13.5995   20.3834 N   0  0  0  0  0  0
  -26.2929  -12.9401   20.3267 N   0  0  0  0  0  0
  -25.9338  -11.6546   20.5747 N   0  0  0  0  0  0
  -22.0465  -12.8213   22.0434 N   0  0  0  0  0  0
  -25.4147  -15.1905   20.4124 N   0  0  0  0  0  0
  -31.7782  -14.9399   20.1690 O   0  0  0  0  0  0
  -21.6637   -6.8876   21.4239 O   0  0  0  0  0  0
  -22.3519  -14.5524   20.6728 O   0  0  0  0  0  0
  -24.6426  -31.8512   23.1972 C   0  0  0  0  0  0
  -25.9223  -32.4725   23.8327 C   0  0  1  0  0  0
  -27.2061  -27.1788   20.1232 C   0  0  0  0  0  0
  -25.5991  -33.8526   24.2249 N   0  0  0  0  0  0
  -23.4410  -30.4795   21.5435 C   0  0  2  0  0  0
  -24.8867  -28.9290   20.1091 C   0  0  0  0  0  0
  -22.7563  -29.4595   22.4881 C   0  0  0  0  0  0
  -18.0305  -28.1394   22.8475 C   0  0  0  0  0  0
  -24.1495  -36.7256   23.2632 C   0  0  0  0  0  0
  -25.9990  -30.7383   21.3918 C   0  0  0  0  0  0
  -26.0681  -29.3567   20.7279 C   0  0  0  0  0  0
  -27.2303  -28.4977   20.7251 C   0  0  0  0  0  0
  -25.9931  -26.8671   19.4547 C   0  0  0  0  0  0
  -24.8603  -27.6945   19.4590 C   0  0  0  0  0  0
  -23.6638  -29.8256   20.1579 C   0  0  0  0  0  0
  -25.4121  -36.3044   24.0323 C   0  0  1  0  0  0
  -20.5919  -28.3722   23.1238 C   0  0  2  0  0  0
  -20.6792  -26.9430   22.5395 C   0  0  0  0  0  0
  -19.5767  -26.6389   21.5203 C   0  0  0  0  0  0
  -18.1948  -26.7932   22.1620 C   0  0  0  0  0  0
  -19.1561  -28.8874   23.2849 C   0  0  0  0  0  0
  -18.9473  -30.1469   23.8876 C   0  0  0  0  0  0
  -17.6471  -30.6589   24.0558 C   0  0  0  0  0  0
  -25.9076  -34.9419   23.5085 C   0  0  0  0  0  0
  -16.5362  -29.9082   23.6332 C   0  0  0  0  0  0
  -16.7290  -28.6502   23.0348 C   0  0  0  0  0  0
  -26.4549  -31.6554   25.0731 C   0  0  0  0  0  0
  -25.3743  -31.3727   26.1431 C   0  0  0  0  0  0
  -27.0375  -30.2944   24.6272 C   0  0  0  0  0  0
  -27.6103  -32.4286   25.7507 C   0  0  0  0  0  0
  -27.5582  -37.1788   24.8463 C   0  0  0  0  0  0
  -21.4257  -29.3061   22.3624 N   0  0  0  0  0  0
  -26.4282  -37.3758   23.9419 N   0  0  0  0  0  0
  -24.7143  -31.0414   22.0990 N   0  0  0  0  0  0
  -23.4230  -28.8118   23.2995 O   0  0  0  0  0  0
  -28.2344  -26.1680   20.1954 O   0  0  0  0  0  0
  -26.5634  -34.8908   22.4647 O   0  0  0  0  0  0
  -23.5558  -32.1367   23.7225 O   0  0  0  0  0  0
  -27.7628  -22.2425   19.2610 C   0  0  0  0  0  0
  -29.8506  -21.2424   20.7488 C   0  0  0  0  0  0
  -28.0796  -20.8442   19.2269 C   0  0  0  0  0  0
  -29.1427  -20.2428   19.9805 C   0  0  0  0  0  0
  -29.5220  -22.6735   20.7785 C   0  0  0  0  0  0
  -28.4470  -23.2432   20.0088 C   0  0  0  0  0  0
  -27.2182  -19.9864   18.3141 C   0  0  0  0  0  0
  -27.9587  -18.7500   17.8084 C   0  0  0  0  0  0
  -29.5223  -18.6465   19.7397 C   0  0  1  0  0  0
  -30.3452  -23.5990   21.6534 C   0  0  0  0  0  0
  -29.6423  -17.8869   22.2465 C   0  0  0  0  0  0
  -27.7627  -24.7280   19.9469 C   0  0  0  0  0  0
  -30.0654  -17.5129   20.8169 C   0  0  1  0  0  0
  -29.7781  -15.9843   20.6148 N   0  0  0  0  0  0
  -28.4682  -17.9778   18.9512 N   0  3  0  0  0  0
  -31.4791  -12.6718   19.1647 H   0  0  0  0  0  0
  -30.4206  -11.5567   19.9855 H   0  0  0  0  0  0
  -29.8139  -11.7236   17.5502 H   0  0  0  0  0  0
  -29.6232  -13.4534   17.6968 H   0  0  0  0  0  0
  -27.9171  -11.2765   18.9406 H   0  0  0  0  0  0
  -27.3846  -12.4901   17.8076 H   0  0  0  0  0  0
  -27.6159  -14.2469   19.4378 H   0  0  0  0  0  0
  -28.7510  -12.2277   21.4357 H   0  0  0  0  0  0
  -28.4055  -13.9037   21.7762 H   0  0  0  0  0  0
  -25.2774   -9.5683   22.4748 H   0  0  0  0  0  0
  -24.0015   -7.4635   22.7467 H   0  0  0  0  0  0
  -21.0843   -8.8779   19.8951 H   0  0  0  0  0  0
  -22.3706  -10.9672   19.6161 H   0  0  0  0  0  0
  -21.2004   -7.6136   23.9707 H   0  0  0  0  0  0
  -21.1475   -6.0500   25.9068 H   0  0  0  0  0  0
  -22.0607   -2.7602   23.2823 H   0  0  0  0  0  0
  -22.4078  -11.9878   22.4833 H   0  0  0  0  0  0
  -21.1081  -13.1240   22.2633 H   0  0  0  0  0  0
  -24.6384  -15.8349   20.5221 H   0  0  0  0  0  0
  -26.2419  -15.6214   20.0315 H   0  0  0  0  0  0
  -26.7281  -32.5352   23.1049 H   0  0  0  0  0  0
  -25.0172  -33.9653   25.0421 H   0  0  0  0  0  0
  -22.7414  -31.3057   21.3993 H   0  0  0  0  0  0
  -23.3770  -35.9572   23.3260 H   0  0  0  0  0  0
  -24.3606  -36.8912   22.2056 H   0  0  0  0  0  0
  -23.7228  -37.6443   23.6666 H   0  0  0  0  0  0
  -26.1509  -31.4982   20.6236 H   0  0  0  0  0  0
  -26.8721  -30.7845   22.0308 H   0  0  0  0  0  0
  -28.1252  -28.8195   21.2385 H   0  0  0  0  0  0
  -25.8419  -25.9424   18.9234 H   0  0  0  0  0  0
  -23.9608  -27.3654   18.9571 H   0  0  0  0  0  0
  -23.8004  -30.6070   19.4096 H   0  0  0  0  0  0
  -22.7779  -29.2708   19.8435 H   0  0  0  0  0  0
  -25.1296  -36.1877   25.0812 H   0  0  0  0  0  0
  -21.0010  -28.3301   24.1361 H   0  0  0  0  0  0
  -20.5687  -26.2336   23.3611 H   0  0  0  0  0  0
  -21.6659  -26.7442   22.1195 H   0  0  0  0  0  0
  -19.6934  -25.6295   21.1248 H   0  0  0  0  0  0
  -19.6702  -27.3183   20.6718 H   0  0  0  0  0  0
  -17.4218  -26.6665   21.4021 H   0  0  0  0  0  0
  -18.0359  -26.0078   22.9024 H   0  0  0  0  0  0
  -19.7947  -30.7284   24.2241 H   0  0  0  0  0  0
  -17.5024  -31.6266   24.5164 H   0  0  0  0  0  0
  -15.5360  -30.2972   23.7667 H   0  0  0  0  0  0
  -15.8691  -28.0814   22.7070 H   0  0  0  0  0  0
  -24.5971  -30.7005   25.7776 H   0  0  0  0  0  0
  -24.8865  -32.2887   26.4765 H   0  0  0  0  0  0
  -25.8055  -30.8995   27.0259 H   0  0  0  0  0  0
  -26.2963  -29.6697   24.1268 H   0  0  0  0  0  0
  -27.3977  -29.7214   25.4828 H   0  0  0  0  0  0
  -27.8889  -30.4168   23.9572 H   0  0  0  0  0  0
  -27.2729  -33.3619   26.2024 H   0  0  0  0  0  0
  -28.3942  -32.6785   25.0342 H   0  0  0  0  0  0
  -28.0720  -31.8430   26.5468 H   0  0  0  0  0  0
  -28.2567  -38.0119   24.7539 H   0  0  0  0  0  0
  -28.1106  -36.2647   24.6224 H   0  0  0  0  0  0
  -27.2312  -37.1368   25.8870 H   0  0  0  0  0  0
  -20.9468  -29.8797   21.6823 H   0  0  0  0  0  0
  -26.0148  -38.2823   24.1437 H   0  0  0  0  0  0
  -26.9155  -22.5677   18.6720 H   0  0  0  0  0  0
  -30.6971  -20.9059   21.3323 H   0  0  0  0  0  0
  -26.8838  -20.5723   17.4570 H   0  0  0  0  0  0
  -26.3173  -19.6956   18.8564 H   0  0  0  0  0  0
  -28.7815  -19.0325   17.1496 H   0  0  0  0  0  0
  -27.2817  -18.1295   17.2201 H   0  0  0  0  0  0
  -30.3500  -18.7315   19.0335 H   0  0  0  0  0  0
  -31.0463  -23.0456   22.2791 H   0  0  0  0  0  0
  -29.6988  -24.1831   22.3084 H   0  0  0  0  0  0
  -30.9179  -24.2919   21.0360 H   0  0  0  0  0  0
  -29.9836  -18.8865   22.5166 H   0  0  0  0  0  0
  -30.0664  -17.1960   22.9763 H   0  0  0  0  0  0
  -28.5579  -17.8652   22.3603 H   0  0  0  0  0  0
  -26.8436  -24.6012   20.5213 H   0  0  0  0  0  0
  -27.4879  -24.7505   18.8930 H   0  0  0  0  0  0
  -31.1524  -17.6076   20.8116 H   0  0  0  0  0  0
  -28.8227  -15.7220   20.8025 H   0  0  0  0  0  0
  -28.8491  -17.1101   18.6128 H   0  0  0  0  0  0
  -27.6978  -17.7749   19.5645 H   0  0  0  0  0  0
  1 25  1  0  0  0
  1 30  2  0  0  0
  1 84  1  0  0  0
  2  3  1  0  0  0
  2 25  1  0  0  0
  2 86  1  0  0  0
  2 87  1  0  0  0
  3  4  1  0  0  0
  3 88  1  0  0  0
  3 89  1  0  0  0
  4  5  1  0  0  0
  4 90  1  0  0  0
  4 91  1  0  0  0
  5  6  1  0  0  0
  5 26  1  0  0  0
  5 92  1  0  0  0
  6 25  1  0  0  0
  6 93  1  0  0  0
  6 94  1  0  0  0
  7  8  2  0  0  0
  7 26  1  0  0  0
  7 29  1  0  0  0
  8  9  1  0  0  0
  8 22  1  0  0  0
  9 10  1  0  0  0
  9 27  2  0  0  0
 10 11  2  0  0  0
 10 15  1  0  0  0
 11 12  1  0  0  0
 11 95  1  0  0  0
 12 13  2  0  0  0
 12 96  1  0  0  0
 13 14  1  0  0  0
 13 31  1  0  0  0
 14 15  2  0  0  0
 14 97  1  0  0  0
 15 98  1  0  0  0
 16 17  2  0  0  0
 16 21  1  0  0  0
 16 31  1  0  0  0
 17 18  1  0  0  0
 17 99  1  0  0  0
 18 19  2  0  0  0
 18100  1  0  0  0
 19 20  1  0  0  0
 19 24  1  0  0  0
 20 21  2  0  0  0
 20101  1  0  0  0
 21 23  1  0  0  0
 22 28  1  0  0  0
 22 32  2  0  0  0
 26 27  1  0  0  0
 28102  1  0  0  0
 28103  1  0  0  0
 29104  1  0  0  0
 29105  1  0  0  0
 33 34  1  0  0  0
 33 66  1  0  0  0
 33 70  2  0  0  0
 34 36  1  0  0  0
 34 59  1  0  0  0
 34106  1  0  0  0
 35 44  2  0  0  0
 35 45  1  0  0  0
 35 68  1  0  0  0
 36 56  1  0  0  0
 36107  1  0  0  0
 37 39  1  0  0  0
 37 47  1  0  0  0
 37 66  1  0  0  0
 37108  1  0  0  0
 38 43  2  0  0  0
 38 46  1  0  0  0
 38 47  1  0  0  0
 39 64  1  0  0  0
 39 67  2  0  0  0
 40 52  1  0  0  0
 40 53  2  0  0  0
 40 58  1  0  0  0
 41109  1  0  0  0
 41110  1  0  0  0
 41111  1  0  0  0
 41 48  1  0  0  0
 42 43  1  0  0  0
 42 66  1  0  0  0
 42112  1  0  0  0
 42113  1  0  0  0
 43 44  1  0  0  0
 44114  1  0  0  0
 45 46  2  0  0  0
 45115  1  0  0  0
 46116  1  0  0  0
 47117  1  0  0  0
 47118  1  0  0  0
 48 56  1  0  0  0
 48 65  1  0  0  0
 48119  1  0  0  0
 49 50  1  0  0  0
 49 53  1  0  0  0
 49 64  1  0  0  0
 49120  1  0  0  0
 50 51  1  0  0  0
 50121  1  0  0  0
 50122  1  0  0  0
 51 52  1  0  0  0
 51123  1  0  0  0
 51124  1  0  0  0
 52125  1  0  0  0
 52126  1  0  0  0
 53 54  1  0  0  0
 54 55  2  0  0  0
 54127  1  0  0  0
 55 57  1  0  0  0
 55128  1  0  0  0
 56 69  2  0  0  0
 57 58  2  0  0  0
 57129  1  0  0  0
 58130  1  0  0  0
 59 60  1  0  0  0
 59 61  1  0  0  0
 59 62  1  0  0  0
 60131  1  0  0  0
 60132  1  0  0  0
 60133  1  0  0  0
 61134  1  0  0  0
 61135  1  0  0  0
 61136  1  0  0  0
 62137  1  0  0  0
 62138  1  0  0  0
 62139  1  0  0  0
 63 65  1  0  0  0
 63140  1  0  0  0
 63141  1  0  0  0
 63142  1  0  0  0
 64143  1  0  0  0
 65144  1  0  0  0
 68 82  1  0  0  0
 71 73  2  0  0  0
 71 76  1  0  0  0
 71145  1  0  0  0
 72 74  2  0  0  0
 72 75  1  0  0  0
 72146  1  0  0  0
 73 74  1  0  0  0
 73 77  1  0  0  0
 74 79  1  0  0  0
 75 76  2  0  0  0
 75 80  1  0  0  0
 76 82  1  0  0  0
 77 78  1  0  0  0
 77147  1  0  0  0
 77148  1  0  0  0
 78 85  1  0  0  0
 78149  1  0  0  0
 78150  1  0  0  0
 79 83  1  0  0  0
 79 85  1  0  0  0
 79151  1  0  0  0
 80152  1  0  0  0
 80153  1  0  0  0
 80154  1  0  0  0
 81155  1  0  0  0
 81156  1  0  0  0
 81157  1  0  0  0
 81 83  1  0  0  0
 82158  1  0  0  0
 82159  1  0  0  0
 83 84  1  0  0  0
 83160  1  0  0  0
 84161  1  0  0  0
 85162  1  0  0  0
 85163  1  0  0  0
M  CHG  1  85   1
M  ISO  4   1 100  68 101  82 101  84 100
M  END
> <chiral flag>
0

> <version>
0

> <s_m_source_file>
/data/baiqing/PycharmProjects/Reinvent-master-3.2/result/LINK_invent/BTK/process_docking_weight1_custom_sum_contain_oxygen_bond_distance_aromatic_linkinvent_7_9_3/rearranged_h_0132.sdf

> <i_m_source_file_index>
40

> <r_mmod_Potential_Energy-OPLS-2005>
239.990539550781

> <r_mmod_Stretch_Energy-OPLS-2005>
199.324768066406

> <r_mmod_Bend_Energy-OPLS-2005>
291.601226806641

> <r_mmod_Torsional_Energy-OPLS-2005>
263.764801025391

> <r_mmod_Improper_Torsional_Energy-OPLS-2005>
6.47762012481689

> <r_mmod_Van_der_Waal_Energy-OPLS-2005>
147.400726318359

> <r_mmod_Electrostatic_Energy-OPLS-2005>
-324.456115722656

> <r_mmod_Solvation_Energy-OPLS-2005>
-490.810394287109

> <b_mmod_Minimization_Converged-OPLS-2005>
0

> <r_mmod_RMS_Derivative-OPLS-2005>
1.17671012878418

$$$$
40
                    3D
 Structure written by MMmdl.
166175  0  0  1  0            999 V2000
  -30.7350  -14.3446   20.6610 C   0  0  0  0  0  0
  -30.4313  -12.2595   19.3937 C   0  0  0  0  0  0
  -29.4926  -12.5202   18.1989 C   0  0  0  0  0  0
  -28.0122  -12.3844   18.6094 C   0  0  0  0  0  0
  -27.6757  -13.1901   19.8900 C   0  0  2  0  0  0
  -28.7094  -12.8853   20.9983 C   0  0  0  0  0  0
  -25.2642  -13.8164   20.5627 C   0  0  0  0  0  0
  -24.1888  -13.0455   20.9220 C   0  0  0  0  0  0
  -24.6414  -11.6922   20.8764 C   0  0  0  0  0  0
  -23.9062  -10.4299   21.0423 C   0  0  0  0  0  0
  -24.3629   -9.4205   21.9181 C   0  0  0  0  0  0
  -23.6299   -8.2240   22.0747 C   0  0  0  0  0  0
  -22.4278   -8.0290   21.3548 C   0  0  0  0  0  0
  -21.9919   -9.0259   20.4649 C   0  0  0  0  0  0
  -22.7248  -10.2136   20.3060 C   0  0  0  0  0  0
  -21.6855   -6.0744   22.5284 C   0  0  0  0  0  0
  -21.4000   -6.5648   23.8216 C   0  0  0  0  0  0
  -21.3661   -5.6803   24.9178 C   0  0  0  0  0  0
  -21.6054   -4.3070   24.7232 C   0  0  0  0  0  0
  -21.8814   -3.8157   23.4356 C   0  0  0  0  0  0
  -21.9183   -4.6967   22.3408 C   0  0  0  0  0  0
  -22.7899  -13.5249   21.1832 C   0  0  0  0  0  0
  -22.1663   -4.2176   21.0980 F   0  0  0  0  0  0
  -21.5629   -3.4538   25.7730 F   0  0  0  0  0  0
  -30.0658  -13.1786   20.4788 N   0  0  0  0  0  0
  -26.3087  -12.9298   20.3415 N   0  0  0  0  0  0
  -25.9338  -11.6476   20.5789 N   0  0  0  0  0  0
  -22.0518  -12.8255   22.0409 N   0  0  0  0  0  0
  -25.4331  -15.1863   20.3916 N   0  0  0  0  0  0
  -31.7224  -14.6975   20.0077 O   0  0  0  0  0  0
  -21.6636   -6.8901   21.4258 O   0  0  0  0  0  0
  -22.3603  -14.5560   20.6689 O   0  0  0  0  0  0
  -24.6075  -31.8720   23.2185 C   0  0  0  0  0  0
  -25.8980  -32.4877   23.8431 C   0  0  1  0  0  0
  -27.2315  -27.4754   20.0877 C   0  0  0  0  0  0
  -25.5850  -33.8687   24.2374 N   0  0  0  0  0  0
  -23.3920  -30.4995   21.5587 C   0  0  2  0  0  0
  -24.8386  -28.9737   20.1160 C   0  0  0  0  0  0
  -22.7375  -29.4648   22.5019 C   0  0  0  0  0  0
  -18.0279  -28.1278   22.8536 C   0  0  0  0  0  0
  -24.1487  -36.7324   23.2644 C   0  0  0  0  0  0
  -25.9197  -30.8501   21.3669 C   0  0  0  0  0  0
  -25.9935  -29.4892   20.7136 C   0  0  0  0  0  0
  -27.1893  -28.7458   20.6980 C   0  0  0  0  0  0
  -26.0541  -26.9629   19.4884 C   0  0  0  0  0  0
  -24.8610  -27.7091   19.5016 C   0  0  0  0  0  0
  -23.6012  -29.8386   20.1696 C   0  0  0  0  0  0
  -25.4113  -36.3156   24.0366 C   0  0  1  0  0  0
  -20.5828  -28.3663   23.1349 C   0  0  2  0  0  0
  -20.6825  -26.9416   22.5385 C   0  0  0  0  0  0
  -19.5755  -26.6331   21.5240 C   0  0  0  0  0  0
  -18.1947  -26.7785   22.1710 C   0  0  0  0  0  0
  -19.1503  -28.8786   23.2949 C   0  0  0  0  0  0
  -18.9417  -30.1423   23.8925 C   0  0  0  0  0  0
  -17.6410  -30.6534   24.0530 C   0  0  0  0  0  0
  -25.9025  -34.9514   23.5175 C   0  0  0  0  0  0
  -16.5335  -29.9015   23.6287 C   0  0  0  0  0  0
  -16.7280  -28.6392   23.0366 C   0  0  0  0  0  0
  -26.4443  -31.6633   25.0729 C   0  0  0  0  0  0
  -25.3712  -31.3717   26.1470 C   0  0  0  0  0  0
  -27.0271  -30.3080   24.6083 C   0  0  0  0  0  0
  -27.6037  -32.4327   25.7476 C   0  0  0  0  0  0
  -27.5589  -37.1823   24.8469 C   0  0  0  0  0  0
  -21.4069  -29.3111   22.3846 N   0  0  0  0  0  0
  -26.4299  -37.3830   23.9420 N   0  0  0  0  0  0
  -24.6582  -31.0854   22.1074 N   0  0  0  0  0  0
  -23.4176  -28.8088   23.2968 O   0  0  0  0  0  0
  -28.4362  -26.8055   20.1116 O   0  0  0  0  0  0
  -26.5552  -34.8940   22.4715 O   0  0  0  0  0  0
  -23.5273  -32.1461   23.7570 O   0  0  0  0  0  0
  -26.7093  -23.5213   22.3175 C   0  0  0  0  0  0
  -27.3818  -22.0009   20.5340 C   0  0  0  0  0  0
  -27.2887  -24.5982   21.6184 C   0  0  0  0  0  0
  -27.9539  -23.0765   19.8382 C   0  0  0  0  0  0
  -26.7319  -22.2210   21.7658 C   0  0  0  0  0  0
  -27.9046  -24.3828   20.3625 C   0  0  0  0  0  0
  -25.2021  -20.1680   21.5926 C   0  0  0  0  0  0
  -25.7674  -18.7416   21.6341 C   0  0  0  0  0  0
  -27.1220  -20.1461   23.1615 C   0  0  0  0  0  0
  -26.0791  -21.0579   22.4976 C   0  0  1  0  0  0
  -27.0061  -18.7399   22.5484 C   0  0  2  0  0  0
  -28.5364  -25.5029   19.5498 C   0  0  0  0  0  0
  -29.9660  -16.5636   21.3675 C   0  0  0  0  0  0
  -28.6917  -16.9680   22.1288 C   0  0  0  0  0  0
  -30.1789  -15.1371   21.5726 N   0  0  0  0  0  0
  -28.2400  -18.3416   21.8265 N   0  3  0  0  0  0
  -31.4719  -12.3810   19.0872 H   0  0  0  0  0  0
  -30.3457  -11.2271   19.7356 H   0  0  0  0  0  0
  -29.7189  -11.8335   17.3816 H   0  0  0  0  0  0
  -29.6737  -13.5244   17.8123 H   0  0  0  0  0  0
  -27.8070  -11.3272   18.7755 H   0  0  0  0  0  0
  -27.3665  -12.6981   17.7873 H   0  0  0  0  0  0
  -27.7519  -14.2480   19.6398 H   0  0  0  0  0  0
  -28.6621  -11.8340   21.2849 H   0  0  0  0  0  0
  -28.4498  -13.4224   21.9105 H   0  0  0  0  0  0
  -25.2785   -9.5666   22.4753 H   0  0  0  0  0  0
  -24.0007   -7.4638   22.7461 H   0  0  0  0  0  0
  -21.0860   -8.8801   19.8959 H   0  0  0  0  0  0
  -22.3736  -10.9682   19.6171 H   0  0  0  0  0  0
  -21.1992   -7.6156   23.9739 H   0  0  0  0  0  0
  -21.1488   -6.0519   25.9089 H   0  0  0  0  0  0
  -22.0589   -2.7623   23.2835 H   0  0  0  0  0  0
  -22.4091  -11.9917   22.4828 H   0  0  0  0  0  0
  -21.1125  -13.1280   22.2560 H   0  0  0  0  0  0
  -24.6144  -15.7839   20.3742 H   0  0  0  0  0  0
  -26.2058  -15.5642   19.8603 H   0  0  0  0  0  0
  -26.7041  -32.5637   23.1181 H   0  0  0  0  0  0
  -25.0069  -33.9870   25.0573 H   0  0  0  0  0  0
  -22.6728  -31.3128   21.4258 H   0  0  0  0  0  0
  -23.3760  -35.9636   23.3331 H   0  0  0  0  0  0
  -24.3595  -36.8896   22.2043 H   0  0  0  0  0  0
  -23.7195  -37.6536   23.6630 H   0  0  0  0  0  0
  -26.0245  -31.6170   20.5972 H   0  0  0  0  0  0
  -26.8106  -30.9062   21.9842 H   0  0  0  0  0  0
  -28.0829  -29.1389   21.1628 H   0  0  0  0  0  0
  -26.0327  -25.9913   19.0176 H   0  0  0  0  0  0
  -23.9721  -27.3089   19.0303 H   0  0  0  0  0  0
  -23.7016  -30.6169   19.4128 H   0  0  0  0  0  0
  -22.7288  -29.2526   19.8812 H   0  0  0  0  0  0
  -25.1278  -36.2048   25.0861 H   0  0  0  0  0  0
  -20.9895  -28.3204   24.1483 H   0  0  0  0  0  0
  -20.5803  -26.2263   23.3568 H   0  0  0  0  0  0
  -21.6645  -26.7479   22.1100 H   0  0  0  0  0  0
  -19.6996  -25.6283   21.1217 H   0  0  0  0  0  0
  -19.6613  -27.3110   20.6781 H   0  0  0  0  0  0
  -17.4125  -26.6416   21.4213 H   0  0  0  0  0  0
  -18.0445  -25.9963   22.9141 H   0  0  0  0  0  0
  -19.7877  -30.7261   24.2268 H   0  0  0  0  0  0
  -17.4955  -31.6244   24.5111 H   0  0  0  0  0  0
  -15.5316  -30.2893   23.7501 H   0  0  0  0  0  0
  -15.8725  -28.0653   22.7102 H   0  0  0  0  0  0
  -24.5895  -30.7060   25.7787 H   0  0  0  0  0  0
  -24.8894  -32.2874   26.4918 H   0  0  0  0  0  0
  -25.8064  -30.8875   27.0217 H   0  0  0  0  0  0
  -26.2814  -29.6826   24.1150 H   0  0  0  0  0  0
  -27.4063  -29.7333   25.4541 H   0  0  0  0  0  0
  -27.8649  -30.4412   23.9225 H   0  0  0  0  0  0
  -27.2689  -33.3613   26.2104 H   0  0  0  0  0  0
  -28.3823  -32.6889   25.0283 H   0  0  0  0  0  0
  -28.0726  -31.8405   26.5340 H   0  0  0  0  0  0
  -28.2622  -38.0104   24.7525 H   0  0  0  0  0  0
  -28.1059  -36.2637   24.6294 H   0  0  0  0  0  0
  -27.2308  -37.1483   25.8869 H   0  0  0  0  0  0
  -20.9158  -29.9101   21.7349 H   0  0  0  0  0  0
  -26.0202  -38.2925   24.1398 H   0  0  0  0  0  0
  -26.2362  -23.7030   23.2709 H   0  0  0  0  0  0
  -27.4281  -21.0091   20.1057 H   0  0  0  0  0  0
  -27.2482  -25.5918   22.0457 H   0  0  0  0  0  0
  -28.4241  -22.9032   18.8811 H   0  0  0  0  0  0
  -24.1749  -20.1533   21.9627 H   0  0  0  0  0  0
  -25.1372  -20.5471   20.5707 H   0  0  0  0  0  0
  -26.0000  -18.3811   20.6292 H   0  0  0  0  0  0
  -25.0182  -18.0562   22.0371 H   0  0  0  0  0  0
  -26.9133  -20.0957   24.2316 H   0  0  0  0  0  0
  -28.1328  -20.5482   23.0869 H   0  0  0  0  0  0
  -25.4402  -21.4804   23.2756 H   0  0  0  0  0  0
  -26.8305  -18.0264   23.3586 H   0  0  0  0  0  0
  -28.1411  -25.4902   18.5326 H   0  0  0  0  0  0
  -29.6022  -25.2814   19.4684 H   0  0  0  0  0  0
  -29.8344  -16.7679   20.3024 H   0  0  0  0  0  0
  -30.8391  -17.1291   21.6953 H   0  0  0  0  0  0
  -27.8775  -16.2773   21.8935 H   0  0  0  0  0  0
  -28.8839  -16.8887   23.2003 H   0  0  0  0  0  0
  -29.5157  -14.6707   22.1735 H   0  0  0  0  0  0
  -28.0742  -18.4156   20.8354 H   0  0  0  0  0  0
  -28.9838  -18.9824   22.0578 H   0  0  0  0  0  0
  1 25  1  0  0  0
  1 30  2  0  0  0
  1 85  1  0  0  0
  2  3  1  0  0  0
  2 25  1  0  0  0
  2 87  1  0  0  0
  2 88  1  0  0  0
  3  4  1  0  0  0
  3 89  1  0  0  0
  3 90  1  0  0  0
  4  5  1  0  0  0
  4 91  1  0  0  0
  4 92  1  0  0  0
  5  6  1  0  0  0
  5 26  1  0  0  0
  5 93  1  0  0  0
  6 25  1  0  0  0
  6 94  1  0  0  0
  6 95  1  0  0  0
  7  8  2  0  0  0
  7 26  1  0  0  0
  7 29  1  0  0  0
  8  9  1  0  0  0
  8 22  1  0  0  0
  9 10  1  0  0  0
  9 27  2  0  0  0
 10 11  2  0  0  0
 10 15  1  0  0  0
 11 12  1  0  0  0
 11 96  1  0  0  0
 12 13  2  0  0  0
 12 97  1  0  0  0
 13 14  1  0  0  0
 13 31  1  0  0  0
 14 15  2  0  0  0
 14 98  1  0  0  0
 15 99  1  0  0  0
 16 17  2  0  0  0
 16 21  1  0  0  0
 16 31  1  0  0  0
 17 18  1  0  0  0
 17100  1  0  0  0
 18 19  2  0  0  0
 18101  1  0  0  0
 19 20  1  0  0  0
 19 24  1  0  0  0
 20 21  2  0  0  0
 20102  1  0  0  0
 21 23  1  0  0  0
 22 28  1  0  0  0
 22 32  2  0  0  0
 26 27  1  0  0  0
 28103  1  0  0  0
 28104  1  0  0  0
 29105  1  0  0  0
 29106  1  0  0  0
 33 34  1  0  0  0
 33 66  1  0  0  0
 33 70  2  0  0  0
 34 36  1  0  0  0
 34 59  1  0  0  0
 34107  1  0  0  0
 35 44  2  0  0  0
 35 45  1  0  0  0
 35 68  1  0  0  0
 36 56  1  0  0  0
 36108  1  0  0  0
 37 39  1  0  0  0
 37 47  1  0  0  0
 37 66  1  0  0  0
 37109  1  0  0  0
 38 43  2  0  0  0
 38 46  1  0  0  0
 38 47  1  0  0  0
 39 64  1  0  0  0
 39 67  2  0  0  0
 40 52  1  0  0  0
 40 53  2  0  0  0
 40 58  1  0  0  0
 41110  1  0  0  0
 41111  1  0  0  0
 41112  1  0  0  0
 41 48  1  0  0  0
 42 43  1  0  0  0
 42 66  1  0  0  0
 42113  1  0  0  0
 42114  1  0  0  0
 43 44  1  0  0  0
 44115  1  0  0  0
 45 46  2  0  0  0
 45116  1  0  0  0
 46117  1  0  0  0
 47118  1  0  0  0
 47119  1  0  0  0
 48 56  1  0  0  0
 48 65  1  0  0  0
 48120  1  0  0  0
 49 50  1  0  0  0
 49 53  1  0  0  0
 49 64  1  0  0  0
 49121  1  0  0  0
 50 51  1  0  0  0
 50122  1  0  0  0
 50123  1  0  0  0
 51 52  1  0  0  0
 51124  1  0  0  0
 51125  1  0  0  0
 52126  1  0  0  0
 52127  1  0  0  0
 53 54  1  0  0  0
 54 55  2  0  0  0
 54128  1  0  0  0
 55 57  1  0  0  0
 55129  1  0  0  0
 56 69  2  0  0  0
 57 58  2  0  0  0
 57130  1  0  0  0
 58131  1  0  0  0
 59 60  1  0  0  0
 59 61  1  0  0  0
 59 62  1  0  0  0
 60132  1  0  0  0
 60133  1  0  0  0
 60134  1  0  0  0
 61135  1  0  0  0
 61136  1  0  0  0
 61137  1  0  0  0
 62138  1  0  0  0
 62139  1  0  0  0
 62140  1  0  0  0
 63 65  1  0  0  0
 63141  1  0  0  0
 63142  1  0  0  0
 63143  1  0  0  0
 64144  1  0  0  0
 65145  1  0  0  0
 68 82  1  0  0  0
 71 73  2  0  0  0
 71 75  1  0  0  0
 71146  1  0  0  0
 72 74  1  0  0  0
 72 75  2  0  0  0
 72147  1  0  0  0
 73 76  1  0  0  0
 73148  1  0  0  0
 74 76  2  0  0  0
 74149  1  0  0  0
 75 80  1  0  0  0
 76 82  1  0  0  0
 77 78  1  0  0  0
 77 80  1  0  0  0
 77150  1  0  0  0
 77151  1  0  0  0
 78 81  1  0  0  0
 78152  1  0  0  0
 78153  1  0  0  0
 79 80  1  0  0  0
 79 81  1  0  0  0
 79154  1  0  0  0
 79155  1  0  0  0
 80156  1  0  0  0
 81 86  1  0  0  0
 81157  1  0  0  0
 82158  1  0  0  0
 82159  1  0  0  0
 83 84  1  0  0  0
 83 85  1  0  0  0
 83160  1  0  0  0
 83161  1  0  0  0
 84 86  1  0  0  0
 84162  1  0  0  0
 84163  1  0  0  0
 85164  1  0  0  0
 86165  1  0  0  0
 86166  1  0  0  0
M  CHG  1  86   1
M  ISO  4   1 100  68 101  82 101  85 100
M  END
> <chiral flag>
0

> <version>
0

> <s_m_source_file>
/data/baiqing/PycharmProjects/Reinvent-master-3.2/result/LINK_invent/BTK/process_docking_weight1_custom_sum_contain_oxygen_bond_distance_aromatic_linkinvent_7_9_3/rearranged_h_0132.sdf

> <i_m_source_file_index>
41

> <r_mmod_Potential_Energy-OPLS-2005>
-155.996566772461

> <r_mmod_Stretch_Energy-OPLS-2005>
32.1372604370117

> <r_mmod_Bend_Energy-OPLS-2005>
101.512969970703

> <r_mmod_Torsional_Energy-OPLS-2005>
314.567840576172

> <r_mmod_Improper_Torsional_Energy-OPLS-2005>
6.80435609817505

> <r_mmod_Van_der_Waal_Energy-OPLS-2005>
151.443420410156

> <r_mmod_Electrostatic_Energy-OPLS-2005>
-294.5283203125

> <r_mmod_Solvation_Energy-OPLS-2005>
-477.255920410156

> <b_mmod_Minimization_Converged-OPLS-2005>
0

> <r_mmod_RMS_Derivative-OPLS-2005>
5.92470788955688

$$$$
41
                    3D
 Structure written by MMmdl.
159167  0  0  1  0            999 V2000
  -30.6253  -14.6224   20.5059 C   0  0  0  0  0  0
  -30.4388  -12.3824   19.4497 C   0  0  0  0  0  0
  -29.5076  -12.5099   18.2232 C   0  0  0  0  0  0
  -28.0299  -12.3501   18.6344 C   0  0  0  0  0  0
  -27.6561  -13.2150   19.8675 C   0  0  2  0  0  0
  -28.7004  -13.0553   20.9958 C   0  0  0  0  0  0
  -25.2573  -13.8169   20.5688 C   0  0  0  0  0  0
  -24.1833  -13.0437   20.9182 C   0  0  0  0  0  0
  -24.6396  -11.6907   20.8733 C   0  0  0  0  0  0
  -23.9061  -10.4292   21.0402 C   0  0  0  0  0  0
  -24.3613   -9.4209   21.9181 C   0  0  0  0  0  0
  -23.6290   -8.2243   22.0753 C   0  0  0  0  0  0
  -22.4273   -8.0280   21.3543 C   0  0  0  0  0  0
  -21.9906   -9.0252   20.4645 C   0  0  0  0  0  0
  -22.7232  -10.2132   20.3053 C   0  0  0  0  0  0
  -21.6852   -6.0733   22.5277 C   0  0  0  0  0  0
  -21.4013   -6.5638   23.8211 C   0  0  0  0  0  0
  -21.3660   -5.6792   24.9173 C   0  0  0  0  0  0
  -21.6044   -4.3054   24.7224 C   0  0  0  0  0  0
  -21.8820   -3.8145   23.4346 C   0  0  0  0  0  0
  -21.9193   -4.6962   22.3402 C   0  0  0  0  0  0
  -22.7855  -13.5232   21.1849 C   0  0  0  0  0  0
  -22.1662   -4.2148   21.0979 F   0  0  0  0  0  0
  -21.5631   -3.4538   25.7737 F   0  0  0  0  0  0
  -30.0187  -13.3961   20.4364 N   0  0  0  0  0  0
  -26.3004  -12.9347   20.3338 N   0  0  0  0  0  0
  -25.9327  -11.6502   20.5761 N   0  0  0  0  0  0
  -22.0496  -12.8225   22.0404 N   0  0  0  0  0  0
  -25.4295  -15.1889   20.4112 N   0  0  0  0  0  0
  -31.7818  -14.7923   20.1086 O   0  0  0  0  0  0
  -21.6639   -6.8876   21.4239 O   0  0  0  0  0  0
  -22.3542  -14.5541   20.6701 O   0  0  0  0  0  0
  -24.6255  -31.8608   23.2038 C   0  0  0  0  0  0
  -25.9107  -32.4785   23.8363 C   0  0  1  0  0  0
  -27.2247  -27.3288   20.1118 C   0  0  0  0  0  0
  -25.5928  -33.8585   24.2291 N   0  0  0  0  0  0
  -23.4184  -30.4858   21.5464 C   0  0  2  0  0  0
  -24.8642  -28.9442   20.1111 C   0  0  0  0  0  0
  -22.7472  -29.4631   22.4938 C   0  0  0  0  0  0
  -18.0287  -28.1385   22.8490 C   0  0  0  0  0  0
  -24.1488  -36.7290   23.2638 C   0  0  0  0  0  0
  -25.9594  -30.7949   21.3738 C   0  0  0  0  0  0
  -26.0334  -29.4237   20.7148 C   0  0  0  0  0  0
  -27.2162  -28.6279   20.7058 C   0  0  0  0  0  0
  -26.0297  -26.9019   19.4841 C   0  0  0  0  0  0
  -24.8638  -27.6883   19.4882 C   0  0  0  0  0  0
  -23.6322  -29.8234   20.1607 C   0  0  0  0  0  0
  -25.4113  -36.3087   24.0333 C   0  0  1  0  0  0
  -20.5888  -28.3688   23.1287 C   0  0  2  0  0  0
  -20.6781  -26.9413   22.5411 C   0  0  0  0  0  0
  -19.5755  -26.6388   21.5214 C   0  0  0  0  0  0
  -18.1932  -26.7931   22.1624 C   0  0  0  0  0  0
  -19.1540  -28.8853   23.2885 C   0  0  0  0  0  0
  -18.9463  -30.1457   23.8899 C   0  0  0  0  0  0
  -17.6463  -30.6589   24.0567 C   0  0  0  0  0  0
  -25.9050  -34.9456   23.5111 C   0  0  0  0  0  0
  -16.5353  -29.9089   23.6333 C   0  0  0  0  0  0
  -16.7275  -28.6506   23.0353 C   0  0  0  0  0  0
  -26.4497  -31.6587   25.0724 C   0  0  0  0  0  0
  -25.3736  -31.3719   26.1452 C   0  0  0  0  0  0
  -27.0339  -30.3017   24.6162 C   0  0  0  0  0  0
  -27.6060  -32.4316   25.7494 C   0  0  0  0  0  0
  -27.5579  -37.1801   24.8468 C   0  0  0  0  0  0
  -21.4187  -29.3043   22.3681 N   0  0  0  0  0  0
  -26.4292  -37.3780   23.9411 N   0  0  0  0  0  0
  -24.6865  -31.0633   22.0984 N   0  0  0  0  0  0
  -23.4202  -28.8165   23.3008 O   0  0  0  0  0  0
  -28.3480  -26.4879   20.1620 O   0  0  0  0  0  0
  -26.5613  -34.8922   22.4674 O   0  0  0  0  0  0
  -23.5421  -32.1401   23.7375 O   0  0  0  0  0  0
  -30.1467  -19.2230   19.4717 C   0  0  0  0  0  0
  -29.6858  -19.3549   21.8255 C   0  0  0  0  0  0
  -29.9327  -20.0422   20.6114 C   0  0  0  0  0  0
  -30.1374  -17.7937   19.5360 C   0  0  0  0  0  0
  -29.6800  -17.9306   21.9094 C   0  0  0  0  0  0
  -29.9362  -17.1092   20.7736 C   0  0  0  0  0  0
  -30.3171  -17.0201   18.2403 C   0  0  0  0  0  0
  -29.4065  -17.2862   23.2582 C   0  0  0  0  0  0
  -30.1468  -21.6016   20.5806 C   0  0  0  0  0  0
  -29.3020  -24.0311   20.3991 C   0  0  0  0  0  0
  -28.1295  -25.0300   20.0191 C   0  0  0  0  0  0
  -29.8232  -15.6564   20.9039 N   0  0  0  0  0  0
  -28.9946  -22.5383   20.3043 N   0  3  0  0  0  0
  -31.4803  -12.5067   19.1480 H   0  0  0  0  0  0
  -30.3709  -11.3836   19.8834 H   0  0  0  0  0  0
  -29.7688  -11.7628   17.4725 H   0  0  0  0  0  0
  -29.6528  -13.4823   17.7497 H   0  0  0  0  0  0
  -27.8631  -11.2961   18.8598 H   0  0  0  0  0  0
  -27.3758  -12.5873   17.7945 H   0  0  0  0  0  0
  -27.6793  -14.2529   19.5350 H   0  0  0  0  0  0
  -28.7074  -12.0298   21.3682 H   0  0  0  0  0  0
  -28.4470  -13.6784   21.8547 H   0  0  0  0  0  0
  -25.2759   -9.5687   22.4754 H   0  0  0  0  0  0
  -24.0000   -7.4636   22.7473 H   0  0  0  0  0  0
  -21.0838   -8.8767   19.8952 H   0  0  0  0  0  0
  -22.3688  -10.9669   19.6161 H   0  0  0  0  0  0
  -21.2002   -7.6146   23.9713 H   0  0  0  0  0  0
  -21.1483   -6.0523   25.9077 H   0  0  0  0  0  0
  -22.0598   -2.7608   23.2845 H   0  0  0  0  0  0
  -22.4109  -11.9881   22.4786 H   0  0  0  0  0  0
  -21.1115  -13.1252   22.2614 H   0  0  0  0  0  0
  -24.6629  -15.8441   20.5193 H   0  0  0  0  0  0
  -26.2825  -15.6289   20.0897 H   0  0  0  0  0  0
  -26.7173  -32.5457   23.1111 H   0  0  0  0  0  0
  -25.0091  -33.9732   25.0447 H   0  0  0  0  0  0
  -22.7118  -31.3063   21.4055 H   0  0  0  0  0  0
  -23.3753  -35.9617   23.3304 H   0  0  0  0  0  0
  -24.3580  -36.8904   22.2052 H   0  0  0  0  0  0
  -23.7238  -37.6494   23.6654 H   0  0  0  0  0  0
  -26.0908  -31.5597   20.6072 H   0  0  0  0  0  0
  -26.8402  -30.8419   22.0023 H   0  0  0  0  0  0
  -28.1129  -28.9919   21.1880 H   0  0  0  0  0  0
  -25.9605  -25.9465   18.9868 H   0  0  0  0  0  0
  -23.9678  -27.3162   19.0102 H   0  0  0  0  0  0
  -23.7511  -30.6015   19.4055 H   0  0  0  0  0  0
  -22.7522  -29.2530   19.8578 H   0  0  0  0  0  0
  -25.1294  -36.1939   25.0826 H   0  0  0  0  0  0
  -20.9983  -28.3259   24.1406 H   0  0  0  0  0  0
  -20.5690  -26.2294   23.3608 H   0  0  0  0  0  0
  -21.6648  -26.7450   22.1195 H   0  0  0  0  0  0
  -19.6917  -25.6300   21.1239 H   0  0  0  0  0  0
  -19.6693  -27.3205   20.6748 H   0  0  0  0  0  0
  -17.4206  -26.6682   21.4023 H   0  0  0  0  0  0
  -18.0331  -26.0074   22.9022 H   0  0  0  0  0  0
  -19.7939  -30.7277   24.2264 H   0  0  0  0  0  0
  -17.5017  -31.6269   24.5169 H   0  0  0  0  0  0
  -15.5354  -30.2991   23.7658 H   0  0  0  0  0  0
  -15.8674  -28.0829   22.7062 H   0  0  0  0  0  0
  -24.5918  -30.7058   25.7784 H   0  0  0  0  0  0
  -24.8917  -32.2882   26.4871 H   0  0  0  0  0  0
  -25.8067  -30.8906   27.0229 H   0  0  0  0  0  0
  -26.2908  -29.6765   24.1197 H   0  0  0  0  0  0
  -27.4067  -29.7269   25.4650 H   0  0  0  0  0  0
  -27.8765  -30.4317   23.9366 H   0  0  0  0  0  0
  -27.2679  -33.3623   26.2062 H   0  0  0  0  0  0
  -28.3876  -32.6861   25.0323 H   0  0  0  0  0  0
  -28.0718  -31.8442   26.5417 H   0  0  0  0  0  0
  -28.2599  -38.0096   24.7514 H   0  0  0  0  0  0
  -28.1074  -36.2629   24.6295 H   0  0  0  0  0  0
  -27.2296  -37.1450   25.8871 H   0  0  0  0  0  0
  -20.9358  -29.8766   21.6895 H   0  0  0  0  0  0
  -26.0174  -38.2855   24.1412 H   0  0  0  0  0  0
  -30.3475  -19.7022   18.5229 H   0  0  0  0  0  0
  -29.5323  -19.9344   22.7258 H   0  0  0  0  0  0
  -30.1542  -17.6565   17.3703 H   0  0  0  0  0  0
  -29.6069  -16.1955   18.1756 H   0  0  0  0  0  0
  -31.3268  -16.6157   18.1735 H   0  0  0  0  0  0
  -29.3262  -18.0294   24.0517 H   0  0  0  0  0  0
  -30.2122  -16.6019   23.5258 H   0  0  0  0  0  0
  -28.4726  -16.7246   23.2304 H   0  0  0  0  0  0
  -30.9284  -21.8111   19.8491 H   0  0  0  0  0  0
  -30.5762  -21.8847   21.5427 H   0  0  0  0  0  0
  -29.6226  -24.2473   21.4186 H   0  0  0  0  0  0
  -30.1579  -24.2486   19.7596 H   0  0  0  0  0  0
  -27.2643  -24.7569   20.6252 H   0  0  0  0  0  0
  -27.8600  -24.8314   18.9813 H   0  0  0  0  0  0
  -28.9709  -15.3428   21.3415 H   0  0  0  0  0  0
  -28.2572  -22.3122   20.9527 H   0  0  0  0  0  0
  -28.6533  -22.3263   19.3802 H   0  0  0  0  0  0
  1 25  1  0  0  0
  1 30  2  0  0  0
  1 82  1  0  0  0
  2  3  1  0  0  0
  2 25  1  0  0  0
  2 84  1  0  0  0
  2 85  1  0  0  0
  3  4  1  0  0  0
  3 86  1  0  0  0
  3 87  1  0  0  0
  4  5  1  0  0  0
  4 88  1  0  0  0
  4 89  1  0  0  0
  5  6  1  0  0  0
  5 26  1  0  0  0
  5 90  1  0  0  0
  6 25  1  0  0  0
  6 91  1  0  0  0
  6 92  1  0  0  0
  7  8  2  0  0  0
  7 26  1  0  0  0
  7 29  1  0  0  0
  8  9  1  0  0  0
  8 22  1  0  0  0
  9 10  1  0  0  0
  9 27  2  0  0  0
 10 11  2  0  0  0
 10 15  1  0  0  0
 11 12  1  0  0  0
 11 93  1  0  0  0
 12 13  2  0  0  0
 12 94  1  0  0  0
 13 14  1  0  0  0
 13 31  1  0  0  0
 14 15  2  0  0  0
 14 95  1  0  0  0
 15 96  1  0  0  0
 16 17  2  0  0  0
 16 21  1  0  0  0
 16 31  1  0  0  0
 17 18  1  0  0  0
 17 97  1  0  0  0
 18 19  2  0  0  0
 18 98  1  0  0  0
 19 20  1  0  0  0
 19 24  1  0  0  0
 20 21  2  0  0  0
 20 99  1  0  0  0
 21 23  1  0  0  0
 22 28  1  0  0  0
 22 32  2  0  0  0
 26 27  1  0  0  0
 28100  1  0  0  0
 28101  1  0  0  0
 29102  1  0  0  0
 29103  1  0  0  0
 33 34  1  0  0  0
 33 66  1  0  0  0
 33 70  2  0  0  0
 34 36  1  0  0  0
 34 59  1  0  0  0
 34104  1  0  0  0
 35 44  2  0  0  0
 35 45  1  0  0  0
 35 68  1  0  0  0
 36 56  1  0  0  0
 36105  1  0  0  0
 37 39  1  0  0  0
 37 47  1  0  0  0
 37 66  1  0  0  0
 37106  1  0  0  0
 38 43  2  0  0  0
 38 46  1  0  0  0
 38 47  1  0  0  0
 39 64  1  0  0  0
 39 67  2  0  0  0
 40 52  1  0  0  0
 40 53  2  0  0  0
 40 58  1  0  0  0
 41107  1  0  0  0
 41108  1  0  0  0
 41109  1  0  0  0
 41 48  1  0  0  0
 42 43  1  0  0  0
 42 66  1  0  0  0
 42110  1  0  0  0
 42111  1  0  0  0
 43 44  1  0  0  0
 44112  1  0  0  0
 45 46  2  0  0  0
 45113  1  0  0  0
 46114  1  0  0  0
 47115  1  0  0  0
 47116  1  0  0  0
 48 56  1  0  0  0
 48 65  1  0  0  0
 48117  1  0  0  0
 49 50  1  0  0  0
 49 53  1  0  0  0
 49 64  1  0  0  0
 49118  1  0  0  0
 50 51  1  0  0  0
 50119  1  0  0  0
 50120  1  0  0  0
 51 52  1  0  0  0
 51121  1  0  0  0
 51122  1  0  0  0
 52123  1  0  0  0
 52124  1  0  0  0
 53 54  1  0  0  0
 54 55  2  0  0  0
 54125  1  0  0  0
 55 57  1  0  0  0
 55126  1  0  0  0
 56 69  2  0  0  0
 57 58  2  0  0  0
 57127  1  0  0  0
 58128  1  0  0  0
 59 60  1  0  0  0
 59 61  1  0  0  0
 59 62  1  0  0  0
 60129  1  0  0  0
 60130  1  0  0  0
 60131  1  0  0  0
 61132  1  0  0  0
 61133  1  0  0  0
 61134  1  0  0  0
 62135  1  0  0  0
 62136  1  0  0  0
 62137  1  0  0  0
 63 65  1  0  0  0
 63138  1  0  0  0
 63139  1  0  0  0
 63140  1  0  0  0
 64141  1  0  0  0
 65142  1  0  0  0
 68 81  1  0  0  0
 71 73  2  0  0  0
 71 74  1  0  0  0
 71143  1  0  0  0
 72 73  1  0  0  0
 72 75  2  0  0  0
 72144  1  0  0  0
 73 79  1  0  0  0
 74 76  2  0  0  0
 74 77  1  0  0  0
 75 76  1  0  0  0
 75 78  1  0  0  0
 76 82  1  0  0  0
 77145  1  0  0  0
 77146  1  0  0  0
 77147  1  0  0  0
 78148  1  0  0  0
 78149  1  0  0  0
 78150  1  0  0  0
 79 83  1  0  0  0
 79151  1  0  0  0
 79152  1  0  0  0
 80 81  1  0  0  0
 80 83  1  0  0  0
 80153  1  0  0  0
 80154  1  0  0  0
 81155  1  0  0  0
 81156  1  0  0  0
 82157  1  0  0  0
 83158  1  0  0  0
 83159  1  0  0  0
M  CHG  1  83   1
M  ISO  4   1 100  68 101  81 101  82 100
M  END
> <chiral flag>
0

> <version>
0

> <s_m_source_file>
/data/baiqing/PycharmProjects/Reinvent-master-3.2/result/LINK_invent/BTK/process_docking_weight1_custom_sum_contain_oxygen_bond_distance_aromatic_linkinvent_7_9_3/rearranged_h_0132.sdf

> <i_m_source_file_index>
42

> <r_mmod_Potential_Energy-OPLS-2005>
-166.31999206543

> <r_mmod_Stretch_Energy-OPLS-2005>
75.2281188964844

> <r_mmod_Bend_Energy-OPLS-2005>
128.927856445312

> <r_mmod_Torsional_Energy-OPLS-2005>
220.764434814453

> <r_mmod_Improper_Torsional_Energy-OPLS-2005>
4.67000961303711

> <r_mmod_Van_der_Waal_Energy-OPLS-2005>
143.268188476562

> <r_mmod_Electrostatic_Energy-OPLS-2005>
-322.354858398438

> <r_mmod_Solvation_Energy-OPLS-2005>
-460.311798095703

> <b_mmod_Minimization_Converged-OPLS-2005>
0

> <r_mmod_RMS_Derivative-OPLS-2005>
0.393289923667908

$$$$
42
                    3D
 Structure written by MMmdl.
156164  0  0  1  0            999 V2000
  -30.6221  -14.7137   20.4906 C   0  0  0  0  0  0
  -30.4331  -12.4392   19.4756 C   0  0  0  0  0  0
  -29.5080  -12.5124   18.2412 C   0  0  0  0  0  0
  -28.0359  -12.3274   18.6558 C   0  0  0  0  0  0
  -27.6431  -13.2257   19.8583 C   0  0  2  0  0  0
  -28.6863  -13.1414   20.9939 C   0  0  0  0  0  0
  -25.2522  -13.8178   20.5710 C   0  0  0  0  0  0
  -24.1809  -13.0447   20.9226 C   0  0  0  0  0  0
  -24.6399  -11.6919   20.8772 C   0  0  0  0  0  0
  -23.9060  -10.4307   21.0416 C   0  0  0  0  0  0
  -24.3610   -9.4212   21.9198 C   0  0  0  0  0  0
  -23.6299   -8.2247   22.0756 C   0  0  0  0  0  0
  -22.4283   -8.0290   21.3538 C   0  0  0  0  0  0
  -21.9919   -9.0259   20.4643 C   0  0  0  0  0  0
  -22.7247  -10.2142   20.3063 C   0  0  0  0  0  0
  -21.6863   -6.0756   22.5291 C   0  0  0  0  0  0
  -21.4026   -6.5652   23.8221 C   0  0  0  0  0  0
  -21.3661   -5.6794   24.9183 C   0  0  0  0  0  0
  -21.6043   -4.3064   24.7229 C   0  0  0  0  0  0
  -21.8805   -3.8157   23.4343 C   0  0  0  0  0  0
  -21.9187   -4.6975   22.3406 C   0  0  0  0  0  0
  -22.7830  -13.5245   21.1877 C   0  0  0  0  0  0
  -22.1661   -4.2162   21.0980 F   0  0  0  0  0  0
  -21.5617   -3.4535   25.7733 F   0  0  0  0  0  0
  -29.9953  -13.4900   20.4226 N   0  0  0  0  0  0
  -26.2936  -12.9376   20.3318 N   0  0  0  0  0  0
  -25.9313  -11.6521   20.5759 N   0  0  0  0  0  0
  -22.0444  -12.8244   22.0405 N   0  0  0  0  0  0
  -25.4218  -15.1911   20.4127 N   0  0  0  0  0  0
  -31.8007  -14.8304   20.1461 O   0  0  0  0  0  0
  -21.6647   -6.8901   21.4251 O   0  0  0  0  0  0
  -22.3506  -14.5543   20.6703 O   0  0  0  0  0  0
  -24.6269  -31.8544   23.1971 C   0  0  0  0  0  0
  -25.9105  -32.4752   23.8321 C   0  0  1  0  0  0
  -27.2316  -27.2912   20.1378 C   0  0  0  0  0  0
  -25.5897  -33.8548   24.2249 N   0  0  0  0  0  0
  -23.4229  -30.4729   21.5403 C   0  0  2  0  0  0
  -24.8716  -28.9124   20.1187 C   0  0  0  0  0  0
  -22.7480  -29.4586   22.4954 C   0  0  0  0  0  0
  -18.0275  -28.1381   22.8500 C   0  0  0  0  0  0
  -24.1463  -36.7260   23.2653 C   0  0  0  0  0  0
  -25.9636  -30.7777   21.3686 C   0  0  0  0  0  0
  -26.0400  -29.3984   20.7196 C   0  0  0  0  0  0
  -27.2234  -28.6007   20.7124 C   0  0  0  0  0  0
  -26.0406  -26.8476   19.5267 C   0  0  0  0  0  0
  -24.8746  -27.6444   19.5090 C   0  0  0  0  0  0
  -23.6377  -29.7930   20.1606 C   0  0  0  0  0  0
  -25.4098  -36.3067   24.0338 C   0  0  1  0  0  0
  -20.5873  -28.3667   23.1287 C   0  0  2  0  0  0
  -20.6742  -26.9381   22.5420 C   0  0  0  0  0  0
  -19.5720  -26.6381   21.5206 C   0  0  0  0  0  0
  -18.1904  -26.7923   22.1629 C   0  0  0  0  0  0
  -19.1536  -28.8839   23.2883 C   0  0  0  0  0  0
  -18.9463  -30.1445   23.8894 C   0  0  0  0  0  0
  -17.6468  -30.6588   24.0551 C   0  0  0  0  0  0
  -25.9036  -34.9442   23.5109 C   0  0  0  0  0  0
  -16.5349  -29.9086   23.6344 C   0  0  0  0  0  0
  -16.7263  -28.6497   23.0375 C   0  0  0  0  0  0
  -26.4488  -31.6589   25.0714 C   0  0  0  0  0  0
  -25.3733  -31.3734   26.1455 C   0  0  0  0  0  0
  -27.0333  -30.3016   24.6178 C   0  0  0  0  0  0
  -27.6030  -32.4346   25.7490 C   0  0  0  0  0  0
  -27.5556  -37.1780   24.8481 C   0  0  0  0  0  0
  -21.4189  -29.3009   22.3677 N   0  0  0  0  0  0
  -26.4269  -37.3773   23.9431 N   0  0  0  0  0  0
  -24.6906  -31.0525   22.0924 N   0  0  0  0  0  0
  -23.4195  -28.8144   23.3058 O   0  0  0  0  0  0
  -28.3668  -26.4656   20.1150 O   0  0  0  0  0  0
  -26.5627  -34.8921   22.4688 O   0  0  0  0  0  0
  -23.5425  -32.1352   23.7290 O   0  0  0  0  0  0
  -29.6514  -23.2115   21.5895 C   0  0  0  0  0  0
  -29.6147  -24.7500   21.4042 C   0  0  0  0  0  0
  -28.1469  -23.7698   19.7822 C   0  0  0  0  0  0
  -29.1389  -22.6114   20.2690 C   0  0  2  0  0  0
  -28.3080  -25.0817   20.6656 C   0  0  2  0  0  0
  -28.6322  -21.0685   20.3140 C   0  0  0  0  0  0
  -30.2799  -17.3067   20.7245 C   0  0  0  0  0  0
  -29.1788  -18.4755   20.5093 C   0  0  0  0  0  0
  -29.8591  -15.8355   20.7587 N   0  0  0  0  0  0
  -29.6428  -19.9417   20.5699 N   0  3  0  0  0  0
  -31.4717  -12.5688   19.1692 H   0  0  0  0  0  0
  -30.3794  -11.4549   19.9457 H   0  0  0  0  0  0
  -29.7903  -11.7548   17.5092 H   0  0  0  0  0  0
  -29.6300  -13.4773   17.7472 H   0  0  0  0  0  0
  -27.9010  -11.2780   18.9218 H   0  0  0  0  0  0
  -27.3747  -12.5103   17.8073 H   0  0  0  0  0  0
  -27.6456  -14.2483   19.4828 H   0  0  0  0  0  0
  -28.7100  -12.1369   21.4213 H   0  0  0  0  0  0
  -28.4188  -13.8138   21.8094 H   0  0  0  0  0  0
  -25.2742   -9.5707   22.4788 H   0  0  0  0  0  0
  -24.0010   -7.4635   22.7470 H   0  0  0  0  0  0
  -21.0860   -8.8776   19.8939 H   0  0  0  0  0  0
  -22.3706  -10.9678   19.6175 H   0  0  0  0  0  0
  -21.2041   -7.6160   23.9741 H   0  0  0  0  0  0
  -21.1500   -6.0521   25.9083 H   0  0  0  0  0  0
  -22.0583   -2.7617   23.2833 H   0  0  0  0  0  0
  -22.4044  -11.9919   22.4822 H   0  0  0  0  0  0
  -21.1040  -13.1238   22.2567 H   0  0  0  0  0  0
  -24.6470  -15.8381   20.5172 H   0  0  0  0  0  0
  -26.2539  -15.6282   20.0372 H   0  0  0  0  0  0
  -26.7171  -32.5403   23.1060 H   0  0  0  0  0  0
  -25.0014  -33.9691   25.0374 H   0  0  0  0  0  0
  -22.7164  -31.2925   21.3895 H   0  0  0  0  0  0
  -23.3728  -35.9585   23.3332 H   0  0  0  0  0  0
  -24.3537  -36.8858   22.2061 H   0  0  0  0  0  0
  -23.7201  -37.6463   23.6655 H   0  0  0  0  0  0
  -26.0912  -31.5316   20.5917 H   0  0  0  0  0  0
  -26.8461  -30.8337   21.9936 H   0  0  0  0  0  0
  -28.1263  -28.9723   21.1757 H   0  0  0  0  0  0
  -26.0102  -25.8726   19.0596 H   0  0  0  0  0  0
  -23.9802  -27.2647   19.0313 H   0  0  0  0  0  0
  -23.7479  -30.5591   19.3920 H   0  0  0  0  0  0
  -22.7605  -29.2114   19.8699 H   0  0  0  0  0  0
  -25.1272  -36.1911   25.0824 H   0  0  0  0  0  0
  -20.9955  -28.3220   24.1409 H   0  0  0  0  0  0
  -20.5590  -26.2266   23.3618 H   0  0  0  0  0  0
  -21.6613  -26.7371   22.1226 H   0  0  0  0  0  0
  -19.6862  -25.6294   21.1216 H   0  0  0  0  0  0
  -19.6654  -27.3209   20.6748 H   0  0  0  0  0  0
  -17.4158  -26.6669   21.4041 H   0  0  0  0  0  0
  -18.0302  -26.0065   22.9027 H   0  0  0  0  0  0
  -19.7940  -30.7255   24.2254 H   0  0  0  0  0  0
  -17.5027  -31.6275   24.5147 H   0  0  0  0  0  0
  -15.5349  -30.2989   23.7685 H   0  0  0  0  0  0
  -15.8652  -28.0809   22.7123 H   0  0  0  0  0  0
  -24.5906  -30.7077   25.7802 H   0  0  0  0  0  0
  -24.8921  -32.2895   26.4885 H   0  0  0  0  0  0
  -25.8078  -30.8925   27.0226 H   0  0  0  0  0  0
  -26.2909  -29.6766   24.1199 H   0  0  0  0  0  0
  -27.4033  -29.7284   25.4684 H   0  0  0  0  0  0
  -27.8771  -30.4306   23.9401 H   0  0  0  0  0  0
  -27.2625  -33.3656   26.2039 H   0  0  0  0  0  0
  -28.3853  -32.6894   25.0331 H   0  0  0  0  0  0
  -28.0679  -31.8490   26.5427 H   0  0  0  0  0  0
  -28.2605  -38.0048   24.7497 H   0  0  0  0  0  0
  -28.1011  -36.2575   24.6330 H   0  0  0  0  0  0
  -27.2270  -37.1470   25.8886 H   0  0  0  0  0  0
  -20.9375  -29.8703   21.6851 H   0  0  0  0  0  0
  -26.0138  -38.2841   24.1444 H   0  0  0  0  0  0
  -28.9917  -22.9283   22.4108 H   0  0  0  0  0  0
  -30.6567  -22.8630   21.8367 H   0  0  0  0  0  0
  -30.4621  -25.0537   20.7875 H   0  0  0  0  0  0
  -29.6984  -25.2849   22.3532 H   0  0  0  0  0  0
  -28.3211  -23.9934   18.7291 H   0  0  0  0  0  0
  -27.1163  -23.4243   19.8498 H   0  0  0  0  0  0
  -29.9778  -22.6364   19.5730 H   0  0  0  0  0  0
  -27.5134  -25.0620   21.4136 H   0  0  0  0  0  0
  -28.1634  -20.8584   19.3521 H   0  0  0  0  0  0
  -27.8338  -20.9848   21.0534 H   0  0  0  0  0  0
  -30.8178  -17.5089   21.6524 H   0  0  0  0  0  0
  -31.0214  -17.4088   19.9314 H   0  0  0  0  0  0
  -28.3835  -18.3517   21.2455 H   0  0  0  0  0  0
  -28.7150  -18.3193   19.5332 H   0  0  0  0  0  0
  -28.9041  -15.6473   21.0253 H   0  0  0  0  0  0
  -30.3899  -20.0483   19.9044 H   0  0  0  0  0  0
  -30.0392  -20.0940   21.4841 H   0  0  0  0  0  0
  1 25  1  0  0  0
  1 30  2  0  0  0
  1 79  1  0  0  0
  2  3  1  0  0  0
  2 25  1  0  0  0
  2 81  1  0  0  0
  2 82  1  0  0  0
  3  4  1  0  0  0
  3 83  1  0  0  0
  3 84  1  0  0  0
  4  5  1  0  0  0
  4 85  1  0  0  0
  4 86  1  0  0  0
  5  6  1  0  0  0
  5 26  1  0  0  0
  5 87  1  0  0  0
  6 25  1  0  0  0
  6 88  1  0  0  0
  6 89  1  0  0  0
  7  8  2  0  0  0
  7 26  1  0  0  0
  7 29  1  0  0  0
  8  9  1  0  0  0
  8 22  1  0  0  0
  9 10  1  0  0  0
  9 27  2  0  0  0
 10 11  2  0  0  0
 10 15  1  0  0  0
 11 12  1  0  0  0
 11 90  1  0  0  0
 12 13  2  0  0  0
 12 91  1  0  0  0
 13 14  1  0  0  0
 13 31  1  0  0  0
 14 15  2  0  0  0
 14 92  1  0  0  0
 15 93  1  0  0  0
 16 17  2  0  0  0
 16 21  1  0  0  0
 16 31  1  0  0  0
 17 18  1  0  0  0
 17 94  1  0  0  0
 18 19  2  0  0  0
 18 95  1  0  0  0
 19 20  1  0  0  0
 19 24  1  0  0  0
 20 21  2  0  0  0
 20 96  1  0  0  0
 21 23  1  0  0  0
 22 28  1  0  0  0
 22 32  2  0  0  0
 26 27  1  0  0  0
 28 97  1  0  0  0
 28 98  1  0  0  0
 29 99  1  0  0  0
 29100  1  0  0  0
 33 34  1  0  0  0
 33 66  1  0  0  0
 33 70  2  0  0  0
 34 36  1  0  0  0
 34 59  1  0  0  0
 34101  1  0  0  0
 35 44  2  0  0  0
 35 45  1  0  0  0
 35 68  1  0  0  0
 36 56  1  0  0  0
 36102  1  0  0  0
 37 39  1  0  0  0
 37 47  1  0  0  0
 37 66  1  0  0  0
 37103  1  0  0  0
 38 43  2  0  0  0
 38 46  1  0  0  0
 38 47  1  0  0  0
 39 64  1  0  0  0
 39 67  2  0  0  0
 40 52  1  0  0  0
 40 53  2  0  0  0
 40 58  1  0  0  0
 41104  1  0  0  0
 41105  1  0  0  0
 41106  1  0  0  0
 41 48  1  0  0  0
 42 43  1  0  0  0
 42 66  1  0  0  0
 42107  1  0  0  0
 42108  1  0  0  0
 43 44  1  0  0  0
 44109  1  0  0  0
 45 46  2  0  0  0
 45110  1  0  0  0
 46111  1  0  0  0
 47112  1  0  0  0
 47113  1  0  0  0
 48 56  1  0  0  0
 48 65  1  0  0  0
 48114  1  0  0  0
 49 50  1  0  0  0
 49 53  1  0  0  0
 49 64  1  0  0  0
 49115  1  0  0  0
 50 51  1  0  0  0
 50116  1  0  0  0
 50117  1  0  0  0
 51 52  1  0  0  0
 51118  1  0  0  0
 51119  1  0  0  0
 52120  1  0  0  0
 52121  1  0  0  0
 53 54  1  0  0  0
 54 55  2  0  0  0
 54122  1  0  0  0
 55 57  1  0  0  0
 55123  1  0  0  0
 56 69  2  0  0  0
 57 58  2  0  0  0
 57124  1  0  0  0
 58125  1  0  0  0
 59 60  1  0  0  0
 59 61  1  0  0  0
 59 62  1  0  0  0
 60126  1  0  0  0
 60127  1  0  0  0
 60128  1  0  0  0
 61129  1  0  0  0
 61130  1  0  0  0
 61131  1  0  0  0
 62132  1  0  0  0
 62133  1  0  0  0
 62134  1  0  0  0
 63 65  1  0  0  0
 63135  1  0  0  0
 63136  1  0  0  0
 63137  1  0  0  0
 64138  1  0  0  0
 65139  1  0  0  0
 68 75  1  0  0  0
 71 72  1  0  0  0
 71 74  1  0  0  0
 71140  1  0  0  0
 71141  1  0  0  0
 72 75  1  0  0  0
 72142  1  0  0  0
 72143  1  0  0  0
 73 74  1  0  0  0
 73 75  1  0  0  0
 73144  1  0  0  0
 73145  1  0  0  0
 74 76  1  0  0  0
 74146  1  0  0  0
 75147  1  0  0  0
 76 80  1  0  0  0
 76148  1  0  0  0
 76149  1  0  0  0
 77 78  1  0  0  0
 77 79  1  0  0  0
 77150  1  0  0  0
 77151  1  0  0  0
 78 80  1  0  0  0
 78152  1  0  0  0
 78153  1  0  0  0
 79154  1  0  0  0
 80155  1  0  0  0
 80156  1  0  0  0
M  CHG  1  80   1
M  ISO  4   1 100  68 101  75 101  79 100
M  END
> <chiral flag>
0

> <version>
0

> <s_m_source_file>
/data/baiqing/PycharmProjects/Reinvent-master-3.2/result/LINK_invent/BTK/process_docking_weight1_custom_sum_contain_oxygen_bond_distance_aromatic_linkinvent_7_9_3/rearranged_h_0132.sdf

> <i_m_source_file_index>
43

> <r_mmod_Potential_Energy-OPLS-2005>
-47.0662422180176

> <r_mmod_Stretch_Energy-OPLS-2005>
105.756126403809

> <r_mmod_Bend_Energy-OPLS-2005>
182.265716552734

> <r_mmod_Torsional_Energy-OPLS-2005>
270.849517822266

> <r_mmod_Improper_Torsional_Energy-OPLS-2005>
4.37887620925903

> <r_mmod_Van_der_Waal_Energy-OPLS-2005>
110.665451049805

> <r_mmod_Electrostatic_Energy-OPLS-2005>
-294.387023925781

> <r_mmod_Solvation_Energy-OPLS-2005>
-492.544555664062

> <b_mmod_Minimization_Converged-OPLS-2005>
0

> <r_mmod_RMS_Derivative-OPLS-2005>
3.81907033920288

$$$$
43
                    3D
 Structure written by MMmdl.
161169  0  0  1  0            999 V2000
  -30.7493  -14.4014   20.6245 C   0  0  0  0  0  0
  -30.4200  -12.2809   19.4110 C   0  0  0  0  0  0
  -29.4904  -12.4932   18.2003 C   0  0  0  0  0  0
  -28.0139  -12.3565   18.6182 C   0  0  0  0  0  0
  -27.6675  -13.1977   19.8757 C   0  0  2  0  0  0
  -28.7063  -12.9652   20.9960 C   0  0  0  0  0  0
  -25.2628  -13.8138   20.5664 C   0  0  0  0  0  0
  -24.1860  -13.0443   20.9157 C   0  0  0  0  0  0
  -24.6389  -11.6901   20.8714 C   0  0  0  0  0  0
  -23.9048  -10.4291   21.0388 C   0  0  0  0  0  0
  -24.3603   -9.4215   21.9176 C   0  0  0  0  0  0
  -23.6284   -8.2248   22.0753 C   0  0  0  0  0  0
  -22.4272   -8.0275   21.3544 C   0  0  0  0  0  0
  -21.9903   -9.0243   20.4644 C   0  0  0  0  0  0
  -22.7219  -10.2126   20.3050 C   0  0  0  0  0  0
  -21.6861   -6.0735   22.5279 C   0  0  0  0  0  0
  -21.4007   -6.5636   23.8212 C   0  0  0  0  0  0
  -21.3658   -5.6791   24.9170 C   0  0  0  0  0  0
  -21.6044   -4.3052   24.7222 C   0  0  0  0  0  0
  -21.8823   -3.8146   23.4344 C   0  0  0  0  0  0
  -21.9192   -4.6964   22.3400 C   0  0  0  0  0  0
  -22.7888  -13.5257   21.1831 C   0  0  0  0  0  0
  -22.1667   -4.2150   21.0980 F   0  0  0  0  0  0
  -21.5631   -3.4538   25.7735 F   0  0  0  0  0  0
  -30.0465  -13.2512   20.4507 N   0  0  0  0  0  0
  -26.3061  -12.9298   20.3364 N   0  0  0  0  0  0
  -25.9317  -11.6468   20.5760 N   0  0  0  0  0  0
  -22.0525  -12.8238   22.0385 N   0  0  0  0  0  0
  -25.4397  -15.1854   20.4076 N   0  0  0  0  0  0
  -31.8063  -14.6456   20.0387 O   0  0  0  0  0  0
  -21.6639   -6.8875   21.4243 O   0  0  0  0  0  0
  -22.3577  -14.5576   20.6702 O   0  0  0  0  0  0
  -24.6139  -31.8676   23.2104 C   0  0  0  0  0  0
  -25.9031  -32.4827   23.8391 C   0  0  1  0  0  0
  -27.2210  -27.4266   20.1086 C   0  0  0  0  0  0
  -25.5887  -33.8622   24.2328 N   0  0  0  0  0  0
  -23.4011  -30.4943   21.5502 C   0  0  2  0  0  0
  -24.8440  -28.9652   20.1107 C   0  0  0  0  0  0
  -22.7411  -29.4658   22.4967 C   0  0  0  0  0  0
  -18.0269  -28.1379   22.8485 C   0  0  0  0  0  0
  -24.1492  -36.7310   23.2643 C   0  0  0  0  0  0
  -25.9304  -30.8333   21.3631 C   0  0  0  0  0  0
  -26.0049  -29.4679   20.7135 C   0  0  0  0  0  0
  -27.1950  -28.7048   20.7125 C   0  0  0  0  0  0
  -26.0507  -26.9601   19.4643 C   0  0  0  0  0  0
  -24.8638  -27.7105   19.4827 C   0  0  0  0  0  0
  -23.6077  -29.8310   20.1630 C   0  0  0  0  0  0
  -25.4109  -36.3104   24.0345 C   0  0  1  0  0  0
  -20.5868  -28.3651   23.1308 C   0  0  2  0  0  0
  -20.6765  -26.9386   22.5419 C   0  0  0  0  0  0
  -19.5748  -26.6376   21.5216 C   0  0  0  0  0  0
  -18.1919  -26.7922   22.1624 C   0  0  0  0  0  0
  -19.1522  -28.8829   23.2902 C   0  0  0  0  0  0
  -18.9457  -30.1438   23.8908 C   0  0  0  0  0  0
  -17.6466  -30.6582   24.0562 C   0  0  0  0  0  0
  -25.9029  -34.9470   23.5135 C   0  0  0  0  0  0
  -16.5349  -29.9085   23.6336 C   0  0  0  0  0  0
  -16.7262  -28.6508   23.0348 C   0  0  0  0  0  0
  -26.4453  -31.6599   25.0716 C   0  0  0  0  0  0
  -25.3726  -31.3703   26.1469 C   0  0  0  0  0  0
  -27.0294  -30.3063   24.6057 C   0  0  0  0  0  0
  -27.6035  -32.4318   25.7480 C   0  0  0  0  0  0
  -27.5579  -37.1807   24.8468 C   0  0  0  0  0  0
  -21.4136  -29.3034   22.3721 N   0  0  0  0  0  0
  -26.4290  -37.3794   23.9420 N   0  0  0  0  0  0
  -24.6668  -31.0782   22.1007 N   0  0  0  0  0  0
  -23.4185  -28.8203   23.3005 O   0  0  0  0  0  0
  -28.3744  -26.6691   20.1519 O   0  0  0  0  0  0
  -26.5589  -34.8917   22.4694 O   0  0  0  0  0  0
  -23.5334  -32.1414   23.7509 O   0  0  0  0  0  0
  -28.7285  -24.8195   21.7533 C   0  0  0  0  0  0
  -28.9564  -24.4359   19.3135 C   0  0  0  0  0  0
  -28.5487  -23.2948   21.9353 C   0  0  0  0  0  0
  -28.7485  -22.9258   19.5644 C   0  0  0  0  0  0
  -28.2137  -25.2517   20.3753 C   0  0  0  0  0  0
  -29.0379  -21.0949   21.1295 C   0  0  0  0  0  0
  -30.7095  -16.6512   21.7058 C   0  0  0  0  0  0
  -29.9633  -20.1737   20.2914 C   0  0  0  0  0  0
  -30.0136  -17.7229   20.8352 C   0  0  0  0  0  0
  -29.2549  -22.5334   20.8904 N   0  0  0  0  0  0
  -30.1944  -15.3023   21.4458 N   0  0  0  0  0  0
  -30.5500  -19.0794   21.0990 N   0  3  0  0  0  0
  -31.4652  -12.3692   19.1084 H   0  0  0  0  0  0
  -30.3138  -11.2667   19.7999 H   0  0  0  0  0  0
  -29.7231  -11.7661   17.4210 H   0  0  0  0  0  0
  -29.6644  -13.4779   17.7646 H   0  0  0  0  0  0
  -27.8265  -11.3003   18.8183 H   0  0  0  0  0  0
  -27.3588  -12.6274   17.7892 H   0  0  0  0  0  0
  -27.7211  -14.2467   19.5831 H   0  0  0  0  0  0
  -28.6687  -11.9304   21.3382 H   0  0  0  0  0  0
  -28.4590  -13.5638   21.8728 H   0  0  0  0  0  0
  -25.2756   -9.5694   22.4740 H   0  0  0  0  0  0
  -23.9999   -7.4645   22.7476 H   0  0  0  0  0  0
  -21.0842   -8.8758   19.8943 H   0  0  0  0  0  0
  -22.3687  -10.9661   19.6147 H   0  0  0  0  0  0
  -21.1998   -7.6145   23.9714 H   0  0  0  0  0  0
  -21.1474   -6.0520   25.9075 H   0  0  0  0  0  0
  -22.0602   -2.7611   23.2844 H   0  0  0  0  0  0
  -22.4140  -11.9880   22.4730 H   0  0  0  0  0  0
  -21.1145  -13.1260   22.2604 H   0  0  0  0  0  0
  -24.6773  -15.8461   20.5127 H   0  0  0  0  0  0
  -26.2992  -15.6190   20.0958 H   0  0  0  0  0  0
  -26.7084  -32.5533   23.1129 H   0  0  0  0  0  0
  -25.0058  -33.9793   25.0488 H   0  0  0  0  0  0
  -22.6909  -31.3106   21.4102 H   0  0  0  0  0  0
  -23.3758  -35.9641   23.3311 H   0  0  0  0  0  0
  -24.3578  -36.8922   22.2055 H   0  0  0  0  0  0
  -23.7248  -37.6529   23.6641 H   0  0  0  0  0  0
  -26.0360  -31.5939   20.5893 H   0  0  0  0  0  0
  -26.8215  -30.8913   21.9746 H   0  0  0  0  0  0
  -28.0862  -29.0791   21.1987 H   0  0  0  0  0  0
  -26.0379  -26.0142   18.9422 H   0  0  0  0  0  0
  -23.9768  -27.3216   19.0025 H   0  0  0  0  0  0
  -23.7129  -30.6057   19.4025 H   0  0  0  0  0  0
  -22.7321  -29.2503   19.8678 H   0  0  0  0  0  0
  -25.1285  -36.1968   25.0839 H   0  0  0  0  0  0
  -20.9953  -28.3196   24.1434 H   0  0  0  0  0  0
  -20.5699  -26.2243   23.3599 H   0  0  0  0  0  0
  -21.6625  -26.7431   22.1188 H   0  0  0  0  0  0
  -19.6925  -25.6301   21.1226 H   0  0  0  0  0  0
  -19.6708  -27.3199   20.6768 H   0  0  0  0  0  0
  -17.4201  -26.6675   21.4018 H   0  0  0  0  0  0
  -18.0302  -26.0063   22.9008 H   0  0  0  0  0  0
  -19.7943  -30.7250   24.2270 H   0  0  0  0  0  0
  -17.5028  -31.6270   24.5156 H   0  0  0  0  0  0
  -15.5356  -30.3005   23.7676 H   0  0  0  0  0  0
  -15.8646  -28.0848   22.7052 H   0  0  0  0  0  0
  -24.5891  -30.7044   25.7811 H   0  0  0  0  0  0
  -24.8912  -32.2862   26.4908 H   0  0  0  0  0  0
  -25.8079  -30.8885   27.0228 H   0  0  0  0  0  0
  -26.2823  -29.6837   24.1111 H   0  0  0  0  0  0
  -27.4131  -29.7271   25.4468 H   0  0  0  0  0  0
  -27.8610  -30.4440   23.9144 H   0  0  0  0  0  0
  -27.2648  -33.3611   26.2066 H   0  0  0  0  0  0
  -28.3834  -32.6895   25.0299 H   0  0  0  0  0  0
  -28.0694  -31.8432   26.5396 H   0  0  0  0  0  0
  -28.2592  -38.0109   24.7503 H   0  0  0  0  0  0
  -28.1082  -36.2639   24.6291 H   0  0  0  0  0  0
  -27.2281  -37.1431   25.8867 H   0  0  0  0  0  0
  -20.9270  -29.8771   21.6970 H   0  0  0  0  0  0
  -26.0187  -38.2879   24.1422 H   0  0  0  0  0  0
  -29.7766  -25.0920   21.8790 H   0  0  0  0  0  0
  -28.1778  -25.3448   22.5355 H   0  0  0  0  0  0
  -28.5900  -24.7019   18.3214 H   0  0  0  0  0  0
  -30.0205  -24.6774   19.3292 H   0  0  0  0  0  0
  -27.4851  -23.0439   21.9250 H   0  0  0  0  0  0
  -28.9223  -23.0080   22.9192 H   0  0  0  0  0  0
  -29.2580  -22.3651   18.7811 H   0  0  0  0  0  0
  -27.6857  -22.6850   19.4802 H   0  0  0  0  0  0
  -27.1711  -24.9401   20.3592 H   0  0  0  0  0  0
  -29.2418  -20.9056   22.1845 H   0  0  0  0  0  0
  -27.9905  -20.8227   20.9806 H   0  0  0  0  0  0
  -30.5612  -16.8712   22.7638 H   0  0  0  0  0  0
  -31.7895  -16.6838   21.5445 H   0  0  0  0  0  0
  -30.8074  -20.7492   19.9107 H   0  0  0  0  0  0
  -29.4438  -19.7917   19.4121 H   0  0  0  0  0  0
  -28.9375  -17.7120   21.0180 H   0  0  0  0  0  0
  -30.1554  -17.4857   19.7794 H   0  0  0  0  0  0
  -29.3395  -15.0283   21.9071 H   0  0  0  0  0  0
  -30.4390  -19.3096   22.0729 H   0  0  0  0  0  0
  -31.5389  -19.0639   20.9057 H   0  0  0  0  0  0
  1 25  1  0  0  0
  1 30  2  0  0  0
  1 81  1  0  0  0
  2  3  1  0  0  0
  2 25  1  0  0  0
  2 83  1  0  0  0
  2 84  1  0  0  0
  3  4  1  0  0  0
  3 85  1  0  0  0
  3 86  1  0  0  0
  4  5  1  0  0  0
  4 87  1  0  0  0
  4 88  1  0  0  0
  5  6  1  0  0  0
  5 26  1  0  0  0
  5 89  1  0  0  0
  6 25  1  0  0  0
  6 90  1  0  0  0
  6 91  1  0  0  0
  7  8  2  0  0  0
  7 26  1  0  0  0
  7 29  1  0  0  0
  8  9  1  0  0  0
  8 22  1  0  0  0
  9 10  1  0  0  0
  9 27  2  0  0  0
 10 11  2  0  0  0
 10 15  1  0  0  0
 11 12  1  0  0  0
 11 92  1  0  0  0
 12 13  2  0  0  0
 12 93  1  0  0  0
 13 14  1  0  0  0
 13 31  1  0  0  0
 14 15  2  0  0  0
 14 94  1  0  0  0
 15 95  1  0  0  0
 16 17  2  0  0  0
 16 21  1  0  0  0
 16 31  1  0  0  0
 17 18  1  0  0  0
 17 96  1  0  0  0
 18 19  2  0  0  0
 18 97  1  0  0  0
 19 20  1  0  0  0
 19 24  1  0  0  0
 20 21  2  0  0  0
 20 98  1  0  0  0
 21 23  1  0  0  0
 22 28  1  0  0  0
 22 32  2  0  0  0
 26 27  1  0  0  0
 28 99  1  0  0  0
 28100  1  0  0  0
 29101  1  0  0  0
 29102  1  0  0  0
 33 34  1  0  0  0
 33 66  1  0  0  0
 33 70  2  0  0  0
 34 36  1  0  0  0
 34 59  1  0  0  0
 34103  1  0  0  0
 35 44  2  0  0  0
 35 45  1  0  0  0
 35 68  1  0  0  0
 36 56  1  0  0  0
 36104  1  0  0  0
 37 39  1  0  0  0
 37 47  1  0  0  0
 37 66  1  0  0  0
 37105  1  0  0  0
 38 43  2  0  0  0
 38 46  1  0  0  0
 38 47  1  0  0  0
 39 64  1  0  0  0
 39 67  2  0  0  0
 40 52  1  0  0  0
 40 53  2  0  0  0
 40 58  1  0  0  0
 41106  1  0  0  0
 41107  1  0  0  0
 41108  1  0  0  0
 41 48  1  0  0  0
 42 43  1  0  0  0
 42 66  1  0  0  0
 42109  1  0  0  0
 42110  1  0  0  0
 43 44  1  0  0  0
 44111  1  0  0  0
 45 46  2  0  0  0
 45112  1  0  0  0
 46113  1  0  0  0
 47114  1  0  0  0
 47115  1  0  0  0
 48 56  1  0  0  0
 48 65  1  0  0  0
 48116  1  0  0  0
 49 50  1  0  0  0
 49 53  1  0  0  0
 49 64  1  0  0  0
 49117  1  0  0  0
 50 51  1  0  0  0
 50118  1  0  0  0
 50119  1  0  0  0
 51 52  1  0  0  0
 51120  1  0  0  0
 51121  1  0  0  0
 52122  1  0  0  0
 52123  1  0  0  0
 53 54  1  0  0  0
 54 55  2  0  0  0
 54124  1  0  0  0
 55 57  1  0  0  0
 55125  1  0  0  0
 56 69  2  0  0  0
 57 58  2  0  0  0
 57126  1  0  0  0
 58127  1  0  0  0
 59 60  1  0  0  0
 59 61  1  0  0  0
 59 62  1  0  0  0
 60128  1  0  0  0
 60129  1  0  0  0
 60130  1  0  0  0
 61131  1  0  0  0
 61132  1  0  0  0
 61133  1  0  0  0
 62134  1  0  0  0
 62135  1  0  0  0
 62136  1  0  0  0
 63 65  1  0  0  0
 63137  1  0  0  0
 63138  1  0  0  0
 63139  1  0  0  0
 64140  1  0  0  0
 65141  1  0  0  0
 68 75  1  0  0  0
 71 73  1  0  0  0
 71 75  1  0  0  0
 71142  1  0  0  0
 71143  1  0  0  0
 72 74  1  0  0  0
 72 75  1  0  0  0
 72144  1  0  0  0
 72145  1  0  0  0
 73 80  1  0  0  0
 73146  1  0  0  0
 73147  1  0  0  0
 74 80  1  0  0  0
 74148  1  0  0  0
 74149  1  0  0  0
 75150  1  0  0  0
 76 78  1  0  0  0
 76 80  1  0  0  0
 76151  1  0  0  0
 76152  1  0  0  0
 77 79  1  0  0  0
 77 81  1  0  0  0
 77153  1  0  0  0
 77154  1  0  0  0
 78 82  1  0  0  0
 78155  1  0  0  0
 78156  1  0  0  0
 79 82  1  0  0  0
 79157  1  0  0  0
 79158  1  0  0  0
 81159  1  0  0  0
 82160  1  0  0  0
 82161  1  0  0  0
M  CHG  1  82   1
M  ISO  4   1 100  68 101  75 101  81 100
M  END
> <chiral flag>
0

> <version>
0

> <s_m_source_file>
/data/baiqing/PycharmProjects/Reinvent-master-3.2/result/LINK_invent/BTK/process_docking_weight1_custom_sum_contain_oxygen_bond_distance_aromatic_linkinvent_7_9_3/rearranged_h_0132.sdf

> <i_m_source_file_index>
44

> <r_mmod_Potential_Energy-OPLS-2005>
-261.452392578125

> <r_mmod_Stretch_Energy-OPLS-2005>
36.3836441040039

> <r_mmod_Bend_Energy-OPLS-2005>
95.3631973266602

> <r_mmod_Torsional_Energy-OPLS-2005>
235.541625976562

> <r_mmod_Improper_Torsional_Energy-OPLS-2005>
1.91224157810211

> <r_mmod_Van_der_Waal_Energy-OPLS-2005>
149.902465820312

> <r_mmod_Electrostatic_Energy-OPLS-2005>
-308.134185791016

> <r_mmod_Solvation_Energy-OPLS-2005>
-483.593170166016

> <b_mmod_Minimization_Converged-OPLS-2005>
0

> <r_mmod_RMS_Derivative-OPLS-2005>
2.48230743408203

$$$$
45
                    3D
 Structure written by MMmdl.
177186  0  0  1  0            999 V2000
  -30.7443  -14.4540   20.4958 C   0  0  0  0  0  0
  -30.3934  -12.2727   19.4536 C   0  0  0  0  0  0
  -29.4938  -12.4703   18.2180 C   0  0  0  0  0  0
  -28.0107  -12.3548   18.6177 C   0  0  0  0  0  0
  -27.6474  -13.2192   19.8566 C   0  0  2  0  0  0
  -28.6875  -13.0750   20.9910 C   0  0  0  0  0  0
  -25.2523  -13.8202   20.5692 C   0  0  0  0  0  0
  -24.1809  -13.0455   20.9213 C   0  0  0  0  0  0
  -24.6384  -11.6928   20.8756 C   0  0  0  0  0  0
  -23.9070  -10.4305   21.0418 C   0  0  0  0  0  0
  -24.3628   -9.4214   21.9190 C   0  0  0  0  0  0
  -23.6303   -8.2244   22.0748 C   0  0  0  0  0  0
  -22.4280   -8.0289   21.3541 C   0  0  0  0  0  0
  -21.9935   -9.0261   20.4629 C   0  0  0  0  0  0
  -22.7258  -10.2141   20.3048 C   0  0  0  0  0  0
  -21.6850   -6.0754   22.5285 C   0  0  0  0  0  0
  -21.4000   -6.5643   23.8224 C   0  0  0  0  0  0
  -21.3667   -5.6792   24.9183 C   0  0  0  0  0  0
  -21.6051   -4.3059   24.7224 C   0  0  0  0  0  0
  -21.8815   -3.8162   23.4337 C   0  0  0  0  0  0
  -21.9186   -4.6982   22.3396 C   0  0  0  0  0  0
  -22.7827  -13.5239   21.1880 C   0  0  0  0  0  0
  -22.1658   -4.2174   21.0971 F   0  0  0  0  0  0
  -21.5642   -3.4536   25.7739 F   0  0  0  0  0  0
  -30.0175  -13.3138   20.4209 N   0  0  0  0  0  0
  -26.2945  -12.9394   20.3287 N   0  0  0  0  0  0
  -25.9301  -11.6540   20.5741 N   0  0  0  0  0  0
  -22.0457  -12.8206   22.0408 N   0  0  0  0  0  0
  -25.4228  -15.1924   20.4121 N   0  0  0  0  0  0
  -31.9401  -14.4928   20.2093 O   0  0  0  0  0  0
  -21.6629   -6.8899   21.4250 O   0  0  0  0  0  0
  -22.3524  -14.5564   20.6744 O   0  0  0  0  0  0
  -24.6145  -31.8654   23.2072 C   0  0  0  0  0  0
  -25.9039  -32.4808   23.8366 C   0  0  1  0  0  0
  -27.2444  -27.4361   20.0961 C   0  0  0  0  0  0
  -25.5863  -33.8602   24.2251 N   0  0  0  0  0  0
  -23.4009  -30.4881   21.5491 C   0  0  2  0  0  0
  -24.8474  -28.9492   20.1178 C   0  0  0  0  0  0
  -22.7383  -29.4644   22.5025 C   0  0  0  0  0  0
  -18.0232  -28.1388   22.8448 C   0  0  0  0  0  0
  -24.1474  -36.7286   23.2645 C   0  0  0  0  0  0
  -25.9306  -30.8333   21.3585 C   0  0  0  0  0  0
  -26.0061  -29.4673   20.7073 C   0  0  0  0  0  0
  -27.2036  -28.7163   20.6907 C   0  0  0  0  0  0
  -26.0629  -26.9253   19.5094 C   0  0  0  0  0  0
  -24.8718  -27.6778   19.5142 C   0  0  0  0  0  0
  -23.6078  -29.8154   20.1671 C   0  0  0  0  0  0
  -25.4103  -36.3087   24.0334 C   0  0  1  0  0  0
  -20.5822  -28.3615   23.1344 C   0  0  2  0  0  0
  -20.6749  -26.9360   22.5434 C   0  0  0  0  0  0
  -19.5733  -26.6392   21.5211 C   0  0  0  0  0  0
  -18.1887  -26.7920   22.1613 C   0  0  0  0  0  0
  -19.1503  -28.8828   23.2858 C   0  0  0  0  0  0
  -18.9455  -30.1428   23.8869 C   0  0  0  0  0  0
  -17.6476  -30.6582   24.0570 C   0  0  0  0  0  0
  -25.9058  -34.9465   23.5101 C   0  0  0  0  0  0
  -16.5327  -29.9113   23.6353 C   0  0  0  0  0  0
  -16.7242  -28.6548   23.0318 C   0  0  0  0  0  0
  -26.4447  -31.6637   25.0724 C   0  0  0  0  0  0
  -25.3691  -31.3792   26.1464 C   0  0  0  0  0  0
  -27.0291  -30.3087   24.6125 C   0  0  0  0  0  0
  -27.5986  -32.4397   25.7488 C   0  0  0  0  0  0
  -27.5543  -37.1809   24.8459 C   0  0  0  0  0  0
  -21.4111  -29.2958   22.3728 N   0  0  0  0  0  0
  -26.4267  -37.3792   23.9392 N   0  0  0  0  0  0
  -24.6667  -31.0759   22.0968 N   0  0  0  0  0  0
  -23.4120  -28.8209   23.3085 O   0  0  0  0  0  0
  -28.4549  -26.7655   20.1042 O   0  0  0  0  0  0
  -26.5662  -34.8936   22.4670 O   0  0  0  0  0  0
  -23.5334  -32.1433   23.7463 O   0  0  0  0  0  0
  -30.9715  -19.3393   19.8148 C   0  0  0  0  0  0
  -29.5926  -19.9055   23.6859 C   0  0  0  0  0  0
  -31.1991  -19.2017   18.2985 C   0  0  0  0  0  0
  -30.6661  -18.8614   23.9811 C   0  0  0  0  0  0
  -30.8392  -16.7674   18.4565 C   0  0  0  0  0  0
  -30.0317  -18.2329   20.3816 C   0  0  1  0  0  0
  -30.6828  -16.8573   20.0073 C   0  0  1  0  0  0
  -29.6409  -18.4850   21.8770 C   0  0  2  0  0  0
  -27.2696  -22.5228   22.9932 C   0  0  0  0  0  0
  -28.3791  -20.6396   21.6956 C   0  0  0  0  0  0
  -28.1131  -24.4721   20.9614 C   0  0  0  0  0  0
  -28.5467  -25.3701   19.7770 C   0  0  0  0  0  0
  -28.4009  -22.1759   22.0019 C   0  0  1  0  0  0
  -29.5515  -19.9212   22.2246 N   0  0  0  0  0  0
  -30.0569  -15.6188   20.5403 N   0  0  0  0  0  0
  -31.6907  -17.8591   17.9414 N   0  3  0  0  0  0
  -30.5895  -17.9186   22.8591 N   0  3  0  0  0  0
  -28.3927  -23.0169   20.7668 N   0  3  0  0  0  0
  -31.4479  -12.3093   19.1728 H   0  0  0  0  0  0
  -30.2362  -11.2856   19.8902 H   0  0  0  0  0  0
  -29.7347  -11.7279   17.4560 H   0  0  0  0  0  0
  -29.6849  -13.4473   17.7691 H   0  0  0  0  0  0
  -27.8059  -11.3039   18.8231 H   0  0  0  0  0  0
  -27.3749  -12.6251   17.7747 H   0  0  0  0  0  0
  -27.6699  -14.2550   19.5197 H   0  0  0  0  0  0
  -28.6438  -12.0745   21.4226 H   0  0  0  0  0  0
  -28.4713  -13.7694   21.8055 H   0  0  0  0  0  0
  -25.2765   -9.5683   22.4760 H   0  0  0  0  0  0
  -24.0021   -7.4622   22.7452 H   0  0  0  0  0  0
  -21.0883   -8.8777   19.8906 H   0  0  0  0  0  0
  -22.3739  -10.9679   19.6151 H   0  0  0  0  0  0
  -21.1974   -7.6139   23.9741 H   0  0  0  0  0  0
  -21.1501   -6.0508   25.9088 H   0  0  0  0  0  0
  -22.0585   -2.7628   23.2824 H   0  0  0  0  0  0
  -22.4056  -11.9840   22.4759 H   0  0  0  0  0  0
  -21.1050  -13.1186   22.2580 H   0  0  0  0  0  0
  -24.6526  -15.8426   20.5154 H   0  0  0  0  0  0
  -26.2620  -15.6298   20.0549 H   0  0  0  0  0  0
  -26.7118  -32.5552   23.1154 H   0  0  0  0  0  0
  -24.9939  -33.9731   25.0355 H   0  0  0  0  0  0
  -22.6885  -31.3045   21.4047 H   0  0  0  0  0  0
  -23.3704  -35.9646   23.3363 H   0  0  0  0  0  0
  -24.3560  -36.8895   22.2048 H   0  0  0  0  0  0
  -23.7273  -37.6512   23.6676 H   0  0  0  0  0  0
  -26.0397  -31.5985   20.5872 H   0  0  0  0  0  0
  -26.8185  -30.8840   21.9803 H   0  0  0  0  0  0
  -28.1078  -29.1157   21.1278 H   0  0  0  0  0  0
  -26.0376  -25.9544   19.0390 H   0  0  0  0  0  0
  -23.9822  -27.2688   19.0527 H   0  0  0  0  0  0
  -23.7144  -30.5870   19.4037 H   0  0  0  0  0  0
  -22.7297  -29.2361   19.8773 H   0  0  0  0  0  0
  -25.1288  -36.1929   25.0841 H   0  0  0  0  0  0
  -20.9874  -28.3205   24.1497 H   0  0  0  0  0  0
  -20.5670  -26.2215   23.3614 H   0  0  0  0  0  0
  -21.6620  -26.7469   22.1191 H   0  0  0  0  0  0
  -19.6904  -25.6319   21.1221 H   0  0  0  0  0  0
  -19.6697  -27.3239   20.6753 H   0  0  0  0  0  0
  -17.4162  -26.6655   21.3991 H   0  0  0  0  0  0
  -18.0213  -26.0069   22.9030 H   0  0  0  0  0  0
  -19.7971  -30.7189   24.2228 H   0  0  0  0  0  0
  -17.5087  -31.6287   24.5126 H   0  0  0  0  0  0
  -15.5348  -30.3019   23.7728 H   0  0  0  0  0  0
  -15.8631  -28.0914   22.7008 H   0  0  0  0  0  0
  -24.5865  -30.7121   25.7828 H   0  0  0  0  0  0
  -24.8834  -32.2983   26.4790 H   0  0  0  0  0  0
  -25.8000  -30.9072   27.0310 H   0  0  0  0  0  0
  -26.2865  -29.6839   24.1155 H   0  0  0  0  0  0
  -27.4036  -29.7328   25.4588 H   0  0  0  0  0  0
  -27.8715  -30.4362   23.9302 H   0  0  0  0  0  0
  -27.2556  -33.3720   26.1990 H   0  0  0  0  0  0
  -28.3818  -32.6975   25.0347 H   0  0  0  0  0  0
  -28.0651  -31.8611   26.5485 H   0  0  0  0  0  0
  -28.2584  -38.0071   24.7460 H   0  0  0  0  0  0
  -28.1016  -36.2618   24.6334 H   0  0  0  0  0  0
  -27.2255  -37.1477   25.8860 H   0  0  0  0  0  0
  -20.9275  -29.8711   21.7008 H   0  0  0  0  0  0
  -26.0143  -38.2855   24.1449 H   0  0  0  0  0  0
  -30.5650  -20.3360   19.9744 H   0  0  0  0  0  0
  -31.9289  -19.3273   20.3390 H   0  0  0  0  0  0
  -29.8368  -20.8775   24.1132 H   0  0  0  0  0  0
  -28.6353  -19.5781   24.0989 H   0  0  0  0  0  0
  -31.9189  -19.9482   17.9592 H   0  0  0  0  0  0
  -30.2674  -19.3986   17.7645 H   0  0  0  0  0  0
  -30.4963  -18.3673   24.9372 H   0  0  0  0  0  0
  -31.6604  -19.3064   24.0154 H   0  0  0  0  0  0
  -29.8614  -16.8191   17.9739 H   0  0  0  0  0  0
  -31.2878  -15.8286   18.1325 H   0  0  0  0  0  0
  -29.0949  -18.3042   19.8271 H   0  0  0  0  0  0
  -31.6907  -16.8968   20.4245 H   0  0  0  0  0  0
  -28.6769  -18.0094   22.0796 H   0  0  0  0  0  0
  -27.3078  -21.8760   23.8689 H   0  0  0  0  0  0
  -26.2855  -22.3918   22.5404 H   0  0  0  0  0  0
  -27.3417  -23.5415   23.3767 H   0  0  0  0  0  0
  -28.3427  -20.4882   20.6174 H   0  0  0  0  0  0
  -27.4593  -20.1872   22.0778 H   0  0  0  0  0  0
  -27.0487  -24.6178   21.1557 H   0  0  0  0  0  0
  -28.6528  -24.8072   21.8489 H   0  0  0  0  0  0
  -28.0333  -25.1257   18.8491 H   0  0  0  0  0  0
  -29.6048  -25.1893   19.5754 H   0  0  0  0  0  0
  -29.3477  -22.4289   22.4815 H   0  0  0  0  0  0
  -29.0552  -15.5745   20.6537 H   0  0  0  0  0  0
  -32.6283  -17.7368   18.2894 H   0  0  0  0  0  0
  -31.7469  -17.7903   16.9374 H   0  0  0  0  0  0
  -30.2630  -17.0204   23.1828 H   0  0  0  0  0  0
  -31.5134  -17.8136   22.4748 H   0  0  0  0  0  0
  -29.3064  -22.9217   20.3466 H   0  0  0  0  0  0
  -27.7196  -22.6446   20.1143 H   0  0  0  0  0  0
  1 25  1  0  0  0
  1 30  2  0  0  0
  1 85  1  0  0  0
  2  3  1  0  0  0
  2 25  1  0  0  0
  2 89  1  0  0  0
  2 90  1  0  0  0
  3  4  1  0  0  0
  3 91  1  0  0  0
  3 92  1  0  0  0
  4  5  1  0  0  0
  4 93  1  0  0  0
  4 94  1  0  0  0
  5  6  1  0  0  0
  5 26  1  0  0  0
  5 95  1  0  0  0
  6 25  1  0  0  0
  6 96  1  0  0  0
  6 97  1  0  0  0
  7  8  2  0  0  0
  7 26  1  0  0  0
  7 29  1  0  0  0
  8  9  1  0  0  0
  8 22  1  0  0  0
  9 10  1  0  0  0
  9 27  2  0  0  0
 10 11  2  0  0  0
 10 15  1  0  0  0
 11 12  1  0  0  0
 11 98  1  0  0  0
 12 13  2  0  0  0
 12 99  1  0  0  0
 13 14  1  0  0  0
 13 31  1  0  0  0
 14 15  2  0  0  0
 14100  1  0  0  0
 15101  1  0  0  0
 16 17  2  0  0  0
 16 21  1  0  0  0
 16 31  1  0  0  0
 17 18  1  0  0  0
 17102  1  0  0  0
 18 19  2  0  0  0
 18103  1  0  0  0
 19 20  1  0  0  0
 19 24  1  0  0  0
 20 21  2  0  0  0
 20104  1  0  0  0
 21 23  1  0  0  0
 22 28  1  0  0  0
 22 32  2  0  0  0
 26 27  1  0  0  0
 28105  1  0  0  0
 28106  1  0  0  0
 29107  1  0  0  0
 29108  1  0  0  0
 33 34  1  0  0  0
 33 66  1  0  0  0
 33 70  2  0  0  0
 34 36  1  0  0  0
 34 59  1  0  0  0
 34109  1  0  0  0
 35 44  2  0  0  0
 35 45  1  0  0  0
 35 68  1  0  0  0
 36 56  1  0  0  0
 36110  1  0  0  0
 37 39  1  0  0  0
 37 47  1  0  0  0
 37 66  1  0  0  0
 37111  1  0  0  0
 38 43  2  0  0  0
 38 46  1  0  0  0
 38 47  1  0  0  0
 39 64  1  0  0  0
 39 67  2  0  0  0
 40 52  1  0  0  0
 40 53  2  0  0  0
 40 58  1  0  0  0
 41112  1  0  0  0
 41113  1  0  0  0
 41114  1  0  0  0
 41 48  1  0  0  0
 42 43  1  0  0  0
 42 66  1  0  0  0
 42115  1  0  0  0
 42116  1  0  0  0
 43 44  1  0  0  0
 44117  1  0  0  0
 45 46  2  0  0  0
 45118  1  0  0  0
 46119  1  0  0  0
 47120  1  0  0  0
 47121  1  0  0  0
 48 56  1  0  0  0
 48 65  1  0  0  0
 48122  1  0  0  0
 49 50  1  0  0  0
 49 53  1  0  0  0
 49 64  1  0  0  0
 49123  1  0  0  0
 50 51  1  0  0  0
 50124  1  0  0  0
 50125  1  0  0  0
 51 52  1  0  0  0
 51126  1  0  0  0
 51127  1  0  0  0
 52128  1  0  0  0
 52129  1  0  0  0
 53 54  1  0  0  0
 54 55  2  0  0  0
 54130  1  0  0  0
 55 57  1  0  0  0
 55131  1  0  0  0
 56 69  2  0  0  0
 57 58  2  0  0  0
 57132  1  0  0  0
 58133  1  0  0  0
 59 60  1  0  0  0
 59 61  1  0  0  0
 59 62  1  0  0  0
 60134  1  0  0  0
 60135  1  0  0  0
 60136  1  0  0  0
 61137  1  0  0  0
 61138  1  0  0  0
 61139  1  0  0  0
 62140  1  0  0  0
 62141  1  0  0  0
 62142  1  0  0  0
 63 65  1  0  0  0
 63143  1  0  0  0
 63144  1  0  0  0
 63145  1  0  0  0
 64146  1  0  0  0
 65147  1  0  0  0
 68 82  1  0  0  0
 71 73  1  0  0  0
 71148  1  0  0  0
 71149  1  0  0  0
 71 76  1  0  0  0
 72 74  1  0  0  0
 72 84  1  0  0  0
 72150  1  0  0  0
 72151  1  0  0  0
 73 86  1  0  0  0
 73152  1  0  0  0
 73153  1  0  0  0
 74 87  1  0  0  0
 74154  1  0  0  0
 74155  1  0  0  0
 75 77  1  0  0  0
 75 86  1  0  0  0
 75156  1  0  0  0
 75157  1  0  0  0
 76 77  1  0  0  0
 76 78  1  0  0  0
 76158  1  0  0  0
 77 85  1  0  0  0
 77159  1  0  0  0
 78 84  1  0  0  0
 78 87  1  0  0  0
 78160  1  0  0  0
 79161  1  0  0  0
 79162  1  0  0  0
 79163  1  0  0  0
 79 83  1  0  0  0
 80 83  1  0  0  0
 80 84  1  0  0  0
 80164  1  0  0  0
 80165  1  0  0  0
 81 82  1  0  0  0
 81 88  1  0  0  0
 81166  1  0  0  0
 81167  1  0  0  0
 82168  1  0  0  0
 82169  1  0  0  0
 83 88  1  0  0  0
 83170  1  0  0  0
 85171  1  0  0  0
 86172  1  0  0  0
 86173  1  0  0  0
 87174  1  0  0  0
 87175  1  0  0  0
 88176  1  0  0  0
 88177  1  0  0  0
M  CHG  3  86   1  87   1  88   1
M  ISO  4   1 100  68 101  82 101  85 100
M  END
> <chiral flag>
0

> <version>
0

> <s_m_source_file>
/data/baiqing/PycharmProjects/Reinvent-master-3.2/result/LINK_invent/BTK/process_docking_weight1_custom_sum_contain_oxygen_bond_distance_aromatic_linkinvent_7_9_3/rearranged_h_0132.sdf

> <i_m_source_file_index>
45

> <r_mmod_Potential_Energy-OPLS-2005>
-410.020721435547

> <r_mmod_Stretch_Energy-OPLS-2005>
45.2444496154785

> <r_mmod_Bend_Energy-OPLS-2005>
149.306655883789

> <r_mmod_Torsional_Energy-OPLS-2005>
315.864318847656

> <r_mmod_Improper_Torsional_Energy-OPLS-2005>
10.2582569122314

> <r_mmod_Van_der_Waal_Energy-OPLS-2005>
144.787048339844

> <r_mmod_Electrostatic_Energy-OPLS-2005>
534.942626953125

> <r_mmod_Solvation_Energy-OPLS-2005>
-1634.85205078125

> <b_mmod_Minimization_Converged-OPLS-2005>
0

> <r_mmod_RMS_Derivative-OPLS-2005>
5.23178815841675

$$$$
46
                    3D
 Structure written by MMmdl.
165174  0  0  1  0            999 V2000
  -30.6844  -14.6274   20.5099 C   0  0  0  0  0  0
  -30.4225  -12.3905   19.4585 C   0  0  0  0  0  0
  -29.5007  -12.4969   18.2256 C   0  0  0  0  0  0
  -28.0269  -12.3370   18.6430 C   0  0  0  0  0  0
  -27.6488  -13.2253   19.8582 C   0  0  2  0  0  0
  -28.6957  -13.1225   20.9904 C   0  0  0  0  0  0
  -25.2542  -13.8179   20.5715 C   0  0  0  0  0  0
  -24.1812  -13.0427   20.9199 C   0  0  0  0  0  0
  -24.6392  -11.6900   20.8730 C   0  0  0  0  0  0
  -23.9056  -10.4284   21.0398 C   0  0  0  0  0  0
  -24.3600   -9.4212   21.9188 C   0  0  0  0  0  0
  -23.6290   -8.2238   22.0755 C   0  0  0  0  0  0
  -22.4274   -8.0272   21.3543 C   0  0  0  0  0  0
  -21.9905   -9.0232   20.4635 C   0  0  0  0  0  0
  -22.7221  -10.2118   20.3050 C   0  0  0  0  0  0
  -21.6854   -6.0725   22.5279 C   0  0  0  0  0  0
  -21.4008   -6.5638   23.8208 C   0  0  0  0  0  0
  -21.3663   -5.6796   24.9175 C   0  0  0  0  0  0
  -21.6046   -4.3058   24.7227 C   0  0  0  0  0  0
  -21.8817   -3.8139   23.4353 C   0  0  0  0  0  0
  -21.9190   -4.6954   22.3406 C   0  0  0  0  0  0
  -22.7836  -13.5218   21.1869 C   0  0  0  0  0  0
  -22.1663   -4.2133   21.0986 F   0  0  0  0  0  0
  -21.5630   -3.4548   25.7746 F   0  0  0  0  0  0
  -30.0089  -13.4396   20.4119 N   0  0  0  0  0  0
  -26.2971  -12.9383   20.3334 N   0  0  0  0  0  0
  -25.9330  -11.6523   20.5759 N   0  0  0  0  0  0
  -22.0488  -12.8181   22.0403 N   0  0  0  0  0  0
  -25.4263  -15.1908   20.4167 N   0  0  0  0  0  0
  -31.8568  -14.7217   20.1422 O   0  0  0  0  0  0
  -21.6644   -6.8860   21.4237 O   0  0  0  0  0  0
  -22.3531  -14.5542   20.6752 O   0  0  0  0  0  0
  -24.6301  -31.8589   23.2055 C   0  0  0  0  0  0
  -25.9146  -32.4779   23.8370 C   0  0  1  0  0  0
  -27.2119  -27.3021   20.1001 C   0  0  0  0  0  0
  -25.5956  -33.8580   24.2290 N   0  0  0  0  0  0
  -23.4217  -30.4898   21.5495 C   0  0  2  0  0  0
  -24.8643  -28.9572   20.1068 C   0  0  0  0  0  0
  -22.7484  -29.4630   22.4924 C   0  0  0  0  0  0
  -18.0290  -28.1377   22.8501 C   0  0  0  0  0  0
  -24.1485  -36.7289   23.2642 C   0  0  0  0  0  0
  -25.9693  -30.7809   21.3839 C   0  0  0  0  0  0
  -26.0378  -29.4103   20.7236 C   0  0  0  0  0  0
  -27.2106  -28.5926   20.7219 C   0  0  0  0  0  0
  -26.0184  -26.9362   19.4263 C   0  0  0  0  0  0
  -24.8590  -27.7223   19.4526 C   0  0  0  0  0  0
  -23.6336  -29.8362   20.1614 C   0  0  0  0  0  0
  -25.4107  -36.3077   24.0330 C   0  0  1  0  0  0
  -20.5903  -28.3681   23.1266 C   0  0  2  0  0  0
  -20.6789  -26.9397   22.5393 C   0  0  0  0  0  0
  -19.5745  -26.6372   21.5217 C   0  0  0  0  0  0
  -18.1922  -26.7927   22.1620 C   0  0  0  0  0  0
  -19.1549  -28.8845   23.2883 C   0  0  0  0  0  0
  -18.9475  -30.1459   23.8893 C   0  0  0  0  0  0
  -17.6478  -30.6586   24.0582 C   0  0  0  0  0  0
  -25.9046  -34.9453   23.5094 C   0  0  0  0  0  0
  -16.5365  -29.9079   23.6352 C   0  0  0  0  0  0
  -16.7274  -28.6501   23.0370 C   0  0  0  0  0  0
  -26.4505  -31.6601   25.0752 C   0  0  0  0  0  0
  -25.3739  -31.3727   26.1486 C   0  0  0  0  0  0
  -27.0408  -30.3050   24.6218 C   0  0  0  0  0  0
  -27.6049  -32.4363   25.7529 C   0  0  0  0  0  0
  -27.5570  -37.1813   24.8471 C   0  0  0  0  0  0
  -21.4194  -29.3062   22.3677 N   0  0  0  0  0  0
  -26.4280  -37.3774   23.9409 N   0  0  0  0  0  0
  -24.6932  -31.0598   22.1018 N   0  0  0  0  0  0
  -23.4196  -28.8133   23.2989 O   0  0  0  0  0  0
  -28.2942  -26.3959   20.1848 O   0  0  0  0  0  0
  -26.5603  -34.8924   22.4658 O   0  0  0  0  0  0
  -23.5462  -32.1384   23.7367 O   0  0  0  0  0  0
  -28.2082  -22.9617   21.3010 C   0  0  0  0  0  0
  -28.6191  -21.6349   21.6100 C   0  0  0  0  0  0
  -30.2218  -21.7247   19.8277 C   0  0  0  0  0  0
  -29.8399  -23.0743   19.5248 C   0  0  0  0  0  0
  -28.7795  -23.7157   20.2415 C   0  0  0  0  0  0
  -29.6190  -20.9673   20.8651 C   0  0  0  0  0  0
  -31.7472  -23.5430   16.3003 C   0  0  0  0  0  0
  -32.8120  -23.4178   17.3885 C   0  0  0  0  0  0
  -30.4489  -23.1856   17.0246 C   0  0  0  0  0  0
  -32.1238  -23.8909   18.6760 C   0  0  0  0  0  0
  -30.6021  -23.8095   18.4213 C   0  0  0  0  0  0
  -28.0198  -25.0032   19.7406 C   0  0  0  0  0  0
  -29.6877  -18.3962   20.5890 C   0  0  0  0  0  0
  -30.5364  -17.1345   21.0622 C   0  0  0  0  0  0
  -30.0790  -19.6696   21.2562 N   0  0  0  0  0  0
  -29.9823  -15.7500   20.8611 N   0  0  0  0  0  0
  -31.4676  -12.4846   19.1590 H   0  0  0  0  0  0
  -30.3324  -11.4051   19.9198 H   0  0  0  0  0  0
  -29.7637  -11.7356   17.4897 H   0  0  0  0  0  0
  -29.6442  -13.4602   17.7333 H   0  0  0  0  0  0
  -27.8723  -11.2868   18.8923 H   0  0  0  0  0  0
  -27.3678  -12.5472   17.7999 H   0  0  0  0  0  0
  -27.6555  -14.2536   19.4969 H   0  0  0  0  0  0
  -28.7044  -12.1194   21.4190 H   0  0  0  0  0  0
  -28.4460  -13.7982   21.8098 H   0  0  0  0  0  0
  -25.2738   -9.5701   22.4775 H   0  0  0  0  0  0
  -23.9991   -7.4643   22.7490 H   0  0  0  0  0  0
  -21.0836   -8.8739   19.8952 H   0  0  0  0  0  0
  -22.3673  -10.9649   19.6156 H   0  0  0  0  0  0
  -21.1999   -7.6145   23.9699 H   0  0  0  0  0  0
  -21.1489   -6.0537   25.9074 H   0  0  0  0  0  0
  -22.0589   -2.7598   23.2865 H   0  0  0  0  0  0
  -22.4110  -11.9808   22.4720 H   0  0  0  0  0  0
  -21.1107  -13.1187   22.2631 H   0  0  0  0  0  0
  -24.6616  -15.8470   20.5329 H   0  0  0  0  0  0
  -26.2810  -15.6296   20.0984 H   0  0  0  0  0  0
  -26.7211  -32.5430   23.1117 H   0  0  0  0  0  0
  -25.0206  -33.9720   25.0504 H   0  0  0  0  0  0
  -22.7186  -31.3144   21.4107 H   0  0  0  0  0  0
  -23.3754  -35.9614   23.3289 H   0  0  0  0  0  0
  -24.3580  -36.8909   22.2059 H   0  0  0  0  0  0
  -23.7221  -37.6482   23.6672 H   0  0  0  0  0  0
  -26.1088  -31.5402   20.6129 H   0  0  0  0  0  0
  -26.8499  -30.8251   22.0119 H   0  0  0  0  0  0
  -28.1022  -28.9279   21.2331 H   0  0  0  0  0  0
  -25.9191  -26.0192   18.8670 H   0  0  0  0  0  0
  -23.9687  -27.3707   18.9488 H   0  0  0  0  0  0
  -23.7468  -30.6190   19.4106 H   0  0  0  0  0  0
  -22.7536  -29.2653   19.8577 H   0  0  0  0  0  0
  -25.1273  -36.1941   25.0821 H   0  0  0  0  0  0
  -21.0011  -28.3245   24.1377 H   0  0  0  0  0  0
  -20.5708  -26.2273   23.3589 H   0  0  0  0  0  0
  -21.6636  -26.7425   22.1161 H   0  0  0  0  0  0
  -19.6902  -25.6283   21.1231 H   0  0  0  0  0  0
  -19.6689  -27.3205   20.6774 H   0  0  0  0  0  0
  -17.4191  -26.6732   21.4007 H   0  0  0  0  0  0
  -18.0291  -26.0037   22.8985 H   0  0  0  0  0  0
  -19.7951  -30.7310   24.2213 H   0  0  0  0  0  0
  -17.5021  -31.6271   24.5181 H   0  0  0  0  0  0
  -15.5369  -30.2998   23.7672 H   0  0  0  0  0  0
  -15.8663  -28.0832   22.7084 H   0  0  0  0  0  0
  -24.5953  -30.7010   25.7830 H   0  0  0  0  0  0
  -24.8898  -32.2887   26.4882 H   0  0  0  0  0  0
  -25.8076  -30.8952   27.0283 H   0  0  0  0  0  0
  -26.3022  -29.6769   24.1222 H   0  0  0  0  0  0
  -27.4123  -29.7301   25.4714 H   0  0  0  0  0  0
  -27.8854  -30.4351   23.9444 H   0  0  0  0  0  0
  -27.2655  -33.3703   26.1999 H   0  0  0  0  0  0
  -28.3922  -32.6851   25.0406 H   0  0  0  0  0  0
  -28.0648  -31.8565   26.5535 H   0  0  0  0  0  0
  -28.2584  -38.0125   24.7529 H   0  0  0  0  0  0
  -28.1066  -36.2650   24.6272 H   0  0  0  0  0  0
  -27.2280  -37.1407   25.8875 H   0  0  0  0  0  0
  -20.9349  -29.8840   21.6952 H   0  0  0  0  0  0
  -26.0157  -38.2839   24.1430 H   0  0  0  0  0  0
  -27.3869  -23.3827   21.8640 H   0  0  0  0  0  0
  -28.1338  -21.1244   22.4303 H   0  0  0  0  0  0
  -31.0275  -21.2726   19.2644 H   0  0  0  0  0  0
  -31.9450  -22.8976   15.4434 H   0  0  0  0  0  0
  -31.7048  -24.5722   15.9402 H   0  0  0  0  0  0
  -33.7195  -23.9795   17.1600 H   0  0  0  0  0  0
  -33.0979  -22.3699   17.4978 H   0  0  0  0  0  0
  -30.3834  -22.0985   17.0907 H   0  0  0  0  0  0
  -29.5578  -23.5340   16.5017 H   0  0  0  0  0  0
  -32.4012  -24.9223   18.8970 H   0  0  0  0  0  0
  -32.4512  -23.2922   19.5271 H   0  0  0  0  0  0
  -30.2489  -24.8389   18.3576 H   0  0  0  0  0  0
  -27.0075  -24.7451   20.0474 H   0  0  0  0  0  0
  -28.0068  -24.9910   18.6496 H   0  0  0  0  0  0
  -28.6343  -18.2236   20.8150 H   0  0  0  0  0  0
  -29.7564  -18.5101   19.5059 H   0  0  0  0  0  0
  -30.6994  -17.2174   22.1367 H   0  0  0  0  0  0
  -31.5310  -17.2022   20.6188 H   0  0  0  0  0  0
  -30.0322  -19.5527   22.2661 H   0  0  0  0  0  0
  -29.0082  -15.6144   21.0872 H   0  0  0  0  0  0
  1 25  1  0  0  0
  1 30  2  0  0  0
  1 86  1  0  0  0
  2  3  1  0  0  0
  2 25  1  0  0  0
  2 87  1  0  0  0
  2 88  1  0  0  0
  3  4  1  0  0  0
  3 89  1  0  0  0
  3 90  1  0  0  0
  4  5  1  0  0  0
  4 91  1  0  0  0
  4 92  1  0  0  0
  5  6  1  0  0  0
  5 26  1  0  0  0
  5 93  1  0  0  0
  6 25  1  0  0  0
  6 94  1  0  0  0
  6 95  1  0  0  0
  7  8  2  0  0  0
  7 26  1  0  0  0
  7 29  1  0  0  0
  8  9  1  0  0  0
  8 22  1  0  0  0
  9 10  1  0  0  0
  9 27  2  0  0  0
 10 11  2  0  0  0
 10 15  1  0  0  0
 11 12  1  0  0  0
 11 96  1  0  0  0
 12 13  2  0  0  0
 12 97  1  0  0  0
 13 14  1  0  0  0
 13 31  1  0  0  0
 14 15  2  0  0  0
 14 98  1  0  0  0
 15 99  1  0  0  0
 16 17  2  0  0  0
 16 21  1  0  0  0
 16 31  1  0  0  0
 17 18  1  0  0  0
 17100  1  0  0  0
 18 19  2  0  0  0
 18101  1  0  0  0
 19 20  1  0  0  0
 19 24  1  0  0  0
 20 21  2  0  0  0
 20102  1  0  0  0
 21 23  1  0  0  0
 22 28  1  0  0  0
 22 32  2  0  0  0
 26 27  1  0  0  0
 28103  1  0  0  0
 28104  1  0  0  0
 29105  1  0  0  0
 29106  1  0  0  0
 33 34  1  0  0  0
 33 66  1  0  0  0
 33 70  2  0  0  0
 34 36  1  0  0  0
 34 59  1  0  0  0
 34107  1  0  0  0
 35 44  2  0  0  0
 35 45  1  0  0  0
 35 68  1  0  0  0
 36 56  1  0  0  0
 36108  1  0  0  0
 37 39  1  0  0  0
 37 47  1  0  0  0
 37 66  1  0  0  0
 37109  1  0  0  0
 38 43  2  0  0  0
 38 46  1  0  0  0
 38 47  1  0  0  0
 39 64  1  0  0  0
 39 67  2  0  0  0
 40 52  1  0  0  0
 40 53  2  0  0  0
 40 58  1  0  0  0
 41110  1  0  0  0
 41111  1  0  0  0
 41112  1  0  0  0
 41 48  1  0  0  0
 42 43  1  0  0  0
 42 66  1  0  0  0
 42113  1  0  0  0
 42114  1  0  0  0
 43 44  1  0  0  0
 44115  1  0  0  0
 45 46  2  0  0  0
 45116  1  0  0  0
 46117  1  0  0  0
 47118  1  0  0  0
 47119  1  0  0  0
 48 56  1  0  0  0
 48 65  1  0  0  0
 48120  1  0  0  0
 49 50  1  0  0  0
 49 53  1  0  0  0
 49 64  1  0  0  0
 49121  1  0  0  0
 50 51  1  0  0  0
 50122  1  0  0  0
 50123  1  0  0  0
 51 52  1  0  0  0
 51124  1  0  0  0
 51125  1  0  0  0
 52126  1  0  0  0
 52127  1  0  0  0
 53 54  1  0  0  0
 54 55  2  0  0  0
 54128  1  0  0  0
 55 57  1  0  0  0
 55129  1  0  0  0
 56 69  2  0  0  0
 57 58  2  0  0  0
 57130  1  0  0  0
 58131  1  0  0  0
 59 60  1  0  0  0
 59 61  1  0  0  0
 59 62  1  0  0  0
 60132  1  0  0  0
 60133  1  0  0  0
 60134  1  0  0  0
 61135  1  0  0  0
 61136  1  0  0  0
 61137  1  0  0  0
 62138  1  0  0  0
 62139  1  0  0  0
 62140  1  0  0  0
 63 65  1  0  0  0
 63141  1  0  0  0
 63142  1  0  0  0
 63143  1  0  0  0
 64144  1  0  0  0
 65145  1  0  0  0
 68 82  1  0  0  0
 71 72  2  0  0  0
 71 75  1  0  0  0
 71146  1  0  0  0
 72 76  1  0  0  0
 72147  1  0  0  0
 73 74  1  0  0  0
 73 76  2  0  0  0
 73148  1  0  0  0
 74 75  2  0  0  0
 74 81  1  0  0  0
 75 82  1  0  0  0
 76 85  1  0  0  0
 77 78  1  0  0  0
 77 79  1  0  0  0
 77149  1  0  0  0
 77150  1  0  0  0
 78 80  1  0  0  0
 78151  1  0  0  0
 78152  1  0  0  0
 79 81  1  0  0  0
 79153  1  0  0  0
 79154  1  0  0  0
 80 81  1  0  0  0
 80155  1  0  0  0
 80156  1  0  0  0
 81157  1  0  0  0
 82158  1  0  0  0
 82159  1  0  0  0
 83 84  1  0  0  0
 83 85  1  0  0  0
 83160  1  0  0  0
 83161  1  0  0  0
 84 86  1  0  0  0
 84162  1  0  0  0
 84163  1  0  0  0
 85164  1  0  0  0
 86165  1  0  0  0
M  ISO  4   1 100  68 101  82 101  86 100
M  END
> <chiral flag>
0

> <version>
0

> <s_m_source_file>
/data/baiqing/PycharmProjects/Reinvent-master-3.2/result/LINK_invent/BTK/process_docking_weight1_custom_sum_contain_oxygen_bond_distance_aromatic_linkinvent_7_9_3/rearranged_h_0132.sdf

> <i_m_source_file_index>
46

> <r_mmod_Potential_Energy-OPLS-2005>
129.103713989258

> <r_mmod_Stretch_Energy-OPLS-2005>
79.1309585571289

> <r_mmod_Bend_Energy-OPLS-2005>
175.347091674805

> <r_mmod_Torsional_Energy-OPLS-2005>
288.511932373047

> <r_mmod_Improper_Torsional_Energy-OPLS-2005>
10.5718421936035

> <r_mmod_Van_der_Waal_Energy-OPLS-2005>
154.715286254883

> <r_mmod_Electrostatic_Energy-OPLS-2005>
-414.751861572266

> <r_mmod_Solvation_Energy-OPLS-2005>
-222.071334838867

> <b_mmod_Minimization_Converged-OPLS-2005>
0

> <r_mmod_RMS_Derivative-OPLS-2005>
2.53725385665894

$$$$
47
                    3D
 Structure written by MMmdl.
178187  0  0  1  0            999 V2000
  -30.7567  -14.6022   20.5332 C   0  0  0  0  0  0
  -30.4146  -12.3871   19.4576 C   0  0  0  0  0  0
  -29.4999  -12.4888   18.2213 C   0  0  0  0  0  0
  -28.0331  -12.2849   18.6390 C   0  0  0  0  0  0
  -27.6423  -13.1894   19.8317 C   0  0  2  0  0  0
  -28.6924  -13.1331   20.9763 C   0  0  0  0  0  0
  -25.2574  -13.8073   20.5634 C   0  0  0  0  0  0
  -24.1822  -13.0397   20.9204 C   0  0  0  0  0  0
  -24.6360  -11.6851   20.8763 C   0  0  0  0  0  0
  -23.9012  -10.4266   21.0439 C   0  0  0  0  0  0
  -24.3581   -9.4188   21.9214 C   0  0  0  0  0  0
  -23.6273   -8.2209   22.0761 C   0  0  0  0  0  0
  -22.4260   -8.0247   21.3547 C   0  0  0  0  0  0
  -21.9883   -9.0217   20.4664 C   0  0  0  0  0  0
  -22.7193  -10.2101   20.3082 C   0  0  0  0  0  0
  -21.6832   -6.0720   22.5292 C   0  0  0  0  0  0
  -21.3980   -6.5629   23.8228 C   0  0  0  0  0  0
  -21.3672   -5.6786   24.9187 C   0  0  0  0  0  0
  -21.6053   -4.3040   24.7236 C   0  0  0  0  0  0
  -21.8815   -3.8130   23.4354 C   0  0  0  0  0  0
  -21.9181   -4.6958   22.3413 C   0  0  0  0  0  0
  -22.7858  -13.5233   21.1876 C   0  0  0  0  0  0
  -22.1656   -4.2147   21.0993 F   0  0  0  0  0  0
  -21.5668   -3.4524   25.7748 F   0  0  0  0  0  0
  -30.0139  -13.4488   20.4118 N   0  0  0  0  0  0
  -26.2932  -12.9204   20.3166 N   0  0  0  0  0  0
  -25.9266  -11.6394   20.5710 N   0  0  0  0  0  0
  -22.0446  -12.8254   22.0425 N   0  0  0  0  0  0
  -25.4296  -15.1792   20.4045 N   0  0  0  0  0  0
  -31.9052  -14.6323   20.0839 O   0  0  0  0  0  0
  -21.6619   -6.8852   21.4250 O   0  0  0  0  0  0
  -22.3576  -14.5547   20.6724 O   0  0  0  0  0  0
  -24.6202  -31.8645   23.2064 C   0  0  0  0  0  0
  -25.9063  -32.4813   23.8387 C   0  0  1  0  0  0
  -27.2349  -27.3693   20.1149 C   0  0  0  0  0  0
  -25.5922  -33.8609   24.2317 N   0  0  0  0  0  0
  -23.4134  -30.4879   21.5475 C   0  0  2  0  0  0
  -24.8641  -28.9517   20.1141 C   0  0  0  0  0  0
  -22.7458  -29.4631   22.4943 C   0  0  0  0  0  0
  -18.0284  -28.1380   22.8486 C   0  0  0  0  0  0
  -24.1489  -36.7300   23.2632 C   0  0  0  0  0  0
  -25.9504  -30.8110   21.3729 C   0  0  0  0  0  0
  -26.0293  -29.4413   20.7182 C   0  0  0  0  0  0
  -27.2176  -28.6607   20.7126 C   0  0  0  0  0  0
  -26.0528  -26.9319   19.4710 C   0  0  0  0  0  0
  -24.8755  -27.6997   19.4822 C   0  0  0  0  0  0
  -23.6292  -29.8240   20.1623 C   0  0  0  0  0  0
  -25.4105  -36.3094   24.0334 C   0  0  1  0  0  0
  -20.5884  -28.3670   23.1310 C   0  0  2  0  0  0
  -20.6763  -26.9401   22.5420 C   0  0  0  0  0  0
  -19.5754  -26.6378   21.5212 C   0  0  0  0  0  0
  -18.1928  -26.7927   22.1609 C   0  0  0  0  0  0
  -19.1535  -28.8839   23.2896 C   0  0  0  0  0  0
  -18.9458  -30.1448   23.8893 C   0  0  0  0  0  0
  -17.6457  -30.6583   24.0553 C   0  0  0  0  0  0
  -25.9048  -34.9476   23.5118 C   0  0  0  0  0  0
  -16.5346  -29.9082   23.6328 C   0  0  0  0  0  0
  -16.7274  -28.6505   23.0340 C   0  0  0  0  0  0
  -26.4458  -31.6600   25.0727 C   0  0  0  0  0  0
  -25.3708  -31.3761   26.1473 C   0  0  0  0  0  0
  -27.0252  -30.3014   24.6143 C   0  0  0  0  0  0
  -27.6044  -32.4305   25.7486 C   0  0  0  0  0  0
  -27.5599  -37.1781   24.8442 C   0  0  0  0  0  0
  -21.4170  -29.3036   22.3713 N   0  0  0  0  0  0
  -26.4271  -37.3804   23.9441 N   0  0  0  0  0  0
  -24.6796  -31.0699   22.0993 N   0  0  0  0  0  0
  -23.4211  -28.8162   23.2993 O   0  0  0  0  0  0
  -28.3611  -26.5435   20.1594 O   0  0  0  0  0  0
  -26.5604  -34.8929   22.4672 O   0  0  0  0  0  0
  -23.5374  -32.1413   23.7419 O   0  0  0  0  0  0
  -28.1427  -22.6128   22.3309 C   0  0  0  0  0  0
  -28.6425  -21.1953   22.5388 C   0  0  0  0  0  0
  -31.2102  -18.1513   21.1782 C   0  0  0  0  0  0
  -28.9352  -17.7504   20.3592 C   0  0  0  0  0  0
  -31.1935  -16.7155   21.8137 C   0  0  0  0  0  0
  -28.9357  -16.3476   21.0380 C   0  0  0  0  0  0
  -28.7784  -22.6519   20.9269 C   0  0  2  0  0  0
  -29.6495  -21.3928   21.3917 C   0  0  2  0  0  0
  -29.7983  -18.7856   21.1156 C   0  0  0  0  0  0
  -31.2279  -22.5901   16.7640 C   0  0  0  0  0  0
  -31.5841  -25.1044   16.9098 C   0  0  0  0  0  0
  -31.2916  -23.7275   19.0604 C   0  0  0  0  0  0
  -28.0939  -25.1494   20.5292 C   0  0  0  0  0  0
  -29.2740  -24.0998   20.5092 C   0  0  2  0  0  0
  -31.8012  -23.7462   17.6025 C   0  0  0  0  0  0
  -30.2772  -15.7390   21.1586 N   0  0  0  0  0  0
  -29.7180  -20.1701   20.4940 N   0  3  0  0  0  0
  -29.8673  -24.1159   19.1512 N   0  3  0  0  0  0
  -31.4598  -12.4567   19.1507 H   0  0  0  0  0  0
  -30.3173  -11.4036   19.9206 H   0  0  0  0  0  0
  -29.7843  -11.7461   17.4744 H   0  0  0  0  0  0
  -29.6225  -13.4617   17.7445 H   0  0  0  0  0  0
  -27.9080  -11.2361   18.9107 H   0  0  0  0  0  0
  -27.3705  -12.4623   17.7915 H   0  0  0  0  0  0
  -27.6179  -14.1745   19.3776 H   0  0  0  0  0  0
  -28.7088  -12.1386   21.4274 H   0  0  0  0  0  0
  -28.4268  -13.8113   21.7860 H   0  0  0  0  0  0
  -25.2722   -9.5681   22.4783 H   0  0  0  0  0  0
  -24.0001   -7.4587   22.7448 H   0  0  0  0  0  0
  -21.0818   -8.8710   19.8964 H   0  0  0  0  0  0
  -22.3642  -10.9632   19.6187 H   0  0  0  0  0  0
  -21.1930   -7.6133   23.9724 H   0  0  0  0  0  0
  -21.1528   -6.0516   25.9102 H   0  0  0  0  0  0
  -22.0586   -2.7594   23.2839 H   0  0  0  0  0  0
  -22.3989  -11.9910   22.4844 H   0  0  0  0  0  0
  -21.1071  -13.1346   22.2587 H   0  0  0  0  0  0
  -24.6592  -15.8288   20.5204 H   0  0  0  0  0  0
  -26.2749  -15.6184   20.0670 H   0  0  0  0  0  0
  -26.7139  -32.5509   23.1155 H   0  0  0  0  0  0
  -25.0089  -33.9777   25.0476 H   0  0  0  0  0  0
  -22.7043  -31.3064   21.4070 H   0  0  0  0  0  0
  -23.3779  -35.9601   23.3227 H   0  0  0  0  0  0
  -24.3620  -36.8975   22.2063 H   0  0  0  0  0  0
  -23.7191  -37.6466   23.6679 H   0  0  0  0  0  0
  -26.0761  -31.5761   20.6051 H   0  0  0  0  0  0
  -26.8333  -30.8614   21.9988 H   0  0  0  0  0  0
  -28.1096  -29.0318   21.1988 H   0  0  0  0  0  0
  -26.0098  -25.9930   18.9410 H   0  0  0  0  0  0
  -23.9866  -27.3254   18.9928 H   0  0  0  0  0  0
  -23.7439  -30.5998   19.4046 H   0  0  0  0  0  0
  -22.7531  -29.2469   19.8626 H   0  0  0  0  0  0
  -25.1267  -36.1939   25.0825 H   0  0  0  0  0  0
  -20.9988  -28.3219   24.1426 H   0  0  0  0  0  0
  -20.5656  -26.2277   23.3607 H   0  0  0  0  0  0
  -21.6636  -26.7419   22.1232 H   0  0  0  0  0  0
  -19.6911  -25.6287   21.1248 H   0  0  0  0  0  0
  -19.6713  -27.3176   20.6733 H   0  0  0  0  0  0
  -17.4219  -26.6698   21.3990 H   0  0  0  0  0  0
  -18.0310  -26.0060   22.8996 H   0  0  0  0  0  0
  -19.7938  -30.7266   24.2253 H   0  0  0  0  0  0
  -17.5017  -31.6263   24.5152 H   0  0  0  0  0  0
  -15.5342  -30.2974   23.7662 H   0  0  0  0  0  0
  -15.8682  -28.0828   22.7031 H   0  0  0  0  0  0
  -24.5914  -30.7050   25.7847 H   0  0  0  0  0  0
  -24.8853  -32.2932   26.4822 H   0  0  0  0  0  0
  -25.8056  -30.9036   27.0290 H   0  0  0  0  0  0
  -26.2794  -29.6834   24.1127 H   0  0  0  0  0  0
  -27.3902  -29.7205   25.4623 H   0  0  0  0  0  0
  -27.8700  -30.4289   23.9369 H   0  0  0  0  0  0
  -27.2670  -33.3604   26.2081 H   0  0  0  0  0  0
  -28.3846  -32.6865   25.0303 H   0  0  0  0  0  0
  -28.0716  -31.8411   26.5388 H   0  0  0  0  0  0
  -28.2540  -38.0157   24.7608 H   0  0  0  0  0  0
  -28.1168  -36.2700   24.6083 H   0  0  0  0  0  0
  -27.2362  -37.1205   25.8852 H   0  0  0  0  0  0
  -20.9323  -29.8802   21.6976 H   0  0  0  0  0  0
  -26.0149  -38.2861   24.1519 H   0  0  0  0  0  0
  -28.6048  -23.3108   23.0318 H   0  0  0  0  0  0
  -27.0547  -22.7070   22.3413 H   0  0  0  0  0  0
  -27.8547  -20.4688   22.3272 H   0  0  0  0  0  0
  -29.1006  -21.0140   23.5119 H   0  0  0  0  0  0
  -31.6389  -18.0958   20.1760 H   0  0  0  0  0  0
  -31.8754  -18.7913   21.7578 H   0  0  0  0  0  0
  -27.9071  -18.1073   20.2868 H   0  0  0  0  0  0
  -29.2968  -17.6494   19.3340 H   0  0  0  0  0  0
  -30.8877  -16.7935   22.8594 H   0  0  0  0  0  0
  -32.2145  -16.3328   21.8551 H   0  0  0  0  0  0
  -28.2643  -15.7308   20.4683 H   0  0  0  0  0  0
  -28.4996  -16.4189   22.0346 H   0  0  0  0  0  0
  -28.0251  -22.2972   20.2197 H   0  0  0  0  0  0
  -30.6305  -21.6822   21.7777 H   0  0  0  0  0  0
  -29.4211  -18.8257   22.1365 H   0  0  0  0  0  0
  -31.6812  -22.5684   15.7725 H   0  0  0  0  0  0
  -30.1500  -22.6764   16.6238 H   0  0  0  0  0  0
  -31.4281  -21.6239   17.2285 H   0  0  0  0  0  0
  -32.1160  -25.1418   15.9589 H   0  0  0  0  0  0
  -31.9546  -25.9304   17.5183 H   0  0  0  0  0  0
  -30.5317  -25.2930   16.6926 H   0  0  0  0  0  0
  -31.8892  -24.4141   19.6629 H   0  0  0  0  0  0
  -31.4420  -22.7371   19.4912 H   0  0  0  0  0  0
  -27.6603  -25.1732   21.5300 H   0  0  0  0  0  0
  -27.3266  -24.7220   19.8886 H   0  0  0  0  0  0
  -30.0250  -24.4502   21.2184 H   0  0  0  0  0  0
  -32.8807  -23.5901   17.6545 H   0  0  0  0  0  0
  -30.4762  -20.2712   19.8400 H   0  0  0  0  0  0
  -28.8728  -20.1641   19.9453 H   0  0  0  0  0  0
  -29.3084  -23.5705   18.5150 H   0  0  0  0  0  0
  -29.8229  -25.0737   18.8328 H   0  0  0  0  0  0
  1 25  1  0  0  0
  1 30  2  0  0  0
  1 86  1  0  0  0
  2  3  1  0  0  0
  2 25  1  0  0  0
  2 89  1  0  0  0
  2 90  1  0  0  0
  3  4  1  0  0  0
  3 91  1  0  0  0
  3 92  1  0  0  0
  4  5  1  0  0  0
  4 93  1  0  0  0
  4 94  1  0  0  0
  5  6  1  0  0  0
  5 26  1  0  0  0
  5 95  1  0  0  0
  6 25  1  0  0  0
  6 96  1  0  0  0
  6 97  1  0  0  0
  7  8  2  0  0  0
  7 26  1  0  0  0
  7 29  1  0  0  0
  8  9  1  0  0  0
  8 22  1  0  0  0
  9 10  1  0  0  0
  9 27  2  0  0  0
 10 11  2  0  0  0
 10 15  1  0  0  0
 11 12  1  0  0  0
 11 98  1  0  0  0
 12 13  2  0  0  0
 12 99  1  0  0  0
 13 14  1  0  0  0
 13 31  1  0  0  0
 14 15  2  0  0  0
 14100  1  0  0  0
 15101  1  0  0  0
 16 17  2  0  0  0
 16 21  1  0  0  0
 16 31  1  0  0  0
 17 18  1  0  0  0
 17102  1  0  0  0
 18 19  2  0  0  0
 18103  1  0  0  0
 19 20  1  0  0  0
 19 24  1  0  0  0
 20 21  2  0  0  0
 20104  1  0  0  0
 21 23  1  0  0  0
 22 28  1  0  0  0
 22 32  2  0  0  0
 26 27  1  0  0  0
 28105  1  0  0  0
 28106  1  0  0  0
 29107  1  0  0  0
 29108  1  0  0  0
 33 34  1  0  0  0
 33 66  1  0  0  0
 33 70  2  0  0  0
 34 36  1  0  0  0
 34 59  1  0  0  0
 34109  1  0  0  0
 35 44  2  0  0  0
 35 45  1  0  0  0
 35 68  1  0  0  0
 36 56  1  0  0  0
 36110  1  0  0  0
 37 39  1  0  0  0
 37 47  1  0  0  0
 37 66  1  0  0  0
 37111  1  0  0  0
 38 43  2  0  0  0
 38 46  1  0  0  0
 38 47  1  0  0  0
 39 64  1  0  0  0
 39 67  2  0  0  0
 40 52  1  0  0  0
 40 53  2  0  0  0
 40 58  1  0  0  0
 41112  1  0  0  0
 41113  1  0  0  0
 41114  1  0  0  0
 41 48  1  0  0  0
 42 43  1  0  0  0
 42 66  1  0  0  0
 42115  1  0  0  0
 42116  1  0  0  0
 43 44  1  0  0  0
 44117  1  0  0  0
 45 46  2  0  0  0
 45118  1  0  0  0
 46119  1  0  0  0
 47120  1  0  0  0
 47121  1  0  0  0
 48 56  1  0  0  0
 48 65  1  0  0  0
 48122  1  0  0  0
 49 50  1  0  0  0
 49 53  1  0  0  0
 49 64  1  0  0  0
 49123  1  0  0  0
 50 51  1  0  0  0
 50124  1  0  0  0
 50125  1  0  0  0
 51 52  1  0  0  0
 51126  1  0  0  0
 51127  1  0  0  0
 52128  1  0  0  0
 52129  1  0  0  0
 53 54  1  0  0  0
 54 55  2  0  0  0
 54130  1  0  0  0
 55 57  1  0  0  0
 55131  1  0  0  0
 56 69  2  0  0  0
 57 58  2  0  0  0
 57132  1  0  0  0
 58133  1  0  0  0
 59 60  1  0  0  0
 59 61  1  0  0  0
 59 62  1  0  0  0
 60134  1  0  0  0
 60135  1  0  0  0
 60136  1  0  0  0
 61137  1  0  0  0
 61138  1  0  0  0
 61139  1  0  0  0
 62140  1  0  0  0
 62141  1  0  0  0
 62142  1  0  0  0
 63 65  1  0  0  0
 63143  1  0  0  0
 63144  1  0  0  0
 63145  1  0  0  0
 64146  1  0  0  0
 65147  1  0  0  0
 68 83  1  0  0  0
 71 72  1  0  0  0
 71148  1  0  0  0
 71149  1  0  0  0
 71 77  1  0  0  0
 72 78  1  0  0  0
 72150  1  0  0  0
 72151  1  0  0  0
 73 75  1  0  0  0
 73 79  1  0  0  0
 73152  1  0  0  0
 73153  1  0  0  0
 74 76  1  0  0  0
 74 79  1  0  0  0
 74154  1  0  0  0
 74155  1  0  0  0
 75 86  1  0  0  0
 75156  1  0  0  0
 75157  1  0  0  0
 76 86  1  0  0  0
 76158  1  0  0  0
 76159  1  0  0  0
 77 78  1  0  0  0
 77 84  1  0  0  0
 77160  1  0  0  0
 78 87  1  0  0  0
 78161  1  0  0  0
 79 87  1  0  0  0
 79162  1  0  0  0
 80163  1  0  0  0
 80164  1  0  0  0
 80165  1  0  0  0
 80 85  1  0  0  0
 81 85  1  0  0  0
 81166  1  0  0  0
 81167  1  0  0  0
 81168  1  0  0  0
 82 85  1  0  0  0
 82 88  1  0  0  0
 82169  1  0  0  0
 82170  1  0  0  0
 83171  1  0  0  0
 83172  1  0  0  0
 83 84  1  0  0  0
 84 88  1  0  0  0
 84173  1  0  0  0
 85174  1  0  0  0
 87175  1  0  0  0
 87176  1  0  0  0
 88177  1  0  0  0
 88178  1  0  0  0
M  CHG  2  87   1  88   1
M  ISO  4   1 100  68 101  83 101  86 100
M  END
> <chiral flag>
0

> <version>
0

> <s_m_source_file>
/data/baiqing/PycharmProjects/Reinvent-master-3.2/result/LINK_invent/BTK/process_docking_weight1_custom_sum_contain_oxygen_bond_distance_aromatic_linkinvent_7_9_3/rearranged_h_0132.sdf

> <i_m_source_file_index>
47

> <r_mmod_Potential_Energy-OPLS-2005>
97.5830612182617

> <r_mmod_Stretch_Energy-OPLS-2005>
74.5000915527344

> <r_mmod_Bend_Energy-OPLS-2005>
173.752349853516

> <r_mmod_Torsional_Energy-OPLS-2005>
395.036071777344

> <r_mmod_Improper_Torsional_Energy-OPLS-2005>
2.09721732139587

> <r_mmod_Van_der_Waal_Energy-OPLS-2005>
136.782119750977

> <r_mmod_Electrostatic_Energy-OPLS-2005>
226.82258605957

> <r_mmod_Solvation_Energy-OPLS-2005>
-951.894653320312

> <b_mmod_Minimization_Converged-OPLS-2005>
0

> <r_mmod_RMS_Derivative-OPLS-2005>
2.61478304862976

$$$$
48
                    3D
 Structure written by MMmdl.
170179  0  0  1  0            999 V2000
  -30.5407  -14.9634   20.4315 C   0  0  0  0  0  0
  -30.4420  -12.6022   19.4998 C   0  0  0  0  0  0
  -29.5236  -12.5421   18.2556 C   0  0  0  0  0  0
  -28.0556  -12.3234   18.6714 C   0  0  0  0  0  0
  -27.6302  -13.2538   19.8362 C   0  0  2  0  0  0
  -28.6716  -13.2855   20.9742 C   0  0  0  0  0  0
  -25.2469  -13.8228   20.5661 C   0  0  0  0  0  0
  -24.1784  -13.0437   20.9205 C   0  0  0  0  0  0
  -24.6426  -11.6941   20.8764 C   0  0  0  0  0  0
  -23.9134  -10.4309   21.0424 C   0  0  0  0  0  0
  -24.3678   -9.4225   21.9202 C   0  0  0  0  0  0
  -23.6325   -8.2274   22.0780 C   0  0  0  0  0  0
  -22.4308   -8.0325   21.3560 C   0  0  0  0  0  0
  -21.9953   -9.0315   20.4667 C   0  0  0  0  0  0
  -22.7310  -10.2176   20.3069 C   0  0  0  0  0  0
  -21.6853   -6.0768   22.5278 C   0  0  0  0  0  0
  -21.4007   -6.5660   23.8214 C   0  0  0  0  0  0
  -21.3651   -5.6810   24.9171 C   0  0  0  0  0  0
  -21.6034   -4.3076   24.7214 C   0  0  0  0  0  0
  -21.8827   -3.8174   23.4335 C   0  0  0  0  0  0
  -21.9195   -4.6995   22.3386 C   0  0  0  0  0  0
  -22.7816  -13.5223   21.1865 C   0  0  0  0  0  0
  -22.1664   -4.2177   21.0967 F   0  0  0  0  0  0
  -21.5634   -3.4552   25.7721 F   0  0  0  0  0  0
  -29.9451  -13.7025   20.3746 N   0  0  0  0  0  0
  -26.2904  -12.9468   20.3241 N   0  0  0  0  0  0
  -25.9363  -11.6605   20.5782 N   0  0  0  0  0  0
  -22.0474  -12.8195   22.0435 N   0  0  0  0  0  0
  -25.4111  -15.1934   20.3988 N   0  0  0  0  0  0
  -31.7464  -15.0284   20.1705 O   0  0  0  0  0  0
  -21.6643   -6.8936   21.4260 O   0  0  0  0  0  0
  -22.3502  -14.5524   20.6737 O   0  0  0  0  0  0
  -24.6458  -31.8446   23.1895 C   0  0  0  0  0  0
  -25.9236  -32.4692   23.8284 C   0  0  1  0  0  0
  -27.1997  -27.1210   20.1456 C   0  0  0  0  0  0
  -25.6015  -33.8505   24.2232 N   0  0  0  0  0  0
  -23.4462  -30.4693   21.5375 C   0  0  2  0  0  0
  -24.8928  -28.9008   20.1056 C   0  0  0  0  0  0
  -22.7537  -29.4544   22.4844 C   0  0  0  0  0  0
  -18.0322  -28.1337   22.8573 C   0  0  0  0  0  0
  -24.1505  -36.7260   23.2620 C   0  0  0  0  0  0
  -26.0049  -30.7176   21.3873 C   0  0  0  0  0  0
  -26.0740  -29.3288   20.7246 C   0  0  0  0  0  0
  -27.2313  -28.4580   20.7224 C   0  0  0  0  0  0
  -25.9886  -26.8022   19.4896 C   0  0  0  0  0  0
  -24.8643  -27.6528   19.4702 C   0  0  0  0  0  0
  -23.6731  -29.8087   20.1521 C   0  0  0  0  0  0
  -25.4146  -36.3048   24.0300 C   0  0  1  0  0  0
  -20.5931  -28.3611   23.1193 C   0  0  2  0  0  0
  -20.6772  -26.9295   22.5377 C   0  0  0  0  0  0
  -19.5516  -26.5922   21.5523 C   0  0  0  0  0  0
  -18.1869  -26.7672   22.2181 C   0  0  0  0  0  0
  -19.1609  -28.8788   23.2882 C   0  0  0  0  0  0
  -18.9579  -30.1329   23.9016 C   0  0  0  0  0  0
  -17.6606  -30.6488   24.0747 C   0  0  0  0  0  0
  -25.9087  -34.9405   23.5056 C   0  0  0  0  0  0
  -16.5485  -29.9107   23.6340 C   0  0  0  0  0  0
  -16.7335  -28.6547   23.0318 C   0  0  0  0  0  0
  -26.4552  -31.6515   25.0700 C   0  0  0  0  0  0
  -25.3740  -31.3696   26.1401 C   0  0  0  0  0  0
  -27.0397  -30.2914   24.6211 C   0  0  0  0  0  0
  -27.6072  -32.4257   25.7504 C   0  0  0  0  0  0
  -27.5598  -37.1800   24.8443 C   0  0  0  0  0  0
  -21.4247  -29.2918   22.3508 N   0  0  0  0  0  0
  -26.4322  -37.3747   23.9368 N   0  0  0  0  0  0
  -24.7196  -31.0279   22.0945 N   0  0  0  0  0  0
  -23.4154  -28.8144   23.3049 O   0  0  0  0  0  0
  -28.2347  -26.1100   20.2188 O   0  0  0  0  0  0
  -26.5603  -34.8900   22.4590 O   0  0  0  0  0  0
  -23.5578  -32.1335   23.7101 O   0  0  0  0  0  0
  -27.9114  -18.6780   19.7287 C   0  0  0  0  0  0
  -29.3908  -20.4271   20.4610 C   0  0  0  0  0  0
  -29.1484  -18.9702   20.3026 C   0  0  0  0  0  0
  -27.0172  -19.6714   19.2650 C   0  0  0  0  0  0
  -28.4990  -21.5455   20.0365 C   0  0  0  0  0  0
  -27.3056  -21.0862   19.3632 C   0  0  0  0  0  0
  -23.1472  -22.7724   17.3744 C   0  0  0  0  0  0
  -23.9563  -21.8470   18.2879 C   0  0  0  0  0  0
  -25.3508  -22.6331   16.5154 C   0  0  0  0  0  0
  -23.8939  -22.6867   16.0493 C   0  0  2  0  0  0
  -25.7429  -19.0797   18.6686 C   0  0  0  0  0  0
  -28.8736  -23.1785   20.2343 C   0  0  0  0  0  0
  -30.1212  -17.6897   20.6801 C   0  0  0  0  0  0
  -26.4062  -22.1677   18.7324 C   0  0  0  0  0  0
  -27.9019  -24.5841   20.0761 C   0  0  0  0  0  0
  -29.7622  -16.1473   20.5910 N   0  0  0  0  0  0
  -25.3453  -21.8096   17.7527 N   0  3  1  0  0  0
  -23.6127  -23.8008   15.2173 O   0  0  0  0  0  0
  -31.4768  -12.7652   19.1963 H   0  0  0  0  0  0
  -30.4414  -11.6486   20.0308 H   0  0  0  0  0  0
  -29.8488  -11.7500   17.5786 H   0  0  0  0  0  0
  -29.6058  -13.4790   17.7004 H   0  0  0  0  0  0
  -27.9532  -11.2814   18.9777 H   0  0  0  0  0  0
  -27.3899  -12.4594   17.8163 H   0  0  0  0  0  0
  -27.5907  -14.2574   19.4088 H   0  0  0  0  0  0
  -28.7569  -12.3111   21.4571 H   0  0  0  0  0  0
  -28.3692  -13.9892   21.7504 H   0  0  0  0  0  0
  -25.2846   -9.5676   22.4767 H   0  0  0  0  0  0
  -24.0028   -7.4663   22.7490 H   0  0  0  0  0  0
  -21.0891   -8.8871   19.8959 H   0  0  0  0  0  0
  -22.3811  -10.9735   19.6174 H   0  0  0  0  0  0
  -21.1997   -7.6167   23.9721 H   0  0  0  0  0  0
  -21.1450   -6.0533   25.9069 H   0  0  0  0  0  0
  -22.0603   -2.7641   23.2818 H   0  0  0  0  0  0
  -22.4090  -11.9819   22.4760 H   0  0  0  0  0  0
  -21.1104  -13.1243   22.2652 H   0  0  0  0  0  0
  -24.6436  -15.8473   20.5133 H   0  0  0  0  0  0
  -26.2526  -15.6294   20.0497 H   0  0  0  0  0  0
  -26.7296  -32.5291   23.1006 H   0  0  0  0  0  0
  -25.0377  -33.9616   25.0538 H   0  0  0  0  0  0
  -22.7502  -31.3004   21.3905 H   0  0  0  0  0  0
  -23.3781  -35.9575   23.3280 H   0  0  0  0  0  0
  -24.3611  -36.8886   22.2030 H   0  0  0  0  0  0
  -23.7224  -37.6447   23.6665 H   0  0  0  0  0  0
  -26.1607  -31.4771   20.6181 H   0  0  0  0  0  0
  -26.8730  -30.7615   22.0335 H   0  0  0  0  0  0
  -28.1330  -28.7835   21.2218 H   0  0  0  0  0  0
  -25.8593  -25.8515   18.9971 H   0  0  0  0  0  0
  -23.9634  -27.3267   18.9676 H   0  0  0  0  0  0
  -23.8195  -30.5915   19.4059 H   0  0  0  0  0  0
  -22.7805  -29.2694   19.8315 H   0  0  0  0  0  0
  -25.1335  -36.1900   25.0792 H   0  0  0  0  0  0
  -21.0064  -28.3199   24.1295 H   0  0  0  0  0  0
  -20.6098  -26.2275   23.3697 H   0  0  0  0  0  0
  -21.6498  -26.7339   22.0870 H   0  0  0  0  0  0
  -19.6540  -25.5663   21.1961 H   0  0  0  0  0  0
  -19.6166  -27.2353   20.6757 H   0  0  0  0  0  0
  -17.3883  -26.5977   21.4957 H   0  0  0  0  0  0
  -18.0570  -26.0171   22.9992 H   0  0  0  0  0  0
  -19.8095  -30.7010   24.2535 H   0  0  0  0  0  0
  -17.5240  -31.6061   24.5596 H   0  0  0  0  0  0
  -15.5506  -30.3015   23.7699 H   0  0  0  0  0  0
  -15.8700  -28.0924   22.7006 H   0  0  0  0  0  0
  -24.5847  -30.7140   25.7704 H   0  0  0  0  0  0
  -24.9060  -32.2903   26.4893 H   0  0  0  0  0  0
  -25.8041  -30.8784   27.0136 H   0  0  0  0  0  0
  -26.2979  -29.6633   24.1263 H   0  0  0  0  0  0
  -27.4082  -29.7185   25.4723 H   0  0  0  0  0  0
  -27.8870  -30.4169   23.9460 H   0  0  0  0  0  0
  -27.2645  -33.3541   26.2081 H   0  0  0  0  0  0
  -28.3907  -32.6824   25.0362 H   0  0  0  0  0  0
  -28.0712  -31.8374   26.5430 H   0  0  0  0  0  0
  -28.2580  -38.0138   24.7557 H   0  0  0  0  0  0
  -28.1126  -36.2659   24.6215 H   0  0  0  0  0  0
  -27.2318  -37.1382   25.8847 H   0  0  0  0  0  0
  -20.9477  -29.8297   21.6411 H   0  0  0  0  0  0
  -26.0199  -38.2813   24.1383 H   0  0  0  0  0  0
  -27.6520  -17.6339   19.6210 H   0  0  0  0  0  0
  -30.3264  -20.7022   20.9246 H   0  0  0  0  0  0
  -23.1924  -23.7872   17.7739 H   0  0  0  0  0  0
  -22.0976  -22.4865   17.2976 H   0  0  0  0  0  0
  -23.5329  -20.8461   18.2410 H   0  0  0  0  0  0
  -23.8944  -22.1715   19.3260 H   0  0  0  0  0  0
  -25.6760  -23.6504   16.7484 H   0  0  0  0  0  0
  -26.0259  -22.2397   15.7528 H   0  0  0  0  0  0
  -23.6373  -21.7589   15.5319 H   0  0  0  0  0  0
  -25.7524  -17.9890   18.7023 H   0  0  0  0  0  0
  -25.6105  -19.3232   17.6158 H   0  0  0  0  0  0
  -24.8718  -19.3697   19.2522 H   0  0  0  0  0  0
  -29.7093  -23.3350   19.5517 H   0  0  0  0  0  0
  -29.3246  -23.2364   21.2259 H   0  0  0  0  0  0
  -30.4079  -17.8590   21.7185 H   0  0  0  0  0  0
  -31.0426  -17.8337   20.1162 H   0  0  0  0  0  0
  -27.1188  -22.7483   18.1547 H   0  0  0  0  0  0
  -25.9987  -22.8088   19.5120 H   0  0  0  0  0  0
  -27.0429  -24.4263   20.7314 H   0  0  0  0  0  0
  -27.5270  -24.5598   19.0595 H   0  0  0  0  0  0
  -28.7866  -15.9486   20.7489 H   0  0  0  0  0  0
  -25.5248  -20.8589   17.4665 H   0  0  0  0  0  0
  -22.6971  -23.7511   14.9531 H   0  0  0  0  0  0
  1 25  1  0  0  0
  1 30  2  0  0  0
  1 86  1  0  0  0
  2  3  1  0  0  0
  2 25  1  0  0  0
  2 89  1  0  0  0
  2 90  1  0  0  0
  3  4  1  0  0  0
  3 91  1  0  0  0
  3 92  1  0  0  0
  4  5  1  0  0  0
  4 93  1  0  0  0
  4 94  1  0  0  0
  5  6  1  0  0  0
  5 26  1  0  0  0
  5 95  1  0  0  0
  6 25  1  0  0  0
  6 96  1  0  0  0
  6 97  1  0  0  0
  7  8  2  0  0  0
  7 26  1  0  0  0
  7 29  1  0  0  0
  8  9  1  0  0  0
  8 22  1  0  0  0
  9 10  1  0  0  0
  9 27  2  0  0  0
 10 11  2  0  0  0
 10 15  1  0  0  0
 11 12  1  0  0  0
 11 98  1  0  0  0
 12 13  2  0  0  0
 12 99  1  0  0  0
 13 14  1  0  0  0
 13 31  1  0  0  0
 14 15  2  0  0  0
 14100  1  0  0  0
 15101  1  0  0  0
 16 17  2  0  0  0
 16 21  1  0  0  0
 16 31  1  0  0  0
 17 18  1  0  0  0
 17102  1  0  0  0
 18 19  2  0  0  0
 18103  1  0  0  0
 19 20  1  0  0  0
 19 24  1  0  0  0
 20 21  2  0  0  0
 20104  1  0  0  0
 21 23  1  0  0  0
 22 28  1  0  0  0
 22 32  2  0  0  0
 26 27  1  0  0  0
 28105  1  0  0  0
 28106  1  0  0  0
 29107  1  0  0  0
 29108  1  0  0  0
 33 34  1  0  0  0
 33 66  1  0  0  0
 33 70  2  0  0  0
 34 36  1  0  0  0
 34 59  1  0  0  0
 34109  1  0  0  0
 35 44  2  0  0  0
 35 45  1  0  0  0
 35 68  1  0  0  0
 36 56  1  0  0  0
 36110  1  0  0  0
 37 39  1  0  0  0
 37 47  1  0  0  0
 37 66  1  0  0  0
 37111  1  0  0  0
 38 43  2  0  0  0
 38 46  1  0  0  0
 38 47  1  0  0  0
 39 64  1  0  0  0
 39 67  2  0  0  0
 40 52  1  0  0  0
 40 53  2  0  0  0
 40 58  1  0  0  0
 41112  1  0  0  0
 41113  1  0  0  0
 41114  1  0  0  0
 41 48  1  0  0  0
 42 43  1  0  0  0
 42 66  1  0  0  0
 42115  1  0  0  0
 42116  1  0  0  0
 43 44  1  0  0  0
 44117  1  0  0  0
 45 46  2  0  0  0
 45118  1  0  0  0
 46119  1  0  0  0
 47120  1  0  0  0
 47121  1  0  0  0
 48 56  1  0  0  0
 48 65  1  0  0  0
 48122  1  0  0  0
 49 50  1  0  0  0
 49 53  1  0  0  0
 49 64  1  0  0  0
 49123  1  0  0  0
 50 51  1  0  0  0
 50124  1  0  0  0
 50125  1  0  0  0
 51 52  1  0  0  0
 51126  1  0  0  0
 51127  1  0  0  0
 52128  1  0  0  0
 52129  1  0  0  0
 53 54  1  0  0  0
 54 55  2  0  0  0
 54130  1  0  0  0
 55 57  1  0  0  0
 55131  1  0  0  0
 56 69  2  0  0  0
 57 58  2  0  0  0
 57132  1  0  0  0
 58133  1  0  0  0
 59 60  1  0  0  0
 59 61  1  0  0  0
 59 62  1  0  0  0
 60134  1  0  0  0
 60135  1  0  0  0
 60136  1  0  0  0
 61137  1  0  0  0
 61138  1  0  0  0
 61139  1  0  0  0
 62140  1  0  0  0
 62141  1  0  0  0
 62142  1  0  0  0
 63 65  1  0  0  0
 63143  1  0  0  0
 63144  1  0  0  0
 63145  1  0  0  0
 64146  1  0  0  0
 65147  1  0  0  0
 68 85  1  0  0  0
 71 73  2  0  0  0
 71 74  1  0  0  0
 71148  1  0  0  0
 72 73  1  0  0  0
 72 75  2  0  0  0
 72149  1  0  0  0
 73 83  1  0  0  0
 74 76  2  0  0  0
 74 81  1  0  0  0
 75 76  1  0  0  0
 75 82  1  0  0  0
 76 84  1  0  0  0
 77 78  1  0  0  0
 77 80  1  0  0  0
 77150  1  0  0  0
 77151  1  0  0  0
 78 87  1  0  0  0
 78152  1  0  0  0
 78153  1  0  0  0
 79 80  1  0  0  0
 79 87  1  0  0  0
 79154  1  0  0  0
 79155  1  0  0  0
 80 88  1  0  0  0
 80156  1  0  0  0
 81157  1  0  0  0
 81158  1  0  0  0
 81159  1  0  0  0
 82 85  1  0  0  0
 82160  1  0  0  0
 82161  1  0  0  0
 83 86  1  0  0  0
 83162  1  0  0  0
 83163  1  0  0  0
 84164  1  0  0  0
 84165  1  0  0  0
 84 87  1  0  0  0
 85166  1  0  0  0
 85167  1  0  0  0
 86168  1  0  0  0
 87169  1  0  0  0
 88170  1  0  0  0
M  CHG  1  87   1
M  ISO  4   1 100  68 101  85 101  86 100
M  END
> <chiral flag>
0

> <version>
0

> <s_m_source_file>
/data/baiqing/PycharmProjects/Reinvent-master-3.2/result/LINK_invent/BTK/process_docking_weight1_custom_sum_contain_oxygen_bond_distance_aromatic_linkinvent_7_9_3/rearranged_h_0132.sdf

> <i_m_source_file_index>
48

> <r_mmod_Potential_Energy-OPLS-2005>
450.964569091797

> <r_mmod_Stretch_Energy-OPLS-2005>
292.575408935547

> <r_mmod_Bend_Energy-OPLS-2005>
313.480651855469

> <r_mmod_Torsional_Energy-OPLS-2005>
265.764251708984

> <r_mmod_Improper_Torsional_Energy-OPLS-2005>
4.0697865486145

> <r_mmod_Van_der_Waal_Energy-OPLS-2005>
145.287155151367

> <r_mmod_Electrostatic_Energy-OPLS-2005>
-294.754821777344

> <r_mmod_Solvation_Energy-OPLS-2005>
-482.877655029297

> <b_mmod_Minimization_Converged-OPLS-2005>
0

> <r_mmod_RMS_Derivative-OPLS-2005>
4.73006534576416

$$$$
49
                    3D
 Structure written by MMmdl.
177185  0  0  1  0            999 V2000
  -30.8106  -14.3162   20.7267 C   0  0  0  0  0  0
  -30.4141  -12.2923   19.3764 C   0  0  0  0  0  0
  -29.4737  -12.5320   18.1828 C   0  0  0  0  0  0
  -28.0028  -12.3830   18.6079 C   0  0  0  0  0  0
  -27.6669  -13.2028   19.8800 C   0  0  2  0  0  0
  -28.7086  -12.9460   20.9926 C   0  0  0  0  0  0
  -25.2606  -13.8161   20.5675 C   0  0  0  0  0  0
  -24.1853  -13.0437   20.9167 C   0  0  0  0  0  0
  -24.6399  -11.6906   20.8727 C   0  0  0  0  0  0
  -23.9065  -10.4294   21.0401 C   0  0  0  0  0  0
  -24.3612   -9.4207   21.9187 C   0  0  0  0  0  0
  -23.6284   -8.2241   22.0766 C   0  0  0  0  0  0
  -22.4270   -8.0277   21.3549 C   0  0  0  0  0  0
  -21.9912   -9.0246   20.4643 C   0  0  0  0  0  0
  -22.7241  -10.2126   20.3048 C   0  0  0  0  0  0
  -21.6848   -6.0736   22.5279 C   0  0  0  0  0  0
  -21.4007   -6.5640   23.8209 C   0  0  0  0  0  0
  -21.3650   -5.6788   24.9172 C   0  0  0  0  0  0
  -21.6044   -4.3055   24.7228 C   0  0  0  0  0  0
  -21.8821   -3.8148   23.4349 C   0  0  0  0  0  0
  -21.9193   -4.6961   22.3404 C   0  0  0  0  0  0
  -22.7874  -13.5238   21.1832 C   0  0  0  0  0  0
  -22.1660   -4.2150   21.0978 F   0  0  0  0  0  0
  -21.5632   -3.4541   25.7742 F   0  0  0  0  0  0
  -30.0549  -13.2222   20.4564 N   0  0  0  0  0  0
  -26.3054  -12.9329   20.3391 N   0  0  0  0  0  0
  -25.9328  -11.6493   20.5767 N   0  0  0  0  0  0
  -22.0497  -12.8212   22.0360 N   0  0  0  0  0  0
  -25.4337  -15.1879   20.4078 N   0  0  0  0  0  0
  -31.7735  -14.6706   20.0419 O   0  0  0  0  0  0
  -21.6633   -6.8879   21.4243 O   0  0  0  0  0  0
  -22.3566  -14.5555   20.6697 O   0  0  0  0  0  0
  -24.6122  -31.8703   23.2128 C   0  0  0  0  0  0
  -25.9027  -32.4822   23.8408 C   0  0  1  0  0  0
  -27.2347  -27.4584   20.0900 C   0  0  0  0  0  0
  -25.5909  -33.8620   24.2358 N   0  0  0  0  0  0
  -23.3978  -30.4931   21.5529 C   0  0  2  0  0  0
  -24.8450  -28.9587   20.1217 C   0  0  0  0  0  0
  -22.7379  -29.4658   22.5018 C   0  0  0  0  0  0
  -18.0265  -28.1373   22.8488 C   0  0  0  0  0  0
  -24.1475  -36.7292   23.2634 C   0  0  0  0  0  0
  -25.9230  -30.8413   21.3608 C   0  0  0  0  0  0
  -26.0023  -29.4728   20.7190 C   0  0  0  0  0  0
  -27.2018  -28.7276   20.7056 C   0  0  0  0  0  0
  -26.0663  -26.9584   19.4773 C   0  0  0  0  0  0
  -24.8688  -27.6962   19.5031 C   0  0  0  0  0  0
  -23.6055  -29.8234   20.1687 C   0  0  0  0  0  0
  -25.4097  -36.3100   24.0349 C   0  0  1  0  0  0
  -20.5846  -28.3646   23.1330 C   0  0  2  0  0  0
  -20.6758  -26.9389   22.5422 C   0  0  0  0  0  0
  -19.5742  -26.6391   21.5201 C   0  0  0  0  0  0
  -18.1907  -26.7928   22.1592 C   0  0  0  0  0  0
  -19.1513  -28.8829   23.2904 C   0  0  0  0  0  0
  -18.9443  -30.1431   23.8922 C   0  0  0  0  0  0
  -17.6452  -30.6583   24.0565 C   0  0  0  0  0  0
  -25.9037  -34.9471   23.5147 C   0  0  0  0  0  0
  -16.5340  -29.9089   23.6336 C   0  0  0  0  0  0
  -16.7259  -28.6504   23.0359 C   0  0  0  0  0  0
  -26.4484  -31.6573   25.0705 C   0  0  0  0  0  0
  -25.3780  -31.3588   26.1453 C   0  0  0  0  0  0
  -27.0328  -30.3043   24.6009 C   0  0  0  0  0  0
  -27.6057  -32.4279   25.7483 C   0  0  0  0  0  0
  -27.5583  -37.1788   24.8457 C   0  0  0  0  0  0
  -21.4116  -29.3018   22.3741 N   0  0  0  0  0  0
  -26.4267  -37.3797   23.9442 N   0  0  0  0  0  0
  -24.6623  -31.0817   22.1016 N   0  0  0  0  0  0
  -23.4157  -28.8196   23.3051 O   0  0  0  0  0  0
  -28.4077  -26.7459   20.0181 O   0  0  0  0  0  0
  -26.5579  -34.8914   22.4694 O   0  0  0  0  0  0
  -23.5323  -32.1444   23.7551 O   0  0  0  0  0  0
  -26.7500  -21.4677   20.8044 C   0  0  0  0  0  0
  -26.8367  -22.5109   21.9085 C   0  0  0  0  0  0
  -29.0069  -22.3170   21.0192 C   0  0  0  0  0  0
  -28.2147  -21.0622   20.5200 C   0  0  1  0  0  0
  -26.3369  -19.6190   18.1809 C   0  0  0  0  0  0
  -28.4962  -19.3602   16.9352 C   0  0  0  0  0  0
  -28.5507  -19.7923   21.3618 C   0  0  0  0  0  0
  -28.4671  -20.8399   18.9956 C   0  0  0  0  0  0
  -31.4058  -15.8848   22.5628 C   0  0  0  0  0  0
  -27.7405  -24.4485   20.6652 C   0  0  0  0  0  0
  -29.9558  -19.1687   21.1840 C   0  0  0  0  0  0
  -31.4097  -17.2868   21.9187 C   0  0  0  0  0  0
  -28.5782  -25.7057   20.9857 C   0  0  0  0  0  0
  -27.8666  -19.5769   18.3201 C   0  0  0  0  0  0
  -30.5254  -14.9265   21.8847 N   0  0  0  0  0  0
  -28.0358  -23.2986   21.5708 N   0  3  1  0  0  0
  -30.0644  -17.8942   21.9274 N   0  3  0  0  0  0
  -31.4542  -12.3990   19.0624 H   0  0  0  0  0  0
  -30.3211  -11.2644   19.7322 H   0  0  0  0  0  0
  -29.7004  -11.8300   17.3791 H   0  0  0  0  0  0
  -29.6396  -13.5303   17.7745 H   0  0  0  0  0  0
  -27.8130  -11.3245   18.7873 H   0  0  0  0  0  0
  -27.3434  -12.6757   17.7897 H   0  0  0  0  0  0
  -27.7248  -14.2568   19.6072 H   0  0  0  0  0  0
  -28.6640  -11.9040   21.3147 H   0  0  0  0  0  0
  -28.4584  -13.5363   21.8745 H   0  0  0  0  0  0
  -25.2760   -9.5687   22.4761 H   0  0  0  0  0  0
  -23.9994   -7.4645   22.7498 H   0  0  0  0  0  0
  -21.0849   -8.8760   19.8939 H   0  0  0  0  0  0
  -22.3711  -10.9661   19.6146 H   0  0  0  0  0  0
  -21.1986   -7.6142   23.9718 H   0  0  0  0  0  0
  -21.1467   -6.0518   25.9076 H   0  0  0  0  0  0
  -22.0605   -2.7614   23.2852 H   0  0  0  0  0  0
  -22.4103  -11.9841   22.4695 H   0  0  0  0  0  0
  -21.1108  -13.1224   22.2552 H   0  0  0  0  0  0
  -24.6660  -15.8437   20.5047 H   0  0  0  0  0  0
  -26.2838  -15.6213   20.0710 H   0  0  0  0  0  0
  -26.7091  -32.5556   23.1170 H   0  0  0  0  0  0
  -25.0136  -33.9793   25.0552 H   0  0  0  0  0  0
  -22.6837  -31.3082   21.4131 H   0  0  0  0  0  0
  -23.3767  -35.9591   23.3244 H   0  0  0  0  0  0
  -24.3586  -36.8958   22.2060 H   0  0  0  0  0  0
  -23.7182  -37.6463   23.6681 H   0  0  0  0  0  0
  -26.0205  -31.6005   20.5839 H   0  0  0  0  0  0
  -26.8167  -30.9074   21.9694 H   0  0  0  0  0  0
  -28.1006  -29.1272   21.1544 H   0  0  0  0  0  0
  -26.0801  -26.0055   18.9676 H   0  0  0  0  0  0
  -23.9791  -27.2988   19.0337 H   0  0  0  0  0  0
  -23.7088  -30.5973   19.4071 H   0  0  0  0  0  0
  -22.7312  -29.2397   19.8759 H   0  0  0  0  0  0
  -25.1255  -36.1959   25.0842 H   0  0  0  0  0  0
  -20.9921  -28.3225   24.1456 H   0  0  0  0  0  0
  -20.5652  -26.2259   23.3605 H   0  0  0  0  0  0
  -21.6633  -26.7434   22.1219 H   0  0  0  0  0  0
  -19.6902  -25.6309   21.1218 H   0  0  0  0  0  0
  -19.6713  -27.3218   20.6746 H   0  0  0  0  0  0
  -17.4193  -26.6724   21.3969 H   0  0  0  0  0  0
  -18.0273  -26.0047   22.8956 H   0  0  0  0  0  0
  -19.7922  -30.7233   24.2317 H   0  0  0  0  0  0
  -17.5010  -31.6273   24.5143 H   0  0  0  0  0  0
  -15.5341  -30.2988   23.7667 H   0  0  0  0  0  0
  -15.8657  -28.0834   22.7070 H   0  0  0  0  0  0
  -24.6076  -30.6780   25.7808 H   0  0  0  0  0  0
  -24.8813  -32.2676   26.4859 H   0  0  0  0  0  0
  -25.8201  -30.8852   27.0230 H   0  0  0  0  0  0
  -26.2843  -29.6771   24.1151 H   0  0  0  0  0  0
  -27.4245  -29.7289   25.4409 H   0  0  0  0  0  0
  -27.8600  -30.4401   23.9039 H   0  0  0  0  0  0
  -27.2705  -33.3617   26.2013 H   0  0  0  0  0  0
  -28.3912  -32.6768   25.0335 H   0  0  0  0  0  0
  -28.0659  -31.8410   26.5444 H   0  0  0  0  0  0
  -28.2519  -38.0161   24.7609 H   0  0  0  0  0  0
  -28.1155  -36.2697   24.6141 H   0  0  0  0  0  0
  -27.2316  -37.1261   25.8857 H   0  0  0  0  0  0
  -20.9274  -29.8736   21.6965 H   0  0  0  0  0  0
  -26.0146  -38.2855   24.1524 H   0  0  0  0  0  0
  -26.2948  -21.9278   19.9260 H   0  0  0  0  0  0
  -26.1083  -20.6374   21.0978 H   0  0  0  0  0  0
  -27.0005  -22.0174   22.8682 H   0  0  0  0  0  0
  -25.9249  -23.1002   22.0127 H   0  0  0  0  0  0
  -29.6322  -22.7621   20.2424 H   0  0  0  0  0  0
  -29.6904  -22.0432   21.8228 H   0  0  0  0  0  0
  -25.9718  -18.7837   17.5820 H   0  0  0  0  0  0
  -26.0069  -20.5387   17.6973 H   0  0  0  0  0  0
  -25.8395  -19.5434   19.1456 H   0  0  0  0  0  0
  -28.1252  -18.4435   16.4752 H   0  0  0  0  0  0
  -29.5810  -19.2672   16.9961 H   0  0  0  0  0  0
  -28.2687  -20.1836   16.2570 H   0  0  0  0  0  0
  -27.8080  -19.0248   21.1410 H   0  0  0  0  0  0
  -28.4065  -20.0167   22.4198 H   0  0  0  0  0  0
  -29.5467  -20.8158   18.8410 H   0  0  0  0  0  0
  -28.1372  -21.7216   18.4435 H   0  0  0  0  0  0
  -31.0936  -15.9574   23.6051 H   0  0  0  0  0  0
  -32.4222  -15.4887   22.5877 H   0  0  0  0  0  0
  -27.8695  -24.1592   19.6209 H   0  0  0  0  0  0
  -26.6916  -24.7190   20.7717 H   0  0  0  0  0  0
  -30.7278  -19.8599   21.5263 H   0  0  0  0  0  0
  -30.1626  -18.9648   20.1327 H   0  0  0  0  0  0
  -31.7842  -17.2301   20.8954 H   0  0  0  0  0  0
  -32.0993  -17.9349   22.4616 H   0  0  0  0  0  0
  -29.6370  -25.4476   20.9869 H   0  0  0  0  0  0
  -28.3512  -26.0806   21.9854 H   0  0  0  0  0  0
  -28.1195  -18.6937   18.9053 H   0  0  0  0  0  0
  -29.7647  -14.5304   22.4181 H   0  0  0  0  0  0
  -28.4014  -23.6767   22.4346 H   0  0  0  0  0  0
  -29.4199  -17.2287   21.5339 H   0  0  0  0  0  0
  -29.7987  -18.0470   22.8871 H   0  0  0  0  0  0
  1 25  1  0  0  0
  1 30  2  0  0  0
  1 85  1  0  0  0
  2  3  1  0  0  0
  2 25  1  0  0  0
  2 88  1  0  0  0
  2 89  1  0  0  0
  3  4  1  0  0  0
  3 90  1  0  0  0
  3 91  1  0  0  0
  4  5  1  0  0  0
  4 92  1  0  0  0
  4 93  1  0  0  0
  5  6  1  0  0  0
  5 26  1  0  0  0
  5 94  1  0  0  0
  6 25  1  0  0  0
  6 95  1  0  0  0
  6 96  1  0  0  0
  7  8  2  0  0  0
  7 26  1  0  0  0
  7 29  1  0  0  0
  8  9  1  0  0  0
  8 22  1  0  0  0
  9 10  1  0  0  0
  9 27  2  0  0  0
 10 11  2  0  0  0
 10 15  1  0  0  0
 11 12  1  0  0  0
 11 97  1  0  0  0
 12 13  2  0  0  0
 12 98  1  0  0  0
 13 14  1  0  0  0
 13 31  1  0  0  0
 14 15  2  0  0  0
 14 99  1  0  0  0
 15100  1  0  0  0
 16 17  2  0  0  0
 16 21  1  0  0  0
 16 31  1  0  0  0
 17 18  1  0  0  0
 17101  1  0  0  0
 18 19  2  0  0  0
 18102  1  0  0  0
 19 20  1  0  0  0
 19 24  1  0  0  0
 20 21  2  0  0  0
 20103  1  0  0  0
 21 23  1  0  0  0
 22 28  1  0  0  0
 22 32  2  0  0  0
 26 27  1  0  0  0
 28104  1  0  0  0
 28105  1  0  0  0
 29106  1  0  0  0
 29107  1  0  0  0
 33 34  1  0  0  0
 33 66  1  0  0  0
 33 70  2  0  0  0
 34 36  1  0  0  0
 34 59  1  0  0  0
 34108  1  0  0  0
 35 44  2  0  0  0
 35 45  1  0  0  0
 35 68  1  0  0  0
 36 56  1  0  0  0
 36109  1  0  0  0
 37 39  1  0  0  0
 37 47  1  0  0  0
 37 66  1  0  0  0
 37110  1  0  0  0
 38 43  2  0  0  0
 38 46  1  0  0  0
 38 47  1  0  0  0
 39 64  1  0  0  0
 39 67  2  0  0  0
 40 52  1  0  0  0
 40 53  2  0  0  0
 40 58  1  0  0  0
 41111  1  0  0  0
 41112  1  0  0  0
 41113  1  0  0  0
 41 48  1  0  0  0
 42 43  1  0  0  0
 42 66  1  0  0  0
 42114  1  0  0  0
 42115  1  0  0  0
 43 44  1  0  0  0
 44116  1  0  0  0
 45 46  2  0  0  0
 45117  1  0  0  0
 46118  1  0  0  0
 47119  1  0  0  0
 47120  1  0  0  0
 48 56  1  0  0  0
 48 65  1  0  0  0
 48121  1  0  0  0
 49 50  1  0  0  0
 49 53  1  0  0  0
 49 64  1  0  0  0
 49122  1  0  0  0
 50 51  1  0  0  0
 50123  1  0  0  0
 50124  1  0  0  0
 51 52  1  0  0  0
 51125  1  0  0  0
 51126  1  0  0  0
 52127  1  0  0  0
 52128  1  0  0  0
 53 54  1  0  0  0
 54 55  2  0  0  0
 54129  1  0  0  0
 55 57  1  0  0  0
 55130  1  0  0  0
 56 69  2  0  0  0
 57 58  2  0  0  0
 57131  1  0  0  0
 58132  1  0  0  0
 59 60  1  0  0  0
 59 61  1  0  0  0
 59 62  1  0  0  0
 60133  1  0  0  0
 60134  1  0  0  0
 60135  1  0  0  0
 61136  1  0  0  0
 61137  1  0  0  0
 61138  1  0  0  0
 62139  1  0  0  0
 62140  1  0  0  0
 62141  1  0  0  0
 63 65  1  0  0  0
 63142  1  0  0  0
 63143  1  0  0  0
 63144  1  0  0  0
 64145  1  0  0  0
 65146  1  0  0  0
 68 83  1  0  0  0
 71 72  1  0  0  0
 71 74  1  0  0  0
 71147  1  0  0  0
 71148  1  0  0  0
 72 86  1  0  0  0
 72149  1  0  0  0
 72150  1  0  0  0
 73 74  1  0  0  0
 73 86  1  0  0  0
 73151  1  0  0  0
 73152  1  0  0  0
 74 77  1  0  0  0
 74 78  1  0  0  0
 75153  1  0  0  0
 75154  1  0  0  0
 75155  1  0  0  0
 75 84  1  0  0  0
 76 84  1  0  0  0
 76156  1  0  0  0
 76157  1  0  0  0
 76158  1  0  0  0
 77 81  1  0  0  0
 77159  1  0  0  0
 77160  1  0  0  0
 78 84  1  0  0  0
 78161  1  0  0  0
 78162  1  0  0  0
 79 82  1  0  0  0
 79 85  1  0  0  0
 79163  1  0  0  0
 79164  1  0  0  0
 80 83  1  0  0  0
 80165  1  0  0  0
 80166  1  0  0  0
 80 86  1  0  0  0
 81 87  1  0  0  0
 81167  1  0  0  0
 81168  1  0  0  0
 82 87  1  0  0  0
 82169  1  0  0  0
 82170  1  0  0  0
 83171  1  0  0  0
 83172  1  0  0  0
 84173  1  0  0  0
 85174  1  0  0  0
 86175  1  0  0  0
 87176  1  0  0  0
 87177  1  0  0  0
M  CHG  2  86   1  87   1
M  ISO  4   1 100  68 101  83 101  85 100
M  END
> <chiral flag>
0

> <version>
0

> <s_m_source_file>
/data/baiqing/PycharmProjects/Reinvent-master-3.2/result/LINK_invent/BTK/process_docking_weight1_custom_sum_contain_oxygen_bond_distance_aromatic_linkinvent_7_9_3/rearranged_h_0132.sdf

> <i_m_source_file_index>
49

> <r_mmod_Potential_Energy-OPLS-2005>
-212.023193359375

> <r_mmod_Stretch_Energy-OPLS-2005>
36.4685363769531

> <r_mmod_Bend_Energy-OPLS-2005>
123.212997436523

> <r_mmod_Torsional_Energy-OPLS-2005>
348.069458007812

> <r_mmod_Improper_Torsional_Energy-OPLS-2005>
3.37307524681091

> <r_mmod_Van_der_Waal_Energy-OPLS-2005>
130.56510925293

> <r_mmod_Electrostatic_Energy-OPLS-2005>
44.1732215881348

> <r_mmod_Solvation_Energy-OPLS-2005>
-904.966613769531

> <b_mmod_Minimization_Converged-OPLS-2005>
0

> <r_mmod_RMS_Derivative-OPLS-2005>
1.88458979129791

$$$$
50
                    3D
 Structure written by MMmdl.
174184  0  0  1  0            999 V2000
  -30.7678  -14.3946   20.7002 C   0  0  0  0  0  0
  -30.4127  -12.3211   19.3985 C   0  0  0  0  0  0
  -29.4832  -12.5384   18.1920 C   0  0  0  0  0  0
  -28.0089  -12.3805   18.6080 C   0  0  0  0  0  0
  -27.6572  -13.2099   19.8708 C   0  0  2  0  0  0
  -28.6937  -12.9782   20.9902 C   0  0  0  0  0  0
  -25.2553  -13.8163   20.5665 C   0  0  0  0  0  0
  -24.1817  -13.0429   20.9166 C   0  0  0  0  0  0
  -24.6383  -11.6898   20.8722 C   0  0  0  0  0  0
  -23.9049  -10.4288   21.0397 C   0  0  0  0  0  0
  -24.3607   -9.4211   21.9176 C   0  0  0  0  0  0
  -23.6286   -8.2244   22.0755 C   0  0  0  0  0  0
  -22.4266   -8.0276   21.3540 C   0  0  0  0  0  0
  -21.9894   -9.0250   20.4643 C   0  0  0  0  0  0
  -22.7224  -10.2130   20.3047 C   0  0  0  0  0  0
  -21.6851   -6.0736   22.5281 C   0  0  0  0  0  0
  -21.4015   -6.5640   23.8216 C   0  0  0  0  0  0
  -21.3662   -5.6794   24.9173 C   0  0  0  0  0  0
  -21.6041   -4.3053   24.7227 C   0  0  0  0  0  0
  -21.8814   -3.8147   23.4345 C   0  0  0  0  0  0
  -21.9191   -4.6966   22.3400 C   0  0  0  0  0  0
  -22.7843  -13.5233   21.1836 C   0  0  0  0  0  0
  -22.1656   -4.2146   21.0979 F   0  0  0  0  0  0
  -21.5631   -3.4532   25.7741 F   0  0  0  0  0  0
  -30.0304  -13.2811   20.4462 N   0  0  0  0  0  0
  -26.2987  -12.9346   20.3321 N   0  0  0  0  0  0
  -25.9297  -11.6492   20.5723 N   0  0  0  0  0  0
  -22.0478  -12.8228   22.0404 N   0  0  0  0  0  0
  -25.4260  -15.1891   20.4105 N   0  0  0  0  0  0
  -31.8165  -14.6581   20.1054 O   0  0  0  0  0  0
  -21.6632   -6.8871   21.4236 O   0  0  0  0  0  0
  -22.3524  -14.5540   20.6694 O   0  0  0  0  0  0
  -24.6162  -31.8689   23.2135 C   0  0  0  0  0  0
  -25.9064  -32.4828   23.8419 C   0  0  1  0  0  0
  -27.2208  -27.4230   20.0880 C   0  0  0  0  0  0
  -25.5953  -33.8625   24.2343 N   0  0  0  0  0  0
  -23.4034  -30.4967   21.5532 C   0  0  2  0  0  0
  -24.8466  -28.9667   20.1159 C   0  0  0  0  0  0
  -22.7418  -29.4670   22.4989 C   0  0  0  0  0  0
  -18.0275  -28.1381   22.8507 C   0  0  0  0  0  0
  -24.1486  -36.7295   23.2646 C   0  0  0  0  0  0
  -25.9363  -30.8255   21.3754 C   0  0  0  0  0  0
  -26.0065  -29.4579   20.7273 C   0  0  0  0  0  0
  -27.1955  -28.6885   20.7218 C   0  0  0  0  0  0
  -26.0560  -26.9824   19.4256 C   0  0  0  0  0  0
  -24.8652  -27.7238   19.4656 C   0  0  0  0  0  0
  -23.6107  -29.8339   20.1662 C   0  0  0  0  0  0
  -25.4108  -36.3098   24.0331 C   0  0  1  0  0  0
  -20.5868  -28.3658   23.1325 C   0  0  2  0  0  0
  -20.6761  -26.9393   22.5417 C   0  0  0  0  0  0
  -19.5729  -26.6382   21.5230 C   0  0  0  0  0  0
  -18.1910  -26.7942   22.1632 C   0  0  0  0  0  0
  -19.1528  -28.8838   23.2920 C   0  0  0  0  0  0
  -18.9457  -30.1455   23.8908 C   0  0  0  0  0  0
  -17.6459  -30.6592   24.0577 C   0  0  0  0  0  0
  -25.9043  -34.9469   23.5113 C   0  0  0  0  0  0
  -16.5345  -29.9081   23.6340 C   0  0  0  0  0  0
  -16.7264  -28.6505   23.0357 C   0  0  0  0  0  0
  -26.4487  -31.6626   25.0757 C   0  0  0  0  0  0
  -25.3771  -31.3748   26.1529 C   0  0  0  0  0  0
  -27.0329  -30.3070   24.6157 C   0  0  0  0  0  0
  -27.6054  -32.4372   25.7506 C   0  0  0  0  0  0
  -27.5560  -37.1803   24.8466 C   0  0  0  0  0  0
  -21.4146  -29.3034   22.3731 N   0  0  0  0  0  0
  -26.4277  -37.3792   23.9412 N   0  0  0  0  0  0
  -24.6697  -31.0804   22.1040 N   0  0  0  0  0  0
  -23.4205  -28.8186   23.3007 O   0  0  0  0  0  0
  -28.3782  -26.6720   20.0457 O   0  0  0  0  0  0
  -26.5581  -34.8909   22.4660 O   0  0  0  0  0  0
  -23.5356  -32.1448   23.7527 O   0  0  0  0  0  0
  -29.5198  -19.9420   21.1484 C   0  0  0  0  0  0
  -29.9722  -23.4897   21.3937 C   0  0  0  0  0  0
  -27.6336  -22.9061   20.6744 C   0  0  0  0  0  0
  -29.8289  -24.8718   20.7129 C   0  0  0  0  0  0
  -27.4934  -24.2905   20.0209 C   0  0  0  0  0  0
  -31.4180  -17.1315   24.8764 C   0  0  0  0  0  0
  -29.7095  -19.2601   23.5801 C   0  0  0  0  0  0
  -31.7689  -15.8698   25.6706 C   0  0  0  0  0  0
  -31.7128  -14.5206   23.6457 C   0  0  0  0  0  0
  -29.3096  -18.8697   22.1795 C   0  0  2  0  0  0
  -30.6201  -16.8692   23.5703 C   0  0  1  0  0  0
  -30.5267  -18.2189   22.8427 C   0  0  2  0  0  0
  -29.0855  -22.4068   20.7390 C   0  0  2  0  0  0
  -31.2730  -15.7106   22.7403 C   0  0  2  0  0  0
  -28.3712  -25.3781   20.6918 C   0  0  2  0  0  0
  -29.1108  -21.1683   21.5246 N   0  0  0  0  0  0
  -30.3576  -15.1228   21.7522 N   0  0  0  0  0  0
  -32.5110  -14.9377   24.8092 N   0  3  0  0  0  0
  -29.9880  -19.7040   20.0345 O   0  0  0  0  0  0
  -31.4563  -12.4229   19.0957 H   0  0  0  0  0  0
  -30.3145  -11.3018   19.7744 H   0  0  0  0  0  0
  -29.7270  -11.8369   17.3932 H   0  0  0  0  0  0
  -29.6444  -13.5367   17.7835 H   0  0  0  0  0  0
  -27.8260  -11.3222   18.7955 H   0  0  0  0  0  0
  -27.3542  -12.6597   17.7810 H   0  0  0  0  0  0
  -27.7061  -14.2615   19.5875 H   0  0  0  0  0  0
  -28.6664  -11.9389   21.3219 H   0  0  0  0  0  0
  -28.4286  -13.5671   21.8683 H   0  0  0  0  0  0
  -25.2752   -9.5693   22.4737 H   0  0  0  0  0  0
  -24.0000   -7.4637   22.7478 H   0  0  0  0  0  0
  -21.0821   -8.8754   19.8957 H   0  0  0  0  0  0
  -22.3669  -10.9656   19.6149 H   0  0  0  0  0  0
  -21.2003   -7.6147   23.9714 H   0  0  0  0  0  0
  -21.1486   -6.0524   25.9078 H   0  0  0  0  0  0
  -22.0588   -2.7603   23.2843 H   0  0  0  0  0  0
  -22.4083  -11.9879   22.4788 H   0  0  0  0  0  0
  -21.1091  -13.1253   22.2593 H   0  0  0  0  0  0
  -24.6585  -15.8428   20.5237 H   0  0  0  0  0  0
  -26.2810  -15.6312   20.0974 H   0  0  0  0  0  0
  -26.7128  -32.5512   23.1179 H   0  0  0  0  0  0
  -25.0192  -33.9812   25.0543 H   0  0  0  0  0  0
  -22.6938  -31.3148   21.4157 H   0  0  0  0  0  0
  -23.3737  -35.9637   23.3324 H   0  0  0  0  0  0
  -24.3586  -36.8892   22.2058 H   0  0  0  0  0  0
  -23.7247  -37.6504   23.6646 H   0  0  0  0  0  0
  -26.0645  -31.5888   20.6054 H   0  0  0  0  0  0
  -26.8213  -30.8719   21.9986 H   0  0  0  0  0  0
  -28.0883  -29.0644   21.2004 H   0  0  0  0  0  0
  -26.0574  -26.0862   18.8273 H   0  0  0  0  0  0
  -23.9834  -27.3542   18.9620 H   0  0  0  0  0  0
  -23.7238  -30.6104   19.4090 H   0  0  0  0  0  0
  -22.7345  -29.2580   19.8656 H   0  0  0  0  0  0
  -25.1291  -36.1950   25.0825 H   0  0  0  0  0  0
  -20.9982  -28.3202   24.1439 H   0  0  0  0  0  0
  -20.5692  -26.2257   23.3604 H   0  0  0  0  0  0
  -21.6624  -26.7452   22.1188 H   0  0  0  0  0  0
  -19.6880  -25.6302   21.1238 H   0  0  0  0  0  0
  -19.6658  -27.3214   20.6782 H   0  0  0  0  0  0
  -17.4187  -26.6736   21.4015 H   0  0  0  0  0  0
  -18.0265  -26.0075   22.9007 H   0  0  0  0  0  0
  -19.7930  -30.7287   24.2255 H   0  0  0  0  0  0
  -17.5003  -31.6275   24.5172 H   0  0  0  0  0  0
  -15.5342  -30.2986   23.7664 H   0  0  0  0  0  0
  -15.8673  -28.0835   22.7055 H   0  0  0  0  0  0
  -24.5940  -30.7092   25.7896 H   0  0  0  0  0  0
  -24.8981  -32.2922   26.4969 H   0  0  0  0  0  0
  -25.8158  -30.8947   27.0293 H   0  0  0  0  0  0
  -26.2882  -29.6839   24.1198 H   0  0  0  0  0  0
  -27.4091  -29.7309   25.4618 H   0  0  0  0  0  0
  -27.8725  -30.4399   23.9326 H   0  0  0  0  0  0
  -27.2660  -33.3676   26.2074 H   0  0  0  0  0  0
  -28.3857  -32.6946   25.0329 H   0  0  0  0  0  0
  -28.0741  -31.8530   26.5439 H   0  0  0  0  0  0
  -28.2594  -38.0083   24.7502 H   0  0  0  0  0  0
  -28.1032  -36.2617   24.6299 H   0  0  0  0  0  0
  -27.2285  -37.1461   25.8871 H   0  0  0  0  0  0
  -20.9285  -29.8785   21.6989 H   0  0  0  0  0  0
  -26.0149  -38.2859   24.1421 H   0  0  0  0  0  0
  -29.7108  -23.5946   22.4473 H   0  0  0  0  0  0
  -31.0178  -23.1794   21.3702 H   0  0  0  0  0  0
  -27.0204  -22.1859   20.1309 H   0  0  0  0  0  0
  -27.2187  -22.9595   21.6816 H   0  0  0  0  0  0
  -30.2032  -24.8091   19.6904 H   0  0  0  0  0  0
  -30.4616  -25.5986   21.2240 H   0  0  0  0  0  0
  -26.4399  -24.5364   20.1171 H   0  0  0  0  0  0
  -27.7235  -24.2255   18.9559 H   0  0  0  0  0  0
  -32.3439  -17.6577   24.6400 H   0  0  0  0  0  0
  -30.8612  -17.8007   25.5325 H   0  0  0  0  0  0
  -29.0306  -18.9412   24.3685 H   0  0  0  0  0  0
  -30.2012  -20.2140   23.7643 H   0  0  0  0  0  0
  -30.8647  -15.3909   26.0523 H   0  0  0  0  0  0
  -32.3796  -16.1271   26.5378 H   0  0  0  0  0  0
  -32.3006  -13.8010   23.0748 H   0  0  0  0  0  0
  -30.8380  -13.9793   24.0106 H   0  0  0  0  0  0
  -28.4391  -18.2322   22.0388 H   0  0  0  0  0  0
  -29.6119  -16.5612   23.8532 H   0  0  0  0  0  0
  -31.4891  -18.5587   22.4619 H   0  0  0  0  0  0
  -29.4388  -22.2209   19.7226 H   0  0  0  0  0  0
  -32.1569  -16.1096   22.2354 H   0  0  0  0  0  0
  -28.0341  -25.5158   21.7217 H   0  0  0  0  0  0
  -28.7436  -21.2315   22.4649 H   0  0  0  0  0  0
  -29.4303  -14.9029   22.0855 H   0  0  0  0  0  0
  -32.7522  -14.1211   25.3473 H   0  0  0  0  0  0
  -33.3708  -15.3627   24.5040 H   0  0  0  0  0  0
  1 25  1  0  0  0
  1 30  2  0  0  0
  1 87  1  0  0  0
  2  3  1  0  0  0
  2 25  1  0  0  0
  2 90  1  0  0  0
  2 91  1  0  0  0
  3  4  1  0  0  0
  3 92  1  0  0  0
  3 93  1  0  0  0
  4  5  1  0  0  0
  4 94  1  0  0  0
  4 95  1  0  0  0
  5  6  1  0  0  0
  5 26  1  0  0  0
  5 96  1  0  0  0
  6 25  1  0  0  0
  6 97  1  0  0  0
  6 98  1  0  0  0
  7  8  2  0  0  0
  7 26  1  0  0  0
  7 29  1  0  0  0
  8  9  1  0  0  0
  8 22  1  0  0  0
  9 10  1  0  0  0
  9 27  2  0  0  0
 10 11  2  0  0  0
 10 15  1  0  0  0
 11 12  1  0  0  0
 11 99  1  0  0  0
 12 13  2  0  0  0
 12100  1  0  0  0
 13 14  1  0  0  0
 13 31  1  0  0  0
 14 15  2  0  0  0
 14101  1  0  0  0
 15102  1  0  0  0
 16 17  2  0  0  0
 16 21  1  0  0  0
 16 31  1  0  0  0
 17 18  1  0  0  0
 17103  1  0  0  0
 18 19  2  0  0  0
 18104  1  0  0  0
 19 20  1  0  0  0
 19 24  1  0  0  0
 20 21  2  0  0  0
 20105  1  0  0  0
 21 23  1  0  0  0
 22 28  1  0  0  0
 22 32  2  0  0  0
 26 27  1  0  0  0
 28106  1  0  0  0
 28107  1  0  0  0
 29108  1  0  0  0
 29109  1  0  0  0
 33 34  1  0  0  0
 33 66  1  0  0  0
 33 70  2  0  0  0
 34 36  1  0  0  0
 34 59  1  0  0  0
 34110  1  0  0  0
 35 44  2  0  0  0
 35 45  1  0  0  0
 35 68  1  0  0  0
 36 56  1  0  0  0
 36111  1  0  0  0
 37 39  1  0  0  0
 37 47  1  0  0  0
 37 66  1  0  0  0
 37112  1  0  0  0
 38 43  2  0  0  0
 38 46  1  0  0  0
 38 47  1  0  0  0
 39 64  1  0  0  0
 39 67  2  0  0  0
 40 52  1  0  0  0
 40 53  2  0  0  0
 40 58  1  0  0  0
 41113  1  0  0  0
 41114  1  0  0  0
 41115  1  0  0  0
 41 48  1  0  0  0
 42 43  1  0  0  0
 42 66  1  0  0  0
 42116  1  0  0  0
 42117  1  0  0  0
 43 44  1  0  0  0
 44118  1  0  0  0
 45 46  2  0  0  0
 45119  1  0  0  0
 46120  1  0  0  0
 47121  1  0  0  0
 47122  1  0  0  0
 48 56  1  0  0  0
 48 65  1  0  0  0
 48123  1  0  0  0
 49 50  1  0  0  0
 49 53  1  0  0  0
 49 64  1  0  0  0
 49124  1  0  0  0
 50 51  1  0  0  0
 50125  1  0  0  0
 50126  1  0  0  0
 51 52  1  0  0  0
 51127  1  0  0  0
 51128  1  0  0  0
 52129  1  0  0  0
 52130  1  0  0  0
 53 54  1  0  0  0
 54 55  2  0  0  0
 54131  1  0  0  0
 55 57  1  0  0  0
 55132  1  0  0  0
 56 69  2  0  0  0
 57 58  2  0  0  0
 57133  1  0  0  0
 58134  1  0  0  0
 59 60  1  0  0  0
 59 61  1  0  0  0
 59 62  1  0  0  0
 60135  1  0  0  0
 60136  1  0  0  0
 60137  1  0  0  0
 61138  1  0  0  0
 61139  1  0  0  0
 61140  1  0  0  0
 62141  1  0  0  0
 62142  1  0  0  0
 62143  1  0  0  0
 63 65  1  0  0  0
 63144  1  0  0  0
 63145  1  0  0  0
 63146  1  0  0  0
 64147  1  0  0  0
 65148  1  0  0  0
 68 85  1  0  0  0
 71 86  1  0  0  0
 71 89  2  0  0  0
 71 80  1  0  0  0
 72 74  1  0  0  0
 72 83  1  0  0  0
 72149  1  0  0  0
 72150  1  0  0  0
 73 75  1  0  0  0
 73 83  1  0  0  0
 73151  1  0  0  0
 73152  1  0  0  0
 74 85  1  0  0  0
 74153  1  0  0  0
 74154  1  0  0  0
 75 85  1  0  0  0
 75155  1  0  0  0
 75156  1  0  0  0
 76 78  1  0  0  0
 76157  1  0  0  0
 76158  1  0  0  0
 76 81  1  0  0  0
 77 80  1  0  0  0
 77159  1  0  0  0
 77160  1  0  0  0
 77 82  1  0  0  0
 78 88  1  0  0  0
 78161  1  0  0  0
 78162  1  0  0  0
 79 84  1  0  0  0
 79 88  1  0  0  0
 79163  1  0  0  0
 79164  1  0  0  0
 80 82  1  0  0  0
 80165  1  0  0  0
 81 82  1  0  0  0
 81 84  1  0  0  0
 81166  1  0  0  0
 82167  1  0  0  0
 83 86  1  0  0  0
 83168  1  0  0  0
 84 87  1  0  0  0
 84169  1  0  0  0
 85170  1  0  0  0
 86171  1  0  0  0
 87172  1  0  0  0
 88173  1  0  0  0
 88174  1  0  0  0
M  CHG  1  88   1
M  ISO  4   1 100  68 101  85 101  87 100
M  END
> <chiral flag>
0

> <version>
0

> <s_m_source_file>
/data/baiqing/PycharmProjects/Reinvent-master-3.2/result/LINK_invent/BTK/process_docking_weight1_custom_sum_contain_oxygen_bond_distance_aromatic_linkinvent_7_9_3/rearranged_h_0132.sdf

> <i_m_source_file_index>
50

> <r_mmod_Potential_Energy-OPLS-2005>
-247.747955322266

> <r_mmod_Stretch_Energy-OPLS-2005>
39.339427947998

> <r_mmod_Bend_Energy-OPLS-2005>
119.128570556641

> <r_mmod_Torsional_Energy-OPLS-2005>
323.261840820312

> <r_mmod_Improper_Torsional_Energy-OPLS-2005>
4.86768531799316

> <r_mmod_Van_der_Waal_Energy-OPLS-2005>
144.878616333008

> <r_mmod_Electrostatic_Energy-OPLS-2005>
-389.762084960938

> <r_mmod_Solvation_Energy-OPLS-2005>
-500.790588378906

> <b_mmod_Minimization_Converged-OPLS-2005>
0

> <r_mmod_RMS_Derivative-OPLS-2005>
2.45226454734802

$$$$
51
                    3D
 Structure written by MMmdl.
160168  0  0  1  0            999 V2000
  -30.6850  -14.4761   20.5783 C   0  0  0  0  0  0
  -30.4292  -12.3112   19.4115 C   0  0  0  0  0  0
  -29.4923  -12.4940   18.1989 C   0  0  0  0  0  0
  -28.0103  -12.3657   18.6081 C   0  0  0  0  0  0
  -27.6608  -13.2007   19.8690 C   0  0  2  0  0  0
  -28.7046  -12.9706   20.9846 C   0  0  0  0  0  0
  -25.2615  -13.8153   20.5689 C   0  0  0  0  0  0
  -24.1837  -13.0434   20.9157 C   0  0  0  0  0  0
  -24.6366  -11.6900   20.8710 C   0  0  0  0  0  0
  -23.9029  -10.4289   21.0386 C   0  0  0  0  0  0
  -24.3589   -9.4222   21.9167 C   0  0  0  0  0  0
  -23.6281   -8.2248   22.0745 C   0  0  0  0  0  0
  -22.4273   -8.0273   21.3535 C   0  0  0  0  0  0
  -21.9891   -9.0237   20.4634 C   0  0  0  0  0  0
  -22.7195  -10.2127   20.3037 C   0  0  0  0  0  0
  -21.6849   -6.0729   22.5272 C   0  0  0  0  0  0
  -21.4001   -6.5639   23.8201 C   0  0  0  0  0  0
  -21.3656   -5.6794   24.9166 C   0  0  0  0  0  0
  -21.6052   -4.3059   24.7223 C   0  0  0  0  0  0
  -21.8821   -3.8147   23.4343 C   0  0  0  0  0  0
  -21.9200   -4.6958   22.3400 C   0  0  0  0  0  0
  -22.7873  -13.5246   21.1839 C   0  0  0  0  0  0
  -22.1672   -4.2145   21.0975 F   0  0  0  0  0  0
  -21.5639   -3.4541   25.7736 F   0  0  0  0  0  0
  -30.0322  -13.2913   20.4322 N   0  0  0  0  0  0
  -26.3020  -12.9291   20.3345 N   0  0  0  0  0  0
  -25.9293  -11.6457   20.5739 N   0  0  0  0  0  0
  -22.0512  -12.8226   22.0393 N   0  0  0  0  0  0
  -25.4384  -15.1866   20.4137 N   0  0  0  0  0  0
  -31.8117  -14.6898   20.1245 O   0  0  0  0  0  0
  -21.6639   -6.8866   21.4226 O   0  0  0  0  0  0
  -22.3553  -14.5549   20.6695 O   0  0  0  0  0  0
  -24.6146  -31.8656   23.2184 C   0  0  0  0  0  0
  -25.9026  -32.4787   23.8483 C   0  0  1  0  0  0
  -27.2228  -27.3921   20.1049 C   0  0  0  0  0  0
  -25.5887  -33.8609   24.2351 N   0  0  0  0  0  0
  -23.4036  -30.4922   21.5602 C   0  0  2  0  0  0
  -24.8514  -28.9680   20.1125 C   0  0  0  0  0  0
  -22.7394  -29.4646   22.5035 C   0  0  0  0  0  0
  -18.0280  -28.1323   22.8484 C   0  0  0  0  0  0
  -24.1492  -36.7349   23.2640 C   0  0  0  0  0  0
  -25.9394  -30.8177   21.3843 C   0  0  0  0  0  0
  -26.0140  -29.4540   20.7227 C   0  0  0  0  0  0
  -27.1993  -28.6720   20.7203 C   0  0  0  0  0  0
  -26.0427  -26.9636   19.4465 C   0  0  0  0  0  0
  -24.8635  -27.7248   19.4677 C   0  0  0  0  0  0
  -23.6088  -29.8264   20.1751 C   0  0  0  0  0  0
  -25.4102  -36.3089   24.0309 C   0  0  1  0  0  0
  -20.5839  -28.3640   23.1286 C   0  0  2  0  0  0
  -20.6733  -26.9385   22.5380 C   0  0  0  0  0  0
  -19.5727  -26.6346   21.5151 C   0  0  0  0  0  0
  -18.1913  -26.7874   22.1578 C   0  0  0  0  0  0
  -19.1513  -28.8800   23.2884 C   0  0  0  0  0  0
  -18.9444  -30.1406   23.8882 C   0  0  0  0  0  0
  -17.6453  -30.6553   24.0515 C   0  0  0  0  0  0
  -25.9024  -34.9450   23.5114 C   0  0  0  0  0  0
  -16.5343  -29.9014   23.6343 C   0  0  0  0  0  0
  -16.7261  -28.6420   23.0380 C   0  0  0  0  0  0
  -26.4444  -31.6598   25.0850 C   0  0  0  0  0  0
  -25.3664  -31.3719   26.1560 C   0  0  0  0  0  0
  -27.0289  -30.3009   24.6320 C   0  0  0  0  0  0
  -27.6020  -32.4332   25.7581 C   0  0  0  0  0  0
  -27.5568  -37.1803   24.8452 C   0  0  0  0  0  0
  -21.4124  -29.3023   22.3706 N   0  0  0  0  0  0
  -26.4288  -37.3765   23.9386 N   0  0  0  0  0  0
  -24.6702  -31.0719   22.1117 N   0  0  0  0  0  0
  -23.4148  -28.8177   23.3092 O   0  0  0  0  0  0
  -28.3595  -26.5871   20.1778 O   0  0  0  0  0  0
  -26.5587  -34.8857   22.4682 O   0  0  0  0  0  0
  -23.5319  -32.1458   23.7525 O   0  0  0  0  0  0
  -30.4073  -21.3406   21.3467 C   0  0  0  0  0  0
  -29.5466  -21.4858   20.2246 C   0  0  0  0  0  0
  -30.7074  -20.0148   21.5231 C   0  0  0  0  0  0
  -29.3321  -20.2115   19.7530 C   0  0  0  0  0  0
  -31.5953  -19.4151   22.5709 C   0  0  0  0  0  0
  -28.4960  -19.7743   18.5849 C   0  0  0  0  0  0
  -28.9638  -22.7703   19.6261 C   0  0  0  0  0  0
  -29.1619  -24.1187   20.3825 C   0  0  0  0  0  0
  -30.0928  -17.8281   20.2347 C   0  0  0  0  0  0
  -30.3485  -16.8482   21.4131 C   0  0  0  0  0  0
  -28.2151  -25.1975   19.7779 C   0  0  0  0  0  0
  -30.0395  -19.2861   20.5321 N   0  0  0  0  0  0
  -29.9546  -15.4548   21.1435 N   0  0  0  0  0  0
  -31.4688  -12.4316   19.1031 H   0  0  0  0  0  0
  -30.3520  -11.2998   19.8118 H   0  0  0  0  0  0
  -29.7276  -11.7598   17.4275 H   0  0  0  0  0  0
  -29.6597  -13.4729   17.7475 H   0  0  0  0  0  0
  -27.8045  -11.3102   18.7931 H   0  0  0  0  0  0
  -27.3657  -12.6557   17.7776 H   0  0  0  0  0  0
  -27.7054  -14.2485   19.5720 H   0  0  0  0  0  0
  -28.6862  -11.9297   21.3104 H   0  0  0  0  0  0
  -28.4623  -13.5551   21.8734 H   0  0  0  0  0  0
  -25.2729   -9.5726   22.4745 H   0  0  0  0  0  0
  -24.0008   -7.4645   22.7469 H   0  0  0  0  0  0
  -21.0827   -8.8718   19.8935 H   0  0  0  0  0  0
  -22.3624  -10.9653   19.6152 H   0  0  0  0  0  0
  -21.1967   -7.6147   23.9693 H   0  0  0  0  0  0
  -21.1485   -6.0533   25.9072 H   0  0  0  0  0  0
  -22.0608   -2.7607   23.2841 H   0  0  0  0  0  0
  -22.4145  -11.9891   22.4770 H   0  0  0  0  0  0
  -21.1132  -13.1238   22.2599 H   0  0  0  0  0  0
  -24.6751  -15.8479   20.5135 H   0  0  0  0  0  0
  -26.3061  -15.6228   20.1286 H   0  0  0  0  0  0
  -26.7097  -32.5463   23.1247 H   0  0  0  0  0  0
  -24.9973  -33.9780   25.0450 H   0  0  0  0  0  0
  -22.6969  -31.3117   21.4251 H   0  0  0  0  0  0
  -23.3694  -35.9741   23.3299 H   0  0  0  0  0  0
  -24.3602  -36.9023   22.2070 H   0  0  0  0  0  0
  -23.7306  -37.6554   23.6703 H   0  0  0  0  0  0
  -26.0553  -31.5862   20.6196 H   0  0  0  0  0  0
  -26.8203  -30.8692   22.0114 H   0  0  0  0  0  0
  -28.0859  -29.0357   21.2182 H   0  0  0  0  0  0
  -25.9949  -26.0364   18.8975 H   0  0  0  0  0  0
  -23.9716  -27.3554   18.9810 H   0  0  0  0  0  0
  -23.6928  -30.5929   19.4073 H   0  0  0  0  0  0
  -22.7351  -29.2310   19.8975 H   0  0  0  0  0  0
  -25.1284  -36.1932   25.0795 H   0  0  0  0  0  0
  -20.9942  -28.3185   24.1397 H   0  0  0  0  0  0
  -20.5596  -26.2275   23.3578 H   0  0  0  0  0  0
  -21.6620  -26.7403   22.1222 H   0  0  0  0  0  0
  -19.6915  -25.6241   21.1214 H   0  0  0  0  0  0
  -19.6641  -27.3102   20.6623 H   0  0  0  0  0  0
  -17.4199  -26.6609   21.3969 H   0  0  0  0  0  0
  -18.0359  -25.9991   22.8944 H   0  0  0  0  0  0
  -19.7936  -30.7195   24.2261 H   0  0  0  0  0  0
  -17.5016  -31.6252   24.5078 H   0  0  0  0  0  0
  -15.5331  -30.2876   23.7724 H   0  0  0  0  0  0
  -15.8661  -28.0700   22.7143 H   0  0  0  0  0  0
  -24.5969  -30.6897   25.7940 H   0  0  0  0  0  0
  -24.8650  -32.2833   26.4823 H   0  0  0  0  0  0
  -25.8003  -30.9096   27.0441 H   0  0  0  0  0  0
  -26.2884  -29.6707   24.1388 H   0  0  0  0  0  0
  -27.4008  -29.7317   25.4852 H   0  0  0  0  0  0
  -27.8749  -30.4311   23.9579 H   0  0  0  0  0  0
  -27.2741  -33.3756   26.1999 H   0  0  0  0  0  0
  -28.3911  -32.6675   25.0424 H   0  0  0  0  0  0
  -28.0587  -31.8548   26.5626 H   0  0  0  0  0  0
  -28.2563  -38.0119   24.7466 H   0  0  0  0  0  0
  -28.1086  -36.2625   24.6315 H   0  0  0  0  0  0
  -27.2289  -37.1521   25.8860 H   0  0  0  0  0  0
  -20.9312  -29.8801   21.6953 H   0  0  0  0  0  0
  -26.0155  -38.2845   24.1307 H   0  0  0  0  0  0
  -30.7869  -22.1400   21.9675 H   0  0  0  0  0  0
  -31.9864  -20.1848   23.2365 H   0  0  0  0  0  0
  -32.4516  -18.9023   22.1297 H   0  0  0  0  0  0
  -31.0526  -18.7172   23.2063 H   0  0  0  0  0  0
  -28.1052  -20.6275   18.0303 H   0  0  0  0  0  0
  -27.6427  -19.1785   18.9143 H   0  0  0  0  0  0
  -29.0705  -19.1713   17.8825 H   0  0  0  0  0  0
  -27.8940  -22.5987   19.4913 H   0  0  0  0  0  0
  -29.3689  -22.8796   18.6181 H   0  0  0  0  0  0
  -30.2075  -24.4204   20.3339 H   0  0  0  0  0  0
  -28.9200  -23.9874   21.4403 H   0  0  0  0  0  0
  -29.1431  -17.5446   19.7809 H   0  0  0  0  0  0
  -30.8527  -17.6785   19.4672 H   0  0  0  0  0  0
  -29.7640  -17.1630   22.2774 H   0  0  0  0  0  0
  -31.3990  -16.8679   21.6995 H   0  0  0  0  0  0
  -27.2224  -24.8242   20.0356 H   0  0  0  0  0  0
  -28.2917  -25.1700   18.6894 H   0  0  0  0  0  0
  -29.0294  -15.1866   21.4418 H   0  0  0  0  0  0
  1 25  1  0  0  0
  1 30  2  0  0  0
  1 83  1  0  0  0
  2  3  1  0  0  0
  2 25  1  0  0  0
  2 84  1  0  0  0
  2 85  1  0  0  0
  3  4  1  0  0  0
  3 86  1  0  0  0
  3 87  1  0  0  0
  4  5  1  0  0  0
  4 88  1  0  0  0
  4 89  1  0  0  0
  5  6  1  0  0  0
  5 26  1  0  0  0
  5 90  1  0  0  0
  6 25  1  0  0  0
  6 91  1  0  0  0
  6 92  1  0  0  0
  7  8  2  0  0  0
  7 26  1  0  0  0
  7 29  1  0  0  0
  8  9  1  0  0  0
  8 22  1  0  0  0
  9 10  1  0  0  0
  9 27  2  0  0  0
 10 11  2  0  0  0
 10 15  1  0  0  0
 11 12  1  0  0  0
 11 93  1  0  0  0
 12 13  2  0  0  0
 12 94  1  0  0  0
 13 14  1  0  0  0
 13 31  1  0  0  0
 14 15  2  0  0  0
 14 95  1  0  0  0
 15 96  1  0  0  0
 16 17  2  0  0  0
 16 21  1  0  0  0
 16 31  1  0  0  0
 17 18  1  0  0  0
 17 97  1  0  0  0
 18 19  2  0  0  0
 18 98  1  0  0  0
 19 20  1  0  0  0
 19 24  1  0  0  0
 20 21  2  0  0  0
 20 99  1  0  0  0
 21 23  1  0  0  0
 22 28  1  0  0  0
 22 32  2  0  0  0
 26 27  1  0  0  0
 28100  1  0  0  0
 28101  1  0  0  0
 29102  1  0  0  0
 29103  1  0  0  0
 33 34  1  0  0  0
 33 66  1  0  0  0
 33 70  2  0  0  0
 34 36  1  0  0  0
 34 59  1  0  0  0
 34104  1  0  0  0
 35 44  2  0  0  0
 35 45  1  0  0  0
 35 68  1  0  0  0
 36 56  1  0  0  0
 36105  1  0  0  0
 37 39  1  0  0  0
 37 47  1  0  0  0
 37 66  1  0  0  0
 37106  1  0  0  0
 38 43  2  0  0  0
 38 46  1  0  0  0
 38 47  1  0  0  0
 39 64  1  0  0  0
 39 67  2  0  0  0
 40 52  1  0  0  0
 40 53  2  0  0  0
 40 58  1  0  0  0
 41107  1  0  0  0
 41108  1  0  0  0
 41109  1  0  0  0
 41 48  1  0  0  0
 42 43  1  0  0  0
 42 66  1  0  0  0
 42110  1  0  0  0
 42111  1  0  0  0
 43 44  1  0  0  0
 44112  1  0  0  0
 45 46  2  0  0  0
 45113  1  0  0  0
 46114  1  0  0  0
 47115  1  0  0  0
 47116  1  0  0  0
 48 56  1  0  0  0
 48 65  1  0  0  0
 48117  1  0  0  0
 49 50  1  0  0  0
 49 53  1  0  0  0
 49 64  1  0  0  0
 49118  1  0  0  0
 50 51  1  0  0  0
 50119  1  0  0  0
 50120  1  0  0  0
 51 52  1  0  0  0
 51121  1  0  0  0
 51122  1  0  0  0
 52123  1  0  0  0
 52124  1  0  0  0
 53 54  1  0  0  0
 54 55  2  0  0  0
 54125  1  0  0  0
 55 57  1  0  0  0
 55126  1  0  0  0
 56 69  2  0  0  0
 57 58  2  0  0  0
 57127  1  0  0  0
 58128  1  0  0  0
 59 60  1  0  0  0
 59 61  1  0  0  0
 59 62  1  0  0  0
 60129  1  0  0  0
 60130  1  0  0  0
 60131  1  0  0  0
 61132  1  0  0  0
 61133  1  0  0  0
 61134  1  0  0  0
 62135  1  0  0  0
 62136  1  0  0  0
 62137  1  0  0  0
 63 65  1  0  0  0
 63138  1  0  0  0
 63139  1  0  0  0
 63140  1  0  0  0
 64141  1  0  0  0
 65142  1  0  0  0
 68 81  1  0  0  0
 71 72  1  0  0  0
 71 73  2  0  0  0
 71143  1  0  0  0
 72 74  2  0  0  0
 72 77  1  0  0  0
 73 75  1  0  0  0
 73 82  1  0  0  0
 74 76  1  0  0  0
 74 82  1  0  0  0
 75144  1  0  0  0
 75145  1  0  0  0
 75146  1  0  0  0
 76147  1  0  0  0
 76148  1  0  0  0
 76149  1  0  0  0
 77 78  1  0  0  0
 77150  1  0  0  0
 77151  1  0  0  0
 78 81  1  0  0  0
 78152  1  0  0  0
 78153  1  0  0  0
 79 80  1  0  0  0
 79 82  1  0  0  0
 79154  1  0  0  0
 79155  1  0  0  0
 80 83  1  0  0  0
 80156  1  0  0  0
 80157  1  0  0  0
 81158  1  0  0  0
 81159  1  0  0  0
 83160  1  0  0  0
M  ISO  4   1 100  68 101  81 101  83 100
M  END
> <chiral flag>
0

> <version>
0

> <s_m_source_file>
/data/baiqing/PycharmProjects/Reinvent-master-3.2/result/LINK_invent/BTK/process_docking_weight1_custom_sum_contain_oxygen_bond_distance_aromatic_linkinvent_7_9_3/rearranged_h_0132.sdf

> <i_m_source_file_index>
51

> <r_mmod_Potential_Energy-OPLS-2005>
-101.68766784668

> <r_mmod_Stretch_Energy-OPLS-2005>
43.5676879882812

> <r_mmod_Bend_Energy-OPLS-2005>
118.702896118164

> <r_mmod_Torsional_Energy-OPLS-2005>
203.519943237305

> <r_mmod_Improper_Torsional_Energy-OPLS-2005>
3.07384276390076

> <r_mmod_Van_der_Waal_Energy-OPLS-2005>
141.75114440918

> <r_mmod_Electrostatic_Energy-OPLS-2005>
-416.601593017578

> <r_mmod_Solvation_Energy-OPLS-2005>
-215.590225219727

> <b_mmod_Minimization_Converged-OPLS-2005>
0

> <r_mmod_RMS_Derivative-OPLS-2005>
3.76275587081909

$$$$
53
                    3D
 Structure written by MMmdl.
159167  0  0  1  0            999 V2000
  -30.6371  -14.7572   20.4865 C   0  0  0  0  0  0
  -30.4328  -12.4790   19.4580 C   0  0  0  0  0  0
  -29.5076  -12.5107   18.2244 C   0  0  0  0  0  0
  -28.0379  -12.3230   18.6497 C   0  0  0  0  0  0
  -27.6387  -13.2356   19.8407 C   0  0  2  0  0  0
  -28.6879  -13.1984   20.9718 C   0  0  0  0  0  0
  -25.2508  -13.8198   20.5677 C   0  0  0  0  0  0
  -24.1806  -13.0437   20.9190 C   0  0  0  0  0  0
  -24.6422  -11.6923   20.8746 C   0  0  0  0  0  0
  -23.9107  -10.4295   21.0414 C   0  0  0  0  0  0
  -24.3644   -9.4202   21.9202 C   0  0  0  0  0  0
  -23.6297   -8.2258   22.0777 C   0  0  0  0  0  0
  -22.4279   -8.0311   21.3567 C   0  0  0  0  0  0
  -21.9925   -9.0291   20.4671 C   0  0  0  0  0  0
  -22.7269  -10.2154   20.3071 C   0  0  0  0  0  0
  -21.6859   -6.0752   22.5275 C   0  0  0  0  0  0
  -21.4014   -6.5649   23.8211 C   0  0  0  0  0  0
  -21.3654   -5.6800   24.9171 C   0  0  0  0  0  0
  -21.6039   -4.3069   24.7213 C   0  0  0  0  0  0
  -21.8814   -3.8158   23.4339 C   0  0  0  0  0  0
  -21.9190   -4.6978   22.3395 C   0  0  0  0  0  0
  -22.7819  -13.5238   21.1835 C   0  0  0  0  0  0
  -22.1652   -4.2162   21.0973 F   0  0  0  0  0  0
  -21.5632   -3.4542   25.7723 F   0  0  0  0  0  0
  -29.9780  -13.5537   20.3691 N   0  0  0  0  0  0
  -26.2943  -12.9423   20.3262 N   0  0  0  0  0  0
  -25.9354  -11.6561   20.5749 N   0  0  0  0  0  0
  -22.0457  -12.8252   22.0396 N   0  0  0  0  0  0
  -25.4158  -15.1930   20.4076 N   0  0  0  0  0  0
  -31.8360  -14.8208   20.2042 O   0  0  0  0  0  0
  -21.6643   -6.8901   21.4250 O   0  0  0  0  0  0
  -22.3516  -14.5550   20.6684 O   0  0  0  0  0  0
  -24.6335  -31.8553   23.1990 C   0  0  0  0  0  0
  -25.9152  -32.4757   23.8340 C   0  0  1  0  0  0
  -27.2199  -27.2491   20.1221 C   0  0  0  0  0  0
  -25.5944  -33.8555   24.2267 N   0  0  0  0  0  0
  -23.4312  -30.4786   21.5443 C   0  0  2  0  0  0
  -24.8770  -28.9272   20.1117 C   0  0  0  0  0  0
  -22.7526  -29.4595   22.4928 C   0  0  0  0  0  0
  -18.0292  -28.1387   22.8477 C   0  0  0  0  0  0
  -24.1491  -36.7287   23.2643 C   0  0  0  0  0  0
  -25.9799  -30.7629   21.3827 C   0  0  0  0  0  0
  -26.0524  -29.3862   20.7207 C   0  0  0  0  0  0
  -27.2263  -28.5615   20.7133 C   0  0  0  0  0  0
  -26.0171  -26.8677   19.4829 C   0  0  0  0  0  0
  -24.8671  -27.6762   19.4815 C   0  0  0  0  0  0
  -23.6496  -29.8156   20.1598 C   0  0  0  0  0  0
  -25.4116  -36.3073   24.0337 C   0  0  1  0  0  0
  -20.5890  -28.3710   23.1259 C   0  0  2  0  0  0
  -20.6771  -26.9423   22.5400 C   0  0  0  0  0  0
  -19.5752  -26.6385   21.5203 C   0  0  0  0  0  0
  -18.1936  -26.7926   22.1618 C   0  0  0  0  0  0
  -19.1543  -28.8868   23.2866 C   0  0  0  0  0  0
  -18.9465  -30.1459   23.8893 C   0  0  0  0  0  0
  -17.6466  -30.6587   24.0550 C   0  0  0  0  0  0
  -25.9054  -34.9439   23.5103 C   0  0  0  0  0  0
  -16.5359  -29.9077   23.6323 C   0  0  0  0  0  0
  -16.7281  -28.6493   23.0356 C   0  0  0  0  0  0
  -26.4502  -31.6591   25.0733 C   0  0  0  0  0  0
  -25.3715  -31.3741   26.1449 C   0  0  0  0  0  0
  -27.0352  -30.3001   24.6237 C   0  0  0  0  0  0
  -27.6061  -32.4331   25.7508 C   0  0  0  0  0  0
  -27.5584  -37.1797   24.8469 C   0  0  0  0  0  0
  -21.4222  -29.3062   22.3670 N   0  0  0  0  0  0
  -26.4286  -37.3774   23.9413 N   0  0  0  0  0  0
  -24.7009  -31.0497   22.0982 N   0  0  0  0  0  0
  -23.4218  -28.8123   23.3024 O   0  0  0  0  0  0
  -28.3022  -26.3301   20.1795 O   0  0  0  0  0  0
  -26.5630  -34.8916   22.4671 O   0  0  0  0  0  0
  -23.5482  -32.1385   23.7282 O   0  0  0  0  0  0
  -30.7096  -18.7518   23.8636 C   0  0  0  0  0  0
  -31.0894  -17.4122   23.8957 C   0  0  0  0  0  0
  -30.1214  -19.2752   22.7060 C   0  0  0  0  0  0
  -30.8404  -16.5962   22.7845 C   0  0  0  0  0  0
  -29.8916  -18.5129   21.5251 C   0  0  0  0  0  0
  -30.2293  -17.0622   21.5857 C   0  0  0  0  0  0
  -27.3498  -21.8467   21.1937 C   0  0  0  0  0  0
  -29.2814  -19.4254   20.3686 C   0  0  0  0  0  0
  -29.0315  -23.6288   20.3504 C   0  0  0  0  0  0
  -28.0045  -24.8528   20.0254 C   0  0  0  0  0  0
  -28.5382  -22.0658   20.2349 C   0  0  1  0  0  0
  -29.9103  -15.9354   20.6751 N   0  0  0  0  0  0
  -29.5948  -20.9500   20.4285 N   0  3  0  0  0  0
  -31.4722  -12.6066   19.1518 H   0  0  0  0  0  0
  -30.3851  -11.5101   19.9559 H   0  0  0  0  0  0
  -29.7955  -11.7378   17.5096 H   0  0  0  0  0  0
  -29.6224  -13.4637   17.7054 H   0  0  0  0  0  0
  -27.9089  -11.2760   18.9262 H   0  0  0  0  0  0
  -27.3763  -12.4984   17.8009 H   0  0  0  0  0  0
  -27.6222  -14.2517   19.4456 H   0  0  0  0  0  0
  -28.7351  -12.2111   21.4332 H   0  0  0  0  0  0
  -28.4263  -13.8990   21.7672 H   0  0  0  0  0  0
  -25.2795   -9.5666   22.4773 H   0  0  0  0  0  0
  -23.9990   -7.4647   22.7512 H   0  0  0  0  0  0
  -21.0847   -8.8837   19.8974 H   0  0  0  0  0  0
  -22.3758  -10.9704   19.6180 H   0  0  0  0  0  0
  -21.2011   -7.6156   23.9713 H   0  0  0  0  0  0
  -21.1475   -6.0531   25.9074 H   0  0  0  0  0  0
  -22.0596   -2.7618   23.2827 H   0  0  0  0  0  0
  -22.4039  -11.9905   22.4781 H   0  0  0  0  0  0
  -21.1085  -13.1312   22.2603 H   0  0  0  0  0  0
  -24.6450  -15.8402   20.5255 H   0  0  0  0  0  0
  -26.2587  -15.6392   20.0700 H   0  0  0  0  0  0
  -26.7220  -32.5405   23.1093 H   0  0  0  0  0  0
  -25.0102  -33.9684   25.0420 H   0  0  0  0  0  0
  -22.7284  -31.3021   21.3995 H   0  0  0  0  0  0
  -23.3762  -35.9610   23.3300 H   0  0  0  0  0  0
  -24.3574  -36.8899   22.2053 H   0  0  0  0  0  0
  -23.7223  -37.6483   23.6660 H   0  0  0  0  0  0
  -26.1211  -31.5225   20.6131 H   0  0  0  0  0  0
  -26.8563  -30.8117   22.0168 H   0  0  0  0  0  0
  -28.1251  -28.9065   21.2064 H   0  0  0  0  0  0
  -25.9224  -25.9141   18.9885 H   0  0  0  0  0  0
  -23.9698  -27.3153   18.9960 H   0  0  0  0  0  0
  -23.7806  -30.5941   19.4078 H   0  0  0  0  0  0
  -22.7667  -29.2538   19.8496 H   0  0  0  0  0  0
  -25.1285  -36.1935   25.0827 H   0  0  0  0  0  0
  -20.9979  -28.3286   24.1380 H   0  0  0  0  0  0
  -20.5659  -26.2326   23.3610 H   0  0  0  0  0  0
  -21.6640  -26.7434   22.1203 H   0  0  0  0  0  0
  -19.6915  -25.6296   21.1239 H   0  0  0  0  0  0
  -19.6673  -27.3192   20.6731 H   0  0  0  0  0  0
  -17.4190  -26.6676   21.4028 H   0  0  0  0  0  0
  -18.0341  -26.0065   22.9019 H   0  0  0  0  0  0
  -19.7944  -30.7268   24.2275 H   0  0  0  0  0  0
  -17.5018  -31.6264   24.5165 H   0  0  0  0  0  0
  -15.5357  -30.2984   23.7647 H   0  0  0  0  0  0
  -15.8679  -28.0806   22.7088 H   0  0  0  0  0  0
  -24.5908  -30.7069   25.7782 H   0  0  0  0  0  0
  -24.8883  -32.2900   26.4868 H   0  0  0  0  0  0
  -25.8015  -30.8931   27.0246 H   0  0  0  0  0  0
  -26.2936  -29.6759   24.1232 H   0  0  0  0  0  0
  -27.4001  -29.7256   25.4771 H   0  0  0  0  0  0
  -27.8836  -30.4289   23.9507 H   0  0  0  0  0  0
  -27.2683  -33.3654   26.2070 H   0  0  0  0  0  0
  -28.3881  -32.6860   25.0327 H   0  0  0  0  0  0
  -28.0731  -31.8462   26.5439 H   0  0  0  0  0  0
  -28.2597  -38.0103   24.7508 H   0  0  0  0  0  0
  -28.1074  -36.2620   24.6296 H   0  0  0  0  0  0
  -27.2292  -37.1455   25.8871 H   0  0  0  0  0  0
  -20.9439  -29.8807   21.6867 H   0  0  0  0  0  0
  -26.0182  -38.2850   24.1406 H   0  0  0  0  0  0
  -30.8571  -19.3802   24.7318 H   0  0  0  0  0  0
  -31.5347  -16.9948   24.7887 H   0  0  0  0  0  0
  -29.8321  -20.3118   22.7764 H   0  0  0  0  0  0
  -31.1020  -15.5567   22.9183 H   0  0  0  0  0  0
  -26.5455  -22.5543   20.9998 H   0  0  0  0  0  0
  -27.6536  -21.9663   22.2338 H   0  0  0  0  0  0
  -26.9028  -20.8598   21.0842 H   0  0  0  0  0  0
  -28.2073  -19.2517   20.3402 H   0  0  0  0  0  0
  -29.6563  -19.0480   19.4168 H   0  0  0  0  0  0
  -29.4151  -23.7820   21.3595 H   0  0  0  0  0  0
  -29.8935  -23.7528   19.6956 H   0  0  0  0  0  0
  -27.1208  -24.6747   20.6371 H   0  0  0  0  0  0
  -27.6924  -24.6995   18.9920 H   0  0  0  0  0  0
  -28.1643  -21.9323   19.2187 H   0  0  0  0  0  0
  -28.9294  -15.8457   20.4610 H   0  0  0  0  0  0
  -30.3155  -21.1004   19.7400 H   0  0  0  0  0  0
  -30.0418  -21.1016   21.3164 H   0  0  0  0  0  0
  1 25  1  0  0  0
  1 30  2  0  0  0
  1 82  1  0  0  0
  2  3  1  0  0  0
  2 25  1  0  0  0
  2 84  1  0  0  0
  2 85  1  0  0  0
  3  4  1  0  0  0
  3 86  1  0  0  0
  3 87  1  0  0  0
  4  5  1  0  0  0
  4 88  1  0  0  0
  4 89  1  0  0  0
  5  6  1  0  0  0
  5 26  1  0  0  0
  5 90  1  0  0  0
  6 25  1  0  0  0
  6 91  1  0  0  0
  6 92  1  0  0  0
  7  8  2  0  0  0
  7 26  1  0  0  0
  7 29  1  0  0  0
  8  9  1  0  0  0
  8 22  1  0  0  0
  9 10  1  0  0  0
  9 27  2  0  0  0
 10 11  2  0  0  0
 10 15  1  0  0  0
 11 12  1  0  0  0
 11 93  1  0  0  0
 12 13  2  0  0  0
 12 94  1  0  0  0
 13 14  1  0  0  0
 13 31  1  0  0  0
 14 15  2  0  0  0
 14 95  1  0  0  0
 15 96  1  0  0  0
 16 17  2  0  0  0
 16 21  1  0  0  0
 16 31  1  0  0  0
 17 18  1  0  0  0
 17 97  1  0  0  0
 18 19  2  0  0  0
 18 98  1  0  0  0
 19 20  1  0  0  0
 19 24  1  0  0  0
 20 21  2  0  0  0
 20 99  1  0  0  0
 21 23  1  0  0  0
 22 28  1  0  0  0
 22 32  2  0  0  0
 26 27  1  0  0  0
 28100  1  0  0  0
 28101  1  0  0  0
 29102  1  0  0  0
 29103  1  0  0  0
 33 34  1  0  0  0
 33 66  1  0  0  0
 33 70  2  0  0  0
 34 36  1  0  0  0
 34 59  1  0  0  0
 34104  1  0  0  0
 35 44  2  0  0  0
 35 45  1  0  0  0
 35 68  1  0  0  0
 36 56  1  0  0  0
 36105  1  0  0  0
 37 39  1  0  0  0
 37 47  1  0  0  0
 37 66  1  0  0  0
 37106  1  0  0  0
 38 43  2  0  0  0
 38 46  1  0  0  0
 38 47  1  0  0  0
 39 64  1  0  0  0
 39 67  2  0  0  0
 40 52  1  0  0  0
 40 53  2  0  0  0
 40 58  1  0  0  0
 41107  1  0  0  0
 41108  1  0  0  0
 41109  1  0  0  0
 41 48  1  0  0  0
 42 43  1  0  0  0
 42 66  1  0  0  0
 42110  1  0  0  0
 42111  1  0  0  0
 43 44  1  0  0  0
 44112  1  0  0  0
 45 46  2  0  0  0
 45113  1  0  0  0
 46114  1  0  0  0
 47115  1  0  0  0
 47116  1  0  0  0
 48 56  1  0  0  0
 48 65  1  0  0  0
 48117  1  0  0  0
 49 50  1  0  0  0
 49 53  1  0  0  0
 49 64  1  0  0  0
 49118  1  0  0  0
 50 51  1  0  0  0
 50119  1  0  0  0
 50120  1  0  0  0
 51 52  1  0  0  0
 51121  1  0  0  0
 51122  1  0  0  0
 52123  1  0  0  0
 52124  1  0  0  0
 53 54  1  0  0  0
 54 55  2  0  0  0
 54125  1  0  0  0
 55 57  1  0  0  0
 55126  1  0  0  0
 56 69  2  0  0  0
 57 58  2  0  0  0
 57127  1  0  0  0
 58128  1  0  0  0
 59 60  1  0  0  0
 59 61  1  0  0  0
 59 62  1  0  0  0
 60129  1  0  0  0
 60130  1  0  0  0
 60131  1  0  0  0
 61132  1  0  0  0
 61133  1  0  0  0
 61134  1  0  0  0
 62135  1  0  0  0
 62136  1  0  0  0
 62137  1  0  0  0
 63 65  1  0  0  0
 63138  1  0  0  0
 63139  1  0  0  0
 63140  1  0  0  0
 64141  1  0  0  0
 65142  1  0  0  0
 68 80  1  0  0  0
 71 72  2  0  0  0
 71 73  1  0  0  0
 71143  1  0  0  0
 72 74  1  0  0  0
 72144  1  0  0  0
 73 75  2  0  0  0
 73145  1  0  0  0
 74 76  2  0  0  0
 74146  1  0  0  0
 75 76  1  0  0  0
 75 78  1  0  0  0
 76 82  1  0  0  0
 77147  1  0  0  0
 77148  1  0  0  0
 77149  1  0  0  0
 77 81  1  0  0  0
 78 83  1  0  0  0
 78150  1  0  0  0
 78151  1  0  0  0
 79 80  1  0  0  0
 79 81  1  0  0  0
 79152  1  0  0  0
 79153  1  0  0  0
 80154  1  0  0  0
 80155  1  0  0  0
 81 83  1  0  0  0
 81156  1  0  0  0
 82157  1  0  0  0
 83158  1  0  0  0
 83159  1  0  0  0
M  CHG  1  83   1
M  ISO  4   1 100  68 101  80 101  82 100
M  END
> <chiral flag>
0

> <version>
0

> <s_m_source_file>
/data/baiqing/PycharmProjects/Reinvent-master-3.2/result/LINK_invent/BTK/process_docking_weight1_custom_sum_contain_oxygen_bond_distance_aromatic_linkinvent_7_9_3/rearranged_h_0132.sdf

> <i_m_source_file_index>
52

> <r_mmod_Potential_Energy-OPLS-2005>
119.667411804199

> <r_mmod_Stretch_Energy-OPLS-2005>
152.072998046875

> <r_mmod_Bend_Energy-OPLS-2005>
206.44660949707

> <r_mmod_Torsional_Energy-OPLS-2005>
252.744354248047

> <r_mmod_Improper_Torsional_Energy-OPLS-2005>
7.50741386413574

> <r_mmod_Van_der_Waal_Energy-OPLS-2005>
151.236862182617

> <r_mmod_Electrostatic_Energy-OPLS-2005>
-261.097076416016

> <r_mmod_Solvation_Energy-OPLS-2005>
-484.957916259766

> <b_mmod_Minimization_Converged-OPLS-2005>
0

> <r_mmod_RMS_Derivative-OPLS-2005>
2.62049245834351

$$$$
54
                    3D
 Structure written by MMmdl.
192201  0  0  1  0            999 V2000
  -30.7147  -14.4109   20.6539 C   0  0  0  0  0  0
  -30.4223  -12.3029   19.4052 C   0  0  0  0  0  0
  -29.4884  -12.5289   18.1969 C   0  0  0  0  0  0
  -28.0141  -12.3692   18.6165 C   0  0  0  0  0  0
  -27.6639  -13.1973   19.8824 C   0  0  2  0  0  0
  -28.6970  -12.9387   21.0012 C   0  0  0  0  0  0
  -25.2571  -13.8142   20.5697 C   0  0  0  0  0  0
  -24.1803  -13.0443   20.9144 C   0  0  0  0  0  0
  -24.6333  -11.6895   20.8695 C   0  0  0  0  0  0
  -23.9009  -10.4279   21.0363 C   0  0  0  0  0  0
  -24.3586   -9.4211   21.9142 C   0  0  0  0  0  0
  -23.6267   -8.2250   22.0752 C   0  0  0  0  0  0
  -22.4256   -8.0258   21.3542 C   0  0  0  0  0  0
  -21.9857   -9.0217   20.4645 C   0  0  0  0  0  0
  -22.7173  -10.2098   20.3013 C   0  0  0  0  0  0
  -21.6871   -6.0710   22.5266 C   0  0  0  0  0  0
  -21.4045   -6.5626   23.8186 C   0  0  0  0  0  0
  -21.3647   -5.6781   24.9151 C   0  0  0  0  0  0
  -21.6034   -4.3042   24.7222 C   0  0  0  0  0  0
  -21.8839   -3.8131   23.4346 C   0  0  0  0  0  0
  -21.9220   -4.6936   22.3393 C   0  0  0  0  0  0
  -22.7811  -13.5242   21.1826 C   0  0  0  0  0  0
  -22.1702   -4.2119   21.0977 F   0  0  0  0  0  0
  -21.5620   -3.4545   25.7750 F   0  0  0  0  0  0
  -30.0406  -13.2450   20.4694 N   0  0  0  0  0  0
  -26.2992  -12.9299   20.3371 N   0  0  0  0  0  0
  -25.9249  -11.6446   20.5712 N   0  0  0  0  0  0
  -22.0476  -12.8190   22.0372 N   0  0  0  0  0  0
  -25.4349  -15.1852   20.4120 N   0  0  0  0  0  0
  -31.7571  -14.6969   20.0588 O   0  0  0  0  0  0
  -21.6653   -6.8835   21.4217 O   0  0  0  0  0  0
  -22.3467  -14.5564   20.6706 O   0  0  0  0  0  0
  -24.6118  -31.8701   23.2126 C   0  0  0  0  0  0
  -25.9017  -32.4834   23.8422 C   0  0  1  0  0  0
  -27.2376  -27.4711   20.0687 C   0  0  0  0  0  0
  -25.5887  -33.8631   24.2353 N   0  0  0  0  0  0
  -23.3991  -30.4932   21.5528 C   0  0  2  0  0  0
  -24.8459  -28.9614   20.1183 C   0  0  0  0  0  0
  -22.7392  -29.4668   22.5010 C   0  0  0  0  0  0
  -18.0269  -28.1372   22.8496 C   0  0  0  0  0  0
  -24.1484  -36.7318   23.2641 C   0  0  0  0  0  0
  -25.9255  -30.8425   21.3629 C   0  0  0  0  0  0
  -26.0056  -29.4791   20.7097 C   0  0  0  0  0  0
  -27.2074  -28.7388   20.6887 C   0  0  0  0  0  0
  -26.0581  -26.9460   19.5046 C   0  0  0  0  0  0
  -24.8650  -27.6906   19.5176 C   0  0  0  0  0  0
  -23.6062  -29.8245   20.1682 C   0  0  0  0  0  0
  -25.4105  -36.3120   24.0347 C   0  0  1  0  0  0
  -20.5853  -28.3660   23.1325 C   0  0  2  0  0  0
  -20.6757  -26.9400   22.5421 C   0  0  0  0  0  0
  -19.5739  -26.6385   21.5214 C   0  0  0  0  0  0
  -18.1916  -26.7925   22.1620 C   0  0  0  0  0  0
  -19.1516  -28.8833   23.2908 C   0  0  0  0  0  0
  -18.9446  -30.1439   23.8914 C   0  0  0  0  0  0
  -17.6449  -30.6585   24.0563 C   0  0  0  0  0  0
  -25.9028  -34.9484   23.5145 C   0  0  0  0  0  0
  -16.5342  -29.9084   23.6325 C   0  0  0  0  0  0
  -16.7258  -28.6501   23.0349 C   0  0  0  0  0  0
  -26.4464  -31.6601   25.0731 C   0  0  0  0  0  0
  -25.3742  -31.3689   26.1487 C   0  0  0  0  0  0
  -27.0306  -30.3056   24.6081 C   0  0  0  0  0  0
  -27.6052  -32.4318   25.7476 C   0  0  0  0  0  0
  -27.5585  -37.1810   24.8466 C   0  0  0  0  0  0
  -21.4125  -29.3032   22.3739 N   0  0  0  0  0  0
  -26.4296  -37.3801   23.9412 N   0  0  0  0  0  0
  -24.6632  -31.0827   22.1006 N   0  0  0  0  0  0
  -23.4175  -28.8200   23.3038 O   0  0  0  0  0  0
  -28.3941  -26.7369   20.0072 O   0  0  0  0  0  0
  -26.5591  -34.8927   22.4704 O   0  0  0  0  0  0
  -23.5319  -32.1441   23.7533 O   0  0  0  0  0  0
  -33.7196  -19.6325   18.4194 C   0  0  0  0  0  0
  -27.7257  -24.7059   15.1806 C   0  0  0  0  0  0
  -32.2099  -19.4822   18.6463 C   0  0  0  0  0  0
  -27.6787  -23.3477   15.8687 C   0  0  0  0  0  0
  -34.2486  -18.4823   17.5510 C   0  0  0  0  0  0
  -27.7142  -25.6933   16.3477 C   0  0  0  0  0  0
  -32.0375  -18.3200   16.4245 C   0  0  0  0  0  0
  -31.4456  -19.4704   17.2959 C   0  0  1  0  0  0
  -28.5061  -23.5603   17.1455 C   0  0  2  0  0  0
  -29.1866  -19.4050   16.0652 C   0  0  0  0  0  0
  -28.1147  -22.5941   18.2916 C   0  0  0  0  0  0
  -30.3821  -16.7257   21.5489 C   0  0  0  0  0  0
  -29.4883  -25.6407   18.1181 C   0  0  0  0  0  0
  -29.4393  -17.5042   20.5985 C   0  0  0  0  0  0
  -28.7108  -19.7605   19.7798 C   0  0  0  0  0  0
  -29.1733  -26.9712   18.8325 C   0  0  0  0  0  0
  -29.8878  -19.3767   17.4521 C   0  0  2  0  0  0
  -29.2994  -20.4131   18.4847 C   0  0  1  0  0  0
  -30.1158  -15.2853   21.4786 N   0  0  0  0  0  0
  -28.2117  -21.1894   17.8816 N   0  0  0  0  0  0
  -33.5093  -18.4002   16.2739 N   0  3  0  0  0  0
  -28.2917  -24.9850   17.5219 N   0  3  1  0  0  0
  -29.6672  -18.9724   20.6048 N   0  3  0  0  0  0
  -31.4659  -12.4139   19.1056 H   0  0  0  0  0  0
  -30.3253  -11.2781   19.7656 H   0  0  0  0  0  0
  -29.7288  -11.8323   17.3925 H   0  0  0  0  0  0
  -29.6494  -13.5290   17.7871 H   0  0  0  0  0  0
  -27.8331  -11.3111   18.8080 H   0  0  0  0  0  0
  -27.3587  -12.6431   17.7904 H   0  0  0  0  0  0
  -27.7222  -14.2501   19.6068 H   0  0  0  0  0  0
  -28.6646  -11.8915   21.3027 H   0  0  0  0  0  0
  -28.4344  -13.5022   21.8975 H   0  0  0  0  0  0
  -25.2749   -9.5713   22.4674 H   0  0  0  0  0  0
  -23.9989   -7.4670   22.7475 H   0  0  0  0  0  0
  -21.0796   -8.8718   19.8955 H   0  0  0  0  0  0
  -22.3634  -10.9616   19.6103 H   0  0  0  0  0  0
  -21.2068   -7.6147   23.9672 H   0  0  0  0  0  0
  -21.1411   -6.0525   25.9044 H   0  0  0  0  0  0
  -22.0617   -2.7589   23.2854 H   0  0  0  0  0  0
  -22.4206  -11.9914   22.4789 H   0  0  0  0  0  0
  -21.1059  -13.1131   22.2570 H   0  0  0  0  0  0
  -24.6815  -15.8524   20.5377 H   0  0  0  0  0  0
  -26.2853  -15.6074   20.0629 H   0  0  0  0  0  0
  -26.7088  -32.5567   23.1195 H   0  0  0  0  0  0
  -25.0051  -33.9806   25.0506 H   0  0  0  0  0  0
  -22.6863  -31.3085   21.4142 H   0  0  0  0  0  0
  -23.3748  -35.9648   23.3311 H   0  0  0  0  0  0
  -24.3580  -36.8920   22.2053 H   0  0  0  0  0  0
  -23.7230  -37.6524   23.6643 H   0  0  0  0  0  0
  -26.0361  -31.6101   20.5967 H   0  0  0  0  0  0
  -26.8139  -30.8963   21.9800 H   0  0  0  0  0  0
  -28.1072  -29.1389   21.1358 H   0  0  0  0  0  0
  -26.0541  -25.9652   19.0548 H   0  0  0  0  0  0
  -23.9697  -27.2812   19.0708 H   0  0  0  0  0  0
  -23.7090  -30.5991   19.4074 H   0  0  0  0  0  0
  -22.7321  -29.2403   19.8756 H   0  0  0  0  0  0
  -25.1278  -36.2000   25.0842 H   0  0  0  0  0  0
  -20.9944  -28.3220   24.1446 H   0  0  0  0  0  0
  -20.5663  -26.2263   23.3601 H   0  0  0  0  0  0
  -21.6627  -26.7443   22.1209 H   0  0  0  0  0  0
  -19.6900  -25.6300   21.1228 H   0  0  0  0  0  0
  -19.6682  -27.3206   20.6752 H   0  0  0  0  0  0
  -17.4188  -26.6681   21.4019 H   0  0  0  0  0  0
  -18.0312  -26.0058   22.9006 H   0  0  0  0  0  0
  -19.7922  -30.7250   24.2287 H   0  0  0  0  0  0
  -17.5008  -31.6266   24.5159 H   0  0  0  0  0  0
  -15.5345  -30.2994   23.7638 H   0  0  0  0  0  0
  -15.8659  -28.0828   22.7055 H   0  0  0  0  0  0
  -24.5902  -30.7054   25.7817 H   0  0  0  0  0  0
  -24.8949  -32.2840   26.4979 H   0  0  0  0  0  0
  -25.8108  -30.8819   27.0216 H   0  0  0  0  0  0
  -26.2844  -29.6802   24.1160 H   0  0  0  0  0  0
  -27.4128  -29.7305   25.4527 H   0  0  0  0  0  0
  -27.8656  -30.4406   23.9198 H   0  0  0  0  0  0
  -27.2682  -33.3606   26.2096 H   0  0  0  0  0  0
  -28.3828  -32.6897   25.0270 H   0  0  0  0  0  0
  -28.0755  -31.8413   26.5351 H   0  0  0  0  0  0
  -28.2602  -38.0109   24.7527 H   0  0  0  0  0  0
  -28.1083  -36.2642   24.6276 H   0  0  0  0  0  0
  -27.2306  -37.1445   25.8870 H   0  0  0  0  0  0
  -20.9272  -29.8769   21.6982 H   0  0  0  0  0  0
  -26.0193  -38.2883   24.1413 H   0  0  0  0  0  0
  -34.2441  -19.6460   19.3762 H   0  0  0  0  0  0
  -33.9315  -20.5903   17.9397 H   0  0  0  0  0  0
  -26.8989  -24.8646   14.4858 H   0  0  0  0  0  0
  -28.6553  -24.8118   14.6198 H   0  0  0  0  0  0
  -31.8962  -20.2982   19.2959 H   0  0  0  0  0  0
  -32.0293  -18.5544   19.1892 H   0  0  0  0  0  0
  -28.0670  -22.5431   15.2436 H   0  0  0  0  0  0
  -26.6446  -23.1076   16.1186 H   0  0  0  0  0  0
  -34.1551  -17.5347   18.0846 H   0  0  0  0  0  0
  -35.3109  -18.6218   17.3457 H   0  0  0  0  0  0
  -26.6888  -25.9806   16.5836 H   0  0  0  0  0  0
  -28.2492  -26.6061   16.0841 H   0  0  0  0  0  0
  -31.6205  -18.3360   15.4182 H   0  0  0  0  0  0
  -31.7757  -17.3530   16.8583 H   0  0  0  0  0  0
  -31.6615  -20.4131   16.7870 H   0  0  0  0  0  0
  -29.5573  -23.4181   16.8862 H   0  0  0  0  0  0
  -29.4823  -18.5648   15.4388 H   0  0  0  0  0  0
  -29.4155  -20.3208   15.5175 H   0  0  0  0  0  0
  -28.1039  -19.3069   16.1535 H   0  0  0  0  0  0
  -27.0729  -22.7785   18.5614 H   0  0  0  0  0  0
  -28.7004  -22.8002   19.1897 H   0  0  0  0  0  0
  -30.2269  -17.0469   22.5809 H   0  0  0  0  0  0
  -31.4275  -16.9323   21.3123 H   0  0  0  0  0  0
  -29.9552  -24.9639   18.8338 H   0  0  0  0  0  0
  -30.2275  -25.8115   17.3341 H   0  0  0  0  0  0
  -28.4051  -17.3089   20.8894 H   0  0  0  0  0  0
  -29.5511  -17.1169   19.5879 H   0  0  0  0  0  0
  -27.8366  -19.1545   19.5333 H   0  0  0  0  0  0
  -28.3292  -20.5561   20.4215 H   0  0  0  0  0  0
  -28.7058  -27.6824   18.1479 H   0  0  0  0  0  0
  -30.1094  -27.4328   19.1487 H   0  0  0  0  0  0
  -29.6692  -18.3792   17.8274 H   0  0  0  0  0  0
  -30.0750  -21.1325   18.7452 H   0  0  0  0  0  0
  -29.3235  -14.9372   22.0004 H   0  0  0  0  0  0
  -28.2549  -21.1226   16.8695 H   0  0  0  0  0  0
  -33.8271  -17.5814   15.7790 H   0  0  0  0  0  0
  -33.7445  -19.1949   15.7022 H   0  0  0  0  0  0
  -27.5753  -24.9817   18.2328 H   0  0  0  0  0  0
  -30.6116  -19.1950   20.3370 H   0  0  0  0  0  0
  -29.5588  -19.2755   21.5603 H   0  0  0  0  0  0
  1 25  1  0  0  0
  1 30  2  0  0  0
  1 89  1  0  0  0
  2  3  1  0  0  0
  2 25  1  0  0  0
  2 94  1  0  0  0
  2 95  1  0  0  0
  3  4  1  0  0  0
  3 96  1  0  0  0
  3 97  1  0  0  0
  4  5  1  0  0  0
  4 98  1  0  0  0
  4 99  1  0  0  0
  5  6  1  0  0  0
  5 26  1  0  0  0
  5100  1  0  0  0
  6 25  1  0  0  0
  6101  1  0  0  0
  6102  1  0  0  0
  7  8  2  0  0  0
  7 26  1  0  0  0
  7 29  1  0  0  0
  8  9  1  0  0  0
  8 22  1  0  0  0
  9 10  1  0  0  0
  9 27  2  0  0  0
 10 11  2  0  0  0
 10 15  1  0  0  0
 11 12  1  0  0  0
 11103  1  0  0  0
 12 13  2  0  0  0
 12104  1  0  0  0
 13 14  1  0  0  0
 13 31  1  0  0  0
 14 15  2  0  0  0
 14105  1  0  0  0
 15106  1  0  0  0
 16 17  2  0  0  0
 16 21  1  0  0  0
 16 31  1  0  0  0
 17 18  1  0  0  0
 17107  1  0  0  0
 18 19  2  0  0  0
 18108  1  0  0  0
 19 20  1  0  0  0
 19 24  1  0  0  0
 20 21  2  0  0  0
 20109  1  0  0  0
 21 23  1  0  0  0
 22 28  1  0  0  0
 22 32  2  0  0  0
 26 27  1  0  0  0
 28110  1  0  0  0
 28111  1  0  0  0
 29112  1  0  0  0
 29113  1  0  0  0
 33 34  1  0  0  0
 33 66  1  0  0  0
 33 70  2  0  0  0
 34 36  1  0  0  0
 34 59  1  0  0  0
 34114  1  0  0  0
 35 44  2  0  0  0
 35 45  1  0  0  0
 35 68  1  0  0  0
 36 56  1  0  0  0
 36115  1  0  0  0
 37 39  1  0  0  0
 37 47  1  0  0  0
 37 66  1  0  0  0
 37116  1  0  0  0
 38 43  2  0  0  0
 38 46  1  0  0  0
 38 47  1  0  0  0
 39 64  1  0  0  0
 39 67  2  0  0  0
 40 52  1  0  0  0
 40 53  2  0  0  0
 40 58  1  0  0  0
 41117  1  0  0  0
 41118  1  0  0  0
 41119  1  0  0  0
 41 48  1  0  0  0
 42 43  1  0  0  0
 42 66  1  0  0  0
 42120  1  0  0  0
 42121  1  0  0  0
 43 44  1  0  0  0
 44122  1  0  0  0
 45 46  2  0  0  0
 45123  1  0  0  0
 46124  1  0  0  0
 47125  1  0  0  0
 47126  1  0  0  0
 48 56  1  0  0  0
 48 65  1  0  0  0
 48127  1  0  0  0
 49 50  1  0  0  0
 49 53  1  0  0  0
 49 64  1  0  0  0
 49128  1  0  0  0
 50 51  1  0  0  0
 50129  1  0  0  0
 50130  1  0  0  0
 51 52  1  0  0  0
 51131  1  0  0  0
 51132  1  0  0  0
 52133  1  0  0  0
 52134  1  0  0  0
 53 54  1  0  0  0
 54 55  2  0  0  0
 54135  1  0  0  0
 55 57  1  0  0  0
 55136  1  0  0  0
 56 69  2  0  0  0
 57 58  2  0  0  0
 57137  1  0  0  0
 58138  1  0  0  0
 59 60  1  0  0  0
 59 61  1  0  0  0
 59 62  1  0  0  0
 60139  1  0  0  0
 60140  1  0  0  0
 60141  1  0  0  0
 61142  1  0  0  0
 61143  1  0  0  0
 61144  1  0  0  0
 62145  1  0  0  0
 62146  1  0  0  0
 62147  1  0  0  0
 63 65  1  0  0  0
 63148  1  0  0  0
 63149  1  0  0  0
 63150  1  0  0  0
 64151  1  0  0  0
 65152  1  0  0  0
 68 86  1  0  0  0
 71 73  1  0  0  0
 71 75  1  0  0  0
 71153  1  0  0  0
 71154  1  0  0  0
 72 74  1  0  0  0
 72 76  1  0  0  0
 72155  1  0  0  0
 72156  1  0  0  0
 73157  1  0  0  0
 73158  1  0  0  0
 73 78  1  0  0  0
 74 79  1  0  0  0
 74159  1  0  0  0
 74160  1  0  0  0
 75 91  1  0  0  0
 75161  1  0  0  0
 75162  1  0  0  0
 76 92  1  0  0  0
 76163  1  0  0  0
 76164  1  0  0  0
 77 78  1  0  0  0
 77 91  1  0  0  0
 77165  1  0  0  0
 77166  1  0  0  0
 78 87  1  0  0  0
 78167  1  0  0  0
 79 81  1  0  0  0
 79 92  1  0  0  0
 79168  1  0  0  0
 80169  1  0  0  0
 80170  1  0  0  0
 80171  1  0  0  0
 80 87  1  0  0  0
 81 90  1  0  0  0
 81172  1  0  0  0
 81173  1  0  0  0
 82 84  1  0  0  0
 82 89  1  0  0  0
 82174  1  0  0  0
 82175  1  0  0  0
 83 86  1  0  0  0
 83176  1  0  0  0
 83177  1  0  0  0
 83 92  1  0  0  0
 84 93  1  0  0  0
 84178  1  0  0  0
 84179  1  0  0  0
 85 93  1  0  0  0
 85180  1  0  0  0
 85181  1  0  0  0
 85 88  1  0  0  0
 86182  1  0  0  0
 86183  1  0  0  0
 87 88  1  0  0  0
 87184  1  0  0  0
 88 90  1  0  0  0
 88185  1  0  0  0
 89186  1  0  0  0
 90187  1  0  0  0
 91188  1  0  0  0
 91189  1  0  0  0
 92190  1  0  0  0
 93191  1  0  0  0
 93192  1  0  0  0
M  CHG  3  91   1  92   1  93   1
M  ISO  4   1 100  68 101  86 101  89 100
M  END
> <chiral flag>
0

> <version>
0

> <s_m_source_file>
/data/baiqing/PycharmProjects/Reinvent-master-3.2/result/LINK_invent/BTK/process_docking_weight1_custom_sum_contain_oxygen_bond_distance_aromatic_linkinvent_7_9_3/rearranged_h_0132.sdf

> <i_m_source_file_index>
53

> <r_mmod_Potential_Energy-OPLS-2005>
-315.687469482422

> <r_mmod_Stretch_Energy-OPLS-2005>
43.0822868347168

> <r_mmod_Bend_Energy-OPLS-2005>
129.982818603516

> <r_mmod_Torsional_Energy-OPLS-2005>
401.536499023438

> <r_mmod_Improper_Torsional_Energy-OPLS-2005>
2.58132100105286

> <r_mmod_Van_der_Waal_Energy-OPLS-2005>
133.436584472656

> <r_mmod_Electrostatic_Energy-OPLS-2005>
459.059539794922

> <r_mmod_Solvation_Energy-OPLS-2005>
-1492.96655273438

> <b_mmod_Minimization_Converged-OPLS-2005>
0

> <r_mmod_RMS_Derivative-OPLS-2005>
3.20104813575745

$$$$
55
                    3D
 Structure written by MMmdl.
159167  0  0  1  0            999 V2000
  -30.6325  -14.6192   20.5299 C   0  0  0  0  0  0
  -30.4398  -12.3864   19.4568 C   0  0  0  0  0  0
  -29.5130  -12.5094   18.2265 C   0  0  0  0  0  0
  -28.0350  -12.3428   18.6360 C   0  0  0  0  0  0
  -27.6547  -13.2148   19.8620 C   0  0  2  0  0  0
  -28.6946  -13.0674   20.9965 C   0  0  0  0  0  0
  -25.2561  -13.8173   20.5692 C   0  0  0  0  0  0
  -24.1818  -13.0441   20.9168 C   0  0  0  0  0  0
  -24.6377  -11.6907   20.8712 C   0  0  0  0  0  0
  -23.9037  -10.4288   21.0393 C   0  0  0  0  0  0
  -24.3602   -9.4216   21.9180 C   0  0  0  0  0  0
  -23.6282   -8.2237   22.0757 C   0  0  0  0  0  0
  -22.4253   -8.0279   21.3544 C   0  0  0  0  0  0
  -21.9884   -9.0251   20.4647 C   0  0  0  0  0  0
  -22.7202  -10.2135   20.3046 C   0  0  0  0  0  0
  -21.6851   -6.0721   22.5267 C   0  0  0  0  0  0
  -21.4018   -6.5625   23.8208 C   0  0  0  0  0  0
  -21.3662   -5.6780   24.9164 C   0  0  0  0  0  0
  -21.6039   -4.3038   24.7223 C   0  0  0  0  0  0
  -21.8821   -3.8133   23.4340 C   0  0  0  0  0  0
  -21.9199   -4.6947   22.3390 C   0  0  0  0  0  0
  -22.7831  -13.5249   21.1829 C   0  0  0  0  0  0
  -22.1668   -4.2131   21.0971 F   0  0  0  0  0  0
  -21.5637   -3.4523   25.7739 F   0  0  0  0  0  0
  -30.0144  -13.4022   20.4395 N   0  0  0  0  0  0
  -26.2980  -12.9351   20.3281 N   0  0  0  0  0  0
  -25.9307  -11.6502   20.5698 N   0  0  0  0  0  0
  -22.0461  -12.8263   22.0395 N   0  0  0  0  0  0
  -25.4290  -15.1896   20.4141 N   0  0  0  0  0  0
  -31.7850  -14.7932   20.1257 O   0  0  0  0  0  0
  -21.6636   -6.8870   21.4233 O   0  0  0  0  0  0
  -22.3517  -14.5553   20.6671 O   0  0  0  0  0  0
  -24.6213  -31.8629   23.2043 C   0  0  0  0  0  0
  -25.9078  -32.4790   23.8358 C   0  0  1  0  0  0
  -27.2176  -27.3456   20.1197 C   0  0  0  0  0  0
  -25.5904  -33.8591   24.2278 N   0  0  0  0  0  0
  -23.4105  -30.4894   21.5437 C   0  0  2  0  0  0
  -24.8552  -28.9458   20.1102 C   0  0  0  0  0  0
  -22.7439  -29.4649   22.4916 C   0  0  0  0  0  0
  -18.0282  -28.1384   22.8491 C   0  0  0  0  0  0
  -24.1480  -36.7293   23.2638 C   0  0  0  0  0  0
  -25.9475  -30.8050   21.3712 C   0  0  0  0  0  0
  -26.0187  -29.4337   20.7139 C   0  0  0  0  0  0
  -27.1980  -28.6422   20.7125 C   0  0  0  0  0  0
  -26.0256  -26.8899   19.5092 C   0  0  0  0  0  0
  -24.8587  -27.6795   19.5026 C   0  0  0  0  0  0
  -23.6236  -29.8248   20.1575 C   0  0  0  0  0  0
  -25.4107  -36.3090   24.0329 C   0  0  1  0  0  0
  -20.5882  -28.3680   23.1291 C   0  0  2  0  0  0
  -20.6758  -26.9406   22.5411 C   0  0  0  0  0  0
  -19.5739  -26.6390   21.5201 C   0  0  0  0  0  0
  -18.1922  -26.7933   22.1625 C   0  0  0  0  0  0
  -19.1537  -28.8844   23.2894 C   0  0  0  0  0  0
  -18.9465  -30.1446   23.8913 C   0  0  0  0  0  0
  -17.6469  -30.6590   24.0568 C   0  0  0  0  0  0
  -25.9043  -34.9465   23.5105 C   0  0  0  0  0  0
  -16.5360  -29.9097   23.6325 C   0  0  0  0  0  0
  -16.7274  -28.6514   23.0349 C   0  0  0  0  0  0
  -26.4476  -31.6601   25.0719 C   0  0  0  0  0  0
  -25.3714  -31.3767   26.1450 C   0  0  0  0  0  0
  -27.0294  -30.3014   24.6172 C   0  0  0  0  0  0
  -27.6047  -32.4327   25.7488 C   0  0  0  0  0  0
  -27.5580  -37.1791   24.8460 C   0  0  0  0  0  0
  -21.4162  -29.3044   22.3676 N   0  0  0  0  0  0
  -26.4283  -37.3787   23.9416 N   0  0  0  0  0  0
  -24.6773  -31.0692   22.0962 N   0  0  0  0  0  0
  -23.4189  -28.8192   23.2972 O   0  0  0  0  0  0
  -28.3794  -26.5743   20.1768 O   0  0  0  0  0  0
  -26.5615  -34.8929   22.4672 O   0  0  0  0  0  0
  -23.5394  -32.1407   23.7396 O   0  0  0  0  0  0
  -29.6761  -19.4271   19.6444 C   0  0  0  0  0  0
  -29.8755  -19.3782   22.2407 C   0  0  0  0  0  0
  -29.4034  -17.8861   19.7264 C   0  0  0  0  0  0
  -29.5751  -17.8495   22.1609 C   0  0  0  0  0  0
  -29.6830  -20.2689   20.9639 C   0  0  2  0  0  0
  -30.1106  -17.1469   20.8930 C   0  0  1  0  0  0
  -28.6242  -21.4507   21.1124 C   0  0  0  0  0  0
  -28.2961  -24.0002   20.7017 C   0  0  0  0  0  0
  -28.4578  -25.1960   19.6742 C   0  0  0  0  0  0
  -29.8447  -15.6685   20.9179 N   0  0  0  0  0  0
  -28.8297  -22.6594   20.2260 N   0  3  0  0  0  0
  -31.4830  -12.5098   19.1593 H   0  0  0  0  0  0
  -30.3735  -11.3902   19.8952 H   0  0  0  0  0  0
  -29.7838  -11.7652   17.4758 H   0  0  0  0  0  0
  -29.6544  -13.4830   17.7545 H   0  0  0  0  0  0
  -27.8742  -11.2897   18.8722 H   0  0  0  0  0  0
  -27.3813  -12.5697   17.7923 H   0  0  0  0  0  0
  -27.6754  -14.2493   19.5185 H   0  0  0  0  0  0
  -28.7013  -12.0483   21.3834 H   0  0  0  0  0  0
  -28.4378  -13.7048   21.8429 H   0  0  0  0  0  0
  -25.2756   -9.5717   22.4732 H   0  0  0  0  0  0
  -24.0004   -7.4648   22.7476 H   0  0  0  0  0  0
  -21.0810   -8.8756   19.8966 H   0  0  0  0  0  0
  -22.3651  -10.9668   19.6140 H   0  0  0  0  0  0
  -21.2006   -7.6130   23.9698 H   0  0  0  0  0  0
  -21.1487   -6.0508   25.9073 H   0  0  0  0  0  0
  -22.0604   -2.7592   23.2827 H   0  0  0  0  0  0
  -22.4063  -11.9952   22.4840 H   0  0  0  0  0  0
  -21.1080  -13.1333   22.2575 H   0  0  0  0  0  0
  -24.6603  -15.8427   20.5215 H   0  0  0  0  0  0
  -26.2797  -15.6327   20.0922 H   0  0  0  0  0  0
  -26.7141  -32.5463   23.1110 H   0  0  0  0  0  0
  -25.0030  -33.9741   25.0406 H   0  0  0  0  0  0
  -22.7015  -31.3078   21.4044 H   0  0  0  0  0  0
  -23.3749  -35.9614   23.3299 H   0  0  0  0  0  0
  -24.3581  -36.8922   22.2056 H   0  0  0  0  0  0
  -23.7231  -37.6493   23.6663 H   0  0  0  0  0  0
  -26.0767  -31.5700   20.6040 H   0  0  0  0  0  0
  -26.8297  -30.8496   21.9990 H   0  0  0  0  0  0
  -28.0932  -29.0136   21.1918 H   0  0  0  0  0  0
  -25.9496  -25.9171   19.0482 H   0  0  0  0  0  0
  -23.9600  -27.3003   19.0368 H   0  0  0  0  0  0
  -23.7407  -30.6016   19.4010 H   0  0  0  0  0  0
  -22.7434  -29.2550   19.8571 H   0  0  0  0  0  0
  -25.1287  -36.1933   25.0821 H   0  0  0  0  0  0
  -20.9984  -28.3248   24.1407 H   0  0  0  0  0  0
  -20.5642  -26.2284   23.3600 H   0  0  0  0  0  0
  -21.6629  -26.7418   22.1221 H   0  0  0  0  0  0
  -19.6890  -25.6294   21.1238 H   0  0  0  0  0  0
  -19.6688  -27.3196   20.6723 H   0  0  0  0  0  0
  -17.4183  -26.6678   21.4035 H   0  0  0  0  0  0
  -18.0341  -26.0083   22.9037 H   0  0  0  0  0  0
  -19.7944  -30.7254   24.2298 H   0  0  0  0  0  0
  -17.5031  -31.6277   24.5167 H   0  0  0  0  0  0
  -15.5360  -30.3007   23.7642 H   0  0  0  0  0  0
  -15.8677  -28.0838   22.7053 H   0  0  0  0  0  0
  -24.5884  -30.7109   25.7804 H   0  0  0  0  0  0
  -24.8891  -32.2939   26.4836 H   0  0  0  0  0  0
  -25.8029  -30.8987   27.0248 H   0  0  0  0  0  0
  -26.2851  -29.6793   24.1178 H   0  0  0  0  0  0
  -27.3956  -29.7259   25.4686 H   0  0  0  0  0  0
  -27.8748  -30.4288   23.9404 H   0  0  0  0  0  0
  -27.2660  -33.3629   26.2068 H   0  0  0  0  0  0
  -28.3853  -32.6887   25.0311 H   0  0  0  0  0  0
  -28.0710  -31.8440   26.5402 H   0  0  0  0  0  0
  -28.2589  -38.0094   24.7518 H   0  0  0  0  0  0
  -28.1080  -36.2626   24.6261 H   0  0  0  0  0  0
  -27.2310  -37.1432   25.8866 H   0  0  0  0  0  0
  -20.9296  -29.8782   21.6932 H   0  0  0  0  0  0
  -26.0163  -38.2856   24.1435 H   0  0  0  0  0  0
  -28.9761  -19.8702   18.9358 H   0  0  0  0  0  0
  -30.6545  -19.5521   19.1757 H   0  0  0  0  0  0
  -30.9139  -19.4805   22.5593 H   0  0  0  0  0  0
  -29.2987  -19.7910   23.0695 H   0  0  0  0  0  0
  -29.6877  -17.4312   18.7771 H   0  0  0  0  0  0
  -28.3272  -17.7311   19.8107 H   0  0  0  0  0  0
  -28.4965  -17.7009   22.2300 H   0  0  0  0  0  0
  -29.9896  -17.3677   23.0479 H   0  0  0  0  0  0
  -30.6230  -20.8222   20.9178 H   0  0  0  0  0  0
  -31.1896  -17.3089   20.8267 H   0  0  0  0  0  0
  -28.6673  -21.8113   22.1415 H   0  0  0  0  0  0
  -27.6099  -21.0709   20.9815 H   0  0  0  0  0  0
  -27.2449  -23.9007   20.9772 H   0  0  0  0  0  0
  -28.8268  -24.2634   21.6177 H   0  0  0  0  0  0
  -27.8215  -25.0334   18.8063 H   0  0  0  0  0  0
  -29.4671  -25.1259   19.2683 H   0  0  0  0  0  0
  -28.9202  -15.3984   21.2194 H   0  0  0  0  0  0
  -28.4235  -22.4434   19.3281 H   0  0  0  0  0  0
  -29.8214  -22.7636   20.0799 H   0  0  0  0  0  0
  1 25  1  0  0  0
  1 30  2  0  0  0
  1 80  1  0  0  0
  2  3  1  0  0  0
  2 25  1  0  0  0
  2 82  1  0  0  0
  2 83  1  0  0  0
  3  4  1  0  0  0
  3 84  1  0  0  0
  3 85  1  0  0  0
  4  5  1  0  0  0
  4 86  1  0  0  0
  4 87  1  0  0  0
  5  6  1  0  0  0
  5 26  1  0  0  0
  5 88  1  0  0  0
  6 25  1  0  0  0
  6 89  1  0  0  0
  6 90  1  0  0  0
  7  8  2  0  0  0
  7 26  1  0  0  0
  7 29  1  0  0  0
  8  9  1  0  0  0
  8 22  1  0  0  0
  9 10  1  0  0  0
  9 27  2  0  0  0
 10 11  2  0  0  0
 10 15  1  0  0  0
 11 12  1  0  0  0
 11 91  1  0  0  0
 12 13  2  0  0  0
 12 92  1  0  0  0
 13 14  1  0  0  0
 13 31  1  0  0  0
 14 15  2  0  0  0
 14 93  1  0  0  0
 15 94  1  0  0  0
 16 17  2  0  0  0
 16 21  1  0  0  0
 16 31  1  0  0  0
 17 18  1  0  0  0
 17 95  1  0  0  0
 18 19  2  0  0  0
 18 96  1  0  0  0
 19 20  1  0  0  0
 19 24  1  0  0  0
 20 21  2  0  0  0
 20 97  1  0  0  0
 21 23  1  0  0  0
 22 28  1  0  0  0
 22 32  2  0  0  0
 26 27  1  0  0  0
 28 98  1  0  0  0
 28 99  1  0  0  0
 29100  1  0  0  0
 29101  1  0  0  0
 33 34  1  0  0  0
 33 66  1  0  0  0
 33 70  2  0  0  0
 34 36  1  0  0  0
 34 59  1  0  0  0
 34102  1  0  0  0
 35 44  2  0  0  0
 35 45  1  0  0  0
 35 68  1  0  0  0
 36 56  1  0  0  0
 36103  1  0  0  0
 37 39  1  0  0  0
 37 47  1  0  0  0
 37 66  1  0  0  0
 37104  1  0  0  0
 38 43  2  0  0  0
 38 46  1  0  0  0
 38 47  1  0  0  0
 39 64  1  0  0  0
 39 67  2  0  0  0
 40 52  1  0  0  0
 40 53  2  0  0  0
 40 58  1  0  0  0
 41105  1  0  0  0
 41106  1  0  0  0
 41107  1  0  0  0
 41 48  1  0  0  0
 42 43  1  0  0  0
 42 66  1  0  0  0
 42108  1  0  0  0
 42109  1  0  0  0
 43 44  1  0  0  0
 44110  1  0  0  0
 45 46  2  0  0  0
 45111  1  0  0  0
 46112  1  0  0  0
 47113  1  0  0  0
 47114  1  0  0  0
 48 56  1  0  0  0
 48 65  1  0  0  0
 48115  1  0  0  0
 49 50  1  0  0  0
 49 53  1  0  0  0
 49 64  1  0  0  0
 49116  1  0  0  0
 50 51  1  0  0  0
 50117  1  0  0  0
 50118  1  0  0  0
 51 52  1  0  0  0
 51119  1  0  0  0
 51120  1  0  0  0
 52121  1  0  0  0
 52122  1  0  0  0
 53 54  1  0  0  0
 54 55  2  0  0  0
 54123  1  0  0  0
 55 57  1  0  0  0
 55124  1  0  0  0
 56 69  2  0  0  0
 57 58  2  0  0  0
 57125  1  0  0  0
 58126  1  0  0  0
 59 60  1  0  0  0
 59 61  1  0  0  0
 59 62  1  0  0  0
 60127  1  0  0  0
 60128  1  0  0  0
 60129  1  0  0  0
 61130  1  0  0  0
 61131  1  0  0  0
 61132  1  0  0  0
 62133  1  0  0  0
 62134  1  0  0  0
 62135  1  0  0  0
 63 65  1  0  0  0
 63136  1  0  0  0
 63137  1  0  0  0
 63138  1  0  0  0
 64139  1  0  0  0
 65140  1  0  0  0
 68 79  1  0  0  0
 71 73  1  0  0  0
 71 75  1  0  0  0
 71141  1  0  0  0
 71142  1  0  0  0
 72 74  1  0  0  0
 72 75  1  0  0  0
 72143  1  0  0  0
 72144  1  0  0  0
 73 76  1  0  0  0
 73145  1  0  0  0
 73146  1  0  0  0
 74 76  1  0  0  0
 74147  1  0  0  0
 74148  1  0  0  0
 75 77  1  0  0  0
 75149  1  0  0  0
 76 80  1  0  0  0
 76150  1  0  0  0
 77 81  1  0  0  0
 77151  1  0  0  0
 77152  1  0  0  0
 78 79  1  0  0  0
 78 81  1  0  0  0
 78153  1  0  0  0
 78154  1  0  0  0
 79155  1  0  0  0
 79156  1  0  0  0
 80157  1  0  0  0
 81158  1  0  0  0
 81159  1  0  0  0
M  CHG  1  81   1
M  ISO  4   1 100  68 101  79 101  80 100
M  END
> <chiral flag>
0

> <version>
0

> <s_m_source_file>
/data/baiqing/PycharmProjects/Reinvent-master-3.2/result/LINK_invent/BTK/process_docking_weight1_custom_sum_contain_oxygen_bond_distance_aromatic_linkinvent_7_9_3/rearranged_h_0132.sdf

> <i_m_source_file_index>
54

> <r_mmod_Potential_Energy-OPLS-2005>
-64.4608459472656

> <r_mmod_Stretch_Energy-OPLS-2005>
66.910400390625

> <r_mmod_Bend_Energy-OPLS-2005>
150.646942138672

> <r_mmod_Torsional_Energy-OPLS-2005>
248.776809692383

> <r_mmod_Improper_Torsional_Energy-OPLS-2005>
4.01633453369141

> <r_mmod_Van_der_Waal_Energy-OPLS-2005>
125.659149169922

> <r_mmod_Electrostatic_Energy-OPLS-2005>
-242.189483642578

> <r_mmod_Solvation_Energy-OPLS-2005>
-457.158782958984

> <b_mmod_Minimization_Converged-OPLS-2005>
0

> <r_mmod_RMS_Derivative-OPLS-2005>
2.95553994178772

$$$$
56
                    3D
 Structure written by MMmdl.
167176  0  0  1  0            999 V2000
  -30.6154  -14.6186   20.5357 C   0  0  0  0  0  0
  -30.4294  -12.3906   19.4419 C   0  0  0  0  0  0
  -29.4861  -12.4882   18.2224 C   0  0  0  0  0  0
  -28.0158  -12.3139   18.6457 C   0  0  0  0  0  0
  -27.6425  -13.2030   19.8610 C   0  0  2  0  0  0
  -28.6859  -13.0498   20.9894 C   0  0  0  0  0  0
  -25.2511  -13.8166   20.5687 C   0  0  0  0  0  0
  -24.1776  -13.0421   20.9224 C   0  0  0  0  0  0
  -24.6332  -11.6900   20.8760 C   0  0  0  0  0  0
  -23.9019  -10.4293   21.0417 C   0  0  0  0  0  0
  -24.3596   -9.4206   21.9184 C   0  0  0  0  0  0
  -23.6301   -8.2215   22.0734 C   0  0  0  0  0  0
  -22.4273   -8.0260   21.3532 C   0  0  0  0  0  0
  -21.9904   -9.0221   20.4628 C   0  0  0  0  0  0
  -22.7209  -10.2119   20.3042 C   0  0  0  0  0  0
  -21.6869   -6.0732   22.5279 C   0  0  0  0  0  0
  -21.4009   -6.5634   23.8214 C   0  0  0  0  0  0
  -21.3664   -5.6789   24.9182 C   0  0  0  0  0  0
  -21.6053   -4.3050   24.7241 C   0  0  0  0  0  0
  -21.8816   -3.8138   23.4366 C   0  0  0  0  0  0
  -21.9199   -4.6961   22.3420 C   0  0  0  0  0  0
  -22.7806  -13.5212   21.1937 C   0  0  0  0  0  0
  -22.1662   -4.2153   21.0997 F   0  0  0  0  0  0
  -21.5645   -3.4520   25.7750 F   0  0  0  0  0  0
  -29.9953  -13.4048   20.4200 N   0  0  0  0  0  0
  -26.2908  -12.9296   20.3309 N   0  0  0  0  0  0
  -25.9241  -11.6473   20.5760 N   0  0  0  0  0  0
  -22.0481  -12.8128   22.0487 N   0  0  0  0  0  0
  -25.4249  -15.1873   20.4111 N   0  0  0  0  0  0
  -31.7874  -14.7842   20.1879 O   0  0  0  0  0  0
  -21.6639   -6.8858   21.4231 O   0  0  0  0  0  0
  -22.3482  -14.5538   20.6856 O   0  0  0  0  0  0
  -24.6405  -31.8616   23.2054 C   0  0  0  0  0  0
  -25.9191  -32.4820   23.8428 C   0  0  1  0  0  0
  -27.2391  -27.2824   20.1645 C   0  0  0  0  0  0
  -25.5982  -33.8618   24.2333 N   0  0  0  0  0  0
  -23.4554  -30.4811   21.5571 C   0  0  2  0  0  0
  -24.8884  -28.9199   20.1243 C   0  0  0  0  0  0
  -22.7798  -29.4781   22.5151 C   0  0  0  0  0  0
  -17.9974  -28.1170   22.8728 C   0  0  0  0  0  0
  -24.1469  -36.7293   23.2625 C   0  0  0  0  0  0
  -25.9842  -30.7796   21.3804 C   0  0  0  0  0  0
  -26.0539  -29.3994   20.7337 C   0  0  0  0  0  0
  -27.2319  -28.5931   20.7381 C   0  0  0  0  0  0
  -26.0536  -26.8583   19.5281 C   0  0  0  0  0  0
  -24.8901  -27.6550   19.5113 C   0  0  0  0  0  0
  -23.6589  -29.8054   20.1721 C   0  0  0  0  0  0
  -25.4094  -36.3089   24.0309 C   0  0  1  0  0  0
  -20.4810  -28.4596   22.7793 C   0  0  2  0  0  0
  -20.6927  -26.9610   22.5336 C   0  0  0  0  0  0
  -19.5567  -26.4559   21.6195 C   0  0  0  0  0  0
  -18.1593  -26.7488   22.2045 C   0  0  0  0  0  0
  -19.1161  -28.8990   23.2518 C   0  0  0  0  0  0
  -18.9313  -30.1491   23.8770 C   0  0  0  0  0  0
  -17.6315  -30.6486   24.0785 C   0  0  0  0  0  0
  -25.9056  -34.9465   23.5100 C   0  0  0  0  0  0
  -16.5183  -29.8892   23.6730 C   0  0  0  0  0  0
  -16.7012  -28.6221   23.0888 C   0  0  0  0  0  0
  -26.4537  -31.6615   25.0793 C   0  0  0  0  0  0
  -25.3764  -31.3776   26.1521 C   0  0  0  0  0  0
  -27.0358  -30.3029   24.6253 C   0  0  0  0  0  0
  -27.6074  -32.4358   25.7617 C   0  0  0  0  0  0
  -27.5567  -37.1820   24.8475 C   0  0  0  0  0  0
  -21.4585  -29.4465   22.3970 N   0  0  0  0  0  0
  -26.4269  -37.3788   23.9418 N   0  0  0  0  0  0
  -24.7141  -31.0608   22.1043 N   0  0  0  0  0  0
  -23.4239  -28.7543   23.2758 O   0  0  0  0  0  0
  -28.3824  -26.4601   20.1462 O   0  0  0  0  0  0
  -26.5620  -34.8927   22.4665 O   0  0  0  0  0  0
  -23.5521  -32.1418   23.7291 O   0  0  0  0  0  0
  -32.1387  -21.6002   21.5969 C   0  0  0  0  0  0
  -31.6710  -22.9215   21.4596 C   0  0  0  0  0  0
  -31.2669  -20.5131   21.4171 C   0  0  0  0  0  0
  -30.3135  -23.1885   21.1782 C   0  0  0  0  0  0
  -29.4294  -22.0834   20.9759 C   0  0  0  0  0  0
  -29.9122  -20.7064   21.0805 C   0  0  0  0  0  0
  -27.9394  -22.6204   17.6259 C   0  0  0  0  0  0
  -29.8773  -24.6891   21.1064 C   0  0  0  0  0  0
  -27.9777  -22.4841   20.6940 C   0  0  0  0  0  0
  -27.7960  -23.8570   19.9217 C   0  0  1  0  0  0
  -28.4078  -25.0697   20.7116 C   0  0  2  0  0  0
  -26.4543  -22.4053   17.3679 C   0  0  0  0  0  0
  -28.3696  -23.8154   18.4833 C   0  0  0  0  0  0
  -29.6263  -18.2329   20.3267 C   0  0  0  0  0  0
  -30.1430  -17.0802   21.2859 C   0  0  0  0  0  0
  -29.1271  -19.5209   20.9230 N   0  0  0  0  0  0
  -29.8149  -15.6593   20.9162 N   0  0  0  0  0  0
  -28.7777  -21.8587   17.1412 O   0  0  0  0  0  0
  -31.4671  -12.5270   19.1344 H   0  0  0  0  0  0
  -30.3801  -11.3991   19.8966 H   0  0  0  0  0  0
  -29.7520  -11.7373   17.4783 H   0  0  0  0  0  0
  -29.6083  -13.4640   17.7448 H   0  0  0  0  0  0
  -27.8646  -11.2624   18.8965 H   0  0  0  0  0  0
  -27.3493  -12.5157   17.8073 H   0  0  0  0  0  0
  -27.6633  -14.2360   19.5131 H   0  0  0  0  0  0
  -28.7040  -12.0185   21.3458 H   0  0  0  0  0  0
  -28.4218  -13.6587   21.8582 H   0  0  0  0  0  0
  -25.2739   -9.5704   22.4767 H   0  0  0  0  0  0
  -24.0056   -7.4588   22.7419 H   0  0  0  0  0  0
  -21.0856   -8.8699   19.8912 H   0  0  0  0  0  0
  -22.3647  -10.9649   19.6147 H   0  0  0  0  0  0
  -21.1953   -7.6128   23.9730 H   0  0  0  0  0  0
  -21.1513   -6.0505   25.9098 H   0  0  0  0  0  0
  -22.0599   -2.7601   23.2854 H   0  0  0  0  0  0
  -22.4108  -11.9743   22.4782 H   0  0  0  0  0  0
  -21.1105  -13.1096   22.2760 H   0  0  0  0  0  0
  -24.6640  -15.8446   20.5469 H   0  0  0  0  0  0
  -26.2686  -15.6323   20.0651 H   0  0  0  0  0  0
  -26.7269  -32.5511   23.1201 H   0  0  0  0  0  0
  -25.0162  -33.9808   25.0497 H   0  0  0  0  0  0
  -22.7563  -31.3051   21.3998 H   0  0  0  0  0  0
  -23.3726  -35.9648   23.3314 H   0  0  0  0  0  0
  -24.3539  -36.8899   22.2043 H   0  0  0  0  0  0
  -23.7259  -37.6500   23.6652 H   0  0  0  0  0  0
  -26.1165  -31.5371   20.6064 H   0  0  0  0  0  0
  -26.8644  -30.8386   22.0104 H   0  0  0  0  0  0
  -28.1326  -28.9542   21.2117 H   0  0  0  0  0  0
  -26.0217  -25.9013   19.0311 H   0  0  0  0  0  0
  -23.9984  -27.2811   19.0284 H   0  0  0  0  0  0
  -23.7806  -30.5768   19.4108 H   0  0  0  0  0  0
  -22.7786  -29.2299   19.8792 H   0  0  0  0  0  0
  -25.1274  -36.1920   25.0802 H   0  0  0  0  0  0
  -20.1648  -28.6779   21.7576 H   0  0  0  0  0  0
  -20.6788  -26.4260   23.4830 H   0  0  0  0  0  0
  -21.6625  -26.7628   22.0767 H   0  0  0  0  0  0
  -19.6600  -25.3847   21.4410 H   0  0  0  0  0  0
  -19.6417  -26.9161   20.6321 H   0  0  0  0  0  0
  -17.4037  -26.6326   21.4245 H   0  0  0  0  0  0
  -17.9282  -25.9994   22.9625 H   0  0  0  0  0  0
  -19.7874  -30.7524   24.1498 H   0  0  0  0  0  0
  -17.4899  -31.6197   24.5322 H   0  0  0  0  0  0
  -15.5174  -30.2750   23.8246 H   0  0  0  0  0  0
  -15.8360  -28.0406   22.7982 H   0  0  0  0  0  0
  -24.5914  -30.7160   25.7860 H   0  0  0  0  0  0
  -24.8996  -32.2957   26.4979 H   0  0  0  0  0  0
  -25.8083  -30.8938   27.0298 H   0  0  0  0  0  0
  -26.2930  -29.6816   24.1251 H   0  0  0  0  0  0
  -27.3998  -29.7270   25.4769 H   0  0  0  0  0  0
  -27.8835  -30.4290   23.9519 H   0  0  0  0  0  0
  -27.2651  -33.3630   26.2254 H   0  0  0  0  0  0
  -28.3913  -32.6991   25.0497 H   0  0  0  0  0  0
  -28.0745  -31.8467   26.5537 H   0  0  0  0  0  0
  -28.2585  -38.0105   24.7484 H   0  0  0  0  0  0
  -28.1045  -36.2638   24.6322 H   0  0  0  0  0  0
  -27.2297  -37.1510   25.8879 H   0  0  0  0  0  0
  -21.0801  -30.1596   21.7924 H   0  0  0  0  0  0
  -26.0123  -38.2850   24.1438 H   0  0  0  0  0  0
  -33.1752  -21.4147   21.8476 H   0  0  0  0  0  0
  -32.3686  -23.7385   21.5900 H   0  0  0  0  0  0
  -31.6557  -19.5150   21.5593 H   0  0  0  0  0  0
  -30.5539  -25.1775   20.4024 H   0  0  0  0  0  0
  -30.0908  -25.1371   22.0778 H   0  0  0  0  0  0
  -27.4902  -22.5830   21.6666 H   0  0  0  0  0  0
  -27.4723  -21.6611   20.1963 H   0  0  0  0  0  0
  -26.7212  -24.0233   19.8572 H   0  0  0  0  0  0
  -27.8495  -25.1075   21.6498 H   0  0  0  0  0  0
  -26.2400  -21.3360   17.3632 H   0  0  0  0  0  0
  -26.1565  -22.8154   16.3997 H   0  0  0  0  0  0
  -25.8509  -22.8700   18.1471 H   0  0  0  0  0  0
  -28.1125  -24.7307   17.9559 H   0  0  0  0  0  0
  -29.4570  -23.8019   18.5361 H   0  0  0  0  0  0
  -28.7794  -17.8302   19.7695 H   0  0  0  0  0  0
  -30.3872  -18.4446   19.5751 H   0  0  0  0  0  0
  -31.2164  -17.1782   21.4384 H   0  0  0  0  0  0
  -29.6953  -17.2242   22.2697 H   0  0  0  0  0  0
  -28.1338  -19.6790   20.7780 H   0  0  0  0  0  0
  -28.8590  -15.3864   21.0878 H   0  0  0  0  0  0
  1 25  1  0  0  0
  1 30  2  0  0  0
  1 87  1  0  0  0
  2  3  1  0  0  0
  2 25  1  0  0  0
  2 89  1  0  0  0
  2 90  1  0  0  0
  3  4  1  0  0  0
  3 91  1  0  0  0
  3 92  1  0  0  0
  4  5  1  0  0  0
  4 93  1  0  0  0
  4 94  1  0  0  0
  5  6  1  0  0  0
  5 26  1  0  0  0
  5 95  1  0  0  0
  6 25  1  0  0  0
  6 96  1  0  0  0
  6 97  1  0  0  0
  7  8  2  0  0  0
  7 26  1  0  0  0
  7 29  1  0  0  0
  8  9  1  0  0  0
  8 22  1  0  0  0
  9 10  1  0  0  0
  9 27  2  0  0  0
 10 11  2  0  0  0
 10 15  1  0  0  0
 11 12  1  0  0  0
 11 98  1  0  0  0
 12 13  2  0  0  0
 12 99  1  0  0  0
 13 14  1  0  0  0
 13 31  1  0  0  0
 14 15  2  0  0  0
 14100  1  0  0  0
 15101  1  0  0  0
 16 17  2  0  0  0
 16 21  1  0  0  0
 16 31  1  0  0  0
 17 18  1  0  0  0
 17102  1  0  0  0
 18 19  2  0  0  0
 18103  1  0  0  0
 19 20  1  0  0  0
 19 24  1  0  0  0
 20 21  2  0  0  0
 20104  1  0  0  0
 21 23  1  0  0  0
 22 28  1  0  0  0
 22 32  2  0  0  0
 26 27  1  0  0  0
 28105  1  0  0  0
 28106  1  0  0  0
 29107  1  0  0  0
 29108  1  0  0  0
 33 34  1  0  0  0
 33 66  1  0  0  0
 33 70  2  0  0  0
 34 36  1  0  0  0
 34 59  1  0  0  0
 34109  1  0  0  0
 35 44  2  0  0  0
 35 45  1  0  0  0
 35 68  1  0  0  0
 36 56  1  0  0  0
 36110  1  0  0  0
 37 39  1  0  0  0
 37 47  1  0  0  0
 37 66  1  0  0  0
 37111  1  0  0  0
 38 43  2  0  0  0
 38 46  1  0  0  0
 38 47  1  0  0  0
 39 64  1  0  0  0
 39 67  2  0  0  0
 40 52  1  0  0  0
 40 53  2  0  0  0
 40 58  1  0  0  0
 41112  1  0  0  0
 41113  1  0  0  0
 41114  1  0  0  0
 41 48  1  0  0  0
 42 43  1  0  0  0
 42 66  1  0  0  0
 42115  1  0  0  0
 42116  1  0  0  0
 43 44  1  0  0  0
 44117  1  0  0  0
 45 46  2  0  0  0
 45118  1  0  0  0
 46119  1  0  0  0
 47120  1  0  0  0
 47121  1  0  0  0
 48 56  1  0  0  0
 48 65  1  0  0  0
 48122  1  0  0  0
 49 50  1  0  0  0
 49 53  1  0  0  0
 49 64  1  0  0  0
 49123  1  0  0  0
 50 51  1  0  0  0
 50124  1  0  0  0
 50125  1  0  0  0
 51 52  1  0  0  0
 51126  1  0  0  0
 51127  1  0  0  0
 52128  1  0  0  0
 52129  1  0  0  0
 53 54  1  0  0  0
 54 55  2  0  0  0
 54130  1  0  0  0
 55 57  1  0  0  0
 55131  1  0  0  0
 56 69  2  0  0  0
 57 58  2  0  0  0
 57132  1  0  0  0
 58133  1  0  0  0
 59 60  1  0  0  0
 59 61  1  0  0  0
 59 62  1  0  0  0
 60134  1  0  0  0
 60135  1  0  0  0
 60136  1  0  0  0
 61137  1  0  0  0
 61138  1  0  0  0
 61139  1  0  0  0
 62140  1  0  0  0
 62141  1  0  0  0
 62142  1  0  0  0
 63 65  1  0  0  0
 63143  1  0  0  0
 63144  1  0  0  0
 63145  1  0  0  0
 64146  1  0  0  0
 65147  1  0  0  0
 68 81  1  0  0  0
 71 72  2  0  0  0
 71 73  1  0  0  0
 71148  1  0  0  0
 72 74  1  0  0  0
 72149  1  0  0  0
 73 76  2  0  0  0
 73150  1  0  0  0
 74 75  2  0  0  0
 74 78  1  0  0  0
 75 76  1  0  0  0
 75 79  1  0  0  0
 76 86  1  0  0  0
 77 82  1  0  0  0
 77 83  1  0  0  0
 77 88  2  0  0  0
 78 81  1  0  0  0
 78151  1  0  0  0
 78152  1  0  0  0
 79 80  1  0  0  0
 79153  1  0  0  0
 79154  1  0  0  0
 80 81  1  0  0  0
 80 83  1  0  0  0
 80155  1  0  0  0
 81156  1  0  0  0
 82157  1  0  0  0
 82158  1  0  0  0
 82159  1  0  0  0
 83160  1  0  0  0
 83161  1  0  0  0
 84 85  1  0  0  0
 84 86  1  0  0  0
 84162  1  0  0  0
 84163  1  0  0  0
 85 87  1  0  0  0
 85164  1  0  0  0
 85165  1  0  0  0
 86166  1  0  0  0
 87167  1  0  0  0
M  ISO  4   1 100  68 101  81 101  87 100
M  END
> <chiral flag>
0

> <version>
0

> <s_m_source_file>
/data/baiqing/PycharmProjects/Reinvent-master-3.2/result/LINK_invent/BTK/process_docking_weight1_custom_sum_contain_oxygen_bond_distance_aromatic_linkinvent_7_9_3/rearranged_h_0132.sdf

> <i_m_source_file_index>
55

> <r_mmod_Potential_Energy-OPLS-2005>
104.453735351562

> <r_mmod_Stretch_Energy-OPLS-2005>
86.9141082763672

> <r_mmod_Bend_Energy-OPLS-2005>
274.975860595703

> <r_mmod_Torsional_Energy-OPLS-2005>
236.83171081543

> <r_mmod_Improper_Torsional_Energy-OPLS-2005>
7.11560535430908

> <r_mmod_Van_der_Waal_Energy-OPLS-2005>
141.741241455078

> <r_mmod_Electrostatic_Energy-OPLS-2005>
-469.737518310547

> <r_mmod_Solvation_Energy-OPLS-2005>
-245.243423461914

> <b_mmod_Minimization_Converged-OPLS-2005>
0

> <r_mmod_RMS_Derivative-OPLS-2005>
6.26679420471191

$$$$
57
                    3D
 Structure written by MMmdl.
156165  0  0  1  0            999 V2000
  -30.6336  -14.7045   20.4720 C   0  0  0  0  0  0
  -30.4288  -12.4328   19.4681 C   0  0  0  0  0  0
  -29.5076  -12.5014   18.2313 C   0  0  0  0  0  0
  -28.0326  -12.3339   18.6445 C   0  0  0  0  0  0
  -27.6431  -13.2298   19.8512 C   0  0  2  0  0  0
  -28.6872  -13.1518   20.9860 C   0  0  0  0  0  0
  -25.2517  -13.8198   20.5696 C   0  0  0  0  0  0
  -24.1808  -13.0442   20.9213 C   0  0  0  0  0  0
  -24.6397  -11.6920   20.8753 C   0  0  0  0  0  0
  -23.9074  -10.4296   21.0411 C   0  0  0  0  0  0
  -24.3624   -9.4211   21.9187 C   0  0  0  0  0  0
  -23.6299   -8.2247   22.0755 C   0  0  0  0  0  0
  -22.4281   -8.0286   21.3546 C   0  0  0  0  0  0
  -21.9918   -9.0261   20.4648 C   0  0  0  0  0  0
  -22.7248  -10.2139   20.3057 C   0  0  0  0  0  0
  -21.6854   -6.0740   22.5283 C   0  0  0  0  0  0
  -21.4016   -6.5643   23.8217 C   0  0  0  0  0  0
  -21.3659   -5.6794   24.9178 C   0  0  0  0  0  0
  -21.6041   -4.3056   24.7228 C   0  0  0  0  0  0
  -21.8818   -3.8151   23.4348 C   0  0  0  0  0  0
  -21.9193   -4.6968   22.3404 C   0  0  0  0  0  0
  -22.7830  -13.5225   21.1870 C   0  0  0  0  0  0
  -22.1662   -4.2156   21.0981 F   0  0  0  0  0  0
  -21.5626   -3.4537   25.7738 F   0  0  0  0  0  0
  -29.9912  -13.4916   20.4051 N   0  0  0  0  0  0
  -26.2943  -12.9403   20.3280 N   0  0  0  0  0  0
  -25.9325  -11.6546   20.5755 N   0  0  0  0  0  0
  -22.0468  -12.8221   22.0423 N   0  0  0  0  0  0
  -25.4202  -15.1924   20.4112 N   0  0  0  0  0  0
  -31.8202  -14.7946   20.1472 O   0  0  0  0  0  0
  -21.6641   -6.8886   21.4245 O   0  0  0  0  0  0
  -22.3516  -14.5528   20.6709 O   0  0  0  0  0  0
  -24.6299  -31.8563   23.2002 C   0  0  0  0  0  0
  -25.9133  -32.4760   23.8338 C   0  0  1  0  0  0
  -27.2179  -27.2734   20.1151 C   0  0  0  0  0  0
  -25.5937  -33.8562   24.2264 N   0  0  0  0  0  0
  -23.4244  -30.4813   21.5433 C   0  0  2  0  0  0
  -24.8686  -28.9320   20.1090 C   0  0  0  0  0  0
  -22.7490  -29.4611   22.4914 C   0  0  0  0  0  0
  -18.0291  -28.1379   22.8486 C   0  0  0  0  0  0
  -24.1488  -36.7279   23.2640 C   0  0  0  0  0  0
  -25.9699  -30.7724   21.3782 C   0  0  0  0  0  0
  -26.0395  -29.3972   20.7180 C   0  0  0  0  0  0
  -27.2125  -28.5789   20.7125 C   0  0  0  0  0  0
  -26.0161  -26.8714   19.4857 C   0  0  0  0  0  0
  -24.8618  -27.6771   19.4848 C   0  0  0  0  0  0
  -23.6403  -29.8183   20.1580 C   0  0  0  0  0  0
  -25.4114  -36.3071   24.0328 C   0  0  1  0  0  0
  -20.5894  -28.3688   23.1270 C   0  0  2  0  0  0
  -20.6776  -26.9406   22.5403 C   0  0  0  0  0  0
  -19.5750  -26.6377   21.5208 C   0  0  0  0  0  0
  -18.1932  -26.7923   22.1623 C   0  0  0  0  0  0
  -19.1544  -28.8851   23.2875 C   0  0  0  0  0  0
  -18.9466  -30.1454   23.8892 C   0  0  0  0  0  0
  -17.6464  -30.6584   24.0560 C   0  0  0  0  0  0
  -25.9056  -34.9442   23.5097 C   0  0  0  0  0  0
  -16.5356  -29.9079   23.6332 C   0  0  0  0  0  0
  -16.7277  -28.6496   23.0357 C   0  0  0  0  0  0
  -26.4503  -31.6584   25.0724 C   0  0  0  0  0  0
  -25.3732  -31.3727   26.1449 C   0  0  0  0  0  0
  -27.0354  -30.3005   24.6207 C   0  0  0  0  0  0
  -27.6055  -32.4327   25.7497 C   0  0  0  0  0  0
  -27.5575  -37.1797   24.8468 C   0  0  0  0  0  0
  -21.4200  -29.3041   22.3662 N   0  0  0  0  0  0
  -26.4288  -37.3771   23.9411 N   0  0  0  0  0  0
  -24.6939  -31.0544   22.0969 N   0  0  0  0  0  0
  -23.4202  -28.8147   23.3002 O   0  0  0  0  0  0
  -28.3443  -26.4220   20.1886 O   0  0  0  0  0  0
  -26.5626  -34.8918   22.4665 O   0  0  0  0  0  0
  -23.5454  -32.1377   23.7315 O   0  0  0  0  0  0
  -28.5336  -23.9798   21.9934 C   0  0  0  0  0  0
  -28.8657  -22.9536   22.9047 C   0  0  0  0  0  0
  -29.0735  -22.4677   20.1418 C   0  0  0  0  0  0
  -29.3821  -21.3990   21.0700 C   0  0  0  0  0  0
  -28.6699  -23.7931   20.6002 C   0  0  0  0  0  0
  -29.3230  -21.7092   22.4290 C   0  0  0  0  0  0
  -30.7839  -19.9922   22.3142 C   0  0  0  0  0  0
  -30.1360  -20.0184   20.9065 C   0  0  1  0  0  0
  -28.3846  -25.0229   19.6452 C   0  0  0  0  0  0
  -29.4235  -18.5766   20.7124 C   0  0  0  0  0  0
  -30.4029  -17.2842   20.6029 C   0  0  0  0  0  0
  -29.9218  -20.7433   23.2311 N   0  0  0  0  0  0
  -29.8917  -15.8510   20.6935 N   0  0  0  0  0  0
  -31.4706  -12.5501   19.1655 H   0  0  0  0  0  0
  -30.3657  -11.4539   19.9454 H   0  0  0  0  0  0
  -29.7842  -11.7297   17.5113 H   0  0  0  0  0  0
  -29.6422  -13.4577   17.7231 H   0  0  0  0  0  0
  -27.8824  -11.2849   18.9011 H   0  0  0  0  0  0
  -27.3767  -12.5353   17.7964 H   0  0  0  0  0  0
  -27.6418  -14.2540   19.4774 H   0  0  0  0  0  0
  -28.7139  -12.1523   21.4222 H   0  0  0  0  0  0
  -28.4286  -13.8336   21.7978 H   0  0  0  0  0  0
  -25.2767   -9.5687   22.4766 H   0  0  0  0  0  0
  -24.0009   -7.4635   22.7470 H   0  0  0  0  0  0
  -21.0851   -8.8783   19.8950 H   0  0  0  0  0  0
  -22.3711  -10.9681   19.6168 H   0  0  0  0  0  0
  -21.2011   -7.6152   23.9725 H   0  0  0  0  0  0
  -21.1479   -6.0522   25.9082 H   0  0  0  0  0  0
  -22.0596   -2.7614   23.2846 H   0  0  0  0  0  0
  -22.4082  -11.9890   22.4827 H   0  0  0  0  0  0
  -21.1079  -13.1245   22.2607 H   0  0  0  0  0  0
  -24.6515  -15.8444   20.5243 H   0  0  0  0  0  0
  -26.2639  -15.6337   20.0682 H   0  0  0  0  0  0
  -26.7196  -32.5408   23.1075 H   0  0  0  0  0  0
  -25.0092  -33.9700   25.0415 H   0  0  0  0  0  0
  -22.7202  -31.3038   21.4004 H   0  0  0  0  0  0
  -23.3755  -35.9608   23.3306 H   0  0  0  0  0  0
  -24.3575  -36.8896   22.2053 H   0  0  0  0  0  0
  -23.7236  -37.6479   23.6663 H   0  0  0  0  0  0
  -26.1104  -31.5356   20.6114 H   0  0  0  0  0  0
  -26.8471  -30.8168   22.0120 H   0  0  0  0  0  0
  -28.1095  -28.9321   21.2019 H   0  0  0  0  0  0
  -25.9067  -25.9176   18.9996 H   0  0  0  0  0  0
  -23.9627  -27.3148   19.0057 H   0  0  0  0  0  0
  -23.7644  -30.5955   19.4031 H   0  0  0  0  0  0
  -22.7581  -29.2528   19.8524 H   0  0  0  0  0  0
  -25.1297  -36.1916   25.0821 H   0  0  0  0  0  0
  -20.9993  -28.3261   24.1388 H   0  0  0  0  0  0
  -20.5665  -26.2299   23.3607 H   0  0  0  0  0  0
  -21.6644  -26.7422   22.1202 H   0  0  0  0  0  0
  -19.6906  -25.6288   21.1236 H   0  0  0  0  0  0
  -19.6684  -27.3189   20.6739 H   0  0  0  0  0  0
  -17.4199  -26.6673   21.4028 H   0  0  0  0  0  0
  -18.0335  -26.0063   22.9017 H   0  0  0  0  0  0
  -19.7942  -30.7271   24.2256 H   0  0  0  0  0  0
  -17.5021  -31.6265   24.5157 H   0  0  0  0  0  0
  -15.5357  -30.2979   23.7659 H   0  0  0  0  0  0
  -15.8679  -28.0811   22.7079 H   0  0  0  0  0  0
  -24.5915  -30.7064   25.7781 H   0  0  0  0  0  0
  -24.8917  -32.2895   26.4865 H   0  0  0  0  0  0
  -25.8058  -30.8915   27.0230 H   0  0  0  0  0  0
  -26.2938  -29.6746   24.1231 H   0  0  0  0  0  0
  -27.4039  -29.7272   25.4723 H   0  0  0  0  0  0
  -27.8814  -30.4283   23.9452 H   0  0  0  0  0  0
  -27.2662  -33.3632   26.2061 H   0  0  0  0  0  0
  -28.3874  -32.6877   25.0331 H   0  0  0  0  0  0
  -28.0717  -31.8463   26.5424 H   0  0  0  0  0  0
  -28.2599  -38.0089   24.7513 H   0  0  0  0  0  0
  -28.1064  -36.2619   24.6301 H   0  0  0  0  0  0
  -27.2294  -37.1456   25.8872 H   0  0  0  0  0  0
  -20.9380  -29.8773   21.6879 H   0  0  0  0  0  0
  -26.0165  -38.2844   24.1416 H   0  0  0  0  0  0
  -28.2214  -24.9421   22.3747 H   0  0  0  0  0  0
  -28.8294  -23.1559   23.9659 H   0  0  0  0  0  0
  -29.2141  -22.2993   19.0835 H   0  0  0  0  0  0
  -31.7496  -20.5007   22.2779 H   0  0  0  0  0  0
  -30.9756  -18.9919   22.6988 H   0  0  0  0  0  0
  -30.9044  -20.1308   20.1404 H   0  0  0  0  0  0
  -27.5240  -24.7513   19.0446 H   0  0  0  0  0  0
  -29.2047  -25.0271   18.9268 H   0  0  0  0  0  0
  -28.7964  -18.6142   19.8216 H   0  0  0  0  0  0
  -28.7376  -18.4235   21.5462 H   0  0  0  0  0  0
  -31.1739  -17.3564   21.3686 H   0  0  0  0  0  0
  -30.9475  -17.3717   19.6613 H   0  0  0  0  0  0
  -30.3413  -21.0794   24.0958 H   0  0  0  0  0  0
  -28.9141  -15.7198   20.9077 H   0  0  0  0  0  0
  1 25  1  0  0  0
  1 30  2  0  0  0
  1 83  1  0  0  0
  2  3  1  0  0  0
  2 25  1  0  0  0
  2 84  1  0  0  0
  2 85  1  0  0  0
  3  4  1  0  0  0
  3 86  1  0  0  0
  3 87  1  0  0  0
  4  5  1  0  0  0
  4 88  1  0  0  0
  4 89  1  0  0  0
  5  6  1  0  0  0
  5 26  1  0  0  0
  5 90  1  0  0  0
  6 25  1  0  0  0
  6 91  1  0  0  0
  6 92  1  0  0  0
  7  8  2  0  0  0
  7 26  1  0  0  0
  7 29  1  0  0  0
  8  9  1  0  0  0
  8 22  1  0  0  0
  9 10  1  0  0  0
  9 27  2  0  0  0
 10 11  2  0  0  0
 10 15  1  0  0  0
 11 12  1  0  0  0
 11 93  1  0  0  0
 12 13  2  0  0  0
 12 94  1  0  0  0
 13 14  1  0  0  0
 13 31  1  0  0  0
 14 15  2  0  0  0
 14 95  1  0  0  0
 15 96  1  0  0  0
 16 17  2  0  0  0
 16 21  1  0  0  0
 16 31  1  0  0  0
 17 18  1  0  0  0
 17 97  1  0  0  0
 18 19  2  0  0  0
 18 98  1  0  0  0
 19 20  1  0  0  0
 19 24  1  0  0  0
 20 21  2  0  0  0
 20 99  1  0  0  0
 21 23  1  0  0  0
 22 28  1  0  0  0
 22 32  2  0  0  0
 26 27  1  0  0  0
 28100  1  0  0  0
 28101  1  0  0  0
 29102  1  0  0  0
 29103  1  0  0  0
 33 34  1  0  0  0
 33 66  1  0  0  0
 33 70  2  0  0  0
 34 36  1  0  0  0
 34 59  1  0  0  0
 34104  1  0  0  0
 35 44  2  0  0  0
 35 45  1  0  0  0
 35 68  1  0  0  0
 36 56  1  0  0  0
 36105  1  0  0  0
 37 39  1  0  0  0
 37 47  1  0  0  0
 37 66  1  0  0  0
 37106  1  0  0  0
 38 43  2  0  0  0
 38 46  1  0  0  0
 38 47  1  0  0  0
 39 64  1  0  0  0
 39 67  2  0  0  0
 40 52  1  0  0  0
 40 53  2  0  0  0
 40 58  1  0  0  0
 41107  1  0  0  0
 41108  1  0  0  0
 41109  1  0  0  0
 41 48  1  0  0  0
 42 43  1  0  0  0
 42 66  1  0  0  0
 42110  1  0  0  0
 42111  1  0  0  0
 43 44  1  0  0  0
 44112  1  0  0  0
 45 46  2  0  0  0
 45113  1  0  0  0
 46114  1  0  0  0
 47115  1  0  0  0
 47116  1  0  0  0
 48 56  1  0  0  0
 48 65  1  0  0  0
 48117  1  0  0  0
 49 50  1  0  0  0
 49 53  1  0  0  0
 49 64  1  0  0  0
 49118  1  0  0  0
 50 51  1  0  0  0
 50119  1  0  0  0
 50120  1  0  0  0
 51 52  1  0  0  0
 51121  1  0  0  0
 51122  1  0  0  0
 52123  1  0  0  0
 52124  1  0  0  0
 53 54  1  0  0  0
 54 55  2  0  0  0
 54125  1  0  0  0
 55 57  1  0  0  0
 55126  1  0  0  0
 56 69  2  0  0  0
 57 58  2  0  0  0
 57127  1  0  0  0
 58128  1  0  0  0
 59 60  1  0  0  0
 59 61  1  0  0  0
 59 62  1  0  0  0
 60129  1  0  0  0
 60130  1  0  0  0
 60131  1  0  0  0
 61132  1  0  0  0
 61133  1  0  0  0
 61134  1  0  0  0
 62135  1  0  0  0
 62136  1  0  0  0
 62137  1  0  0  0
 63 65  1  0  0  0
 63138  1  0  0  0
 63139  1  0  0  0
 63140  1  0  0  0
 64141  1  0  0  0
 65142  1  0  0  0
 68 79  1  0  0  0
 71 72  2  0  0  0
 71 75  1  0  0  0
 71143  1  0  0  0
 72 76  1  0  0  0
 72144  1  0  0  0
 73 74  1  0  0  0
 73 75  2  0  0  0
 73145  1  0  0  0
 74 76  2  0  0  0
 74 78  1  0  0  0
 75 79  1  0  0  0
 76 82  1  0  0  0
 77 78  1  0  0  0
 77 82  1  0  0  0
 77146  1  0  0  0
 77147  1  0  0  0
 78 80  1  0  0  0
 78148  1  0  0  0
 79149  1  0  0  0
 79150  1  0  0  0
 80 81  1  0  0  0
 80151  1  0  0  0
 80152  1  0  0  0
 81 83  1  0  0  0
 81153  1  0  0  0
 81154  1  0  0  0
 82155  1  0  0  0
 83156  1  0  0  0
M  ISO  4   1 100  68 101  79 101  83 100
M  END
> <chiral flag>
0

> <version>
0

> <s_m_source_file>
/data/baiqing/PycharmProjects/Reinvent-master-3.2/result/LINK_invent/BTK/process_docking_weight1_custom_sum_contain_oxygen_bond_distance_aromatic_linkinvent_7_9_3/rearranged_h_0132.sdf

> <i_m_source_file_index>
56

> <r_mmod_Potential_Energy-OPLS-2005>
183.233291625977

> <r_mmod_Stretch_Energy-OPLS-2005>
112.318801879883

> <r_mmod_Bend_Energy-OPLS-2005>
219.570159912109

> <r_mmod_Torsional_Energy-OPLS-2005>
232.939743041992

> <r_mmod_Improper_Torsional_Energy-OPLS-2005>
13.2287368774414

> <r_mmod_Van_der_Waal_Energy-OPLS-2005>
138.335403442383

> <r_mmod_Electrostatic_Energy-OPLS-2005>
-375.970611572266

> <r_mmod_Solvation_Energy-OPLS-2005>
-228.504608154297

> <b_mmod_Minimization_Converged-OPLS-2005>
0

> <r_mmod_RMS_Derivative-OPLS-2005>
0.480760216712952

$$$$
58
                    3D
 Structure written by MMmdl.
164173  0  0  1  0            999 V2000
  -29.7591  -14.0608   21.3420 C   0  0  0  0  0  0
  -30.6177  -12.4384   19.4823 C   0  0  0  0  0  0
  -29.7577  -12.5073   18.1690 C   0  0  0  0  0  0
  -28.2468  -12.2492   18.3223 C   0  0  0  0  0  0
  -27.9136  -12.9427   19.5989 C   0  0  2  0  0  0
  -28.6694  -12.1443   20.6914 C   0  0  0  0  0  0
  -26.0033  -14.3459   20.1262 C   0  0  0  0  0  0
  -24.9075  -14.0782   20.7461 C   0  0  0  0  0  0
  -24.8896  -12.3347   20.4351 C   0  0  0  0  0  0
  -24.0161  -10.8771   20.7767 C   0  0  0  0  0  0
  -24.4253   -9.7869   21.6860 C   0  0  0  0  0  0
  -23.7046   -8.5544   21.9902 C   0  0  0  0  0  0
  -22.4921   -8.2151   21.3510 C   0  0  0  0  0  0
  -22.0830   -9.1540   20.3963 C   0  0  0  0  0  0
  -22.8307  -10.3375   20.1052 C   0  0  0  0  0  0
  -21.7776   -6.1462   22.5247 C   0  0  0  0  0  0
  -21.4812   -6.6084   23.8232 C   0  0  0  0  0  0
  -21.3850   -5.7070   24.9093 C   0  0  0  0  0  0
  -21.5891   -4.3295   24.7080 C   0  0  0  0  0  0
  -21.8716   -3.8499   23.4182 C   0  0  0  0  0  0
  -21.9478   -4.7471   22.3315 C   0  0  0  0  0  0
  -22.6984  -15.2937   21.9880 C   0  0  0  0  0  0
  -22.1787   -4.2508   21.0913 F   0  0  0  0  0  0
  -21.5265   -3.4670   25.7523 F   0  0  0  0  0  0
  -29.8670  -12.8681   20.7078 N   0  0  0  0  0  0
  -26.6055  -13.1131   19.9150 N   0  0  0  0  0  0
  -26.0228  -11.9431   20.0968 N   0  0  0  0  0  0
  -21.7320  -14.5181   22.6498 N   0  0  0  0  0  0
  -26.5628  -15.5405   19.7761 N   0  0  0  0  0  0
  -30.6748  -14.8807   21.0065 O   0  0  0  0  0  0
  -21.7808   -7.0097   21.4367 O   0  0  0  0  0  0
  -21.9172  -16.1010   21.5058 O   0  0  0  0  0  0
  -24.7099  -31.7578   23.1400 C   0  0  0  0  0  0
  -25.9601  -32.4149   23.7914 C   0  0  1  0  0  0
  -26.4109  -26.0362   20.3092 C   0  0  0  0  0  0
  -25.6095  -33.8030   24.1694 N   0  0  0  0  0  0
  -23.5161  -30.4008   21.5125 C   0  0  2  0  0  0
  -24.8394  -28.6852   20.0587 C   0  0  0  0  0  0
  -22.7726  -29.4161   22.4574 C   0  0  0  0  0  0
  -18.0366  -28.1414   22.8487 C   0  0  0  0  0  0
  -24.1532  -36.7035   23.2652 C   0  0  0  0  0  0
  -26.0899  -30.2319   21.5094 C   0  0  0  0  0  0
  -25.9885  -28.7579   20.8373 C   0  0  0  0  0  0
  -26.7898  -27.4476   20.9305 C   0  0  0  0  0  0
  -25.4710  -26.3779   19.3317 C   0  0  0  0  0  0
  -24.6880  -27.5548   19.2499 C   0  0  0  0  0  0
  -23.7523  -29.7697   20.1133 C   0  0  0  0  0  0
  -25.4186  -36.2690   24.0223 C   0  0  1  0  0  0
  -20.5993  -28.3761   23.1103 C   0  0  2  0  0  0
  -20.6789  -26.9391   22.5403 C   0  0  0  0  0  0
  -19.5720  -26.6334   21.5257 C   0  0  0  0  0  0
  -18.1931  -26.7949   22.1673 C   0  0  0  0  0  0
  -19.1631  -28.8919   23.2799 C   0  0  0  0  0  0
  -18.9521  -30.1525   23.8808 C   0  0  0  0  0  0
  -17.6491  -30.6572   24.0552 C   0  0  0  0  0  0
  -25.9213  -34.9102   23.4806 C   0  0  0  0  0  0
  -16.5390  -29.9046   23.6344 C   0  0  0  0  0  0
  -16.7357  -28.6487   23.0357 C   0  0  0  0  0  0
  -26.4664  -31.6447   25.0760 C   0  0  0  0  0  0
  -25.3606  -31.3963   26.1292 C   0  0  0  0  0  0
  -27.0641  -30.2708   24.7089 C   0  0  0  0  0  0
  -27.6035  -32.4460   25.7523 C   0  0  0  0  0  0
  -27.5558  -37.1653   24.8438 C   0  0  0  0  0  0
  -21.4374  -29.2981   22.3356 N   0  0  0  0  0  0
  -26.4248  -37.3513   23.9396 N   0  0  0  0  0  0
  -24.8112  -30.8553   22.0949 N   0  0  0  0  0  0
  -23.4088  -28.7706   23.2956 O   0  0  0  0  0  0
  -26.6714  -24.3831   20.4266 O   0  0  0  0  0  0
  -26.5894  -34.8758   22.4455 O   0  0  0  0  0  0
  -23.6098  -32.0974   23.6158 O   0  0  0  0  0  0
  -24.7546  -14.6616   23.0125 C   0  0  0  0  0  0
  -25.0047  -16.1552   22.1043 C   0  0  0  0  0  0
  -23.7883  -13.2401   22.4240 C   0  0  0  0  0  0
  -22.8038  -13.6689   20.4118 C   0  0  0  0  0  0
  -24.3517  -16.7272   20.6053 C   0  0  0  0  0  0
  -19.9804  -13.2792   18.2478 C   0  0  0  0  0  0
  -20.2421  -13.0087   19.7414 C   0  0  0  0  0  0
  -21.2901  -14.0619   18.2839 C   0  0  0  0  0  0
  -21.7425  -13.1411   19.4532 C   0  0  0  0  0  0
  -25.4848  -12.7539   22.9519 C   0  0  0  0  0  0
  -27.2199  -13.5007   23.0148 C   0  0  0  0  0  0
  -25.5524  -20.2589   20.4890 C   0  0  0  0  0  0
  -25.7002  -22.5609   20.3055 C   0  0  0  0  0  0
  -23.3791  -15.4152   19.7090 N   0  0  0  0  0  0
  -24.6410  -18.4958   20.2621 N   0  0  0  0  0  0
  -28.4904  -14.2446   22.1338 N   0  0  0  0  0  0
  -31.5103  -13.0481   19.3624 H   0  0  0  0  0  0
  -31.0076  -11.4184   19.5802 H   0  0  0  0  0  0
  -30.1454  -11.7812   17.4639 H   0  0  0  0  0  0
  -29.9427  -13.4833   17.7324 H   0  0  0  0  0  0
  -28.0627  -11.1701   18.3537 H   0  0  0  0  0  0
  -27.7032  -12.6400   17.4664 H   0  0  0  0  0  0
  -28.2545  -13.9560   19.3850 H   0  0  0  0  0  0
  -28.8827  -11.1079   20.3954 H   0  0  0  0  0  0
  -28.2095  -11.8767   21.6326 H   0  0  0  0  0  0
  -25.4138   -9.8440   22.1131 H   0  0  0  0  0  0
  -24.1055   -7.8407   22.6901 H   0  0  0  0  0  0
  -21.2186   -8.9201   19.7809 H   0  0  0  0  0  0
  -22.4583  -10.6543   19.1572 H   0  0  0  0  0  0
  -21.3305   -7.6628   23.9907 H   0  0  0  0  0  0
  -21.1615   -6.0773   25.8988 H   0  0  0  0  0  0
  -22.0188   -2.7896   23.2690 H   0  0  0  0  0  0
  -21.9970  -13.6151   23.0119 H   0  0  0  0  0  0
  -20.8183  -14.9028   22.8365 H   0  0  0  0  0  0
  -26.2246  -16.4790   19.9893 H   0  0  0  0  0  0
  -27.3727  -15.5885   19.1787 H   0  0  0  0  0  0
  -26.7621  -32.4325   23.0522 H   0  0  0  0  0  0
  -25.0068  -33.9006   24.9731 H   0  0  0  0  0  0
  -22.8672  -31.2657   21.3588 H   0  0  0  0  0  0
  -23.3797  -35.9359   23.3134 H   0  0  0  0  0  0
  -24.3605  -36.8921   22.2111 H   0  0  0  0  0  0
  -23.7292  -37.6133   23.6896 H   0  0  0  0  0  0
  -26.4196  -30.9123   20.7238 H   0  0  0  0  0  0
  -26.9108  -30.2144   22.2054 H   0  0  0  0  0  0
  -27.6195  -27.4476   21.6192 H   0  0  0  0  0  0
  -25.1578  -25.5726   18.6862 H   0  0  0  0  0  0
  -23.8596  -27.5395   18.5530 H   0  0  0  0  0  0
  -24.0250  -30.5550   19.4076 H   0  0  0  0  0  0
  -22.8169  -29.3578   19.7355 H   0  0  0  0  0  0
  -25.1410  -36.1359   25.0706 H   0  0  0  0  0  0
  -21.0136  -28.3421   24.1218 H   0  0  0  0  0  0
  -20.5629  -26.2409   23.3708 H   0  0  0  0  0  0
  -21.6644  -26.7275   22.1227 H   0  0  0  0  0  0
  -19.6790  -25.6225   21.1330 H   0  0  0  0  0  0
  -19.6632  -27.3122   20.6772 H   0  0  0  0  0  0
  -17.4205  -26.6816   21.4065 H   0  0  0  0  0  0
  -18.0227  -26.0116   22.9072 H   0  0  0  0  0  0
  -19.7986  -30.7408   24.2094 H   0  0  0  0  0  0
  -17.5010  -31.6218   24.5189 H   0  0  0  0  0  0
  -15.5364  -30.2865   23.7674 H   0  0  0  0  0  0
  -15.8822  -28.0724   22.7067 H   0  0  0  0  0  0
  -24.5777  -30.7359   25.7549 H   0  0  0  0  0  0
  -24.8851  -32.3280   26.4352 H   0  0  0  0  0  0
  -25.7614  -30.9286   27.0289 H   0  0  0  0  0  0
  -26.3299  -29.6056   24.2524 H   0  0  0  0  0  0
  -27.4237  -29.7500   25.5968 H   0  0  0  0  0  0
  -27.9287  -30.3661   24.0523 H   0  0  0  0  0  0
  -27.2510  -33.3903   26.1657 H   0  0  0  0  0  0
  -28.3998  -32.6782   25.0452 H   0  0  0  0  0  0
  -28.0520  -31.8939   26.5778 H   0  0  0  0  0  0
  -28.2413  -38.0089   24.7527 H   0  0  0  0  0  0
  -28.1201  -36.2578   24.6191 H   0  0  0  0  0  0
  -27.2268  -37.1206   25.8837 H   0  0  0  0  0  0
  -20.9654  -29.8754   21.6523 H   0  0  0  0  0  0
  -25.9994  -38.2510   24.1453 H   0  0  0  0  0  0
  -25.1278  -14.6796   24.0316 H   0  0  0  0  0  0
  -25.5962  -16.8929   22.6263 H   0  0  0  0  0  0
  -19.0996  -13.8674   17.9817 H   0  0  0  0  0  0
  -20.0542  -12.3793   17.6331 H   0  0  0  0  0  0
  -19.9327  -12.0382   20.1153 H   0  0  0  0  0  0
  -19.9081  -13.8206   20.3882 H   0  0  0  0  0  0
  -21.1368  -15.1077   18.5628 H   0  0  0  0  0  0
  -21.9043  -13.9841   17.3816 H   0  0  0  0  0  0
  -22.2074  -12.4259   18.8099 H   0  0  0  0  0  0
  -25.7211  -11.7538   22.6187 H   0  0  0  0  0  0
  -25.2999  -12.5492   24.0204 H   0  0  0  0  0  0
  -27.7627  -12.6806   23.4801 H   0  0  0  0  0  0
  -27.1837  -14.1809   23.8705 H   0  0  0  0  0  0
  -26.1528  -20.0707   21.3792 H   0  0  0  0  0  0
  -26.1805  -20.0518   19.6241 H   0  0  0  0  0  0
  -24.8209  -22.8483   20.8833 H   0  0  0  0  0  0
  -25.3432  -22.7002   19.2846 H   0  0  0  0  0  0
  -24.1485  -18.6349   19.3775 H   0  0  0  0  0  0
  -28.5305  -15.2101   22.4123 H   0  0  0  0  0  0
  1 25  1  0  0  0
  1 30  2  0  0  0
  1 86  1  0  0  0
  2  3  1  0  0  0
  2 25  1  0  0  0
  2 87  1  0  0  0
  2 88  1  0  0  0
  3  4  1  0  0  0
  3 89  1  0  0  0
  3 90  1  0  0  0
  4  5  1  0  0  0
  4 91  1  0  0  0
  4 92  1  0  0  0
  5  6  1  0  0  0
  5 26  1  0  0  0
  5 93  1  0  0  0
  6 25  1  0  0  0
  6 94  1  0  0  0
  6 95  1  0  0  0
  7  8  2  0  0  0
  7 26  1  0  0  0
  7 29  1  0  0  0
  8  9  1  0  0  0
  8 22  1  0  0  0
  9 10  1  0  0  0
  9 27  2  0  0  0
 10 11  2  0  0  0
 10 15  1  0  0  0
 11 12  1  0  0  0
 11 96  1  0  0  0
 12 13  2  0  0  0
 12 97  1  0  0  0
 13 14  1  0  0  0
 13 31  1  0  0  0
 14 15  2  0  0  0
 14 98  1  0  0  0
 15 99  1  0  0  0
 16 17  2  0  0  0
 16 21  1  0  0  0
 16 31  1  0  0  0
 17 18  1  0  0  0
 17100  1  0  0  0
 18 19  2  0  0  0
 18101  1  0  0  0
 19 20  1  0  0  0
 19 24  1  0  0  0
 20 21  2  0  0  0
 20102  1  0  0  0
 21 23  1  0  0  0
 22 28  1  0  0  0
 22 32  2  0  0  0
 26 27  1  0  0  0
 28103  1  0  0  0
 28104  1  0  0  0
 29105  1  0  0  0
 29106  1  0  0  0
 33 34  1  0  0  0
 33 66  1  0  0  0
 33 70  2  0  0  0
 34 36  1  0  0  0
 34 59  1  0  0  0
 34107  1  0  0  0
 35 44  2  0  0  0
 35 45  1  0  0  0
 35 68  1  0  0  0
 36 56  1  0  0  0
 36108  1  0  0  0
 37 39  1  0  0  0
 37 47  1  0  0  0
 37 66  1  0  0  0
 37109  1  0  0  0
 38 43  2  0  0  0
 38 46  1  0  0  0
 38 47  1  0  0  0
 39 64  1  0  0  0
 39 67  2  0  0  0
 40 52  1  0  0  0
 40 53  2  0  0  0
 40 58  1  0  0  0
 41110  1  0  0  0
 41111  1  0  0  0
 41112  1  0  0  0
 41 48  1  0  0  0
 42 43  1  0  0  0
 42 66  1  0  0  0
 42113  1  0  0  0
 42114  1  0  0  0
 43 44  1  0  0  0
 44115  1  0  0  0
 45 46  2  0  0  0
 45116  1  0  0  0
 46117  1  0  0  0
 47118  1  0  0  0
 47119  1  0  0  0
 48 56  1  0  0  0
 48 65  1  0  0  0
 48120  1  0  0  0
 49 50  1  0  0  0
 49 53  1  0  0  0
 49 64  1  0  0  0
 49121  1  0  0  0
 50 51  1  0  0  0
 50122  1  0  0  0
 50123  1  0  0  0
 51 52  1  0  0  0
 51124  1  0  0  0
 51125  1  0  0  0
 52126  1  0  0  0
 52127  1  0  0  0
 53 54  1  0  0  0
 54 55  2  0  0  0
 54128  1  0  0  0
 55 57  1  0  0  0
 55129  1  0  0  0
 56 69  2  0  0  0
 57 58  2  0  0  0
 57130  1  0  0  0
 58131  1  0  0  0
 59 60  1  0  0  0
 59 61  1  0  0  0
 59 62  1  0  0  0
 60132  1  0  0  0
 60133  1  0  0  0
 60134  1  0  0  0
 61135  1  0  0  0
 61136  1  0  0  0
 61137  1  0  0  0
 62138  1  0  0  0
 62139  1  0  0  0
 62140  1  0  0  0
 63 65  1  0  0  0
 63141  1  0  0  0
 63142  1  0  0  0
 63143  1  0  0  0
 64144  1  0  0  0
 65145  1  0  0  0
 68 83  1  0  0  0
 71 72  2  0  0  0
 71 73  1  0  0  0
 71146  1  0  0  0
 72 75  1  0  0  0
 72147  1  0  0  0
 73 74  2  0  0  0
 73 80  1  0  0  0
 74 84  1  0  0  0
 74 79  1  0  0  0
 75 84  2  0  0  0
 75 85  1  0  0  0
 76 77  1  0  0  0
 76 78  1  0  0  0
 76148  1  0  0  0
 76149  1  0  0  0
 77 79  1  0  0  0
 77150  1  0  0  0
 77151  1  0  0  0
 78 79  1  0  0  0
 78152  1  0  0  0
 78153  1  0  0  0
 79154  1  0  0  0
 80 81  1  0  0  0
 80155  1  0  0  0
 80156  1  0  0  0
 81 86  1  0  0  0
 81157  1  0  0  0
 81158  1  0  0  0
 82 83  1  0  0  0
 82 85  1  0  0  0
 82159  1  0  0  0
 82160  1  0  0  0
 83161  1  0  0  0
 83162  1  0  0  0
 85163  1  0  0  0
 86164  1  0  0  0
M  ISO  4   1 100  68 101  83 101  86 100
M  END
> <chiral flag>
0

> <version>
0

> <s_m_source_file>
/data/baiqing/PycharmProjects/Reinvent-master-3.2/result/LINK_invent/BTK/process_docking_weight1_custom_sum_contain_oxygen_bond_distance_aromatic_linkinvent_7_9_3/rearranged_h_0132.sdf

> <i_m_source_file_index>
57

> <r_mmod_Potential_Energy-OPLS-2005>
18726.107421875

> <r_mmod_Stretch_Energy-OPLS-2005>
9995.2509765625

> <r_mmod_Bend_Energy-OPLS-2005>
1882.65637207031

> <r_mmod_Torsional_Energy-OPLS-2005>
484.036102294922

> <r_mmod_Improper_Torsional_Energy-OPLS-2005>
82.6730651855469

> <r_mmod_Van_der_Waal_Energy-OPLS-2005>
3295.98779296875

> <r_mmod_Electrostatic_Energy-OPLS-2005>
-606.327941894531

> <r_mmod_Solvation_Energy-OPLS-2005>
-248.597290039062

> <b_mmod_Minimization_Converged-OPLS-2005>
0

> <r_mmod_RMS_Derivative-OPLS-2005>
23.4883995056152

$$$$
59
                    3D
 Structure written by MMmdl.
163171  0  0  1  0            999 V2000
  -30.7975  -14.3265   20.6834 C   0  0  0  0  0  0
  -30.4168  -12.2728   19.3832 C   0  0  0  0  0  0
  -29.4831  -12.5283   18.1869 C   0  0  0  0  0  0
  -28.0086  -12.3831   18.6061 C   0  0  0  0  0  0
  -27.6707  -13.2027   19.8797 C   0  0  2  0  0  0
  -28.7118  -12.9420   20.9923 C   0  0  0  0  0  0
  -25.2623  -13.8152   20.5668 C   0  0  0  0  0  0
  -24.1870  -13.0436   20.9145 C   0  0  0  0  0  0
  -24.6422  -11.6896   20.8718 C   0  0  0  0  0  0
  -23.9090  -10.4290   21.0400 C   0  0  0  0  0  0
  -24.3640   -9.4203   21.9182 C   0  0  0  0  0  0
  -23.6298   -8.2247   22.0757 C   0  0  0  0  0  0
  -22.4278   -8.0291   21.3551 C   0  0  0  0  0  0
  -21.9920   -9.0272   20.4657 C   0  0  0  0  0  0
  -22.7259  -10.2140   20.3057 C   0  0  0  0  0  0
  -21.6846   -6.0739   22.5289 C   0  0  0  0  0  0
  -21.4014   -6.5650   23.8223 C   0  0  0  0  0  0
  -21.3655   -5.6804   24.9184 C   0  0  0  0  0  0
  -21.6049   -4.3068   24.7232 C   0  0  0  0  0  0
  -21.8817   -3.8155   23.4354 C   0  0  0  0  0  0
  -21.9190   -4.6968   22.3409 C   0  0  0  0  0  0
  -22.7888  -13.5232   21.1818 C   0  0  0  0  0  0
  -22.1654   -4.2155   21.0986 F   0  0  0  0  0  0
  -21.5629   -3.4550   25.7745 F   0  0  0  0  0  0
  -30.0624  -13.2096   20.4581 N   0  0  0  0  0  0
  -26.3086  -12.9328   20.3392 N   0  0  0  0  0  0
  -25.9357  -11.6484   20.5757 N   0  0  0  0  0  0
  -22.0537  -12.8228   22.0377 N   0  0  0  0  0  0
  -25.4306  -15.1877   20.4079 N   0  0  0  0  0  0
  -31.7721  -14.6572   20.0017 O   0  0  0  0  0  0
  -21.6638   -6.8888   21.4252 O   0  0  0  0  0  0
  -22.3565  -14.5534   20.6655 O   0  0  0  0  0  0
  -24.6108  -31.8715   23.2108 C   0  0  0  0  0  0
  -25.9022  -32.4846   23.8389 C   0  0  1  0  0  0
  -27.2400  -27.4706   20.0862 C   0  0  0  0  0  0
  -25.5910  -33.8638   24.2344 N   0  0  0  0  0  0
  -23.3964  -30.4935   21.5527 C   0  0  2  0  0  0
  -24.8418  -28.9612   20.1175 C   0  0  0  0  0  0
  -22.7384  -29.4682   22.5016 C   0  0  0  0  0  0
  -18.0266  -28.1373   22.8482 C   0  0  0  0  0  0
  -24.1486  -36.7317   23.2638 C   0  0  0  0  0  0
  -25.9211  -30.8495   21.3546 C   0  0  0  0  0  0
  -25.9993  -29.4838   20.7065 C   0  0  0  0  0  0
  -27.2014  -28.7460   20.6859 C   0  0  0  0  0  0
  -26.0670  -26.9550   19.4904 C   0  0  0  0  0  0
  -24.8682  -27.6930   19.5100 C   0  0  0  0  0  0
  -23.5997  -29.8213   20.1689 C   0  0  0  0  0  0
  -25.4112  -36.3122   24.0336 C   0  0  1  0  0  0
  -20.5855  -28.3656   23.1331 C   0  0  2  0  0  0
  -20.6765  -26.9395   22.5422 C   0  0  0  0  0  0
  -19.5751  -26.6382   21.5209 C   0  0  0  0  0  0
  -18.1924  -26.7918   22.1604 C   0  0  0  0  0  0
  -19.1518  -28.8824   23.2899 C   0  0  0  0  0  0
  -18.9443  -30.1431   23.8901 C   0  0  0  0  0  0
  -17.6448  -30.6582   24.0558 C   0  0  0  0  0  0
  -25.9036  -34.9488   23.5132 C   0  0  0  0  0  0
  -16.5337  -29.9087   23.6324 C   0  0  0  0  0  0
  -16.7251  -28.6504   23.0339 C   0  0  0  0  0  0
  -26.4445  -31.6600   25.0703 C   0  0  0  0  0  0
  -25.3707  -31.3703   26.1442 C   0  0  0  0  0  0
  -27.0259  -30.3048   24.6041 C   0  0  0  0  0  0
  -27.6035  -32.4297   25.7474 C   0  0  0  0  0  0
  -27.5586  -37.1811   24.8473 C   0  0  0  0  0  0
  -21.4120  -29.3033   22.3739 N   0  0  0  0  0  0
  -26.4302  -37.3811   23.9411 N   0  0  0  0  0  0
  -24.6616  -31.0848   22.0988 N   0  0  0  0  0  0
  -23.4167  -28.8236   23.3054 O   0  0  0  0  0  0
  -28.4353  -26.7927   20.0475 O   0  0  0  0  0  0
  -26.5582  -34.8939   22.4690 O   0  0  0  0  0  0
  -23.5305  -32.1440   23.7534 O   0  0  0  0  0  0
  -27.2054  -20.9361   23.1405 C   0  0  0  0  0  0
  -29.4734  -21.4585   23.8586 C   0  0  0  0  0  0
  -27.3585  -19.6181   23.6135 C   0  0  0  0  0  0
  -29.6221  -20.1432   24.3438 C   0  0  0  0  0  0
  -28.2630  -21.8646   23.2508 C   0  0  0  0  0  0
  -28.5662  -19.2152   24.2220 C   0  0  0  0  0  0
  -28.0732  -23.2791   22.7857 C   0  0  0  0  0  0
  -28.7168  -17.7941   24.7468 C   0  0  0  0  0  0
  -31.0764  -16.2892   22.1496 C   0  0  0  0  0  0
  -29.1789  -25.2077   21.6812 C   0  0  0  0  0  0
  -30.6476  -16.7937   23.5371 C   0  0  0  0  0  0
  -28.4172  -25.4014   20.3608 C   0  0  0  0  0  0
  -29.1192  -23.8299   22.1594 N   0  0  0  0  0  0
  -30.4387  -15.0309   21.7603 N   0  0  0  0  0  0
  -29.1788  -16.8833   23.6837 N   0  3  0  0  0  0
  -27.0001  -23.8631   22.9512 O   0  0  0  0  0  0
  -31.4607  -12.3641   19.0764 H   0  0  0  0  0  0
  -30.3042  -11.2484   19.7415 H   0  0  0  0  0  0
  -29.7098  -11.8363   17.3758 H   0  0  0  0  0  0
  -29.6545  -13.5306   17.7918 H   0  0  0  0  0  0
  -27.8128  -11.3243   18.7806 H   0  0  0  0  0  0
  -27.3550  -12.6800   17.7845 H   0  0  0  0  0  0
  -27.7307  -14.2570   19.6096 H   0  0  0  0  0  0
  -28.6650  -11.9014   21.3159 H   0  0  0  0  0  0
  -28.4629  -13.5280   21.8759 H   0  0  0  0  0  0
  -25.2804   -9.5653   22.4733 H   0  0  0  0  0  0
  -24.0010   -7.4633   22.7471 H   0  0  0  0  0  0
  -21.0854   -8.8806   19.8959 H   0  0  0  0  0  0
  -22.3753  -10.9677   19.6152 H   0  0  0  0  0  0
  -21.2004   -7.6159   23.9723 H   0  0  0  0  0  0
  -21.1474   -6.0538   25.9090 H   0  0  0  0  0  0
  -22.0590   -2.7615   23.2861 H   0  0  0  0  0  0
  -22.4156  -11.9901   22.4788 H   0  0  0  0  0  0
  -21.1145  -13.1228   22.2554 H   0  0  0  0  0  0
  -24.6517  -15.8316   20.4940 H   0  0  0  0  0  0
  -26.2770  -15.6338   20.0773 H   0  0  0  0  0  0
  -26.7111  -32.5566   23.1171 H   0  0  0  0  0  0
  -25.0099  -33.9804   25.0506 H   0  0  0  0  0  0
  -22.6829  -31.3089   21.4138 H   0  0  0  0  0  0
  -23.3750  -35.9651   23.3318 H   0  0  0  0  0  0
  -24.3581  -36.8898   22.2049 H   0  0  0  0  0  0
  -23.7220  -37.6526   23.6627 H   0  0  0  0  0  0
  -26.0244  -31.6159   20.5858 H   0  0  0  0  0  0
  -26.8129  -30.9077   21.9667 H   0  0  0  0  0  0
  -28.0992  -29.1552   21.1266 H   0  0  0  0  0  0
  -26.0749  -25.9981   18.9893 H   0  0  0  0  0  0
  -23.9807  -27.2849   19.0468 H   0  0  0  0  0  0
  -23.6978  -30.5922   19.4040 H   0  0  0  0  0  0
  -22.7256  -29.2335   19.8815 H   0  0  0  0  0  0
  -25.1285  -36.2006   25.0830 H   0  0  0  0  0  0
  -20.9932  -28.3211   24.1457 H   0  0  0  0  0  0
  -20.5698  -26.2244   23.3592 H   0  0  0  0  0  0
  -21.6633  -26.7485   22.1192 H   0  0  0  0  0  0
  -19.6928  -25.6305   21.1218 H   0  0  0  0  0  0
  -19.6696  -27.3207   20.6754 H   0  0  0  0  0  0
  -17.4201  -26.6662   21.4003 H   0  0  0  0  0  0
  -18.0323  -26.0064   22.8997 H   0  0  0  0  0  0
  -19.7916  -30.7240   24.2276 H   0  0  0  0  0  0
  -17.5006  -31.6272   24.5150 H   0  0  0  0  0  0
  -15.5338  -30.2988   23.7665 H   0  0  0  0  0  0
  -15.8644  -28.0838   22.7054 H   0  0  0  0  0  0
  -24.5911  -30.7023   25.7775 H   0  0  0  0  0  0
  -24.8855  -32.2846   26.4864 H   0  0  0  0  0  0
  -25.8051  -30.8898   27.0212 H   0  0  0  0  0  0
  -26.2791  -29.6852   24.1065 H   0  0  0  0  0  0
  -27.4008  -29.7250   25.4483 H   0  0  0  0  0  0
  -27.8636  -30.4389   23.9196 H   0  0  0  0  0  0
  -27.2680  -33.3602   26.2073 H   0  0  0  0  0  0
  -28.3835  -32.6835   25.0286 H   0  0  0  0  0  0
  -28.0701  -31.8390   26.5362 H   0  0  0  0  0  0
  -28.2618  -38.0097   24.7526 H   0  0  0  0  0  0
  -28.1054  -36.2625   24.6291 H   0  0  0  0  0  0
  -27.2297  -37.1460   25.8873 H   0  0  0  0  0  0
  -20.9273  -29.8715   21.6933 H   0  0  0  0  0  0
  -26.0192  -38.2897   24.1399 H   0  0  0  0  0  0
  -26.2683  -21.2367   22.6922 H   0  0  0  0  0  0
  -30.2857  -22.1613   23.9792 H   0  0  0  0  0  0
  -26.5349  -18.9254   23.5142 H   0  0  0  0  0  0
  -30.5516  -19.8593   24.8197 H   0  0  0  0  0  0
  -27.7446  -17.4500   25.1025 H   0  0  0  0  0  0
  -29.3832  -17.7610   25.6104 H   0  0  0  0  0  0
  -32.1627  -16.1739   22.1371 H   0  0  0  0  0  0
  -30.8415  -17.0447   21.3963 H   0  0  0  0  0  0
  -28.7796  -25.8776   22.4444 H   0  0  0  0  0  0
  -30.2247  -25.4879   21.5444 H   0  0  0  0  0  0
  -31.1056  -17.7690   23.6998 H   0  0  0  0  0  0
  -31.0410  -16.1341   24.3127 H   0  0  0  0  0  0
  -27.4132  -24.9854   20.4486 H   0  0  0  0  0  0
  -28.9160  -24.8575   19.5573 H   0  0  0  0  0  0
  -29.9374  -23.2528   22.0243 H   0  0  0  0  0  0
  -29.7074  -14.6295   22.3258 H   0  0  0  0  0  0
  -28.7653  -17.1891   22.8187 H   0  0  0  0  0  0
  -28.8196  -15.9687   23.8997 H   0  0  0  0  0  0
  1 25  1  0  0  0
  1 30  2  0  0  0
  1 84  1  0  0  0
  2  3  1  0  0  0
  2 25  1  0  0  0
  2 87  1  0  0  0
  2 88  1  0  0  0
  3  4  1  0  0  0
  3 89  1  0  0  0
  3 90  1  0  0  0
  4  5  1  0  0  0
  4 91  1  0  0  0
  4 92  1  0  0  0
  5  6  1  0  0  0
  5 26  1  0  0  0
  5 93  1  0  0  0
  6 25  1  0  0  0
  6 94  1  0  0  0
  6 95  1  0  0  0
  7  8  2  0  0  0
  7 26  1  0  0  0
  7 29  1  0  0  0
  8  9  1  0  0  0
  8 22  1  0  0  0
  9 10  1  0  0  0
  9 27  2  0  0  0
 10 11  2  0  0  0
 10 15  1  0  0  0
 11 12  1  0  0  0
 11 96  1  0  0  0
 12 13  2  0  0  0
 12 97  1  0  0  0
 13 14  1  0  0  0
 13 31  1  0  0  0
 14 15  2  0  0  0
 14 98  1  0  0  0
 15 99  1  0  0  0
 16 17  2  0  0  0
 16 21  1  0  0  0
 16 31  1  0  0  0
 17 18  1  0  0  0
 17100  1  0  0  0
 18 19  2  0  0  0
 18101  1  0  0  0
 19 20  1  0  0  0
 19 24  1  0  0  0
 20 21  2  0  0  0
 20102  1  0  0  0
 21 23  1  0  0  0
 22 28  1  0  0  0
 22 32  2  0  0  0
 26 27  1  0  0  0
 28103  1  0  0  0
 28104  1  0  0  0
 29105  1  0  0  0
 29106  1  0  0  0
 33 34  1  0  0  0
 33 66  1  0  0  0
 33 70  2  0  0  0
 34 36  1  0  0  0
 34 59  1  0  0  0
 34107  1  0  0  0
 35 44  2  0  0  0
 35 45  1  0  0  0
 35 68  1  0  0  0
 36 56  1  0  0  0
 36108  1  0  0  0
 37 39  1  0  0  0
 37 47  1  0  0  0
 37 66  1  0  0  0
 37109  1  0  0  0
 38 43  2  0  0  0
 38 46  1  0  0  0
 38 47  1  0  0  0
 39 64  1  0  0  0
 39 67  2  0  0  0
 40 52  1  0  0  0
 40 53  2  0  0  0
 40 58  1  0  0  0
 41110  1  0  0  0
 41111  1  0  0  0
 41112  1  0  0  0
 41 48  1  0  0  0
 42 43  1  0  0  0
 42 66  1  0  0  0
 42113  1  0  0  0
 42114  1  0  0  0
 43 44  1  0  0  0
 44115  1  0  0  0
 45 46  2  0  0  0
 45116  1  0  0  0
 46117  1  0  0  0
 47118  1  0  0  0
 47119  1  0  0  0
 48 56  1  0  0  0
 48 65  1  0  0  0
 48120  1  0  0  0
 49 50  1  0  0  0
 49 53  1  0  0  0
 49 64  1  0  0  0
 49121  1  0  0  0
 50 51  1  0  0  0
 50122  1  0  0  0
 50123  1  0  0  0
 51 52  1  0  0  0
 51124  1  0  0  0
 51125  1  0  0  0
 52126  1  0  0  0
 52127  1  0  0  0
 53 54  1  0  0  0
 54 55  2  0  0  0
 54128  1  0  0  0
 55 57  1  0  0  0
 55129  1  0  0  0
 56 69  2  0  0  0
 57 58  2  0  0  0
 57130  1  0  0  0
 58131  1  0  0  0
 59 60  1  0  0  0
 59 61  1  0  0  0
 59 62  1  0  0  0
 60132  1  0  0  0
 60133  1  0  0  0
 60134  1  0  0  0
 61135  1  0  0  0
 61136  1  0  0  0
 61137  1  0  0  0
 62138  1  0  0  0
 62139  1  0  0  0
 62140  1  0  0  0
 63 65  1  0  0  0
 63141  1  0  0  0
 63142  1  0  0  0
 63143  1  0  0  0
 64144  1  0  0  0
 65145  1  0  0  0
 68 82  1  0  0  0
 71 73  2  0  0  0
 71 75  1  0  0  0
 71146  1  0  0  0
 72 74  1  0  0  0
 72 75  2  0  0  0
 72147  1  0  0  0
 73 76  1  0  0  0
 73148  1  0  0  0
 74 76  2  0  0  0
 74149  1  0  0  0
 75 77  1  0  0  0
 76 78  1  0  0  0
 77 83  1  0  0  0
 77 86  2  0  0  0
 78 85  1  0  0  0
 78150  1  0  0  0
 78151  1  0  0  0
 79 81  1  0  0  0
 79 84  1  0  0  0
 79152  1  0  0  0
 79153  1  0  0  0
 80 82  1  0  0  0
 80 83  1  0  0  0
 80154  1  0  0  0
 80155  1  0  0  0
 81 85  1  0  0  0
 81156  1  0  0  0
 81157  1  0  0  0
 82158  1  0  0  0
 82159  1  0  0  0
 83160  1  0  0  0
 84161  1  0  0  0
 85162  1  0  0  0
 85163  1  0  0  0
M  CHG  1  85   1
M  ISO  4   1 100  68 101  82 101  84 100
M  END
> <chiral flag>
0

> <version>
0

> <s_m_source_file>
/data/baiqing/PycharmProjects/Reinvent-master-3.2/result/LINK_invent/BTK/process_docking_weight1_custom_sum_contain_oxygen_bond_distance_aromatic_linkinvent_7_9_3/rearranged_h_0132.sdf

> <i_m_source_file_index>
58

> <r_mmod_Potential_Energy-OPLS-2005>
-393.937622070312

> <r_mmod_Stretch_Energy-OPLS-2005>
31.7148818969727

> <r_mmod_Bend_Energy-OPLS-2005>
86.6989669799805

> <r_mmod_Torsional_Energy-OPLS-2005>
245.790252685547

> <r_mmod_Improper_Torsional_Energy-OPLS-2005>
2.39761638641357

> <r_mmod_Van_der_Waal_Energy-OPLS-2005>
154.545166015625

> <r_mmod_Electrostatic_Energy-OPLS-2005>
-386.472442626953

> <r_mmod_Solvation_Energy-OPLS-2005>
-535.810546875

> <b_mmod_Minimization_Converged-OPLS-2005>
0

> <r_mmod_RMS_Derivative-OPLS-2005>
2.22329783439636

$$$$
60
                    3D
 Structure written by MMmdl.
164173  0  0  1  0            999 V2000
  -30.7793  -14.3975   20.6640 C   0  0  0  0  0  0
  -30.4149  -12.3027   19.4085 C   0  0  0  0  0  0
  -29.4841  -12.5108   18.1998 C   0  0  0  0  0  0
  -28.0116  -12.3567   18.6208 C   0  0  0  0  0  0
  -27.6613  -13.2040   19.8718 C   0  0  2  0  0  0
  -28.7018  -12.9899   20.9941 C   0  0  0  0  0  0
  -25.2583  -13.8162   20.5657 C   0  0  0  0  0  0
  -24.1829  -13.0444   20.9160 C   0  0  0  0  0  0
  -24.6369  -11.6907   20.8706 C   0  0  0  0  0  0
  -23.9034  -10.4289   21.0380 C   0  0  0  0  0  0
  -24.3596   -9.4208   21.9151 C   0  0  0  0  0  0
  -23.6288   -8.2236   22.0732 C   0  0  0  0  0  0
  -22.4276   -8.0258   21.3525 C   0  0  0  0  0  0
  -21.9898   -9.0232   20.4640 C   0  0  0  0  0  0
  -22.7208  -10.2119   20.3041 C   0  0  0  0  0  0
  -21.6854   -6.0724   22.5277 C   0  0  0  0  0  0
  -21.4011   -6.5627   23.8211 C   0  0  0  0  0  0
  -21.3662   -5.6779   24.9171 C   0  0  0  0  0  0
  -21.6042   -4.3043   24.7221 C   0  0  0  0  0  0
  -21.8818   -3.8137   23.4340 C   0  0  0  0  0  0
  -21.9189   -4.6953   22.3397 C   0  0  0  0  0  0
  -22.7852  -13.5251   21.1841 C   0  0  0  0  0  0
  -22.1655   -4.2142   21.0973 F   0  0  0  0  0  0
  -21.5639   -3.4526   25.7731 F   0  0  0  0  0  0
  -30.0403  -13.2754   20.4472 N   0  0  0  0  0  0
  -26.3018  -12.9334   20.3350 N   0  0  0  0  0  0
  -25.9300  -11.6497   20.5735 N   0  0  0  0  0  0
  -22.0495  -12.8259   22.0408 N   0  0  0  0  0  0
  -25.4329  -15.1882   20.4086 N   0  0  0  0  0  0
  -31.8313  -14.6265   20.0593 O   0  0  0  0  0  0
  -21.6630   -6.8868   21.4240 O   0  0  0  0  0  0
  -22.3524  -14.5537   20.6671 O   0  0  0  0  0  0
  -24.6122  -31.8686   23.2118 C   0  0  0  0  0  0
  -25.9023  -32.4821   23.8409 C   0  0  1  0  0  0
  -27.2439  -27.4556   20.0808 C   0  0  0  0  0  0
  -25.5887  -33.8625   24.2342 N   0  0  0  0  0  0
  -23.4001  -30.4925   21.5484 C   0  0  2  0  0  0
  -24.8482  -28.9581   20.1176 C   0  0  0  0  0  0
  -22.7386  -29.4665   22.4962 C   0  0  0  0  0  0
  -18.0271  -28.1377   22.8483 C   0  0  0  0  0  0
  -24.1486  -36.7330   23.2635 C   0  0  0  0  0  0
  -25.9274  -30.8383   21.3641 C   0  0  0  0  0  0
  -26.0039  -29.4726   20.7151 C   0  0  0  0  0  0
  -27.2011  -28.7236   20.7025 C   0  0  0  0  0  0
  -26.0632  -26.9463   19.4914 C   0  0  0  0  0  0
  -24.8690  -27.6920   19.5094 C   0  0  0  0  0  0
  -23.6097  -29.8232   20.1639 C   0  0  0  0  0  0
  -25.4104  -36.3117   24.0339 C   0  0  1  0  0  0
  -20.5860  -28.3661   23.1300 C   0  0  2  0  0  0
  -20.6764  -26.9391   22.5417 C   0  0  0  0  0  0
  -19.5759  -26.6386   21.5196 C   0  0  0  0  0  0
  -18.1931  -26.7933   22.1602 C   0  0  0  0  0  0
  -19.1520  -28.8831   23.2903 C   0  0  0  0  0  0
  -18.9454  -30.1437   23.8917 C   0  0  0  0  0  0
  -17.6461  -30.6592   24.0557 C   0  0  0  0  0  0
  -25.9025  -34.9475   23.5138 C   0  0  0  0  0  0
  -16.5349  -29.9100   23.6314 C   0  0  0  0  0  0
  -16.7263  -28.6511   23.0342 C   0  0  0  0  0  0
  -26.4460  -31.6605   25.0732 C   0  0  0  0  0  0
  -25.3736  -31.3731   26.1493 C   0  0  0  0  0  0
  -27.0284  -30.3042   24.6120 C   0  0  0  0  0  0
  -27.6052  -32.4314   25.7477 C   0  0  0  0  0  0
  -27.5585  -37.1816   24.8458 C   0  0  0  0  0  0
  -21.4115  -29.3039   22.3701 N   0  0  0  0  0  0
  -26.4294  -37.3801   23.9406 N   0  0  0  0  0  0
  -24.6639  -31.0810   22.1002 N   0  0  0  0  0  0
  -23.4161  -28.8188   23.2989 O   0  0  0  0  0  0
  -28.4431  -26.7722   20.0849 O   0  0  0  0  0  0
  -26.5582  -34.8917   22.4696 O   0  0  0  0  0  0
  -23.5317  -32.1412   23.7523 O   0  0  0  0  0  0
  -33.0034  -17.1989   23.2969 C   0  0  0  0  0  0
  -32.2971  -16.1495   22.6758 C   0  0  0  0  0  0
  -30.3897  -17.6382   22.2522 C   0  0  0  0  0  0
  -32.3901  -18.4589   23.3781 C   0  0  0  0  0  0
  -31.1178  -18.6872   22.8613 C   0  0  0  0  0  0
  -30.9966  -16.3584   22.1436 C   0  0  0  0  0  0
  -30.1154  -23.0042   20.6581 C   0  0  0  0  0  0
  -32.9537  -19.6793   24.0502 C   0  0  0  0  0  0
  -31.7290  -20.6113   24.1556 C   0  0  0  0  0  0
  -30.6770  -20.1223   23.1123 C   0  0  1  0  0  0
  -30.4193  -22.3721   22.0119 C   0  0  0  0  0  0
  -30.0234  -25.1060   19.3268 C   0  0  0  0  0  0
  -28.5774  -25.6241   19.2500 C   0  0  0  0  0  0
  -30.2824  -15.2759   21.5548 N   0  0  0  0  0  0
  -30.2649  -24.3312   20.5445 N   0  0  0  0  0  0
  -30.6948  -20.9227   21.8644 N   0  3  0  0  0  0
  -29.7391  -22.2927   19.7250 O   0  0  0  0  0  0
  -31.4587  -12.3941   19.1019 H   0  0  0  0  0  0
  -30.3140  -11.2882   19.7997 H   0  0  0  0  0  0
  -29.7250  -11.7927   17.4148 H   0  0  0  0  0  0
  -29.6442  -13.5013   17.7697 H   0  0  0  0  0  0
  -27.8363  -11.3003   18.8287 H   0  0  0  0  0  0
  -27.3518  -12.6116   17.7907 H   0  0  0  0  0  0
  -27.7072  -14.2494   19.5683 H   0  0  0  0  0  0
  -28.6700  -11.9578   21.3447 H   0  0  0  0  0  0
  -28.4499  -13.5974   21.8640 H   0  0  0  0  0  0
  -25.2746   -9.5699   22.4712 H   0  0  0  0  0  0
  -23.9997   -7.4643   22.7460 H   0  0  0  0  0  0
  -21.0820   -8.8759   19.8964 H   0  0  0  0  0  0
  -22.3654  -10.9651   19.6148 H   0  0  0  0  0  0
  -21.1999   -7.6136   23.9721 H   0  0  0  0  0  0
  -21.1491   -6.0497   25.9077 H   0  0  0  0  0  0
  -22.0600   -2.7598   23.2837 H   0  0  0  0  0  0
  -22.4110  -11.9924   22.4811 H   0  0  0  0  0  0
  -21.1111  -13.1304   22.2593 H   0  0  0  0  0  0
  -24.6697  -15.8493   20.5161 H   0  0  0  0  0  0
  -26.2944  -15.6218   20.1008 H   0  0  0  0  0  0
  -26.7099  -32.5529   23.1177 H   0  0  0  0  0  0
  -25.0019  -33.9797   25.0471 H   0  0  0  0  0  0
  -22.6899  -31.3102   21.4069 H   0  0  0  0  0  0
  -23.3734  -35.9676   23.3304 H   0  0  0  0  0  0
  -24.3578  -36.8929   22.2048 H   0  0  0  0  0  0
  -23.7263  -37.6548   23.6642 H   0  0  0  0  0  0
  -26.0396  -31.6040   20.5943 H   0  0  0  0  0  0
  -26.8173  -30.8926   21.9795 H   0  0  0  0  0  0
  -28.0950  -29.1198   21.1641 H   0  0  0  0  0  0
  -26.0372  -25.9768   19.0154 H   0  0  0  0  0  0
  -23.9763  -27.2889   19.0518 H   0  0  0  0  0  0
  -23.7195  -30.5959   19.4023 H   0  0  0  0  0  0
  -22.7356  -29.2412   19.8671 H   0  0  0  0  0  0
  -25.1284  -36.1979   25.0836 H   0  0  0  0  0  0
  -20.9985  -28.3252   24.1405 H   0  0  0  0  0  0
  -20.5639  -26.2273   23.3608 H   0  0  0  0  0  0
  -21.6639  -26.7428   22.1223 H   0  0  0  0  0  0
  -19.6920  -25.6301   21.1214 H   0  0  0  0  0  0
  -19.6713  -27.3202   20.6731 H   0  0  0  0  0  0
  -17.4204  -26.6672   21.4001 H   0  0  0  0  0  0
  -18.0333  -26.0073   22.8997 H   0  0  0  0  0  0
  -19.7936  -30.7236   24.2307 H   0  0  0  0  0  0
  -17.5027  -31.6269   24.5171 H   0  0  0  0  0  0
  -15.5359  -30.3016   23.7646 H   0  0  0  0  0  0
  -15.8651  -28.0851   22.7049 H   0  0  0  0  0  0
  -24.5911  -30.7063   25.7856 H   0  0  0  0  0  0
  -24.8917  -32.2893   26.4922 H   0  0  0  0  0  0
  -25.8100  -30.8929   27.0262 H   0  0  0  0  0  0
  -26.2833  -29.6804   24.1167 H   0  0  0  0  0  0
  -27.4031  -29.7282   25.4593 H   0  0  0  0  0  0
  -27.8677  -30.4345   23.9280 H   0  0  0  0  0  0
  -27.2695  -33.3598   26.2108 H   0  0  0  0  0  0
  -28.3833  -32.6900   25.0286 H   0  0  0  0  0  0
  -28.0757  -31.8404   26.5341 H   0  0  0  0  0  0
  -28.2612  -38.0104   24.7487 H   0  0  0  0  0  0
  -28.1066  -36.2634   24.6297 H   0  0  0  0  0  0
  -27.2291  -37.1491   25.8856 H   0  0  0  0  0  0
  -20.9257  -29.8758   21.6926 H   0  0  0  0  0  0
  -26.0174  -38.2869   24.1425 H   0  0  0  0  0  0
  -33.9864  -17.0318   23.7144 H   0  0  0  0  0  0
  -32.7591  -15.1732   22.6234 H   0  0  0  0  0  0
  -29.3922  -17.8101   21.8726 H   0  0  0  0  0  0
  -33.7319  -20.1132   23.4207 H   0  0  0  0  0  0
  -33.3847  -19.4508   25.0260 H   0  0  0  0  0  0
  -31.9890  -21.6671   24.1235 H   0  0  0  0  0  0
  -31.2943  -20.4525   25.1435 H   0  0  0  0  0  0
  -29.6743  -20.1415   23.5413 H   0  0  0  0  0  0
  -29.5593  -22.5310   22.6622 H   0  0  0  0  0  0
  -31.2735  -22.8840   22.4534 H   0  0  0  0  0  0
  -30.7228  -25.9431   19.2876 H   0  0  0  0  0  0
  -30.2426  -24.4934   18.4498 H   0  0  0  0  0  0
  -27.8802  -24.8345   19.5373 H   0  0  0  0  0  0
  -28.3588  -25.9081   18.2193 H   0  0  0  0  0  0
  -29.3385  -15.1177   21.8724 H   0  0  0  0  0  0
  -30.5682  -24.8509   21.3590 H   0  0  0  0  0  0
  -29.9867  -20.5665   21.2425 H   0  0  0  0  0  0
  -31.5730  -20.8019   21.3900 H   0  0  0  0  0  0
  1 25  1  0  0  0
  1 30  2  0  0  0
  1 84  1  0  0  0
  2  3  1  0  0  0
  2 25  1  0  0  0
  2 88  1  0  0  0
  2 89  1  0  0  0
  3  4  1  0  0  0
  3 90  1  0  0  0
  3 91  1  0  0  0
  4  5  1  0  0  0
  4 92  1  0  0  0
  4 93  1  0  0  0
  5  6  1  0  0  0
  5 26  1  0  0  0
  5 94  1  0  0  0
  6 25  1  0  0  0
  6 95  1  0  0  0
  6 96  1  0  0  0
  7  8  2  0  0  0
  7 26  1  0  0  0
  7 29  1  0  0  0
  8  9  1  0  0  0
  8 22  1  0  0  0
  9 10  1  0  0  0
  9 27  2  0  0  0
 10 11  2  0  0  0
 10 15  1  0  0  0
 11 12  1  0  0  0
 11 97  1  0  0  0
 12 13  2  0  0  0
 12 98  1  0  0  0
 13 14  1  0  0  0
 13 31  1  0  0  0
 14 15  2  0  0  0
 14 99  1  0  0  0
 15100  1  0  0  0
 16 17  2  0  0  0
 16 21  1  0  0  0
 16 31  1  0  0  0
 17 18  1  0  0  0
 17101  1  0  0  0
 18 19  2  0  0  0
 18102  1  0  0  0
 19 20  1  0  0  0
 19 24  1  0  0  0
 20 21  2  0  0  0
 20103  1  0  0  0
 21 23  1  0  0  0
 22 28  1  0  0  0
 22 32  2  0  0  0
 26 27  1  0  0  0
 28104  1  0  0  0
 28105  1  0  0  0
 29106  1  0  0  0
 29107  1  0  0  0
 33 34  1  0  0  0
 33 66  1  0  0  0
 33 70  2  0  0  0
 34 36  1  0  0  0
 34 59  1  0  0  0
 34108  1  0  0  0
 35 44  2  0  0  0
 35 45  1  0  0  0
 35 68  1  0  0  0
 36 56  1  0  0  0
 36109  1  0  0  0
 37 39  1  0  0  0
 37 47  1  0  0  0
 37 66  1  0  0  0
 37110  1  0  0  0
 38 43  2  0  0  0
 38 46  1  0  0  0
 38 47  1  0  0  0
 39 64  1  0  0  0
 39 67  2  0  0  0
 40 52  1  0  0  0
 40 53  2  0  0  0
 40 58  1  0  0  0
 41111  1  0  0  0
 41112  1  0  0  0
 41113  1  0  0  0
 41 48  1  0  0  0
 42 43  1  0  0  0
 42 66  1  0  0  0
 42114  1  0  0  0
 42115  1  0  0  0
 43 44  1  0  0  0
 44116  1  0  0  0
 45 46  2  0  0  0
 45117  1  0  0  0
 46118  1  0  0  0
 47119  1  0  0  0
 47120  1  0  0  0
 48 56  1  0  0  0
 48 65  1  0  0  0
 48121  1  0  0  0
 49 50  1  0  0  0
 49 53  1  0  0  0
 49 64  1  0  0  0
 49122  1  0  0  0
 50 51  1  0  0  0
 50123  1  0  0  0
 50124  1  0  0  0
 51 52  1  0  0  0
 51125  1  0  0  0
 51126  1  0  0  0
 52127  1  0  0  0
 52128  1  0  0  0
 53 54  1  0  0  0
 54 55  2  0  0  0
 54129  1  0  0  0
 55 57  1  0  0  0
 55130  1  0  0  0
 56 69  2  0  0  0
 57 58  2  0  0  0
 57131  1  0  0  0
 58132  1  0  0  0
 59 60  1  0  0  0
 59 61  1  0  0  0
 59 62  1  0  0  0
 60133  1  0  0  0
 60134  1  0  0  0
 60135  1  0  0  0
 61136  1  0  0  0
 61137  1  0  0  0
 61138  1  0  0  0
 62139  1  0  0  0
 62140  1  0  0  0
 62141  1  0  0  0
 63 65  1  0  0  0
 63142  1  0  0  0
 63143  1  0  0  0
 63144  1  0  0  0
 64145  1  0  0  0
 65146  1  0  0  0
 68 83  1  0  0  0
 71 72  2  0  0  0
 71 74  1  0  0  0
 71147  1  0  0  0
 72 76  1  0  0  0
 72148  1  0  0  0
 73 75  1  0  0  0
 73 76  2  0  0  0
 73149  1  0  0  0
 74 75  2  0  0  0
 74 78  1  0  0  0
 75 80  1  0  0  0
 76 84  1  0  0  0
 77 81  1  0  0  0
 77 85  1  0  0  0
 77 87  2  0  0  0
 78 79  1  0  0  0
 78150  1  0  0  0
 78151  1  0  0  0
 79 80  1  0  0  0
 79152  1  0  0  0
 79153  1  0  0  0
 80 86  1  0  0  0
 80154  1  0  0  0
 81 86  1  0  0  0
 81155  1  0  0  0
 81156  1  0  0  0
 82 83  1  0  0  0
 82 85  1  0  0  0
 82157  1  0  0  0
 82158  1  0  0  0
 83159  1  0  0  0
 83160  1  0  0  0
 84161  1  0  0  0
 85162  1  0  0  0
 86163  1  0  0  0
 86164  1  0  0  0
M  CHG  1  86   1
M  ISO  4   1 100  68 101  83 101  84 100
M  END
> <chiral flag>
0

> <version>
0

> <s_m_source_file>
/data/baiqing/PycharmProjects/Reinvent-master-3.2/result/LINK_invent/BTK/process_docking_weight1_custom_sum_contain_oxygen_bond_distance_aromatic_linkinvent_7_9_3/rearranged_h_0132.sdf

> <i_m_source_file_index>
59

> <r_mmod_Potential_Energy-OPLS-2005>
-446.643249511719

> <r_mmod_Stretch_Energy-OPLS-2005>
35.5681419372559

> <r_mmod_Bend_Energy-OPLS-2005>
136.592697143555

> <r_mmod_Torsional_Energy-OPLS-2005>
228.822967529297

> <r_mmod_Improper_Torsional_Energy-OPLS-2005>
1.82122409343719

> <r_mmod_Van_der_Waal_Energy-OPLS-2005>
158.478012084961

> <r_mmod_Electrostatic_Energy-OPLS-2005>
-533.172302246094

> <r_mmod_Solvation_Energy-OPLS-2005>
-483.892608642578

> <b_mmod_Minimization_Converged-OPLS-2005>
0

> <r_mmod_RMS_Derivative-OPLS-2005>
2.33894610404968

$$$$
61
                    3D
 Structure written by MMmdl.
163172  0  0  1  0            999 V2000
  -30.3937  -15.3931   20.3676 C   0  0  0  0  0  0
  -30.4342  -12.9099   19.5164 C   0  0  0  0  0  0
  -29.5373  -12.6037   18.2893 C   0  0  0  0  0  0
  -28.0952  -12.2961   18.7269 C   0  0  0  0  0  0
  -27.6026  -13.2841   19.8119 C   0  0  2  0  0  0
  -28.6335  -13.5184   20.9360 C   0  0  0  0  0  0
  -25.2362  -13.8252   20.5753 C   0  0  0  0  0  0
  -24.1729  -13.0431   20.9271 C   0  0  0  0  0  0
  -24.6393  -11.6930   20.8761 C   0  0  0  0  0  0
  -23.9094  -10.4287   21.0401 C   0  0  0  0  0  0
  -24.3638   -9.4203   21.9181 C   0  0  0  0  0  0
  -23.6309   -8.2238   22.0748 C   0  0  0  0  0  0
  -22.4288   -8.0279   21.3541 C   0  0  0  0  0  0
  -21.9929   -9.0254   20.4643 C   0  0  0  0  0  0
  -22.7262  -10.2131   20.3054 C   0  0  0  0  0  0
  -21.6856   -6.0738   22.5279 C   0  0  0  0  0  0
  -21.4018   -6.5642   23.8212 C   0  0  0  0  0  0
  -21.3663   -5.6793   24.9172 C   0  0  0  0  0  0
  -21.6044   -4.3056   24.7225 C   0  0  0  0  0  0
  -21.8818   -3.8148   23.4346 C   0  0  0  0  0  0
  -21.9192   -4.6965   22.3401 C   0  0  0  0  0  0
  -22.7742  -13.5182   21.1911 C   0  0  0  0  0  0
  -22.1660   -4.2150   21.0977 F   0  0  0  0  0  0
  -21.5629   -3.4538   25.7739 F   0  0  0  0  0  0
  -29.8384  -14.0706   20.2884 N   0  0  0  0  0  0
  -26.2786  -12.9538   20.3193 N   0  0  0  0  0  0
  -25.9331  -11.6637   20.5704 N   0  0  0  0  0  0
  -22.0398  -12.8168   22.0466 N   0  0  0  0  0  0
  -25.3983  -15.1990   20.4186 N   0  0  0  0  0  0
  -31.6284  -15.3563   20.2401 O   0  0  0  0  0  0
  -21.6645   -6.8882   21.4241 O   0  0  0  0  0  0
  -22.3423  -14.5479   20.6744 O   0  0  0  0  0  0
  -24.6699  -31.8165   23.1646 C   0  0  0  0  0  0
  -25.9346  -32.4556   23.8141 C   0  0  1  0  0  0
  -27.2180  -26.8451   20.2093 C   0  0  0  0  0  0
  -25.5986  -33.8376   24.2043 N   0  0  0  0  0  0
  -23.4881  -30.4241   21.5159 C   0  0  2  0  0  0
  -24.9412  -28.7881   20.1256 C   0  0  0  0  0  0
  -22.7694  -29.4408   22.4773 C   0  0  0  0  0  0
  -18.0324  -28.1414   22.8465 C   0  0  0  0  0  0
  -24.1494  -36.7191   23.2644 C   0  0  0  0  0  0
  -26.0608  -30.5942   21.4094 C   0  0  0  0  0  0
  -26.1255  -29.1704   20.7683 C   0  0  0  0  0  0
  -27.2561  -28.2219   20.7831 C   0  0  0  0  0  0
  -26.0045  -26.6351   19.5171 C   0  0  0  0  0  0
  -24.9085  -27.5401   19.4814 C   0  0  0  0  0  0
  -23.7337  -29.7292   20.1478 C   0  0  0  0  0  0
  -25.4136  -36.2948   24.0294 C   0  0  1  0  0  0
  -20.5952  -28.3763   23.1174 C   0  0  2  0  0  0
  -20.6800  -26.9441   22.5399 C   0  0  0  0  0  0
  -19.5769  -26.6376   21.5217 C   0  0  0  0  0  0
  -18.1953  -26.7944   22.1629 C   0  0  0  0  0  0
  -19.1588  -28.8911   23.2804 C   0  0  0  0  0  0
  -18.9495  -30.1496   23.8845 C   0  0  0  0  0  0
  -17.6488  -30.6600   24.0553 C   0  0  0  0  0  0
  -25.9110  -34.9334   23.4990 C   0  0  0  0  0  0
  -16.5377  -29.9084   23.6345 C   0  0  0  0  0  0
  -16.7306  -28.6504   23.0368 C   0  0  0  0  0  0
  -26.4569  -31.6528   25.0701 C   0  0  0  0  0  0
  -25.3674  -31.3808   26.1345 C   0  0  0  0  0  0
  -27.0469  -30.2882   24.6492 C   0  0  0  0  0  0
  -27.6051  -32.4350   25.7507 C   0  0  0  0  0  0
  -27.5573  -37.1746   24.8458 C   0  0  0  0  0  0
  -21.4359  -29.3041   22.3519 N   0  0  0  0  0  0
  -26.4270  -37.3696   23.9416 N   0  0  0  0  0  0
  -24.7616  -30.9749   22.0831 N   0  0  0  0  0  0
  -23.4203  -28.7994   23.3057 O   0  0  0  0  0  0
  -28.2521  -25.7451   20.1365 O   0  0  0  0  0  0
  -26.5732  -34.8878   22.4593 O   0  0  0  0  0  0
  -23.5747  -32.1176   23.6687 O   0  0  0  0  0  0
  -28.9339  -21.3534   20.7651 C   0  0  0  0  0  0
  -28.9077  -20.1002   18.7516 C   0  0  0  0  0  0
  -29.1661  -19.9449   20.1297 C   0  0  0  0  0  0
  -28.5136  -22.7163   20.1201 C   0  0  0  0  0  0
  -28.3630  -22.4660   18.7376 C   0  0  0  0  0  0
  -24.7025  -23.1964   16.1655 C   0  0  0  0  0  0
  -25.3882  -24.3078   15.3532 C   0  0  0  0  0  0
  -25.5959  -22.9571   17.3843 C   0  0  0  0  0  0
  -26.7540  -24.5463   16.0133 C   0  0  0  0  0  0
  -26.9978  -23.3097   16.8808 C   0  0  0  0  0  0
  -31.3269  -18.6109   20.8574 C   0  0  0  0  0  0
  -29.8152  -18.3796   20.7213 C   0  0  2  0  0  0
  -28.5467  -21.2602   18.1175 N   0  0  0  0  0  0
  -28.1272  -24.1352   20.6994 N   0  0  0  0  0  0
  -27.9651  -23.5449   17.9451 N   0  0  0  0  0  0
  -29.6297  -16.7029   20.3955 N   0  0  0  0  0  0
  -31.4413  -13.1441   19.1681 H   0  0  0  0  0  0
  -30.5424  -12.0293   20.1512 H   0  0  0  0  0  0
  -29.9451  -11.7704   17.7157 H   0  0  0  0  0  0
  -29.5370  -13.4659   17.6207 H   0  0  0  0  0  0
  -28.0785  -11.2804   19.1242 H   0  0  0  0  0  0
  -27.4242  -12.3000   17.8674 H   0  0  0  0  0  0
  -27.4952  -14.2340   19.2865 H   0  0  0  0  0  0
  -28.8408  -12.6022   21.4908 H   0  0  0  0  0  0
  -28.2480  -14.2408   21.6581 H   0  0  0  0  0  0
  -25.2780   -9.5683   22.4763 H   0  0  0  0  0  0
  -24.0015   -7.4631   22.7470 H   0  0  0  0  0  0
  -21.0856   -8.8780   19.8953 H   0  0  0  0  0  0
  -22.3718  -10.9671   19.6169 H   0  0  0  0  0  0
  -21.2011   -7.6150   23.9721 H   0  0  0  0  0  0
  -21.1488   -6.0519   25.9077 H   0  0  0  0  0  0
  -22.0594   -2.7609   23.2844 H   0  0  0  0  0  0
  -22.4030  -11.9855   22.4885 H   0  0  0  0  0  0
  -21.1004  -13.1172   22.2653 H   0  0  0  0  0  0
  -24.6259  -15.8477   20.5273 H   0  0  0  0  0  0
  -26.2362  -15.6389   20.0630 H   0  0  0  0  0  0
  -26.7422  -32.5071   23.0856 H   0  0  0  0  0  0
  -25.0068  -33.9442   25.0151 H   0  0  0  0  0  0
  -22.8057  -31.2576   21.3371 H   0  0  0  0  0  0
  -23.3779  -35.9494   23.3248 H   0  0  0  0  0  0
  -24.3574  -36.8901   22.2070 H   0  0  0  0  0  0
  -23.7223  -37.6347   23.6744 H   0  0  0  0  0  0
  -26.2471  -31.3235   20.6199 H   0  0  0  0  0  0
  -26.9191  -30.6608   22.0656 H   0  0  0  0  0  0
  -28.1637  -28.5257   21.2849 H   0  0  0  0  0  0
  -25.8821  -25.6914   19.0080 H   0  0  0  0  0  0
  -24.0137  -27.2413   18.9531 H   0  0  0  0  0  0
  -23.9005  -30.4915   19.3864 H   0  0  0  0  0  0
  -22.8410  -29.1891   19.8277 H   0  0  0  0  0  0
  -25.1334  -36.1730   25.0784 H   0  0  0  0  0  0
  -21.0037  -28.3374   24.1298 H   0  0  0  0  0  0
  -20.5680  -26.2385   23.3647 H   0  0  0  0  0  0
  -21.6661  -26.7410   22.1204 H   0  0  0  0  0  0
  -19.6927  -25.6270   21.1283 H   0  0  0  0  0  0
  -19.6703  -27.3155   20.6721 H   0  0  0  0  0  0
  -17.4221  -26.6682   21.4035 H   0  0  0  0  0  0
  -18.0351  -26.0100   22.9039 H   0  0  0  0  0  0
  -19.7967  -30.7327   24.2196 H   0  0  0  0  0  0
  -17.5034  -31.6278   24.5159 H   0  0  0  0  0  0
  -15.5375  -30.2969   23.7696 H   0  0  0  0  0  0
  -15.8707  -28.0801   22.7120 H   0  0  0  0  0  0
  -24.5843  -30.7184   25.7640 H   0  0  0  0  0  0
  -24.8885  -32.3022   26.4665 H   0  0  0  0  0  0
  -25.7875  -30.9021   27.0199 H   0  0  0  0  0  0
  -26.3146  -29.6543   24.1480 H   0  0  0  0  0  0
  -27.3944  -29.7275   25.5181 H   0  0  0  0  0  0
  -27.9116  -30.4042   23.9955 H   0  0  0  0  0  0
  -27.2613  -33.3699   26.1948 H   0  0  0  0  0  0
  -28.3930  -32.6838   25.0385 H   0  0  0  0  0  0
  -28.0643  -31.8570   26.5536 H   0  0  0  0  0  0
  -28.2540  -38.0092   24.7552 H   0  0  0  0  0  0
  -28.1121  -36.2620   24.6224 H   0  0  0  0  0  0
  -27.2296  -37.1307   25.8860 H   0  0  0  0  0  0
  -20.9636  -29.8711   21.6618 H   0  0  0  0  0  0
  -26.0112  -38.2743   24.1451 H   0  0  0  0  0  0
  -29.0953  -21.3942   21.8323 H   0  0  0  0  0  0
  -29.0372  -19.2502   18.0981 H   0  0  0  0  0  0
  -24.6521  -22.2853   15.5670 H   0  0  0  0  0  0
  -23.6814  -23.4549   16.4492 H   0  0  0  0  0  0
  -24.7964  -25.2245   15.3493 H   0  0  0  0  0  0
  -25.5081  -23.9946   14.3147 H   0  0  0  0  0  0
  -25.5234  -21.9359   17.7607 H   0  0  0  0  0  0
  -25.2957  -23.6267   18.1911 H   0  0  0  0  0  0
  -26.6990  -25.4433   16.6325 H   0  0  0  0  0  0
  -27.5468  -24.7040   15.2811 H   0  0  0  0  0  0
  -27.3525  -22.5071   16.2316 H   0  0  0  0  0  0
  -31.5378  -19.5559   21.3590 H   0  0  0  0  0  0
  -31.8065  -18.6389   19.8786 H   0  0  0  0  0  0
  -31.8079  -17.8278   21.4436 H   0  0  0  0  0  0
  -29.4377  -18.4033   21.7449 H   0  0  0  0  0  0
  -28.2176  -24.1782   21.7124 H   0  0  0  0  0  0
  -27.8152  -24.3638   18.5331 H   0  0  0  0  0  0
  -28.6463  -16.4842   20.3318 H   0  0  0  0  0  0
  1 25  1  0  0  0
  1 30  2  0  0  0
  1 86  1  0  0  0
  2  3  1  0  0  0
  2 25  1  0  0  0
  2 87  1  0  0  0
  2 88  1  0  0  0
  3  4  1  0  0  0
  3 89  1  0  0  0
  3 90  1  0  0  0
  4  5  1  0  0  0
  4 91  1  0  0  0
  4 92  1  0  0  0
  5  6  1  0  0  0
  5 26  1  0  0  0
  5 93  1  0  0  0
  6 25  1  0  0  0
  6 94  1  0  0  0
  6 95  1  0  0  0
  7  8  2  0  0  0
  7 26  1  0  0  0
  7 29  1  0  0  0
  8  9  1  0  0  0
  8 22  1  0  0  0
  9 10  1  0  0  0
  9 27  2  0  0  0
 10 11  2  0  0  0
 10 15  1  0  0  0
 11 12  1  0  0  0
 11 96  1  0  0  0
 12 13  2  0  0  0
 12 97  1  0  0  0
 13 14  1  0  0  0
 13 31  1  0  0  0
 14 15  2  0  0  0
 14 98  1  0  0  0
 15 99  1  0  0  0
 16 17  2  0  0  0
 16 21  1  0  0  0
 16 31  1  0  0  0
 17 18  1  0  0  0
 17100  1  0  0  0
 18 19  2  0  0  0
 18101  1  0  0  0
 19 20  1  0  0  0
 19 24  1  0  0  0
 20 21  2  0  0  0
 20102  1  0  0  0
 21 23  1  0  0  0
 22 28  1  0  0  0
 22 32  2  0  0  0
 26 27  1  0  0  0
 28103  1  0  0  0
 28104  1  0  0  0
 29105  1  0  0  0
 29106  1  0  0  0
 33 34  1  0  0  0
 33 66  1  0  0  0
 33 70  2  0  0  0
 34 36  1  0  0  0
 34 59  1  0  0  0
 34107  1  0  0  0
 35 44  2  0  0  0
 35 45  1  0  0  0
 35 68  1  0  0  0
 36 56  1  0  0  0
 36108  1  0  0  0
 37 39  1  0  0  0
 37 47  1  0  0  0
 37 66  1  0  0  0
 37109  1  0  0  0
 38 43  2  0  0  0
 38 46  1  0  0  0
 38 47  1  0  0  0
 39 64  1  0  0  0
 39 67  2  0  0  0
 40 52  1  0  0  0
 40 53  2  0  0  0
 40 58  1  0  0  0
 41110  1  0  0  0
 41111  1  0  0  0
 41112  1  0  0  0
 41 48  1  0  0  0
 42 43  1  0  0  0
 42 66  1  0  0  0
 42113  1  0  0  0
 42114  1  0  0  0
 43 44  1  0  0  0
 44115  1  0  0  0
 45 46  2  0  0  0
 45116  1  0  0  0
 46117  1  0  0  0
 47118  1  0  0  0
 47119  1  0  0  0
 48 56  1  0  0  0
 48 65  1  0  0  0
 48120  1  0  0  0
 49 50  1  0  0  0
 49 53  1  0  0  0
 49 64  1  0  0  0
 49121  1  0  0  0
 50 51  1  0  0  0
 50122  1  0  0  0
 50123  1  0  0  0
 51 52  1  0  0  0
 51124  1  0  0  0
 51125  1  0  0  0
 52126  1  0  0  0
 52127  1  0  0  0
 53 54  1  0  0  0
 54 55  2  0  0  0
 54128  1  0  0  0
 55 57  1  0  0  0
 55129  1  0  0  0
 56 69  2  0  0  0
 57 58  2  0  0  0
 57130  1  0  0  0
 58131  1  0  0  0
 59 60  1  0  0  0
 59 61  1  0  0  0
 59 62  1  0  0  0
 60132  1  0  0  0
 60133  1  0  0  0
 60134  1  0  0  0
 61135  1  0  0  0
 61136  1  0  0  0
 61137  1  0  0  0
 62138  1  0  0  0
 62139  1  0  0  0
 62140  1  0  0  0
 63 65  1  0  0  0
 63141  1  0  0  0
 63142  1  0  0  0
 63143  1  0  0  0
 64144  1  0  0  0
 65145  1  0  0  0
 68 84  1  0  0  0
 71 73  2  0  0  0
 71 74  1  0  0  0
 71146  1  0  0  0
 72 73  1  0  0  0
 72 83  2  0  0  0
 72147  1  0  0  0
 73 82  1  0  0  0
 74 75  2  0  0  0
 74 84  1  0  0  0
 75 83  1  0  0  0
 75 85  1  0  0  0
 76 77  1  0  0  0
 76 78  1  0  0  0
 76148  1  0  0  0
 76149  1  0  0  0
 77 79  1  0  0  0
 77150  1  0  0  0
 77151  1  0  0  0
 78 80  1  0  0  0
 78152  1  0  0  0
 78153  1  0  0  0
 79 80  1  0  0  0
 79154  1  0  0  0
 79155  1  0  0  0
 80 85  1  0  0  0
 80156  1  0  0  0
 81157  1  0  0  0
 81158  1  0  0  0
 81159  1  0  0  0
 81 82  1  0  0  0
 82 86  1  0  0  0
 82160  1  0  0  0
 84161  1  0  0  0
 85162  1  0  0  0
 86163  1  0  0  0
M  ISO  4   1 100  68 101  84 101  86 100
M  END
> <chiral flag>
0

> <version>
0

> <s_m_source_file>
/data/baiqing/PycharmProjects/Reinvent-master-3.2/result/LINK_invent/BTK/process_docking_weight1_custom_sum_contain_oxygen_bond_distance_aromatic_linkinvent_7_9_3/rearranged_h_0132.sdf

> <i_m_source_file_index>
60

> <r_mmod_Potential_Energy-OPLS-2005>
1438.16076660156

> <r_mmod_Stretch_Energy-OPLS-2005>
700.355895996094

> <r_mmod_Bend_Energy-OPLS-2005>
531.514282226562

> <r_mmod_Torsional_Energy-OPLS-2005>
252.266494750977

> <r_mmod_Improper_Torsional_Energy-OPLS-2005>
12.1701431274414

> <r_mmod_Van_der_Waal_Energy-OPLS-2005>
119.704711914062

> <r_mmod_Electrostatic_Energy-OPLS-2005>
-524.39990234375

> <r_mmod_Solvation_Energy-OPLS-2005>
-237.157241821289

> <b_mmod_Minimization_Converged-OPLS-2005>
0

> <r_mmod_RMS_Derivative-OPLS-2005>
1.02764892578125

$$$$
62
                    3D
 Structure written by MMmdl.
152160  0  0  1  0            999 V2000
  -30.5040  -15.0439   20.4019 C   0  0  0  0  0  0
  -30.4411  -12.6531   19.5041 C   0  0  0  0  0  0
  -29.5264  -12.5411   18.2617 C   0  0  0  0  0  0
  -28.0633  -12.3081   18.6828 C   0  0  0  0  0  0
  -27.6233  -13.2544   19.8299 C   0  0  2  0  0  0
  -28.6637  -13.3266   20.9667 C   0  0  0  0  0  0
  -25.2441  -13.8216   20.5707 C   0  0  0  0  0  0
  -24.1770  -13.0435   20.9237 C   0  0  0  0  0  0
  -24.6396  -11.6924   20.8758 C   0  0  0  0  0  0
  -23.9084  -10.4295   21.0408 C   0  0  0  0  0  0
  -24.3629   -9.4207   21.9185 C   0  0  0  0  0  0
  -23.6302   -8.2243   22.0754 C   0  0  0  0  0  0
  -22.4285   -8.0281   21.3543 C   0  0  0  0  0  0
  -21.9923   -9.0257   20.4646 C   0  0  0  0  0  0
  -22.7255  -10.2135   20.3056 C   0  0  0  0  0  0
  -21.6856   -6.0738   22.5279 C   0  0  0  0  0  0
  -21.4016   -6.5640   23.8212 C   0  0  0  0  0  0
  -21.3661   -5.6792   24.9173 C   0  0  0  0  0  0
  -21.6045   -4.3056   24.7224 C   0  0  0  0  0  0
  -21.8820   -3.8147   23.4345 C   0  0  0  0  0  0
  -21.9194   -4.6964   22.3401 C   0  0  0  0  0  0
  -22.7791  -13.5206   21.1886 C   0  0  0  0  0  0
  -22.1662   -4.2149   21.0980 F   0  0  0  0  0  0
  -21.5627   -3.4538   25.7735 F   0  0  0  0  0  0
  -29.9243  -13.7681   20.3565 N   0  0  0  0  0  0
  -26.2859  -12.9456   20.3212 N   0  0  0  0  0  0
  -25.9325  -11.6582   20.5724 N   0  0  0  0  0  0
  -22.0438  -12.8197   22.0440 N   0  0  0  0  0  0
  -25.4092  -15.1947   20.4117 N   0  0  0  0  0  0
  -31.7184  -15.0926   20.1729 O   0  0  0  0  0  0
  -21.6643   -6.8882   21.4241 O   0  0  0  0  0  0
  -22.3477  -14.5509   20.6725 O   0  0  0  0  0  0
  -24.6492  -31.8377   23.1817 C   0  0  0  0  0  0
  -25.9234  -32.4660   23.8235 C   0  0  1  0  0  0
  -27.2169  -27.0699   20.1705 C   0  0  0  0  0  0
  -25.5957  -33.8470   24.2148 N   0  0  0  0  0  0
  -23.4562  -30.4528   21.5292 C   0  0  2  0  0  0
  -24.9061  -28.8615   20.1162 C   0  0  0  0  0  0
  -22.7595  -29.4511   22.4847 C   0  0  0  0  0  0
  -18.0307  -28.1400   22.8476 C   0  0  0  0  0  0
  -24.1493  -36.7242   23.2644 C   0  0  0  0  0  0
  -26.0156  -30.6909   21.3884 C   0  0  0  0  0  0
  -26.0861  -29.2936   20.7350 C   0  0  0  0  0  0
  -27.2431  -28.4173   20.7361 C   0  0  0  0  0  0
  -26.0101  -26.7495   19.5149 C   0  0  0  0  0  0
  -24.8845  -27.6059   19.4882 C   0  0  0  0  0  0
  -23.6868  -29.7734   20.1525 C   0  0  0  0  0  0
  -25.4129  -36.3013   24.0308 C   0  0  1  0  0  0
  -20.5924  -28.3730   23.1228 C   0  0  2  0  0  0
  -20.6791  -26.9427   22.5407 C   0  0  0  0  0  0
  -19.5765  -26.6380   21.5216 C   0  0  0  0  0  0
  -18.1946  -26.7937   22.1625 C   0  0  0  0  0  0
  -19.1564  -28.8884   23.2841 C   0  0  0  0  0  0
  -18.9480  -30.1479   23.8867 C   0  0  0  0  0  0
  -17.6474  -30.6595   24.0557 C   0  0  0  0  0  0
  -25.9083  -34.9389   23.5043 C   0  0  0  0  0  0
  -16.5365  -29.9086   23.6338 C   0  0  0  0  0  0
  -16.7289  -28.6505   23.0358 C   0  0  0  0  0  0
  -26.4534  -31.6555   25.0706 C   0  0  0  0  0  0
  -25.3698  -31.3763   26.1386 C   0  0  0  0  0  0
  -27.0411  -30.2944   24.6331 C   0  0  0  0  0  0
  -27.6049  -32.4338   25.7499 C   0  0  0  0  0  0
  -27.5574  -37.1778   24.8464 C   0  0  0  0  0  0
  -21.4281  -29.3043   22.3593 N   0  0  0  0  0  0
  -26.4287  -37.3734   23.9405 N   0  0  0  0  0  0
  -24.7274  -31.0172   22.0878 N   0  0  0  0  0  0
  -23.4208  -28.8072   23.3032 O   0  0  0  0  0  0
  -28.2776  -26.0742   20.1877 O   0  0  0  0  0  0
  -26.5680  -34.8900   22.4629 O   0  0  0  0  0  0
  -23.5596  -32.1281   23.6998 O   0  0  0  0  0  0
  -30.1331  -23.4712   17.3417 C   0  0  0  0  0  0
  -30.4530  -22.1194   17.3994 C   0  0  0  0  0  0
  -29.3972  -24.0504   18.3797 C   0  0  0  0  0  0
  -30.0254  -21.3480   18.4854 C   0  0  0  0  0  0
  -28.9291  -23.3552   19.5261 C   0  0  0  0  0  0
  -29.2566  -21.8370   19.5777 C   0  0  0  0  0  0
  -28.0981  -24.5022   20.3991 C   0  0  0  0  0  0
  -28.9476  -19.1066   20.1502 C   0  0  0  0  0  0
  -30.0339  -17.8292   20.5324 C   0  0  0  0  0  0
  -29.0449  -20.6693   20.4897 N   0  0  0  0  0  0
  -29.7186  -16.2492   20.5010 N   0  0  0  0  0  0
  -31.4705  -12.8289   19.1884 H   0  0  0  0  0  0
  -30.4564  -11.7147   20.0610 H   0  0  0  0  0  0
  -29.8650  -11.7334   17.6114 H   0  0  0  0  0  0
  -29.5961  -13.4574   17.6733 H   0  0  0  0  0  0
  -27.9793  -11.2714   19.0104 H   0  0  0  0  0  0
  -27.3986  -12.4112   17.8244 H   0  0  0  0  0  0
  -27.5717  -14.2465   19.3803 H   0  0  0  0  0  0
  -28.7766  -12.3624   21.4644 H   0  0  0  0  0  0
  -28.3460  -14.0370   21.7318 H   0  0  0  0  0  0
  -25.2774   -9.5683   22.4762 H   0  0  0  0  0  0
  -24.0007   -7.4639   22.7477 H   0  0  0  0  0  0
  -21.0852   -8.8782   19.8960 H   0  0  0  0  0  0
  -22.3712  -10.9673   19.6168 H   0  0  0  0  0  0
  -21.2010   -7.6148   23.9717 H   0  0  0  0  0  0
  -21.1481   -6.0521   25.9077 H   0  0  0  0  0  0
  -22.0598   -2.7609   23.2844 H   0  0  0  0  0  0
  -22.4060  -11.9869   22.4842 H   0  0  0  0  0  0
  -21.1051  -13.1217   22.2635 H   0  0  0  0  0  0
  -24.6352  -15.8420   20.5161 H   0  0  0  0  0  0
  -26.2433  -15.6339   20.0447 H   0  0  0  0  0  0
  -26.7300  -32.5247   23.0959 H   0  0  0  0  0  0
  -25.0062  -33.9574   25.0268 H   0  0  0  0  0  0
  -22.7621  -31.2802   21.3678 H   0  0  0  0  0  0
  -23.3762  -35.9566   23.3289 H   0  0  0  0  0  0
  -24.3572  -36.8899   22.2062 H   0  0  0  0  0  0
  -23.7243  -37.6427   23.6701 H   0  0  0  0  0  0
  -26.1770  -31.4399   20.6118 H   0  0  0  0  0  0
  -26.8835  -30.7458   22.0341 H   0  0  0  0  0  0
  -28.1469  -28.7488   21.2279 H   0  0  0  0  0  0
  -25.9196  -25.7906   19.0247 H   0  0  0  0  0  0
  -23.9854  -27.2721   18.9885 H   0  0  0  0  0  0
  -23.8304  -30.5434   19.3937 H   0  0  0  0  0  0
  -22.7996  -29.2191   19.8407 H   0  0  0  0  0  0
  -25.1323  -36.1830   25.0801 H   0  0  0  0  0  0
  -21.0010  -28.3323   24.1352 H   0  0  0  0  0  0
  -20.5687  -26.2341   23.3631 H   0  0  0  0  0  0
  -21.6656  -26.7430   22.1203 H   0  0  0  0  0  0
  -19.6928  -25.6283   21.1265 H   0  0  0  0  0  0
  -19.6704  -27.3173   20.6734 H   0  0  0  0  0  0
  -17.4217  -26.6680   21.4027 H   0  0  0  0  0  0
  -18.0343  -26.0085   22.9028 H   0  0  0  0  0  0
  -19.7954  -30.7304   24.2224 H   0  0  0  0  0  0
  -17.5025  -31.6271   24.5166 H   0  0  0  0  0  0
  -15.5364  -30.2976   23.7680 H   0  0  0  0  0  0
  -15.8690  -28.0812   22.7091 H   0  0  0  0  0  0
  -24.5880  -30.7114   25.7695 H   0  0  0  0  0  0
  -24.8886  -32.2951   26.4745 H   0  0  0  0  0  0
  -25.7959  -30.8969   27.0209 H   0  0  0  0  0  0
  -26.3042  -29.6650   24.1327 H   0  0  0  0  0  0
  -27.3990  -29.7266   25.4930 H   0  0  0  0  0  0
  -27.8963  -30.4167   23.9681 H   0  0  0  0  0  0
  -27.2629  -33.3661   26.2008 H   0  0  0  0  0  0
  -28.3896  -32.6867   25.0355 H   0  0  0  0  0  0
  -28.0680  -31.8512   26.5474 H   0  0  0  0  0  0
  -28.2580  -38.0084   24.7510 H   0  0  0  0  0  0
  -28.1081  -36.2612   24.6293 H   0  0  0  0  0  0
  -27.2287  -37.1426   25.8865 H   0  0  0  0  0  0
  -20.9509  -29.8738   21.6745 H   0  0  0  0  0  0
  -26.0146  -38.2798   24.1409 H   0  0  0  0  0  0
  -30.4549  -24.0720   16.5017 H   0  0  0  0  0  0
  -31.0335  -21.6656   16.6082 H   0  0  0  0  0  0
  -29.1824  -25.1018   18.2609 H   0  0  0  0  0  0
  -30.3499  -20.3191   18.4504 H   0  0  0  0  0  0
  -28.3283  -24.3089   21.4470 H   0  0  0  0  0  0
  -27.0408  -24.2588   20.2991 H   0  0  0  0  0  0
  -28.0113  -18.8165   20.6293 H   0  0  0  0  0  0
  -28.7145  -19.0185   19.0880 H   0  0  0  0  0  0
  -30.3742  -18.0135   21.5519 H   0  0  0  0  0  0
  -30.9247  -17.9715   19.9192 H   0  0  0  0  0  0
  -28.6055  -20.9131   21.3757 H   0  0  0  0  0  0
  -28.7369  -16.0462   20.6167 H   0  0  0  0  0  0
  1 25  1  0  0  0
  1 30  2  0  0  0
  1 81  1  0  0  0
  2  3  1  0  0  0
  2 25  1  0  0  0
  2 82  1  0  0  0
  2 83  1  0  0  0
  3  4  1  0  0  0
  3 84  1  0  0  0
  3 85  1  0  0  0
  4  5  1  0  0  0
  4 86  1  0  0  0
  4 87  1  0  0  0
  5  6  1  0  0  0
  5 26  1  0  0  0
  5 88  1  0  0  0
  6 25  1  0  0  0
  6 89  1  0  0  0
  6 90  1  0  0  0
  7  8  2  0  0  0
  7 26  1  0  0  0
  7 29  1  0  0  0
  8  9  1  0  0  0
  8 22  1  0  0  0
  9 10  1  0  0  0
  9 27  2  0  0  0
 10 11  2  0  0  0
 10 15  1  0  0  0
 11 12  1  0  0  0
 11 91  1  0  0  0
 12 13  2  0  0  0
 12 92  1  0  0  0
 13 14  1  0  0  0
 13 31  1  0  0  0
 14 15  2  0  0  0
 14 93  1  0  0  0
 15 94  1  0  0  0
 16 17  2  0  0  0
 16 21  1  0  0  0
 16 31  1  0  0  0
 17 18  1  0  0  0
 17 95  1  0  0  0
 18 19  2  0  0  0
 18 96  1  0  0  0
 19 20  1  0  0  0
 19 24  1  0  0  0
 20 21  2  0  0  0
 20 97  1  0  0  0
 21 23  1  0  0  0
 22 28  1  0  0  0
 22 32  2  0  0  0
 26 27  1  0  0  0
 28 98  1  0  0  0
 28 99  1  0  0  0
 29100  1  0  0  0
 29101  1  0  0  0
 33 34  1  0  0  0
 33 66  1  0  0  0
 33 70  2  0  0  0
 34 36  1  0  0  0
 34 59  1  0  0  0
 34102  1  0  0  0
 35 44  2  0  0  0
 35 45  1  0  0  0
 35 68  1  0  0  0
 36 56  1  0  0  0
 36103  1  0  0  0
 37 39  1  0  0  0
 37 47  1  0  0  0
 37 66  1  0  0  0
 37104  1  0  0  0
 38 43  2  0  0  0
 38 46  1  0  0  0
 38 47  1  0  0  0
 39 64  1  0  0  0
 39 67  2  0  0  0
 40 52  1  0  0  0
 40 53  2  0  0  0
 40 58  1  0  0  0
 41105  1  0  0  0
 41106  1  0  0  0
 41107  1  0  0  0
 41 48  1  0  0  0
 42 43  1  0  0  0
 42 66  1  0  0  0
 42108  1  0  0  0
 42109  1  0  0  0
 43 44  1  0  0  0
 44110  1  0  0  0
 45 46  2  0  0  0
 45111  1  0  0  0
 46112  1  0  0  0
 47113  1  0  0  0
 47114  1  0  0  0
 48 56  1  0  0  0
 48 65  1  0  0  0
 48115  1  0  0  0
 49 50  1  0  0  0
 49 53  1  0  0  0
 49 64  1  0  0  0
 49116  1  0  0  0
 50 51  1  0  0  0
 50117  1  0  0  0
 50118  1  0  0  0
 51 52  1  0  0  0
 51119  1  0  0  0
 51120  1  0  0  0
 52121  1  0  0  0
 52122  1  0  0  0
 53 54  1  0  0  0
 54 55  2  0  0  0
 54123  1  0  0  0
 55 57  1  0  0  0
 55124  1  0  0  0
 56 69  2  0  0  0
 57 58  2  0  0  0
 57125  1  0  0  0
 58126  1  0  0  0
 59 60  1  0  0  0
 59 61  1  0  0  0
 59 62  1  0  0  0
 60127  1  0  0  0
 60128  1  0  0  0
 60129  1  0  0  0
 61130  1  0  0  0
 61131  1  0  0  0
 61132  1  0  0  0
 62133  1  0  0  0
 62134  1  0  0  0
 62135  1  0  0  0
 63 65  1  0  0  0
 63136  1  0  0  0
 63137  1  0  0  0
 63138  1  0  0  0
 64139  1  0  0  0
 65140  1  0  0  0
 68 77  1  0  0  0
 71 72  2  0  0  0
 71 73  1  0  0  0
 71141  1  0  0  0
 72 74  1  0  0  0
 72142  1  0  0  0
 73 75  2  0  0  0
 73143  1  0  0  0
 74 76  2  0  0  0
 74144  1  0  0  0
 75 76  1  0  0  0
 75 77  1  0  0  0
 76 80  1  0  0  0
 77145  1  0  0  0
 77146  1  0  0  0
 78 79  1  0  0  0
 78 80  1  0  0  0
 78147  1  0  0  0
 78148  1  0  0  0
 79 81  1  0  0  0
 79149  1  0  0  0
 79150  1  0  0  0
 80151  1  0  0  0
 81152  1  0  0  0
M  ISO  4   1 100  68 101  77 101  81 100
M  END
> <chiral flag>
0

> <version>
0

> <s_m_source_file>
/data/baiqing/PycharmProjects/Reinvent-master-3.2/result/LINK_invent/BTK/process_docking_weight1_custom_sum_contain_oxygen_bond_distance_aromatic_linkinvent_7_9_3/rearranged_h_0132.sdf

> <i_m_source_file_index>
61

> <r_mmod_Potential_Energy-OPLS-2005>
732.74853515625

> <r_mmod_Stretch_Energy-OPLS-2005>
360.010192871094

> <r_mmod_Bend_Energy-OPLS-2005>
374.433563232422

> <r_mmod_Torsional_Energy-OPLS-2005>
217.633102416992

> <r_mmod_Improper_Torsional_Energy-OPLS-2005>
5.55056858062744

> <r_mmod_Van_der_Waal_Energy-OPLS-2005>
135.489044189453

> <r_mmod_Electrostatic_Energy-OPLS-2005>
-387.115570068359

> <r_mmod_Solvation_Energy-OPLS-2005>
-230.194732666016

> <b_mmod_Minimization_Converged-OPLS-2005>
0

> <r_mmod_RMS_Derivative-OPLS-2005>
0.545259058475494

$$$$
63
                    3D
 Structure written by MMmdl.
163171  0  0  1  0            999 V2000
  -30.6617  -14.5747   20.5832 C   0  0  0  0  0  0
  -30.4320  -12.3792   19.4330 C   0  0  0  0  0  0
  -29.4970  -12.5159   18.2122 C   0  0  0  0  0  0
  -28.0249  -12.3448   18.6324 C   0  0  0  0  0  0
  -27.6555  -13.2124   19.8628 C   0  0  2  0  0  0
  -28.6961  -13.0466   20.9917 C   0  0  0  0  0  0
  -25.2576  -13.8163   20.5685 C   0  0  0  0  0  0
  -24.1846  -13.0420   20.9206 C   0  0  0  0  0  0
  -24.6414  -11.6907   20.8750 C   0  0  0  0  0  0
  -23.9091  -10.4283   21.0399 C   0  0  0  0  0  0
  -24.3645   -9.4197   21.9174 C   0  0  0  0  0  0
  -23.6312   -8.2240   22.0740 C   0  0  0  0  0  0
  -22.4286   -8.0284   21.3534 C   0  0  0  0  0  0
  -21.9938   -9.0261   20.4634 C   0  0  0  0  0  0
  -22.7275  -10.2138   20.3041 C   0  0  0  0  0  0
  -21.6856   -6.0750   22.5286 C   0  0  0  0  0  0
  -21.4008   -6.5644   23.8219 C   0  0  0  0  0  0
  -21.3666   -5.6796   24.9187 C   0  0  0  0  0  0
  -21.6038   -4.3055   24.7229 C   0  0  0  0  0  0
  -21.8823   -3.8156   23.4344 C   0  0  0  0  0  0
  -21.9199   -4.6978   22.3411 C   0  0  0  0  0  0
  -22.7867  -13.5207   21.1883 C   0  0  0  0  0  0
  -22.1669   -4.2161   21.0984 F   0  0  0  0  0  0
  -21.5634   -3.4544   25.7741 F   0  0  0  0  0  0
  -30.0155  -13.3790   20.4344 N   0  0  0  0  0  0
  -26.2987  -12.9352   20.3311 N   0  0  0  0  0  0
  -25.9331  -11.6497   20.5746 N   0  0  0  0  0  0
  -22.0534  -12.8161   22.0433 N   0  0  0  0  0  0
  -25.4252  -15.1877   20.4117 N   0  0  0  0  0  0
  -31.7999  -14.7582   20.1430 O   0  0  0  0  0  0
  -21.6642   -6.8892   21.4240 O   0  0  0  0  0  0
  -22.3554  -14.5523   20.6755 O   0  0  0  0  0  0
  -24.6192  -31.8675   23.2118 C   0  0  0  0  0  0
  -25.9073  -32.4847   23.8390 C   0  0  1  0  0  0
  -27.2079  -27.3745   20.1157 C   0  0  0  0  0  0
  -25.5923  -33.8628   24.2302 N   0  0  0  0  0  0
  -23.4097  -30.4886   21.5612 C   0  0  2  0  0  0
  -24.8516  -28.9462   20.1257 C   0  0  0  0  0  0
  -22.7447  -29.4612   22.5068 C   0  0  0  0  0  0
  -18.0299  -28.1373   22.8507 C   0  0  0  0  0  0
  -24.1505  -36.7266   23.2638 C   0  0  0  0  0  0
  -25.9446  -30.8053   21.3819 C   0  0  0  0  0  0
  -26.0169  -29.4354   20.7318 C   0  0  0  0  0  0
  -27.2003  -28.6529   20.7343 C   0  0  0  0  0  0
  -26.0363  -26.9212   19.4822 C   0  0  0  0  0  0
  -24.8551  -27.6869   19.5033 C   0  0  0  0  0  0
  -23.6180  -29.8229   20.1772 C   0  0  0  0  0  0
  -25.4145  -36.3103   24.0309 C   0  0  1  0  0  0
  -20.5887  -28.3640   23.1340 C   0  0  2  0  0  0
  -20.6813  -26.9379   22.5436 C   0  0  0  0  0  0
  -19.5793  -26.6349   21.5244 C   0  0  0  0  0  0
  -18.1950  -26.7928   22.1610 C   0  0  0  0  0  0
  -19.1552  -28.8833   23.2910 C   0  0  0  0  0  0
  -18.9479  -30.1439   23.8917 C   0  0  0  0  0  0
  -17.6478  -30.6596   24.0559 C   0  0  0  0  0  0
  -25.9069  -34.9470   23.5095 C   0  0  0  0  0  0
  -16.5374  -29.9074   23.6352 C   0  0  0  0  0  0
  -16.7285  -28.6487   23.0391 C   0  0  0  0  0  0
  -26.4490  -31.6681   25.0754 C   0  0  0  0  0  0
  -25.3682  -31.3766   26.1452 C   0  0  0  0  0  0
  -27.0372  -30.3143   24.6167 C   0  0  0  0  0  0
  -27.6125  -32.4397   25.7469 C   0  0  0  0  0  0
  -27.5610  -37.1753   24.8466 C   0  0  0  0  0  0
  -21.4173  -29.2983   22.3742 N   0  0  0  0  0  0
  -26.4332  -37.3789   23.9390 N   0  0  0  0  0  0
  -24.6779  -31.0664   22.1098 N   0  0  0  0  0  0
  -23.4204  -28.8158   23.3115 O   0  0  0  0  0  0
  -28.3268  -26.5672   20.0453 O   0  0  0  0  0  0
  -26.5653  -34.8957   22.4679 O   0  0  0  0  0  0
  -23.5364  -32.1486   23.7456 O   0  0  0  0  0  0
  -29.0439  -23.1921   20.7658 C   0  0  0  0  0  0
  -27.4968  -21.5432   21.5921 C   0  0  0  0  0  0
  -28.1491  -24.2291   21.1702 C   0  0  0  0  0  0
  -28.7288  -21.8105   20.9649 C   0  0  0  0  0  0
  -26.9114  -23.8026   21.7279 C   0  0  0  0  0  0
  -23.4899  -23.6330   21.8308 C   0  0  0  0  0  0
  -28.6157  -25.7184   21.1806 C   0  0  0  0  0  0
  -25.8093  -24.7506   22.1987 C   0  0  0  0  0  0
  -24.5099  -24.6828   21.3596 C   0  0  0  0  0  0
  -29.5365  -18.1661   20.8828 C   0  0  0  0  0  0
  -29.9077  -19.6033   21.4146 C   0  0  0  0  0  0
  -30.3695  -16.9741   21.4988 C   0  0  0  0  0  0
  -26.6168  -22.5012   21.9444 N   0  0  0  0  0  0
  -29.5719  -20.7494   20.5318 N   0  0  0  0  0  0
  -29.9391  -15.5886   21.1391 N   0  0  0  0  0  0
  -31.4715  -12.5086   19.1216 H   0  0  0  0  0  0
  -30.3697  -11.3727   19.8481 H   0  0  0  0  0  0
  -29.7511  -11.7779   17.4499 H   0  0  0  0  0  0
  -29.6355  -13.4928   17.7468 H   0  0  0  0  0  0
  -27.8718  -11.2916   18.8694 H   0  0  0  0  0  0
  -27.3606  -12.5648   17.7957 H   0  0  0  0  0  0
  -27.6838  -14.2507   19.5294 H   0  0  0  0  0  0
  -28.6979  -12.0219   21.3670 H   0  0  0  0  0  0
  -28.4386  -13.6718   21.8476 H   0  0  0  0  0  0
  -25.2794   -9.5666   22.4752 H   0  0  0  0  0  0
  -24.0029   -7.4627   22.7447 H   0  0  0  0  0  0
  -21.0887   -8.8788   19.8933 H   0  0  0  0  0  0
  -22.3745  -10.9681   19.6159 H   0  0  0  0  0  0
  -21.1986   -7.6151   23.9728 H   0  0  0  0  0  0
  -21.1482   -6.0523   25.9086 H   0  0  0  0  0  0
  -22.0595   -2.7615   23.2848 H   0  0  0  0  0  0
  -22.4180  -11.9809   22.4773 H   0  0  0  0  0  0
  -21.1133  -13.1135   22.2654 H   0  0  0  0  0  0
  -24.6520  -15.8340   20.5165 H   0  0  0  0  0  0
  -26.2673  -15.6321   20.0671 H   0  0  0  0  0  0
  -26.7100  -32.5565   23.1105 H   0  0  0  0  0  0
  -25.0092  -33.9797   25.0450 H   0  0  0  0  0  0
  -22.6985  -31.3054   21.4242 H   0  0  0  0  0  0
  -23.3814  -35.9546   23.3329 H   0  0  0  0  0  0
  -24.3567  -36.8888   22.2049 H   0  0  0  0  0  0
  -23.7213  -37.6430   23.6689 H   0  0  0  0  0  0
  -26.0684  -31.5663   20.6111 H   0  0  0  0  0  0
  -26.8263  -30.8579   22.0074 H   0  0  0  0  0  0
  -28.0999  -29.0192   21.2117 H   0  0  0  0  0  0
  -26.0342  -25.9598   18.9917 H   0  0  0  0  0  0
  -23.9527  -27.3073   19.0448 H   0  0  0  0  0  0
  -23.7313  -30.6056   19.4263 H   0  0  0  0  0  0
  -22.7370  -29.2527   19.8820 H   0  0  0  0  0  0
  -25.1313  -36.1966   25.0794 H   0  0  0  0  0  0
  -20.9962  -28.3226   24.1473 H   0  0  0  0  0  0
  -20.5831  -26.2197   23.3601 H   0  0  0  0  0  0
  -21.6672  -26.7491   22.1156 H   0  0  0  0  0  0
  -19.6982  -25.6254   21.1286 H   0  0  0  0  0  0
  -19.6809  -27.3170   20.6780 H   0  0  0  0  0  0
  -17.4249  -26.6744   21.3984 H   0  0  0  0  0  0
  -18.0287  -26.0056   22.8978 H   0  0  0  0  0  0
  -19.7968  -30.7218   24.2339 H   0  0  0  0  0  0
  -17.5061  -31.6319   24.5088 H   0  0  0  0  0  0
  -15.5379  -30.2981   23.7704 H   0  0  0  0  0  0
  -15.8679  -28.0804   22.7143 H   0  0  0  0  0  0
  -24.5980  -30.7010   25.7712 H   0  0  0  0  0  0
  -24.8699  -32.2887   26.4769 H   0  0  0  0  0  0
  -25.7948  -30.9041   27.0313 H   0  0  0  0  0  0
  -26.2963  -29.6806   24.1294 H   0  0  0  0  0  0
  -27.4243  -29.7501   25.4652 H   0  0  0  0  0  0
  -27.8725  -30.4479   23.9285 H   0  0  0  0  0  0
  -27.2899  -33.3785   26.1979 H   0  0  0  0  0  0
  -28.3938  -32.6807   25.0243 H   0  0  0  0  0  0
  -28.0794  -31.8554   26.5403 H   0  0  0  0  0  0
  -28.2618  -38.0069   24.7583 H   0  0  0  0  0  0
  -28.1131  -36.2603   24.6256 H   0  0  0  0  0  0
  -27.2303  -37.1337   25.8863 H   0  0  0  0  0  0
  -20.9378  -29.8606   21.6860 H   0  0  0  0  0  0
  -26.0238  -38.2850   24.1484 H   0  0  0  0  0  0
  -29.9985  -23.4659   20.3384 H   0  0  0  0  0  0
  -27.1830  -20.5282   21.7925 H   0  0  0  0  0  0
  -22.5780  -23.6815   21.2356 H   0  0  0  0  0  0
  -23.2092  -23.7937   22.8732 H   0  0  0  0  0  0
  -23.8881  -22.6221   21.7381 H   0  0  0  0  0  0
  -29.7029  -25.7135   21.2692 H   0  0  0  0  0  0
  -28.2931  -26.1975   22.1045 H   0  0  0  0  0  0
  -26.1670  -25.7764   22.1976 H   0  0  0  0  0  0
  -25.5854  -24.5323   23.2420 H   0  0  0  0  0  0
  -24.0097  -25.6489   21.4240 H   0  0  0  0  0  0
  -24.7383  -24.5367   20.3033 H   0  0  0  0  0  0
  -29.6627  -18.1372   19.7990 H   0  0  0  0  0  0
  -28.4753  -18.0000   21.0723 H   0  0  0  0  0  0
  -30.9905  -19.6441   21.5507 H   0  0  0  0  0  0
  -29.4853  -19.7510   22.4104 H   0  0  0  0  0  0
  -30.3286  -17.0462   22.5891 H   0  0  0  0  0  0
  -31.4201  -17.1109   21.2417 H   0  0  0  0  0  0
  -30.3172  -21.0201   19.8915 H   0  0  0  0  0  0
  -29.0057  -15.3325   21.4258 H   0  0  0  0  0  0
  1 25  1  0  0  0
  1 30  2  0  0  0
  1 85  1  0  0  0
  2  3  1  0  0  0
  2 25  1  0  0  0
  2 86  1  0  0  0
  2 87  1  0  0  0
  3  4  1  0  0  0
  3 88  1  0  0  0
  3 89  1  0  0  0
  4  5  1  0  0  0
  4 90  1  0  0  0
  4 91  1  0  0  0
  5  6  1  0  0  0
  5 26  1  0  0  0
  5 92  1  0  0  0
  6 25  1  0  0  0
  6 93  1  0  0  0
  6 94  1  0  0  0
  7  8  2  0  0  0
  7 26  1  0  0  0
  7 29  1  0  0  0
  8  9  1  0  0  0
  8 22  1  0  0  0
  9 10  1  0  0  0
  9 27  2  0  0  0
 10 11  2  0  0  0
 10 15  1  0  0  0
 11 12  1  0  0  0
 11 95  1  0  0  0
 12 13  2  0  0  0
 12 96  1  0  0  0
 13 14  1  0  0  0
 13 31  1  0  0  0
 14 15  2  0  0  0
 14 97  1  0  0  0
 15 98  1  0  0  0
 16 17  2  0  0  0
 16 21  1  0  0  0
 16 31  1  0  0  0
 17 18  1  0  0  0
 17 99  1  0  0  0
 18 19  2  0  0  0
 18100  1  0  0  0
 19 20  1  0  0  0
 19 24  1  0  0  0
 20 21  2  0  0  0
 20101  1  0  0  0
 21 23  1  0  0  0
 22 28  1  0  0  0
 22 32  2  0  0  0
 26 27  1  0  0  0
 28102  1  0  0  0
 28103  1  0  0  0
 29104  1  0  0  0
 29105  1  0  0  0
 33 34  1  0  0  0
 33 66  1  0  0  0
 33 70  2  0  0  0
 34 36  1  0  0  0
 34 59  1  0  0  0
 34106  1  0  0  0
 35 44  2  0  0  0
 35 45  1  0  0  0
 35 68  1  0  0  0
 36 56  1  0  0  0
 36107  1  0  0  0
 37 39  1  0  0  0
 37 47  1  0  0  0
 37 66  1  0  0  0
 37108  1  0  0  0
 38 43  2  0  0  0
 38 46  1  0  0  0
 38 47  1  0  0  0
 39 64  1  0  0  0
 39 67  2  0  0  0
 40 52  1  0  0  0
 40 53  2  0  0  0
 40 58  1  0  0  0
 41109  1  0  0  0
 41110  1  0  0  0
 41111  1  0  0  0
 41 48  1  0  0  0
 42 43  1  0  0  0
 42 66  1  0  0  0
 42112  1  0  0  0
 42113  1  0  0  0
 43 44  1  0  0  0
 44114  1  0  0  0
 45 46  2  0  0  0
 45115  1  0  0  0
 46116  1  0  0  0
 47117  1  0  0  0
 47118  1  0  0  0
 48 56  1  0  0  0
 48 65  1  0  0  0
 48119  1  0  0  0
 49 50  1  0  0  0
 49 53  1  0  0  0
 49 64  1  0  0  0
 49120  1  0  0  0
 50 51  1  0  0  0
 50121  1  0  0  0
 50122  1  0  0  0
 51 52  1  0  0  0
 51123  1  0  0  0
 51124  1  0  0  0
 52125  1  0  0  0
 52126  1  0  0  0
 53 54  1  0  0  0
 54 55  2  0  0  0
 54127  1  0  0  0
 55 57  1  0  0  0
 55128  1  0  0  0
 56 69  2  0  0  0
 57 58  2  0  0  0
 57129  1  0  0  0
 58130  1  0  0  0
 59 60  1  0  0  0
 59 61  1  0  0  0
 59 62  1  0  0  0
 60131  1  0  0  0
 60132  1  0  0  0
 60133  1  0  0  0
 61134  1  0  0  0
 61135  1  0  0  0
 61136  1  0  0  0
 62137  1  0  0  0
 62138  1  0  0  0
 62139  1  0  0  0
 63 65  1  0  0  0
 63140  1  0  0  0
 63141  1  0  0  0
 63142  1  0  0  0
 64143  1  0  0  0
 65144  1  0  0  0
 68 77  1  0  0  0
 71 73  2  0  0  0
 71 74  1  0  0  0
 71145  1  0  0  0
 72 74  2  0  0  0
 72 83  1  0  0  0
 72146  1  0  0  0
 73 75  1  0  0  0
 73 77  1  0  0  0
 74 84  1  0  0  0
 75 78  1  0  0  0
 75 83  2  0  0  0
 76 79  1  0  0  0
 76147  1  0  0  0
 76148  1  0  0  0
 76149  1  0  0  0
 77150  1  0  0  0
 77151  1  0  0  0
 78 79  1  0  0  0
 78152  1  0  0  0
 78153  1  0  0  0
 79154  1  0  0  0
 79155  1  0  0  0
 80 81  1  0  0  0
 80 82  1  0  0  0
 80156  1  0  0  0
 80157  1  0  0  0
 81 84  1  0  0  0
 81158  1  0  0  0
 81159  1  0  0  0
 82 85  1  0  0  0
 82160  1  0  0  0
 82161  1  0  0  0
 84162  1  0  0  0
 85163  1  0  0  0
M  ISO  4   1 100  68 101  77 101  85 100
M  END
> <chiral flag>
0

> <version>
0

> <s_m_source_file>
/data/baiqing/PycharmProjects/Reinvent-master-3.2/result/LINK_invent/BTK/process_docking_weight1_custom_sum_contain_oxygen_bond_distance_aromatic_linkinvent_7_9_3/rearranged_h_0132.sdf

> <i_m_source_file_index>
62

> <r_mmod_Potential_Energy-OPLS-2005>
-46.7578430175781

> <r_mmod_Stretch_Energy-OPLS-2005>
56.3137168884277

> <r_mmod_Bend_Energy-OPLS-2005>
125.619049072266

> <r_mmod_Torsional_Energy-OPLS-2005>
242.597930908203

> <r_mmod_Improper_Torsional_Energy-OPLS-2005>
6.39169979095459

> <r_mmod_Van_der_Waal_Energy-OPLS-2005>
131.431198120117

> <r_mmod_Electrostatic_Energy-OPLS-2005>
-410.686676025391

> <r_mmod_Solvation_Energy-OPLS-2005>
-227.166625976562

> <b_mmod_Minimization_Converged-OPLS-2005>
0

> <r_mmod_RMS_Derivative-OPLS-2005>
4.66949653625488

$$$$
64
                    3D
 Structure written by MMmdl.
161169  0  0  1  0            999 V2000
  -30.6347  -14.6850   20.5003 C   0  0  0  0  0  0
  -30.4384  -12.4308   19.4535 C   0  0  0  0  0  0
  -29.5043  -12.4963   18.2257 C   0  0  0  0  0  0
  -28.0302  -12.3259   18.6455 C   0  0  0  0  0  0
  -27.6447  -13.2224   19.8520 C   0  0  2  0  0  0
  -28.6912  -13.1336   20.9857 C   0  0  0  0  0  0
  -25.2564  -13.8215   20.5707 C   0  0  0  0  0  0
  -24.1826  -13.0462   20.9221 C   0  0  0  0  0  0
  -24.6366  -11.6942   20.8729 C   0  0  0  0  0  0
  -23.9026  -10.4310   21.0357 C   0  0  0  0  0  0
  -24.3606   -9.4244   21.9131 C   0  0  0  0  0  0
  -23.6306   -8.2268   22.0715 C   0  0  0  0  0  0
  -22.4281   -8.0278   21.3529 C   0  0  0  0  0  0
  -21.9891   -9.0229   20.4625 C   0  0  0  0  0  0
  -22.7188  -10.2130   20.3017 C   0  0  0  0  0  0
  -21.6869   -6.0721   22.5266 C   0  0  0  0  0  0
  -21.4013   -6.5624   23.8193 C   0  0  0  0  0  0
  -21.3657   -5.6779   24.9154 C   0  0  0  0  0  0
  -21.6052   -4.3042   24.7202 C   0  0  0  0  0  0
  -21.8825   -3.8129   23.4322 C   0  0  0  0  0  0
  -21.9218   -4.6949   22.3380 C   0  0  0  0  0  0
  -22.7857  -13.5263   21.1884 C   0  0  0  0  0  0
  -22.1696   -4.2142   21.0952 F   0  0  0  0  0  0
  -21.5650   -3.4520   25.7713 F   0  0  0  0  0  0
  -29.9955  -13.4737   20.4037 N   0  0  0  0  0  0
  -26.2949  -12.9381   20.3292 N   0  0  0  0  0  0
  -25.9298  -11.6537   20.5755 N   0  0  0  0  0  0
  -22.0485  -12.8224   22.0426 N   0  0  0  0  0  0
  -25.4310  -15.1915   20.4090 N   0  0  0  0  0  0
  -31.8205  -14.7962   20.1838 O   0  0  0  0  0  0
  -21.6682   -6.8852   21.4223 O   0  0  0  0  0  0
  -22.3529  -14.5528   20.6705 O   0  0  0  0  0  0
  -24.6284  -31.8560   23.2011 C   0  0  0  0  0  0
  -25.9135  -32.4768   23.8324 C   0  0  1  0  0  0
  -27.2205  -27.3022   20.1202 C   0  0  0  0  0  0
  -25.5929  -33.8560   24.2283 N   0  0  0  0  0  0
  -23.4203  -30.4792   21.5437 C   0  0  2  0  0  0
  -24.8682  -28.9380   20.1078 C   0  0  0  0  0  0
  -22.7477  -29.4587   22.4931 C   0  0  0  0  0  0
  -18.0269  -28.1330   22.8502 C   0  0  0  0  0  0
  -24.1486  -36.7291   23.2640 C   0  0  0  0  0  0
  -25.9635  -30.7898   21.3684 C   0  0  0  0  0  0
  -26.0394  -29.4133   20.7140 C   0  0  0  0  0  0
  -27.2213  -28.6078   20.7069 C   0  0  0  0  0  0
  -26.0351  -26.8982   19.4679 C   0  0  0  0  0  0
  -24.8715  -27.6906   19.4659 C   0  0  0  0  0  0
  -23.6352  -29.8175   20.1585 C   0  0  0  0  0  0
  -25.4104  -36.3075   24.0350 C   0  0  1  0  0  0
  -20.5879  -28.3636   23.1305 C   0  0  2  0  0  0
  -20.6763  -26.9365   22.5407 C   0  0  0  0  0  0
  -19.5734  -26.6352   21.5203 C   0  0  0  0  0  0
  -18.1912  -26.7878   22.1621 C   0  0  0  0  0  0
  -19.1526  -28.8799   23.2894 C   0  0  0  0  0  0
  -18.9451  -30.1399   23.8910 C   0  0  0  0  0  0
  -17.6455  -30.6549   24.0545 C   0  0  0  0  0  0
  -25.9039  -34.9448   23.5119 C   0  0  0  0  0  0
  -16.5342  -29.9048   23.6319 C   0  0  0  0  0  0
  -16.7261  -28.6448   23.0378 C   0  0  0  0  0  0
  -26.4525  -31.6555   25.0673 C   0  0  0  0  0  0
  -25.3816  -31.3656   26.1437 C   0  0  0  0  0  0
  -27.0371  -30.2996   24.6082 C   0  0  0  0  0  0
  -27.6076  -32.4271   25.7450 C   0  0  0  0  0  0
  -27.5576  -37.1797   24.8477 C   0  0  0  0  0  0
  -21.4185  -29.3008   22.3713 N   0  0  0  0  0  0
  -26.4283  -37.3776   23.9420 N   0  0  0  0  0  0
  -24.6899  -31.0569   22.0962 N   0  0  0  0  0  0
  -23.4213  -28.8137   23.3013 O   0  0  0  0  0  0
  -28.3232  -26.4267   20.1552 O   0  0  0  0  0  0
  -26.5591  -34.8926   22.4673 O   0  0  0  0  0  0
  -23.5441  -32.1339   23.7345 O   0  0  0  0  0  0
  -30.0074  -21.0511   18.7957 C   0  0  0  0  0  0
  -31.4898  -21.4155   18.6325 C   0  0  0  0  0  0
  -31.1529  -21.3091   20.9364 C   0  0  0  0  0  0
  -29.7433  -21.0899   20.3233 C   0  0  1  0  0  0
  -28.7816  -22.3393   20.6915 C   0  0  0  0  0  0
  -29.0867  -23.8354   20.1573 C   0  0  0  0  0  0
  -30.2722  -17.2514   20.9466 C   0  0  0  0  0  0
  -29.2925  -18.3640   20.3344 C   0  0  0  0  0  0
  -28.0687  -25.0073   20.5456 C   0  0  0  0  0  0
  -29.8692  -15.7972   20.7788 N   0  0  0  0  0  0
  -29.2508  -19.7716   20.8914 N   0  0  0  0  0  0
  -32.1119  -20.9688   19.8803 N   0  3  0  0  0  0
  -31.4743  -12.5736   19.1381 H   0  0  0  0  0  0
  -30.3996  -11.4461   19.9204 H   0  0  0  0  0  0
  -29.7747  -11.7235   17.5050 H   0  0  0  0  0  0
  -29.6374  -13.4550   17.7193 H   0  0  0  0  0  0
  -27.8775  -11.2767   18.9026 H   0  0  0  0  0  0
  -27.3720  -12.5274   17.7978 H   0  0  0  0  0  0
  -27.6497  -14.2475   19.4803 H   0  0  0  0  0  0
  -28.7204  -12.1320   21.4147 H   0  0  0  0  0  0
  -28.4327  -13.8107   21.8028 H   0  0  0  0  0  0
  -25.2732   -9.5801   22.4715 H   0  0  0  0  0  0
  -24.0069   -7.4670   22.7410 H   0  0  0  0  0  0
  -21.0838   -8.8678   19.8926 H   0  0  0  0  0  0
  -22.3561  -10.9659   19.6154 H   0  0  0  0  0  0
  -21.1967   -7.6120   23.9688 H   0  0  0  0  0  0
  -21.1507   -6.0499   25.9065 H   0  0  0  0  0  0
  -22.0612   -2.7589   23.2806 H   0  0  0  0  0  0
  -22.4135  -11.9922   22.4860 H   0  0  0  0  0  0
  -21.1065  -13.1209   22.2570 H   0  0  0  0  0  0
  -24.6673  -15.8489   20.5103 H   0  0  0  0  0  0
  -26.2719  -15.6199   20.0451 H   0  0  0  0  0  0
  -26.7211  -32.5468   23.1068 H   0  0  0  0  0  0
  -25.0164  -33.9676   25.0494 H   0  0  0  0  0  0
  -22.7152  -31.3004   21.4005 H   0  0  0  0  0  0
  -23.3749  -35.9625   23.3287 H   0  0  0  0  0  0
  -24.3597  -36.8899   22.2054 H   0  0  0  0  0  0
  -23.7234  -37.6499   23.6653 H   0  0  0  0  0  0
  -26.0850  -31.5520   20.5959 H   0  0  0  0  0  0
  -26.8490  -30.8472   21.9909 H   0  0  0  0  0  0
  -28.1250  -28.9620   21.1831 H   0  0  0  0  0  0
  -25.9872  -25.9539   18.9456 H   0  0  0  0  0  0
  -23.9880  -27.3345   18.9532 H   0  0  0  0  0  0
  -23.7436  -30.5923   19.3976 H   0  0  0  0  0  0
  -22.7569  -29.2400   19.8603 H   0  0  0  0  0  0
  -25.1272  -36.1925   25.0845 H   0  0  0  0  0  0
  -20.9970  -28.3174   24.1426 H   0  0  0  0  0  0
  -20.5636  -26.2233   23.3585 H   0  0  0  0  0  0
  -21.6635  -26.7369   22.1210 H   0  0  0  0  0  0
  -19.6900  -25.6265   21.1201 H   0  0  0  0  0  0
  -19.6678  -27.3196   20.6757 H   0  0  0  0  0  0
  -17.4188  -26.6639   21.4008 H   0  0  0  0  0  0
  -18.0309  -25.9979   22.8976 H   0  0  0  0  0  0
  -19.7929  -30.7190   24.2315 H   0  0  0  0  0  0
  -17.5010  -31.6249   24.5103 H   0  0  0  0  0  0
  -15.5344  -30.2962   23.7613 H   0  0  0  0  0  0
  -15.8653  -28.0745   22.7149 H   0  0  0  0  0  0
  -24.6006  -30.6958   25.7800 H   0  0  0  0  0  0
  -24.9011  -32.2814   26.4882 H   0  0  0  0  0  0
  -25.8211  -30.8848   27.0190 H   0  0  0  0  0  0
  -26.2921  -29.6702   24.1204 H   0  0  0  0  0  0
  -27.4208  -29.7247   25.4515 H   0  0  0  0  0  0
  -27.8717  -30.4263   23.9190 H   0  0  0  0  0  0
  -27.2681  -33.3565   26.2018 H   0  0  0  0  0  0
  -28.3910  -32.6821   25.0306 H   0  0  0  0  0  0
  -28.0738  -31.8412   26.5376 H   0  0  0  0  0  0
  -28.2601  -38.0088   24.7516 H   0  0  0  0  0  0
  -28.1049  -36.2615   24.6292 H   0  0  0  0  0  0
  -27.2299  -37.1443   25.8885 H   0  0  0  0  0  0
  -20.9341  -29.8790   21.6993 H   0  0  0  0  0  0
  -26.0160  -38.2849   24.1420 H   0  0  0  0  0  0
  -29.8298  -20.0810   18.3458 H   0  0  0  0  0  0
  -29.3712  -21.7359   18.2384 H   0  0  0  0  0  0
  -31.6134  -22.4997   18.5692 H   0  0  0  0  0  0
  -31.9567  -20.9785   17.7499 H   0  0  0  0  0  0
  -31.3333  -20.7414   21.8499 H   0  0  0  0  0  0
  -31.3070  -22.3565   21.1969 H   0  0  0  0  0  0
  -28.6996  -22.3905   21.7783 H   0  0  0  0  0  0
  -27.7757  -22.0859   20.3544 H   0  0  0  0  0  0
  -29.1217  -23.8127   19.0694 H   0  0  0  0  0  0
  -30.0850  -24.1397   20.4737 H   0  0  0  0  0  0
  -31.2755  -17.3958   20.5418 H   0  0  0  0  0  0
  -30.3744  -17.4214   22.0185 H   0  0  0  0  0  0
  -29.3475  -18.3354   19.2508 H   0  0  0  0  0  0
  -28.2884  -17.9941   20.5463 H   0  0  0  0  0  0
  -27.9695  -25.0074   21.6306 H   0  0  0  0  0  0
  -27.0998  -24.6751   20.1795 H   0  0  0  0  0  0
  -28.8902  -15.6028   20.9311 H   0  0  0  0  0  0
  -29.2740  -19.7701   21.9078 H   0  0  0  0  0  0
  -33.0061  -21.4031   20.0355 H   0  0  0  0  0  0
  -32.2292  -19.9698   19.8483 H   0  0  0  0  0  0
  1 25  1  0  0  0
  1 30  2  0  0  0
  1 80  1  0  0  0
  2  3  1  0  0  0
  2 25  1  0  0  0
  2 83  1  0  0  0
  2 84  1  0  0  0
  3  4  1  0  0  0
  3 85  1  0  0  0
  3 86  1  0  0  0
  4  5  1  0  0  0
  4 87  1  0  0  0
  4 88  1  0  0  0
  5  6  1  0  0  0
  5 26  1  0  0  0
  5 89  1  0  0  0
  6 25  1  0  0  0
  6 90  1  0  0  0
  6 91  1  0  0  0
  7  8  2  0  0  0
  7 26  1  0  0  0
  7 29  1  0  0  0
  8  9  1  0  0  0
  8 22  1  0  0  0
  9 10  1  0  0  0
  9 27  2  0  0  0
 10 11  2  0  0  0
 10 15  1  0  0  0
 11 12  1  0  0  0
 11 92  1  0  0  0
 12 13  2  0  0  0
 12 93  1  0  0  0
 13 14  1  0  0  0
 13 31  1  0  0  0
 14 15  2  0  0  0
 14 94  1  0  0  0
 15 95  1  0  0  0
 16 17  2  0  0  0
 16 21  1  0  0  0
 16 31  1  0  0  0
 17 18  1  0  0  0
 17 96  1  0  0  0
 18 19  2  0  0  0
 18 97  1  0  0  0
 19 20  1  0  0  0
 19 24  1  0  0  0
 20 21  2  0  0  0
 20 98  1  0  0  0
 21 23  1  0  0  0
 22 28  1  0  0  0
 22 32  2  0  0  0
 26 27  1  0  0  0
 28 99  1  0  0  0
 28100  1  0  0  0
 29101  1  0  0  0
 29102  1  0  0  0
 33 34  1  0  0  0
 33 66  1  0  0  0
 33 70  2  0  0  0
 34 36  1  0  0  0
 34 59  1  0  0  0
 34103  1  0  0  0
 35 44  2  0  0  0
 35 45  1  0  0  0
 35 68  1  0  0  0
 36 56  1  0  0  0
 36104  1  0  0  0
 37 39  1  0  0  0
 37 47  1  0  0  0
 37 66  1  0  0  0
 37105  1  0  0  0
 38 43  2  0  0  0
 38 46  1  0  0  0
 38 47  1  0  0  0
 39 64  1  0  0  0
 39 67  2  0  0  0
 40 52  1  0  0  0
 40 53  2  0  0  0
 40 58  1  0  0  0
 41106  1  0  0  0
 41107  1  0  0  0
 41108  1  0  0  0
 41 48  1  0  0  0
 42 43  1  0  0  0
 42 66  1  0  0  0
 42109  1  0  0  0
 42110  1  0  0  0
 43 44  1  0  0  0
 44111  1  0  0  0
 45 46  2  0  0  0
 45112  1  0  0  0
 46113  1  0  0  0
 47114  1  0  0  0
 47115  1  0  0  0
 48 56  1  0  0  0
 48 65  1  0  0  0
 48116  1  0  0  0
 49 50  1  0  0  0
 49 53  1  0  0  0
 49 64  1  0  0  0
 49117  1  0  0  0
 50 51  1  0  0  0
 50118  1  0  0  0
 50119  1  0  0  0
 51 52  1  0  0  0
 51120  1  0  0  0
 51121  1  0  0  0
 52122  1  0  0  0
 52123  1  0  0  0
 53 54  1  0  0  0
 54 55  2  0  0  0
 54124  1  0  0  0
 55 57  1  0  0  0
 55125  1  0  0  0
 56 69  2  0  0  0
 57 58  2  0  0  0
 57126  1  0  0  0
 58127  1  0  0  0
 59 60  1  0  0  0
 59 61  1  0  0  0
 59 62  1  0  0  0
 60128  1  0  0  0
 60129  1  0  0  0
 60130  1  0  0  0
 61131  1  0  0  0
 61132  1  0  0  0
 61133  1  0  0  0
 62134  1  0  0  0
 62135  1  0  0  0
 62136  1  0  0  0
 63 65  1  0  0  0
 63137  1  0  0  0
 63138  1  0  0  0
 63139  1  0  0  0
 64140  1  0  0  0
 65141  1  0  0  0
 68 79  1  0  0  0
 71 72  1  0  0  0
 71 74  1  0  0  0
 71142  1  0  0  0
 71143  1  0  0  0
 72 82  1  0  0  0
 72144  1  0  0  0
 72145  1  0  0  0
 73 74  1  0  0  0
 73 82  1  0  0  0
 73146  1  0  0  0
 73147  1  0  0  0
 74 75  1  0  0  0
 74 81  1  0  0  0
 75 76  1  0  0  0
 75148  1  0  0  0
 75149  1  0  0  0
 76 79  1  0  0  0
 76150  1  0  0  0
 76151  1  0  0  0
 77 78  1  0  0  0
 77 80  1  0  0  0
 77152  1  0  0  0
 77153  1  0  0  0
 78 81  1  0  0  0
 78154  1  0  0  0
 78155  1  0  0  0
 79156  1  0  0  0
 79157  1  0  0  0
 80158  1  0  0  0
 81159  1  0  0  0
 82160  1  0  0  0
 82161  1  0  0  0
M  CHG  1  82   1
M  ISO  4   1 100  68 101  79 101  80 100
M  END
> <chiral flag>
0

> <version>
0

> <s_m_source_file>
/data/baiqing/PycharmProjects/Reinvent-master-3.2/result/LINK_invent/BTK/process_docking_weight1_custom_sum_contain_oxygen_bond_distance_aromatic_linkinvent_7_9_3/rearranged_h_0132.sdf

> <i_m_source_file_index>
63

> <r_mmod_Potential_Energy-OPLS-2005>
-28.3899631500244

> <r_mmod_Stretch_Energy-OPLS-2005>
105.711273193359

> <r_mmod_Bend_Energy-OPLS-2005>
210.180511474609

> <r_mmod_Torsional_Energy-OPLS-2005>
289.123901367188

> <r_mmod_Improper_Torsional_Energy-OPLS-2005>
3.82249522209167

> <r_mmod_Van_der_Waal_Energy-OPLS-2005>
124.109016418457

> <r_mmod_Electrostatic_Energy-OPLS-2005>
-352.749847412109

> <r_mmod_Solvation_Energy-OPLS-2005>
-471.444854736328

> <b_mmod_Minimization_Converged-OPLS-2005>
0

> <r_mmod_RMS_Derivative-OPLS-2005>
4.63875102996826

$$$$
65
                    3D
 Structure written by MMmdl.
167177  0  0  1  0            999 V2000
  -30.6359  -14.5337   20.5230 C   0  0  0  0  0  0
  -30.4262  -12.3296   19.4325 C   0  0  0  0  0  0
  -29.4964  -12.5061   18.2122 C   0  0  0  0  0  0
  -28.0159  -12.3595   18.6218 C   0  0  0  0  0  0
  -27.6554  -13.2039   19.8737 C   0  0  2  0  0  0
  -28.6974  -13.0001   20.9978 C   0  0  0  0  0  0
  -25.2562  -13.8169   20.5678 C   0  0  0  0  0  0
  -24.1809  -13.0446   20.9176 C   0  0  0  0  0  0
  -24.6358  -11.6910   20.8730 C   0  0  0  0  0  0
  -23.9023  -10.4293   21.0396 C   0  0  0  0  0  0
  -24.3591   -9.4221   21.9183 C   0  0  0  0  0  0
  -23.6277   -8.2251   22.0762 C   0  0  0  0  0  0
  -22.4264   -8.0280   21.3545 C   0  0  0  0  0  0
  -21.9888   -9.0242   20.4646 C   0  0  0  0  0  0
  -22.7199  -10.2126   20.3048 C   0  0  0  0  0  0
  -21.6854   -6.0729   22.5271 C   0  0  0  0  0  0
  -21.4016   -6.5633   23.8209 C   0  0  0  0  0  0
  -21.3668   -5.6791   24.9171 C   0  0  0  0  0  0
  -21.6045   -4.3053   24.7227 C   0  0  0  0  0  0
  -21.8818   -3.8142   23.4346 C   0  0  0  0  0  0
  -21.9194   -4.6954   22.3398 C   0  0  0  0  0  0
  -22.7836  -13.5250   21.1847 C   0  0  0  0  0  0
  -22.1659   -4.2139   21.0975 F   0  0  0  0  0  0
  -21.5635   -3.4543   25.7745 F   0  0  0  0  0  0
  -30.0213  -13.3214   20.4404 N   0  0  0  0  0  0
  -26.2979  -12.9314   20.3357 N   0  0  0  0  0  0
  -25.9282  -11.6477   20.5765 N   0  0  0  0  0  0
  -22.0481  -12.8229   22.0397 N   0  0  0  0  0  0
  -25.4309  -15.1893   20.4091 N   0  0  0  0  0  0
  -31.7850  -14.7300   20.1153 O   0  0  0  0  0  0
  -21.6637   -6.8869   21.4233 O   0  0  0  0  0  0
  -22.3518  -14.5566   20.6729 O   0  0  0  0  0  0
  -24.6192  -31.8653   23.2078 C   0  0  0  0  0  0
  -25.9066  -32.4814   23.8394 C   0  0  1  0  0  0
  -27.2376  -27.4045   20.0897 C   0  0  0  0  0  0
  -25.5909  -33.8612   24.2323 N   0  0  0  0  0  0
  -23.4081  -30.4889   21.5477 C   0  0  2  0  0  0
  -24.8539  -28.9485   20.1133 C   0  0  0  0  0  0
  -22.7436  -29.4642   22.4961 C   0  0  0  0  0  0
  -18.0264  -28.1412   22.8503 C   0  0  0  0  0  0
  -24.1485  -36.7326   23.2635 C   0  0  0  0  0  0
  -25.9384  -30.8217   21.3608 C   0  0  0  0  0  0
  -26.0137  -29.4499   20.7149 C   0  0  0  0  0  0
  -27.2040  -28.6817   20.7054 C   0  0  0  0  0  0
  -26.0507  -26.9180   19.4945 C   0  0  0  0  0  0
  -24.8677  -27.6825   19.5035 C   0  0  0  0  0  0
  -23.6210  -29.8235   20.1608 C   0  0  0  0  0  0
  -25.4109  -36.3111   24.0329 C   0  0  1  0  0  0
  -20.5859  -28.3684   23.1323 C   0  0  2  0  0  0
  -20.6754  -26.9413   22.5423 C   0  0  0  0  0  0
  -19.5725  -26.6397   21.5229 C   0  0  0  0  0  0
  -18.1900  -26.7961   22.1632 C   0  0  0  0  0  0
  -19.1516  -28.8868   23.2907 C   0  0  0  0  0  0
  -18.9438  -30.1475   23.8917 C   0  0  0  0  0  0
  -17.6439  -30.6611   24.0577 C   0  0  0  0  0  0
  -25.9032  -34.9470   23.5119 C   0  0  0  0  0  0
  -16.5333  -29.9120   23.6331 C   0  0  0  0  0  0
  -16.7253  -28.6544   23.0345 C   0  0  0  0  0  0
  -26.4487  -31.6603   25.0733 C   0  0  0  0  0  0
  -25.3755  -31.3680   26.1480 C   0  0  0  0  0  0
  -27.0300  -30.3056   24.6078 C   0  0  0  0  0  0
  -27.6078  -32.4302   25.7503 C   0  0  0  0  0  0
  -27.5582  -37.1815   24.8448 C   0  0  0  0  0  0
  -21.4148  -29.3054   22.3736 N   0  0  0  0  0  0
  -26.4286  -37.3801   23.9410 N   0  0  0  0  0  0
  -24.6744  -31.0740   22.0981 N   0  0  0  0  0  0
  -23.4207  -28.8164   23.2986 O   0  0  0  0  0  0
  -28.4127  -26.6677   20.1151 O   0  0  0  0  0  0
  -26.5581  -34.8921   22.4675 O   0  0  0  0  0  0
  -23.5376  -32.1401   23.7469 O   0  0  0  0  0  0
  -29.3949  -22.2343   20.8255 C   0  0  0  0  0  0
  -29.3566  -23.6314   20.5854 C   0  0  0  0  0  0
  -27.7342  -23.2686   18.8360 C   0  0  0  0  0  0
  -28.6156  -21.3218   20.0665 C   0  0  0  0  0  0
  -27.7421  -21.8696   19.0796 C   0  0  0  0  0  0
  -28.5418  -24.1684   19.5654 C   0  0  0  0  0  0
  -25.4514  -21.4398   17.8455 C   0  0  0  0  0  0
  -25.6473  -20.2825   18.7922 C   0  0  0  0  0  0
  -29.2554  -19.3199   21.6651 C   0  0  0  0  0  0
  -29.5904  -19.0728   19.2102 C   0  0  0  0  0  0
  -29.2227  -17.7754   21.8266 C   0  0  0  0  0  0
  -29.5710  -17.5248   19.3443 C   0  0  0  0  0  0
  -28.7284  -19.7815   20.2829 C   0  0  2  0  0  0
  -26.8523  -21.0034   18.2261 C   0  0  0  0  0  0
  -30.0243  -17.0150   20.7380 C   0  0  2  0  0  0
  -28.6507  -25.6448   19.1243 C   0  0  0  0  0  0
  -29.8210  -15.5539   20.8798 N   0  0  0  0  0  0
  -31.4716  -12.4410   19.1381 H   0  0  0  0  0  0
  -30.3326  -11.3225   19.8404 H   0  0  0  0  0  0
  -29.7433  -11.7770   17.4394 H   0  0  0  0  0  0
  -29.6568  -13.4891   17.7661 H   0  0  0  0  0  0
  -27.8296  -11.3031   18.8197 H   0  0  0  0  0  0
  -27.3663  -12.6303   17.7880 H   0  0  0  0  0  0
  -27.6902  -14.2485   19.5647 H   0  0  0  0  0  0
  -28.6855  -11.9672   21.3484 H   0  0  0  0  0  0
  -28.4601  -13.6090   21.8721 H   0  0  0  0  0  0
  -25.2741   -9.5714   22.4750 H   0  0  0  0  0  0
  -24.0002   -7.4650   22.7483 H   0  0  0  0  0  0
  -21.0832   -8.8736   19.8948 H   0  0  0  0  0  0
  -22.3656  -10.9653   19.6152 H   0  0  0  0  0  0
  -21.2002   -7.6140   23.9706 H   0  0  0  0  0  0
  -21.1501   -6.0524   25.9075 H   0  0  0  0  0  0
  -22.0593   -2.7602   23.2851 H   0  0  0  0  0  0
  -22.4091  -11.9858   22.4725 H   0  0  0  0  0  0
  -21.1109  -13.1256   22.2649 H   0  0  0  0  0  0
  -24.6677  -15.8481   20.5191 H   0  0  0  0  0  0
  -26.2810  -15.6242   20.0737 H   0  0  0  0  0  0
  -26.7142  -32.5519   23.1164 H   0  0  0  0  0  0
  -25.0062  -33.9771   25.0471 H   0  0  0  0  0  0
  -22.6966  -31.3051   21.4059 H   0  0  0  0  0  0
  -23.3755  -35.9646   23.3256 H   0  0  0  0  0  0
  -24.3580  -36.8994   22.2057 H   0  0  0  0  0  0
  -23.7218  -37.6511   23.6678 H   0  0  0  0  0  0
  -26.0397  -31.5777   20.5812 H   0  0  0  0  0  0
  -26.8334  -30.8919   21.9663 H   0  0  0  0  0  0
  -28.0995  -29.0693   21.1704 H   0  0  0  0  0  0
  -26.0188  -25.9397   19.0375 H   0  0  0  0  0  0
  -23.9717  -27.2886   19.0439 H   0  0  0  0  0  0
  -23.7467  -30.6019   19.4077 H   0  0  0  0  0  0
  -22.7425  -29.2549   19.8516 H   0  0  0  0  0  0
  -25.1293  -36.1973   25.0821 H   0  0  0  0  0  0
  -20.9933  -28.3239   24.1450 H   0  0  0  0  0  0
  -20.5671  -26.2275   23.3606 H   0  0  0  0  0  0
  -21.6620  -26.7459   22.1202 H   0  0  0  0  0  0
  -19.6871  -25.6310   21.1252 H   0  0  0  0  0  0
  -19.6681  -27.3217   20.6769 H   0  0  0  0  0  0
  -17.4169  -26.6733   21.4028 H   0  0  0  0  0  0
  -18.0278  -26.0119   22.9031 H   0  0  0  0  0  0
  -19.7900  -30.7309   24.2286 H   0  0  0  0  0  0
  -17.4980  -31.6285   24.5188 H   0  0  0  0  0  0
  -15.5337  -30.3035   23.7638 H   0  0  0  0  0  0
  -15.8647  -28.0883   22.7041 H   0  0  0  0  0  0
  -24.5936  -30.7026   25.7804 H   0  0  0  0  0  0
  -24.8943  -32.2812   26.4989 H   0  0  0  0  0  0
  -25.8136  -30.8806   27.0196 H   0  0  0  0  0  0
  -26.2812  -29.6830   24.1165 H   0  0  0  0  0  0
  -27.4112  -29.7296   25.4517 H   0  0  0  0  0  0
  -27.8633  -30.4397   23.9177 H   0  0  0  0  0  0
  -27.2745  -33.3630   26.2065 H   0  0  0  0  0  0
  -28.3922  -32.6801   25.0345 H   0  0  0  0  0  0
  -28.0691  -31.8402   26.5431 H   0  0  0  0  0  0
  -28.2559  -38.0152   24.7549 H   0  0  0  0  0  0
  -28.1118  -36.2680   24.6218 H   0  0  0  0  0  0
  -27.2285  -37.1403   25.8842 H   0  0  0  0  0  0
  -20.9298  -29.8836   21.7019 H   0  0  0  0  0  0
  -26.0170  -38.2861   24.1476 H   0  0  0  0  0  0
  -30.0635  -21.8710   21.5918 H   0  0  0  0  0  0
  -29.9986  -24.2888   21.1550 H   0  0  0  0  0  0
  -27.1222  -23.6592   18.0352 H   0  0  0  0  0  0
  -25.0482  -22.3545   18.2757 H   0  0  0  0  0  0
  -25.0936  -21.2002   16.8456 H   0  0  0  0  0  0
  -25.4305  -19.2859   18.4111 H   0  0  0  0  0  0
  -25.3810  -20.4523   19.8338 H   0  0  0  0  0  0
  -30.2788  -19.6635   21.8146 H   0  0  0  0  0  0
  -28.6580  -19.7749   22.4554 H   0  0  0  0  0  0
  -29.2419  -19.3418   18.2139 H   0  0  0  0  0  0
  -30.6172  -19.4354   19.2722 H   0  0  0  0  0  0
  -28.1819  -17.4472   21.8093 H   0  0  0  0  0  0
  -29.6049  -17.5094   22.8129 H   0  0  0  0  0  0
  -30.2040  -17.0902   18.5698 H   0  0  0  0  0  0
  -28.5588  -17.1726   19.1378 H   0  0  0  0  0  0
  -27.7156  -19.3874   20.2085 H   0  0  0  0  0  0
  -27.4288  -20.5083   17.4476 H   0  0  0  0  0  0
  -31.0849  -17.2396   20.8657 H   0  0  0  0  0  0
  -28.0786  -25.8206   18.2127 H   0  0  0  0  0  0
  -29.6854  -25.7807   18.8090 H   0  0  0  0  0  0
  -28.9060  -15.2645   21.1909 H   0  0  0  0  0  0
  1 25  1  0  0  0
  1 30  2  0  0  0
  1 87  1  0  0  0
  2  3  1  0  0  0
  2 25  1  0  0  0
  2 88  1  0  0  0
  2 89  1  0  0  0
  3  4  1  0  0  0
  3 90  1  0  0  0
  3 91  1  0  0  0
  4  5  1  0  0  0
  4 92  1  0  0  0
  4 93  1  0  0  0
  5  6  1  0  0  0
  5 26  1  0  0  0
  5 94  1  0  0  0
  6 25  1  0  0  0
  6 95  1  0  0  0
  6 96  1  0  0  0
  7  8  2  0  0  0
  7 26  1  0  0  0
  7 29  1  0  0  0
  8  9  1  0  0  0
  8 22  1  0  0  0
  9 10  1  0  0  0
  9 27  2  0  0  0
 10 11  2  0  0  0
 10 15  1  0  0  0
 11 12  1  0  0  0
 11 97  1  0  0  0
 12 13  2  0  0  0
 12 98  1  0  0  0
 13 14  1  0  0  0
 13 31  1  0  0  0
 14 15  2  0  0  0
 14 99  1  0  0  0
 15100  1  0  0  0
 16 17  2  0  0  0
 16 21  1  0  0  0
 16 31  1  0  0  0
 17 18  1  0  0  0
 17101  1  0  0  0
 18 19  2  0  0  0
 18102  1  0  0  0
 19 20  1  0  0  0
 19 24  1  0  0  0
 20 21  2  0  0  0
 20103  1  0  0  0
 21 23  1  0  0  0
 22 28  1  0  0  0
 22 32  2  0  0  0
 26 27  1  0  0  0
 28104  1  0  0  0
 28105  1  0  0  0
 29106  1  0  0  0
 29107  1  0  0  0
 33 34  1  0  0  0
 33 66  1  0  0  0
 33 70  2  0  0  0
 34 36  1  0  0  0
 34 59  1  0  0  0
 34108  1  0  0  0
 35 44  2  0  0  0
 35 45  1  0  0  0
 35 68  1  0  0  0
 36 56  1  0  0  0
 36109  1  0  0  0
 37 39  1  0  0  0
 37 47  1  0  0  0
 37 66  1  0  0  0
 37110  1  0  0  0
 38 43  2  0  0  0
 38 46  1  0  0  0
 38 47  1  0  0  0
 39 64  1  0  0  0
 39 67  2  0  0  0
 40 52  1  0  0  0
 40 53  2  0  0  0
 40 58  1  0  0  0
 41111  1  0  0  0
 41112  1  0  0  0
 41113  1  0  0  0
 41 48  1  0  0  0
 42 43  1  0  0  0
 42 66  1  0  0  0
 42114  1  0  0  0
 42115  1  0  0  0
 43 44  1  0  0  0
 44116  1  0  0  0
 45 46  2  0  0  0
 45117  1  0  0  0
 46118  1  0  0  0
 47119  1  0  0  0
 47120  1  0  0  0
 48 56  1  0  0  0
 48 65  1  0  0  0
 48121  1  0  0  0
 49 50  1  0  0  0
 49 53  1  0  0  0
 49 64  1  0  0  0
 49122  1  0  0  0
 50 51  1  0  0  0
 50123  1  0  0  0
 50124  1  0  0  0
 51 52  1  0  0  0
 51125  1  0  0  0
 51126  1  0  0  0
 52127  1  0  0  0
 52128  1  0  0  0
 53 54  1  0  0  0
 54 55  2  0  0  0
 54129  1  0  0  0
 55 57  1  0  0  0
 55130  1  0  0  0
 56 69  2  0  0  0
 57 58  2  0  0  0
 57131  1  0  0  0
 58132  1  0  0  0
 59 60  1  0  0  0
 59 61  1  0  0  0
 59 62  1  0  0  0
 60133  1  0  0  0
 60134  1  0  0  0
 60135  1  0  0  0
 61136  1  0  0  0
 61137  1  0  0  0
 61138  1  0  0  0
 62139  1  0  0  0
 62140  1  0  0  0
 62141  1  0  0  0
 63 65  1  0  0  0
 63142  1  0  0  0
 63143  1  0  0  0
 63144  1  0  0  0
 64145  1  0  0  0
 65146  1  0  0  0
 68 86  1  0  0  0
 71 72  2  0  0  0
 71 74  1  0  0  0
 71147  1  0  0  0
 72 76  1  0  0  0
 72148  1  0  0  0
 73 75  1  0  0  0
 73 76  2  0  0  0
 73149  1  0  0  0
 74 75  2  0  0  0
 74 83  1  0  0  0
 75 84  1  0  0  0
 76 86  1  0  0  0
 77 78  1  0  0  0
 77 84  1  0  0  0
 77150  1  0  0  0
 77151  1  0  0  0
 78 84  1  0  0  0
 78152  1  0  0  0
 78153  1  0  0  0
 79 81  1  0  0  0
 79 83  1  0  0  0
 79154  1  0  0  0
 79155  1  0  0  0
 80 82  1  0  0  0
 80 83  1  0  0  0
 80156  1  0  0  0
 80157  1  0  0  0
 81 85  1  0  0  0
 81158  1  0  0  0
 81159  1  0  0  0
 82 85  1  0  0  0
 82160  1  0  0  0
 82161  1  0  0  0
 83162  1  0  0  0
 84163  1  0  0  0
 85 87  1  0  0  0
 85164  1  0  0  0
 86165  1  0  0  0
 86166  1  0  0  0
 87167  1  0  0  0
M  ISO  4   1 100  68 101  86 101  87 100
M  END
> <chiral flag>
0

> <version>
0

> <s_m_source_file>
/data/baiqing/PycharmProjects/Reinvent-master-3.2/result/LINK_invent/BTK/process_docking_weight1_custom_sum_contain_oxygen_bond_distance_aromatic_linkinvent_7_9_3/rearranged_h_0132.sdf

> <i_m_source_file_index>
64

> <r_mmod_Potential_Energy-OPLS-2005>
8.4910306930542

> <r_mmod_Stretch_Energy-OPLS-2005>
48.0237770080566

> <r_mmod_Bend_Energy-OPLS-2005>
112.031021118164

> <r_mmod_Torsional_Energy-OPLS-2005>
258.999267578125

> <r_mmod_Improper_Torsional_Energy-OPLS-2005>
5.91965436935425

> <r_mmod_Van_der_Waal_Energy-OPLS-2005>
143.261184692383

> <r_mmod_Electrostatic_Energy-OPLS-2005>
-379.297973632812

> <r_mmod_Solvation_Energy-OPLS-2005>
-200.865203857422

> <b_mmod_Minimization_Converged-OPLS-2005>
0

> <r_mmod_RMS_Derivative-OPLS-2005>
1.86360251903534

$$$$
66
                    3D
 Structure written by MMmdl.
156164  0  0  1  0            999 V2000
  -30.6318  -14.7301   20.4438 C   0  0  0  0  0  0
  -30.4209  -12.4429   19.4695 C   0  0  0  0  0  0
  -29.5012  -12.5010   18.2314 C   0  0  0  0  0  0
  -28.0277  -12.3324   18.6463 C   0  0  0  0  0  0
  -27.6365  -13.2353   19.8459 C   0  0  2  0  0  0
  -28.6825  -13.1815   20.9810 C   0  0  0  0  0  0
  -25.2458  -13.8187   20.5681 C   0  0  0  0  0  0
  -24.1773  -13.0431   20.9208 C   0  0  0  0  0  0
  -24.6371  -11.6911   20.8743 C   0  0  0  0  0  0
  -23.9051  -10.4286   21.0388 C   0  0  0  0  0  0
  -24.3604   -9.4206   21.9170 C   0  0  0  0  0  0
  -23.6283   -8.2242   22.0749 C   0  0  0  0  0  0
  -22.4272   -8.0266   21.3539 C   0  0  0  0  0  0
  -21.9899   -9.0233   20.4637 C   0  0  0  0  0  0
  -22.7217  -10.2112   20.3044 C   0  0  0  0  0  0
  -21.6861   -6.0713   22.5264 C   0  0  0  0  0  0
  -21.4015   -6.5620   23.8193 C   0  0  0  0  0  0
  -21.3666   -5.6777   24.9155 C   0  0  0  0  0  0
  -21.6053   -4.3043   24.7212 C   0  0  0  0  0  0
  -21.8825   -3.8130   23.4337 C   0  0  0  0  0  0
  -21.9192   -4.6939   22.3390 C   0  0  0  0  0  0
  -22.7790  -13.5193   21.1881 C   0  0  0  0  0  0
  -22.1664   -4.2130   21.0966 F   0  0  0  0  0  0
  -21.5634   -3.4530   25.7728 F   0  0  0  0  0  0
  -29.9865  -13.5146   20.3950 N   0  0  0  0  0  0
  -26.2909  -12.9416   20.3266 N   0  0  0  0  0  0
  -25.9303  -11.6559   20.5748 N   0  0  0  0  0  0
  -22.0458  -12.8177   22.0429 N   0  0  0  0  0  0
  -25.4090  -15.1913   20.4054 N   0  0  0  0  0  0
  -31.8324  -14.7717   20.1651 O   0  0  0  0  0  0
  -21.6643   -6.8855   21.4231 O   0  0  0  0  0  0
  -22.3483  -14.5517   20.6742 O   0  0  0  0  0  0
  -24.6269  -31.8555   23.1954 C   0  0  0  0  0  0
  -25.9112  -32.4736   23.8275 C   0  0  1  0  0  0
  -27.2155  -27.2840   20.1169 C   0  0  0  0  0  0
  -25.5925  -33.8547   24.2205 N   0  0  0  0  0  0
  -23.4195  -30.4773   21.5392 C   0  0  2  0  0  0
  -24.8640  -28.9264   20.1025 C   0  0  0  0  0  0
  -22.7487  -29.4567   22.4906 C   0  0  0  0  0  0
  -18.0274  -28.1410   22.8461 C   0  0  0  0  0  0
  -24.1505  -36.7294   23.2643 C   0  0  0  0  0  0
  -25.9598  -30.7777   21.3653 C   0  0  0  0  0  0
  -26.0321  -29.4005   20.7099 C   0  0  0  0  0  0
  -27.2068  -28.5894   20.7097 C   0  0  0  0  0  0
  -26.0209  -26.8637   19.4891 C   0  0  0  0  0  0
  -24.8612  -27.6660   19.4837 C   0  0  0  0  0  0
  -23.6361  -29.8157   20.1520 C   0  0  0  0  0  0
  -25.4126  -36.3047   24.0323 C   0  0  1  0  0  0
  -20.5876  -28.3681   23.1319 C   0  0  2  0  0  0
  -20.6764  -26.9415   22.5429 C   0  0  0  0  0  0
  -19.5744  -26.6401   21.5221 C   0  0  0  0  0  0
  -18.1911  -26.7953   22.1613 C   0  0  0  0  0  0
  -19.1531  -28.8862   23.2873 C   0  0  0  0  0  0
  -18.9463  -30.1465   23.8891 C   0  0  0  0  0  0
  -17.6467  -30.6598   24.0580 C   0  0  0  0  0  0
  -25.9068  -34.9435   23.5064 C   0  0  0  0  0  0
  -16.5352  -29.9106   23.6347 C   0  0  0  0  0  0
  -16.7270  -28.6543   23.0323 C   0  0  0  0  0  0
  -26.4503  -31.6557   25.0654 C   0  0  0  0  0  0
  -25.3752  -31.3721   26.1392 C   0  0  0  0  0  0
  -27.0337  -30.2987   24.6085 C   0  0  0  0  0  0
  -27.6058  -32.4298   25.7425 C   0  0  0  0  0  0
  -27.5580  -37.1789   24.8461 C   0  0  0  0  0  0
  -21.4196  -29.3016   22.3701 N   0  0  0  0  0  0
  -26.4287  -37.3755   23.9422 N   0  0  0  0  0  0
  -24.6875  -31.0548   22.0908 N   0  0  0  0  0  0
  -23.4219  -28.8108   23.2974 O   0  0  0  0  0  0
  -28.3500  -26.4544   20.1969 O   0  0  0  0  0  0
  -26.5645  -34.8904   22.4633 O   0  0  0  0  0  0
  -23.5442  -32.1375   23.7293 O   0  0  0  0  0  0
  -31.7858  -19.0662   19.6531 C   0  0  0  0  0  0
  -30.8941  -20.1064   19.9556 C   0  0  0  0  0  0
  -31.4433  -17.7197   19.8701 C   0  0  0  0  0  0
  -29.6042  -19.8455   20.4584 C   0  0  0  0  0  0
  -29.2550  -18.4337   20.6634 C   0  0  0  0  0  0
  -30.1838  -17.3343   20.3941 C   0  0  0  0  0  0
  -27.8695  -18.0761   21.1885 C   0  0  0  0  0  0
  -28.7165  -21.1269   20.8191 C   0  0  0  0  0  0
  -28.2828  -23.7522   20.5652 C   0  0  0  0  0  0
  -28.4387  -25.0674   19.6451 C   0  0  0  0  0  0
  -29.8718  -15.8861   20.6080 N   0  0  0  0  0  0
  -28.9595  -22.4528   20.0819 N   0  3  0  0  0  0
  -31.4615  -12.5517   19.1626 H   0  0  0  0  0  0
  -30.3549  -11.4694   19.9567 H   0  0  0  0  0  0
  -29.7782  -11.7244   17.5170 H   0  0  0  0  0  0
  -29.6320  -13.4542   17.7169 H   0  0  0  0  0  0
  -27.8795  -11.2843   18.9080 H   0  0  0  0  0  0
  -27.3728  -12.5281   17.7970 H   0  0  0  0  0  0
  -27.6262  -14.2543   19.4606 H   0  0  0  0  0  0
  -28.7107  -12.1935   21.4426 H   0  0  0  0  0  0
  -28.4220  -13.8836   21.7740 H   0  0  0  0  0  0
  -25.2750   -9.5692   22.4740 H   0  0  0  0  0  0
  -23.9991   -7.4644   22.7480 H   0  0  0  0  0  0
  -21.0832   -8.8742   19.8951 H   0  0  0  0  0  0
  -22.3670  -10.9644   19.6153 H   0  0  0  0  0  0
  -21.2012   -7.6129   23.9687 H   0  0  0  0  0  0
  -21.1492   -6.0508   25.9053 H   0  0  0  0  0  0
  -22.0604   -2.7595   23.2837 H   0  0  0  0  0  0
  -22.4089  -11.9815   22.4778 H   0  0  0  0  0  0
  -21.1084  -13.1196   22.2678 H   0  0  0  0  0  0
  -24.6267  -15.8299   20.4974 H   0  0  0  0  0  0
  -26.2266  -15.6263   20.0006 H   0  0  0  0  0  0
  -26.7159  -32.5392   23.1000 H   0  0  0  0  0  0
  -25.0043  -33.9666   25.0325 H   0  0  0  0  0  0
  -22.7091  -31.2948   21.3958 H   0  0  0  0  0  0
  -23.3744  -35.9646   23.3279 H   0  0  0  0  0  0
  -24.3582  -36.8972   22.2057 H   0  0  0  0  0  0
  -23.7287  -37.6498   23.6703 H   0  0  0  0  0  0
  -26.0867  -31.5381   20.5930 H   0  0  0  0  0  0
  -26.8408  -30.8294   21.9931 H   0  0  0  0  0  0
  -28.1015  -28.9476   21.1984 H   0  0  0  0  0  0
  -25.9353  -25.8969   19.0171 H   0  0  0  0  0  0
  -23.9637  -27.2983   19.0056 H   0  0  0  0  0  0
  -23.7653  -30.5959   19.4015 H   0  0  0  0  0  0
  -22.7503  -29.2610   19.8384 H   0  0  0  0  0  0
  -25.1306  -36.1863   25.0817 H   0  0  0  0  0  0
  -20.9939  -28.3247   24.1455 H   0  0  0  0  0  0
  -20.5699  -26.2280   23.3611 H   0  0  0  0  0  0
  -21.6626  -26.7464   22.1205 H   0  0  0  0  0  0
  -19.6926  -25.6319   21.1233 H   0  0  0  0  0  0
  -19.6719  -27.3224   20.6763 H   0  0  0  0  0  0
  -17.4203  -26.6724   21.3987 H   0  0  0  0  0  0
  -18.0278  -26.0099   22.9009 H   0  0  0  0  0  0
  -19.7942  -30.7271   24.2262 H   0  0  0  0  0  0
  -17.5025  -31.6266   24.5188 H   0  0  0  0  0  0
  -15.5354  -30.3002   23.7680 H   0  0  0  0  0  0
  -15.8669  -28.0881   22.7007 H   0  0  0  0  0  0
  -24.5951  -30.7018   25.7755 H   0  0  0  0  0  0
  -24.8899  -32.2900   26.4736 H   0  0  0  0  0  0
  -25.8090  -30.8989   27.0210 H   0  0  0  0  0  0
  -26.2874  -29.6712   24.1191 H   0  0  0  0  0  0
  -27.4154  -29.7256   25.4541 H   0  0  0  0  0  0
  -27.8699  -30.4274   23.9206 H   0  0  0  0  0  0
  -27.2673  -33.3629   26.1928 H   0  0  0  0  0  0
  -28.3906  -32.6799   25.0277 H   0  0  0  0  0  0
  -28.0668  -31.8465   26.5405 H   0  0  0  0  0  0
  -28.2572  -38.0095   24.7469 H   0  0  0  0  0  0
  -28.1091  -36.2619   24.6312 H   0  0  0  0  0  0
  -27.2295  -37.1471   25.8861 H   0  0  0  0  0  0
  -20.9369  -29.8794   21.6968 H   0  0  0  0  0  0
  -26.0155  -38.2836   24.1412 H   0  0  0  0  0  0
  -32.7608  -19.3090   19.2534 H   0  0  0  0  0  0
  -31.2336  -21.1201   19.7978 H   0  0  0  0  0  0
  -32.1984  -16.9979   19.6066 H   0  0  0  0  0  0
  -27.8608  -18.0262   22.2773 H   0  0  0  0  0  0
  -27.5436  -17.1108   20.8056 H   0  0  0  0  0  0
  -27.1096  -18.7876   20.8723 H   0  0  0  0  0  0
  -28.8654  -21.3162   21.8830 H   0  0  0  0  0  0
  -27.6604  -20.8890   20.7071 H   0  0  0  0  0  0
  -27.2182  -23.5596   20.6957 H   0  0  0  0  0  0
  -28.6733  -23.9817   21.5572 H   0  0  0  0  0  0
  -27.8164  -24.9641   18.7587 H   0  0  0  0  0  0
  -29.4511  -25.0307   19.2427 H   0  0  0  0  0  0
  -28.9102  -15.6948   20.8397 H   0  0  0  0  0  0
  -28.7105  -22.2971   19.1184 H   0  0  0  0  0  0
  -29.9531  -22.6170   20.1011 H   0  0  0  0  0  0
  1 25  1  0  0  0
  1 30  2  0  0  0
  1 81  1  0  0  0
  2  3  1  0  0  0
  2 25  1  0  0  0
  2 83  1  0  0  0
  2 84  1  0  0  0
  3  4  1  0  0  0
  3 85  1  0  0  0
  3 86  1  0  0  0
  4  5  1  0  0  0
  4 87  1  0  0  0
  4 88  1  0  0  0
  5  6  1  0  0  0
  5 26  1  0  0  0
  5 89  1  0  0  0
  6 25  1  0  0  0
  6 90  1  0  0  0
  6 91  1  0  0  0
  7  8  2  0  0  0
  7 26  1  0  0  0
  7 29  1  0  0  0
  8  9  1  0  0  0
  8 22  1  0  0  0
  9 10  1  0  0  0
  9 27  2  0  0  0
 10 11  2  0  0  0
 10 15  1  0  0  0
 11 12  1  0  0  0
 11 92  1  0  0  0
 12 13  2  0  0  0
 12 93  1  0  0  0
 13 14  1  0  0  0
 13 31  1  0  0  0
 14 15  2  0  0  0
 14 94  1  0  0  0
 15 95  1  0  0  0
 16 17  2  0  0  0
 16 21  1  0  0  0
 16 31  1  0  0  0
 17 18  1  0  0  0
 17 96  1  0  0  0
 18 19  2  0  0  0
 18 97  1  0  0  0
 19 20  1  0  0  0
 19 24  1  0  0  0
 20 21  2  0  0  0
 20 98  1  0  0  0
 21 23  1  0  0  0
 22 28  1  0  0  0
 22 32  2  0  0  0
 26 27  1  0  0  0
 28 99  1  0  0  0
 28100  1  0  0  0
 29101  1  0  0  0
 29102  1  0  0  0
 33 34  1  0  0  0
 33 66  1  0  0  0
 33 70  2  0  0  0
 34 36  1  0  0  0
 34 59  1  0  0  0
 34103  1  0  0  0
 35 44  2  0  0  0
 35 45  1  0  0  0
 35 68  1  0  0  0
 36 56  1  0  0  0
 36104  1  0  0  0
 37 39  1  0  0  0
 37 47  1  0  0  0
 37 66  1  0  0  0
 37105  1  0  0  0
 38 43  2  0  0  0
 38 46  1  0  0  0
 38 47  1  0  0  0
 39 64  1  0  0  0
 39 67  2  0  0  0
 40 52  1  0  0  0
 40 53  2  0  0  0
 40 58  1  0  0  0
 41106  1  0  0  0
 41107  1  0  0  0
 41108  1  0  0  0
 41 48  1  0  0  0
 42 43  1  0  0  0
 42 66  1  0  0  0
 42109  1  0  0  0
 42110  1  0  0  0
 43 44  1  0  0  0
 44111  1  0  0  0
 45 46  2  0  0  0
 45112  1  0  0  0
 46113  1  0  0  0
 47114  1  0  0  0
 47115  1  0  0  0
 48 56  1  0  0  0
 48 65  1  0  0  0
 48116  1  0  0  0
 49 50  1  0  0  0
 49 53  1  0  0  0
 49 64  1  0  0  0
 49117  1  0  0  0
 50 51  1  0  0  0
 50118  1  0  0  0
 50119  1  0  0  0
 51 52  1  0  0  0
 51120  1  0  0  0
 51121  1  0  0  0
 52122  1  0  0  0
 52123  1  0  0  0
 53 54  1  0  0  0
 54 55  2  0  0  0
 54124  1  0  0  0
 55 57  1  0  0  0
 55125  1  0  0  0
 56 69  2  0  0  0
 57 58  2  0  0  0
 57126  1  0  0  0
 58127  1  0  0  0
 59 60  1  0  0  0
 59 61  1  0  0  0
 59 62  1  0  0  0
 60128  1  0  0  0
 60129  1  0  0  0
 60130  1  0  0  0
 61131  1  0  0  0
 61132  1  0  0  0
 61133  1  0  0  0
 62134  1  0  0  0
 62135  1  0  0  0
 62136  1  0  0  0
 63 65  1  0  0  0
 63137  1  0  0  0
 63138  1  0  0  0
 63139  1  0  0  0
 64140  1  0  0  0
 65141  1  0  0  0
 68 80  1  0  0  0
 71 72  2  0  0  0
 71 73  1  0  0  0
 71142  1  0  0  0
 72 74  1  0  0  0
 72143  1  0  0  0
 73 76  2  0  0  0
 73144  1  0  0  0
 74 75  2  0  0  0
 74 78  1  0  0  0
 75 76  1  0  0  0
 75 77  1  0  0  0
 76 81  1  0  0  0
 77145  1  0  0  0
 77146  1  0  0  0
 77147  1  0  0  0
 78 82  1  0  0  0
 78148  1  0  0  0
 78149  1  0  0  0
 79 80  1  0  0  0
 79 82  1  0  0  0
 79150  1  0  0  0
 79151  1  0  0  0
 80152  1  0  0  0
 80153  1  0  0  0
 81154  1  0  0  0
 82155  1  0  0  0
 82156  1  0  0  0
M  CHG  1  82   1
M  ISO  4   1 100  68 101  80 101  81 100
M  END
> <chiral flag>
0

> <version>
0

> <s_m_source_file>
/data/baiqing/PycharmProjects/Reinvent-master-3.2/result/LINK_invent/BTK/process_docking_weight1_custom_sum_contain_oxygen_bond_distance_aromatic_linkinvent_7_9_3/rearranged_h_0132.sdf

> <i_m_source_file_index>
65

> <r_mmod_Potential_Energy-OPLS-2005>
-36.3876152038574

> <r_mmod_Stretch_Energy-OPLS-2005>
121.221626281738

> <r_mmod_Bend_Energy-OPLS-2005>
168.303405761719

> <r_mmod_Torsional_Energy-OPLS-2005>
206.218719482422

> <r_mmod_Improper_Torsional_Energy-OPLS-2005>
4.9335789680481

> <r_mmod_Van_der_Waal_Energy-OPLS-2005>
143.549163818359

> <r_mmod_Electrostatic_Energy-OPLS-2005>
-289.384826660156

> <r_mmod_Solvation_Energy-OPLS-2005>
-466.208770751953

> <b_mmod_Minimization_Converged-OPLS-2005>
0

> <r_mmod_RMS_Derivative-OPLS-2005>
2.6038863658905

$$$$
67
                    3D
 Structure written by MMmdl.
156164  0  0  1  0            999 V2000
  -30.6096  -14.7203   20.4530 C   0  0  0  0  0  0
  -30.4302  -12.4351   19.4784 C   0  0  0  0  0  0
  -29.5076  -12.5092   18.2406 C   0  0  0  0  0  0
  -28.0331  -12.3377   18.6503 C   0  0  0  0  0  0
  -27.6446  -13.2281   19.8597 C   0  0  2  0  0  0
  -28.6889  -13.1452   20.9970 C   0  0  0  0  0  0
  -25.2514  -13.8195   20.5691 C   0  0  0  0  0  0
  -24.1802  -13.0444   20.9213 C   0  0  0  0  0  0
  -24.6387  -11.6918   20.8771 C   0  0  0  0  0  0
  -23.9057  -10.4302   21.0428 C   0  0  0  0  0  0
  -24.3612   -9.4216   21.9191 C   0  0  0  0  0  0
  -23.6297   -8.2241   22.0752 C   0  0  0  0  0  0
  -22.4279   -8.0282   21.3539 C   0  0  0  0  0  0
  -21.9908   -9.0258   20.4640 C   0  0  0  0  0  0
  -22.7234  -10.2140   20.3064 C   0  0  0  0  0  0
  -21.6856   -6.0739   22.5283 C   0  0  0  0  0  0
  -21.4013   -6.5639   23.8214 C   0  0  0  0  0  0
  -21.3663   -5.6791   24.9177 C   0  0  0  0  0  0
  -21.6048   -4.3059   24.7229 C   0  0  0  0  0  0
  -21.8820   -3.8149   23.4351 C   0  0  0  0  0  0
  -21.9193   -4.6963   22.3410 C   0  0  0  0  0  0
  -22.7825  -13.5232   21.1864 C   0  0  0  0  0  0
  -22.1660   -4.2150   21.0987 F   0  0  0  0  0  0
  -21.5627   -3.4541   25.7740 F   0  0  0  0  0  0
  -29.9977  -13.4884   20.4251 N   0  0  0  0  0  0
  -26.2943  -12.9397   20.3330 N   0  0  0  0  0  0
  -25.9320  -11.6535   20.5786 N   0  0  0  0  0  0
  -22.0465  -12.8238   22.0431 N   0  0  0  0  0  0
  -25.4195  -15.1918   20.4073 N   0  0  0  0  0  0
  -31.7764  -14.8433   20.0707 O   0  0  0  0  0  0
  -21.6639   -6.8881   21.4242 O   0  0  0  0  0  0
  -22.3520  -14.5539   20.6709 O   0  0  0  0  0  0
  -24.6311  -31.8567   23.1992 C   0  0  0  0  0  0
  -25.9150  -32.4752   23.8328 C   0  0  1  0  0  0
  -27.2197  -27.2691   20.1343 C   0  0  0  0  0  0
  -25.5964  -33.8555   24.2265 N   0  0  0  0  0  0
  -23.4272  -30.4790   21.5405 C   0  0  2  0  0  0
  -24.8789  -28.9300   20.1041 C   0  0  0  0  0  0
  -22.7497  -29.4614   22.4899 C   0  0  0  0  0  0
  -18.0307  -28.1400   22.8484 C   0  0  0  0  0  0
  -24.1496  -36.7281   23.2630 C   0  0  0  0  0  0
  -25.9729  -30.7671   21.3845 C   0  0  0  0  0  0
  -26.0456  -29.3902   20.7292 C   0  0  0  0  0  0
  -27.2177  -28.5671   20.7447 C   0  0  0  0  0  0
  -26.0478  -26.8965   19.4393 C   0  0  0  0  0  0
  -24.8850  -27.6896   19.4475 C   0  0  0  0  0  0
  -23.6473  -29.8137   20.1556 C   0  0  0  0  0  0
  -25.4123  -36.3068   24.0322 C   0  0  1  0  0  0
  -20.5906  -28.3696   23.1275 C   0  0  2  0  0  0
  -20.6787  -26.9419   22.5378 C   0  0  0  0  0  0
  -19.5743  -26.6393   21.5199 C   0  0  0  0  0  0
  -18.1932  -26.7948   22.1606 C   0  0  0  0  0  0
  -19.1562  -28.8859   23.2894 C   0  0  0  0  0  0
  -18.9483  -30.1440   23.8942 C   0  0  0  0  0  0
  -17.6480  -30.6569   24.0615 C   0  0  0  0  0  0
  -25.9061  -34.9441   23.5092 C   0  0  0  0  0  0
  -16.5372  -29.9095   23.6350 C   0  0  0  0  0  0
  -16.7297  -28.6515   23.0351 C   0  0  0  0  0  0
  -26.4525  -31.6562   25.0702 C   0  0  0  0  0  0
  -25.3750  -31.3702   26.1409 C   0  0  0  0  0  0
  -27.0370  -30.2975   24.6186 C   0  0  0  0  0  0
  -27.6098  -32.4289   25.7462 C   0  0  0  0  0  0
  -27.5578  -37.1799   24.8461 C   0  0  0  0  0  0
  -21.4206  -29.3062   22.3673 N   0  0  0  0  0  0
  -26.4295  -37.3769   23.9405 N   0  0  0  0  0  0
  -24.6951  -31.0531   22.0970 N   0  0  0  0  0  0
  -23.4200  -28.8137   23.2973 O   0  0  0  0  0  0
  -28.2878  -26.3413   20.1980 O   0  0  0  0  0  0
  -26.5604  -34.8919   22.4640 O   0  0  0  0  0  0
  -23.5469  -32.1392   23.7298 O   0  0  0  0  0  0
  -28.9973  -23.8619   20.2848 C   0  0  0  0  0  0
  -26.8952  -24.5516   21.2041 C   0  0  0  0  0  0
  -28.7103  -22.4847   20.6664 C   0  0  0  0  0  0
  -28.0710  -24.9579   20.5288 C   0  0  0  0  0  0
  -27.4536  -22.2804   21.2636 C   0  0  0  0  0  0
  -25.7737  -20.7591   22.0869 C   0  0  0  0  0  0
  -29.7434  -21.2653   20.6467 C   0  0  0  0  0  0
  -29.9159  -17.2198   20.0224 C   0  0  0  0  0  0
  -29.6382  -18.5861   20.8504 C   0  0  0  0  0  0
  -26.5797  -23.2771   21.5241 N   0  0  0  0  0  0
  -29.8205  -15.8359   20.6713 N   0  0  0  0  0  0
  -29.4137  -19.8854   20.0509 N   0  3  0  0  0  0
  -27.1005  -20.9957   21.6211 O   0  0  0  0  0  0
  -31.4716  -12.5533   19.1763 H   0  0  0  0  0  0
  -30.3662  -11.4539   19.9498 H   0  0  0  0  0  0
  -29.7833  -11.7431   17.5141 H   0  0  0  0  0  0
  -29.6390  -13.4706   17.7423 H   0  0  0  0  0  0
  -27.8827  -11.2870   18.9012 H   0  0  0  0  0  0
  -27.3750  -12.5434   17.8054 H   0  0  0  0  0  0
  -27.6447  -14.2536   19.4899 H   0  0  0  0  0  0
  -28.7134  -12.1442   21.4294 H   0  0  0  0  0  0
  -28.4266  -13.8203   21.8122 H   0  0  0  0  0  0
  -25.2750   -9.5703   22.4776 H   0  0  0  0  0  0
  -24.0020   -7.4631   22.7468 H   0  0  0  0  0  0
  -21.0834   -8.8772   19.8951 H   0  0  0  0  0  0
  -22.3683  -10.9681   19.6186 H   0  0  0  0  0  0
  -21.1996   -7.6143   23.9721 H   0  0  0  0  0  0
  -21.1485   -6.0516   25.9080 H   0  0  0  0  0  0
  -22.0595   -2.7608   23.2848 H   0  0  0  0  0  0
  -22.4067  -11.9904   22.4837 H   0  0  0  0  0  0
  -21.1080  -13.1264   22.2614 H   0  0  0  0  0  0
  -24.6429  -15.8380   20.4990 H   0  0  0  0  0  0
  -26.2532  -15.6277   20.0352 H   0  0  0  0  0  0
  -26.7209  -32.5416   23.1065 H   0  0  0  0  0  0
  -25.0206  -33.9691   25.0472 H   0  0  0  0  0  0
  -22.7236  -31.3023   21.3954 H   0  0  0  0  0  0
  -23.3765  -35.9603   23.3289 H   0  0  0  0  0  0
  -24.3596  -36.8900   22.2043 H   0  0  0  0  0  0
  -23.7236  -37.6487   23.6647 H   0  0  0  0  0  0
  -26.1160  -31.5278   20.6163 H   0  0  0  0  0  0
  -26.8494  -30.8154   22.0185 H   0  0  0  0  0  0
  -28.1049  -28.9093   21.2620 H   0  0  0  0  0  0
  -26.0145  -25.9486   18.9213 H   0  0  0  0  0  0
  -23.9987  -27.3374   18.9366 H   0  0  0  0  0  0
  -23.7710  -30.5913   19.4013 H   0  0  0  0  0  0
  -22.7660  -29.2475   19.8493 H   0  0  0  0  0  0
  -25.1305  -36.1910   25.0813 H   0  0  0  0  0  0
  -21.0022  -28.3273   24.1381 H   0  0  0  0  0  0
  -20.5732  -26.2281   23.3564 H   0  0  0  0  0  0
  -21.6632  -26.7456   22.1119 H   0  0  0  0  0  0
  -19.6879  -25.6315   21.1192 H   0  0  0  0  0  0
  -19.6667  -27.3216   20.6743 H   0  0  0  0  0  0
  -17.4209  -26.6729   21.4008 H   0  0  0  0  0  0
  -18.0317  -26.0065   22.8969 H   0  0  0  0  0  0
  -19.7938  -30.7242   24.2358 H   0  0  0  0  0  0
  -17.5031  -31.6227   24.5264 H   0  0  0  0  0  0
  -15.5373  -30.2995   23.7666 H   0  0  0  0  0  0
  -15.8703  -28.0841   22.7042 H   0  0  0  0  0  0
  -24.5931  -30.7054   25.7713 H   0  0  0  0  0  0
  -24.8940  -32.2868   26.4827 H   0  0  0  0  0  0
  -25.8054  -30.8859   27.0180 H   0  0  0  0  0  0
  -26.2943  -29.6706   24.1228 H   0  0  0  0  0  0
  -27.4082  -29.7243   25.4699 H   0  0  0  0  0  0
  -27.8819  -30.4258   23.9411 H   0  0  0  0  0  0
  -27.2731  -33.3597   26.2043 H   0  0  0  0  0  0
  -28.3900  -32.6830   25.0268 H   0  0  0  0  0  0
  -28.0785  -31.8405   26.5366 H   0  0  0  0  0  0
  -28.2600  -38.0094   24.7523 H   0  0  0  0  0  0
  -28.1069  -36.2629   24.6273 H   0  0  0  0  0  0
  -27.2295  -37.1432   25.8864 H   0  0  0  0  0  0
  -20.9372  -29.8834   21.6939 H   0  0  0  0  0  0
  -26.0169  -38.2842   24.1403 H   0  0  0  0  0  0
  -29.9545  -24.0901   19.8372 H   0  0  0  0  0  0
  -26.1463  -25.2708   21.4995 H   0  0  0  0  0  0
  -25.6224  -19.6863   22.2094 H   0  0  0  0  0  0
  -25.0269  -21.1211   21.3779 H   0  0  0  0  0  0
  -25.6007  -21.2268   23.0560 H   0  0  0  0  0  0
  -30.0523  -21.1116   21.6807 H   0  0  0  0  0  0
  -30.6436  -21.6127   20.1386 H   0  0  0  0  0  0
  -30.8913  -17.3076   19.5414 H   0  0  0  0  0  0
  -29.2023  -17.1879   19.1985 H   0  0  0  0  0  0
  -30.4833  -18.7427   21.5198 H   0  0  0  0  0  0
  -28.7720  -18.4512   21.4973 H   0  0  0  0  0  0
  -28.9151  -15.6140   21.0593 H   0  0  0  0  0  0
  -29.9978  -19.8202   19.2335 H   0  0  0  0  0  0
  -28.4650  -19.8873   19.7166 H   0  0  0  0  0  0
  1 25  1  0  0  0
  1 30  2  0  0  0
  1 81  1  0  0  0
  2  3  1  0  0  0
  2 25  1  0  0  0
  2 84  1  0  0  0
  2 85  1  0  0  0
  3  4  1  0  0  0
  3 86  1  0  0  0
  3 87  1  0  0  0
  4  5  1  0  0  0
  4 88  1  0  0  0
  4 89  1  0  0  0
  5  6  1  0  0  0
  5 26  1  0  0  0
  5 90  1  0  0  0
  6 25  1  0  0  0
  6 91  1  0  0  0
  6 92  1  0  0  0
  7  8  2  0  0  0
  7 26  1  0  0  0
  7 29  1  0  0  0
  8  9  1  0  0  0
  8 22  1  0  0  0
  9 10  1  0  0  0
  9 27  2  0  0  0
 10 11  2  0  0  0
 10 15  1  0  0  0
 11 12  1  0  0  0
 11 93  1  0  0  0
 12 13  2  0  0  0
 12 94  1  0  0  0
 13 14  1  0  0  0
 13 31  1  0  0  0
 14 15  2  0  0  0
 14 95  1  0  0  0
 15 96  1  0  0  0
 16 17  2  0  0  0
 16 21  1  0  0  0
 16 31  1  0  0  0
 17 18  1  0  0  0
 17 97  1  0  0  0
 18 19  2  0  0  0
 18 98  1  0  0  0
 19 20  1  0  0  0
 19 24  1  0  0  0
 20 21  2  0  0  0
 20 99  1  0  0  0
 21 23  1  0  0  0
 22 28  1  0  0  0
 22 32  2  0  0  0
 26 27  1  0  0  0
 28100  1  0  0  0
 28101  1  0  0  0
 29102  1  0  0  0
 29103  1  0  0  0
 33 34  1  0  0  0
 33 66  1  0  0  0
 33 70  2  0  0  0
 34 36  1  0  0  0
 34 59  1  0  0  0
 34104  1  0  0  0
 35 44  2  0  0  0
 35 45  1  0  0  0
 35 68  1  0  0  0
 36 56  1  0  0  0
 36105  1  0  0  0
 37 39  1  0  0  0
 37 47  1  0  0  0
 37 66  1  0  0  0
 37106  1  0  0  0
 38 43  2  0  0  0
 38 46  1  0  0  0
 38 47  1  0  0  0
 39 64  1  0  0  0
 39 67  2  0  0  0
 40 52  1  0  0  0
 40 53  2  0  0  0
 40 58  1  0  0  0
 41107  1  0  0  0
 41108  1  0  0  0
 41109  1  0  0  0
 41 48  1  0  0  0
 42 43  1  0  0  0
 42 66  1  0  0  0
 42110  1  0  0  0
 42111  1  0  0  0
 43 44  1  0  0  0
 44112  1  0  0  0
 45 46  2  0  0  0
 45113  1  0  0  0
 46114  1  0  0  0
 47115  1  0  0  0
 47116  1  0  0  0
 48 56  1  0  0  0
 48 65  1  0  0  0
 48117  1  0  0  0
 49 50  1  0  0  0
 49 53  1  0  0  0
 49 64  1  0  0  0
 49118  1  0  0  0
 50 51  1  0  0  0
 50119  1  0  0  0
 50120  1  0  0  0
 51 52  1  0  0  0
 51121  1  0  0  0
 51122  1  0  0  0
 52123  1  0  0  0
 52124  1  0  0  0
 53 54  1  0  0  0
 54 55  2  0  0  0
 54125  1  0  0  0
 55 57  1  0  0  0
 55126  1  0  0  0
 56 69  2  0  0  0
 57 58  2  0  0  0
 57127  1  0  0  0
 58128  1  0  0  0
 59 60  1  0  0  0
 59 61  1  0  0  0
 59 62  1  0  0  0
 60129  1  0  0  0
 60130  1  0  0  0
 60131  1  0  0  0
 61132  1  0  0  0
 61133  1  0  0  0
 61134  1  0  0  0
 62135  1  0  0  0
 62136  1  0  0  0
 62137  1  0  0  0
 63 65  1  0  0  0
 63138  1  0  0  0
 63139  1  0  0  0
 63140  1  0  0  0
 64141  1  0  0  0
 65142  1  0  0  0
 68 74  1  0  0  0
 71 73  2  0  0  0
 71 74  1  0  0  0
 71143  1  0  0  0
 72 74  2  0  0  0
 72 80  1  0  0  0
 72144  1  0  0  0
 73 75  1  0  0  0
 73 77  1  0  0  0
 75 80  2  0  0  0
 75 83  1  0  0  0
 76 83  1  0  0  0
 76145  1  0  0  0
 76146  1  0  0  0
 76147  1  0  0  0
 77 82  1  0  0  0
 77148  1  0  0  0
 77149  1  0  0  0
 78 79  1  0  0  0
 78 81  1  0  0  0
 78150  1  0  0  0
 78151  1  0  0  0
 79 82  1  0  0  0
 79152  1  0  0  0
 79153  1  0  0  0
 81154  1  0  0  0
 82155  1  0  0  0
 82156  1  0  0  0
M  CHG  1  82   1
M  ISO  4   1 100  68 101  74 101  81 100
M  END
> <chiral flag>
0

> <version>
0

> <s_m_source_file>
/data/baiqing/PycharmProjects/Reinvent-master-3.2/result/LINK_invent/BTK/process_docking_weight1_custom_sum_contain_oxygen_bond_distance_aromatic_linkinvent_7_9_3/rearranged_h_0132.sdf

> <i_m_source_file_index>
66

> <r_mmod_Potential_Energy-OPLS-2005>
-222.657958984375

> <r_mmod_Stretch_Energy-OPLS-2005>
116.445816040039

> <r_mmod_Bend_Energy-OPLS-2005>
164.877212524414

> <r_mmod_Torsional_Energy-OPLS-2005>
214.21467590332

> <r_mmod_Improper_Torsional_Energy-OPLS-2005>
8.12918758392334

> <r_mmod_Van_der_Waal_Energy-OPLS-2005>
150.205596923828

> <r_mmod_Electrostatic_Energy-OPLS-2005>
-469.9931640625

> <r_mmod_Solvation_Energy-OPLS-2005>
-488.682769775391

> <b_mmod_Minimization_Converged-OPLS-2005>
0

> <r_mmod_RMS_Derivative-OPLS-2005>
2.21061301231384

$$$$
68
                    3D
 Structure written by MMmdl.
176185  0  0  1  0            999 V2000
  -30.7049  -14.4517   20.6096 C   0  0  0  0  0  0
  -30.4284  -12.3241   19.3944 C   0  0  0  0  0  0
  -29.4831  -12.5205   18.1902 C   0  0  0  0  0  0
  -28.0071  -12.3794   18.6133 C   0  0  0  0  0  0
  -27.6575  -13.2128   19.8779 C   0  0  2  0  0  0
  -28.7034  -12.9696   20.9886 C   0  0  0  0  0  0
  -25.2524  -13.8206   20.5711 C   0  0  0  0  0  0
  -24.1783  -13.0430   20.9226 C   0  0  0  0  0  0
  -24.6377  -11.6923   20.8771 C   0  0  0  0  0  0
  -23.9044  -10.4289   21.0402 C   0  0  0  0  0  0
  -24.3598   -9.4216   21.9187 C   0  0  0  0  0  0
  -23.6279   -8.2237   22.0748 C   0  0  0  0  0  0
  -22.4263   -8.0263   21.3530 C   0  0  0  0  0  0
  -21.9881   -9.0243   20.4636 C   0  0  0  0  0  0
  -22.7204  -10.2135   20.3050 C   0  0  0  0  0  0
  -21.6838   -6.0725   22.5287 C   0  0  0  0  0  0
  -21.4006   -6.5640   23.8225 C   0  0  0  0  0  0
  -21.3668   -5.6791   24.9198 C   0  0  0  0  0  0
  -21.6041   -4.3050   24.7249 C   0  0  0  0  0  0
  -21.8817   -3.8136   23.4373 C   0  0  0  0  0  0
  -21.9200   -4.6952   22.3423 C   0  0  0  0  0  0
  -22.7801  -13.5225   21.1852 C   0  0  0  0  0  0
  -22.1654   -4.2133   21.0990 F   0  0  0  0  0  0
  -21.5629   -3.4541   25.7770 F   0  0  0  0  0  0
  -30.0358  -13.2830   20.4363 N   0  0  0  0  0  0
  -26.2990  -12.9387   20.3427 N   0  0  0  0  0  0
  -25.9310  -11.6537   20.5812 N   0  0  0  0  0  0
  -22.0418  -12.8248   22.0426 N   0  0  0  0  0  0
  -25.4235  -15.1925   20.4111 N   0  0  0  0  0  0
  -31.8112  -14.6860   20.1179 O   0  0  0  0  0  0
  -21.6630   -6.8853   21.4238 O   0  0  0  0  0  0
  -22.3497  -14.5518   20.6677 O   0  0  0  0  0  0
  -24.6138  -31.8699   23.2129 C   0  0  0  0  0  0
  -25.9054  -32.4825   23.8395 C   0  0  1  0  0  0
  -27.2235  -27.4547   20.0610 C   0  0  0  0  0  0
  -25.5929  -33.8630   24.2317 N   0  0  0  0  0  0
  -23.3972  -30.5001   21.5546 C   0  0  2  0  0  0
  -24.8366  -28.9690   20.1157 C   0  0  0  0  0  0
  -22.7402  -29.4683   22.4993 C   0  0  0  0  0  0
  -18.0273  -28.1383   22.8488 C   0  0  0  0  0  0
  -24.1503  -36.7319   23.2633 C   0  0  0  0  0  0
  -25.9256  -30.8386   21.3628 C   0  0  0  0  0  0
  -25.9988  -29.4737   20.7111 C   0  0  0  0  0  0
  -27.1936  -28.7190   20.6896 C   0  0  0  0  0  0
  -26.0347  -26.9628   19.4678 C   0  0  0  0  0  0
  -24.8454  -27.7079   19.5011 C   0  0  0  0  0  0
  -23.6029  -29.8408   20.1663 C   0  0  0  0  0  0
  -25.4122  -36.3108   24.0322 C   0  0  1  0  0  0
  -20.5861  -28.3663   23.1327 C   0  0  2  0  0  0
  -20.6771  -26.9405   22.5420 C   0  0  0  0  0  0
  -19.5749  -26.6396   21.5217 C   0  0  0  0  0  0
  -18.1922  -26.7920   22.1622 C   0  0  0  0  0  0
  -19.1521  -28.8838   23.2897 C   0  0  0  0  0  0
  -18.9453  -30.1439   23.8910 C   0  0  0  0  0  0
  -17.6460  -30.6582   24.0577 C   0  0  0  0  0  0
  -25.9050  -34.9478   23.5110 C   0  0  0  0  0  0
  -16.5352  -29.9103   23.6326 C   0  0  0  0  0  0
  -16.7261  -28.6527   23.0332 C   0  0  0  0  0  0
  -26.4490  -31.6582   25.0699 C   0  0  0  0  0  0
  -25.3780  -31.3691   26.1461 C   0  0  0  0  0  0
  -27.0298  -30.3033   24.6028 C   0  0  0  0  0  0
  -27.6064  -32.4286   25.7468 C   0  0  0  0  0  0
  -27.5575  -37.1818   24.8458 C   0  0  0  0  0  0
  -21.4123  -29.3039   22.3735 N   0  0  0  0  0  0
  -26.4295  -37.3799   23.9398 N   0  0  0  0  0  0
  -24.6644  -31.0844   22.1022 N   0  0  0  0  0  0
  -23.4178  -28.8196   23.3004 O   0  0  0  0  0  0
  -28.4029  -26.7339   20.0365 O   0  0  0  0  0  0
  -26.5602  -34.8937   22.4666 O   0  0  0  0  0  0
  -23.5332  -32.1457   23.7537 O   0  0  0  0  0  0
  -27.7451  -23.0827   19.8963 C   0  0  0  0  0  0
  -28.8130  -25.1211   18.3002 C   0  0  0  0  0  0
  -28.1513  -22.7730   18.5745 C   0  0  0  0  0  0
  -27.8592  -24.3907   20.4147 C   0  0  0  0  0  0
  -28.7031  -23.8127   17.7774 C   0  0  0  0  0  0
  -28.3745  -25.4253   19.6026 C   0  0  0  0  0  0
  -27.6578  -18.9969   18.1943 C   0  0  0  0  0  0
  -27.9558  -21.3495   18.0151 C   0  0  1  0  0  0
  -28.3237  -20.1704   18.9503 C   0  0  2  0  0  0
  -26.4923  -21.0141   17.6499 C   0  0  1  0  0  0
  -27.3739  -24.6877   21.8248 C   0  0  0  0  0  0
  -29.1685  -23.5742   16.3489 C   0  0  0  0  0  0
  -29.8386  -20.0198   19.2920 C   0  0  0  0  0  0
  -25.9137  -21.6799   16.3861 C   0  0  0  0  0  0
  -30.3889  -16.8056   21.4669 C   0  0  0  0  0  0
  -30.0058  -17.6792   20.2460 C   0  0  0  0  0  0
  -30.0121  -15.4001   21.2616 N   0  0  0  0  0  0
  -26.4732  -19.5484   17.5104 N   0  3  0  0  0  0
  -30.1443  -19.1436   20.4657 N   0  3  0  0  0  0
  -24.5579  -21.2837   16.2361 O   0  0  0  0  0  0
  -31.4631  -12.4549   19.0730 H   0  0  0  0  0  0
  -30.3583  -11.3077   19.7822 H   0  0  0  0  0  0
  -29.7164  -11.7919   17.4140 H   0  0  0  0  0  0
  -29.6461  -13.5059   17.7469 H   0  0  0  0  0  0
  -27.8168  -11.3259   18.8109 H   0  0  0  0  0  0
  -27.3532  -12.6577   17.7864 H   0  0  0  0  0  0
  -27.6991  -14.2658   19.5976 H   0  0  0  0  0  0
  -28.6858  -11.9257   21.3052 H   0  0  0  0  0  0
  -28.4557  -13.5460   21.8812 H   0  0  0  0  0  0
  -25.2736   -9.5724   22.4776 H   0  0  0  0  0  0
  -24.0001   -7.4645   22.7466 H   0  0  0  0  0  0
  -21.0811   -8.8762   19.8962 H   0  0  0  0  0  0
  -22.3636  -10.9687   19.6166 H   0  0  0  0  0  0
  -21.1981   -7.6140   23.9734 H   0  0  0  0  0  0
  -21.1478   -6.0513   25.9101 H   0  0  0  0  0  0
  -22.0589   -2.7599   23.2889 H   0  0  0  0  0  0
  -22.4008  -11.9934   22.4875 H   0  0  0  0  0  0
  -21.1027  -13.1295   22.2566 H   0  0  0  0  0  0
  -24.6612  -15.8491   20.5329 H   0  0  0  0  0  0
  -26.2834  -15.6320   20.1119 H   0  0  0  0  0  0
  -26.7110  -32.5548   23.1138 H   0  0  0  0  0  0
  -25.0132  -33.9803   25.0496 H   0  0  0  0  0  0
  -22.6841  -31.3158   21.4216 H   0  0  0  0  0  0
  -23.3750  -35.9669   23.3311 H   0  0  0  0  0  0
  -24.3592  -36.8921   22.2043 H   0  0  0  0  0  0
  -23.7281  -37.6544   23.6637 H   0  0  0  0  0  0
  -26.0353  -31.6033   20.5926 H   0  0  0  0  0  0
  -26.8157  -30.8901   21.9768 H   0  0  0  0  0  0
  -28.0925  -29.1054   21.1483 H   0  0  0  0  0  0
  -26.0056  -26.0070   18.9667 H   0  0  0  0  0  0
  -23.9510  -27.3122   19.0429 H   0  0  0  0  0  0
  -23.7208  -30.6222   19.4148 H   0  0  0  0  0  0
  -22.7225  -29.2720   19.8609 H   0  0  0  0  0  0
  -25.1303  -36.1967   25.0812 H   0  0  0  0  0  0
  -20.9949  -28.3240   24.1447 H   0  0  0  0  0  0
  -20.5710  -26.2270   23.3606 H   0  0  0  0  0  0
  -21.6643  -26.7478   22.1193 H   0  0  0  0  0  0
  -19.6931  -25.6323   21.1220 H   0  0  0  0  0  0
  -19.6694  -27.3234   20.6769 H   0  0  0  0  0  0
  -17.4202  -26.6664   21.4014 H   0  0  0  0  0  0
  -18.0318  -26.0054   22.9010 H   0  0  0  0  0  0
  -19.7941  -30.7240   24.2273 H   0  0  0  0  0  0
  -17.5040  -31.6261   24.5177 H   0  0  0  0  0  0
  -15.5365  -30.3024   23.7638 H   0  0  0  0  0  0
  -15.8653  -28.0874   22.7012 H   0  0  0  0  0  0
  -24.5971  -30.6995   25.7832 H   0  0  0  0  0  0
  -24.8958  -32.2849   26.4891 H   0  0  0  0  0  0
  -25.8174  -30.8911   27.0219 H   0  0  0  0  0  0
  -26.2809  -29.6805   24.1122 H   0  0  0  0  0  0
  -27.4128  -29.7244   25.4436 H   0  0  0  0  0  0
  -27.8610  -30.4346   23.9101 H   0  0  0  0  0  0
  -27.2682  -33.3575   26.2063 H   0  0  0  0  0  0
  -28.3883  -32.6854   25.0310 H   0  0  0  0  0  0
  -28.0712  -31.8398   26.5383 H   0  0  0  0  0  0
  -28.2604  -38.0107   24.7502 H   0  0  0  0  0  0
  -28.1058  -36.2641   24.6285 H   0  0  0  0  0  0
  -27.2286  -37.1461   25.8860 H   0  0  0  0  0  0
  -20.9265  -29.8791   21.6993 H   0  0  0  0  0  0
  -26.0178  -38.2870   24.1421 H   0  0  0  0  0  0
  -27.3087  -22.3217   20.5249 H   0  0  0  0  0  0
  -29.2175  -25.9153   17.6899 H   0  0  0  0  0  0
  -27.3449  -18.1863   18.8487 H   0  0  0  0  0  0
  -28.3249  -18.5797   17.4373 H   0  0  0  0  0  0
  -28.5515  -21.2286   17.1100 H   0  0  0  0  0  0
  -27.7802  -20.2928   19.8882 H   0  0  0  0  0  0
  -25.8618  -21.2689   18.5053 H   0  0  0  0  0  0
  -26.2878  -24.7955   21.8452 H   0  0  0  0  0  0
  -27.8069  -25.6127   22.2067 H   0  0  0  0  0  0
  -27.6568  -23.8936   22.5130 H   0  0  0  0  0  0
  -29.6367  -24.4611   15.9213 H   0  0  0  0  0  0
  -28.3265  -23.3077   15.7084 H   0  0  0  0  0  0
  -29.9095  -22.7749   16.3042 H   0  0  0  0  0  0
  -30.2164  -21.0119   19.5523 H   0  0  0  0  0  0
  -30.4169  -19.7186   18.4183 H   0  0  0  0  0  0
  -26.4735  -21.4000   15.4910 H   0  0  0  0  0  0
  -25.9596  -22.7662   16.4676 H   0  0  0  0  0  0
  -29.8679  -17.1558   22.3598 H   0  0  0  0  0  0
  -31.4539  -16.8823   21.6939 H   0  0  0  0  0  0
  -28.9733  -17.4519   20.0012 H   0  0  0  0  0  0
  -30.6147  -17.3970   19.3860 H   0  0  0  0  0  0
  -29.0933  -15.1232   21.5797 H   0  0  0  0  0  0
  -25.6155  -19.1936   17.9024 H   0  0  0  0  0  0
  -26.4861  -19.3012   16.5329 H   0  0  0  0  0  0
  -29.5798  -19.4274   21.2514 H   0  0  0  0  0  0
  -31.1010  -19.3335   20.7314 H   0  0  0  0  0  0
  -24.1456  -21.8599   15.5978 H   0  0  0  0  0  0
  1 25  1  0  0  0
  1 30  2  0  0  0
  1 87  1  0  0  0
  2  3  1  0  0  0
  2 25  1  0  0  0
  2 91  1  0  0  0
  2 92  1  0  0  0
  3  4  1  0  0  0
  3 93  1  0  0  0
  3 94  1  0  0  0
  4  5  1  0  0  0
  4 95  1  0  0  0
  4 96  1  0  0  0
  5  6  1  0  0  0
  5 26  1  0  0  0
  5 97  1  0  0  0
  6 25  1  0  0  0
  6 98  1  0  0  0
  6 99  1  0  0  0
  7  8  2  0  0  0
  7 26  1  0  0  0
  7 29  1  0  0  0
  8  9  1  0  0  0
  8 22  1  0  0  0
  9 10  1  0  0  0
  9 27  2  0  0  0
 10 11  2  0  0  0
 10 15  1  0  0  0
 11 12  1  0  0  0
 11100  1  0  0  0
 12 13  2  0  0  0
 12101  1  0  0  0
 13 14  1  0  0  0
 13 31  1  0  0  0
 14 15  2  0  0  0
 14102  1  0  0  0
 15103  1  0  0  0
 16 17  2  0  0  0
 16 21  1  0  0  0
 16 31  1  0  0  0
 17 18  1  0  0  0
 17104  1  0  0  0
 18 19  2  0  0  0
 18105  1  0  0  0
 19 20  1  0  0  0
 19 24  1  0  0  0
 20 21  2  0  0  0
 20106  1  0  0  0
 21 23  1  0  0  0
 22 28  1  0  0  0
 22 32  2  0  0  0
 26 27  1  0  0  0
 28107  1  0  0  0
 28108  1  0  0  0
 29109  1  0  0  0
 29110  1  0  0  0
 33 34  1  0  0  0
 33 66  1  0  0  0
 33 70  2  0  0  0
 34 36  1  0  0  0
 34 59  1  0  0  0
 34111  1  0  0  0
 35 44  2  0  0  0
 35 45  1  0  0  0
 35 68  1  0  0  0
 36 56  1  0  0  0
 36112  1  0  0  0
 37 39  1  0  0  0
 37 47  1  0  0  0
 37 66  1  0  0  0
 37113  1  0  0  0
 38 43  2  0  0  0
 38 46  1  0  0  0
 38 47  1  0  0  0
 39 64  1  0  0  0
 39 67  2  0  0  0
 40 52  1  0  0  0
 40 53  2  0  0  0
 40 58  1  0  0  0
 41114  1  0  0  0
 41115  1  0  0  0
 41116  1  0  0  0
 41 48  1  0  0  0
 42 43  1  0  0  0
 42 66  1  0  0  0
 42117  1  0  0  0
 42118  1  0  0  0
 43 44  1  0  0  0
 44119  1  0  0  0
 45 46  2  0  0  0
 45120  1  0  0  0
 46121  1  0  0  0
 47122  1  0  0  0
 47123  1  0  0  0
 48 56  1  0  0  0
 48 65  1  0  0  0
 48124  1  0  0  0
 49 50  1  0  0  0
 49 53  1  0  0  0
 49 64  1  0  0  0
 49125  1  0  0  0
 50 51  1  0  0  0
 50126  1  0  0  0
 50127  1  0  0  0
 51 52  1  0  0  0
 51128  1  0  0  0
 51129  1  0  0  0
 52130  1  0  0  0
 52131  1  0  0  0
 53 54  1  0  0  0
 54 55  2  0  0  0
 54132  1  0  0  0
 55 57  1  0  0  0
 55133  1  0  0  0
 56 69  2  0  0  0
 57 58  2  0  0  0
 57134  1  0  0  0
 58135  1  0  0  0
 59 60  1  0  0  0
 59 61  1  0  0  0
 59 62  1  0  0  0
 60136  1  0  0  0
 60137  1  0  0  0
 60138  1  0  0  0
 61139  1  0  0  0
 61140  1  0  0  0
 61141  1  0  0  0
 62142  1  0  0  0
 62143  1  0  0  0
 62144  1  0  0  0
 63 65  1  0  0  0
 63145  1  0  0  0
 63146  1  0  0  0
 63147  1  0  0  0
 64148  1  0  0  0
 65149  1  0  0  0
 68 76  1  0  0  0
 71 73  2  0  0  0
 71 74  1  0  0  0
 71150  1  0  0  0
 72 75  2  0  0  0
 72 76  1  0  0  0
 72151  1  0  0  0
 73 75  1  0  0  0
 73 78  1  0  0  0
 74 76  2  0  0  0
 74 81  1  0  0  0
 75 82  1  0  0  0
 77 79  1  0  0  0
 77 88  1  0  0  0
 77152  1  0  0  0
 77153  1  0  0  0
 78 79  1  0  0  0
 78 80  1  0  0  0
 78154  1  0  0  0
 79 83  1  0  0  0
 79155  1  0  0  0
 80 84  1  0  0  0
 80 88  1  0  0  0
 80156  1  0  0  0
 81157  1  0  0  0
 81158  1  0  0  0
 81159  1  0  0  0
 82160  1  0  0  0
 82161  1  0  0  0
 82162  1  0  0  0
 83 89  1  0  0  0
 83163  1  0  0  0
 83164  1  0  0  0
 84 90  1  0  0  0
 84165  1  0  0  0
 84166  1  0  0  0
 85 86  1  0  0  0
 85 87  1  0  0  0
 85167  1  0  0  0
 85168  1  0  0  0
 86 89  1  0  0  0
 86169  1  0  0  0
 86170  1  0  0  0
 87171  1  0  0  0
 88172  1  0  0  0
 88173  1  0  0  0
 89174  1  0  0  0
 89175  1  0  0  0
 90176  1  0  0  0
M  CHG  2  88   1  89   1
M  ISO  4   1 100  68 101  76 101  87 100
M  END
> <chiral flag>
0

> <version>
0

> <s_m_source_file>
/data/baiqing/PycharmProjects/Reinvent-master-3.2/result/LINK_invent/BTK/process_docking_weight1_custom_sum_contain_oxygen_bond_distance_aromatic_linkinvent_7_9_3/rearranged_h_0132.sdf

> <i_m_source_file_index>
67

> <r_mmod_Potential_Energy-OPLS-2005>
-426.831726074219

> <r_mmod_Stretch_Energy-OPLS-2005>
39.4629707336426

> <r_mmod_Bend_Energy-OPLS-2005>
129.957214355469

> <r_mmod_Torsional_Energy-OPLS-2005>
272.332122802734

> <r_mmod_Improper_Torsional_Energy-OPLS-2005>
2.97027540206909

> <r_mmod_Van_der_Waal_Energy-OPLS-2005>
148.742462158203

> <r_mmod_Electrostatic_Energy-OPLS-2005>
-11.3683443069458

> <r_mmod_Solvation_Energy-OPLS-2005>
-1019.81036376953

> <b_mmod_Minimization_Converged-OPLS-2005>
0

> <r_mmod_RMS_Derivative-OPLS-2005>
4.55062198638916

$$$$
69
                    3D
 Structure written by MMmdl.
158167  0  0  1  0            999 V2000
  -30.6453  -14.6438   20.4054 C   0  0  0  0  0  0
  -30.4289  -12.3764   19.4447 C   0  0  0  0  0  0
  -29.4965  -12.4565   18.2170 C   0  0  0  0  0  0
  -28.0201  -12.3164   18.6411 C   0  0  0  0  0  0
  -27.6414  -13.2065   19.8565 C   0  0  2  0  0  0
  -28.7001  -13.1307   20.9775 C   0  0  0  0  0  0
  -25.2544  -13.8133   20.5745 C   0  0  0  0  0  0
  -24.1804  -13.0411   20.9224 C   0  0  0  0  0  0
  -24.6367  -11.6880   20.8782 C   0  0  0  0  0  0
  -23.9040  -10.4272   21.0430 C   0  0  0  0  0  0
  -24.3598   -9.4188   21.9203 C   0  0  0  0  0  0
  -23.6279   -8.2223   22.0762 C   0  0  0  0  0  0
  -22.4265   -8.0268   21.3543 C   0  0  0  0  0  0
  -21.9894   -9.0244   20.4648 C   0  0  0  0  0  0
  -22.7220  -10.2125   20.3066 C   0  0  0  0  0  0
  -21.6847   -6.0729   22.5278 C   0  0  0  0  0  0
  -21.4012   -6.5637   23.8212 C   0  0  0  0  0  0
  -21.3661   -5.6791   24.9176 C   0  0  0  0  0  0
  -21.6044   -4.3052   24.7223 C   0  0  0  0  0  0
  -21.8819   -3.8144   23.4345 C   0  0  0  0  0  0
  -21.9190   -4.6960   22.3401 C   0  0  0  0  0  0
  -22.7831  -13.5222   21.1858 C   0  0  0  0  0  0
  -22.1660   -4.2148   21.0978 F   0  0  0  0  0  0
  -21.5629   -3.4535   25.7735 F   0  0  0  0  0  0
  -30.0047  -13.4353   20.3752 N   0  0  0  0  0  0
  -26.2948  -12.9281   20.3386 N   0  0  0  0  0  0
  -25.9293  -11.6453   20.5834 N   0  0  0  0  0  0
  -22.0458  -12.8232   22.0412 N   0  0  0  0  0  0
  -25.4264  -15.1859   20.4177 N   0  0  0  0  0  0
  -31.8668  -14.7294   20.2532 O   0  0  0  0  0  0
  -21.6631   -6.8867   21.4239 O   0  0  0  0  0  0
  -22.3534  -14.5531   20.6696 O   0  0  0  0  0  0
  -24.6235  -31.8621   23.2037 C   0  0  0  0  0  0
  -25.9091  -32.4792   23.8361 C   0  0  1  0  0  0
  -27.2275  -27.3467   20.1134 C   0  0  0  0  0  0
  -25.5913  -33.8591   24.2288 N   0  0  0  0  0  0
  -23.4158  -30.4859   21.5461 C   0  0  2  0  0  0
  -24.8612  -28.9438   20.1109 C   0  0  0  0  0  0
  -22.7459  -29.4634   22.4949 C   0  0  0  0  0  0
  -18.0282  -28.1383   22.8491 C   0  0  0  0  0  0
  -24.1483  -36.7298   23.2642 C   0  0  0  0  0  0
  -25.9538  -30.8026   21.3686 C   0  0  0  0  0  0
  -26.0286  -29.4319   20.7113 C   0  0  0  0  0  0
  -27.2142  -28.6448   20.7022 C   0  0  0  0  0  0
  -26.0371  -26.9031   19.4912 C   0  0  0  0  0  0
  -24.8662  -27.6834   19.4931 C   0  0  0  0  0  0
  -23.6274  -29.8199   20.1610 C   0  0  0  0  0  0
  -25.4108  -36.3092   24.0335 C   0  0  1  0  0  0
  -20.5882  -28.3681   23.1292 C   0  0  2  0  0  0
  -20.6768  -26.9409   22.5412 C   0  0  0  0  0  0
  -19.5741  -26.6383   21.5215 C   0  0  0  0  0  0
  -18.1923  -26.7925   22.1630 C   0  0  0  0  0  0
  -19.1536  -28.8850   23.2886 C   0  0  0  0  0  0
  -18.9463  -30.1451   23.8897 C   0  0  0  0  0  0
  -17.6465  -30.6586   24.0566 C   0  0  0  0  0  0
  -25.9049  -34.9459   23.5115 C   0  0  0  0  0  0
  -16.5354  -29.9086   23.6336 C   0  0  0  0  0  0
  -16.7271  -28.6506   23.0355 C   0  0  0  0  0  0
  -26.4481  -31.6597   25.0725 C   0  0  0  0  0  0
  -25.3720  -31.3728   26.1459 C   0  0  0  0  0  0
  -27.0321  -30.3026   24.6153 C   0  0  0  0  0  0
  -27.6043  -32.4333   25.7492 C   0  0  0  0  0  0
  -27.5576  -37.1805   24.8469 C   0  0  0  0  0  0
  -21.4176  -29.3039   22.3687 N   0  0  0  0  0  0
  -26.4287  -37.3786   23.9416 N   0  0  0  0  0  0
  -24.6833  -31.0656   22.0972 N   0  0  0  0  0  0
  -23.4197  -28.8182   23.3024 O   0  0  0  0  0  0
  -28.3605  -26.5282   20.1677 O   0  0  0  0  0  0
  -26.5617  -34.8925   22.4682 O   0  0  0  0  0  0
  -23.5406  -32.1403   23.7384 O   0  0  0  0  0  0
  -29.4045  -20.5789   18.9917 C   0  0  0  0  0  0
  -29.2665  -20.3272   21.3797 C   0  0  0  0  0  0
  -29.3704  -21.9934   19.1242 C   0  0  0  0  0  0
  -29.2293  -21.7483   21.5139 C   0  0  0  0  0  0
  -29.3635  -19.6995   20.1108 C   0  0  0  0  0  0
  -29.2811  -22.6173   20.3895 C   0  0  0  0  0  0
  -29.9537  -17.0787   20.8535 C   0  0  0  0  0  0
  -29.6441  -16.0668   18.7353 C   0  0  0  0  0  0
  -29.2738  -18.1378   19.9153 C   0  0  2  0  0  0
  -29.6764  -17.5888   18.5472 C   0  0  1  0  0  0
  -29.3688  -24.1737   20.5413 C   0  0  0  0  0  0
  -28.1817  -25.0729   20.0261 C   0  0  0  0  0  0
  -29.8569  -15.7458   20.1648 N   0  0  0  0  0  0
  -31.0023  -17.9465   18.1824 O   0  0  0  0  0  0
  -31.4702  -12.4896   19.1376 H   0  0  0  0  0  0
  -30.3560  -11.3997   19.9255 H   0  0  0  0  0  0
  -29.7519  -11.6728   17.5025 H   0  0  0  0  0  0
  -29.6434  -13.3980   17.6891 H   0  0  0  0  0  0
  -27.8546  -11.2678   18.8914 H   0  0  0  0  0  0
  -27.3630  -12.5316   17.7976 H   0  0  0  0  0  0
  -27.6203  -14.2269   19.4935 H   0  0  0  0  0  0
  -28.7151  -12.1414   21.4368 H   0  0  0  0  0  0
  -28.4677  -13.8420   21.7720 H   0  0  0  0  0  0
  -25.2740   -9.5673   22.4779 H   0  0  0  0  0  0
  -23.9988   -7.4615   22.7480 H   0  0  0  0  0  0
  -21.0826   -8.8763   19.8951 H   0  0  0  0  0  0
  -22.3680  -10.9671   19.6179 H   0  0  0  0  0  0
  -21.2008   -7.6145   23.9717 H   0  0  0  0  0  0
  -21.1485   -6.0520   25.9079 H   0  0  0  0  0  0
  -22.0598   -2.7605   23.2845 H   0  0  0  0  0  0
  -22.4054  -11.9895   22.4819 H   0  0  0  0  0  0
  -21.1076  -13.1279   22.2594 H   0  0  0  0  0  0
  -24.6642  -15.8432   20.5429 H   0  0  0  0  0  0
  -26.2902  -15.6295   20.1339 H   0  0  0  0  0  0
  -26.7162  -32.5469   23.1119 H   0  0  0  0  0  0
  -25.0052  -33.9736   25.0424 H   0  0  0  0  0  0
  -22.7086  -31.3058   21.4041 H   0  0  0  0  0  0
  -23.3744  -35.9634   23.3315 H   0  0  0  0  0  0
  -24.3573  -36.8902   22.2055 H   0  0  0  0  0  0
  -23.7231  -37.6504   23.6650 H   0  0  0  0  0  0
  -26.0787  -31.5666   20.6004 H   0  0  0  0  0  0
  -26.8369  -30.8523   21.9944 H   0  0  0  0  0  0
  -28.1107  -29.0161   21.1785 H   0  0  0  0  0  0
  -25.9857  -25.9399   19.0059 H   0  0  0  0  0  0
  -23.9714  -27.3024   19.0207 H   0  0  0  0  0  0
  -23.7425  -30.5956   19.4029 H   0  0  0  0  0  0
  -22.7480  -29.2462   19.8624 H   0  0  0  0  0  0
  -25.1283  -36.1953   25.0827 H   0  0  0  0  0  0
  -20.9977  -28.3251   24.1412 H   0  0  0  0  0  0
  -20.5668  -26.2294   23.3609 H   0  0  0  0  0  0
  -21.6637  -26.7436   22.1207 H   0  0  0  0  0  0
  -19.6904  -25.6296   21.1240 H   0  0  0  0  0  0
  -19.6676  -27.3198   20.6747 H   0  0  0  0  0  0
  -17.4194  -26.6681   21.4030 H   0  0  0  0  0  0
  -18.0319  -26.0060   22.9021 H   0  0  0  0  0  0
  -19.7938  -30.7267   24.2266 H   0  0  0  0  0  0
  -17.5020  -31.6266   24.5164 H   0  0  0  0  0  0
  -15.5354  -30.2993   23.7651 H   0  0  0  0  0  0
  -15.8671  -28.0823   22.7073 H   0  0  0  0  0  0
  -24.5900  -30.7066   25.7797 H   0  0  0  0  0  0
  -24.8904  -32.2891   26.4881 H   0  0  0  0  0  0
  -25.8055  -30.8918   27.0234 H   0  0  0  0  0  0
  -26.2887  -29.6786   24.1178 H   0  0  0  0  0  0
  -27.4032  -29.7271   25.4642 H   0  0  0  0  0  0
  -27.8745  -30.4328   23.9358 H   0  0  0  0  0  0
  -27.2651  -33.3633   26.2068 H   0  0  0  0  0  0
  -28.3849  -32.6896   25.0317 H   0  0  0  0  0  0
  -28.0712  -31.8461   26.5409 H   0  0  0  0  0  0
  -28.2605  -38.0092   24.7511 H   0  0  0  0  0  0
  -28.1059  -36.2625   24.6298 H   0  0  0  0  0  0
  -27.2298  -37.1462   25.8874 H   0  0  0  0  0  0
  -20.9352  -29.8760   21.6898 H   0  0  0  0  0  0
  -26.0172  -38.2865   24.1411 H   0  0  0  0  0  0
  -29.4575  -20.1759   17.9904 H   0  0  0  0  0  0
  -29.2036  -19.7159   22.2698 H   0  0  0  0  0  0
  -29.4278  -22.6043   18.2334 H   0  0  0  0  0  0
  -29.1737  -22.1724   22.5072 H   0  0  0  0  0  0
  -29.4757  -17.0459   21.8329 H   0  0  0  0  0  0
  -31.0046  -17.3298   21.0064 H   0  0  0  0  0  0
  -30.3513  -15.5676   18.0683 H   0  0  0  0  0  0
  -28.6584  -15.7177   18.4372 H   0  0  0  0  0  0
  -28.2019  -17.9491   20.0050 H   0  0  0  0  0  0
  -28.9874  -17.9053   17.7614 H   0  0  0  0  0  0
  -30.2791  -24.4914   20.0323 H   0  0  0  0  0  0
  -29.5382  -24.4001   21.5941 H   0  0  0  0  0  0
  -27.2847  -24.7630   20.5647 H   0  0  0  0  0  0
  -28.0110  -24.8506   18.9722 H   0  0  0  0  0  0
  -31.1634  -17.6214   17.3020 H   0  0  0  0  0  0
  1 25  1  0  0  0
  1 30  2  0  0  0
  1 83  1  0  0  0
  2  3  1  0  0  0
  2 25  1  0  0  0
  2 85  1  0  0  0
  2 86  1  0  0  0
  3  4  1  0  0  0
  3 87  1  0  0  0
  3 88  1  0  0  0
  4  5  1  0  0  0
  4 89  1  0  0  0
  4 90  1  0  0  0
  5  6  1  0  0  0
  5 26  1  0  0  0
  5 91  1  0  0  0
  6 25  1  0  0  0
  6 92  1  0  0  0
  6 93  1  0  0  0
  7  8  2  0  0  0
  7 26  1  0  0  0
  7 29  1  0  0  0
  8  9  1  0  0  0
  8 22  1  0  0  0
  9 10  1  0  0  0
  9 27  2  0  0  0
 10 11  2  0  0  0
 10 15  1  0  0  0
 11 12  1  0  0  0
 11 94  1  0  0  0
 12 13  2  0  0  0
 12 95  1  0  0  0
 13 14  1  0  0  0
 13 31  1  0  0  0
 14 15  2  0  0  0
 14 96  1  0  0  0
 15 97  1  0  0  0
 16 17  2  0  0  0
 16 21  1  0  0  0
 16 31  1  0  0  0
 17 18  1  0  0  0
 17 98  1  0  0  0
 18 19  2  0  0  0
 18 99  1  0  0  0
 19 20  1  0  0  0
 19 24  1  0  0  0
 20 21  2  0  0  0
 20100  1  0  0  0
 21 23  1  0  0  0
 22 28  1  0  0  0
 22 32  2  0  0  0
 26 27  1  0  0  0
 28101  1  0  0  0
 28102  1  0  0  0
 29103  1  0  0  0
 29104  1  0  0  0
 33 34  1  0  0  0
 33 66  1  0  0  0
 33 70  2  0  0  0
 34 36  1  0  0  0
 34 59  1  0  0  0
 34105  1  0  0  0
 35 44  2  0  0  0
 35 45  1  0  0  0
 35 68  1  0  0  0
 36 56  1  0  0  0
 36106  1  0  0  0
 37 39  1  0  0  0
 37 47  1  0  0  0
 37 66  1  0  0  0
 37107  1  0  0  0
 38 43  2  0  0  0
 38 46  1  0  0  0
 38 47  1  0  0  0
 39 64  1  0  0  0
 39 67  2  0  0  0
 40 52  1  0  0  0
 40 53  2  0  0  0
 40 58  1  0  0  0
 41108  1  0  0  0
 41109  1  0  0  0
 41110  1  0  0  0
 41 48  1  0  0  0
 42 43  1  0  0  0
 42 66  1  0  0  0
 42111  1  0  0  0
 42112  1  0  0  0
 43 44  1  0  0  0
 44113  1  0  0  0
 45 46  2  0  0  0
 45114  1  0  0  0
 46115  1  0  0  0
 47116  1  0  0  0
 47117  1  0  0  0
 48 56  1  0  0  0
 48 65  1  0  0  0
 48118  1  0  0  0
 49 50  1  0  0  0
 49 53  1  0  0  0
 49 64  1  0  0  0
 49119  1  0  0  0
 50 51  1  0  0  0
 50120  1  0  0  0
 50121  1  0  0  0
 51 52  1  0  0  0
 51122  1  0  0  0
 51123  1  0  0  0
 52124  1  0  0  0
 52125  1  0  0  0
 53 54  1  0  0  0
 54 55  2  0  0  0
 54126  1  0  0  0
 55 57  1  0  0  0
 55127  1  0  0  0
 56 69  2  0  0  0
 57 58  2  0  0  0
 57128  1  0  0  0
 58129  1  0  0  0
 59 60  1  0  0  0
 59 61  1  0  0  0
 59 62  1  0  0  0
 60130  1  0  0  0
 60131  1  0  0  0
 60132  1  0  0  0
 61133  1  0  0  0
 61134  1  0  0  0
 61135  1  0  0  0
 62136  1  0  0  0
 62137  1  0  0  0
 62138  1  0  0  0
 63 65  1  0  0  0
 63139  1  0  0  0
 63140  1  0  0  0
 63141  1  0  0  0
 64142  1  0  0  0
 65143  1  0  0  0
 68 82  1  0  0  0
 71 73  2  0  0  0
 71 75  1  0  0  0
 71144  1  0  0  0
 72 74  1  0  0  0
 72 75  2  0  0  0
 72145  1  0  0  0
 73 76  1  0  0  0
 73146  1  0  0  0
 74 76  2  0  0  0
 74147  1  0  0  0
 75 79  1  0  0  0
 76 81  1  0  0  0
 77 79  1  0  0  0
 77 83  1  0  0  0
 77148  1  0  0  0
 77149  1  0  0  0
 78 80  1  0  0  0
 78 83  1  0  0  0
 78150  1  0  0  0
 78151  1  0  0  0
 79 80  1  0  0  0
 79152  1  0  0  0
 80 84  1  0  0  0
 80153  1  0  0  0
 81 82  1  0  0  0
 81154  1  0  0  0
 81155  1  0  0  0
 82156  1  0  0  0
 82157  1  0  0  0
 84158  1  0  0  0
M  ISO  4   1 100  68 101  82 101  83 100
M  END
> <chiral flag>
0

> <version>
0

> <s_m_source_file>
/data/baiqing/PycharmProjects/Reinvent-master-3.2/result/LINK_invent/BTK/process_docking_weight1_custom_sum_contain_oxygen_bond_distance_aromatic_linkinvent_7_9_3/rearranged_h_0132.sdf

> <i_m_source_file_index>
68

> <r_mmod_Potential_Energy-OPLS-2005>
246.510650634766

> <r_mmod_Stretch_Energy-OPLS-2005>
69.1294097900391

> <r_mmod_Bend_Energy-OPLS-2005>
157.837997436523

> <r_mmod_Torsional_Energy-OPLS-2005>
346.887115478516

> <r_mmod_Improper_Torsional_Energy-OPLS-2005>
17.4794826507568

> <r_mmod_Van_der_Waal_Energy-OPLS-2005>
140.958358764648

> <r_mmod_Electrostatic_Energy-OPLS-2005>
-315.320953369141

> <r_mmod_Solvation_Energy-OPLS-2005>
-223.814605712891

> <b_mmod_Minimization_Converged-OPLS-2005>
0

> <r_mmod_RMS_Derivative-OPLS-2005>
0.802002906799316

$$$$
70
                    3D
 Structure written by MMmdl.
163171  0  0  1  0            999 V2000
  -30.7374  -14.4119   20.5720 C   0  0  0  0  0  0
  -30.4246  -12.2725   19.4093 C   0  0  0  0  0  0
  -29.4922  -12.4947   18.2023 C   0  0  0  0  0  0
  -28.0159  -12.3540   18.6218 C   0  0  0  0  0  0
  -27.6699  -13.1966   19.8783 C   0  0  2  0  0  0
  -28.7167  -12.9635   20.9952 C   0  0  0  0  0  0
  -25.2628  -13.8162   20.5670 C   0  0  0  0  0  0
  -24.1861  -13.0454   20.9168 C   0  0  0  0  0  0
  -24.6397  -11.6911   20.8747 C   0  0  0  0  0  0
  -23.9066  -10.4298   21.0417 C   0  0  0  0  0  0
  -24.3595   -9.4223   21.9204 C   0  0  0  0  0  0
  -23.6272   -8.2262   22.0775 C   0  0  0  0  0  0
  -22.4276   -8.0290   21.3556 C   0  0  0  0  0  0
  -21.9896   -9.0264   20.4668 C   0  0  0  0  0  0
  -22.7221  -10.2145   20.3092 C   0  0  0  0  0  0
  -21.6860   -6.0740   22.5290 C   0  0  0  0  0  0
  -21.4014   -6.5627   23.8224 C   0  0  0  0  0  0
  -21.3661   -5.6783   24.9182 C   0  0  0  0  0  0
  -21.6040   -4.3050   24.7226 C   0  0  0  0  0  0
  -21.8827   -3.8146   23.4347 C   0  0  0  0  0  0
  -21.9186   -4.6968   22.3410 C   0  0  0  0  0  0
  -22.7883  -13.5284   21.1766 C   0  0  0  0  0  0
  -22.1676   -4.2157   21.0993 F   0  0  0  0  0  0
  -21.5613   -3.4528   25.7740 F   0  0  0  0  0  0
  -30.0535  -13.2476   20.4441 N   0  0  0  0  0  0
  -26.3070  -12.9309   20.3399 N   0  0  0  0  0  0
  -25.9333  -11.6475   20.5807 N   0  0  0  0  0  0
  -22.0456  -12.8343   22.0330 N   0  0  0  0  0  0
  -25.4339  -15.1855   20.4032 N   0  0  0  0  0  0
  -31.8499  -14.6075   20.0760 O   0  0  0  0  0  0
  -21.6648   -6.8885   21.4254 O   0  0  0  0  0  0
  -22.3606  -14.5581   20.6581 O   0  0  0  0  0  0
  -24.6085  -31.8721   23.2141 C   0  0  0  0  0  0
  -25.9014  -32.4836   23.8407 C   0  0  1  0  0  0
  -27.2303  -27.4863   20.0789 C   0  0  0  0  0  0
  -25.5907  -33.8633   24.2329 N   0  0  0  0  0  0
  -23.3935  -30.4956   21.5536 C   0  0  2  0  0  0
  -24.8382  -28.9705   20.1109 C   0  0  0  0  0  0
  -22.7373  -29.4675   22.5008 C   0  0  0  0  0  0
  -18.0260  -28.1376   22.8504 C   0  0  0  0  0  0
  -24.1490  -36.7304   23.2627 C   0  0  0  0  0  0
  -25.9165  -30.8508   21.3626 C   0  0  0  0  0  0
  -25.9939  -29.4886   20.7114 C   0  0  0  0  0  0
  -27.1923  -28.7493   20.7015 C   0  0  0  0  0  0
  -26.0694  -26.9805   19.4598 C   0  0  0  0  0  0
  -24.8684  -27.7119   19.4856 C   0  0  0  0  0  0
  -23.5960  -29.8288   20.1671 C   0  0  0  0  0  0
  -25.4112  -36.3090   24.0324 C   0  0  1  0  0  0
  -20.5851  -28.3663   23.1339 C   0  0  2  0  0  0
  -20.6760  -26.9409   22.5422 C   0  0  0  0  0  0
  -19.5742  -26.6395   21.5213 C   0  0  0  0  0  0
  -18.1918  -26.7934   22.1623 C   0  0  0  0  0  0
  -19.1508  -28.8830   23.2921 C   0  0  0  0  0  0
  -18.9439  -30.1441   23.8921 C   0  0  0  0  0  0
  -17.6446  -30.6591   24.0564 C   0  0  0  0  0  0
  -25.9042  -34.9467   23.5105 C   0  0  0  0  0  0
  -16.5336  -29.9094   23.6326 C   0  0  0  0  0  0
  -16.7251  -28.6506   23.0354 C   0  0  0  0  0  0
  -26.4475  -31.6598   25.0706 C   0  0  0  0  0  0
  -25.3777  -31.3722   26.1486 C   0  0  0  0  0  0
  -27.0275  -30.3042   24.6023 C   0  0  0  0  0  0
  -27.6057  -32.4323   25.7460 C   0  0  0  0  0  0
  -27.5579  -37.1802   24.8469 C   0  0  0  0  0  0
  -21.4101  -29.3035   22.3747 N   0  0  0  0  0  0
  -26.4292  -37.3782   23.9407 N   0  0  0  0  0  0
  -24.6574  -31.0856   22.1023 N   0  0  0  0  0  0
  -23.4156  -28.8223   23.3045 O   0  0  0  0  0  0
  -28.3994  -26.7725   20.0653 O   0  0  0  0  0  0
  -26.5583  -34.8923   22.4653 O   0  0  0  0  0  0
  -23.5302  -32.1459   23.7571 O   0  0  0  0  0  0
  -26.6789  -23.9037   20.4205 C   0  0  0  0  0  0
  -28.8125  -23.4303   19.9884 C   0  0  0  0  0  0
  -28.0086  -24.4058   20.5030 C   0  0  0  0  0  0
  -26.6969  -22.6830   19.8072 C   0  0  0  0  0  0
  -24.4693  -22.5323   18.6180 C   0  0  0  0  0  0
  -28.4521  -25.7422   21.0469 C   0  0  0  0  0  0
  -25.5420  -21.7989   19.4331 C   0  0  0  0  0  0
  -28.5754  -21.1305   19.0248 C   0  0  0  0  0  0
  -30.3587  -16.8379   20.9067 C   0  0  0  0  0  0
  -28.3143  -19.9134   19.9354 C   0  0  0  0  0  0
  -29.1073  -17.6318   20.4842 C   0  0  0  0  0  0
  -28.0322  -22.3600   19.5880 N   0  0  0  0  0  0
  -30.0429  -15.4211   21.1116 N   0  0  0  0  0  0
  -29.4499  -18.9696   19.9580 N   0  3  0  0  0  0
  -30.3209  -11.2609   19.7999 H   0  0  0  0  0  0
  -31.4689  -12.3570   19.0974 H   0  0  0  0  0  0
  -29.7229  -11.7787   17.4126 H   0  0  0  0  0  0
  -29.6641  -13.4842   17.7730 H   0  0  0  0  0  0
  -27.8241  -11.2972   18.8174 H   0  0  0  0  0  0
  -27.3618  -12.6265   17.7941 H   0  0  0  0  0  0
  -27.7204  -14.2459   19.5826 H   0  0  0  0  0  0
  -28.6826  -11.9265   21.3361 H   0  0  0  0  0  0
  -28.4862  -13.5656   21.8735 H   0  0  0  0  0  0
  -25.2736   -9.5687   22.4771 H   0  0  0  0  0  0
  -23.9960   -7.4654   22.7508 H   0  0  0  0  0  0
  -21.0824   -8.8784   19.8974 H   0  0  0  0  0  0
  -22.3679  -10.9671   19.6203 H   0  0  0  0  0  0
  -21.2029   -7.6132   23.9735 H   0  0  0  0  0  0
  -21.1473   -6.0504   25.9082 H   0  0  0  0  0  0
  -22.0601   -2.7603   23.2855 H   0  0  0  0  0  0
  -22.4007  -12.0047   22.4823 H   0  0  0  0  0  0
  -21.1101  -13.1471   22.2500 H   0  0  0  0  0  0
  -24.6499  -15.8265   20.4671 H   0  0  0  0  0  0
  -26.2604  -15.6090   20.0025 H   0  0  0  0  0  0
  -26.7083  -32.5546   23.1182 H   0  0  0  0  0  0
  -25.0141  -33.9838   25.0529 H   0  0  0  0  0  0
  -22.6802  -31.3111   21.4189 H   0  0  0  0  0  0
  -23.3745  -35.9650   23.3301 H   0  0  0  0  0  0
  -24.3605  -36.8900   22.2044 H   0  0  0  0  0  0
  -23.7269  -37.6521   23.6637 H   0  0  0  0  0  0
  -26.0199  -31.6162   20.5917 H   0  0  0  0  0  0
  -26.8099  -30.9049   21.9712 H   0  0  0  0  0  0
  -28.0870  -29.1423   21.1640 H   0  0  0  0  0  0
  -26.0957  -26.0288   18.9522 H   0  0  0  0  0  0
  -23.9833  -27.3129   19.0073 H   0  0  0  0  0  0
  -23.6930  -30.6035   19.4056 H   0  0  0  0  0  0
  -22.7217  -29.2416   19.8780 H   0  0  0  0  0  0
  -25.1290  -36.1951   25.0820 H   0  0  0  0  0  0
  -20.9950  -28.3221   24.1454 H   0  0  0  0  0  0
  -20.5677  -26.2266   23.3602 H   0  0  0  0  0  0
  -21.6638  -26.7478   22.1209 H   0  0  0  0  0  0
  -19.6922  -25.6304   21.1239 H   0  0  0  0  0  0
  -19.6693  -27.3210   20.6743 H   0  0  0  0  0  0
  -17.4196  -26.6683   21.4010 H   0  0  0  0  0  0
  -18.0323  -26.0068   22.9001 H   0  0  0  0  0  0
  -19.7908  -30.7247   24.2321 H   0  0  0  0  0  0
  -17.5000  -31.6286   24.5132 H   0  0  0  0  0  0
  -15.5336  -30.2997   23.7645 H   0  0  0  0  0  0
  -15.8655  -28.0821   22.7073 H   0  0  0  0  0  0
  -24.5961  -30.7035   25.7865 H   0  0  0  0  0  0
  -24.8967  -32.2885   26.4907 H   0  0  0  0  0  0
  -25.8180  -30.8947   27.0245 H   0  0  0  0  0  0
  -26.2790  -29.6850   24.1063 H   0  0  0  0  0  0
  -27.4051  -29.7227   25.4431 H   0  0  0  0  0  0
  -27.8615  -30.4368   23.9136 H   0  0  0  0  0  0
  -27.2672  -33.3618   26.2067 H   0  0  0  0  0  0
  -28.3854  -32.6913   25.0275 H   0  0  0  0  0  0
  -28.0741  -31.8436   26.5358 H   0  0  0  0  0  0
  -28.2600  -38.0090   24.7496 H   0  0  0  0  0  0
  -28.1065  -36.2618   24.6312 H   0  0  0  0  0  0
  -27.2295  -37.1474   25.8873 H   0  0  0  0  0  0
  -20.9237  -29.8753   21.6981 H   0  0  0  0  0  0
  -26.0162  -38.2848   24.1425 H   0  0  0  0  0  0
  -25.7804  -24.4091   20.7464 H   0  0  0  0  0  0
  -29.8902  -23.4064   19.8789 H   0  0  0  0  0  0
  -23.6241  -21.8762   18.4014 H   0  0  0  0  0  0
  -24.8718  -22.8775   17.6655 H   0  0  0  0  0  0
  -24.0790  -23.3988   19.1528 H   0  0  0  0  0  0
  -27.8622  -25.9950   21.9304 H   0  0  0  0  0  0
  -29.4851  -25.6600   21.3867 H   0  0  0  0  0  0
  -25.0949  -21.3988   20.3443 H   0  0  0  0  0  0
  -25.8730  -20.9386   18.8558 H   0  0  0  0  0  0
  -28.1481  -20.9705   18.0343 H   0  0  0  0  0  0
  -29.6454  -21.2796   18.8753 H   0  0  0  0  0  0
  -30.7691  -17.2456   21.8312 H   0  0  0  0  0  0
  -31.1320  -16.9648   20.1465 H   0  0  0  0  0  0
  -27.4156  -19.3989   19.5908 H   0  0  0  0  0  0
  -28.1122  -20.2324   20.9593 H   0  0  0  0  0  0
  -28.4409  -17.7313   21.3439 H   0  0  0  0  0  0
  -28.5516  -17.0956   19.7122 H   0  0  0  0  0  0
  -29.1481  -15.1867   21.5134 H   0  0  0  0  0  0
  -29.8048  -18.8563   19.0217 H   0  0  0  0  0  0
  -30.1836  -19.3727   20.5176 H   0  0  0  0  0  0
  1 25  1  0  0  0
  1 30  2  0  0  0
  1 83  1  0  0  0
  2  3  1  0  0  0
  2 25  1  0  0  0
  2 85  1  0  0  0
  2 86  1  0  0  0
  3  4  1  0  0  0
  3 87  1  0  0  0
  3 88  1  0  0  0
  4  5  1  0  0  0
  4 89  1  0  0  0
  4 90  1  0  0  0
  5  6  1  0  0  0
  5 26  1  0  0  0
  5 91  1  0  0  0
  6 25  1  0  0  0
  6 92  1  0  0  0
  6 93  1  0  0  0
  7  8  2  0  0  0
  7 26  1  0  0  0
  7 29  1  0  0  0
  8  9  1  0  0  0
  8 22  1  0  0  0
  9 10  1  0  0  0
  9 27  2  0  0  0
 10 11  2  0  0  0
 10 15  1  0  0  0
 11 12  1  0  0  0
 11 94  1  0  0  0
 12 13  2  0  0  0
 12 95  1  0  0  0
 13 14  1  0  0  0
 13 31  1  0  0  0
 14 15  2  0  0  0
 14 96  1  0  0  0
 15 97  1  0  0  0
 16 17  2  0  0  0
 16 21  1  0  0  0
 16 31  1  0  0  0
 17 18  1  0  0  0
 17 98  1  0  0  0
 18 19  2  0  0  0
 18 99  1  0  0  0
 19 20  1  0  0  0
 19 24  1  0  0  0
 20 21  2  0  0  0
 20100  1  0  0  0
 21 23  1  0  0  0
 22 28  1  0  0  0
 22 32  2  0  0  0
 26 27  1  0  0  0
 28101  1  0  0  0
 28102  1  0  0  0
 29103  1  0  0  0
 29104  1  0  0  0
 33 34  1  0  0  0
 33 66  1  0  0  0
 33 70  2  0  0  0
 34 36  1  0  0  0
 34 59  1  0  0  0
 34105  1  0  0  0
 35 44  2  0  0  0
 35 45  1  0  0  0
 35 68  1  0  0  0
 36 56  1  0  0  0
 36106  1  0  0  0
 37 39  1  0  0  0
 37 47  1  0  0  0
 37 66  1  0  0  0
 37107  1  0  0  0
 38 43  2  0  0  0
 38 46  1  0  0  0
 38 47  1  0  0  0
 39 64  1  0  0  0
 39 67  2  0  0  0
 40 52  1  0  0  0
 40 53  2  0  0  0
 40 58  1  0  0  0
 41108  1  0  0  0
 41109  1  0  0  0
 41110  1  0  0  0
 41 48  1  0  0  0
 42 43  1  0  0  0
 42 66  1  0  0  0
 42111  1  0  0  0
 42112  1  0  0  0
 43 44  1  0  0  0
 44113  1  0  0  0
 45 46  2  0  0  0
 45114  1  0  0  0
 46115  1  0  0  0
 47116  1  0  0  0
 47117  1  0  0  0
 48 56  1  0  0  0
 48 65  1  0  0  0
 48118  1  0  0  0
 49 50  1  0  0  0
 49 53  1  0  0  0
 49 64  1  0  0  0
 49119  1  0  0  0
 50 51  1  0  0  0
 50120  1  0  0  0
 50121  1  0  0  0
 51 52  1  0  0  0
 51122  1  0  0  0
 51123  1  0  0  0
 52124  1  0  0  0
 52125  1  0  0  0
 53 54  1  0  0  0
 54 55  2  0  0  0
 54126  1  0  0  0
 55 57  1  0  0  0
 55127  1  0  0  0
 56 69  2  0  0  0
 57 58  2  0  0  0
 57128  1  0  0  0
 58129  1  0  0  0
 59 60  1  0  0  0
 59 61  1  0  0  0
 59 62  1  0  0  0
 60130  1  0  0  0
 60131  1  0  0  0
 60132  1  0  0  0
 61133  1  0  0  0
 61134  1  0  0  0
 61135  1  0  0  0
 62136  1  0  0  0
 62137  1  0  0  0
 62138  1  0  0  0
 63 65  1  0  0  0
 63139  1  0  0  0
 63140  1  0  0  0
 63141  1  0  0  0
 64142  1  0  0  0
 65143  1  0  0  0
 68 76  1  0  0  0
 71 73  1  0  0  0
 71 74  2  0  0  0
 71144  1  0  0  0
 72 73  2  0  0  0
 72 82  1  0  0  0
 72145  1  0  0  0
 73 76  1  0  0  0
 74 77  1  0  0  0
 74 82  1  0  0  0
 75 77  1  0  0  0
 75146  1  0  0  0
 75147  1  0  0  0
 75148  1  0  0  0
 76149  1  0  0  0
 76150  1  0  0  0
 77151  1  0  0  0
 77152  1  0  0  0
 78 80  1  0  0  0
 78 82  1  0  0  0
 78153  1  0  0  0
 78154  1  0  0  0
 79 81  1  0  0  0
 79 83  1  0  0  0
 79155  1  0  0  0
 79156  1  0  0  0
 80 84  1  0  0  0
 80157  1  0  0  0
 80158  1  0  0  0
 81 84  1  0  0  0
 81159  1  0  0  0
 81160  1  0  0  0
 83161  1  0  0  0
 84162  1  0  0  0
 84163  1  0  0  0
M  CHG  1  84   1
M  ISO  4   1 100  68 101  76 101  83 100
M  END
> <chiral flag>
0

> <version>
0

> <s_m_source_file>
/data/baiqing/PycharmProjects/Reinvent-master-3.2/result/LINK_invent/BTK/process_docking_weight1_custom_sum_contain_oxygen_bond_distance_aromatic_linkinvent_7_9_3/rearranged_h_0132.sdf

> <i_m_source_file_index>
69

> <r_mmod_Potential_Energy-OPLS-2005>
-291.76806640625

> <r_mmod_Stretch_Energy-OPLS-2005>
29.3954696655273

> <r_mmod_Bend_Energy-OPLS-2005>
85.8877792358398

> <r_mmod_Torsional_Energy-OPLS-2005>
263.852172851562

> <r_mmod_Improper_Torsional_Energy-OPLS-2005>
5.17459917068481

> <r_mmod_Van_der_Waal_Energy-OPLS-2005>
127.404602050781

> <r_mmod_Electrostatic_Energy-OPLS-2005>
-303.687744140625

> <r_mmod_Solvation_Energy-OPLS-2005>
-509.152679443359

> <b_mmod_Minimization_Converged-OPLS-2005>
0

> <r_mmod_RMS_Derivative-OPLS-2005>
3.52268981933594

$$$$
71
                    3D
 Structure written by MMmdl.
163171  0  0  1  0            999 V2000
  -30.7808  -14.3458   20.6948 C   0  0  0  0  0  0
  -30.4177  -12.2853   19.3962 C   0  0  0  0  0  0
  -29.4855  -12.5275   18.1952 C   0  0  0  0  0  0
  -28.0100  -12.3823   18.6113 C   0  0  0  0  0  0
  -27.6682  -13.2024   19.8826 C   0  0  2  0  0  0
  -28.7051  -12.9450   20.9992 C   0  0  0  0  0  0
  -25.2610  -13.8156   20.5660 C   0  0  0  0  0  0
  -24.1855  -13.0441   20.9181 C   0  0  0  0  0  0
  -24.6406  -11.6910   20.8739 C   0  0  0  0  0  0
  -23.9070  -10.4297   21.0408 C   0  0  0  0  0  0
  -24.3621   -9.4211   21.9185 C   0  0  0  0  0  0
  -23.6296   -8.2247   22.0754 C   0  0  0  0  0  0
  -22.4277   -8.0286   21.3545 C   0  0  0  0  0  0
  -21.9915   -9.0261   20.4646 C   0  0  0  0  0  0
  -22.7245  -10.2142   20.3058 C   0  0  0  0  0  0
  -21.6850   -6.0743   22.5281 C   0  0  0  0  0  0
  -21.4012   -6.5644   23.8214 C   0  0  0  0  0  0
  -21.3654   -5.6796   24.9173 C   0  0  0  0  0  0
  -21.6043   -4.3058   24.7224 C   0  0  0  0  0  0
  -21.8820   -3.8153   23.4342 C   0  0  0  0  0  0
  -21.9196   -4.6972   22.3400 C   0  0  0  0  0  0
  -22.7880  -13.5248   21.1838 C   0  0  0  0  0  0
  -22.1664   -4.2159   21.0977 F   0  0  0  0  0  0
  -21.5627   -3.4538   25.7734 F   0  0  0  0  0  0
  -30.0529  -13.2241   20.4668 N   0  0  0  0  0  0
  -26.3052  -12.9321   20.3383 N   0  0  0  0  0  0
  -25.9331  -11.6483   20.5766 N   0  0  0  0  0  0
  -22.0510  -12.8239   22.0388 N   0  0  0  0  0  0
  -25.4331  -15.1864   20.3998 N   0  0  0  0  0  0
  -31.7788  -14.6572   20.0389 O   0  0  0  0  0  0
  -21.6637   -6.8885   21.4243 O   0  0  0  0  0  0
  -22.3576  -14.5556   20.6689 O   0  0  0  0  0  0
  -24.6103  -31.8699   23.2145 C   0  0  0  0  0  0
  -25.9016  -32.4830   23.8419 C   0  0  1  0  0  0
  -27.2391  -27.4832   20.0873 C   0  0  0  0  0  0
  -25.5900  -33.8631   24.2360 N   0  0  0  0  0  0
  -23.3961  -30.4947   21.5527 C   0  0  2  0  0  0
  -24.8447  -28.9657   20.1166 C   0  0  0  0  0  0
  -22.7378  -29.4671   22.5002 C   0  0  0  0  0  0
  -18.0260  -28.1374   22.8493 C   0  0  0  0  0  0
  -24.1480  -36.7305   23.2638 C   0  0  0  0  0  0
  -25.9201  -30.8498   21.3623 C   0  0  0  0  0  0
  -25.9998  -29.4875   20.7127 C   0  0  0  0  0  0
  -27.2005  -28.7504   20.7012 C   0  0  0  0  0  0
  -26.0763  -26.9695   19.4772 C   0  0  0  0  0  0
  -24.8739  -27.7014   19.5014 C   0  0  0  0  0  0
  -23.6033  -29.8258   20.1674 C   0  0  0  0  0  0
  -25.4099  -36.3120   24.0346 C   0  0  1  0  0  0
  -20.5845  -28.3654   23.1327 C   0  0  2  0  0  0
  -20.6756  -26.9395   22.5419 C   0  0  0  0  0  0
  -19.5746  -26.6389   21.5207 C   0  0  0  0  0  0
  -18.1917  -26.7929   22.1608 C   0  0  0  0  0  0
  -19.1509  -28.8828   23.2915 C   0  0  0  0  0  0
  -18.9445  -30.1438   23.8926 C   0  0  0  0  0  0
  -17.6450  -30.6588   24.0561 C   0  0  0  0  0  0
  -25.9026  -34.9480   23.5144 C   0  0  0  0  0  0
  -16.5338  -29.9095   23.6320 C   0  0  0  0  0  0
  -16.7251  -28.6507   23.0346 C   0  0  0  0  0  0
  -26.4459  -31.6594   25.0727 C   0  0  0  0  0  0
  -25.3740  -31.3658   26.1482 C   0  0  0  0  0  0
  -27.0291  -30.3049   24.6060 C   0  0  0  0  0  0
  -27.6065  -32.4291   25.7466 C   0  0  0  0  0  0
  -27.5580  -37.1803   24.8464 C   0  0  0  0  0  0
  -21.4112  -29.3025   22.3734 N   0  0  0  0  0  0
  -26.4286  -37.3805   23.9424 N   0  0  0  0  0  0
  -24.6602  -31.0839   22.1026 N   0  0  0  0  0  0
  -23.4164  -28.8215   23.3033 O   0  0  0  0  0  0
  -28.4116  -26.7754   20.0652 O   0  0  0  0  0  0
  -26.5573  -34.8921   22.4697 O   0  0  0  0  0  0
  -23.5312  -32.1427   23.7573 O   0  0  0  0  0  0
  -28.4923  -23.6215   19.6225 C   0  0  0  0  0  0
  -26.5227  -24.0848   20.9762 C   0  0  0  0  0  0
  -27.8972  -22.4340   19.1610 C   0  0  0  0  0  0
  -25.9189  -22.9058   20.4970 C   0  0  0  0  0  0
  -27.8135  -24.4465   20.5381 C   0  0  0  0  0  0
  -26.6069  -22.0566   19.6079 C   0  0  0  0  0  0
  -28.4737  -25.7239   21.0236 C   0  0  0  0  0  0
  -27.4643  -19.2235   20.2461 C   0  0  0  0  0  0
  -31.0344  -16.3298   22.1648 C   0  0  0  0  0  0
  -28.7957  -18.4958   20.0027 C   0  0  0  0  0  0
  -30.7252  -17.5205   21.2380 C   0  0  0  0  0  0
  -26.8132  -19.7590   18.9531 C   0  0  0  0  0  0
  -30.3686  -15.1012   21.7219 N   0  0  0  0  0  0
  -29.2824  -17.8333   21.2315 N   0  3  0  0  0  0
  -25.9831  -20.8856   19.2357 O   0  0  0  0  0  0
  -31.4604  -12.3874   19.0897 H   0  0  0  0  0  0
  -30.3180  -11.2608   19.7576 H   0  0  0  0  0  0
  -29.7173  -11.8280   17.3911 H   0  0  0  0  0  0
  -29.6569  -13.5267   17.7916 H   0  0  0  0  0  0
  -27.8141  -11.3237   18.7876 H   0  0  0  0  0  0
  -27.3583  -12.6787   17.7886 H   0  0  0  0  0  0
  -27.7273  -14.2562   19.6107 H   0  0  0  0  0  0
  -28.6615  -11.9038   21.3215 H   0  0  0  0  0  0
  -28.4520  -13.5292   21.8838 H   0  0  0  0  0  0
  -25.2768   -9.5679   22.4758 H   0  0  0  0  0  0
  -24.0004   -7.4633   22.7469 H   0  0  0  0  0  0
  -21.0849   -8.8785   19.8944 H   0  0  0  0  0  0
  -22.3710  -10.9684   19.6166 H   0  0  0  0  0  0
  -21.2002   -7.6150   23.9722 H   0  0  0  0  0  0
  -21.1469   -6.0519   25.9076 H   0  0  0  0  0  0
  -22.0604   -2.7616   23.2838 H   0  0  0  0  0  0
  -22.4111  -11.9895   22.4770 H   0  0  0  0  0  0
  -21.1129  -13.1266   22.2581 H   0  0  0  0  0  0
  -24.6507  -15.8286   20.4621 H   0  0  0  0  0  0
  -26.2562  -15.6027   19.9863 H   0  0  0  0  0  0
  -26.7094  -32.5551   23.1197 H   0  0  0  0  0  0
  -25.0108  -33.9806   25.0545 H   0  0  0  0  0  0
  -22.6844  -31.3110   21.4138 H   0  0  0  0  0  0
  -23.3748  -35.9629   23.3305 H   0  0  0  0  0  0
  -24.3591  -36.8911   22.2055 H   0  0  0  0  0  0
  -23.7214  -37.6506   23.6644 H   0  0  0  0  0  0
  -26.0226  -31.6165   20.5936 H   0  0  0  0  0  0
  -26.8112  -30.9070   21.9745 H   0  0  0  0  0  0
  -28.0940  -29.1493   21.1595 H   0  0  0  0  0  0
  -26.0994  -26.0088   18.9822 H   0  0  0  0  0  0
  -23.9879  -27.2946   19.0342 H   0  0  0  0  0  0
  -23.7073  -30.5992   19.4058 H   0  0  0  0  0  0
  -22.7297  -29.2410   19.8732 H   0  0  0  0  0  0
  -25.1266  -36.1994   25.0838 H   0  0  0  0  0  0
  -20.9939  -28.3219   24.1445 H   0  0  0  0  0  0
  -20.5654  -26.2261   23.3604 H   0  0  0  0  0  0
  -21.6634  -26.7452   22.1223 H   0  0  0  0  0  0
  -19.6910  -25.6309   21.1224 H   0  0  0  0  0  0
  -19.6695  -27.3211   20.6752 H   0  0  0  0  0  0
  -17.4195  -26.6688   21.3996 H   0  0  0  0  0  0
  -18.0304  -26.0058   22.8985 H   0  0  0  0  0  0
  -19.7923  -30.7234   24.2321 H   0  0  0  0  0  0
  -17.5010  -31.6274   24.5155 H   0  0  0  0  0  0
  -15.5343  -30.3008   23.7639 H   0  0  0  0  0  0
  -15.8647  -28.0842   22.7053 H   0  0  0  0  0  0
  -24.5987  -30.6911   25.7832 H   0  0  0  0  0  0
  -24.8822  -32.2777   26.4886 H   0  0  0  0  0  0
  -25.8124  -30.8904   27.0266 H   0  0  0  0  0  0
  -26.2824  -29.6800   24.1148 H   0  0  0  0  0  0
  -27.4123  -29.7291   25.4492 H   0  0  0  0  0  0
  -27.8622  -30.4385   23.9154 H   0  0  0  0  0  0
  -27.2742  -33.3610   26.2047 H   0  0  0  0  0  0
  -28.3869  -32.6807   25.0275 H   0  0  0  0  0  0
  -28.0725  -31.8391   26.5367 H   0  0  0  0  0  0
  -28.2592  -38.0109   24.7559 H   0  0  0  0  0  0
  -28.1087  -36.2652   24.6239 H   0  0  0  0  0  0
  -27.2306  -37.1391   25.8866 H   0  0  0  0  0  0
  -20.9270  -29.8735   21.6949 H   0  0  0  0  0  0
  -26.0171  -38.2872   24.1469 H   0  0  0  0  0  0
  -29.4765  -23.8991   19.2720 H   0  0  0  0  0  0
  -25.9858  -24.7170   21.6705 H   0  0  0  0  0  0
  -28.4585  -21.8373   18.4586 H   0  0  0  0  0  0
  -24.9280  -22.6378   20.8360 H   0  0  0  0  0  0
  -29.5252  -25.5164   21.2257 H   0  0  0  0  0  0
  -28.0433  -26.0365   21.9769 H   0  0  0  0  0  0
  -27.6614  -20.0416   20.9392 H   0  0  0  0  0  0
  -26.7523  -18.5705   20.7526 H   0  0  0  0  0  0
  -30.7210  -16.5551   23.1850 H   0  0  0  0  0  0
  -32.1139  -16.1708   22.2116 H   0  0  0  0  0  0
  -29.5343  -19.2207   19.6550 H   0  0  0  0  0  0
  -28.6901  -17.7511   19.2123 H   0  0  0  0  0  0
  -31.0689  -17.2968   20.2269 H   0  0  0  0  0  0
  -31.2782  -18.4047   21.5576 H   0  0  0  0  0  0
  -26.1834  -18.9786   18.5246 H   0  0  0  0  0  0
  -27.5464  -19.9771   18.1783 H   0  0  0  0  0  0
  -29.6025  -14.7430   22.2746 H   0  0  0  0  0  0
  -28.7714  -16.9756   21.3606 H   0  0  0  0  0  0
  -29.0923  -18.4204   22.0287 H   0  0  0  0  0  0
  1 25  1  0  0  0
  1 30  2  0  0  0
  1 83  1  0  0  0
  2  3  1  0  0  0
  2 25  1  0  0  0
  2 86  1  0  0  0
  2 87  1  0  0  0
  3  4  1  0  0  0
  3 88  1  0  0  0
  3 89  1  0  0  0
  4  5  1  0  0  0
  4 90  1  0  0  0
  4 91  1  0  0  0
  5  6  1  0  0  0
  5 26  1  0  0  0
  5 92  1  0  0  0
  6 25  1  0  0  0
  6 93  1  0  0  0
  6 94  1  0  0  0
  7  8  2  0  0  0
  7 26  1  0  0  0
  7 29  1  0  0  0
  8  9  1  0  0  0
  8 22  1  0  0  0
  9 10  1  0  0  0
  9 27  2  0  0  0
 10 11  2  0  0  0
 10 15  1  0  0  0
 11 12  1  0  0  0
 11 95  1  0  0  0
 12 13  2  0  0  0
 12 96  1  0  0  0
 13 14  1  0  0  0
 13 31  1  0  0  0
 14 15  2  0  0  0
 14 97  1  0  0  0
 15 98  1  0  0  0
 16 17  2  0  0  0
 16 21  1  0  0  0
 16 31  1  0  0  0
 17 18  1  0  0  0
 17 99  1  0  0  0
 18 19  2  0  0  0
 18100  1  0  0  0
 19 20  1  0  0  0
 19 24  1  0  0  0
 20 21  2  0  0  0
 20101  1  0  0  0
 21 23  1  0  0  0
 22 28  1  0  0  0
 22 32  2  0  0  0
 26 27  1  0  0  0
 28102  1  0  0  0
 28103  1  0  0  0
 29104  1  0  0  0
 29105  1  0  0  0
 33 34  1  0  0  0
 33 66  1  0  0  0
 33 70  2  0  0  0
 34 36  1  0  0  0
 34 59  1  0  0  0
 34106  1  0  0  0
 35 44  2  0  0  0
 35 45  1  0  0  0
 35 68  1  0  0  0
 36 56  1  0  0  0
 36107  1  0  0  0
 37 39  1  0  0  0
 37 47  1  0  0  0
 37 66  1  0  0  0
 37108  1  0  0  0
 38 43  2  0  0  0
 38 46  1  0  0  0
 38 47  1  0  0  0
 39 64  1  0  0  0
 39 67  2  0  0  0
 40 52  1  0  0  0
 40 53  2  0  0  0
 40 58  1  0  0  0
 41109  1  0  0  0
 41110  1  0  0  0
 41111  1  0  0  0
 41 48  1  0  0  0
 42 43  1  0  0  0
 42 66  1  0  0  0
 42112  1  0  0  0
 42113  1  0  0  0
 43 44  1  0  0  0
 44114  1  0  0  0
 45 46  2  0  0  0
 45115  1  0  0  0
 46116  1  0  0  0
 47117  1  0  0  0
 47118  1  0  0  0
 48 56  1  0  0  0
 48 65  1  0  0  0
 48119  1  0  0  0
 49 50  1  0  0  0
 49 53  1  0  0  0
 49 64  1  0  0  0
 49120  1  0  0  0
 50 51  1  0  0  0
 50121  1  0  0  0
 50122  1  0  0  0
 51 52  1  0  0  0
 51123  1  0  0  0
 51124  1  0  0  0
 52125  1  0  0  0
 52126  1  0  0  0
 53 54  1  0  0  0
 54 55  2  0  0  0
 54127  1  0  0  0
 55 57  1  0  0  0
 55128  1  0  0  0
 56 69  2  0  0  0
 57 58  2  0  0  0
 57129  1  0  0  0
 58130  1  0  0  0
 59 60  1  0  0  0
 59 61  1  0  0  0
 59 62  1  0  0  0
 60131  1  0  0  0
 60132  1  0  0  0
 60133  1  0  0  0
 61134  1  0  0  0
 61135  1  0  0  0
 61136  1  0  0  0
 62137  1  0  0  0
 62138  1  0  0  0
 62139  1  0  0  0
 63 65  1  0  0  0
 63140  1  0  0  0
 63141  1  0  0  0
 63142  1  0  0  0
 64143  1  0  0  0
 65144  1  0  0  0
 68 77  1  0  0  0
 71 73  2  0  0  0
 71 75  1  0  0  0
 71145  1  0  0  0
 72 74  1  0  0  0
 72 75  2  0  0  0
 72146  1  0  0  0
 73 76  1  0  0  0
 73147  1  0  0  0
 74 76  2  0  0  0
 74148  1  0  0  0
 75 77  1  0  0  0
 76 85  1  0  0  0
 77149  1  0  0  0
 77150  1  0  0  0
 78 80  1  0  0  0
 78 82  1  0  0  0
 78151  1  0  0  0
 78152  1  0  0  0
 79 81  1  0  0  0
 79 83  1  0  0  0
 79153  1  0  0  0
 79154  1  0  0  0
 80 84  1  0  0  0
 80155  1  0  0  0
 80156  1  0  0  0
 81 84  1  0  0  0
 81157  1  0  0  0
 81158  1  0  0  0
 82 85  1  0  0  0
 82159  1  0  0  0
 82160  1  0  0  0
 83161  1  0  0  0
 84162  1  0  0  0
 84163  1  0  0  0
M  CHG  1  84   1
M  ISO  4   1 100  68 101  77 101  83 100
M  END
> <chiral flag>
0

> <version>
0

> <s_m_source_file>
/data/baiqing/PycharmProjects/Reinvent-master-3.2/result/LINK_invent/BTK/process_docking_weight1_custom_sum_contain_oxygen_bond_distance_aromatic_linkinvent_7_9_3/rearranged_h_0132.sdf

> <i_m_source_file_index>
70

> <r_mmod_Potential_Energy-OPLS-2005>
-250.185913085938

> <r_mmod_Stretch_Energy-OPLS-2005>
31.1804389953613

> <r_mmod_Bend_Energy-OPLS-2005>
86.924186706543

> <r_mmod_Torsional_Energy-OPLS-2005>
271.492004394531

> <r_mmod_Improper_Torsional_Energy-OPLS-2005>
2.4744668006897

> <r_mmod_Van_der_Waal_Energy-OPLS-2005>
153.560653686523

> <r_mmod_Electrostatic_Energy-OPLS-2005>
-317.771026611328

> <r_mmod_Solvation_Energy-OPLS-2005>
-484.484527587891

> <b_mmod_Minimization_Converged-OPLS-2005>
0

> <r_mmod_RMS_Derivative-OPLS-2005>
1.32081913948059

$$$$
72
                    3D
 Structure written by MMmdl.
174183  0  0  1  0            999 V2000
  -30.7677  -14.4172   20.6406 C   0  0  0  0  0  0
  -30.4069  -12.3010   19.4238 C   0  0  0  0  0  0
  -29.4870  -12.5173   18.2081 C   0  0  0  0  0  0
  -28.0102  -12.3796   18.6198 C   0  0  0  0  0  0
  -27.6617  -13.2147   19.8801 C   0  0  2  0  0  0
  -28.7007  -13.0032   21.0060 C   0  0  0  0  0  0
  -25.2568  -13.8170   20.5674 C   0  0  0  0  0  0
  -24.1822  -13.0443   20.9153 C   0  0  0  0  0  0
  -24.6381  -11.6913   20.8707 C   0  0  0  0  0  0
  -23.9037  -10.4292   21.0389 C   0  0  0  0  0  0
  -24.3595   -9.4216   21.9166 C   0  0  0  0  0  0
  -23.6290   -8.2245   22.0741 C   0  0  0  0  0  0
  -22.4274   -8.0272   21.3543 C   0  0  0  0  0  0
  -21.9903   -9.0236   20.4637 C   0  0  0  0  0  0
  -22.7213  -10.2118   20.3045 C   0  0  0  0  0  0
  -21.6838   -6.0728   22.5273 C   0  0  0  0  0  0
  -21.4011   -6.5630   23.8202 C   0  0  0  0  0  0
  -21.3666   -5.6791   24.9165 C   0  0  0  0  0  0
  -21.6052   -4.3055   24.7216 C   0  0  0  0  0  0
  -21.8825   -3.8131   23.4340 C   0  0  0  0  0  0
  -21.9188   -4.6955   22.3395 C   0  0  0  0  0  0
  -22.7853  -13.5243   21.1826 C   0  0  0  0  0  0
  -22.1646   -4.2136   21.0976 F   0  0  0  0  0  0
  -21.5645   -3.4541   25.7731 F   0  0  0  0  0  0
  -30.0396  -13.2816   20.4604 N   0  0  0  0  0  0
  -26.3014  -12.9356   20.3383 N   0  0  0  0  0  0
  -25.9315  -11.6509   20.5763 N   0  0  0  0  0  0
  -22.0490  -12.8237   22.0377 N   0  0  0  0  0  0
  -25.4302  -15.1881   20.4092 N   0  0  0  0  0  0
  -31.8328  -14.6168   20.0512 O   0  0  0  0  0  0
  -21.6636   -6.8867   21.4239 O   0  0  0  0  0  0
  -22.3563  -14.5570   20.6697 O   0  0  0  0  0  0
  -24.6144  -31.8682   23.2097 C   0  0  0  0  0  0
  -25.9049  -32.4809   23.8388 C   0  0  1  0  0  0
  -27.2286  -27.4297   20.0859 C   0  0  0  0  0  0
  -25.5919  -33.8614   24.2316 N   0  0  0  0  0  0
  -23.4002  -30.4941   21.5497 C   0  0  2  0  0  0
  -24.8428  -28.9572   20.1150 C   0  0  0  0  0  0
  -22.7399  -29.4663   22.4974 C   0  0  0  0  0  0
  -18.0275  -28.1372   22.8481 C   0  0  0  0  0  0
  -24.1495  -36.7310   23.2632 C   0  0  0  0  0  0
  -25.9304  -30.8284   21.3654 C   0  0  0  0  0  0
  -26.0032  -29.4647   20.7091 C   0  0  0  0  0  0
  -27.1977  -28.7087   20.6904 C   0  0  0  0  0  0
  -26.0434  -26.9346   19.4929 C   0  0  0  0  0  0
  -24.8576  -27.6923   19.5052 C   0  0  0  0  0  0
  -23.6075  -29.8279   20.1639 C   0  0  0  0  0  0
  -25.4114  -36.3101   24.0328 C   0  0  1  0  0  0
  -20.5861  -28.3659   23.1315 C   0  0  2  0  0  0
  -20.6763  -26.9399   22.5408 C   0  0  0  0  0  0
  -19.5744  -26.6385   21.5197 C   0  0  0  0  0  0
  -18.1922  -26.7925   22.1608 C   0  0  0  0  0  0
  -19.1521  -28.8828   23.2899 C   0  0  0  0  0  0
  -18.9450  -30.1435   23.8910 C   0  0  0  0  0  0
  -17.6458  -30.6581   24.0558 C   0  0  0  0  0  0
  -25.9044  -34.9468   23.5109 C   0  0  0  0  0  0
  -16.5348  -29.9084   23.6324 C   0  0  0  0  0  0
  -16.7263  -28.6501   23.0343 C   0  0  0  0  0  0
  -26.4488  -31.6591   25.0717 C   0  0  0  0  0  0
  -25.3774  -31.3731   26.1490 C   0  0  0  0  0  0
  -27.0293  -30.3015   24.6103 C   0  0  0  0  0  0
  -27.6074  -32.4313   25.7469 C   0  0  0  0  0  0
  -27.5586  -37.1809   24.8460 C   0  0  0  0  0  0
  -21.4130  -29.3039   22.3720 N   0  0  0  0  0  0
  -26.4295  -37.3791   23.9412 N   0  0  0  0  0  0
  -24.6659  -31.0791   22.0992 N   0  0  0  0  0  0
  -23.4181  -28.8208   23.3004 O   0  0  0  0  0  0
  -28.4201  -26.7302   20.0933 O   0  0  0  0  0  0
  -26.5591  -34.8920   22.4662 O   0  0  0  0  0  0
  -23.5343  -32.1441   23.7495 O   0  0  0  0  0  0
  -30.1257  -23.4194   19.4570 C   0  0  0  0  0  0
  -28.0632  -22.9689   20.7995 C   0  0  0  0  0  0
  -29.9286  -24.9399   19.6204 C   0  0  0  0  0  0
  -27.8171  -24.4901   20.9492 C   0  0  0  0  0  0
  -29.9845  -21.2015   23.1304 C   0  0  0  0  0  0
  -30.1052  -20.3306   24.3920 C   0  0  0  0  0  0
  -31.9181  -19.3452   23.0167 C   0  0  0  0  0  0
  -29.5708  -22.6507   20.6749 C   0  0  1  0  0  0
  -28.4477  -25.3221   19.8030 C   0  0  1  0  0  0
  -30.8028  -19.1957   21.9367 C   0  0  1  0  0  0
  -29.1355  -20.3474   19.5820 C   0  0  0  0  0  0
  -30.0326  -17.8391   22.0023 C   0  0  0  0  0  0
  -30.9606  -16.6128   21.7937 C   0  0  0  0  0  0
  -29.9482  -21.1255   20.6353 C   0  0  2  0  0  0
  -29.8799  -20.3708   21.9139 N   0  0  0  0  0  0
  -30.2695  -15.3470   21.4802 N   0  0  0  0  0  0
  -31.3724  -19.5710   24.3760 N   0  3  0  0  0  0
  -31.4538  -12.3772   19.1246 H   0  0  0  0  0  0
  -30.2874  -11.2887   19.8128 H   0  0  0  0  0  0
  -29.7225  -11.7988   17.4214 H   0  0  0  0  0  0
  -29.6656  -13.5069   17.7829 H   0  0  0  0  0  0
  -27.8119  -11.3239   18.8070 H   0  0  0  0  0  0
  -27.3601  -12.6653   17.7922 H   0  0  0  0  0  0
  -27.7033  -14.2629   19.5835 H   0  0  0  0  0  0
  -28.6650  -11.9750   21.3680 H   0  0  0  0  0  0
  -28.4583  -13.6242   21.8690 H   0  0  0  0  0  0
  -25.2747   -9.5696   22.4739 H   0  0  0  0  0  0
  -23.9998   -7.4639   22.7472 H   0  0  0  0  0  0
  -21.0825   -8.8739   19.8958 H   0  0  0  0  0  0
  -22.3653  -10.9650   19.6149 H   0  0  0  0  0  0
  -21.2001   -7.6139   23.9696 H   0  0  0  0  0  0
  -21.1486   -6.0515   25.9066 H   0  0  0  0  0  0
  -22.0603   -2.7598   23.2816 H   0  0  0  0  0  0
  -22.4090  -11.9894   22.4779 H   0  0  0  0  0  0
  -21.1110  -13.1258   22.2567 H   0  0  0  0  0  0
  -24.6692  -15.8483   20.5217 H   0  0  0  0  0  0
  -26.2957  -15.6264   20.1200 H   0  0  0  0  0  0
  -26.7107  -32.5513   23.1141 H   0  0  0  0  0  0
  -25.0100  -33.9789   25.0480 H   0  0  0  0  0  0
  -22.6883  -31.3107   21.4130 H   0  0  0  0  0  0
  -23.3751  -35.9645   23.3297 H   0  0  0  0  0  0
  -24.3581  -36.8924   22.2042 H   0  0  0  0  0  0
  -23.7248  -37.6515   23.6649 H   0  0  0  0  0  0
  -26.0511  -31.5954   20.5996 H   0  0  0  0  0  0
  -26.8155  -30.8728   21.9881 H   0  0  0  0  0  0
  -28.0966  -29.1013   21.1453 H   0  0  0  0  0  0
  -26.0086  -25.9695   19.0107 H   0  0  0  0  0  0
  -23.9650  -27.2944   19.0430 H   0  0  0  0  0  0
  -23.7212  -30.6038   19.4059 H   0  0  0  0  0  0
  -22.7295  -29.2525   19.8654 H   0  0  0  0  0  0
  -25.1283  -36.1953   25.0815 H   0  0  0  0  0  0
  -20.9959  -28.3225   24.1433 H   0  0  0  0  0  0
  -20.5658  -26.2268   23.3591 H   0  0  0  0  0  0
  -21.6638  -26.7447   22.1205 H   0  0  0  0  0  0
  -19.6912  -25.6300   21.1216 H   0  0  0  0  0  0
  -19.6693  -27.3200   20.6731 H   0  0  0  0  0  0
  -17.4197  -26.6670   21.4008 H   0  0  0  0  0  0
  -18.0332  -26.0065   22.9001 H   0  0  0  0  0  0
  -19.7935  -30.7233   24.2298 H   0  0  0  0  0  0
  -17.5022  -31.6270   24.5152 H   0  0  0  0  0  0
  -15.5347  -30.2990   23.7647 H   0  0  0  0  0  0
  -15.8665  -28.0831   22.7043 H   0  0  0  0  0  0
  -24.5889  -30.7137   25.7847 H   0  0  0  0  0  0
  -24.9047  -32.2912   26.4992 H   0  0  0  0  0  0
  -25.8140  -30.8853   27.0214 H   0  0  0  0  0  0
  -26.2813  -29.6773   24.1198 H   0  0  0  0  0  0
  -27.4081  -29.7260   25.4561 H   0  0  0  0  0  0
  -27.8659  -30.4295   23.9228 H   0  0  0  0  0  0
  -27.2703  -33.3634   26.2020 H   0  0  0  0  0  0
  -28.3902  -32.6832   25.0300 H   0  0  0  0  0  0
  -28.0716  -31.8446   26.5407 H   0  0  0  0  0  0
  -28.2598  -38.0115   24.7503 H   0  0  0  0  0  0
  -28.1087  -36.2640   24.6279 H   0  0  0  0  0  0
  -27.2312  -37.1450   25.8867 H   0  0  0  0  0  0
  -20.9268  -29.8779   21.6976 H   0  0  0  0  0  0
  -26.0177  -38.2866   24.1408 H   0  0  0  0  0  0
  -31.1880  -23.2069   19.3314 H   0  0  0  0  0  0
  -29.6381  -23.0869   18.5405 H   0  0  0  0  0  0
  -27.5291  -22.6062   19.9208 H   0  0  0  0  0  0
  -27.6313  -22.4425   21.6510 H   0  0  0  0  0  0
  -30.3372  -25.4578   18.7517 H   0  0  0  0  0  0
  -30.5029  -25.2858   20.4806 H   0  0  0  0  0  0
  -28.2254  -24.8247   21.9032 H   0  0  0  0  0  0
  -26.7437  -24.6736   21.0018 H   0  0  0  0  0  0
  -30.8508  -21.8629   23.0731 H   0  0  0  0  0  0
  -29.1058  -21.8382   23.2228 H   0  0  0  0  0  0
  -29.2611  -19.6437   24.4568 H   0  0  0  0  0  0
  -30.0723  -20.9482   25.2910 H   0  0  0  0  0  0
  -32.5467  -20.1993   22.7584 H   0  0  0  0  0  0
  -32.5937  -18.4900   23.0322 H   0  0  0  0  0  0
  -30.0755  -23.1146   21.5200 H   0  0  0  0  0  0
  -27.9475  -25.1050   18.8599 H   0  0  0  0  0  0
  -31.3342  -19.1661   20.9839 H   0  0  0  0  0  0
  -29.1764  -20.8310   18.6070 H   0  0  0  0  0  0
  -28.0856  -20.2680   19.8656 H   0  0  0  0  0  0
  -29.5104  -19.3353   19.4388 H   0  0  0  0  0  0
  -29.2690  -17.8313   21.2251 H   0  0  0  0  0  0
  -29.4974  -17.7402   22.9462 H   0  0  0  0  0  0
  -31.5655  -16.4441   22.6854 H   0  0  0  0  0  0
  -31.6649  -16.8619   20.9977 H   0  0  0  0  0  0
  -30.9938  -21.1177   20.3216 H   0  0  0  0  0  0
  -29.4009  -15.1420   21.9509 H   0  0  0  0  0  0
  -31.2277  -18.6943   24.8476 H   0  0  0  0  0  0
  -32.0634  -20.0826   24.9010 H   0  0  0  0  0  0
  1 25  1  0  0  0
  1 30  2  0  0  0
  1 86  1  0  0  0
  2  3  1  0  0  0
  2 25  1  0  0  0
  2 88  1  0  0  0
  2 89  1  0  0  0
  3  4  1  0  0  0
  3 90  1  0  0  0
  3 91  1  0  0  0
  4  5  1  0  0  0
  4 92  1  0  0  0
  4 93  1  0  0  0
  5  6  1  0  0  0
  5 26  1  0  0  0
  5 94  1  0  0  0
  6 25  1  0  0  0
  6 95  1  0  0  0
  6 96  1  0  0  0
  7  8  2  0  0  0
  7 26  1  0  0  0
  7 29  1  0  0  0
  8  9  1  0  0  0
  8 22  1  0  0  0
  9 10  1  0  0  0
  9 27  2  0  0  0
 10 11  2  0  0  0
 10 15  1  0  0  0
 11 12  1  0  0  0
 11 97  1  0  0  0
 12 13  2  0  0  0
 12 98  1  0  0  0
 13 14  1  0  0  0
 13 31  1  0  0  0
 14 15  2  0  0  0
 14 99  1  0  0  0
 15100  1  0  0  0
 16 17  2  0  0  0
 16 21  1  0  0  0
 16 31  1  0  0  0
 17 18  1  0  0  0
 17101  1  0  0  0
 18 19  2  0  0  0
 18102  1  0  0  0
 19 20  1  0  0  0
 19 24  1  0  0  0
 20 21  2  0  0  0
 20103  1  0  0  0
 21 23  1  0  0  0
 22 28  1  0  0  0
 22 32  2  0  0  0
 26 27  1  0  0  0
 28104  1  0  0  0
 28105  1  0  0  0
 29106  1  0  0  0
 29107  1  0  0  0
 33 34  1  0  0  0
 33 66  1  0  0  0
 33 70  2  0  0  0
 34 36  1  0  0  0
 34 59  1  0  0  0
 34108  1  0  0  0
 35 44  2  0  0  0
 35 45  1  0  0  0
 35 68  1  0  0  0
 36 56  1  0  0  0
 36109  1  0  0  0
 37 39  1  0  0  0
 37 47  1  0  0  0
 37 66  1  0  0  0
 37110  1  0  0  0
 38 43  2  0  0  0
 38 46  1  0  0  0
 38 47  1  0  0  0
 39 64  1  0  0  0
 39 67  2  0  0  0
 40 52  1  0  0  0
 40 53  2  0  0  0
 40 58  1  0  0  0
 41111  1  0  0  0
 41112  1  0  0  0
 41113  1  0  0  0
 41 48  1  0  0  0
 42 43  1  0  0  0
 42 66  1  0  0  0
 42114  1  0  0  0
 42115  1  0  0  0
 43 44  1  0  0  0
 44116  1  0  0  0
 45 46  2  0  0  0
 45117  1  0  0  0
 46118  1  0  0  0
 47119  1  0  0  0
 47120  1  0  0  0
 48 56  1  0  0  0
 48 65  1  0  0  0
 48121  1  0  0  0
 49 50  1  0  0  0
 49 53  1  0  0  0
 49 64  1  0  0  0
 49122  1  0  0  0
 50 51  1  0  0  0
 50123  1  0  0  0
 50124  1  0  0  0
 51 52  1  0  0  0
 51125  1  0  0  0
 51126  1  0  0  0
 52127  1  0  0  0
 52128  1  0  0  0
 53 54  1  0  0  0
 54 55  2  0  0  0
 54129  1  0  0  0
 55 57  1  0  0  0
 55130  1  0  0  0
 56 69  2  0  0  0
 57 58  2  0  0  0
 57131  1  0  0  0
 58132  1  0  0  0
 59 60  1  0  0  0
 59 61  1  0  0  0
 59 62  1  0  0  0
 60133  1  0  0  0
 60134  1  0  0  0
 60135  1  0  0  0
 61136  1  0  0  0
 61137  1  0  0  0
 61138  1  0  0  0
 62139  1  0  0  0
 62140  1  0  0  0
 62141  1  0  0  0
 63 65  1  0  0  0
 63142  1  0  0  0
 63143  1  0  0  0
 63144  1  0  0  0
 64145  1  0  0  0
 65146  1  0  0  0
 68 79  1  0  0  0
 71 73  1  0  0  0
 71147  1  0  0  0
 71148  1  0  0  0
 71 78  1  0  0  0
 72 74  1  0  0  0
 72 78  1  0  0  0
 72149  1  0  0  0
 72150  1  0  0  0
 73 79  1  0  0  0
 73151  1  0  0  0
 73152  1  0  0  0
 74 79  1  0  0  0
 74153  1  0  0  0
 74154  1  0  0  0
 75 76  1  0  0  0
 75 85  1  0  0  0
 75155  1  0  0  0
 75156  1  0  0  0
 76 87  1  0  0  0
 76157  1  0  0  0
 76158  1  0  0  0
 77 80  1  0  0  0
 77 87  1  0  0  0
 77159  1  0  0  0
 77160  1  0  0  0
 78 84  1  0  0  0
 78161  1  0  0  0
 79162  1  0  0  0
 80 82  1  0  0  0
 80 85  1  0  0  0
 80163  1  0  0  0
 81164  1  0  0  0
 81165  1  0  0  0
 81166  1  0  0  0
 81 84  1  0  0  0
 82 83  1  0  0  0
 82167  1  0  0  0
 82168  1  0  0  0
 83 86  1  0  0  0
 83169  1  0  0  0
 83170  1  0  0  0
 84 85  1  0  0  0
 84171  1  0  0  0
 86172  1  0  0  0
 87173  1  0  0  0
 87174  1  0  0  0
M  CHG  1  87   1
M  ISO  4   1 100  68 101  79 101  86 100
M  END
> <chiral flag>
0

> <version>
0

> <s_m_source_file>
/data/baiqing/PycharmProjects/Reinvent-master-3.2/result/LINK_invent/BTK/process_docking_weight1_custom_sum_contain_oxygen_bond_distance_aromatic_linkinvent_7_9_3/rearranged_h_0132.sdf

> <i_m_source_file_index>
71

> <r_mmod_Potential_Energy-OPLS-2005>
-151.437042236328

> <r_mmod_Stretch_Energy-OPLS-2005>
46.5509567260742

> <r_mmod_Bend_Energy-OPLS-2005>
124.459426879883

> <r_mmod_Torsional_Energy-OPLS-2005>
266.952056884766

> <r_mmod_Improper_Torsional_Energy-OPLS-2005>
1.63578712940216

> <r_mmod_Van_der_Waal_Energy-OPLS-2005>
166.991897583008

> <r_mmod_Electrostatic_Energy-OPLS-2005>
-298.264617919922

> <r_mmod_Solvation_Energy-OPLS-2005>
-470.27001953125

> <b_mmod_Minimization_Converged-OPLS-2005>
0

> <r_mmod_RMS_Derivative-OPLS-2005>
2.28897595405579

$$$$
73
                    3D
 Structure written by MMmdl.
161169  0  0  1  0            999 V2000
  -30.7588  -14.3968   20.6666 C   0  0  0  0  0  0
  -30.4199  -12.3050   19.4029 C   0  0  0  0  0  0
  -29.4884  -12.5110   18.1950 C   0  0  0  0  0  0
  -28.0134  -12.3612   18.6146 C   0  0  0  0  0  0
  -27.6623  -13.2019   19.8698 C   0  0  2  0  0  0
  -28.6994  -12.9791   20.9929 C   0  0  0  0  0  0
  -25.2607  -13.8155   20.5707 C   0  0  0  0  0  0
  -24.1841  -13.0434   20.9191 C   0  0  0  0  0  0
  -24.6369  -11.6907   20.8686 C   0  0  0  0  0  0
  -23.9050  -10.4291   21.0386 C   0  0  0  0  0  0
  -24.3618   -9.4231   21.9180 C   0  0  0  0  0  0
  -23.6311   -8.2250   22.0747 C   0  0  0  0  0  0
  -22.4300   -8.0269   21.3521 C   0  0  0  0  0  0
  -21.9915   -9.0249   20.4643 C   0  0  0  0  0  0
  -22.7214  -10.2143   20.3058 C   0  0  0  0  0  0
  -21.6862   -6.0755   22.5280 C   0  0  0  0  0  0
  -21.4021   -6.5659   23.8220 C   0  0  0  0  0  0
  -21.3631   -5.6803   24.9169 C   0  0  0  0  0  0
  -21.6040   -4.3064   24.7227 C   0  0  0  0  0  0
  -21.8825   -3.8171   23.4337 C   0  0  0  0  0  0
  -21.9206   -4.6984   22.3404 C   0  0  0  0  0  0
  -22.7873  -13.5269   21.1869 C   0  0  0  0  0  0
  -22.1678   -4.2171   21.0984 F   0  0  0  0  0  0
  -21.5617   -3.4537   25.7732 F   0  0  0  0  0  0
  -30.0412  -13.2657   20.4501 N   0  0  0  0  0  0
  -26.3011  -12.9310   20.3334 N   0  0  0  0  0  0
  -25.9295  -11.6479   20.5730 N   0  0  0  0  0  0
  -22.0524  -12.8238   22.0406 N   0  0  0  0  0  0
  -25.4426  -15.1867   20.4156 N   0  0  0  0  0  0
  -31.8127  -14.6559   20.0756 O   0  0  0  0  0  0
  -21.6646   -6.8870   21.4233 O   0  0  0  0  0  0
  -22.3560  -14.5575   20.6709 O   0  0  0  0  0  0
  -24.6134  -31.8728   23.2165 C   0  0  0  0  0  0
  -25.9047  -32.4848   23.8435 C   0  0  1  0  0  0
  -27.2027  -27.4288   20.1107 C   0  0  0  0  0  0
  -25.5884  -33.8646   24.2358 N   0  0  0  0  0  0
  -23.3957  -30.5089   21.5566 C   0  0  2  0  0  0
  -24.8334  -28.9802   20.1117 C   0  0  0  0  0  0
  -22.7391  -29.4744   22.5007 C   0  0  0  0  0  0
  -18.0315  -28.1362   22.8583 C   0  0  0  0  0  0
  -24.1505  -36.7327   23.2640 C   0  0  0  0  0  0
  -25.9290  -30.8440   21.3682 C   0  0  0  0  0  0
  -25.9956  -29.4797   20.7118 C   0  0  0  0  0  0
  -27.1817  -28.7126   20.7035 C   0  0  0  0  0  0
  -26.0155  -26.9453   19.5091 C   0  0  0  0  0  0
  -24.8379  -27.7164   19.5020 C   0  0  0  0  0  0
  -23.5987  -29.8486   20.1670 C   0  0  0  0  0  0
  -25.4116  -36.3107   24.0334 C   0  0  1  0  0  0
  -20.5891  -28.3693   23.1342 C   0  0  2  0  0  0
  -20.6861  -26.9469   22.5388 C   0  0  0  0  0  0
  -19.5781  -26.6492   21.5244 C   0  0  0  0  0  0
  -18.2024  -26.7883   22.1791 C   0  0  0  0  0  0
  -19.1546  -28.8857   23.2955 C   0  0  0  0  0  0
  -18.9461  -30.1498   23.8878 C   0  0  0  0  0  0
  -17.6453  -30.6618   24.0512 C   0  0  0  0  0  0
  -25.9028  -34.9478   23.5124 C   0  0  0  0  0  0
  -16.5356  -29.9086   23.6329 C   0  0  0  0  0  0
  -16.7296  -28.6482   23.0395 C   0  0  0  0  0  0
  -26.4472  -31.6604   25.0752 C   0  0  0  0  0  0
  -25.3758  -31.3728   26.1512 C   0  0  0  0  0  0
  -27.0291  -30.3047   24.6113 C   0  0  0  0  0  0
  -27.6038  -32.4343   25.7503 C   0  0  0  0  0  0
  -27.5588  -37.1823   24.8448 C   0  0  0  0  0  0
  -21.4112  -29.3100   22.3747 N   0  0  0  0  0  0
  -26.4302  -37.3787   23.9382 N   0  0  0  0  0  0
  -24.6645  -31.0869   22.1052 N   0  0  0  0  0  0
  -23.4225  -28.8274   23.3000 O   0  0  0  0  0  0
  -28.3863  -26.7167   20.1343 O   0  0  0  0  0  0
  -26.5608  -34.8906   22.4704 O   0  0  0  0  0  0
  -23.5320  -32.1464   23.7557 O   0  0  0  0  0  0
  -29.6775  -23.2767   19.7821 C   0  0  0  0  0  0
  -29.7643  -24.7969   19.5898 C   0  0  0  0  0  0
  -27.9924  -24.4275   21.1135 C   0  0  0  0  0  0
  -28.4897  -23.0139   20.7274 C   0  0  1  0  0  0
  -28.3660  -25.2990   19.9008 C   0  0  1  0  0  0
  -31.0245  -16.3426   22.1911 C   0  0  0  0  0  0
  -28.7156  -20.7593   21.6453 C   0  0  0  0  0  0
  -30.9711  -17.6676   21.3938 C   0  0  0  0  0  0
  -30.0358  -19.9583   21.7306 C   0  0  0  0  0  0
  -30.2714  -15.2344   21.5905 N   0  0  0  0  0  0
  -28.8991  -22.1978   21.8778 N   0  0  0  0  0  0
  -29.7898  -18.4953   21.7273 N   0  3  0  0  0  0
  -31.4571  -12.4194   19.0892 H   0  0  0  0  0  0
  -30.3402  -11.2880   19.7859 H   0  0  0  0  0  0
  -29.7240  -11.7907   17.4098 H   0  0  0  0  0  0
  -29.6562  -13.4998   17.7662 H   0  0  0  0  0  0
  -27.8280  -11.3035   18.8153 H   0  0  0  0  0  0
  -27.3613  -12.6364   17.7844 H   0  0  0  0  0  0
  -27.7162  -14.2518   19.5768 H   0  0  0  0  0  0
  -28.6642  -11.9470   21.3479 H   0  0  0  0  0  0
  -28.4430  -13.5964   21.8522 H   0  0  0  0  0  0
  -25.2777   -9.5730   22.4732 H   0  0  0  0  0  0
  -24.0040   -7.4667   22.7485 H   0  0  0  0  0  0
  -21.0841   -8.8775   19.8972 H   0  0  0  0  0  0
  -22.3675  -10.9685   19.6162 H   0  0  0  0  0  0
  -21.2005   -7.6165   23.9712 H   0  0  0  0  0  0
  -21.1446   -6.0537   25.9066 H   0  0  0  0  0  0
  -22.0625   -2.7632   23.2848 H   0  0  0  0  0  0
  -22.4143  -11.9865   22.4747 H   0  0  0  0  0  0
  -21.1144  -13.1252   22.2636 H   0  0  0  0  0  0
  -24.6905  -15.8586   20.5286 H   0  0  0  0  0  0
  -26.3022  -15.6084   20.0858 H   0  0  0  0  0  0
  -26.7138  -32.5561   23.1209 H   0  0  0  0  0  0
  -24.9978  -33.9835   25.0456 H   0  0  0  0  0  0
  -22.6847  -31.3279   21.4224 H   0  0  0  0  0  0
  -23.3746  -35.9681   23.3301 H   0  0  0  0  0  0
  -24.3591  -36.8952   22.2050 H   0  0  0  0  0  0
  -23.7292  -37.6544   23.6670 H   0  0  0  0  0  0
  -26.0383  -31.6174   20.6067 H   0  0  0  0  0  0
  -26.8201  -30.8897   21.9860 H   0  0  0  0  0  0
  -28.0807  -29.0880   21.1695 H   0  0  0  0  0  0
  -25.9600  -25.9788   19.0323 H   0  0  0  0  0  0
  -23.9363  -27.3350   19.0389 H   0  0  0  0  0  0
  -23.7025  -30.6280   19.4106 H   0  0  0  0  0  0
  -22.7209  -29.2687   19.8719 H   0  0  0  0  0  0
  -25.1306  -36.1960   25.0834 H   0  0  0  0  0  0
  -20.9982  -28.3257   24.1457 H   0  0  0  0  0  0
  -21.6715  -26.7646   22.1083 H   0  0  0  0  0  0
  -20.5919  -26.2288   23.3539 H   0  0  0  0  0  0
  -19.7028  -25.6478   21.1175 H   0  0  0  0  0  0
  -19.6638  -27.3399   20.6829 H   0  0  0  0  0  0
  -17.4226  -26.6459   21.4310 H   0  0  0  0  0  0
  -18.0609  -26.0049   22.9273 H   0  0  0  0  0  0
  -19.7913  -30.7374   24.2225 H   0  0  0  0  0  0
  -17.4984  -31.6337   24.5007 H   0  0  0  0  0  0
  -15.5350  -30.2979   23.7575 H   0  0  0  0  0  0
  -15.8738  -28.0766   22.7100 H   0  0  0  0  0  0
  -24.5918  -30.7076   25.7904 H   0  0  0  0  0  0
  -24.8957  -32.2878   26.4970 H   0  0  0  0  0  0
  -25.8108  -30.8922   27.0269 H   0  0  0  0  0  0
  -26.2856  -29.6871   24.1077 H   0  0  0  0  0  0
  -27.3957  -29.7211   25.4558 H   0  0  0  0  0  0
  -27.8715  -30.4375   23.9333 H   0  0  0  0  0  0
  -27.2645  -33.3631   26.2084 H   0  0  0  0  0  0
  -28.3819  -32.6928   25.0327 H   0  0  0  0  0  0
  -28.0729  -31.8484   26.5404 H   0  0  0  0  0  0
  -28.2594  -38.0137   24.7473 H   0  0  0  0  0  0
  -28.1091  -36.2644   24.6283 H   0  0  0  0  0  0
  -27.2283  -37.1488   25.8852 H   0  0  0  0  0  0
  -20.9200  -29.8944   21.7107 H   0  0  0  0  0  0
  -26.0174  -38.2864   24.1371 H   0  0  0  0  0  0
  -30.6181  -22.8871   20.1627 H   0  0  0  0  0  0
  -29.4887  -22.7968   18.8195 H   0  0  0  0  0  0
  -30.0837  -25.0618   18.5822 H   0  0  0  0  0  0
  -30.4669  -25.2274   20.3061 H   0  0  0  0  0  0
  -28.5001  -24.8072   22.0040 H   0  0  0  0  0  0
  -26.9241  -24.4523   21.3203 H   0  0  0  0  0  0
  -27.6837  -22.5220   20.1752 H   0  0  0  0  0  0
  -27.7561  -25.0234   19.0407 H   0  0  0  0  0  0
  -32.0691  -16.0408   22.2735 H   0  0  0  0  0  0
  -30.7038  -16.4876   23.2220 H   0  0  0  0  0  0
  -28.0215  -20.3976   22.4071 H   0  0  0  0  0  0
  -28.2305  -20.5576   20.6888 H   0  0  0  0  0  0
  -31.0002  -17.4845   20.3209 H   0  0  0  0  0  0
  -31.8721  -18.2394   21.6155 H   0  0  0  0  0  0
  -30.5758  -20.2224   22.6428 H   0  0  0  0  0  0
  -30.6846  -20.2219   20.8939 H   0  0  0  0  0  0
  -29.3833  -14.9780   21.9984 H   0  0  0  0  0  0
  -28.3181  -22.4490   22.6733 H   0  0  0  0  0  0
  -29.4722  -18.2346   22.6435 H   0  0  0  0  0  0
  -29.0489  -18.2848   21.0805 H   0  0  0  0  0  0
  1 25  1  0  0  0
  1 30  2  0  0  0
  1 80  1  0  0  0
  2  3  1  0  0  0
  2 25  1  0  0  0
  2 83  1  0  0  0
  2 84  1  0  0  0
  3  4  1  0  0  0
  3 85  1  0  0  0
  3 86  1  0  0  0
  4  5  1  0  0  0
  4 87  1  0  0  0
  4 88  1  0  0  0
  5  6  1  0  0  0
  5 26  1  0  0  0
  5 89  1  0  0  0
  6 25  1  0  0  0
  6 90  1  0  0  0
  6 91  1  0  0  0
  7  8  2  0  0  0
  7 26  1  0  0  0
  7 29  1  0  0  0
  8  9  1  0  0  0
  8 22  1  0  0  0
  9 10  1  0  0  0
  9 27  2  0  0  0
 10 11  2  0  0  0
 10 15  1  0  0  0
 11 12  1  0  0  0
 11 92  1  0  0  0
 12 13  2  0  0  0
 12 93  1  0  0  0
 13 14  1  0  0  0
 13 31  1  0  0  0
 14 15  2  0  0  0
 14 94  1  0  0  0
 15 95  1  0  0  0
 16 17  2  0  0  0
 16 21  1  0  0  0
 16 31  1  0  0  0
 17 18  1  0  0  0
 17 96  1  0  0  0
 18 19  2  0  0  0
 18 97  1  0  0  0
 19 20  1  0  0  0
 19 24  1  0  0  0
 20 21  2  0  0  0
 20 98  1  0  0  0
 21 23  1  0  0  0
 22 28  1  0  0  0
 22 32  2  0  0  0
 26 27  1  0  0  0
 28 99  1  0  0  0
 28100  1  0  0  0
 29101  1  0  0  0
 29102  1  0  0  0
 33 34  1  0  0  0
 33 66  1  0  0  0
 33 70  2  0  0  0
 34 36  1  0  0  0
 34 59  1  0  0  0
 34103  1  0  0  0
 35 44  2  0  0  0
 35 45  1  0  0  0
 35 68  1  0  0  0
 36 56  1  0  0  0
 36104  1  0  0  0
 37 39  1  0  0  0
 37 47  1  0  0  0
 37 66  1  0  0  0
 37105  1  0  0  0
 38 43  2  0  0  0
 38 46  1  0  0  0
 38 47  1  0  0  0
 39 64  1  0  0  0
 39 67  2  0  0  0
 40 52  1  0  0  0
 40 53  2  0  0  0
 40 58  1  0  0  0
 41106  1  0  0  0
 41107  1  0  0  0
 41108  1  0  0  0
 41 48  1  0  0  0
 42 43  1  0  0  0
 42 66  1  0  0  0
 42109  1  0  0  0
 42110  1  0  0  0
 43 44  1  0  0  0
 44111  1  0  0  0
 45 46  2  0  0  0
 45112  1  0  0  0
 46113  1  0  0  0
 47114  1  0  0  0
 47115  1  0  0  0
 48 56  1  0  0  0
 48 65  1  0  0  0
 48116  1  0  0  0
 49 50  1  0  0  0
 49 53  1  0  0  0
 49 64  1  0  0  0
 49117  1  0  0  0
 50 51  1  0  0  0
 50118  1  0  0  0
 50119  1  0  0  0
 51 52  1  0  0  0
 51120  1  0  0  0
 51121  1  0  0  0
 52122  1  0  0  0
 52123  1  0  0  0
 53 54  1  0  0  0
 54 55  2  0  0  0
 54124  1  0  0  0
 55 57  1  0  0  0
 55125  1  0  0  0
 56 69  2  0  0  0
 57 58  2  0  0  0
 57126  1  0  0  0
 58127  1  0  0  0
 59 60  1  0  0  0
 59 61  1  0  0  0
 59 62  1  0  0  0
 60128  1  0  0  0
 60129  1  0  0  0
 60130  1  0  0  0
 61131  1  0  0  0
 61132  1  0  0  0
 61133  1  0  0  0
 62134  1  0  0  0
 62135  1  0  0  0
 62136  1  0  0  0
 63 65  1  0  0  0
 63137  1  0  0  0
 63138  1  0  0  0
 63139  1  0  0  0
 64140  1  0  0  0
 65141  1  0  0  0
 68 75  1  0  0  0
 71 72  1  0  0  0
 71 74  1  0  0  0
 71142  1  0  0  0
 71143  1  0  0  0
 72 75  1  0  0  0
 72144  1  0  0  0
 72145  1  0  0  0
 73 74  1  0  0  0
 73 75  1  0  0  0
 73146  1  0  0  0
 73147  1  0  0  0
 74 81  1  0  0  0
 74148  1  0  0  0
 75149  1  0  0  0
 76 78  1  0  0  0
 76 80  1  0  0  0
 76150  1  0  0  0
 76151  1  0  0  0
 77 79  1  0  0  0
 77 81  1  0  0  0
 77152  1  0  0  0
 77153  1  0  0  0
 78 82  1  0  0  0
 78154  1  0  0  0
 78155  1  0  0  0
 79 82  1  0  0  0
 79156  1  0  0  0
 79157  1  0  0  0
 80158  1  0  0  0
 81159  1  0  0  0
 82160  1  0  0  0
 82161  1  0  0  0
M  CHG  1  82   1
M  ISO  4   1 100  68 101  75 101  80 100
M  END
> <chiral flag>
0

> <version>
0

> <s_m_source_file>
/data/baiqing/PycharmProjects/Reinvent-master-3.2/result/LINK_invent/BTK/process_docking_weight1_custom_sum_contain_oxygen_bond_distance_aromatic_linkinvent_7_9_3/rearranged_h_0132.sdf

> <i_m_source_file_index>
72

> <r_mmod_Potential_Energy-OPLS-2005>
-188.486587524414

> <r_mmod_Stretch_Energy-OPLS-2005>
34.3308944702148

> <r_mmod_Bend_Energy-OPLS-2005>
128.874893188477

> <r_mmod_Torsional_Energy-OPLS-2005>
292.217956542969

> <r_mmod_Improper_Torsional_Energy-OPLS-2005>
1.90908432006836

> <r_mmod_Van_der_Waal_Energy-OPLS-2005>
139.406814575195

> <r_mmod_Electrostatic_Energy-OPLS-2005>
-311.179168701172

> <r_mmod_Solvation_Energy-OPLS-2005>
-484.964904785156

> <b_mmod_Minimization_Converged-OPLS-2005>
0

> <r_mmod_RMS_Derivative-OPLS-2005>
5.85019254684448

$$$$
74
                    3D
 Structure written by MMmdl.
159167  0  0  1  0            999 V2000
  -30.6608  -14.5577   20.4996 C   0  0  0  0  0  0
  -30.4233  -12.3373   19.4460 C   0  0  0  0  0  0
  -29.5045  -12.4896   18.2160 C   0  0  0  0  0  0
  -28.0203  -12.3628   18.6189 C   0  0  0  0  0  0
  -27.6525  -13.2169   19.8631 C   0  0  2  0  0  0
  -28.6954  -13.0514   20.9911 C   0  0  0  0  0  0
  -25.2559  -13.8195   20.5692 C   0  0  0  0  0  0
  -24.1825  -13.0460   20.9198 C   0  0  0  0  0  0
  -24.6390  -11.6927   20.8722 C   0  0  0  0  0  0
  -23.9058  -10.4312   21.0386 C   0  0  0  0  0  0
  -24.3612   -9.4237   21.9168 C   0  0  0  0  0  0
  -23.6305   -8.2257   22.0757 C   0  0  0  0  0  0
  -22.4288   -8.0295   21.3551 C   0  0  0  0  0  0
  -21.9909   -9.0258   20.4646 C   0  0  0  0  0  0
  -22.7221  -10.2148   20.3048 C   0  0  0  0  0  0
  -21.6866   -6.0727   22.5274 C   0  0  0  0  0  0
  -21.4006   -6.5629   23.8206 C   0  0  0  0  0  0
  -21.3677   -5.6788   24.9170 C   0  0  0  0  0  0
  -21.6054   -4.3049   24.7214 C   0  0  0  0  0  0
  -21.8830   -3.8140   23.4337 C   0  0  0  0  0  0
  -21.9202   -4.6954   22.3397 C   0  0  0  0  0  0
  -22.7852  -13.5252   21.1865 C   0  0  0  0  0  0
  -22.1679   -4.2151   21.0970 F   0  0  0  0  0  0
  -21.5639   -3.4532   25.7722 F   0  0  0  0  0  0
  -30.0161  -13.3578   20.4274 N   0  0  0  0  0  0
  -26.2984  -12.9362   20.3302 N   0  0  0  0  0  0
  -25.9316  -11.6519   20.5721 N   0  0  0  0  0  0
  -22.0490  -12.8231   22.0403 N   0  0  0  0  0  0
  -25.4304  -15.1917   20.4118 N   0  0  0  0  0  0
  -31.8270  -14.6977   20.1232 O   0  0  0  0  0  0
  -21.6672   -6.8877   21.4242 O   0  0  0  0  0  0
  -22.3527  -14.5547   20.6707 O   0  0  0  0  0  0
  -24.6202  -31.8648   23.2081 C   0  0  0  0  0  0
  -25.9068  -32.4796   23.8381 C   0  0  1  0  0  0
  -27.2188  -27.3732   20.0910 C   0  0  0  0  0  0
  -25.5926  -33.8611   24.2311 N   0  0  0  0  0  0
  -23.4100  -30.4894   21.5503 C   0  0  2  0  0  0
  -24.8537  -28.9594   20.1045 C   0  0  0  0  0  0
  -22.7441  -29.4624   22.4951 C   0  0  0  0  0  0
  -18.0271  -28.1374   22.8484 C   0  0  0  0  0  0
  -24.1490  -36.7309   23.2639 C   0  0  0  0  0  0
  -25.9455  -30.8083   21.3749 C   0  0  0  0  0  0
  -26.0171  -29.4418   20.7152 C   0  0  0  0  0  0
  -27.1977  -28.6540   20.7124 C   0  0  0  0  0  0
  -26.0350  -26.9338   19.4627 C   0  0  0  0  0  0
  -24.8607  -27.7063   19.4741 C   0  0  0  0  0  0
  -23.6196  -29.8313   20.1608 C   0  0  0  0  0  0
  -25.4110  -36.3103   24.0332 C   0  0  1  0  0  0
  -20.5864  -28.3661   23.1306 C   0  0  2  0  0  0
  -20.6758  -26.9392   22.5413 C   0  0  0  0  0  0
  -19.5726  -26.6376   21.5217 C   0  0  0  0  0  0
  -18.1910  -26.7922   22.1632 C   0  0  0  0  0  0
  -19.1523  -28.8838   23.2891 C   0  0  0  0  0  0
  -18.9445  -30.1450   23.8898 C   0  0  0  0  0  0
  -17.6448  -30.6583   24.0558 C   0  0  0  0  0  0
  -25.9040  -34.9471   23.5110 C   0  0  0  0  0  0
  -16.5338  -29.9075   23.6333 C   0  0  0  0  0  0
  -16.7264  -28.6495   23.0348 C   0  0  0  0  0  0
  -26.4481  -31.6593   25.0729 C   0  0  0  0  0  0
  -25.3736  -31.3726   26.1465 C   0  0  0  0  0  0
  -27.0339  -30.3026   24.6175 C   0  0  0  0  0  0
  -27.6041  -32.4334   25.7505 C   0  0  0  0  0  0
  -27.5578  -37.1809   24.8465 C   0  0  0  0  0  0
  -21.4157  -29.3038   22.3711 N   0  0  0  0  0  0
  -26.4295  -37.3784   23.9406 N   0  0  0  0  0  0
  -24.6765  -31.0702   22.1013 N   0  0  0  0  0  0
  -23.4194  -28.8164   23.3005 O   0  0  0  0  0  0
  -28.3464  -26.5622   20.1811 O   0  0  0  0  0  0
  -26.5602  -34.8923   22.4676 O   0  0  0  0  0  0
  -23.5385  -32.1451   23.7414 O   0  0  0  0  0  0
  -29.4546  -22.0287   20.3600 C   0  0  0  0  0  0
  -27.4435  -20.7642   20.2360 C   0  0  0  0  0  0
  -28.8650  -20.6538   20.8001 C   0  0  1  0  0  0
  -28.2735  -23.0574   20.3452 C   0  0  1  0  0  0
  -30.2864  -17.0484   20.4871 C   0  0  0  0  0  0
  -29.2076  -18.1508   20.7747 C   0  0  0  0  0  0
  -28.6779  -25.5742   19.1640 C   0  0  0  0  0  0
  -28.1955  -24.0571   19.1200 C   0  0  2  0  0  0
  -29.8912  -15.6424   20.7709 N   0  0  0  0  0  0
  -29.6426  -19.4877   20.3070 N   0  0  0  0  0  0
  -27.0729  -22.1930   20.3358 N   0  3  0  0  0  0
  -26.9403  -23.9243   18.4557 O   0  0  0  0  0  0
  -31.4686  -12.4355   19.1480 H   0  0  0  0  0  0
  -30.3308  -11.3378   19.8727 H   0  0  0  0  0  0
  -29.7492  -11.7404   17.4630 H   0  0  0  0  0  0
  -29.6807  -13.4601   17.7480 H   0  0  0  0  0  0
  -27.8194  -11.3087   18.8176 H   0  0  0  0  0  0
  -27.3840  -12.6354   17.7750 H   0  0  0  0  0  0
  -27.6747  -14.2562   19.5356 H   0  0  0  0  0  0
  -28.6867  -12.0315   21.3783 H   0  0  0  0  0  0
  -28.4568  -13.6944   21.8399 H   0  0  0  0  0  0
  -25.2758   -9.5726   22.4732 H   0  0  0  0  0  0
  -24.0043   -7.4648   22.7463 H   0  0  0  0  0  0
  -21.0856   -8.8747   19.8941 H   0  0  0  0  0  0
  -22.3669  -10.9677   19.6154 H   0  0  0  0  0  0
  -21.1986   -7.6138   23.9700 H   0  0  0  0  0  0
  -21.1496   -6.0514   25.9071 H   0  0  0  0  0  0
  -22.0594   -2.7608   23.2823 H   0  0  0  0  0  0
  -22.4101  -11.9881   22.4793 H   0  0  0  0  0  0
  -21.1106  -13.1251   22.2596 H   0  0  0  0  0  0
  -24.6634  -15.8482   20.5103 H   0  0  0  0  0  0
  -26.2745  -15.6246   20.0585 H   0  0  0  0  0  0
  -26.7120  -32.5482   23.1123 H   0  0  0  0  0  0
  -25.0070  -33.9768   25.0453 H   0  0  0  0  0  0
  -22.6989  -31.3081   21.4134 H   0  0  0  0  0  0
  -23.3746  -35.9647   23.3317 H   0  0  0  0  0  0
  -24.3575  -36.8921   22.2046 H   0  0  0  0  0  0
  -23.7243  -37.6518   23.6655 H   0  0  0  0  0  0
  -26.0717  -31.5734   20.6068 H   0  0  0  0  0  0
  -26.8286  -30.8542   22.0007 H   0  0  0  0  0  0
  -28.0892  -29.0180   21.2032 H   0  0  0  0  0  0
  -25.9729  -25.9755   18.9878 H   0  0  0  0  0  0
  -23.9656  -27.3276   18.9998 H   0  0  0  0  0  0
  -23.7336  -30.6143   19.4091 H   0  0  0  0  0  0
  -22.7417  -29.2573   19.8579 H   0  0  0  0  0  0
  -25.1283  -36.1964   25.0822 H   0  0  0  0  0  0
  -20.9952  -28.3237   24.1428 H   0  0  0  0  0  0
  -20.5668  -26.2279   23.3605 H   0  0  0  0  0  0
  -21.6624  -26.7437   22.1198 H   0  0  0  0  0  0
  -19.6890  -25.6290   21.1240 H   0  0  0  0  0  0
  -19.6671  -27.3202   20.6753 H   0  0  0  0  0  0
  -17.4186  -26.6682   21.4027 H   0  0  0  0  0  0
  -18.0302  -26.0056   22.9018 H   0  0  0  0  0  0
  -19.7918  -30.7261   24.2272 H   0  0  0  0  0  0
  -17.4997  -31.6258   24.5158 H   0  0  0  0  0  0
  -15.5340  -30.2975   23.7642 H   0  0  0  0  0  0
  -15.8665  -28.0811   22.7061 H   0  0  0  0  0  0
  -24.5892  -30.7098   25.7785 H   0  0  0  0  0  0
  -24.8950  -32.2903   26.4905 H   0  0  0  0  0  0
  -25.8063  -30.8880   27.0229 H   0  0  0  0  0  0
  -26.2922  -29.6758   24.1214 H   0  0  0  0  0  0
  -27.4061  -29.7283   25.4665 H   0  0  0  0  0  0
  -27.8775  -30.4309   23.9389 H   0  0  0  0  0  0
  -27.2646  -33.3629   26.2092 H   0  0  0  0  0  0
  -28.3861  -32.6912   25.0347 H   0  0  0  0  0  0
  -28.0718  -31.8468   26.5423 H   0  0  0  0  0  0
  -28.2593  -38.0102   24.7496 H   0  0  0  0  0  0
  -28.1073  -36.2633   24.6315 H   0  0  0  0  0  0
  -27.2296  -37.1487   25.8866 H   0  0  0  0  0  0
  -20.9320  -29.8793   21.6951 H   0  0  0  0  0  0
  -26.0186  -38.2868   24.1389 H   0  0  0  0  0  0
  -29.8793  -21.9363   19.3614 H   0  0  0  0  0  0
  -30.2605  -22.3585   21.0157 H   0  0  0  0  0  0
  -26.7308  -20.1304   20.7657 H   0  0  0  0  0  0
  -27.4276  -20.4811   19.1820 H   0  0  0  0  0  0
  -28.8115  -20.6264   21.8900 H   0  0  0  0  0  0
  -28.2538  -23.6188   21.2808 H   0  0  0  0  0  0
  -31.1882  -17.2730   21.0598 H   0  0  0  0  0  0
  -30.5842  -17.1049   19.4369 H   0  0  0  0  0  0
  -29.0002  -18.1847   21.8446 H   0  0  0  0  0  0
  -28.2688  -17.8888   20.2797 H   0  0  0  0  0  0
  -28.4980  -26.0250   18.1873 H   0  0  0  0  0  0
  -29.7651  -25.5253   19.2253 H   0  0  0  0  0  0
  -28.8580  -23.6239   18.3692 H   0  0  0  0  0  0
  -28.9353  -15.4705   21.0423 H   0  0  0  0  0  0
  -29.6642  -19.4906   19.2895 H   0  0  0  0  0  0
  -26.5288  -22.3579   21.1653 H   0  0  0  0  0  0
  -26.5451  -22.5075   19.5276 H   0  0  0  0  0  0
  -27.0121  -24.3597   17.6100 H   0  0  0  0  0  0
  1 25  1  0  0  0
  1 30  2  0  0  0
  1 79  1  0  0  0
  2  3  1  0  0  0
  2 25  1  0  0  0
  2 83  1  0  0  0
  2 84  1  0  0  0
  3  4  1  0  0  0
  3 85  1  0  0  0
  3 86  1  0  0  0
  4  5  1  0  0  0
  4 87  1  0  0  0
  4 88  1  0  0  0
  5  6  1  0  0  0
  5 26  1  0  0  0
  5 89  1  0  0  0
  6 25  1  0  0  0
  6 90  1  0  0  0
  6 91  1  0  0  0
  7  8  2  0  0  0
  7 26  1  0  0  0
  7 29  1  0  0  0
  8  9  1  0  0  0
  8 22  1  0  0  0
  9 10  1  0  0  0
  9 27  2  0  0  0
 10 11  2  0  0  0
 10 15  1  0  0  0
 11 12  1  0  0  0
 11 92  1  0  0  0
 12 13  2  0  0  0
 12 93  1  0  0  0
 13 14  1  0  0  0
 13 31  1  0  0  0
 14 15  2  0  0  0
 14 94  1  0  0  0
 15 95  1  0  0  0
 16 17  2  0  0  0
 16 21  1  0  0  0
 16 31  1  0  0  0
 17 18  1  0  0  0
 17 96  1  0  0  0
 18 19  2  0  0  0
 18 97  1  0  0  0
 19 20  1  0  0  0
 19 24  1  0  0  0
 20 21  2  0  0  0
 20 98  1  0  0  0
 21 23  1  0  0  0
 22 28  1  0  0  0
 22 32  2  0  0  0
 26 27  1  0  0  0
 28 99  1  0  0  0
 28100  1  0  0  0
 29101  1  0  0  0
 29102  1  0  0  0
 33 34  1  0  0  0
 33 66  1  0  0  0
 33 70  2  0  0  0
 34 36  1  0  0  0
 34 59  1  0  0  0
 34103  1  0  0  0
 35 44  2  0  0  0
 35 45  1  0  0  0
 35 68  1  0  0  0
 36 56  1  0  0  0
 36104  1  0  0  0
 37 39  1  0  0  0
 37 47  1  0  0  0
 37 66  1  0  0  0
 37105  1  0  0  0
 38 43  2  0  0  0
 38 46  1  0  0  0
 38 47  1  0  0  0
 39 64  1  0  0  0
 39 67  2  0  0  0
 40 52  1  0  0  0
 40 53  2  0  0  0
 40 58  1  0  0  0
 41106  1  0  0  0
 41107  1  0  0  0
 41108  1  0  0  0
 41 48  1  0  0  0
 42 43  1  0  0  0
 42 66  1  0  0  0
 42109  1  0  0  0
 42110  1  0  0  0
 43 44  1  0  0  0
 44111  1  0  0  0
 45 46  2  0  0  0
 45112  1  0  0  0
 46113  1  0  0  0
 47114  1  0  0  0
 47115  1  0  0  0
 48 56  1  0  0  0
 48 65  1  0  0  0
 48116  1  0  0  0
 49 50  1  0  0  0
 49 53  1  0  0  0
 49 64  1  0  0  0
 49117  1  0  0  0
 50 51  1  0  0  0
 50118  1  0  0  0
 50119  1  0  0  0
 51 52  1  0  0  0
 51120  1  0  0  0
 51121  1  0  0  0
 52122  1  0  0  0
 52123  1  0  0  0
 53 54  1  0  0  0
 54 55  2  0  0  0
 54124  1  0  0  0
 55 57  1  0  0  0
 55125  1  0  0  0
 56 69  2  0  0  0
 57 58  2  0  0  0
 57126  1  0  0  0
 58127  1  0  0  0
 59 60  1  0  0  0
 59 61  1  0  0  0
 59 62  1  0  0  0
 60128  1  0  0  0
 60129  1  0  0  0
 60130  1  0  0  0
 61131  1  0  0  0
 61132  1  0  0  0
 61133  1  0  0  0
 62134  1  0  0  0
 62135  1  0  0  0
 62136  1  0  0  0
 63 65  1  0  0  0
 63137  1  0  0  0
 63138  1  0  0  0
 63139  1  0  0  0
 64140  1  0  0  0
 65141  1  0  0  0
 68 77  1  0  0  0
 71 73  1  0  0  0
 71142  1  0  0  0
 71143  1  0  0  0
 71 74  1  0  0  0
 72 73  1  0  0  0
 72 81  1  0  0  0
 72144  1  0  0  0
 72145  1  0  0  0
 73 80  1  0  0  0
 73146  1  0  0  0
 74 78  1  0  0  0
 74 81  1  0  0  0
 74147  1  0  0  0
 75 76  1  0  0  0
 75 79  1  0  0  0
 75148  1  0  0  0
 75149  1  0  0  0
 76 80  1  0  0  0
 76150  1  0  0  0
 76151  1  0  0  0
 77 78  1  0  0  0
 77152  1  0  0  0
 77153  1  0  0  0
 78 82  1  0  0  0
 78154  1  0  0  0
 79155  1  0  0  0
 80156  1  0  0  0
 81157  1  0  0  0
 81158  1  0  0  0
 82159  1  0  0  0
M  CHG  1  81   1
M  ISO  4   1 100  68 101  77 101  79 100
M  END
> <chiral flag>
0

> <version>
0

> <s_m_source_file>
/data/baiqing/PycharmProjects/Reinvent-master-3.2/result/LINK_invent/BTK/process_docking_weight1_custom_sum_contain_oxygen_bond_distance_aromatic_linkinvent_7_9_3/rearranged_h_0132.sdf

> <i_m_source_file_index>
73

> <r_mmod_Potential_Energy-OPLS-2005>
-156.065795898438

> <r_mmod_Stretch_Energy-OPLS-2005>
55.397819519043

> <r_mmod_Bend_Energy-OPLS-2005>
176.542449951172

> <r_mmod_Torsional_Energy-OPLS-2005>
297.846893310547

> <r_mmod_Improper_Torsional_Energy-OPLS-2005>
6.04218435287476

> <r_mmod_Van_der_Waal_Energy-OPLS-2005>
137.704544067383

> <r_mmod_Electrostatic_Energy-OPLS-2005>
-383.787445068359

> <r_mmod_Solvation_Energy-OPLS-2005>
-476.518005371094

> <b_mmod_Minimization_Converged-OPLS-2005>
0

> <r_mmod_RMS_Derivative-OPLS-2005>
2.85148501396179

$$$$
75
                    3D
 Structure written by MMmdl.
163171  0  0  1  0            999 V2000
  -30.6693  -14.5381   20.5641 C   0  0  0  0  0  0
  -30.4308  -12.3486   19.4288 C   0  0  0  0  0  0
  -29.4982  -12.5073   18.2096 C   0  0  0  0  0  0
  -28.0204  -12.3559   18.6232 C   0  0  0  0  0  0
  -27.6566  -13.2090   19.8677 C   0  0  2  0  0  0
  -28.6994  -13.0183   20.9912 C   0  0  0  0  0  0
  -25.2573  -13.8159   20.5677 C   0  0  0  0  0  0
  -24.1831  -13.0435   20.9182 C   0  0  0  0  0  0
  -24.6387  -11.6902   20.8731 C   0  0  0  0  0  0
  -23.9053  -10.4290   21.0404 C   0  0  0  0  0  0
  -24.3608   -9.4207   21.9181 C   0  0  0  0  0  0
  -23.6288   -8.2241   22.0753 C   0  0  0  0  0  0
  -22.4270   -8.0276   21.3544 C   0  0  0  0  0  0
  -21.9901   -9.0248   20.4647 C   0  0  0  0  0  0
  -22.7226  -10.2130   20.3054 C   0  0  0  0  0  0
  -21.6853   -6.0731   22.5279 C   0  0  0  0  0  0
  -21.4013   -6.5636   23.8211 C   0  0  0  0  0  0
  -21.3659   -5.6791   24.9174 C   0  0  0  0  0  0
  -21.6045   -4.3053   24.7226 C   0  0  0  0  0  0
  -21.8820   -3.8142   23.4348 C   0  0  0  0  0  0
  -21.9193   -4.6958   22.3403 C   0  0  0  0  0  0
  -22.7855  -13.5236   21.1843 C   0  0  0  0  0  0
  -22.1663   -4.2144   21.0980 F   0  0  0  0  0  0
  -21.5628   -3.4538   25.7738 F   0  0  0  0  0  0
  -30.0217  -13.3446   20.4335 N   0  0  0  0  0  0
  -26.2999  -12.9328   20.3329 N   0  0  0  0  0  0
  -25.9312  -11.6489   20.5749 N   0  0  0  0  0  0
  -22.0491  -12.8236   22.0401 N   0  0  0  0  0  0
  -25.4297  -15.1878   20.4082 N   0  0  0  0  0  0
  -31.8116  -14.7212   20.1349 O   0  0  0  0  0  0
  -21.6637   -6.8872   21.4240 O   0  0  0  0  0  0
  -22.3546  -14.5544   20.6690 O   0  0  0  0  0  0
  -24.6176  -31.8656   23.2077 C   0  0  0  0  0  0
  -25.9056  -32.4811   23.8385 C   0  0  1  0  0  0
  -27.2319  -27.3907   20.1190 C   0  0  0  0  0  0
  -25.5902  -33.8610   24.2315 N   0  0  0  0  0  0
  -23.4087  -30.4876   21.5482 C   0  0  2  0  0  0
  -24.8580  -28.9411   20.1238 C   0  0  0  0  0  0
  -22.7425  -29.4650   22.4975 C   0  0  0  0  0  0
  -18.0274  -28.1380   22.8494 C   0  0  0  0  0  0
  -24.1487  -36.7313   23.2638 C   0  0  0  0  0  0
  -25.9414  -30.8148   21.3705 C   0  0  0  0  0  0
  -26.0187  -29.4408   20.7299 C   0  0  0  0  0  0
  -27.2106  -28.6717   20.7295 C   0  0  0  0  0  0
  -26.0613  -26.9214   19.4909 C   0  0  0  0  0  0
  -24.8751  -27.6806   19.5022 C   0  0  0  0  0  0
  -23.6229  -29.8155   20.1655 C   0  0  0  0  0  0
  -25.4109  -36.3106   24.0336 C   0  0  1  0  0  0
  -20.5867  -28.3673   23.1309 C   0  0  2  0  0  0
  -20.6765  -26.9406   22.5416 C   0  0  0  0  0  0
  -19.5743  -26.6386   21.5214 C   0  0  0  0  0  0
  -18.1921  -26.7927   22.1625 C   0  0  0  0  0  0
  -19.1524  -28.8843   23.2899 C   0  0  0  0  0  0
  -18.9451  -30.1450   23.8909 C   0  0  0  0  0  0
  -17.6452  -30.6587   24.0566 C   0  0  0  0  0  0
  -25.9037  -34.9471   23.5123 C   0  0  0  0  0  0
  -16.5344  -29.9087   23.6327 C   0  0  0  0  0  0
  -16.7262  -28.6504   23.0351 C   0  0  0  0  0  0
  -26.4475  -31.6599   25.0724 C   0  0  0  0  0  0
  -25.3735  -31.3713   26.1468 C   0  0  0  0  0  0
  -27.0308  -30.3035   24.6121 C   0  0  0  0  0  0
  -27.6044  -32.4324   25.7489 C   0  0  0  0  0  0
  -27.5581  -37.1813   24.8466 C   0  0  0  0  0  0
  -21.4149  -29.3040   22.3716 N   0  0  0  0  0  0
  -26.4295  -37.3791   23.9406 N   0  0  0  0  0  0
  -24.6741  -31.0721   22.1001 N   0  0  0  0  0  0
  -23.4182  -28.8184   23.3022 O   0  0  0  0  0  0
  -28.3762  -26.6194   20.0272 O   0  0  0  0  0  0
  -26.5599  -34.8924   22.4685 O   0  0  0  0  0  0
  -23.5358  -32.1425   23.7446 O   0  0  0  0  0  0
  -29.2799  -20.5859   21.0038 C   0  0  0  0  0  0
  -29.3116  -23.7211   23.2530 C   0  0  0  0  0  0
  -29.7796  -22.5330   24.0878 C   0  0  0  0  0  0
  -28.8105  -21.6610   22.0446 C   0  0  2  0  0  0
  -29.1781  -23.1953   21.8144 C   0  0  1  0  0  0
  -29.5714  -18.0681   20.5578 C   0  0  0  0  0  0
  -30.3494  -16.9549   21.3460 C   0  0  0  0  0  0
  -28.6846  -25.7070   21.1068 C   0  0  0  0  0  0
  -28.3048  -24.1808   20.9147 C   0  0  2  0  0  0
  -29.2540  -19.2715   21.3699 N   0  0  0  0  0  0
  -29.9319  -15.5572   21.0678 N   0  0  0  0  0  0
  -29.3807  -21.3109   23.3659 N   0  3  0  0  0  0
  -26.8447  -24.0090   21.1257 N   0  3  0  0  0  0
  -29.6676  -20.9365   19.8880 O   0  0  0  0  0  0
  -31.4722  -12.4683   19.1248 H   0  0  0  0  0  0
  -30.3551  -11.3425   19.8439 H   0  0  0  0  0  0
  -29.7493  -11.7711   17.4450 H   0  0  0  0  0  0
  -29.6524  -13.4864   17.7533 H   0  0  0  0  0  0
  -27.8438  -11.3007   18.8349 H   0  0  0  0  0  0
  -27.3672  -12.6102   17.7876 H   0  0  0  0  0  0
  -27.6911  -14.2520   19.5527 H   0  0  0  0  0  0
  -28.6933  -11.9865   21.3454 H   0  0  0  0  0  0
  -28.4518  -13.6270   21.8619 H   0  0  0  0  0  0
  -25.2753   -9.5685   22.4755 H   0  0  0  0  0  0
  -23.9996   -7.4634   22.7474 H   0  0  0  0  0  0
  -21.0830   -8.8766   19.8956 H   0  0  0  0  0  0
  -22.3682  -10.9666   19.6162 H   0  0  0  0  0  0
  -21.2006   -7.6144   23.9713 H   0  0  0  0  0  0
  -21.1481   -6.0521   25.9077 H   0  0  0  0  0  0
  -22.0600   -2.7604   23.2850 H   0  0  0  0  0  0
  -22.4094  -11.9893   22.4793 H   0  0  0  0  0  0
  -21.1107  -13.1265   22.2595 H   0  0  0  0  0  0
  -24.6610  -15.8418   20.5095 H   0  0  0  0  0  0
  -26.2769  -15.6234   20.0667 H   0  0  0  0  0  0
  -26.7128  -32.5516   23.1148 H   0  0  0  0  0  0
  -25.0061  -33.9771   25.0466 H   0  0  0  0  0  0
  -22.6994  -31.3052   21.4045 H   0  0  0  0  0  0
  -23.3741  -35.9655   23.3310 H   0  0  0  0  0  0
  -24.3581  -36.8916   22.2051 H   0  0  0  0  0  0
  -23.7248  -37.6525   23.6646 H   0  0  0  0  0  0
  -26.0571  -31.5723   20.5939 H   0  0  0  0  0  0
  -26.8284  -30.8748   21.9893 H   0  0  0  0  0  0
  -28.1097  -29.0608   21.1869 H   0  0  0  0  0  0
  -26.0696  -25.9747   18.9699 H   0  0  0  0  0  0
  -23.9878  -27.2978   19.0163 H   0  0  0  0  0  0
  -23.7378  -30.5876   19.4037 H   0  0  0  0  0  0
  -22.7457  -29.2384   19.8673 H   0  0  0  0  0  0
  -25.1288  -36.1970   25.0830 H   0  0  0  0  0  0
  -20.9962  -28.3240   24.1428 H   0  0  0  0  0  0
  -20.5668  -26.2281   23.3605 H   0  0  0  0  0  0
  -21.6636  -26.7448   22.1208 H   0  0  0  0  0  0
  -19.6901  -25.6299   21.1235 H   0  0  0  0  0  0
  -19.6679  -27.3205   20.6750 H   0  0  0  0  0  0
  -17.4193  -26.6678   21.4025 H   0  0  0  0  0  0
  -18.0320  -26.0066   22.9018 H   0  0  0  0  0  0
  -19.7926  -30.7265   24.2282 H   0  0  0  0  0  0
  -17.5006  -31.6268   24.5165 H   0  0  0  0  0  0
  -15.5345  -30.2993   23.7645 H   0  0  0  0  0  0
  -15.8662  -28.0827   22.7058 H   0  0  0  0  0  0
  -24.5904  -30.7065   25.7806 H   0  0  0  0  0  0
  -24.8933  -32.2872   26.4922 H   0  0  0  0  0  0
  -25.8085  -30.8878   27.0223 H   0  0  0  0  0  0
  -26.2860  -29.6797   24.1166 H   0  0  0  0  0  0
  -27.4053  -29.7274   25.4593 H   0  0  0  0  0  0
  -27.8709  -30.4343   23.9295 H   0  0  0  0  0  0
  -27.2656  -33.3611   26.2091 H   0  0  0  0  0  0
  -28.3843  -32.6905   25.0312 H   0  0  0  0  0  0
  -28.0727  -31.8436   26.5385 H   0  0  0  0  0  0
  -28.2608  -38.0102   24.7506 H   0  0  0  0  0  0
  -28.1066  -36.2633   24.6302 H   0  0  0  0  0  0
  -27.2298  -37.1478   25.8869 H   0  0  0  0  0  0
  -20.9312  -29.8767   21.6941 H   0  0  0  0  0  0
  -26.0181  -38.2870   24.1396 H   0  0  0  0  0  0
  -29.9992  -24.5636   23.3437 H   0  0  0  0  0  0
  -28.3429  -24.0516   23.6312 H   0  0  0  0  0  0
  -29.3658  -22.5536   25.0972 H   0  0  0  0  0  0
  -30.8668  -22.5403   24.1803 H   0  0  0  0  0  0
  -27.7296  -21.5639   22.1429 H   0  0  0  0  0  0
  -30.1863  -23.2105   21.3943 H   0  0  0  0  0  0
  -28.6197  -17.6666   20.2061 H   0  0  0  0  0  0
  -30.1289  -18.3387   19.6589 H   0  0  0  0  0  0
  -30.2002  -17.0996   22.4166 H   0  0  0  0  0  0
  -31.4222  -17.0779   21.1866 H   0  0  0  0  0  0
  -29.7680  -25.7691   21.2132 H   0  0  0  0  0  0
  -28.2844  -26.0914   22.0470 H   0  0  0  0  0  0
  -28.5057  -23.9237   19.8734 H   0  0  0  0  0  0
  -28.8414  -19.0503   22.2656 H   0  0  0  0  0  0
  -28.9941  -15.3098   21.3468 H   0  0  0  0  0  0
  -28.7147  -20.7792   23.9030 H   0  0  0  0  0  0
  -30.1965  -20.7387   23.2125 H   0  0  0  0  0  0
  -26.5680  -24.1696   22.0803 H   0  0  0  0  0  0
  -26.5250  -23.0982   20.8443 H   0  0  0  0  0  0
  -26.3416  -24.6719   20.5595 H   0  0  0  0  0  0
  1 25  1  0  0  0
  1 30  2  0  0  0
  1 81  1  0  0  0
  2  3  1  0  0  0
  2 25  1  0  0  0
  2 85  1  0  0  0
  2 86  1  0  0  0
  3  4  1  0  0  0
  3 87  1  0  0  0
  3 88  1  0  0  0
  4  5  1  0  0  0
  4 89  1  0  0  0
  4 90  1  0  0  0
  5  6  1  0  0  0
  5 26  1  0  0  0
  5 91  1  0  0  0
  6 25  1  0  0  0
  6 92  1  0  0  0
  6 93  1  0  0  0
  7  8  2  0  0  0
  7 26  1  0  0  0
  7 29  1  0  0  0
  8  9  1  0  0  0
  8 22  1  0  0  0
  9 10  1  0  0  0
  9 27  2  0  0  0
 10 11  2  0  0  0
 10 15  1  0  0  0
 11 12  1  0  0  0
 11 94  1  0  0  0
 12 13  2  0  0  0
 12 95  1  0  0  0
 13 14  1  0  0  0
 13 31  1  0  0  0
 14 15  2  0  0  0
 14 96  1  0  0  0
 15 97  1  0  0  0
 16 17  2  0  0  0
 16 21  1  0  0  0
 16 31  1  0  0  0
 17 18  1  0  0  0
 17 98  1  0  0  0
 18 19  2  0  0  0
 18 99  1  0  0  0
 19 20  1  0  0  0
 19 24  1  0  0  0
 20 21  2  0  0  0
 20100  1  0  0  0
 21 23  1  0  0  0
 22 28  1  0  0  0
 22 32  2  0  0  0
 26 27  1  0  0  0
 28101  1  0  0  0
 28102  1  0  0  0
 29103  1  0  0  0
 29104  1  0  0  0
 33 34  1  0  0  0
 33 66  1  0  0  0
 33 70  2  0  0  0
 34 36  1  0  0  0
 34 59  1  0  0  0
 34105  1  0  0  0
 35 44  2  0  0  0
 35 45  1  0  0  0
 35 68  1  0  0  0
 36 56  1  0  0  0
 36106  1  0  0  0
 37 39  1  0  0  0
 37 47  1  0  0  0
 37 66  1  0  0  0
 37107  1  0  0  0
 38 43  2  0  0  0
 38 46  1  0  0  0
 38 47  1  0  0  0
 39 64  1  0  0  0
 39 67  2  0  0  0
 40 52  1  0  0  0
 40 53  2  0  0  0
 40 58  1  0  0  0
 41108  1  0  0  0
 41109  1  0  0  0
 41110  1  0  0  0
 41 48  1  0  0  0
 42 43  1  0  0  0
 42 66  1  0  0  0
 42111  1  0  0  0
 42112  1  0  0  0
 43 44  1  0  0  0
 44113  1  0  0  0
 45 46  2  0  0  0
 45114  1  0  0  0
 46115  1  0  0  0
 47116  1  0  0  0
 47117  1  0  0  0
 48 56  1  0  0  0
 48 65  1  0  0  0
 48118  1  0  0  0
 49 50  1  0  0  0
 49 53  1  0  0  0
 49 64  1  0  0  0
 49119  1  0  0  0
 50 51  1  0  0  0
 50120  1  0  0  0
 50121  1  0  0  0
 51 52  1  0  0  0
 51122  1  0  0  0
 51123  1  0  0  0
 52124  1  0  0  0
 52125  1  0  0  0
 53 54  1  0  0  0
 54 55  2  0  0  0
 54126  1  0  0  0
 55 57  1  0  0  0
 55127  1  0  0  0
 56 69  2  0  0  0
 57 58  2  0  0  0
 57128  1  0  0  0
 58129  1  0  0  0
 59 60  1  0  0  0
 59 61  1  0  0  0
 59 62  1  0  0  0
 60130  1  0  0  0
 60131  1  0  0  0
 60132  1  0  0  0
 61133  1  0  0  0
 61134  1  0  0  0
 61135  1  0  0  0
 62136  1  0  0  0
 62137  1  0  0  0
 62138  1  0  0  0
 63 65  1  0  0  0
 63139  1  0  0  0
 63140  1  0  0  0
 63141  1  0  0  0
 64142  1  0  0  0
 65143  1  0  0  0
 68 78  1  0  0  0
 71 80  1  0  0  0
 71 84  2  0  0  0
 71 74  1  0  0  0
 72 73  1  0  0  0
 72144  1  0  0  0
 72145  1  0  0  0
 72 75  1  0  0  0
 73 82  1  0  0  0
 73146  1  0  0  0
 73147  1  0  0  0
 74 75  1  0  0  0
 74 82  1  0  0  0
 74148  1  0  0  0
 75 79  1  0  0  0
 75149  1  0  0  0
 76 77  1  0  0  0
 76 80  1  0  0  0
 76150  1  0  0  0
 76151  1  0  0  0
 77 81  1  0  0  0
 77152  1  0  0  0
 77153  1  0  0  0
 78 79  1  0  0  0
 78154  1  0  0  0
 78155  1  0  0  0
 79 83  1  0  0  0
 79156  1  0  0  0
 80157  1  0  0  0
 81158  1  0  0  0
 82159  1  0  0  0
 82160  1  0  0  0
 83161  1  0  0  0
 83162  1  0  0  0
 83163  1  0  0  0
M  CHG  2  82   1  83   1
M  ISO  4   1 100  68 101  78 101  81 100
M  END
> <chiral flag>
0

> <version>
0

> <s_m_source_file>
/data/baiqing/PycharmProjects/Reinvent-master-3.2/result/LINK_invent/BTK/process_docking_weight1_custom_sum_contain_oxygen_bond_distance_aromatic_linkinvent_7_9_3/rearranged_h_0132.sdf

> <i_m_source_file_index>
74

> <r_mmod_Potential_Energy-OPLS-2005>
-482.0654296875

> <r_mmod_Stretch_Energy-OPLS-2005>
57.8125534057617

> <r_mmod_Bend_Energy-OPLS-2005>
144.545455932617

> <r_mmod_Torsional_Energy-OPLS-2005>
267.128326416016

> <r_mmod_Improper_Torsional_Energy-OPLS-2005>
3.59809517860413

> <r_mmod_Van_der_Waal_Energy-OPLS-2005>
118.945114135742

> <r_mmod_Electrostatic_Energy-OPLS-2005>
-12.5481481552124

> <r_mmod_Solvation_Energy-OPLS-2005>
-1082.107421875

> <b_mmod_Minimization_Converged-OPLS-2005>
0

> <r_mmod_RMS_Derivative-OPLS-2005>
0.431264817714691

$$$$
76
                    3D
 Structure written by MMmdl.
159167  0  0  1  0            999 V2000
  -30.5971  -14.8363   20.4314 C   0  0  0  0  0  0
  -30.4339  -12.5163   19.4784 C   0  0  0  0  0  0
  -29.5102  -12.5140   18.2409 C   0  0  0  0  0  0
  -28.0434  -12.3159   18.6654 C   0  0  0  0  0  0
  -27.6342  -13.2421   19.8402 C   0  0  2  0  0  0
  -28.6798  -13.2369   20.9755 C   0  0  0  0  0  0
  -25.2470  -13.8229   20.5697 C   0  0  0  0  0  0
  -24.1776  -13.0441   20.9226 C   0  0  0  0  0  0
  -24.6394  -11.6933   20.8765 C   0  0  0  0  0  0
  -23.9086  -10.4289   21.0418 C   0  0  0  0  0  0
  -24.3631   -9.4204   21.9194 C   0  0  0  0  0  0
  -23.6286   -8.2250   22.0770 C   0  0  0  0  0  0
  -22.4269   -8.0288   21.3558 C   0  0  0  0  0  0
  -21.9920   -9.0266   20.4659 C   0  0  0  0  0  0
  -22.7261  -10.2133   20.3063 C   0  0  0  0  0  0
  -21.6855   -6.0735   22.5273 C   0  0  0  0  0  0
  -21.4012   -6.5642   23.8203 C   0  0  0  0  0  0
  -21.3653   -5.6797   24.9170 C   0  0  0  0  0  0
  -21.6042   -4.3060   24.7226 C   0  0  0  0  0  0
  -21.8815   -3.8149   23.4348 C   0  0  0  0  0  0
  -21.9190   -4.6962   22.3404 C   0  0  0  0  0  0
  -22.7787  -13.5209   21.1883 C   0  0  0  0  0  0
  -22.1652   -4.2147   21.0981 F   0  0  0  0  0  0
  -21.5637   -3.4540   25.7736 F   0  0  0  0  0  0
  -29.9703  -13.6035   20.3785 N   0  0  0  0  0  0
  -26.2902  -12.9453   20.3255 N   0  0  0  0  0  0
  -25.9328  -11.6586   20.5768 N   0  0  0  0  0  0
  -22.0435  -12.8186   22.0438 N   0  0  0  0  0  0
  -25.4115  -15.1958   20.4082 N   0  0  0  0  0  0
  -31.8037  -14.8876   20.1804 O   0  0  0  0  0  0
  -21.6640   -6.8881   21.4236 O   0  0  0  0  0  0
  -22.3459  -14.5504   20.6722 O   0  0  0  0  0  0
  -24.6399  -31.8493   23.1958 C   0  0  0  0  0  0
  -25.9190  -32.4729   23.8325 C   0  0  1  0  0  0
  -27.2033  -27.1758   20.1476 C   0  0  0  0  0  0
  -25.5949  -33.8536   24.2242 N   0  0  0  0  0  0
  -23.4422  -30.4709   21.5420 C   0  0  2  0  0  0
  -24.8909  -28.9143   20.1080 C   0  0  0  0  0  0
  -22.7561  -29.4555   22.4883 C   0  0  0  0  0  0
  -18.0303  -28.1396   22.8473 C   0  0  0  0  0  0
  -24.1487  -36.7262   23.2643 C   0  0  0  0  0  0
  -25.9965  -30.7334   21.3937 C   0  0  0  0  0  0
  -26.0671  -29.3495   20.7341 C   0  0  0  0  0  0
  -27.2274  -28.4938   20.7428 C   0  0  0  0  0  0
  -26.0166  -26.8537   19.4523 C   0  0  0  0  0  0
  -24.8770  -27.6793   19.4482 C   0  0  0  0  0  0
  -23.6660  -29.8094   20.1580 C   0  0  0  0  0  0
  -25.4122  -36.3046   24.0323 C   0  0  1  0  0  0
  -20.5910  -28.3717   23.1248 C   0  0  2  0  0  0
  -20.6787  -26.9428   22.5401 C   0  0  0  0  0  0
  -19.5763  -26.6390   21.5207 C   0  0  0  0  0  0
  -18.1942  -26.7939   22.1611 C   0  0  0  0  0  0
  -19.1553  -28.8877   23.2858 C   0  0  0  0  0  0
  -18.9472  -30.1465   23.8892 C   0  0  0  0  0  0
  -17.6469  -30.6588   24.0559 C   0  0  0  0  0  0
  -25.9055  -34.9423   23.5080 C   0  0  0  0  0  0
  -16.5359  -29.9078   23.6339 C   0  0  0  0  0  0
  -16.7288  -28.6498   23.0363 C   0  0  0  0  0  0
  -26.4534  -31.6571   25.0736 C   0  0  0  0  0  0
  -25.3728  -31.3713   26.1423 C   0  0  0  0  0  0
  -27.0412  -30.2984   24.6275 C   0  0  0  0  0  0
  -27.6074  -32.4337   25.7509 C   0  0  0  0  0  0
  -27.5585  -37.1779   24.8468 C   0  0  0  0  0  0
  -21.4253  -29.3049   22.3637 N   0  0  0  0  0  0
  -26.4292  -37.3752   23.9410 N   0  0  0  0  0  0
  -24.7123  -31.0365   22.1001 N   0  0  0  0  0  0
  -23.4211  -28.8093   23.3023 O   0  0  0  0  0  0
  -28.2234  -26.1710   20.2096 O   0  0  0  0  0  0
  -26.5632  -34.8902   22.4656 O   0  0  0  0  0  0
  -23.5519  -32.1371   23.7168 O   0  0  0  0  0  0
  -28.5567  -22.5245   19.3246 C   0  0  0  0  0  0
  -28.8389  -22.5330   21.6662 C   0  0  0  0  0  0
  -28.5083  -23.3164   20.5144 C   0  0  0  0  0  0
  -28.8279  -21.0967   19.2948 C   0  0  0  0  0  0
  -29.0976  -21.1076   21.6601 C   0  0  0  0  0  0
  -29.0646  -20.2967   20.4726 C   0  0  0  0  0  0
  -28.7629  -20.4229   17.9361 C   0  0  0  0  0  0
  -29.3132  -20.4535   23.0151 C   0  0  0  0  0  0
  -31.0366  -17.7837   19.1724 C   0  0  0  0  0  0
  -28.9755  -18.6544   20.5051 C   0  0  0  0  0  0
  -27.7721  -24.7693   20.6491 C   0  0  0  0  0  0
  -30.1860  -17.5313   20.4309 C   0  0  1  0  0  0
  -29.8323  -16.0105   20.5453 N   0  0  0  0  0  0
  -31.4700  -12.6539   19.1650 H   0  0  0  0  0  0
  -30.4017  -11.5537   19.9923 H   0  0  0  0  0  0
  -29.8065  -11.7277   17.5459 H   0  0  0  0  0  0
  -29.6128  -13.4574   17.7010 H   0  0  0  0  0  0
  -27.9273  -11.2732   18.9639 H   0  0  0  0  0  0
  -27.3761  -12.4636   17.8156 H   0  0  0  0  0  0
  -27.6088  -14.2499   19.4252 H   0  0  0  0  0  0
  -28.7374  -12.2600   21.4567 H   0  0  0  0  0  0
  -28.4023  -13.9496   21.7535 H   0  0  0  0  0  0
  -25.2774   -9.5670   22.4777 H   0  0  0  0  0  0
  -23.9983   -7.4645   22.7502 H   0  0  0  0  0  0
  -21.0856   -8.8795   19.8967 H   0  0  0  0  0  0
  -22.3732  -10.9676   19.6171 H   0  0  0  0  0  0
  -21.2003   -7.6149   23.9705 H   0  0  0  0  0  0
  -21.1479   -6.0529   25.9069 H   0  0  0  0  0  0
  -22.0602   -2.7606   23.2851 H   0  0  0  0  0  0
  -22.4031  -11.9832   22.4805 H   0  0  0  0  0  0
  -21.1067  -13.1225   22.2678 H   0  0  0  0  0  0
  -24.6380  -15.8446   20.5121 H   0  0  0  0  0  0
  -26.2515  -15.6375   20.0568 H   0  0  0  0  0  0
  -26.7261  -32.5348   23.1062 H   0  0  0  0  0  0
  -25.0083  -33.9662   25.0379 H   0  0  0  0  0  0
  -22.7415  -31.2952   21.3945 H   0  0  0  0  0  0
  -23.3746  -35.9588   23.3296 H   0  0  0  0  0  0
  -24.3562  -36.8901   22.2053 H   0  0  0  0  0  0
  -23.7231  -37.6455   23.6686 H   0  0  0  0  0  0
  -26.1468  -31.4883   20.6203 H   0  0  0  0  0  0
  -26.8714  -30.7839   22.0309 H   0  0  0  0  0  0
  -28.1201  -28.8135   21.2610 H   0  0  0  0  0  0
  -25.9443  -25.9247   18.9072 H   0  0  0  0  0  0
  -23.9883  -27.3514   18.9272 H   0  0  0  0  0  0
  -23.7962  -30.5893   19.4068 H   0  0  0  0  0  0
  -22.7818  -29.2505   19.8464 H   0  0  0  0  0  0
  -25.1296  -36.1893   25.0811 H   0  0  0  0  0  0
  -20.9995  -28.3297   24.1373 H   0  0  0  0  0  0
  -20.5695  -26.2322   23.3607 H   0  0  0  0  0  0
  -21.6652  -26.7444   22.1192 H   0  0  0  0  0  0
  -19.6913  -25.6302   21.1241 H   0  0  0  0  0  0
  -19.6692  -27.3188   20.6729 H   0  0  0  0  0  0
  -17.4215  -26.6691   21.4015 H   0  0  0  0  0  0
  -18.0327  -26.0083   22.9008 H   0  0  0  0  0  0
  -19.7941  -30.7281   24.2253 H   0  0  0  0  0  0
  -17.5022  -31.6269   24.5168 H   0  0  0  0  0  0
  -15.5357  -30.2980   23.7680 H   0  0  0  0  0  0
  -15.8685  -28.0814   22.7099 H   0  0  0  0  0  0
  -24.5967  -30.6996   25.7734 H   0  0  0  0  0  0
  -24.8838  -32.2860   26.4780 H   0  0  0  0  0  0
  -25.8030  -30.8950   27.0243 H   0  0  0  0  0  0
  -26.3023  -29.6686   24.1307 H   0  0  0  0  0  0
  -27.4086  -29.7287   25.4821 H   0  0  0  0  0  0
  -27.8905  -30.4249   23.9557 H   0  0  0  0  0  0
  -27.2713  -33.3713   26.1955 H   0  0  0  0  0  0
  -28.3950  -32.6770   25.0365 H   0  0  0  0  0  0
  -28.0671  -31.8539   26.5525 H   0  0  0  0  0  0
  -28.2573  -38.0104   24.7537 H   0  0  0  0  0  0
  -28.1107  -36.2628   24.6275 H   0  0  0  0  0  0
  -27.2288  -37.1392   25.8865 H   0  0  0  0  0  0
  -20.9462  -29.8776   21.6828 H   0  0  0  0  0  0
  -26.0160  -38.2810   24.1440 H   0  0  0  0  0  0
  -28.2815  -23.0107   18.3983 H   0  0  0  0  0  0
  -28.7957  -23.0295   22.6268 H   0  0  0  0  0  0
  -29.0861  -21.1077   17.1524 H   0  0  0  0  0  0
  -27.7450  -20.1017   17.7134 H   0  0  0  0  0  0
  -29.4147  -19.5543   17.8847 H   0  0  0  0  0  0
  -29.9694  -21.0662   23.6349 H   0  0  0  0  0  0
  -29.7730  -19.4684   22.9416 H   0  0  0  0  0  0
  -28.3631  -20.3472   23.5403 H   0  0  0  0  0  0
  -31.2938  -18.8388   19.0787 H   0  0  0  0  0  0
  -30.5070  -17.4841   18.2671 H   0  0  0  0  0  0
  -31.9795  -17.2392   19.1998 H   0  0  0  0  0  0
  -28.2777  -18.3915   19.7112 H   0  0  0  0  0  0
  -28.4098  -18.4123   21.4035 H   0  0  0  0  0  0
  -27.5762  -24.8837   21.7153 H   0  0  0  0  0  0
  -26.7867  -24.5554   20.2423 H   0  0  0  0  0  0
  -30.8343  -17.7303   21.2853 H   0  0  0  0  0  0
  -28.8535  -15.8271   20.7099 H   0  0  0  0  0  0
  1 25  1  0  0  0
  1 30  2  0  0  0
  1 83  1  0  0  0
  2  3  1  0  0  0
  2 25  1  0  0  0
  2 84  1  0  0  0
  2 85  1  0  0  0
  3  4  1  0  0  0
  3 86  1  0  0  0
  3 87  1  0  0  0
  4  5  1  0  0  0
  4 88  1  0  0  0
  4 89  1  0  0  0
  5  6  1  0  0  0
  5 26  1  0  0  0
  5 90  1  0  0  0
  6 25  1  0  0  0
  6 91  1  0  0  0
  6 92  1  0  0  0
  7  8  2  0  0  0
  7 26  1  0  0  0
  7 29  1  0  0  0
  8  9  1  0  0  0
  8 22  1  0  0  0
  9 10  1  0  0  0
  9 27  2  0  0  0
 10 11  2  0  0  0
 10 15  1  0  0  0
 11 12  1  0  0  0
 11 93  1  0  0  0
 12 13  2  0  0  0
 12 94  1  0  0  0
 13 14  1  0  0  0
 13 31  1  0  0  0
 14 15  2  0  0  0
 14 95  1  0  0  0
 15 96  1  0  0  0
 16 17  2  0  0  0
 16 21  1  0  0  0
 16 31  1  0  0  0
 17 18  1  0  0  0
 17 97  1  0  0  0
 18 19  2  0  0  0
 18 98  1  0  0  0
 19 20  1  0  0  0
 19 24  1  0  0  0
 20 21  2  0  0  0
 20 99  1  0  0  0
 21 23  1  0  0  0
 22 28  1  0  0  0
 22 32  2  0  0  0
 26 27  1  0  0  0
 28100  1  0  0  0
 28101  1  0  0  0
 29102  1  0  0  0
 29103  1  0  0  0
 33 34  1  0  0  0
 33 66  1  0  0  0
 33 70  2  0  0  0
 34 36  1  0  0  0
 34 59  1  0  0  0
 34104  1  0  0  0
 35 44  2  0  0  0
 35 45  1  0  0  0
 35 68  1  0  0  0
 36 56  1  0  0  0
 36105  1  0  0  0
 37 39  1  0  0  0
 37 47  1  0  0  0
 37 66  1  0  0  0
 37106  1  0  0  0
 38 43  2  0  0  0
 38 46  1  0  0  0
 38 47  1  0  0  0
 39 64  1  0  0  0
 39 67  2  0  0  0
 40 52  1  0  0  0
 40 53  2  0  0  0
 40 58  1  0  0  0
 41107  1  0  0  0
 41108  1  0  0  0
 41109  1  0  0  0
 41 48  1  0  0  0
 42 43  1  0  0  0
 42 66  1  0  0  0
 42110  1  0  0  0
 42111  1  0  0  0
 43 44  1  0  0  0
 44112  1  0  0  0
 45 46  2  0  0  0
 45113  1  0  0  0
 46114  1  0  0  0
 47115  1  0  0  0
 47116  1  0  0  0
 48 56  1  0  0  0
 48 65  1  0  0  0
 48117  1  0  0  0
 49 50  1  0  0  0
 49 53  1  0  0  0
 49 64  1  0  0  0
 49118  1  0  0  0
 50 51  1  0  0  0
 50119  1  0  0  0
 50120  1  0  0  0
 51 52  1  0  0  0
 51121  1  0  0  0
 51122  1  0  0  0
 52123  1  0  0  0
 52124  1  0  0  0
 53 54  1  0  0  0
 54 55  2  0  0  0
 54125  1  0  0  0
 55 57  1  0  0  0
 55126  1  0  0  0
 56 69  2  0  0  0
 57 58  2  0  0  0
 57127  1  0  0  0
 58128  1  0  0  0
 59 60  1  0  0  0
 59 61  1  0  0  0
 59 62  1  0  0  0
 60129  1  0  0  0
 60130  1  0  0  0
 60131  1  0  0  0
 61132  1  0  0  0
 61133  1  0  0  0
 61134  1  0  0  0
 62135  1  0  0  0
 62136  1  0  0  0
 62137  1  0  0  0
 63 65  1  0  0  0
 63138  1  0  0  0
 63139  1  0  0  0
 63140  1  0  0  0
 64141  1  0  0  0
 65142  1  0  0  0
 68 81  1  0  0  0
 71 73  2  0  0  0
 71 74  1  0  0  0
 71143  1  0  0  0
 72 73  1  0  0  0
 72 75  2  0  0  0
 72144  1  0  0  0
 73 81  1  0  0  0
 74 76  2  0  0  0
 74 77  1  0  0  0
 75 76  1  0  0  0
 75 78  1  0  0  0
 76 80  1  0  0  0
 77145  1  0  0  0
 77146  1  0  0  0
 77147  1  0  0  0
 78148  1  0  0  0
 78149  1  0  0  0
 78150  1  0  0  0
 79151  1  0  0  0
 79152  1  0  0  0
 79153  1  0  0  0
 79 82  1  0  0  0
 80 82  1  0  0  0
 80154  1  0  0  0
 80155  1  0  0  0
 81156  1  0  0  0
 81157  1  0  0  0
 82 83  1  0  0  0
 82158  1  0  0  0
 83159  1  0  0  0
M  ISO  4   1 100  68 101  81 101  83 100
M  END
> <chiral flag>
0

> <version>
0

> <s_m_source_file>
/data/baiqing/PycharmProjects/Reinvent-master-3.2/result/LINK_invent/BTK/process_docking_weight1_custom_sum_contain_oxygen_bond_distance_aromatic_linkinvent_7_9_3/rearranged_h_0132.sdf

> <i_m_source_file_index>
75

> <r_mmod_Potential_Energy-OPLS-2005>
387.649444580078

> <r_mmod_Stretch_Energy-OPLS-2005>
186.309066772461

> <r_mmod_Bend_Energy-OPLS-2005>
228.545181274414

> <r_mmod_Torsional_Energy-OPLS-2005>
245.560180664062

> <r_mmod_Improper_Torsional_Energy-OPLS-2005>
10.5707015991211

> <r_mmod_Van_der_Waal_Energy-OPLS-2005>
138.256088256836

> <r_mmod_Electrostatic_Energy-OPLS-2005>
-361.304138183594

> <r_mmod_Solvation_Energy-OPLS-2005>
-207.137588500977

> <b_mmod_Minimization_Converged-OPLS-2005>
0

> <r_mmod_RMS_Derivative-OPLS-2005>
2.37148976325989

$$$$
77
                    3D
 Structure written by MMmdl.
180188  0  0  1  0            999 V2000
  -30.6621  -14.5298   20.5480 C   0  0  0  0  0  0
  -30.4370  -12.3407   19.4191 C   0  0  0  0  0  0
  -29.5002  -12.4969   18.2016 C   0  0  0  0  0  0
  -28.0226  -12.3473   18.6197 C   0  0  0  0  0  0
  -27.6594  -13.2015   19.8637 C   0  0  2  0  0  0
  -28.7040  -13.0046   20.9847 C   0  0  0  0  0  0
  -25.2617  -13.8138   20.5661 C   0  0  0  0  0  0
  -24.1853  -13.0428   20.9167 C   0  0  0  0  0  0
  -24.6390  -11.6899   20.8714 C   0  0  0  0  0  0
  -23.9055  -10.4294   21.0393 C   0  0  0  0  0  0
  -24.3613   -9.4216   21.9184 C   0  0  0  0  0  0
  -23.6297   -8.2255   22.0760 C   0  0  0  0  0  0
  -22.4277   -8.0290   21.3548 C   0  0  0  0  0  0
  -21.9908   -9.0262   20.4657 C   0  0  0  0  0  0
  -22.7234  -10.2141   20.3056 C   0  0  0  0  0  0
  -21.6864   -6.0743   22.5280 C   0  0  0  0  0  0
  -21.4021   -6.5644   23.8205 C   0  0  0  0  0  0
  -21.3645   -5.6797   24.9172 C   0  0  0  0  0  0
  -21.6033   -4.3064   24.7222 C   0  0  0  0  0  0
  -21.8822   -3.8155   23.4350 C   0  0  0  0  0  0
  -21.9193   -4.6972   22.3405 C   0  0  0  0  0  0
  -22.7882  -13.5242   21.1838 C   0  0  0  0  0  0
  -22.1662   -4.2166   21.0988 F   0  0  0  0  0  0
  -21.5627   -3.4538   25.7727 F   0  0  0  0  0  0
  -30.0251  -13.3318   20.4245 N   0  0  0  0  0  0
  -26.3029  -12.9291   20.3312 N   0  0  0  0  0  0
  -25.9320  -11.6464   20.5751 N   0  0  0  0  0  0
  -22.0491  -12.8253   22.0366 N   0  0  0  0  0  0
  -25.4349  -15.1858   20.4072 N   0  0  0  0  0  0
  -31.8070  -14.7239   20.1325 O   0  0  0  0  0  0
  -21.6633   -6.8902   21.4249 O   0  0  0  0  0  0
  -22.3600  -14.5563   20.6690 O   0  0  0  0  0  0
  -24.6175  -31.8656   23.2079 C   0  0  0  0  0  0
  -25.9049  -32.4802   23.8381 C   0  0  1  0  0  0
  -27.2263  -27.3985   20.1092 C   0  0  0  0  0  0
  -25.5887  -33.8605   24.2302 N   0  0  0  0  0  0
  -23.4063  -30.4899   21.5478 C   0  0  2  0  0  0
  -24.8526  -28.9546   20.1128 C   0  0  0  0  0  0
  -22.7410  -29.4643   22.4953 C   0  0  0  0  0  0
  -18.0263  -28.1360   22.8468 C   0  0  0  0  0  0
  -24.1482  -36.7312   23.2642 C   0  0  0  0  0  0
  -25.9398  -30.8231   21.3654 C   0  0  0  0  0  0
  -26.0177  -29.4567   20.7074 C   0  0  0  0  0  0
  -27.2102  -28.6907   20.6934 C   0  0  0  0  0  0
  -26.0449  -26.9280   19.4948 C   0  0  0  0  0  0
  -24.8628  -27.6921   19.4990 C   0  0  0  0  0  0
  -23.6171  -29.8242   20.1617 C   0  0  0  0  0  0
  -25.4094  -36.3097   24.0341 C   0  0  1  0  0  0
  -20.5851  -28.3652   23.1289 C   0  0  2  0  0  0
  -20.6750  -26.9380   22.5401 C   0  0  0  0  0  0
  -19.5740  -26.6367   21.5188 C   0  0  0  0  0  0
  -18.1910  -26.7897   22.1593 C   0  0  0  0  0  0
  -19.1511  -28.8818   23.2887 C   0  0  0  0  0  0
  -18.9453  -30.1414   23.8908 C   0  0  0  0  0  0
  -17.6462  -30.6572   24.0556 C   0  0  0  0  0  0
  -25.9029  -34.9467   23.5116 C   0  0  0  0  0  0
  -16.5355  -29.9074   23.6328 C   0  0  0  0  0  0
  -16.7251  -28.6488   23.0349 C   0  0  0  0  0  0
  -26.4468  -31.6599   25.0729 C   0  0  0  0  0  0
  -25.3716  -31.3730   26.1472 C   0  0  0  0  0  0
  -27.0306  -30.3023   24.6138 C   0  0  0  0  0  0
  -27.6038  -32.4334   25.7495 C   0  0  0  0  0  0
  -27.5574  -37.1800   24.8456 C   0  0  0  0  0  0
  -21.4128  -29.3039   22.3711 N   0  0  0  0  0  0
  -26.4280  -37.3792   23.9415 N   0  0  0  0  0  0
  -24.6732  -31.0733   22.0976 N   0  0  0  0  0  0
  -23.4180  -28.8162   23.2987 O   0  0  0  0  0  0
  -28.3725  -26.6192   20.1345 O   0  0  0  0  0  0
  -26.5603  -34.8928   22.4684 O   0  0  0  0  0  0
  -23.5360  -32.1395   23.7447 O   0  0  0  0  0  0
  -31.2735  -22.0362   21.3871 C   0  0  0  0  0  0
  -29.8911  -22.0276   20.7000 C   0  0  1  0  0  0
  -29.9778  -23.2888   19.7466 C   0  0  2  0  0  0
  -31.1821  -24.1408   20.2667 C   0  0  2  0  0  0
  -34.4936  -25.3515   18.4736 C   0  0  0  0  0  0
  -33.0106  -26.7489   19.9534 C   0  0  0  0  0  0
  -27.7807  -22.9465   17.4647 C   0  0  0  0  0  0
  -29.6315  -20.6058   20.0435 C   0  0  0  0  0  0
  -32.2507  -24.4095   19.1790 C   0  0  0  0  0  0
  -30.2794  -16.9451   21.3120 C   0  0  0  0  0  0
  -29.6138  -18.0489   20.4161 C   0  0  0  0  0  0
  -28.2194  -25.2240   20.5242 C   0  0  0  0  0  0
  -28.7181  -24.2097   19.4280 C   0  0  2  0  0  0
  -33.4389  -25.3145   19.5919 C   0  0  0  0  0  0
  -29.8981  -15.5419   21.0198 N   0  0  0  0  0  0
  -31.7381  -23.4255   21.4260 N   0  3  0  0  0  0
  -27.5720  -23.4630   18.8353 N   0  3  0  0  0  0
  -29.8177  -19.4295   20.9670 N   0  3  0  0  0  0
  -31.4765  -12.4712   19.1130 H   0  0  0  0  0  0
  -30.3709  -11.3354   19.8372 H   0  0  0  0  0  0
  -29.7499  -11.7516   17.4435 H   0  0  0  0  0  0
  -29.6554  -13.4702   17.7336 H   0  0  0  0  0  0
  -27.8487  -11.2924   18.8330 H   0  0  0  0  0  0
  -27.3683  -12.5973   17.7835 H   0  0  0  0  0  0
  -27.6950  -14.2439   19.5469 H   0  0  0  0  0  0
  -28.6993  -11.9718   21.3346 H   0  0  0  0  0  0
  -28.4582  -13.6106   21.8576 H   0  0  0  0  0  0
  -25.2757   -9.5694   22.4757 H   0  0  0  0  0  0
  -24.0004   -7.4643   22.7473 H   0  0  0  0  0  0
  -21.0855   -8.8788   19.8953 H   0  0  0  0  0  0
  -22.3708  -10.9684   19.6167 H   0  0  0  0  0  0
  -21.2009   -7.6148   23.9726 H   0  0  0  0  0  0
  -21.1456   -6.0515   25.9074 H   0  0  0  0  0  0
  -22.0610   -2.7614   23.2833 H   0  0  0  0  0  0
  -22.4112  -11.9936   22.4806 H   0  0  0  0  0  0
  -21.1094  -13.1305   22.2507 H   0  0  0  0  0  0
  -24.6660  -15.8381   20.5105 H   0  0  0  0  0  0
  -26.2770  -15.6235   20.0575 H   0  0  0  0  0  0
  -26.7130  -32.5504   23.1154 H   0  0  0  0  0  0
  -25.0043  -33.9778   25.0443 H   0  0  0  0  0  0
  -22.6947  -31.3072   21.4046 H   0  0  0  0  0  0
  -23.3748  -35.9643   23.3294 H   0  0  0  0  0  0
  -24.3561  -36.8914   22.2057 H   0  0  0  0  0  0
  -23.7232  -37.6510   23.6655 H   0  0  0  0  0  0
  -26.0566  -31.5921   20.6008 H   0  0  0  0  0  0
  -26.8263  -30.8716   21.9859 H   0  0  0  0  0  0
  -28.1084  -29.0745   21.1545 H   0  0  0  0  0  0
  -26.0221  -25.9695   19.0025 H   0  0  0  0  0  0
  -23.9702  -27.3005   19.0311 H   0  0  0  0  0  0
  -23.7289  -30.5988   19.4026 H   0  0  0  0  0  0
  -22.7408  -29.2471   19.8632 H   0  0  0  0  0  0
  -25.1274  -36.1967   25.0832 H   0  0  0  0  0  0
  -20.9946  -28.3223   24.1410 H   0  0  0  0  0  0
  -20.5585  -26.2277   23.3594 H   0  0  0  0  0  0
  -21.6634  -26.7380   22.1243 H   0  0  0  0  0  0
  -19.6917  -25.6281   21.1214 H   0  0  0  0  0  0
  -19.6696  -27.3181   20.6718 H   0  0  0  0  0  0
  -17.4181  -26.6628   21.4001 H   0  0  0  0  0  0
  -18.0333  -26.0026   22.8975 H   0  0  0  0  0  0
  -19.7941  -30.7207   24.2293 H   0  0  0  0  0  0
  -17.5036  -31.6255   24.5145 H   0  0  0  0  0  0
  -15.5362  -30.3008   23.7632 H   0  0  0  0  0  0
  -15.8636  -28.0824   22.7082 H   0  0  0  0  0  0
  -24.5926  -30.7021   25.7827 H   0  0  0  0  0  0
  -24.8889  -32.2914   26.4851 H   0  0  0  0  0  0
  -25.8080  -30.8978   27.0264 H   0  0  0  0  0  0
  -26.2875  -29.6789   24.1159 H   0  0  0  0  0  0
  -27.4010  -29.7258   25.4618 H   0  0  0  0  0  0
  -27.8732  -30.4304   23.9332 H   0  0  0  0  0  0
  -27.2636  -33.3630   26.2064 H   0  0  0  0  0  0
  -28.3865  -32.6879   25.0341 H   0  0  0  0  0  0
  -28.0683  -31.8462   26.5418 H   0  0  0  0  0  0
  -28.2591  -38.0103   24.7519 H   0  0  0  0  0  0
  -28.1078  -36.2635   24.6273 H   0  0  0  0  0  0
  -27.2299  -37.1439   25.8862 H   0  0  0  0  0  0
  -20.9268  -29.8819   21.6998 H   0  0  0  0  0  0
  -26.0169  -38.2859   24.1440 H   0  0  0  0  0  0
  -31.9986  -21.4671   20.8020 H   0  0  0  0  0  0
  -31.2496  -21.6053   22.3877 H   0  0  0  0  0  0
  -29.1313  -22.2255   21.4573 H   0  0  0  0  0  0
  -30.2956  -22.8871   18.7839 H   0  0  0  0  0  0
  -30.8435  -25.1042   20.6386 H   0  0  0  0  0  0
  -35.3508  -25.9645   18.7546 H   0  0  0  0  0  0
  -34.0831  -25.7637   17.5511 H   0  0  0  0  0  0
  -34.8714  -24.3528   18.2511 H   0  0  0  0  0  0
  -33.8770  -27.3823   20.1451 H   0  0  0  0  0  0
  -32.3995  -26.7780   20.8556 H   0  0  0  0  0  0
  -32.4399  -27.2101   19.1470 H   0  0  0  0  0  0
  -26.8429  -22.5664   17.0588 H   0  0  0  0  0  0
  -28.5037  -22.1314   17.4518 H   0  0  0  0  0  0
  -28.1322  -23.7316   16.7930 H   0  0  0  0  0  0
  -30.3083  -20.4728   19.1986 H   0  0  0  0  0  0
  -28.6252  -20.5739   19.6251 H   0  0  0  0  0  0
  -31.7597  -24.8647   18.3183 H   0  0  0  0  0  0
  -32.6393  -23.4541   18.8248 H   0  0  0  0  0  0
  -30.0090  -17.1192   22.3545 H   0  0  0  0  0  0
  -31.3651  -17.0494   21.2642 H   0  0  0  0  0  0
  -28.5429  -17.8669   20.3150 H   0  0  0  0  0  0
  -30.0320  -17.9921   19.4094 H   0  0  0  0  0  0
  -28.7808  -25.0844   21.4470 H   0  0  0  0  0  0
  -27.1960  -24.9943   20.8290 H   0  0  0  0  0  0
  -29.0592  -24.8672   18.6269 H   0  0  0  0  0  0
  -33.9276  -24.8816   20.4664 H   0  0  0  0  0  0
  -28.9662  -15.2689   21.2955 H   0  0  0  0  0  0
  -32.7442  -23.4722   21.4569 H   0  0  0  0  0  0
  -31.3874  -23.8533   22.2683 H   0  0  0  0  0  0
  -27.2582  -22.7146   19.4336 H   0  0  0  0  0  0
  -26.7914  -24.0974   18.7639 H   0  0  0  0  0  0
  -29.1932  -19.5288   21.7526 H   0  0  0  0  0  0
  -30.7578  -19.4424   21.3249 H   0  0  0  0  0  0
  1 25  1  0  0  0
  1 30  2  0  0  0
  1 85  1  0  0  0
  2  3  1  0  0  0
  2 25  1  0  0  0
  2 89  1  0  0  0
  2 90  1  0  0  0
  3  4  1  0  0  0
  3 91  1  0  0  0
  3 92  1  0  0  0
  4  5  1  0  0  0
  4 93  1  0  0  0
  4 94  1  0  0  0
  5  6  1  0  0  0
  5 26  1  0  0  0
  5 95  1  0  0  0
  6 25  1  0  0  0
  6 96  1  0  0  0
  6 97  1  0  0  0
  7  8  2  0  0  0
  7 26  1  0  0  0
  7 29  1  0  0  0
  8  9  1  0  0  0
  8 22  1  0  0  0
  9 10  1  0  0  0
  9 27  2  0  0  0
 10 11  2  0  0  0
 10 15  1  0  0  0
 11 12  1  0  0  0
 11 98  1  0  0  0
 12 13  2  0  0  0
 12 99  1  0  0  0
 13 14  1  0  0  0
 13 31  1  0  0  0
 14 15  2  0  0  0
 14100  1  0  0  0
 15101  1  0  0  0
 16 17  2  0  0  0
 16 21  1  0  0  0
 16 31  1  0  0  0
 17 18  1  0  0  0
 17102  1  0  0  0
 18 19  2  0  0  0
 18103  1  0  0  0
 19 20  1  0  0  0
 19 24  1  0  0  0
 20 21  2  0  0  0
 20104  1  0  0  0
 21 23  1  0  0  0
 22 28  1  0  0  0
 22 32  2  0  0  0
 26 27  1  0  0  0
 28105  1  0  0  0
 28106  1  0  0  0
 29107  1  0  0  0
 29108  1  0  0  0
 33 34  1  0  0  0
 33 66  1  0  0  0
 33 70  2  0  0  0
 34 36  1  0  0  0
 34 59  1  0  0  0
 34109  1  0  0  0
 35 44  2  0  0  0
 35 45  1  0  0  0
 35 68  1  0  0  0
 36 56  1  0  0  0
 36110  1  0  0  0
 37 39  1  0  0  0
 37 47  1  0  0  0
 37 66  1  0  0  0
 37111  1  0  0  0
 38 43  2  0  0  0
 38 46  1  0  0  0
 38 47  1  0  0  0
 39 64  1  0  0  0
 39 67  2  0  0  0
 40 52  1  0  0  0
 40 53  2  0  0  0
 40 58  1  0  0  0
 41112  1  0  0  0
 41113  1  0  0  0
 41114  1  0  0  0
 41 48  1  0  0  0
 42 43  1  0  0  0
 42 66  1  0  0  0
 42115  1  0  0  0
 42116  1  0  0  0
 43 44  1  0  0  0
 44117  1  0  0  0
 45 46  2  0  0  0
 45118  1  0  0  0
 46119  1  0  0  0
 47120  1  0  0  0
 47121  1  0  0  0
 48 56  1  0  0  0
 48 65  1  0  0  0
 48122  1  0  0  0
 49 50  1  0  0  0
 49 53  1  0  0  0
 49 64  1  0  0  0
 49123  1  0  0  0
 50 51  1  0  0  0
 50124  1  0  0  0
 50125  1  0  0  0
 51 52  1  0  0  0
 51126  1  0  0  0
 51127  1  0  0  0
 52128  1  0  0  0
 52129  1  0  0  0
 53 54  1  0  0  0
 54 55  2  0  0  0
 54130  1  0  0  0
 55 57  1  0  0  0
 55131  1  0  0  0
 56 69  2  0  0  0
 57 58  2  0  0  0
 57132  1  0  0  0
 58133  1  0  0  0
 59 60  1  0  0  0
 59 61  1  0  0  0
 59 62  1  0  0  0
 60134  1  0  0  0
 60135  1  0  0  0
 60136  1  0  0  0
 61137  1  0  0  0
 61138  1  0  0  0
 61139  1  0  0  0
 62140  1  0  0  0
 62141  1  0  0  0
 62142  1  0  0  0
 63 65  1  0  0  0
 63143  1  0  0  0
 63144  1  0  0  0
 63145  1  0  0  0
 64146  1  0  0  0
 65147  1  0  0  0
 68 82  1  0  0  0
 71 72  1  0  0  0
 71 86  1  0  0  0
 71148  1  0  0  0
 71149  1  0  0  0
 72 73  1  0  0  0
 72 78  1  0  0  0
 72150  1  0  0  0
 73 74  1  0  0  0
 73 83  1  0  0  0
 73151  1  0  0  0
 74 79  1  0  0  0
 74 86  1  0  0  0
 74152  1  0  0  0
 75153  1  0  0  0
 75154  1  0  0  0
 75155  1  0  0  0
 75 84  1  0  0  0
 76 84  1  0  0  0
 76156  1  0  0  0
 76157  1  0  0  0
 76158  1  0  0  0
 77 87  1  0  0  0
 77159  1  0  0  0
 77160  1  0  0  0
 77161  1  0  0  0
 78 88  1  0  0  0
 78162  1  0  0  0
 78163  1  0  0  0
 79 84  1  0  0  0
 79164  1  0  0  0
 79165  1  0  0  0
 80 81  1  0  0  0
 80 85  1  0  0  0
 80166  1  0  0  0
 80167  1  0  0  0
 81 88  1  0  0  0
 81168  1  0  0  0
 81169  1  0  0  0
 82170  1  0  0  0
 82171  1  0  0  0
 82 83  1  0  0  0
 83 87  1  0  0  0
 83172  1  0  0  0
 84173  1  0  0  0
 85174  1  0  0  0
 86175  1  0  0  0
 86176  1  0  0  0
 87177  1  0  0  0
 87178  1  0  0  0
 88179  1  0  0  0
 88180  1  0  0  0
M  CHG  3  86   1  87   1  88   1
M  ISO  4   1 100  68 101  82 101  85 100
M  END
> <chiral flag>
0

> <version>
0

> <s_m_source_file>
/data/baiqing/PycharmProjects/Reinvent-master-3.2/result/LINK_invent/BTK/process_docking_weight1_custom_sum_contain_oxygen_bond_distance_aromatic_linkinvent_7_9_3/rearranged_h_0132.sdf

> <i_m_source_file_index>
76

> <r_mmod_Potential_Energy-OPLS-2005>
-370.341278076172

> <r_mmod_Stretch_Energy-OPLS-2005>
59.0216827392578

> <r_mmod_Bend_Energy-OPLS-2005>
148.788146972656

> <r_mmod_Torsional_Energy-OPLS-2005>
339.668975830078

> <r_mmod_Improper_Torsional_Energy-OPLS-2005>
3.44157576560974

> <r_mmod_Van_der_Waal_Energy-OPLS-2005>
117.928657531738

> <r_mmod_Electrostatic_Energy-OPLS-2005>
722.561096191406

> <r_mmod_Solvation_Energy-OPLS-2005>
-1783.04907226562

> <b_mmod_Minimization_Converged-OPLS-2005>
0

> <r_mmod_RMS_Derivative-OPLS-2005>
2.96882963180542

$$$$
78
                    3D
 Structure written by MMmdl.
168177  0  0  1  0            999 V2000
  -30.5728  -14.8601   20.4357 C   0  0  0  0  0  0
  -30.4414  -12.5247   19.5023 C   0  0  0  0  0  0
  -29.5241  -12.5216   18.2575 C   0  0  0  0  0  0
  -28.0524  -12.3260   18.6676 C   0  0  0  0  0  0
  -27.6401  -13.2418   19.8499 C   0  0  2  0  0  0
  -28.6816  -13.2235   20.9917 C   0  0  0  0  0  0
  -25.2498  -13.8211   20.5708 C   0  0  0  0  0  0
  -24.1799  -13.0443   20.9216 C   0  0  0  0  0  0
  -24.6403  -11.6924   20.8747 C   0  0  0  0  0  0
  -23.9080  -10.4296   21.0405 C   0  0  0  0  0  0
  -24.3625   -9.4209   21.9180 C   0  0  0  0  0  0
  -23.6299   -8.2246   22.0751 C   0  0  0  0  0  0
  -22.4281   -8.0286   21.3542 C   0  0  0  0  0  0
  -21.9918   -9.0258   20.4642 C   0  0  0  0  0  0
  -22.7250  -10.2138   20.3050 C   0  0  0  0  0  0
  -21.6856   -6.0738   22.5278 C   0  0  0  0  0  0
  -21.4016   -6.5638   23.8213 C   0  0  0  0  0  0
  -21.3658   -5.6790   24.9174 C   0  0  0  0  0  0
  -21.6046   -4.3054   24.7224 C   0  0  0  0  0  0
  -21.8818   -3.8146   23.4344 C   0  0  0  0  0  0
  -21.9195   -4.6963   22.3402 C   0  0  0  0  0  0
  -22.7817  -13.5220   21.1869 C   0  0  0  0  0  0
  -22.1664   -4.2151   21.0978 F   0  0  0  0  0  0
  -21.5628   -3.4534   25.7735 F   0  0  0  0  0  0
  -29.9765  -13.6069   20.4123 N   0  0  0  0  0  0
  -26.2933  -12.9436   20.3273 N   0  0  0  0  0  0
  -25.9339  -11.6569   20.5746 N   0  0  0  0  0  0
  -22.0456  -12.8203   22.0420 N   0  0  0  0  0  0
  -25.4168  -15.1940   20.4126 N   0  0  0  0  0  0
  -31.7486  -14.9576   20.0738 O   0  0  0  0  0  0
  -21.6641   -6.8883   21.4242 O   0  0  0  0  0  0
  -22.3501  -14.5524   20.6716 O   0  0  0  0  0  0
  -24.6408  -31.8491   23.1941 C   0  0  0  0  0  0
  -25.9198  -32.4719   23.8306 C   0  0  1  0  0  0
  -27.2092  -27.1637   20.1356 C   0  0  0  0  0  0
  -25.5963  -33.8523   24.2216 N   0  0  0  0  0  0
  -23.4422  -30.4727   21.5395 C   0  0  2  0  0  0
  -24.8910  -28.9157   20.1043 C   0  0  0  0  0  0
  -22.7556  -29.4571   22.4871 C   0  0  0  0  0  0
  -18.0303  -28.1398   22.8480 C   0  0  0  0  0  0
  -24.1490  -36.7259   23.2634 C   0  0  0  0  0  0
  -25.9987  -30.7266   21.3967 C   0  0  0  0  0  0
  -26.0664  -29.3433   20.7343 C   0  0  0  0  0  0
  -27.2225  -28.4788   20.7465 C   0  0  0  0  0  0
  -26.0196  -26.8614   19.4281 C   0  0  0  0  0  0
  -24.8799  -27.6865   19.4366 C   0  0  0  0  0  0
  -23.6666  -29.8129   20.1546 C   0  0  0  0  0  0
  -25.4118  -36.3046   24.0319 C   0  0  1  0  0  0
  -20.5916  -28.3721   23.1244 C   0  0  2  0  0  0
  -20.6791  -26.9428   22.5405 C   0  0  0  0  0  0
  -19.5761  -26.6389   21.5215 C   0  0  0  0  0  0
  -18.1941  -26.7939   22.1629 C   0  0  0  0  0  0
  -19.1559  -28.8877   23.2855 C   0  0  0  0  0  0
  -18.9475  -30.1476   23.8876 C   0  0  0  0  0  0
  -17.6471  -30.6593   24.0563 C   0  0  0  0  0  0
  -25.9077  -34.9423   23.5073 C   0  0  0  0  0  0
  -16.5362  -29.9087   23.6340 C   0  0  0  0  0  0
  -16.7288  -28.6507   23.0357 C   0  0  0  0  0  0
  -26.4523  -31.6577   25.0737 C   0  0  0  0  0  0
  -25.3708  -31.3770   26.1433 C   0  0  0  0  0  0
  -27.0377  -30.2968   24.6318 C   0  0  0  0  0  0
  -27.6063  -32.4334   25.7508 C   0  0  0  0  0  0
  -27.5588  -37.1771   24.8449 C   0  0  0  0  0  0
  -21.4252  -29.3051   22.3616 N   0  0  0  0  0  0
  -26.4276  -37.3766   23.9426 N   0  0  0  0  0  0
  -24.7132  -31.0364   22.0979 N   0  0  0  0  0  0
  -23.4214  -28.8110   23.3002 O   0  0  0  0  0  0
  -28.2385  -26.1597   20.2521 O   0  0  0  0  0  0
  -26.5652  -34.8914   22.4645 O   0  0  0  0  0  0
  -23.5535  -32.1366   23.7172 O   0  0  0  0  0  0
  -27.7293  -22.3725   21.0757 C   0  0  0  0  0  0
  -29.9898  -21.2868   19.9868 C   0  0  0  0  0  0
  -29.2003  -20.3383   20.7324 C   0  0  0  0  0  0
  -28.0284  -20.9704   21.2823 C   0  0  0  0  0  0
  -28.5378  -23.2716   20.3120 C   0  0  0  0  0  0
  -26.3634  -21.3688   24.0624 C   0  0  0  0  0  0
  -25.0523  -19.4579   23.1046 C   0  0  0  0  0  0
  -25.1120  -21.8045   24.8524 C   0  0  0  0  0  0
  -23.8195  -19.9259   23.9041 C   0  0  0  0  0  0
  -25.9801  -20.6380   22.7583 C   0  0  0  0  0  0
  -29.6346  -18.7954   21.1268 C   0  0  0  0  0  0
  -27.9610  -24.7139   19.7838 C   0  0  0  0  0  0
  -29.8935  -17.4892   20.1474 C   0  0  0  0  0  0
  -29.6434  -22.6291   19.7979 N   0  3  0  0  0  0
  -27.1575  -20.1614   22.0369 N   0  0  0  0  0  0
  -29.7891  -16.0088   20.6531 N   0  0  0  0  0  0
  -24.2193  -20.6565   25.1269 N   0  3  0  0  0  0
  -31.4805  -12.6618   19.1984 H   0  0  0  0  0  0
  -30.4065  -11.5599   20.0107 H   0  0  0  0  0  0
  -29.8284  -11.7342   17.5667 H   0  0  0  0  0  0
  -29.6339  -13.4633   17.7173 H   0  0  0  0  0  0
  -27.9292  -11.2808   18.9535 H   0  0  0  0  0  0
  -27.3946  -12.4874   17.8127 H   0  0  0  0  0  0
  -27.6201  -14.2541   19.4457 H   0  0  0  0  0  0
  -28.7405  -12.2362   21.4516 H   0  0  0  0  0  0
  -28.3930  -13.9146   21.7851 H   0  0  0  0  0  0
  -25.2772   -9.5684   22.4751 H   0  0  0  0  0  0
  -24.0010   -7.4636   22.7469 H   0  0  0  0  0  0
  -21.0848   -8.8778   19.8948 H   0  0  0  0  0  0
  -22.3711  -10.9671   19.6155 H   0  0  0  0  0  0
  -21.2007   -7.6146   23.9717 H   0  0  0  0  0  0
  -21.1481   -6.0518   25.9078 H   0  0  0  0  0  0
  -22.0599   -2.7607   23.2841 H   0  0  0  0  0  0
  -22.4071  -11.9866   22.4809 H   0  0  0  0  0  0
  -21.1063  -13.1210   22.2596 H   0  0  0  0  0  0
  -24.6428  -15.8415   20.5121 H   0  0  0  0  0  0
  -26.2557  -15.6325   20.0554 H   0  0  0  0  0  0
  -26.7262  -32.5330   23.1033 H   0  0  0  0  0  0
  -25.0097  -33.9645   25.0354 H   0  0  0  0  0  0
  -22.7432  -31.2987   21.3919 H   0  0  0  0  0  0
  -23.3774  -35.9568   23.3259 H   0  0  0  0  0  0
  -24.3594  -36.8924   22.2058 H   0  0  0  0  0  0
  -23.7216  -37.6434   23.6686 H   0  0  0  0  0  0
  -26.1592  -31.4848   20.6287 H   0  0  0  0  0  0
  -26.8684  -30.7692   22.0408 H   0  0  0  0  0  0
  -28.1087  -28.7929   21.2804 H   0  0  0  0  0  0
  -25.9104  -25.9517   18.8601 H   0  0  0  0  0  0
  -23.9907  -27.3638   18.9119 H   0  0  0  0  0  0
  -23.7996  -30.5932   19.4042 H   0  0  0  0  0  0
  -22.7817  -29.2555   19.8426 H   0  0  0  0  0  0
  -25.1300  -36.1872   25.0811 H   0  0  0  0  0  0
  -21.0010  -28.3308   24.1366 H   0  0  0  0  0  0
  -20.5693  -26.2331   23.3620 H   0  0  0  0  0  0
  -21.6657  -26.7444   22.1196 H   0  0  0  0  0  0
  -19.6921  -25.6297   21.1252 H   0  0  0  0  0  0
  -19.6697  -27.3195   20.6739 H   0  0  0  0  0  0
  -17.4213  -26.6687   21.4030 H   0  0  0  0  0  0
  -18.0338  -26.0087   22.9031 H   0  0  0  0  0  0
  -19.7949  -30.7302   24.2233 H   0  0  0  0  0  0
  -17.5023  -31.6271   24.5171 H   0  0  0  0  0  0
  -15.5362  -30.2980   23.7678 H   0  0  0  0  0  0
  -15.8691  -28.0823   22.7079 H   0  0  0  0  0  0
  -24.5886  -30.7116   25.7757 H   0  0  0  0  0  0
  -24.8892  -32.2955   26.4800 H   0  0  0  0  0  0
  -25.7993  -30.8982   27.0245 H   0  0  0  0  0  0
  -26.2991  -29.6695   24.1308 H   0  0  0  0  0  0
  -27.3964  -29.7266   25.4897 H   0  0  0  0  0  0
  -27.8921  -30.4196   23.9656 H   0  0  0  0  0  0
  -27.2664  -33.3648   26.2045 H   0  0  0  0  0  0
  -28.3887  -32.6871   25.0343 H   0  0  0  0  0  0
  -28.0712  -31.8484   26.5451 H   0  0  0  0  0  0
  -28.2547  -38.0128   24.7594 H   0  0  0  0  0  0
  -28.1146  -36.2667   24.6149 H   0  0  0  0  0  0
  -27.2326  -37.1266   25.8852 H   0  0  0  0  0  0
  -20.9450  -29.8770   21.6807 H   0  0  0  0  0  0
  -26.0144  -38.2821   24.1489 H   0  0  0  0  0  0
  -26.8122  -22.7834   21.4629 H   0  0  0  0  0  0
  -30.9219  -21.0007   19.5201 H   0  0  0  0  0  0
  -26.9776  -20.7183   24.6872 H   0  0  0  0  0  0
  -26.9734  -22.2474   23.8516 H   0  0  0  0  0  0
  -24.7188  -18.9603   22.1929 H   0  0  0  0  0  0
  -25.5934  -18.7069   23.6824 H   0  0  0  0  0  0
  -24.5610  -22.5607   24.2911 H   0  0  0  0  0  0
  -25.4050  -22.2679   25.7950 H   0  0  0  0  0  0
  -23.2016  -19.0706   24.1794 H   0  0  0  0  0  0
  -23.1969  -20.5735   23.2851 H   0  0  0  0  0  0
  -25.4144  -21.3130   22.1142 H   0  0  0  0  0  0
  -28.9358  -18.4389   21.8797 H   0  0  0  0  0  0
  -30.5544  -18.9196   21.6988 H   0  0  0  0  0  0
  -26.9010  -24.5396   19.9490 H   0  0  0  0  0  0
  -28.0882  -24.7143   18.7008 H   0  0  0  0  0  0
  -30.8540  -17.6140   19.6456 H   0  0  0  0  0  0
  -29.1540  -17.5528   19.3485 H   0  0  0  0  0  0
  -30.2569  -23.1816   19.1945 H   0  0  0  0  0  0
  -27.3765  -19.1740   22.0934 H   0  0  0  0  0  0
  -28.8730  -15.7755   21.0066 H   0  0  0  0  0  0
  -23.3903  -20.9918   25.5924 H   0  0  0  0  0  0
  -24.6749  -20.0211   25.7625 H   0  0  0  0  0  0
  1 25  1  0  0  0
  1 30  2  0  0  0
  1 86  1  0  0  0
  2  3  1  0  0  0
  2 25  1  0  0  0
  2 88  1  0  0  0
  2 89  1  0  0  0
  3  4  1  0  0  0
  3 90  1  0  0  0
  3 91  1  0  0  0
  4  5  1  0  0  0
  4 92  1  0  0  0
  4 93  1  0  0  0
  5  6  1  0  0  0
  5 26  1  0  0  0
  5 94  1  0  0  0
  6 25  1  0  0  0
  6 95  1  0  0  0
  6 96  1  0  0  0
  7  8  2  0  0  0
  7 26  1  0  0  0
  7 29  1  0  0  0
  8  9  1  0  0  0
  8 22  1  0  0  0
  9 10  1  0  0  0
  9 27  2  0  0  0
 10 11  2  0  0  0
 10 15  1  0  0  0
 11 12  1  0  0  0
 11 97  1  0  0  0
 12 13  2  0  0  0
 12 98  1  0  0  0
 13 14  1  0  0  0
 13 31  1  0  0  0
 14 15  2  0  0  0
 14 99  1  0  0  0
 15100  1  0  0  0
 16 17  2  0  0  0
 16 21  1  0  0  0
 16 31  1  0  0  0
 17 18  1  0  0  0
 17101  1  0  0  0
 18 19  2  0  0  0
 18102  1  0  0  0
 19 20  1  0  0  0
 19 24  1  0  0  0
 20 21  2  0  0  0
 20103  1  0  0  0
 21 23  1  0  0  0
 22 28  1  0  0  0
 22 32  2  0  0  0
 26 27  1  0  0  0
 28104  1  0  0  0
 28105  1  0  0  0
 29106  1  0  0  0
 29107  1  0  0  0
 33 34  1  0  0  0
 33 66  1  0  0  0
 33 70  2  0  0  0
 34 36  1  0  0  0
 34 59  1  0  0  0
 34108  1  0  0  0
 35 44  2  0  0  0
 35 45  1  0  0  0
 35 68  1  0  0  0
 36 56  1  0  0  0
 36109  1  0  0  0
 37 39  1  0  0  0
 37 47  1  0  0  0
 37 66  1  0  0  0
 37110  1  0  0  0
 38 43  2  0  0  0
 38 46  1  0  0  0
 38 47  1  0  0  0
 39 64  1  0  0  0
 39 67  2  0  0  0
 40 52  1  0  0  0
 40 53  2  0  0  0
 40 58  1  0  0  0
 41111  1  0  0  0
 41112  1  0  0  0
 41113  1  0  0  0
 41 48  1  0  0  0
 42 43  1  0  0  0
 42 66  1  0  0  0
 42114  1  0  0  0
 42115  1  0  0  0
 43 44  1  0  0  0
 44116  1  0  0  0
 45 46  2  0  0  0
 45117  1  0  0  0
 46118  1  0  0  0
 47119  1  0  0  0
 47120  1  0  0  0
 48 56  1  0  0  0
 48 65  1  0  0  0
 48121  1  0  0  0
 49 50  1  0  0  0
 49 53  1  0  0  0
 49 64  1  0  0  0
 49122  1  0  0  0
 50 51  1  0  0  0
 50123  1  0  0  0
 50124  1  0  0  0
 51 52  1  0  0  0
 51125  1  0  0  0
 51126  1  0  0  0
 52127  1  0  0  0
 52128  1  0  0  0
 53 54  1  0  0  0
 54 55  2  0  0  0
 54129  1  0  0  0
 55 57  1  0  0  0
 55130  1  0  0  0
 56 69  2  0  0  0
 57 58  2  0  0  0
 57131  1  0  0  0
 58132  1  0  0  0
 59 60  1  0  0  0
 59 61  1  0  0  0
 59 62  1  0  0  0
 60133  1  0  0  0
 60134  1  0  0  0
 60135  1  0  0  0
 61136  1  0  0  0
 61137  1  0  0  0
 61138  1  0  0  0
 62139  1  0  0  0
 62140  1  0  0  0
 62141  1  0  0  0
 63 65  1  0  0  0
 63142  1  0  0  0
 63143  1  0  0  0
 63144  1  0  0  0
 64145  1  0  0  0
 65146  1  0  0  0
 68 82  1  0  0  0
 71 74  2  0  0  0
 71 75  1  0  0  0
 71147  1  0  0  0
 72 73  2  0  0  0
 72 84  1  0  0  0
 72148  1  0  0  0
 73 74  1  0  0  0
 73 81  1  0  0  0
 74 85  1  0  0  0
 75 82  1  0  0  0
 75 84  2  0  0  0
 76 78  1  0  0  0
 76 80  1  0  0  0
 76149  1  0  0  0
 76150  1  0  0  0
 77 79  1  0  0  0
 77 80  1  0  0  0
 77151  1  0  0  0
 77152  1  0  0  0
 78 87  1  0  0  0
 78153  1  0  0  0
 78154  1  0  0  0
 79 87  1  0  0  0
 79155  1  0  0  0
 79156  1  0  0  0
 80 85  1  0  0  0
 80157  1  0  0  0
 81 83  1  0  0  0
 81158  1  0  0  0
 81159  1  0  0  0
 82160  1  0  0  0
 82161  1  0  0  0
 83 86  1  0  0  0
 83162  1  0  0  0
 83163  1  0  0  0
 84164  1  0  0  0
 85165  1  0  0  0
 86166  1  0  0  0
 87167  1  0  0  0
 87168  1  0  0  0
M  CHG  2  84   1  87   1
M  ISO  4   1 100  68 101  82 101  86 100
M  END
> <chiral flag>
0

> <version>
0

> <s_m_source_file>
/data/baiqing/PycharmProjects/Reinvent-master-3.2/result/LINK_invent/BTK/process_docking_weight1_custom_sum_contain_oxygen_bond_distance_aromatic_linkinvent_7_9_3/rearranged_h_0132.sdf

> <i_m_source_file_index>
77

> <r_mmod_Potential_Energy-OPLS-2005>
131.964935302734

> <r_mmod_Stretch_Energy-OPLS-2005>
203.208190917969

> <r_mmod_Bend_Energy-OPLS-2005>
266.594635009766

> <r_mmod_Torsional_Energy-OPLS-2005>
248.282073974609

> <r_mmod_Improper_Torsional_Energy-OPLS-2005>
9.67801284790039

> <r_mmod_Van_der_Waal_Energy-OPLS-2005>
151.680740356445

> <r_mmod_Electrostatic_Energy-OPLS-2005>
1.35741102695465

> <r_mmod_Solvation_Energy-OPLS-2005>
-905.964477539062

> <b_mmod_Minimization_Converged-OPLS-2005>
0

> <r_mmod_RMS_Derivative-OPLS-2005>
0.725690364837646

$$$$
79
                    3D
 Structure written by MMmdl.
166174  0  0  1  0            999 V2000
  -30.6951  -14.4116   20.6218 C   0  0  0  0  0  0
  -30.4299  -12.2792   19.4120 C   0  0  0  0  0  0
  -29.4996  -12.5105   18.2031 C   0  0  0  0  0  0
  -28.0207  -12.3633   18.6113 C   0  0  0  0  0  0
  -27.6680  -13.1888   19.8769 C   0  0  2  0  0  0
  -28.7032  -12.9192   20.9928 C   0  0  0  0  0  0
  -25.2620  -13.8123   20.5648 C   0  0  0  0  0  0
  -24.1851  -13.0416   20.9148 C   0  0  0  0  0  0
  -24.6374  -11.6882   20.8661 C   0  0  0  0  0  0
  -23.9029  -10.4287   21.0349 C   0  0  0  0  0  0
  -24.3588   -9.4219   21.9129 C   0  0  0  0  0  0
  -23.6280   -8.2254   22.0726 C   0  0  0  0  0  0
  -22.4251   -8.0282   21.3539 C   0  0  0  0  0  0
  -21.9868   -9.0229   20.4622 C   0  0  0  0  0  0
  -22.7184  -10.2112   20.3025 C   0  0  0  0  0  0
  -21.6857   -6.0713   22.5278 C   0  0  0  0  0  0
  -21.3997   -6.5618   23.8194 C   0  0  0  0  0  0
  -21.3669   -5.6770   24.9155 C   0  0  0  0  0  0
  -21.6066   -4.3040   24.7204 C   0  0  0  0  0  0
  -21.8828   -3.8126   23.4327 C   0  0  0  0  0  0
  -21.9191   -4.6942   22.3382 C   0  0  0  0  0  0
  -22.7885  -13.5237   21.1817 C   0  0  0  0  0  0
  -22.1684   -4.2143   21.0948 F   0  0  0  0  0  0
  -21.5646   -3.4530   25.7716 F   0  0  0  0  0  0
  -30.0493  -13.2274   20.4692 N   0  0  0  0  0  0
  -26.3031  -12.9251   20.3314 N   0  0  0  0  0  0
  -25.9283  -11.6435   20.5653 N   0  0  0  0  0  0
  -22.0514  -12.8255   22.0378 N   0  0  0  0  0  0
  -25.4387  -15.1840   20.4075 N   0  0  0  0  0  0
  -31.7490  -14.6979   20.0439 O   0  0  0  0  0  0
  -21.6654   -6.8861   21.4241 O   0  0  0  0  0  0
  -22.3555  -14.5514   20.6624 O   0  0  0  0  0  0
  -24.6160  -31.8710   23.2110 C   0  0  0  0  0  0
  -25.9063  -32.4842   23.8387 C   0  0  1  0  0  0
  -27.2262  -27.4396   20.0789 C   0  0  0  0  0  0
  -25.5936  -33.8641   24.2348 N   0  0  0  0  0  0
  -23.4010  -30.4999   21.5501 C   0  0  2  0  0  0
  -24.8414  -28.9647   20.1170 C   0  0  0  0  0  0
  -22.7395  -29.4708   22.4945 C   0  0  0  0  0  0
  -18.0280  -28.1397   22.8501 C   0  0  0  0  0  0
  -24.1498  -36.7329   23.2626 C   0  0  0  0  0  0
  -25.9335  -30.8332   21.3683 C   0  0  0  0  0  0
  -26.0012  -29.4682   20.7162 C   0  0  0  0  0  0
  -27.1906  -28.7067   20.7035 C   0  0  0  0  0  0
  -26.0423  -26.9542   19.4700 C   0  0  0  0  0  0
  -24.8546  -27.7048   19.4982 C   0  0  0  0  0  0
  -23.6094  -29.8378   20.1619 C   0  0  0  0  0  0
  -25.4130  -36.3134   24.0305 C   0  0  1  0  0  0
  -20.5875  -28.3698   23.1310 C   0  0  2  0  0  0
  -20.6782  -26.9423   22.5433 C   0  0  0  0  0  0
  -19.5754  -26.6389   21.5237 C   0  0  0  0  0  0
  -18.1925  -26.7947   22.1632 C   0  0  0  0  0  0
  -19.1530  -28.8852   23.2917 C   0  0  0  0  0  0
  -18.9457  -30.1460   23.8920 C   0  0  0  0  0  0
  -17.6463  -30.6592   24.0585 C   0  0  0  0  0  0
  -25.9034  -34.9482   23.5106 C   0  0  0  0  0  0
  -16.5358  -29.9107   23.6330 C   0  0  0  0  0  0
  -16.7273  -28.6534   23.0335 C   0  0  0  0  0  0
  -26.4476  -31.6644   25.0741 C   0  0  0  0  0  0
  -25.3723  -31.3824   26.1491 C   0  0  0  0  0  0
  -27.0315  -30.3074   24.6167 C   0  0  0  0  0  0
  -27.6034  -32.4389   25.7522 C   0  0  0  0  0  0
  -27.5598  -37.1828   24.8455 C   0  0  0  0  0  0
  -21.4121  -29.3074   22.3693 N   0  0  0  0  0  0
  -26.4334  -37.3815   23.9376 N   0  0  0  0  0  0
  -24.6678  -31.0832   22.1004 N   0  0  0  0  0  0
  -23.4163  -28.8223   23.2970 O   0  0  0  0  0  0
  -28.4283  -26.7600   20.0865 O   0  0  0  0  0  0
  -26.5577  -34.8918   22.4658 O   0  0  0  0  0  0
  -23.5348  -32.1485   23.7492 O   0  0  0  0  0  0
  -31.7197  -22.3577   21.4520 C   0  0  0  0  0  0
  -31.3989  -23.6377   20.9623 C   0  0  0  0  0  0
  -31.2694  -22.7367   18.7160 C   0  0  0  0  0  0
  -31.8426  -21.2420   20.5820 C   0  0  0  0  0  0
  -31.6134  -21.4517   19.1904 C   0  0  0  0  0  0
  -31.1539  -23.8323   19.5933 C   0  0  0  0  0  0
  -31.7184  -20.3447   18.1475 C   0  0  0  0  0  0
  -32.9580  -19.9085   22.4997 C   0  0  0  0  0  0
  -29.9748  -16.7577   21.0685 C   0  0  0  0  0  0
  -31.2262  -17.5567   21.4762 C   0  0  0  0  0  0
  -28.4944  -25.3759   19.7218 C   0  0  0  0  0  0
  -29.5177  -25.2060   18.5893 C   0  0  0  0  0  0
  -32.2162  -19.8538   21.1452 C   0  0  1  0  0  0
  -30.0244  -15.3201   21.3410 N   0  0  0  0  0  0
  -31.0073  -18.9994   21.2100 N   0  3  0  0  0  0
  -30.8287  -25.0852   19.1392 O   0  0  0  0  0  0
  -31.4743  -12.3880   19.1173 H   0  0  0  0  0  0
  -30.3342  -11.2537   19.7745 H   0  0  0  0  0  0
  -29.7359  -11.8080   17.4034 H   0  0  0  0  0  0
  -29.6749  -13.5054   17.7892 H   0  0  0  0  0  0
  -27.8373  -11.3053   18.7999 H   0  0  0  0  0  0
  -27.3694  -12.6409   17.7822 H   0  0  0  0  0  0
  -27.7292  -14.2399   19.6006 H   0  0  0  0  0  0
  -28.6635  -11.8682   21.2837 H   0  0  0  0  0  0
  -28.4446  -13.4718   21.8960 H   0  0  0  0  0  0
  -25.2729   -9.5737   22.4657 H   0  0  0  0  0  0
  -24.0030   -7.4644   22.7426 H   0  0  0  0  0  0
  -21.0814   -8.8692   19.8914 H   0  0  0  0  0  0
  -22.3610  -10.9620   19.6121 H   0  0  0  0  0  0
  -21.1992   -7.6114   23.9709 H   0  0  0  0  0  0
  -21.1491   -6.0481   25.9063 H   0  0  0  0  0  0
  -22.0601   -2.7596   23.2802 H   0  0  0  0  0  0
  -22.4144  -11.9986   22.4876 H   0  0  0  0  0  0
  -21.1100  -13.1256   22.2477 H   0  0  0  0  0  0
  -24.6683  -15.8370   20.5027 H   0  0  0  0  0  0
  -26.2994  -15.6241   20.1054 H   0  0  0  0  0  0
  -26.7128  -32.5569   23.1130 H   0  0  0  0  0  0
  -25.0173  -33.9833   25.0547 H   0  0  0  0  0  0
  -22.6972  -31.3219   21.4109 H   0  0  0  0  0  0
  -23.3759  -35.9669   23.3332 H   0  0  0  0  0  0
  -24.3605  -36.8922   22.2042 H   0  0  0  0  0  0
  -23.7237  -37.6524   23.6639 H   0  0  0  0  0  0
  -26.0522  -31.6029   20.6029 H   0  0  0  0  0  0
  -26.8179  -30.8801   21.9917 H   0  0  0  0  0  0
  -28.0856  -29.0870   21.1760 H   0  0  0  0  0  0
  -25.9841  -26.0171   18.9431 H   0  0  0  0  0  0
  -23.9634  -27.3137   19.0279 H   0  0  0  0  0  0
  -23.7344  -30.6199   19.4124 H   0  0  0  0  0  0
  -22.7331  -29.2698   19.8456 H   0  0  0  0  0  0
  -25.1319  -36.1999   25.0800 H   0  0  0  0  0  0
  -21.0002  -28.3275   24.1416 H   0  0  0  0  0  0
  -20.5748  -26.2284   23.3611 H   0  0  0  0  0  0
  -21.6639  -26.7502   22.1185 H   0  0  0  0  0  0
  -19.6932  -25.6304   21.1246 H   0  0  0  0  0  0
  -19.6697  -27.3205   20.6764 H   0  0  0  0  0  0
  -17.4213  -26.6721   21.4015 H   0  0  0  0  0  0
  -18.0317  -26.0077   22.9009 H   0  0  0  0  0  0
  -19.7939  -30.7279   24.2274 H   0  0  0  0  0  0
  -17.5023  -31.6254   24.5203 H   0  0  0  0  0  0
  -15.5370  -30.3021   23.7620 H   0  0  0  0  0  0
  -15.8678  -28.0867   22.7016 H   0  0  0  0  0  0
  -24.5810  -30.7269   25.7848 H   0  0  0  0  0  0
  -24.9016  -32.3031   26.4958 H   0  0  0  0  0  0
  -25.8031  -30.8963   27.0244 H   0  0  0  0  0  0
  -26.2893  -29.6856   24.1144 H   0  0  0  0  0  0
  -27.3978  -29.7317   25.4677 H   0  0  0  0  0  0
  -27.8774  -30.4406   23.9413 H   0  0  0  0  0  0
  -27.2591  -33.3640   26.2163 H   0  0  0  0  0  0
  -28.3794  -32.7042   25.0334 H   0  0  0  0  0  0
  -28.0734  -31.8483   26.5392 H   0  0  0  0  0  0
  -28.2610  -38.0134   24.7505 H   0  0  0  0  0  0
  -28.1085  -36.2648   24.6282 H   0  0  0  0  0  0
  -27.2300  -37.1478   25.8856 H   0  0  0  0  0  0
  -20.9252  -29.8831   21.6960 H   0  0  0  0  0  0
  -26.0214  -38.2893   24.1385 H   0  0  0  0  0  0
  -31.8728  -22.2600   22.5165 H   0  0  0  0  0  0
  -31.3166  -24.4706   21.6454 H   0  0  0  0  0  0
  -31.0996  -22.8862   17.6579 H   0  0  0  0  0  0
  -30.7598  -19.8394   18.0319 H   0  0  0  0  0  0
  -32.4865  -19.6076   18.3699 H   0  0  0  0  0  0
  -31.9747  -20.7642   17.1737 H   0  0  0  0  0  0
  -33.8234  -20.5671   22.4340 H   0  0  0  0  0  0
  -33.3307  -18.9269   22.7920 H   0  0  0  0  0  0
  -32.3219  -20.2606   23.3112 H   0  0  0  0  0  0
  -29.7813  -16.8879   20.0005 H   0  0  0  0  0  0
  -29.1018  -17.1695   21.5791 H   0  0  0  0  0  0
  -32.0892  -17.2063   20.9083 H   0  0  0  0  0  0
  -31.4495  -17.4104   22.5340 H   0  0  0  0  0  0
  -28.7902  -24.8021   20.5990 H   0  0  0  0  0  0
  -27.5630  -24.9200   19.4127 H   0  0  0  0  0  0
  -29.2646  -24.3374   17.9776 H   0  0  0  0  0  0
  -29.4709  -26.0669   17.9208 H   0  0  0  0  0  0
  -32.9183  -19.3978   20.4488 H   0  0  0  0  0  0
  -29.2411  -14.9569   21.8621 H   0  0  0  0  0  0
  -30.3648  -19.3706   21.8925 H   0  0  0  0  0  0
  -30.5551  -19.0705   20.3153 H   0  0  0  0  0  0
  1 25  1  0  0  0
  1 30  2  0  0  0
  1 84  1  0  0  0
  2  3  1  0  0  0
  2 25  1  0  0  0
  2 87  1  0  0  0
  2 88  1  0  0  0
  3  4  1  0  0  0
  3 89  1  0  0  0
  3 90  1  0  0  0
  4  5  1  0  0  0
  4 91  1  0  0  0
  4 92  1  0  0  0
  5  6  1  0  0  0
  5 26  1  0  0  0
  5 93  1  0  0  0
  6 25  1  0  0  0
  6 94  1  0  0  0
  6 95  1  0  0  0
  7  8  2  0  0  0
  7 26  1  0  0  0
  7 29  1  0  0  0
  8  9  1  0  0  0
  8 22  1  0  0  0
  9 10  1  0  0  0
  9 27  2  0  0  0
 10 11  2  0  0  0
 10 15  1  0  0  0
 11 12  1  0  0  0
 11 96  1  0  0  0
 12 13  2  0  0  0
 12 97  1  0  0  0
 13 14  1  0  0  0
 13 31  1  0  0  0
 14 15  2  0  0  0
 14 98  1  0  0  0
 15 99  1  0  0  0
 16 17  2  0  0  0
 16 21  1  0  0  0
 16 31  1  0  0  0
 17 18  1  0  0  0
 17100  1  0  0  0
 18 19  2  0  0  0
 18101  1  0  0  0
 19 20  1  0  0  0
 19 24  1  0  0  0
 20 21  2  0  0  0
 20102  1  0  0  0
 21 23  1  0  0  0
 22 28  1  0  0  0
 22 32  2  0  0  0
 26 27  1  0  0  0
 28103  1  0  0  0
 28104  1  0  0  0
 29105  1  0  0  0
 29106  1  0  0  0
 33 34  1  0  0  0
 33 66  1  0  0  0
 33 70  2  0  0  0
 34 36  1  0  0  0
 34 59  1  0  0  0
 34107  1  0  0  0
 35 44  2  0  0  0
 35 45  1  0  0  0
 35 68  1  0  0  0
 36 56  1  0  0  0
 36108  1  0  0  0
 37 39  1  0  0  0
 37 47  1  0  0  0
 37 66  1  0  0  0
 37109  1  0  0  0
 38 43  2  0  0  0
 38 46  1  0  0  0
 38 47  1  0  0  0
 39 64  1  0  0  0
 39 67  2  0  0  0
 40 52  1  0  0  0
 40 53  2  0  0  0
 40 58  1  0  0  0
 41110  1  0  0  0
 41111  1  0  0  0
 41112  1  0  0  0
 41 48  1  0  0  0
 42 43  1  0  0  0
 42 66  1  0  0  0
 42113  1  0  0  0
 42114  1  0  0  0
 43 44  1  0  0  0
 44115  1  0  0  0
 45 46  2  0  0  0
 45116  1  0  0  0
 46117  1  0  0  0
 47118  1  0  0  0
 47119  1  0  0  0
 48 56  1  0  0  0
 48 65  1  0  0  0
 48120  1  0  0  0
 49 50  1  0  0  0
 49 53  1  0  0  0
 49 64  1  0  0  0
 49121  1  0  0  0
 50 51  1  0  0  0
 50122  1  0  0  0
 50123  1  0  0  0
 51 52  1  0  0  0
 51124  1  0  0  0
 51125  1  0  0  0
 52126  1  0  0  0
 52127  1  0  0  0
 53 54  1  0  0  0
 54 55  2  0  0  0
 54128  1  0  0  0
 55 57  1  0  0  0
 55129  1  0  0  0
 56 69  2  0  0  0
 57 58  2  0  0  0
 57130  1  0  0  0
 58131  1  0  0  0
 59 60  1  0  0  0
 59 61  1  0  0  0
 59 62  1  0  0  0
 60132  1  0  0  0
 60133  1  0  0  0
 60134  1  0  0  0
 61135  1  0  0  0
 61136  1  0  0  0
 61137  1  0  0  0
 62138  1  0  0  0
 62139  1  0  0  0
 62140  1  0  0  0
 63 65  1  0  0  0
 63141  1  0  0  0
 63142  1  0  0  0
 63143  1  0  0  0
 64144  1  0  0  0
 65145  1  0  0  0
 68 81  1  0  0  0
 71 72  2  0  0  0
 71 74  1  0  0  0
 71146  1  0  0  0
 72 76  1  0  0  0
 72147  1  0  0  0
 73 75  1  0  0  0
 73 76  2  0  0  0
 73148  1  0  0  0
 74 75  2  0  0  0
 74 83  1  0  0  0
 75 77  1  0  0  0
 76 86  1  0  0  0
 77149  1  0  0  0
 77150  1  0  0  0
 77151  1  0  0  0
 78152  1  0  0  0
 78153  1  0  0  0
 78154  1  0  0  0
 78 83  1  0  0  0
 79 80  1  0  0  0
 79 84  1  0  0  0
 79155  1  0  0  0
 79156  1  0  0  0
 80 85  1  0  0  0
 80157  1  0  0  0
 80158  1  0  0  0
 81 82  1  0  0  0
 81159  1  0  0  0
 81160  1  0  0  0
 82 86  1  0  0  0
 82161  1  0  0  0
 82162  1  0  0  0
 83 85  1  0  0  0
 83163  1  0  0  0
 84164  1  0  0  0
 85165  1  0  0  0
 85166  1  0  0  0
M  CHG  1  85   1
M  ISO  4   1 100  68 101  81 101  84 100
M  END
> <chiral flag>
0

> <version>
0

> <s_m_source_file>
/data/baiqing/PycharmProjects/Reinvent-master-3.2/result/LINK_invent/BTK/process_docking_weight1_custom_sum_contain_oxygen_bond_distance_aromatic_linkinvent_7_9_3/rearranged_h_0132.sdf

> <i_m_source_file_index>
78

> <r_mmod_Potential_Energy-OPLS-2005>
-278.257934570312

> <r_mmod_Stretch_Energy-OPLS-2005>
36.6557426452637

> <r_mmod_Bend_Energy-OPLS-2005>
107.587959289551

> <r_mmod_Torsional_Energy-OPLS-2005>
218.51042175293

> <r_mmod_Improper_Torsional_Energy-OPLS-2005>
4.87693214416504

> <r_mmod_Van_der_Waal_Energy-OPLS-2005>
166.253784179688

> <r_mmod_Electrostatic_Energy-OPLS-2005>
-352.676788330078

> <r_mmod_Solvation_Energy-OPLS-2005>
-469.908050537109

> <b_mmod_Minimization_Converged-OPLS-2005>
0

> <r_mmod_RMS_Derivative-OPLS-2005>
3.75759363174438

$$$$
80
                    3D
 Structure written by MMmdl.
149157  0  0  1  0            999 V2000
  -30.4221  -15.2853   20.3679 C   0  0  0  0  0  0
  -30.4399  -12.8243   19.5199 C   0  0  0  0  0  0
  -29.5357  -12.5790   18.2853 C   0  0  0  0  0  0
  -28.0851  -12.2987   18.7157 C   0  0  0  0  0  0
  -27.6102  -13.2750   19.8202 C   0  0  2  0  0  0
  -28.6445  -13.4557   20.9511 C   0  0  0  0  0  0
  -25.2384  -13.8243   20.5743 C   0  0  0  0  0  0
  -24.1741  -13.0433   20.9265 C   0  0  0  0  0  0
  -24.6398  -11.6931   20.8766 C   0  0  0  0  0  0
  -23.9093  -10.4290   21.0408 C   0  0  0  0  0  0
  -24.3637   -9.4203   21.9186 C   0  0  0  0  0  0
  -23.6304   -8.2242   22.0755 C   0  0  0  0  0  0
  -22.4286   -8.0282   21.3544 C   0  0  0  0  0  0
  -21.9928   -9.0257   20.4646 C   0  0  0  0  0  0
  -22.7264  -10.2132   20.3056 C   0  0  0  0  0  0
  -21.6855   -6.0738   22.5279 C   0  0  0  0  0  0
  -21.4016   -6.5641   23.8213 C   0  0  0  0  0  0
  -21.3660   -5.6793   24.9174 C   0  0  0  0  0  0
  -21.6044   -4.3055   24.7224 C   0  0  0  0  0  0
  -21.8819   -3.8148   23.4345 C   0  0  0  0  0  0
  -21.9194   -4.6965   22.3402 C   0  0  0  0  0  0
  -22.7758  -13.5185   21.1910 C   0  0  0  0  0  0
  -22.1662   -4.2151   21.0979 F   0  0  0  0  0  0
  -21.5629   -3.4538   25.7737 F   0  0  0  0  0  0
  -29.8700  -13.9716   20.3189 N   0  0  0  0  0  0
  -26.2810  -12.9518   20.3209 N   0  0  0  0  0  0
  -25.9333  -11.6624   20.5718 N   0  0  0  0  0  0
  -22.0415  -12.8164   22.0460 N   0  0  0  0  0  0
  -25.4005  -15.1979   20.4163 N   0  0  0  0  0  0
  -31.6480  -15.2913   20.1827 O   0  0  0  0  0  0
  -21.6644   -6.8882   21.4242 O   0  0  0  0  0  0
  -22.3440  -14.5489   20.6751 O   0  0  0  0  0  0
  -24.6640  -31.8222   23.1686 C   0  0  0  0  0  0
  -25.9315  -32.4582   23.8157 C   0  0  1  0  0  0
  -27.2206  -26.9155   20.1912 C   0  0  0  0  0  0
  -25.5977  -33.8396   24.2065 N   0  0  0  0  0  0
  -23.4793  -30.4324   21.5185 C   0  0  2  0  0  0
  -24.9326  -28.8129   20.1164 C   0  0  0  0  0  0
  -22.7670  -29.4435   22.4782 C   0  0  0  0  0  0
  -18.0321  -28.1413   22.8467 C   0  0  0  0  0  0
  -24.1493  -36.7203   23.2647 C   0  0  0  0  0  0
  -26.0488  -30.6260   21.3988 C   0  0  0  0  0  0
  -26.1177  -29.2130   20.7464 C   0  0  0  0  0  0
  -27.2578  -28.2876   20.7534 C   0  0  0  0  0  0
  -26.0038  -26.6661   19.5185 C   0  0  0  0  0  0
  -24.9013  -27.5603   19.4816 C   0  0  0  0  0  0
  -23.7198  -29.7436   20.1467 C   0  0  0  0  0  0
  -25.4135  -36.2964   24.0297 C   0  0  1  0  0  0
  -20.5946  -28.3758   23.1188 C   0  0  2  0  0  0
  -20.6797  -26.9439   22.5404 C   0  0  0  0  0  0
  -19.5772  -26.6382   21.5215 C   0  0  0  0  0  0
  -18.1954  -26.7946   22.1623 C   0  0  0  0  0  0
  -19.1583  -28.8907   23.2814 C   0  0  0  0  0  0
  -18.9493  -30.1496   23.8850 C   0  0  0  0  0  0
  -17.6486  -30.6602   24.0557 C   0  0  0  0  0  0
  -25.9101  -34.9346   23.5004 C   0  0  0  0  0  0
  -16.5377  -29.9088   23.6345 C   0  0  0  0  0  0
  -16.7304  -28.6509   23.0363 C   0  0  0  0  0  0
  -26.4562  -31.6532   25.0692 C   0  0  0  0  0  0
  -25.3685  -31.3786   26.1346 C   0  0  0  0  0  0
  -27.0461  -30.2899   24.6431 C   0  0  0  0  0  0
  -27.6050  -32.4344   25.7499 C   0  0  0  0  0  0
  -27.5569  -37.1760   24.8467 C   0  0  0  0  0  0
  -21.4339  -29.3044   22.3534 N   0  0  0  0  0  0
  -26.4279  -37.3702   23.9407 N   0  0  0  0  0  0
  -24.7523  -30.9874   22.0824 N   0  0  0  0  0  0
  -23.4212  -28.8008   23.3032 O   0  0  0  0  0  0
  -28.2329  -25.8158   20.2379 O   0  0  0  0  0  0
  -26.5714  -34.8885   22.4603 O   0  0  0  0  0  0
  -23.5708  -32.1194   23.6776 O   0  0  0  0  0  0
  -28.9642  -22.7150   20.1143 C   0  0  0  0  0  0
  -29.1023  -19.5231   19.6124 C   0  0  0  0  0  0
  -29.6943  -18.9838   21.8471 C   0  0  0  0  0  0
  -28.6871  -20.9453   20.4714 C   0  0  1  0  0  0
  -29.8257  -18.2278   20.4631 C   0  0  1  0  0  0
  -27.9758  -24.1735   20.3075 C   0  0  0  0  0  0
  -29.6348  -16.5502   20.4273 N   0  0  0  0  0  0
  -29.2715  -20.4701   21.7677 N   0  3  0  0  0  0
  -30.0890  -22.9612   19.6622 O   0  0  0  0  0  0
  -31.4554  -13.0389   19.1845 H   0  0  0  0  0  0
  -30.5176  -11.9233   20.1306 H   0  0  0  0  0  0
  -29.9190  -11.7494   17.6897 H   0  0  0  0  0  0
  -29.5602  -13.4579   17.6394 H   0  0  0  0  0  0
  -28.0455  -11.2758   19.0921 H   0  0  0  0  0  0
  -27.4157  -12.3348   17.8554 H   0  0  0  0  0  0
  -27.5222  -14.2396   19.3189 H   0  0  0  0  0  0
  -28.8202  -12.5223   21.4881 H   0  0  0  0  0  0
  -28.2813  -14.1749   21.6869 H   0  0  0  0  0  0
  -25.2778   -9.5678   22.4768 H   0  0  0  0  0  0
  -24.0008   -7.4633   22.7476 H   0  0  0  0  0  0
  -21.0860   -8.8782   19.8950 H   0  0  0  0  0  0
  -22.3724  -10.9674   19.6167 H   0  0  0  0  0  0
  -21.2009   -7.6148   23.9717 H   0  0  0  0  0  0
  -21.1482   -6.0522   25.9077 H   0  0  0  0  0  0
  -22.0597   -2.7610   23.2845 H   0  0  0  0  0  0
  -22.4045  -11.9830   22.4846 H   0  0  0  0  0  0
  -21.1025  -13.1168   22.2662 H   0  0  0  0  0  0
  -24.6247  -15.8428   20.5213 H   0  0  0  0  0  0
  -26.2307  -15.6375   20.0425 H   0  0  0  0  0  0
  -26.7387  -32.5119   23.0874 H   0  0  0  0  0  0
  -25.0069  -33.9471   25.0178 H   0  0  0  0  0  0
  -22.7934  -31.2642   21.3452 H   0  0  0  0  0  0
  -23.3768  -35.9521   23.3278 H   0  0  0  0  0  0
  -24.3568  -36.8883   22.2067 H   0  0  0  0  0  0
  -23.7237  -37.6377   23.6724 H   0  0  0  0  0  0
  -26.2277  -31.3652   20.6167 H   0  0  0  0  0  0
  -26.9095  -30.6864   22.0531 H   0  0  0  0  0  0
  -28.1585  -28.5963   21.2651 H   0  0  0  0  0  0
  -25.8784  -25.7086   19.0334 H   0  0  0  0  0  0
  -24.0006  -27.2478   18.9711 H   0  0  0  0  0  0
  -23.8776  -30.5097   19.3867 H   0  0  0  0  0  0
  -22.8290  -29.1987   19.8292 H   0  0  0  0  0  0
  -25.1335  -36.1756   25.0788 H   0  0  0  0  0  0
  -21.0034  -28.3367   24.1311 H   0  0  0  0  0  0
  -20.5677  -26.2377   23.3646 H   0  0  0  0  0  0
  -21.6661  -26.7414   22.1211 H   0  0  0  0  0  0
  -19.6930  -25.6280   21.1277 H   0  0  0  0  0  0
  -19.6710  -27.3164   20.6721 H   0  0  0  0  0  0
  -17.4223  -26.6688   21.4028 H   0  0  0  0  0  0
  -18.0350  -26.0101   22.9033 H   0  0  0  0  0  0
  -19.7968  -30.7327   24.2198 H   0  0  0  0  0  0
  -17.5037  -31.6276   24.5169 H   0  0  0  0  0  0
  -15.5375  -30.2976   23.7696 H   0  0  0  0  0  0
  -15.8704  -28.0812   22.7106 H   0  0  0  0  0  0
  -24.5885  -30.7115   25.7658 H   0  0  0  0  0  0
  -24.8853  -32.2987   26.4641 H   0  0  0  0  0  0
  -25.7916  -30.9043   27.0210 H   0  0  0  0  0  0
  -26.3129  -29.6572   24.1417 H   0  0  0  0  0  0
  -27.3969  -29.7268   25.5090 H   0  0  0  0  0  0
  -27.9079  -30.4080   23.9860 H   0  0  0  0  0  0
  -27.2616  -33.3692   26.1943 H   0  0  0  0  0  0
  -28.3933  -32.6829   25.0381 H   0  0  0  0  0  0
  -28.0637  -31.8558   26.5528 H   0  0  0  0  0  0
  -28.2568  -38.0073   24.7515 H   0  0  0  0  0  0
  -28.1084  -36.2599   24.6296 H   0  0  0  0  0  0
  -27.2284  -37.1404   25.8868 H   0  0  0  0  0  0
  -20.9598  -29.8727   21.6653 H   0  0  0  0  0  0
  -26.0125  -38.2760   24.1416 H   0  0  0  0  0  0
  -29.7534  -19.8018   18.7833 H   0  0  0  0  0  0
  -28.1940  -19.1524   19.1372 H   0  0  0  0  0  0
  -30.6146  -18.8939   22.4255 H   0  0  0  0  0  0
  -28.9265  -18.4784   22.4337 H   0  0  0  0  0  0
  -27.6097  -20.8682   20.6171 H   0  0  0  0  0  0
  -30.8792  -18.3191   20.1935 H   0  0  0  0  0  0
  -28.6682  -24.3053   21.1388 H   0  0  0  0  0  0
  -28.1523  -24.2641   19.2357 H   0  0  0  0  0  0
  -28.6565  -16.3101   20.4952 H   0  0  0  0  0  0
  -30.1078  -21.0173   21.8936 H   0  0  0  0  0  0
  -28.6575  -20.7104   22.5280 H   0  0  0  0  0  0
  1 25  1  0  0  0
  1 30  2  0  0  0
  1 77  1  0  0  0
  2  3  1  0  0  0
  2 25  1  0  0  0
  2 80  1  0  0  0
  2 81  1  0  0  0
  3  4  1  0  0  0
  3 82  1  0  0  0
  3 83  1  0  0  0
  4  5  1  0  0  0
  4 84  1  0  0  0
  4 85  1  0  0  0
  5  6  1  0  0  0
  5 26  1  0  0  0
  5 86  1  0  0  0
  6 25  1  0  0  0
  6 87  1  0  0  0
  6 88  1  0  0  0
  7  8  2  0  0  0
  7 26  1  0  0  0
  7 29  1  0  0  0
  8  9  1  0  0  0
  8 22  1  0  0  0
  9 10  1  0  0  0
  9 27  2  0  0  0
 10 11  2  0  0  0
 10 15  1  0  0  0
 11 12  1  0  0  0
 11 89  1  0  0  0
 12 13  2  0  0  0
 12 90  1  0  0  0
 13 14  1  0  0  0
 13 31  1  0  0  0
 14 15  2  0  0  0
 14 91  1  0  0  0
 15 92  1  0  0  0
 16 17  2  0  0  0
 16 21  1  0  0  0
 16 31  1  0  0  0
 17 18  1  0  0  0
 17 93  1  0  0  0
 18 19  2  0  0  0
 18 94  1  0  0  0
 19 20  1  0  0  0
 19 24  1  0  0  0
 20 21  2  0  0  0
 20 95  1  0  0  0
 21 23  1  0  0  0
 22 28  1  0  0  0
 22 32  2  0  0  0
 26 27  1  0  0  0
 28 96  1  0  0  0
 28 97  1  0  0  0
 29 98  1  0  0  0
 29 99  1  0  0  0
 33 34  1  0  0  0
 33 66  1  0  0  0
 33 70  2  0  0  0
 34 36  1  0  0  0
 34 59  1  0  0  0
 34100  1  0  0  0
 35 44  2  0  0  0
 35 45  1  0  0  0
 35 68  1  0  0  0
 36 56  1  0  0  0
 36101  1  0  0  0
 37 39  1  0  0  0
 37 47  1  0  0  0
 37 66  1  0  0  0
 37102  1  0  0  0
 38 43  2  0  0  0
 38 46  1  0  0  0
 38 47  1  0  0  0
 39 64  1  0  0  0
 39 67  2  0  0  0
 40 52  1  0  0  0
 40 53  2  0  0  0
 40 58  1  0  0  0
 41103  1  0  0  0
 41104  1  0  0  0
 41105  1  0  0  0
 41 48  1  0  0  0
 42 43  1  0  0  0
 42 66  1  0  0  0
 42106  1  0  0  0
 42107  1  0  0  0
 43 44  1  0  0  0
 44108  1  0  0  0
 45 46  2  0  0  0
 45109  1  0  0  0
 46110  1  0  0  0
 47111  1  0  0  0
 47112  1  0  0  0
 48 56  1  0  0  0
 48 65  1  0  0  0
 48113  1  0  0  0
 49 50  1  0  0  0
 49 53  1  0  0  0
 49 64  1  0  0  0
 49114  1  0  0  0
 50 51  1  0  0  0
 50115  1  0  0  0
 50116  1  0  0  0
 51 52  1  0  0  0
 51117  1  0  0  0
 51118  1  0  0  0
 52119  1  0  0  0
 52120  1  0  0  0
 53 54  1  0  0  0
 54 55  2  0  0  0
 54121  1  0  0  0
 55 57  1  0  0  0
 55122  1  0  0  0
 56 69  2  0  0  0
 57 58  2  0  0  0
 57123  1  0  0  0
 58124  1  0  0  0
 59 60  1  0  0  0
 59 61  1  0  0  0
 59 62  1  0  0  0
 60125  1  0  0  0
 60126  1  0  0  0
 60127  1  0  0  0
 61128  1  0  0  0
 61129  1  0  0  0
 61130  1  0  0  0
 62131  1  0  0  0
 62132  1  0  0  0
 62133  1  0  0  0
 63 65  1  0  0  0
 63134  1  0  0  0
 63135  1  0  0  0
 63136  1  0  0  0
 64137  1  0  0  0
 65138  1  0  0  0
 68 76  1  0  0  0
 71 76  1  0  0  0
 71 79  2  0  0  0
 71 74  1  0  0  0
 72 74  1  0  0  0
 72 75  1  0  0  0
 72139  1  0  0  0
 72140  1  0  0  0
 73 75  1  0  0  0
 73 78  1  0  0  0
 73141  1  0  0  0
 73142  1  0  0  0
 74 78  1  0  0  0
 74143  1  0  0  0
 75 77  1  0  0  0
 75144  1  0  0  0
 76145  1  0  0  0
 76146  1  0  0  0
 77147  1  0  0  0
 78148  1  0  0  0
 78149  1  0  0  0
M  CHG  1  78   1
M  ISO  4   1 100  68 101  76 101  77 100
M  END
> <chiral flag>
0

> <version>
0

> <s_m_source_file>
/data/baiqing/PycharmProjects/Reinvent-master-3.2/result/LINK_invent/BTK/process_docking_weight1_custom_sum_contain_oxygen_bond_distance_aromatic_linkinvent_7_9_3/rearranged_h_0132.sdf

> <i_m_source_file_index>
79

> <r_mmod_Potential_Energy-OPLS-2005>
1256.21411132812

> <r_mmod_Stretch_Energy-OPLS-2005>
601.863708496094

> <r_mmod_Bend_Energy-OPLS-2005>
684.105224609375

> <r_mmod_Torsional_Energy-OPLS-2005>
250.224044799805

> <r_mmod_Improper_Torsional_Energy-OPLS-2005>
3.98245787620544

> <r_mmod_Van_der_Waal_Energy-OPLS-2005>
106.124443054199

> <r_mmod_Electrostatic_Energy-OPLS-2005>
-319.006317138672

> <r_mmod_Solvation_Energy-OPLS-2005>
-547.703491210938

> <b_mmod_Minimization_Converged-OPLS-2005>
0

> <r_mmod_RMS_Derivative-OPLS-2005>
0.192724108695984

$$$$
81
                    3D
 Structure written by MMmdl.
149157  0  0  1  0            999 V2000
  -30.4031  -15.1977   20.3801 C   0  0  0  0  0  0
  -30.4494  -12.7614   19.5136 C   0  0  0  0  0  0
  -29.5386  -12.5643   18.2740 C   0  0  0  0  0  0
  -28.0809  -12.2917   18.6956 C   0  0  0  0  0  0
  -27.6116  -13.2579   19.8133 C   0  0  2  0  0  0
  -28.6460  -13.3799   20.9514 C   0  0  0  0  0  0
  -25.2383  -13.8189   20.5668 C   0  0  0  0  0  0
  -24.1731  -13.0413   20.9246 C   0  0  0  0  0  0
  -24.6360  -11.6906   20.8737 C   0  0  0  0  0  0
  -23.9039  -10.4285   21.0411 C   0  0  0  0  0  0
  -24.3595   -9.4201   21.9183 C   0  0  0  0  0  0
  -23.6284   -8.2222   22.0751 C   0  0  0  0  0  0
  -22.4265   -8.0260   21.3537 C   0  0  0  0  0  0
  -21.9885   -9.0231   20.4641 C   0  0  0  0  0  0
  -22.7205  -10.2121   20.3064 C   0  0  0  0  0  0
  -21.6847   -6.0722   22.5284 C   0  0  0  0  0  0
  -21.4006   -6.5630   23.8217 C   0  0  0  0  0  0
  -21.3660   -5.6780   24.9174 C   0  0  0  0  0  0
  -21.6055   -4.3048   24.7225 C   0  0  0  0  0  0
  -21.8811   -3.8137   23.4345 C   0  0  0  0  0  0
  -21.9180   -4.6949   22.3402 C   0  0  0  0  0  0
  -22.7752  -13.5200   21.1889 C   0  0  0  0  0  0
  -22.1657   -4.2135   21.0983 F   0  0  0  0  0  0
  -21.5628   -3.4535   25.7741 F   0  0  0  0  0  0
  -29.8847  -13.8817   20.3393 N   0  0  0  0  0  0
  -26.2786  -12.9433   20.3104 N   0  0  0  0  0  0
  -25.9296  -11.6561   20.5647 N   0  0  0  0  0  0
  -22.0360  -12.8235   22.0454 N   0  0  0  0  0  0
  -25.3995  -15.1914   20.4048 N   0  0  0  0  0  0
  -31.6284  -15.2544   20.1927 O   0  0  0  0  0  0
  -21.6632   -6.8862   21.4245 O   0  0  0  0  0  0
  -22.3462  -14.5495   20.6691 O   0  0  0  0  0  0
  -24.6599  -31.8259   23.1741 C   0  0  0  0  0  0
  -25.9301  -32.4602   23.8189 C   0  0  1  0  0  0
  -27.2134  -26.9681   20.1825 C   0  0  0  0  0  0
  -25.5991  -33.8417   24.2113 N   0  0  0  0  0  0
  -23.4728  -30.4391   21.5189 C   0  0  2  0  0  0
  -24.9255  -28.8302   20.1153 C   0  0  0  0  0  0
  -22.7646  -29.4463   22.4775 C   0  0  0  0  0  0
  -18.0305  -28.1386   22.8463 C   0  0  0  0  0  0
  -24.1507  -36.7224   23.2640 C   0  0  0  0  0  0
  -26.0404  -30.6482   21.3968 C   0  0  0  0  0  0
  -26.1082  -29.2405   20.7432 C   0  0  0  0  0  0
  -27.2501  -28.3284   20.7529 C   0  0  0  0  0  0
  -26.0072  -26.7008   19.5031 C   0  0  0  0  0  0
  -24.8975  -27.5804   19.4760 C   0  0  0  0  0  0
  -23.7124  -29.7537   20.1457 C   0  0  0  0  0  0
  -25.4142  -36.2981   24.0300 C   0  0  1  0  0  0
  -20.5934  -28.3741   23.1171 C   0  0  2  0  0  0
  -20.6793  -26.9421   22.5380 C   0  0  0  0  0  0
  -19.5775  -26.6363   21.5196 C   0  0  0  0  0  0
  -18.1955  -26.7912   22.1613 C   0  0  0  0  0  0
  -19.1570  -28.8880   23.2812 C   0  0  0  0  0  0
  -18.9482  -30.1468   23.8853 C   0  0  0  0  0  0
  -17.6484  -30.6593   24.0532 C   0  0  0  0  0  0
  -25.9086  -34.9357   23.5021 C   0  0  0  0  0  0
  -16.5370  -29.9082   23.6335 C   0  0  0  0  0  0
  -16.7291  -28.6491   23.0370 C   0  0  0  0  0  0
  -26.4580  -31.6523   25.0695 C   0  0  0  0  0  0
  -25.3736  -31.3764   26.1379 C   0  0  0  0  0  0
  -27.0449  -30.2885   24.6402 C   0  0  0  0  0  0
  -27.6089  -32.4306   25.7494 C   0  0  0  0  0  0
  -27.5584  -37.1773   24.8462 C   0  0  0  0  0  0
  -21.4316  -29.3058   22.3535 N   0  0  0  0  0  0
  -26.4302  -37.3707   23.9396 N   0  0  0  0  0  0
  -24.7449  -30.9968   22.0840 N   0  0  0  0  0  0
  -23.4225  -28.8014   23.2977 O   0  0  0  0  0  0
  -28.2215  -25.8882   20.2617 O   0  0  0  0  0  0
  -26.5674  -34.8881   22.4599 O   0  0  0  0  0  0
  -23.5675  -32.1193   23.6873 O   0  0  0  0  0  0
  -28.0549  -20.1830   20.0372 C   0  0  0  0  0  0
  -28.2443  -18.7125   20.0468 C   0  0  0  0  0  0
  -29.0656  -21.1631   20.3825 C   0  0  0  0  0  0
  -30.2373  -20.3481   20.7261 C   0  0  0  0  0  0
  -29.4612  -17.9765   20.3760 C   0  0  0  0  0  0
  -31.4755  -21.0531   21.2408 C   0  0  0  0  0  0
  -29.0483  -22.9112   20.4502 C   0  0  0  0  0  0
  -27.9674  -24.2788   20.1319 C   0  0  0  0  0  0
  -30.4118  -18.9339   20.7090 N   0  0  0  0  0  0
  -29.5171  -16.3742   20.3972 N   0  0  0  0  0  0
  -31.4685  -12.9796   19.1892 H   0  0  0  0  0  0
  -30.5148  -11.8446   20.1008 H   0  0  0  0  0  0
  -29.9152  -11.7512   17.6515 H   0  0  0  0  0  0
  -29.5733  -13.4619   17.6539 H   0  0  0  0  0  0
  -28.0274  -11.2631   19.0535 H   0  0  0  0  0  0
  -27.4171  -12.3476   17.8320 H   0  0  0  0  0  0
  -27.5375  -14.2330   19.3313 H   0  0  0  0  0  0
  -28.7976  -12.4217   21.4525 H   0  0  0  0  0  0
  -28.2951  -14.0797   21.7121 H   0  0  0  0  0  0
  -25.2726   -9.5699   22.4757 H   0  0  0  0  0  0
  -23.9992   -7.4623   22.7482 H   0  0  0  0  0  0
  -21.0801   -8.8746   19.8965 H   0  0  0  0  0  0
  -22.3640  -10.9655   19.6178 H   0  0  0  0  0  0
  -21.2013   -7.6138   23.9719 H   0  0  0  0  0  0
  -21.1492   -6.0512   25.9079 H   0  0  0  0  0  0
  -22.0592   -2.7596   23.2846 H   0  0  0  0  0  0
  -22.3954  -11.9946   22.4952 H   0  0  0  0  0  0
  -21.0973  -13.1320   22.2584 H   0  0  0  0  0  0
  -24.6122  -15.8249   20.4948 H   0  0  0  0  0  0
  -26.2040  -15.6216   19.9724 H   0  0  0  0  0  0
  -26.7365  -32.5155   23.0895 H   0  0  0  0  0  0
  -25.0133  -33.9497   25.0271 H   0  0  0  0  0  0
  -22.7857  -31.2700   21.3462 H   0  0  0  0  0  0
  -23.3773  -35.9549   23.3263 H   0  0  0  0  0  0
  -24.3582  -36.8906   22.2059 H   0  0  0  0  0  0
  -23.7265  -37.6412   23.6701 H   0  0  0  0  0  0
  -26.2145  -31.3921   20.6182 H   0  0  0  0  0  0
  -26.9033  -30.7038   22.0485 H   0  0  0  0  0  0
  -28.1469  -28.6397   21.2720 H   0  0  0  0  0  0
  -25.8936  -25.7458   19.0112 H   0  0  0  0  0  0
  -23.9992  -27.2621   18.9666 H   0  0  0  0  0  0
  -23.8738  -30.5199   19.3864 H   0  0  0  0  0  0
  -22.8250  -29.2061   19.8230 H   0  0  0  0  0  0
  -25.1333  -36.1785   25.0791 H   0  0  0  0  0  0
  -21.0023  -28.3343   24.1295 H   0  0  0  0  0  0
  -20.5684  -26.2349   23.3613 H   0  0  0  0  0  0
  -21.6654  -26.7406   22.1177 H   0  0  0  0  0  0
  -19.6935  -25.6268   21.1258 H   0  0  0  0  0  0
  -19.6716  -27.3137   20.6695 H   0  0  0  0  0  0
  -17.4214  -26.6625   21.4033 H   0  0  0  0  0  0
  -18.0383  -26.0076   22.9032 H   0  0  0  0  0  0
  -19.7961  -30.7271   24.2241 H   0  0  0  0  0  0
  -17.5038  -31.6270   24.5123 H   0  0  0  0  0  0
  -15.5377  -30.2969   23.7681 H   0  0  0  0  0  0
  -15.8680  -28.0784   22.7144 H   0  0  0  0  0  0
  -24.5865  -30.7181   25.7690 H   0  0  0  0  0  0
  -24.9006  -32.2972   26.4795 H   0  0  0  0  0  0
  -25.7995  -30.8910   27.0169 H   0  0  0  0  0  0
  -26.3084  -29.6571   24.1422 H   0  0  0  0  0  0
  -27.3988  -29.7243   25.5042 H   0  0  0  0  0  0
  -27.9032  -30.4054   23.9783 H   0  0  0  0  0  0
  -27.2665  -33.3626   26.1999 H   0  0  0  0  0  0
  -28.3950  -32.6834   25.0365 H   0  0  0  0  0  0
  -28.0694  -31.8474   26.5483 H   0  0  0  0  0  0
  -28.2572  -38.0099   24.7505 H   0  0  0  0  0  0
  -28.1107  -36.2616   24.6285 H   0  0  0  0  0  0
  -27.2273  -37.1399   25.8859 H   0  0  0  0  0  0
  -20.9551  -29.8789   21.6707 H   0  0  0  0  0  0
  -26.0148  -38.2768   24.1404 H   0  0  0  0  0  0
  -27.0777  -20.5548   19.7618 H   0  0  0  0  0  0
  -27.3763  -18.1252   19.7763 H   0  0  0  0  0  0
  -31.3802  -21.2278   22.3139 H   0  0  0  0  0  0
  -31.6393  -22.0083   20.7439 H   0  0  0  0  0  0
  -32.3665  -20.4466   21.0802 H   0  0  0  0  0  0
  -29.9101  -23.1654   19.8346 H   0  0  0  0  0  0
  -29.3829  -23.1029   21.4703 H   0  0  0  0  0  0
  -27.0740  -24.0943   20.7311 H   0  0  0  0  0  0
  -27.6364  -24.1437   19.1021 H   0  0  0  0  0  0
  -28.5786  -16.0121   20.3895 H   0  0  0  0  0  0
  1 25  1  0  0  0
  1 30  2  0  0  0
  1 80  1  0  0  0
  2  3  1  0  0  0
  2 25  1  0  0  0
  2 81  1  0  0  0
  2 82  1  0  0  0
  3  4  1  0  0  0
  3 83  1  0  0  0
  3 84  1  0  0  0
  4  5  1  0  0  0
  4 85  1  0  0  0
  4 86  1  0  0  0
  5  6  1  0  0  0
  5 26  1  0  0  0
  5 87  1  0  0  0
  6 25  1  0  0  0
  6 88  1  0  0  0
  6 89  1  0  0  0
  7  8  2  0  0  0
  7 26  1  0  0  0
  7 29  1  0  0  0
  8  9  1  0  0  0
  8 22  1  0  0  0
  9 10  1  0  0  0
  9 27  2  0  0  0
 10 11  2  0  0  0
 10 15  1  0  0  0
 11 12  1  0  0  0
 11 90  1  0  0  0
 12 13  2  0  0  0
 12 91  1  0  0  0
 13 14  1  0  0  0
 13 31  1  0  0  0
 14 15  2  0  0  0
 14 92  1  0  0  0
 15 93  1  0  0  0
 16 17  2  0  0  0
 16 21  1  0  0  0
 16 31  1  0  0  0
 17 18  1  0  0  0
 17 94  1  0  0  0
 18 19  2  0  0  0
 18 95  1  0  0  0
 19 20  1  0  0  0
 19 24  1  0  0  0
 20 21  2  0  0  0
 20 96  1  0  0  0
 21 23  1  0  0  0
 22 28  1  0  0  0
 22 32  2  0  0  0
 26 27  1  0  0  0
 28 97  1  0  0  0
 28 98  1  0  0  0
 29 99  1  0  0  0
 29100  1  0  0  0
 33 34  1  0  0  0
 33 66  1  0  0  0
 33 70  2  0  0  0
 34 36  1  0  0  0
 34 59  1  0  0  0
 34101  1  0  0  0
 35 44  2  0  0  0
 35 45  1  0  0  0
 35 68  1  0  0  0
 36 56  1  0  0  0
 36102  1  0  0  0
 37 39  1  0  0  0
 37 47  1  0  0  0
 37 66  1  0  0  0
 37103  1  0  0  0
 38 43  2  0  0  0
 38 46  1  0  0  0
 38 47  1  0  0  0
 39 64  1  0  0  0
 39 67  2  0  0  0
 40 52  1  0  0  0
 40 53  2  0  0  0
 40 58  1  0  0  0
 41104  1  0  0  0
 41105  1  0  0  0
 41106  1  0  0  0
 41 48  1  0  0  0
 42 43  1  0  0  0
 42 66  1  0  0  0
 42107  1  0  0  0
 42108  1  0  0  0
 43 44  1  0  0  0
 44109  1  0  0  0
 45 46  2  0  0  0
 45110  1  0  0  0
 46111  1  0  0  0
 47112  1  0  0  0
 47113  1  0  0  0
 48 56  1  0  0  0
 48 65  1  0  0  0
 48114  1  0  0  0
 49 50  1  0  0  0
 49 53  1  0  0  0
 49 64  1  0  0  0
 49115  1  0  0  0
 50 51  1  0  0  0
 50116  1  0  0  0
 50117  1  0  0  0
 51 52  1  0  0  0
 51118  1  0  0  0
 51119  1  0  0  0
 52120  1  0  0  0
 52121  1  0  0  0
 53 54  1  0  0  0
 54 55  2  0  0  0
 54122  1  0  0  0
 55 57  1  0  0  0
 55123  1  0  0  0
 56 69  2  0  0  0
 57 58  2  0  0  0
 57124  1  0  0  0
 58125  1  0  0  0
 59 60  1  0  0  0
 59 61  1  0  0  0
 59 62  1  0  0  0
 60126  1  0  0  0
 60127  1  0  0  0
 60128  1  0  0  0
 61129  1  0  0  0
 61130  1  0  0  0
 61131  1  0  0  0
 62132  1  0  0  0
 62133  1  0  0  0
 62134  1  0  0  0
 63 65  1  0  0  0
 63135  1  0  0  0
 63136  1  0  0  0
 63137  1  0  0  0
 64138  1  0  0  0
 65139  1  0  0  0
 68 78  1  0  0  0
 71 72  2  0  0  0
 71 73  1  0  0  0
 71140  1  0  0  0
 72 75  1  0  0  0
 72141  1  0  0  0
 73 74  2  0  0  0
 73 77  1  0  0  0
 74 76  1  0  0  0
 74 79  1  0  0  0
 75 79  2  0  0  0
 75 80  1  0  0  0
 76142  1  0  0  0
 76143  1  0  0  0
 76144  1  0  0  0
 77 78  1  0  0  0
 77145  1  0  0  0
 77146  1  0  0  0
 78147  1  0  0  0
 78148  1  0  0  0
 80149  1  0  0  0
M  ISO  4   1 100  68 101  78 101  80 100
M  END
> <chiral flag>
0

> <version>
0

> <s_m_source_file>
/data/baiqing/PycharmProjects/Reinvent-master-3.2/result/LINK_invent/BTK/process_docking_weight1_custom_sum_contain_oxygen_bond_distance_aromatic_linkinvent_7_9_3/rearranged_h_0132.sdf

> <i_m_source_file_index>
80

> <r_mmod_Potential_Energy-OPLS-2005>
879.722595214844

> <r_mmod_Stretch_Energy-OPLS-2005>
459.496887207031

> <r_mmod_Bend_Energy-OPLS-2005>
421.019744873047

> <r_mmod_Torsional_Energy-OPLS-2005>
208.05500793457

> <r_mmod_Improper_Torsional_Energy-OPLS-2005>
5.89557409286499

> <r_mmod_Van_der_Waal_Energy-OPLS-2005>
130.488891601562

> <r_mmod_Electrostatic_Energy-OPLS-2005>
-510.262298583984

> <r_mmod_Solvation_Energy-OPLS-2005>
-235.837127685547

> <b_mmod_Minimization_Converged-OPLS-2005>
0

> <r_mmod_RMS_Derivative-OPLS-2005>
2.89359712600708

$$$$
82
                    3D
 Structure written by MMmdl.
157165  0  0  1  0            999 V2000
  -30.7194  -14.4478   20.6235 C   0  0  0  0  0  0
  -30.4178  -12.3069   19.4234 C   0  0  0  0  0  0
  -29.4939  -12.5107   18.2069 C   0  0  0  0  0  0
  -28.0130  -12.3749   18.6138 C   0  0  0  0  0  0
  -27.6602  -13.2084   19.8757 C   0  0  2  0  0  0
  -28.6987  -12.9807   20.9970 C   0  0  0  0  0  0
  -25.2586  -13.8179   20.5703 C   0  0  0  0  0  0
  -24.1837  -13.0445   20.9196 C   0  0  0  0  0  0
  -24.6390  -11.6918   20.8744 C   0  0  0  0  0  0
  -23.9053  -10.4305   21.0408 C   0  0  0  0  0  0
  -24.3606   -9.4224   21.9185 C   0  0  0  0  0  0
  -23.6296   -8.2247   22.0748 C   0  0  0  0  0  0
  -22.4276   -8.0283   21.3534 C   0  0  0  0  0  0
  -21.9904   -9.0260   20.4635 C   0  0  0  0  0  0
  -22.7225  -10.2152   20.3055 C   0  0  0  0  0  0
  -21.6861   -6.0748   22.5286 C   0  0  0  0  0  0
  -21.4012   -6.5644   23.8225 C   0  0  0  0  0  0
  -21.3669   -5.6792   24.9181 C   0  0  0  0  0  0
  -21.6048   -4.3056   24.7215 C   0  0  0  0  0  0
  -21.8817   -3.8154   23.4333 C   0  0  0  0  0  0
  -21.9191   -4.6975   22.3397 C   0  0  0  0  0  0
  -22.7864  -13.5253   21.1868 C   0  0  0  0  0  0
  -22.1661   -4.2173   21.0971 F   0  0  0  0  0  0
  -21.5635   -3.4528   25.7722 F   0  0  0  0  0  0
  -30.0320  -13.2867   20.4522 N   0  0  0  0  0  0
  -26.3016  -12.9347   20.3370 N   0  0  0  0  0  0
  -25.9313  -11.6508   20.5758 N   0  0  0  0  0  0
  -22.0477  -12.8246   22.0410 N   0  0  0  0  0  0
  -25.4287  -15.1901   20.4155 N   0  0  0  0  0  0
  -31.8131  -14.6600   20.0943 O   0  0  0  0  0  0
  -21.6639   -6.8880   21.4241 O   0  0  0  0  0  0
  -22.3555  -14.5555   20.6714 O   0  0  0  0  0  0
  -24.6138  -31.8658   23.2062 C   0  0  0  0  0  0
  -25.9022  -32.4811   23.8370 C   0  0  1  0  0  0
  -27.2372  -27.4425   20.1069 C   0  0  0  0  0  0
  -25.5869  -33.8608   24.2309 N   0  0  0  0  0  0
  -23.4016  -30.4885   21.5457 C   0  0  2  0  0  0
  -24.8499  -28.9510   20.1175 C   0  0  0  0  0  0
  -22.7418  -29.4633   22.4959 C   0  0  0  0  0  0
  -18.0272  -28.1381   22.8504 C   0  0  0  0  0  0
  -24.1485  -36.7324   23.2632 C   0  0  0  0  0  0
  -25.9250  -30.8427   21.3488 C   0  0  0  0  0  0
  -26.0079  -29.4726   20.7075 C   0  0  0  0  0  0
  -27.2070  -28.7259   20.6971 C   0  0  0  0  0  0
  -26.0631  -26.9283   19.5160 C   0  0  0  0  0  0
  -24.8709  -27.6778   19.5204 C   0  0  0  0  0  0
  -23.6111  -29.8157   20.1621 C   0  0  0  0  0  0
  -25.4094  -36.3103   24.0336 C   0  0  1  0  0  0
  -20.5866  -28.3641   23.1328 C   0  0  2  0  0  0
  -20.6758  -26.9373   22.5429 C   0  0  0  0  0  0
  -19.5731  -26.6383   21.5226 C   0  0  0  0  0  0
  -18.1912  -26.7930   22.1638 C   0  0  0  0  0  0
  -19.1525  -28.8829   23.2914 C   0  0  0  0  0  0
  -18.9450  -30.1447   23.8910 C   0  0  0  0  0  0
  -17.6445  -30.6580   24.0576 C   0  0  0  0  0  0
  -25.9019  -34.9467   23.5120 C   0  0  0  0  0  0
  -16.5338  -29.9081   23.6335 C   0  0  0  0  0  0
  -16.7262  -28.6508   23.0345 C   0  0  0  0  0  0
  -26.4464  -31.6589   25.0691 C   0  0  0  0  0  0
  -25.3754  -31.3687   26.1459 C   0  0  0  0  0  0
  -27.0266  -30.3042   24.6006 C   0  0  0  0  0  0
  -27.6037  -32.4293   25.7471 C   0  0  0  0  0  0
  -27.5574  -37.1807   24.8461 C   0  0  0  0  0  0
  -21.4139  -29.3015   22.3727 N   0  0  0  0  0  0
  -26.4277  -37.3790   23.9416 N   0  0  0  0  0  0
  -24.6660  -31.0798   22.0938 N   0  0  0  0  0  0
  -23.4203  -28.8165   23.2981 O   0  0  0  0  0  0
  -28.4101  -26.7238   20.0901 O   0  0  0  0  0  0
  -26.5594  -34.8924   22.4690 O   0  0  0  0  0  0
  -23.5336  -32.1368   23.7480 O   0  0  0  0  0  0
  -28.2545  -21.8675   20.0217 C   0  0  0  0  0  0
  -28.6194  -20.5826   20.4759 C   0  0  0  0  0  0
  -29.1267  -22.9557   20.2433 C   0  0  0  0  0  0
  -30.3246  -22.6958   20.9504 C   0  0  0  0  0  0
  -29.8356  -20.4212   21.1625 C   0  0  0  0  0  0
  -31.3527  -23.7784   21.2294 C   0  0  0  0  0  0
  -28.7979  -24.3354   19.6489 C   0  0  0  0  0  0
  -29.7806  -17.9027   21.1851 C   0  0  0  0  0  0
  -30.6446  -16.7205   21.7011 C   0  0  0  0  0  0
  -28.3641  -25.4106   20.6680 C   0  0  0  0  0  0
  -30.6540  -21.4619   21.4033 N   0  0  0  0  0  0
  -30.2979  -19.1916   21.6505 N   0  0  0  0  0  0
  -30.1043  -15.3943   21.3571 N   0  0  0  0  0  0
  -31.4644  -12.4011   19.1253 H   0  0  0  0  0  0
  -30.3125  -11.2938   19.8168 H   0  0  0  0  0  0
  -29.7341  -11.7882   17.4249 H   0  0  0  0  0  0
  -29.6702  -13.4981   17.7777 H   0  0  0  0  0  0
  -27.8160  -11.3187   18.8003 H   0  0  0  0  0  0
  -27.3681  -12.6591   17.7810 H   0  0  0  0  0  0
  -27.7073  -14.2580   19.5866 H   0  0  0  0  0  0
  -28.6746  -11.9428   21.3320 H   0  0  0  0  0  0
  -28.4526  -13.5713   21.8803 H   0  0  0  0  0  0
  -25.2750   -9.5728   22.4760 H   0  0  0  0  0  0
  -24.0032   -7.4640   22.7463 H   0  0  0  0  0  0
  -21.0839   -8.8762   19.8938 H   0  0  0  0  0  0
  -22.3669  -10.9685   19.6168 H   0  0  0  0  0  0
  -21.1995   -7.6153   23.9734 H   0  0  0  0  0  0
  -21.1504   -6.0515   25.9091 H   0  0  0  0  0  0
  -22.0585   -2.7613   23.2817 H   0  0  0  0  0  0
  -22.4060  -11.9913   22.4834 H   0  0  0  0  0  0
  -21.1094  -13.1297   22.2580 H   0  0  0  0  0  0
  -24.6586  -15.8405   20.5319 H   0  0  0  0  0  0
  -26.2839  -15.6401   20.1127 H   0  0  0  0  0  0
  -26.7095  -32.5550   23.1141 H   0  0  0  0  0  0
  -25.0031  -33.9771   25.0462 H   0  0  0  0  0  0
  -22.6894  -31.3039   21.4038 H   0  0  0  0  0  0
  -23.3737  -35.9672   23.3288 H   0  0  0  0  0  0
  -24.3581  -36.8948   22.2051 H   0  0  0  0  0  0
  -23.7260  -37.6533   23.6655 H   0  0  0  0  0  0
  -26.0162  -31.6001   20.5689 H   0  0  0  0  0  0
  -26.8211  -30.9153   21.9536 H   0  0  0  0  0  0
  -28.1025  -29.1252   21.1540 H   0  0  0  0  0  0
  -26.0686  -25.9529   19.0505 H   0  0  0  0  0  0
  -23.9790  -27.2684   19.0669 H   0  0  0  0  0  0
  -23.7183  -30.5863   19.3980 H   0  0  0  0  0  0
  -22.7389  -29.2310   19.8671 H   0  0  0  0  0  0
  -25.1275  -36.1951   25.0831 H   0  0  0  0  0  0
  -20.9970  -28.3194   24.1442 H   0  0  0  0  0  0
  -20.5664  -26.2234   23.3605 H   0  0  0  0  0  0
  -21.6622  -26.7416   22.1210 H   0  0  0  0  0  0
  -19.6875  -25.6307   21.1216 H   0  0  0  0  0  0
  -19.6674  -27.3236   20.6791 H   0  0  0  0  0  0
  -17.4188  -26.6705   21.4032 H   0  0  0  0  0  0
  -18.0286  -26.0067   22.9026 H   0  0  0  0  0  0
  -19.7924  -30.7274   24.2271 H   0  0  0  0  0  0
  -17.4999  -31.6264   24.5175 H   0  0  0  0  0  0
  -15.5342  -30.2985   23.7647 H   0  0  0  0  0  0
  -15.8673  -28.0842   22.7022 H   0  0  0  0  0  0
  -24.5941  -30.6994   25.7832 H   0  0  0  0  0  0
  -24.8929  -32.2844   26.4896 H   0  0  0  0  0  0
  -25.8135  -30.8901   27.0225 H   0  0  0  0  0  0
  -26.2769  -29.6829   24.1085 H   0  0  0  0  0  0
  -27.4095  -29.7239   25.4412 H   0  0  0  0  0  0
  -27.8580  -30.4385   23.9076 H   0  0  0  0  0  0
  -27.2643  -33.3577   26.2078 H   0  0  0  0  0  0
  -28.3851  -32.6866   25.0308 H   0  0  0  0  0  0
  -28.0696  -31.8393   26.5381 H   0  0  0  0  0  0
  -28.2582  -38.0114   24.7512 H   0  0  0  0  0  0
  -28.1072  -36.2641   24.6264 H   0  0  0  0  0  0
  -27.2295  -37.1443   25.8865 H   0  0  0  0  0  0
  -20.9272  -29.8770   21.6997 H   0  0  0  0  0  0
  -26.0159  -38.2856   24.1450 H   0  0  0  0  0  0
  -27.3262  -22.0045   19.4841 H   0  0  0  0  0  0
  -27.9605  -19.7461   20.2882 H   0  0  0  0  0  0
  -32.3006  -23.3484   21.5521 H   0  0  0  0  0  0
  -31.0073  -24.4430   22.0206 H   0  0  0  0  0  0
  -31.5595  -24.3716   20.3393 H   0  0  0  0  0  0
  -28.0072  -24.2203   18.9057 H   0  0  0  0  0  0
  -29.6636  -24.6912   19.0909 H   0  0  0  0  0  0
  -28.7502  -17.7963   21.5294 H   0  0  0  0  0  0
  -29.7563  -17.8953   20.0943 H   0  0  0  0  0  0
  -30.7138  -16.7674   22.7891 H   0  0  0  0  0  0
  -31.6681  -16.8328   21.3375 H   0  0  0  0  0  0
  -27.3934  -25.1623   21.1000 H   0  0  0  0  0  0
  -29.0564  -25.4292   21.5064 H   0  0  0  0  0  0
  -31.1964  -19.1980   22.1204 H   0  0  0  0  0  0
  -29.2016  -15.1496   21.7375 H   0  0  0  0  0  0
  1 25  1  0  0  0
  1 30  2  0  0  0
  1 83  1  0  0  0
  2  3  1  0  0  0
  2 25  1  0  0  0
  2 84  1  0  0  0
  2 85  1  0  0  0
  3  4  1  0  0  0
  3 86  1  0  0  0
  3 87  1  0  0  0
  4  5  1  0  0  0
  4 88  1  0  0  0
  4 89  1  0  0  0
  5  6  1  0  0  0
  5 26  1  0  0  0
  5 90  1  0  0  0
  6 25  1  0  0  0
  6 91  1  0  0  0
  6 92  1  0  0  0
  7  8  2  0  0  0
  7 26  1  0  0  0
  7 29  1  0  0  0
  8  9  1  0  0  0
  8 22  1  0  0  0
  9 10  1  0  0  0
  9 27  2  0  0  0
 10 11  2  0  0  0
 10 15  1  0  0  0
 11 12  1  0  0  0
 11 93  1  0  0  0
 12 13  2  0  0  0
 12 94  1  0  0  0
 13 14  1  0  0  0
 13 31  1  0  0  0
 14 15  2  0  0  0
 14 95  1  0  0  0
 15 96  1  0  0  0
 16 17  2  0  0  0
 16 21  1  0  0  0
 16 31  1  0  0  0
 17 18  1  0  0  0
 17 97  1  0  0  0
 18 19  2  0  0  0
 18 98  1  0  0  0
 19 20  1  0  0  0
 19 24  1  0  0  0
 20 21  2  0  0  0
 20 99  1  0  0  0
 21 23  1  0  0  0
 22 28  1  0  0  0
 22 32  2  0  0  0
 26 27  1  0  0  0
 28100  1  0  0  0
 28101  1  0  0  0
 29102  1  0  0  0
 29103  1  0  0  0
 33 34  1  0  0  0
 33 66  1  0  0  0
 33 70  2  0  0  0
 34 36  1  0  0  0
 34 59  1  0  0  0
 34104  1  0  0  0
 35 44  2  0  0  0
 35 45  1  0  0  0
 35 68  1  0  0  0
 36 56  1  0  0  0
 36105  1  0  0  0
 37 39  1  0  0  0
 37 47  1  0  0  0
 37 66  1  0  0  0
 37106  1  0  0  0
 38 43  2  0  0  0
 38 46  1  0  0  0
 38 47  1  0  0  0
 39 64  1  0  0  0
 39 67  2  0  0  0
 40 52  1  0  0  0
 40 53  2  0  0  0
 40 58  1  0  0  0
 41107  1  0  0  0
 41108  1  0  0  0
 41109  1  0  0  0
 41 48  1  0  0  0
 42 43  1  0  0  0
 42 66  1  0  0  0
 42110  1  0  0  0
 42111  1  0  0  0
 43 44  1  0  0  0
 44112  1  0  0  0
 45 46  2  0  0  0
 45113  1  0  0  0
 46114  1  0  0  0
 47115  1  0  0  0
 47116  1  0  0  0
 48 56  1  0  0  0
 48 65  1  0  0  0
 48117  1  0  0  0
 49 50  1  0  0  0
 49 53  1  0  0  0
 49 64  1  0  0  0
 49118  1  0  0  0
 50 51  1  0  0  0
 50119  1  0  0  0
 50120  1  0  0  0
 51 52  1  0  0  0
 51121  1  0  0  0
 51122  1  0  0  0
 52123  1  0  0  0
 52124  1  0  0  0
 53 54  1  0  0  0
 54 55  2  0  0  0
 54125  1  0  0  0
 55 57  1  0  0  0
 55126  1  0  0  0
 56 69  2  0  0  0
 57 58  2  0  0  0
 57127  1  0  0  0
 58128  1  0  0  0
 59 60  1  0  0  0
 59 61  1  0  0  0
 59 62  1  0  0  0
 60129  1  0  0  0
 60130  1  0  0  0
 60131  1  0  0  0
 61132  1  0  0  0
 61133  1  0  0  0
 61134  1  0  0  0
 62135  1  0  0  0
 62136  1  0  0  0
 62137  1  0  0  0
 63 65  1  0  0  0
 63138  1  0  0  0
 63139  1  0  0  0
 63140  1  0  0  0
 64141  1  0  0  0
 65142  1  0  0  0
 68 80  1  0  0  0
 71 72  2  0  0  0
 71 73  1  0  0  0
 71143  1  0  0  0
 72 75  1  0  0  0
 72144  1  0  0  0
 73 74  2  0  0  0
 73 77  1  0  0  0
 74 76  1  0  0  0
 74 81  1  0  0  0
 75 81  2  0  0  0
 75 82  1  0  0  0
 76145  1  0  0  0
 76146  1  0  0  0
 76147  1  0  0  0
 77 80  1  0  0  0
 77148  1  0  0  0
 77149  1  0  0  0
 78 79  1  0  0  0
 78 82  1  0  0  0
 78150  1  0  0  0
 78151  1  0  0  0
 79 83  1  0  0  0
 79152  1  0  0  0
 79153  1  0  0  0
 80154  1  0  0  0
 80155  1  0  0  0
 82156  1  0  0  0
 83157  1  0  0  0
M  ISO  4   1 100  68 101  80 101  83 100
M  END
> <chiral flag>
0

> <version>
0

> <s_m_source_file>
/data/baiqing/PycharmProjects/Reinvent-master-3.2/result/LINK_invent/BTK/process_docking_weight1_custom_sum_contain_oxygen_bond_distance_aromatic_linkinvent_7_9_3/rearranged_h_0132.sdf

> <i_m_source_file_index>
81

> <r_mmod_Potential_Energy-OPLS-2005>
-392.798583984375

> <r_mmod_Stretch_Energy-OPLS-2005>
35.4339256286621

> <r_mmod_Bend_Energy-OPLS-2005>
104.803833007812

> <r_mmod_Torsional_Energy-OPLS-2005>
201.582672119141

> <r_mmod_Improper_Torsional_Energy-OPLS-2005>
3.021479845047

> <r_mmod_Van_der_Waal_Energy-OPLS-2005>
153.940765380859

> <r_mmod_Electrostatic_Energy-OPLS-2005>
-664.40283203125

> <r_mmod_Solvation_Energy-OPLS-2005>
-237.000686645508

> <b_mmod_Minimization_Converged-OPLS-2005>
0

> <r_mmod_RMS_Derivative-OPLS-2005>
2.3617992401123

$$$$
83
                    3D
 Structure written by MMmdl.
157165  0  0  1  0            999 V2000
  -30.5101  -15.0514   20.3865 C   0  0  0  0  0  0
  -30.4340  -12.6403   19.5486 C   0  0  0  0  0  0
  -29.5372  -12.5305   18.2921 C   0  0  0  0  0  0
  -28.0682  -12.3106   18.6992 C   0  0  0  0  0  0
  -27.6223  -13.2635   19.8370 C   0  0  2  0  0  0
  -28.6541  -13.3479   20.9819 C   0  0  0  0  0  0
  -25.2411  -13.8252   20.5747 C   0  0  0  0  0  0
  -24.1742  -13.0457   20.9268 C   0  0  0  0  0  0
  -24.6387  -11.6946   20.8787 C   0  0  0  0  0  0
  -23.9086  -10.4299   21.0447 C   0  0  0  0  0  0
  -24.3638   -9.4206   21.9218 C   0  0  0  0  0  0
  -23.6303   -8.2248   22.0773 C   0  0  0  0  0  0
  -22.4282   -8.0303   21.3557 C   0  0  0  0  0  0
  -21.9921   -9.0298   20.4679 C   0  0  0  0  0  0
  -22.7264  -10.2163   20.3090 C   0  0  0  0  0  0
  -21.6858   -6.0766   22.5288 C   0  0  0  0  0  0
  -21.4032   -6.5666   23.8224 C   0  0  0  0  0  0
  -21.3651   -5.6802   24.9184 C   0  0  0  0  0  0
  -21.6039   -4.3064   24.7225 C   0  0  0  0  0  0
  -21.8811   -3.8171   23.4339 C   0  0  0  0  0  0
  -21.9183   -4.6995   22.3402 C   0  0  0  0  0  0
  -22.7756  -13.5229   21.1874 C   0  0  0  0  0  0
  -22.1649   -4.2179   21.0972 F   0  0  0  0  0  0
  -21.5598   -3.4542   25.7738 F   0  0  0  0  0  0
  -29.9256  -13.7746   20.3842 N   0  0  0  0  0  0
  -26.2832  -12.9514   20.3240 N   0  0  0  0  0  0
  -25.9324  -11.6626   20.5760 N   0  0  0  0  0  0
  -22.0390  -12.8265   22.0442 N   0  0  0  0  0  0
  -25.4036  -15.1994   20.4170 N   0  0  0  0  0  0
  -31.7196  -15.0593   20.1180 O   0  0  0  0  0  0
  -21.6632   -6.8920   21.4249 O   0  0  0  0  0  0
  -22.3453  -14.5526   20.6682 O   0  0  0  0  0  0
  -24.6505  -31.8379   23.1807 C   0  0  0  0  0  0
  -25.9248  -32.4657   23.8218 C   0  0  1  0  0  0
  -27.2075  -27.0614   20.1773 C   0  0  0  0  0  0
  -25.5960  -33.8466   24.2135 N   0  0  0  0  0  0
  -23.4570  -30.4553   21.5282 C   0  0  2  0  0  0
  -24.9049  -28.8655   20.1140 C   0  0  0  0  0  0
  -22.7608  -29.4527   22.4836 C   0  0  0  0  0  0
  -18.0315  -28.1396   22.8471 C   0  0  0  0  0  0
  -24.1499  -36.7255   23.2638 C   0  0  0  0  0  0
  -26.0179  -30.6911   21.3887 C   0  0  0  0  0  0
  -26.0874  -29.2943   20.7317 C   0  0  0  0  0  0
  -27.2421  -28.4128   20.7352 C   0  0  0  0  0  0
  -26.0013  -26.7504   19.5149 C   0  0  0  0  0  0
  -24.8796  -27.6105   19.4851 C   0  0  0  0  0  0
  -23.6883  -29.7809   20.1501 C   0  0  0  0  0  0
  -25.4131  -36.3011   24.0305 C   0  0  1  0  0  0
  -20.5932  -28.3741   23.1219 C   0  0  2  0  0  0
  -20.6812  -26.9437   22.5406 C   0  0  0  0  0  0
  -19.5778  -26.6382   21.5218 C   0  0  0  0  0  0
  -18.1954  -26.7931   22.1620 C   0  0  0  0  0  0
  -19.1571  -28.8880   23.2833 C   0  0  0  0  0  0
  -18.9485  -30.1477   23.8861 C   0  0  0  0  0  0
  -17.6484  -30.6584   24.0556 C   0  0  0  0  0  0
  -25.9091  -34.9393   23.5033 C   0  0  0  0  0  0
  -16.5378  -29.9082   23.6330 C   0  0  0  0  0  0
  -16.7305  -28.6500   23.0352 C   0  0  0  0  0  0
  -26.4514  -31.6559   25.0708 C   0  0  0  0  0  0
  -25.3656  -31.3805   26.1387 C   0  0  0  0  0  0
  -27.0378  -30.2930   24.6367 C   0  0  0  0  0  0
  -27.6015  -32.4343   25.7511 C   0  0  0  0  0  0
  -27.5578  -37.1794   24.8456 C   0  0  0  0  0  0
  -21.4289  -29.3061   22.3588 N   0  0  0  0  0  0
  -26.4285  -37.3739   23.9404 N   0  0  0  0  0  0
  -24.7287  -31.0173   22.0871 N   0  0  0  0  0  0
  -23.4230  -28.8081   23.3002 O   0  0  0  0  0  0
  -28.2481  -26.0424   20.2060 O   0  0  0  0  0  0
  -26.5695  -34.8897   22.4630 O   0  0  0  0  0  0
  -23.5613  -32.1295   23.6976 O   0  0  0  0  0  0
  -31.0432  -19.1263   18.3845 C   0  0  0  0  0  0
  -30.8610  -17.9091   19.0492 C   0  0  0  0  0  0
  -30.3442  -20.3160   18.7152 C   0  0  0  0  0  0
  -29.9306  -17.7610   20.0816 C   0  0  0  0  0  0
  -29.4502  -20.3118   19.8380 C   0  0  0  0  0  0
  -29.4310  -21.5268   16.6916 C   0  0  0  0  0  0
  -31.9254  -21.5564   17.0405 C   0  0  0  0  0  0
  -28.8798  -23.1264   19.9062 C   0  0  0  0  0  0
  -28.0004  -24.4931   20.4807 C   0  0  0  0  0  0
  -30.5532  -21.5003   17.7466 C   0  0  0  0  0  0
  -29.2655  -19.0054   20.4437 N   0  0  0  0  0  0
  -29.7521  -16.2776   20.5474 N   0  0  0  0  0  0
  -28.7528  -21.5794   20.3033 N   0  0  0  0  0  0
  -31.4737  -12.7794   19.2522 H   0  0  0  0  0  0
  -30.4224  -11.7109   20.1209 H   0  0  0  0  0  0
  -29.8782  -11.7103   17.6594 H   0  0  0  0  0  0
  -29.6246  -13.4398   17.6944 H   0  0  0  0  0  0
  -27.9728  -11.2771   19.0352 H   0  0  0  0  0  0
  -27.4130  -12.4061   17.8336 H   0  0  0  0  0  0
  -27.5708  -14.2533   19.3816 H   0  0  0  0  0  0
  -28.7528  -12.3932   21.5013 H   0  0  0  0  0  0
  -28.3330  -14.0722   21.7318 H   0  0  0  0  0  0
  -25.2775   -9.5678   22.4806 H   0  0  0  0  0  0
  -24.0006   -7.4633   22.7489 H   0  0  0  0  0  0
  -21.0846   -8.8842   19.9005 H   0  0  0  0  0  0
  -22.3727  -10.9720   19.6212 H   0  0  0  0  0  0
  -21.2056   -7.6176   23.9746 H   0  0  0  0  0  0
  -21.1465   -6.0527   25.9081 H   0  0  0  0  0  0
  -22.0591   -2.7630   23.2818 H   0  0  0  0  0  0
  -22.3959  -11.9938   22.4894 H   0  0  0  0  0  0
  -21.1025  -13.1357   22.2646 H   0  0  0  0  0  0
  -24.6336  -15.8478   20.5475 H   0  0  0  0  0  0
  -26.2314  -15.6406   20.0376 H   0  0  0  0  0  0
  -26.7329  -32.5230   23.0956 H   0  0  0  0  0  0
  -25.0053  -33.9573   25.0244 H   0  0  0  0  0  0
  -22.7627  -31.2830   21.3683 H   0  0  0  0  0  0
  -23.3759  -35.9587   23.3280 H   0  0  0  0  0  0
  -24.3585  -36.8920   22.2054 H   0  0  0  0  0  0
  -23.7263  -37.6444   23.6704 H   0  0  0  0  0  0
  -26.1890  -31.4434   20.6169 H   0  0  0  0  0  0
  -26.8810  -30.7360   22.0409 H   0  0  0  0  0  0
  -28.1475  -28.7442   21.2235 H   0  0  0  0  0  0
  -25.9040  -25.7940   19.0214 H   0  0  0  0  0  0
  -23.9798  -27.2826   18.9814 H   0  0  0  0  0  0
  -23.8366  -30.5538   19.3941 H   0  0  0  0  0  0
  -22.7987  -29.2328   19.8333 H   0  0  0  0  0  0
  -25.1324  -36.1819   25.0795 H   0  0  0  0  0  0
  -21.0019  -28.3335   24.1343 H   0  0  0  0  0  0
  -20.5715  -26.2351   23.3635 H   0  0  0  0  0  0
  -21.6673  -26.7439   22.1195 H   0  0  0  0  0  0
  -19.6948  -25.6277   21.1281 H   0  0  0  0  0  0
  -19.6713  -27.3161   20.6711 H   0  0  0  0  0  0
  -17.4238  -26.6677   21.4017 H   0  0  0  0  0  0
  -18.0339  -26.0075   22.9004 H   0  0  0  0  0  0
  -19.7963  -30.7294   24.2225 H   0  0  0  0  0  0
  -17.5038  -31.6261   24.5159 H   0  0  0  0  0  0
  -15.5376  -30.2980   23.7660 H   0  0  0  0  0  0
  -15.8705  -28.0811   22.7092 H   0  0  0  0  0  0
  -24.5828  -30.7169   25.7705 H   0  0  0  0  0  0
  -24.8860  -32.3010   26.4716 H   0  0  0  0  0  0
  -25.7896  -30.9031   27.0229 H   0  0  0  0  0  0
  -26.3015  -29.6645   24.1351 H   0  0  0  0  0  0
  -27.3907  -29.7252   25.4983 H   0  0  0  0  0  0
  -27.8954  -30.4118   23.9747 H   0  0  0  0  0  0
  -27.2576  -33.3651   26.2032 H   0  0  0  0  0  0
  -28.3854  -32.6903   25.0374 H   0  0  0  0  0  0
  -28.0654  -31.8519   26.5485 H   0  0  0  0  0  0
  -28.2575  -38.0105   24.7488 H   0  0  0  0  0  0
  -28.1086  -36.2632   24.6282 H   0  0  0  0  0  0
  -27.2300  -37.1439   25.8858 H   0  0  0  0  0  0
  -20.9528  -29.8751   21.6733 H   0  0  0  0  0  0
  -26.0140  -38.2803   24.1394 H   0  0  0  0  0  0
  -31.7325  -19.0946   17.5562 H   0  0  0  0  0  0
  -31.4316  -17.0661   18.6875 H   0  0  0  0  0  0
  -29.3920  -20.5863   16.1403 H   0  0  0  0  0  0
  -28.4480  -21.6716   17.1411 H   0  0  0  0  0  0
  -29.5798  -22.3231   15.9625 H   0  0  0  0  0  0
  -32.7490  -21.5030   17.7528 H   0  0  0  0  0  0
  -32.0314  -22.5013   16.5077 H   0  0  0  0  0  0
  -32.0597  -20.7722   16.2939 H   0  0  0  0  0  0
  -29.9245  -23.3780   20.0734 H   0  0  0  0  0  0
  -28.7138  -23.1685   18.8317 H   0  0  0  0  0  0
  -28.0670  -24.4274   21.5690 H   0  0  0  0  0  0
  -26.9497  -24.2897   20.2771 H   0  0  0  0  0  0
  -30.5610  -22.4292   18.2960 H   0  0  0  0  0  0
  -28.8474  -16.1038   20.9570 H   0  0  0  0  0  0
  -28.1292  -21.4315   21.0898 H   0  0  0  0  0  0
  1 25  1  0  0  0
  1 30  2  0  0  0
  1 82  1  0  0  0
  2  3  1  0  0  0
  2 25  1  0  0  0
  2 84  1  0  0  0
  2 85  1  0  0  0
  3  4  1  0  0  0
  3 86  1  0  0  0
  3 87  1  0  0  0
  4  5  1  0  0  0
  4 88  1  0  0  0
  4 89  1  0  0  0
  5  6  1  0  0  0
  5 26  1  0  0  0
  5 90  1  0  0  0
  6 25  1  0  0  0
  6 91  1  0  0  0
  6 92  1  0  0  0
  7  8  2  0  0  0
  7 26  1  0  0  0
  7 29  1  0  0  0
  8  9  1  0  0  0
  8 22  1  0  0  0
  9 10  1  0  0  0
  9 27  2  0  0  0
 10 11  2  0  0  0
 10 15  1  0  0  0
 11 12  1  0  0  0
 11 93  1  0  0  0
 12 13  2  0  0  0
 12 94  1  0  0  0
 13 14  1  0  0  0
 13 31  1  0  0  0
 14 15  2  0  0  0
 14 95  1  0  0  0
 15 96  1  0  0  0
 16 17  2  0  0  0
 16 21  1  0  0  0
 16 31  1  0  0  0
 17 18  1  0  0  0
 17 97  1  0  0  0
 18 19  2  0  0  0
 18 98  1  0  0  0
 19 20  1  0  0  0
 19 24  1  0  0  0
 20 21  2  0  0  0
 20 99  1  0  0  0
 21 23  1  0  0  0
 22 28  1  0  0  0
 22 32  2  0  0  0
 26 27  1  0  0  0
 28100  1  0  0  0
 28101  1  0  0  0
 29102  1  0  0  0
 29103  1  0  0  0
 33 34  1  0  0  0
 33 66  1  0  0  0
 33 70  2  0  0  0
 34 36  1  0  0  0
 34 59  1  0  0  0
 34104  1  0  0  0
 35 44  2  0  0  0
 35 45  1  0  0  0
 35 68  1  0  0  0
 36 56  1  0  0  0
 36105  1  0  0  0
 37 39  1  0  0  0
 37 47  1  0  0  0
 37 66  1  0  0  0
 37106  1  0  0  0
 38 43  2  0  0  0
 38 46  1  0  0  0
 38 47  1  0  0  0
 39 64  1  0  0  0
 39 67  2  0  0  0
 40 52  1  0  0  0
 40 53  2  0  0  0
 40 58  1  0  0  0
 41107  1  0  0  0
 41108  1  0  0  0
 41109  1  0  0  0
 41 48  1  0  0  0
 42 43  1  0  0  0
 42 66  1  0  0  0
 42110  1  0  0  0
 42111  1  0  0  0
 43 44  1  0  0  0
 44112  1  0  0  0
 45 46  2  0  0  0
 45113  1  0  0  0
 46114  1  0  0  0
 47115  1  0  0  0
 47116  1  0  0  0
 48 56  1  0  0  0
 48 65  1  0  0  0
 48117  1  0  0  0
 49 50  1  0  0  0
 49 53  1  0  0  0
 49 64  1  0  0  0
 49118  1  0  0  0
 50 51  1  0  0  0
 50119  1  0  0  0
 50120  1  0  0  0
 51 52  1  0  0  0
 51121  1  0  0  0
 51122  1  0  0  0
 52123  1  0  0  0
 52124  1  0  0  0
 53 54  1  0  0  0
 54 55  2  0  0  0
 54125  1  0  0  0
 55 57  1  0  0  0
 55126  1  0  0  0
 56 69  2  0  0  0
 57 58  2  0  0  0
 57127  1  0  0  0
 58128  1  0  0  0
 59 60  1  0  0  0
 59 61  1  0  0  0
 59 62  1  0  0  0
 60129  1  0  0  0
 60130  1  0  0  0
 60131  1  0  0  0
 61132  1  0  0  0
 61133  1  0  0  0
 61134  1  0  0  0
 62135  1  0  0  0
 62136  1  0  0  0
 62137  1  0  0  0
 63 65  1  0  0  0
 63138  1  0  0  0
 63139  1  0  0  0
 63140  1  0  0  0
 64141  1  0  0  0
 65142  1  0  0  0
 68 79  1  0  0  0
 71 72  2  0  0  0
 71 73  1  0  0  0
 71143  1  0  0  0
 72 74  1  0  0  0
 72144  1  0  0  0
 73 75  2  0  0  0
 73 80  1  0  0  0
 74 81  2  0  0  0
 74 82  1  0  0  0
 75 81  1  0  0  0
 75 83  1  0  0  0
 76145  1  0  0  0
 76146  1  0  0  0
 76147  1  0  0  0
 76 80  1  0  0  0
 77 80  1  0  0  0
 77148  1  0  0  0
 77149  1  0  0  0
 77150  1  0  0  0
 78 79  1  0  0  0
 78 83  1  0  0  0
 78151  1  0  0  0
 78152  1  0  0  0
 79153  1  0  0  0
 79154  1  0  0  0
 80155  1  0  0  0
 82156  1  0  0  0
 83157  1  0  0  0
M  ISO  4   1 100  68 101  79 101  82 100
M  END
> <chiral flag>
0

> <version>
0

> <s_m_source_file>
/data/baiqing/PycharmProjects/Reinvent-master-3.2/result/LINK_invent/BTK/process_docking_weight1_custom_sum_contain_oxygen_bond_distance_aromatic_linkinvent_7_9_3/rearranged_h_0132.sdf

> <i_m_source_file_index>
82

> <r_mmod_Potential_Energy-OPLS-2005>
530.953308105469

> <r_mmod_Stretch_Energy-OPLS-2005>
357.689605712891

> <r_mmod_Bend_Energy-OPLS-2005>
326.13623046875

> <r_mmod_Torsional_Energy-OPLS-2005>
226.696868896484

> <r_mmod_Improper_Torsional_Energy-OPLS-2005>
3.70602679252625

> <r_mmod_Van_der_Waal_Energy-OPLS-2005>
148.81950378418

> <r_mmod_Electrostatic_Energy-OPLS-2005>
-563.404357910156

> <r_mmod_Solvation_Energy-OPLS-2005>
-233.865264892578

> <b_mmod_Minimization_Converged-OPLS-2005>
0

> <r_mmod_RMS_Derivative-OPLS-2005>
3.36934471130371

$$$$
84
                    3D
 Structure written by MMmdl.
168176  0  0  1  0            999 V2000
  -30.7430  -14.4970   20.5710 C   0  0  0  0  0  0
  -30.4037  -12.3308   19.4366 C   0  0  0  0  0  0
  -29.4940  -12.5229   18.2121 C   0  0  0  0  0  0
  -28.0191  -12.3546   18.6241 C   0  0  0  0  0  0
  -27.6509  -13.2197   19.8630 C   0  0  2  0  0  0
  -28.6913  -13.0682   20.9894 C   0  0  0  0  0  0
  -25.2545  -13.8204   20.5711 C   0  0  0  0  0  0
  -24.1838  -13.0493   20.9218 C   0  0  0  0  0  0
  -24.6393  -11.6933   20.8742 C   0  0  0  0  0  0
  -23.9075  -10.4323   21.0431 C   0  0  0  0  0  0
  -24.3635   -9.4234   21.9184 C   0  0  0  0  0  0
  -23.6314   -8.2267   22.0757 C   0  0  0  0  0  0
  -22.4287   -8.0319   21.3596 C   0  0  0  0  0  0
  -21.9939   -9.0273   20.4680 C   0  0  0  0  0  0
  -22.7268  -10.2144   20.3093 C   0  0  0  0  0  0
  -21.6859   -6.0767   22.5298 C   0  0  0  0  0  0
  -21.4014   -6.5648   23.8221 C   0  0  0  0  0  0
  -21.3660   -5.6813   24.9188 C   0  0  0  0  0  0
  -21.6038   -4.3071   24.7244 C   0  0  0  0  0  0
  -21.8809   -3.8174   23.4365 C   0  0  0  0  0  0
  -21.9181   -4.6986   22.3407 C   0  0  0  0  0  0
  -22.7863  -13.5301   21.1903 C   0  0  0  0  0  0
  -22.1667   -4.2150   21.1000 F   0  0  0  0  0  0
  -21.5610   -3.4559   25.7768 F   0  0  0  0  0  0
  -30.0154  -13.3535   20.4192 N   0  0  0  0  0  0
  -26.2980  -12.9385   20.3326 N   0  0  0  0  0  0
  -25.9320  -11.6532   20.5752 N   0  0  0  0  0  0
  -22.0486  -12.8252   22.0410 N   0  0  0  0  0  0
  -25.4289  -15.1918   20.4157 N   0  0  0  0  0  0
  -31.8921  -14.5921   20.1429 O   0  0  0  0  0  0
  -21.6663   -6.8914   21.4274 O   0  0  0  0  0  0
  -22.3527  -14.5610   20.6763 O   0  0  0  0  0  0
  -24.6125  -31.8640   23.2102 C   0  0  0  0  0  0
  -25.9034  -32.4806   23.8398 C   0  0  1  0  0  0
  -27.2251  -27.4372   20.1170 C   0  0  0  0  0  0
  -25.5922  -33.8607   24.2344 N   0  0  0  0  0  0
  -23.4046  -30.4904   21.5420 C   0  0  2  0  0  0
  -24.8558  -28.9634   20.1050 C   0  0  0  0  0  0
  -22.7422  -29.4675   22.4928 C   0  0  0  0  0  0
  -18.0352  -28.1371   22.8415 C   0  0  0  0  0  0
  -24.1514  -36.7312   23.2633 C   0  0  0  0  0  0
  -25.9295  -30.8430   21.3604 C   0  0  0  0  0  0
  -26.0128  -29.4787   20.7046 C   0  0  0  0  0  0
  -27.2064  -28.7201   20.7072 C   0  0  0  0  0  0
  -26.0645  -26.9506   19.4886 C   0  0  0  0  0  0
  -24.8757  -27.7004   19.4910 C   0  0  0  0  0  0
  -23.6157  -29.8254   20.1550 C   0  0  0  0  0  0
  -25.4112  -36.3061   24.0332 C   0  0  1  0  0  0
  -20.5906  -28.3726   23.1348 C   0  0  2  0  0  0
  -20.6841  -26.9479   22.5432 C   0  0  0  0  0  0
  -19.5908  -26.6575   21.5110 C   0  0  0  0  0  0
  -18.2047  -26.7998   22.1399 C   0  0  0  0  0  0
  -19.1562  -28.8849   23.2906 C   0  0  0  0  0  0
  -18.9379  -30.1449   23.8877 C   0  0  0  0  0  0
  -17.6365  -30.6545   24.0452 C   0  0  0  0  0  0
  -25.9031  -34.9435   23.5122 C   0  0  0  0  0  0
  -16.5313  -29.8971   23.6205 C   0  0  0  0  0  0
  -16.7321  -28.6413   23.0245 C   0  0  0  0  0  0
  -26.4491  -31.6566   25.0713 C   0  0  0  0  0  0
  -25.3850  -31.3635   26.1522 C   0  0  0  0  0  0
  -27.0325  -30.3017   24.6090 C   0  0  0  0  0  0
  -27.6087  -32.4246   25.7475 C   0  0  0  0  0  0
  -27.5563  -37.1796   24.8439 C   0  0  0  0  0  0
  -21.4145  -29.3127   22.3759 N   0  0  0  0  0  0
  -26.4288  -37.3733   23.9371 N   0  0  0  0  0  0
  -24.6669  -31.0782   22.0951 N   0  0  0  0  0  0
  -23.4196  -28.8234   23.2988 O   0  0  0  0  0  0
  -28.3480  -26.6456   20.1744 O   0  0  0  0  0  0
  -26.5537  -34.8882   22.4628 O   0  0  0  0  0  0
  -23.5320  -32.1302   23.7536 O   0  0  0  0  0  0
  -27.9349  -18.5389   21.3306 C   0  0  0  0  0  0
  -29.3855  -18.8120   19.4227 C   0  0  0  0  0  0
  -28.3748  -19.3395   20.2583 C   0  0  0  0  0  0
  -28.5193  -17.2768   21.5981 C   0  0  0  0  0  0
  -29.9692  -17.5343   19.6433 C   0  0  0  0  0  0
  -29.5503  -16.7420   20.7705 C   0  0  0  0  0  0
  -28.0008  -16.5066   22.8055 C   0  0  0  0  0  0
  -33.0053  -18.7352   18.3355 C   0  0  0  0  0  0
  -27.7113  -20.6996   19.9425 C   0  0  0  0  0  0
  -31.0175  -17.1032   18.6146 C   0  0  0  0  0  0
  -32.4761  -17.4461   18.9999 C   0  0  0  0  0  0
  -27.5696  -21.7305   21.1088 C   0  0  0  0  0  0
  -27.7271  -24.2040   20.4392 C   0  0  0  0  0  0
  -28.2384  -25.5288   21.0848 C   0  0  0  0  0  0
  -30.1843  -15.5268   21.2394 N   0  0  0  0  0  0
  -28.3932  -22.9734   20.9899 N   0  3  0  0  0  0
  -31.4554  -12.3904   19.1547 H   0  0  0  0  0  0
  -30.2722  -11.3320   19.8525 H   0  0  0  0  0  0
  -29.7560  -11.8113   17.4295 H   0  0  0  0  0  0
  -29.6552  -13.5152   17.7842 H   0  0  0  0  0  0
  -27.8579  -11.2987   18.8457 H   0  0  0  0  0  0
  -27.3691  -12.5860   17.7817 H   0  0  0  0  0  0
  -27.6729  -14.2598   19.5298 H   0  0  0  0  0  0
  -28.6703  -12.0561   21.3970 H   0  0  0  0  0  0
  -28.4504  -13.7206   21.8284 H   0  0  0  0  0  0
  -25.2790   -9.5663   22.4751 H   0  0  0  0  0  0
  -23.9985   -7.4651   22.7487 H   0  0  0  0  0  0
  -21.0859   -8.8842   19.8989 H   0  0  0  0  0  0
  -22.3770  -10.9680   19.6187 H   0  0  0  0  0  0
  -21.2028   -7.6146   23.9735 H   0  0  0  0  0  0
  -21.1489   -6.0537   25.9075 H   0  0  0  0  0  0
  -22.0585   -2.7623   23.2869 H   0  0  0  0  0  0
  -22.4103  -11.9862   22.4676 H   0  0  0  0  0  0
  -21.1131  -13.1311   22.2722 H   0  0  0  0  0  0
  -24.6799  -15.8588   20.5667 H   0  0  0  0  0  0
  -26.3062  -15.6274   20.1610 H   0  0  0  0  0  0
  -26.7150  -32.5562   23.1206 H   0  0  0  0  0  0
  -25.0202  -33.9725   25.0597 H   0  0  0  0  0  0
  -22.6871  -31.3013   21.4026 H   0  0  0  0  0  0
  -23.3742  -35.9678   23.3297 H   0  0  0  0  0  0
  -24.3644  -36.8920   22.2047 H   0  0  0  0  0  0
  -23.7326  -37.6555   23.6641 H   0  0  0  0  0  0
  -26.0318  -31.6182   20.6012 H   0  0  0  0  0  0
  -26.8194  -30.8939   21.9787 H   0  0  0  0  0  0
  -28.1011  -29.0960   21.1846 H   0  0  0  0  0  0
  -26.0733  -25.9848   19.0136 H   0  0  0  0  0  0
  -23.9907  -27.2990   19.0163 H   0  0  0  0  0  0
  -23.7123  -30.5993   19.3883 H   0  0  0  0  0  0
  -22.7471  -29.2322   19.8708 H   0  0  0  0  0  0
  -25.1290  -36.1892   25.0830 H   0  0  0  0  0  0
  -20.9927  -28.3294   24.1495 H   0  0  0  0  0  0
  -20.5610  -26.2329   23.3584 H   0  0  0  0  0  0
  -21.6769  -26.7563   22.1339 H   0  0  0  0  0  0
  -19.7135  -25.6582   21.0973 H   0  0  0  0  0  0
  -19.6889  -27.3545   20.6784 H   0  0  0  0  0  0
  -17.4401  -26.6870   21.3658 H   0  0  0  0  0  0
  -18.0375  -26.0012   22.8639 H   0  0  0  0  0  0
  -19.7821  -30.7329   24.2267 H   0  0  0  0  0  0
  -17.4862  -31.6238   24.4955 H   0  0  0  0  0  0
  -15.5309  -30.2829   23.7393 H   0  0  0  0  0  0
  -15.8801  -28.0664   22.6922 H   0  0  0  0  0  0
  -24.6040  -30.6928   25.7931 H   0  0  0  0  0  0
  -24.9058  -32.2791   26.4987 H   0  0  0  0  0  0
  -25.8313  -30.8847   27.0260 H   0  0  0  0  0  0
  -26.2896  -29.6762   24.1159 H   0  0  0  0  0  0
  -27.4129  -29.7206   25.4494 H   0  0  0  0  0  0
  -27.8686  -30.4317   23.9230 H   0  0  0  0  0  0
  -27.2749  -33.3531   26.2093 H   0  0  0  0  0  0
  -28.3918  -32.6810   25.0338 H   0  0  0  0  0  0
  -28.0758  -31.8360   26.5374 H   0  0  0  0  0  0
  -28.2547  -38.0108   24.7436 H   0  0  0  0  0  0
  -28.1088  -36.2629   24.6326 H   0  0  0  0  0  0
  -27.2269  -37.1518   25.8838 H   0  0  0  0  0  0
  -20.9259  -29.8754   21.6959 H   0  0  0  0  0  0
  -26.0170  -38.2805   24.1390 H   0  0  0  0  0  0
  -27.1352  -18.8992   21.9627 H   0  0  0  0  0  0
  -29.7199  -19.3982   18.5802 H   0  0  0  0  0  0
  -27.3459  -15.6992   22.4812 H   0  0  0  0  0  0
  -27.4299  -17.1526   23.4733 H   0  0  0  0  0  0
  -28.8144  -16.0774   23.3901 H   0  0  0  0  0  0
  -33.9733  -19.0231   18.7481 H   0  0  0  0  0  0
  -32.3236  -19.5709   18.4847 H   0  0  0  0  0  0
  -33.1381  -18.6075   17.2564 H   0  0  0  0  0  0
  -26.7038  -20.4571   19.6032 H   0  0  0  0  0  0
  -28.1834  -21.1679   19.0811 H   0  0  0  0  0  0
  -30.7946  -17.5906   17.6665 H   0  0  0  0  0  0
  -30.8948  -16.0476   18.3813 H   0  0  0  0  0  0
  -32.5765  -17.5061   20.0859 H   0  0  0  0  0  0
  -33.1308  -16.6262   18.6870 H   0  0  0  0  0  0
  -27.8137  -21.2466   22.0549 H   0  0  0  0  0  0
  -26.5222  -22.0151   21.2177 H   0  0  0  0  0  0
  -27.8951  -24.2319   19.3600 H   0  0  0  0  0  0
  -26.6478  -24.1678   20.5932 H   0  0  0  0  0  0
  -29.2175  -25.3773   21.5336 H   0  0  0  0  0  0
  -27.5986  -25.7958   21.9319 H   0  0  0  0  0  0
  -30.7802  -15.7490   22.0244 H   0  0  0  0  0  0
  -28.6863  -23.1867   21.9290 H   0  0  0  0  0  0
  -29.2380  -22.7776   20.4747 H   0  0  0  0  0  0
  1 25  1  0  0  0
  1 30  2  0  0  0
  1 85  1  0  0  0
  2  3  1  0  0  0
  2 25  1  0  0  0
  2 87  1  0  0  0
  2 88  1  0  0  0
  3  4  1  0  0  0
  3 89  1  0  0  0
  3 90  1  0  0  0
  4  5  1  0  0  0
  4 91  1  0  0  0
  4 92  1  0  0  0
  5  6  1  0  0  0
  5 26  1  0  0  0
  5 93  1  0  0  0
  6 25  1  0  0  0
  6 94  1  0  0  0
  6 95  1  0  0  0
  7  8  2  0  0  0
  7 26  1  0  0  0
  7 29  1  0  0  0
  8  9  1  0  0  0
  8 22  1  0  0  0
  9 10  1  0  0  0
  9 27  2  0  0  0
 10 11  2  0  0  0
 10 15  1  0  0  0
 11 12  1  0  0  0
 11 96  1  0  0  0
 12 13  2  0  0  0
 12 97  1  0  0  0
 13 14  1  0  0  0
 13 31  1  0  0  0
 14 15  2  0  0  0
 14 98  1  0  0  0
 15 99  1  0  0  0
 16 17  2  0  0  0
 16 21  1  0  0  0
 16 31  1  0  0  0
 17 18  1  0  0  0
 17100  1  0  0  0
 18 19  2  0  0  0
 18101  1  0  0  0
 19 20  1  0  0  0
 19 24  1  0  0  0
 20 21  2  0  0  0
 20102  1  0  0  0
 21 23  1  0  0  0
 22 28  1  0  0  0
 22 32  2  0  0  0
 26 27  1  0  0  0
 28103  1  0  0  0
 28104  1  0  0  0
 29105  1  0  0  0
 29106  1  0  0  0
 33 34  1  0  0  0
 33 66  1  0  0  0
 33 70  2  0  0  0
 34 36  1  0  0  0
 34 59  1  0  0  0
 34107  1  0  0  0
 35 44  2  0  0  0
 35 45  1  0  0  0
 35 68  1  0  0  0
 36 56  1  0  0  0
 36108  1  0  0  0
 37 39  1  0  0  0
 37 47  1  0  0  0
 37 66  1  0  0  0
 37109  1  0  0  0
 38 43  2  0  0  0
 38 46  1  0  0  0
 38 47  1  0  0  0
 39 64  1  0  0  0
 39 67  2  0  0  0
 40 52  1  0  0  0
 40 53  2  0  0  0
 40 58  1  0  0  0
 41110  1  0  0  0
 41111  1  0  0  0
 41112  1  0  0  0
 41 48  1  0  0  0
 42 43  1  0  0  0
 42 66  1  0  0  0
 42113  1  0  0  0
 42114  1  0  0  0
 43 44  1  0  0  0
 44115  1  0  0  0
 45 46  2  0  0  0
 45116  1  0  0  0
 46117  1  0  0  0
 47118  1  0  0  0
 47119  1  0  0  0
 48 56  1  0  0  0
 48 65  1  0  0  0
 48120  1  0  0  0
 49 50  1  0  0  0
 49 53  1  0  0  0
 49 64  1  0  0  0
 49121  1  0  0  0
 50 51  1  0  0  0
 50122  1  0  0  0
 50123  1  0  0  0
 51 52  1  0  0  0
 51124  1  0  0  0
 51125  1  0  0  0
 52126  1  0  0  0
 52127  1  0  0  0
 53 54  1  0  0  0
 54 55  2  0  0  0
 54128  1  0  0  0
 55 57  1  0  0  0
 55129  1  0  0  0
 56 69  2  0  0  0
 57 58  2  0  0  0
 57130  1  0  0  0
 58131  1  0  0  0
 59 60  1  0  0  0
 59 61  1  0  0  0
 59 62  1  0  0  0
 60132  1  0  0  0
 60133  1  0  0  0
 60134  1  0  0  0
 61135  1  0  0  0
 61136  1  0  0  0
 61137  1  0  0  0
 62138  1  0  0  0
 62139  1  0  0  0
 62140  1  0  0  0
 63 65  1  0  0  0
 63141  1  0  0  0
 63142  1  0  0  0
 63143  1  0  0  0
 64144  1  0  0  0
 65145  1  0  0  0
 68 84  1  0  0  0
 71 73  2  0  0  0
 71 74  1  0  0  0
 71146  1  0  0  0
 72 73  1  0  0  0
 72 75  2  0  0  0
 72147  1  0  0  0
 73 79  1  0  0  0
 74 76  2  0  0  0
 74 77  1  0  0  0
 75 76  1  0  0  0
 75 80  1  0  0  0
 76 85  1  0  0  0
 77148  1  0  0  0
 77149  1  0  0  0
 77150  1  0  0  0
 78 81  1  0  0  0
 78151  1  0  0  0
 78152  1  0  0  0
 78153  1  0  0  0
 79 82  1  0  0  0
 79154  1  0  0  0
 79155  1  0  0  0
 80 81  1  0  0  0
 80156  1  0  0  0
 80157  1  0  0  0
 81158  1  0  0  0
 81159  1  0  0  0
 82 86  1  0  0  0
 82160  1  0  0  0
 82161  1  0  0  0
 83 84  1  0  0  0
 83 86  1  0  0  0
 83162  1  0  0  0
 83163  1  0  0  0
 84164  1  0  0  0
 84165  1  0  0  0
 85166  1  0  0  0
 86167  1  0  0  0
 86168  1  0  0  0
M  CHG  1  86   1
M  ISO  4   1 100  68 101  84 101  85 100
M  END
> <chiral flag>
0

> <version>
0

> <s_m_source_file>
/data/baiqing/PycharmProjects/Reinvent-master-3.2/result/LINK_invent/BTK/process_docking_weight1_custom_sum_contain_oxygen_bond_distance_aromatic_linkinvent_7_9_3/rearranged_h_0132.sdf

> <i_m_source_file_index>
83

> <r_mmod_Potential_Energy-OPLS-2005>
-41.6069984436035

> <r_mmod_Stretch_Energy-OPLS-2005>
48.0299072265625

> <r_mmod_Bend_Energy-OPLS-2005>
132.958068847656

> <r_mmod_Torsional_Energy-OPLS-2005>
353.603302001953

> <r_mmod_Improper_Torsional_Energy-OPLS-2005>
6.02275514602661

> <r_mmod_Van_der_Waal_Energy-OPLS-2005>
139.34651184082

> <r_mmod_Electrostatic_Energy-OPLS-2005>
-305.805847167969

> <r_mmod_Solvation_Energy-OPLS-2005>
-436.812683105469

> <b_mmod_Minimization_Converged-OPLS-2005>
0

> <r_mmod_RMS_Derivative-OPLS-2005>
7.05311632156372

$$$$
85
                    3D
 Structure written by MMmdl.
172181  0  0  1  0            999 V2000
  -30.6360  -14.6304   20.4890 C   0  0  0  0  0  0
  -30.4291  -12.3818   19.4636 C   0  0  0  0  0  0
  -29.5079  -12.4955   18.2289 C   0  0  0  0  0  0
  -28.0284  -12.3437   18.6361 C   0  0  0  0  0  0
  -27.6507  -13.2189   19.8617 C   0  0  2  0  0  0
  -28.6921  -13.0892   20.9964 C   0  0  0  0  0  0
  -25.2538  -13.8182   20.5688 C   0  0  0  0  0  0
  -24.1810  -13.0439   20.9212 C   0  0  0  0  0  0
  -24.6378  -11.6917   20.8749 C   0  0  0  0  0  0
  -23.9048  -10.4300   21.0407 C   0  0  0  0  0  0
  -24.3610   -9.4212   21.9178 C   0  0  0  0  0  0
  -23.6294   -8.2247   22.0745 C   0  0  0  0  0  0
  -22.4273   -8.0281   21.3538 C   0  0  0  0  0  0
  -21.9902   -9.0249   20.4642 C   0  0  0  0  0  0
  -22.7227  -10.2135   20.3053 C   0  0  0  0  0  0
  -21.6853   -6.0735   22.5280 C   0  0  0  0  0  0
  -21.4012   -6.5637   23.8214 C   0  0  0  0  0  0
  -21.3664   -5.6793   24.9170 C   0  0  0  0  0  0
  -21.6049   -4.3055   24.7222 C   0  0  0  0  0  0
  -21.8815   -3.8149   23.4344 C   0  0  0  0  0  0
  -21.9189   -4.6967   22.3399 C   0  0  0  0  0  0
  -22.7832  -13.5239   21.1866 C   0  0  0  0  0  0
  -22.1658   -4.2151   21.0979 F   0  0  0  0  0  0
  -21.5633   -3.4540   25.7736 F   0  0  0  0  0  0
  -30.0081  -13.4150   20.4309 N   0  0  0  0  0  0
  -26.2966  -12.9363   20.3306 N   0  0  0  0  0  0
  -25.9304  -11.6522   20.5752 N   0  0  0  0  0  0
  -22.0458  -12.8238   22.0412 N   0  0  0  0  0  0
  -25.4250  -15.1896   20.4113 N   0  0  0  0  0  0
  -31.7986  -14.7719   20.1017 O   0  0  0  0  0  0
  -21.6643   -6.8876   21.4239 O   0  0  0  0  0  0
  -22.3533  -14.5553   20.6724 O   0  0  0  0  0  0
  -24.6247  -31.8591   23.2023 C   0  0  0  0  0  0
  -25.9100  -32.4768   23.8355 C   0  0  1  0  0  0
  -27.2359  -27.3349   20.1287 C   0  0  0  0  0  0
  -25.5924  -33.8571   24.2291 N   0  0  0  0  0  0
  -23.4195  -30.4788   21.5429 C   0  0  2  0  0  0
  -24.8687  -28.9254   20.1184 C   0  0  0  0  0  0
  -22.7461  -29.4625   22.4951 C   0  0  0  0  0  0
  -18.0273  -28.1411   22.8488 C   0  0  0  0  0  0
  -24.1480  -36.7296   23.2639 C   0  0  0  0  0  0
  -25.9550  -30.7948   21.3692 C   0  0  0  0  0  0
  -26.0321  -29.4171   20.7246 C   0  0  0  0  0  0
  -27.2182  -28.6313   20.7228 C   0  0  0  0  0  0
  -26.0538  -26.8796   19.5082 C   0  0  0  0  0  0
  -24.8786  -27.6588   19.5059 C   0  0  0  0  0  0
  -23.6366  -29.8060   20.1603 C   0  0  0  0  0  0
  -25.4105  -36.3087   24.0335 C   0  0  1  0  0  0
  -20.5871  -28.3713   23.1289 C   0  0  2  0  0  0
  -20.6771  -26.9435   22.5422 C   0  0  0  0  0  0
  -19.5752  -26.6409   21.5216 C   0  0  0  0  0  0
  -18.1927  -26.7951   22.1623 C   0  0  0  0  0  0
  -19.1527  -28.8875   23.2880 C   0  0  0  0  0  0
  -18.9459  -30.1477   23.8895 C   0  0  0  0  0  0
  -17.6464  -30.6605   24.0574 C   0  0  0  0  0  0
  -25.9042  -34.9451   23.5112 C   0  0  0  0  0  0
  -16.5352  -29.9117   23.6334 C   0  0  0  0  0  0
  -16.7263  -28.6541   23.0338 C   0  0  0  0  0  0
  -26.4495  -31.6570   25.0718 C   0  0  0  0  0  0
  -25.3746  -31.3707   26.1458 C   0  0  0  0  0  0
  -27.0331  -30.3000   24.6154 C   0  0  0  0  0  0
  -27.6049  -32.4307   25.7490 C   0  0  0  0  0  0
  -27.5569  -37.1809   24.8471 C   0  0  0  0  0  0
  -21.4174  -29.3055   22.3679 N   0  0  0  0  0  0
  -26.4290  -37.3784   23.9407 N   0  0  0  0  0  0
  -24.6847  -31.0622   22.0956 N   0  0  0  0  0  0
  -23.4174  -28.8170   23.3045 O   0  0  0  0  0  0
  -28.3865  -26.5448   20.0960 O   0  0  0  0  0  0
  -26.5612  -34.8920   22.4678 O   0  0  0  0  0  0
  -23.5412  -32.1385   23.7359 O   0  0  0  0  0  0
  -29.1909  -22.8504   19.8807 C   0  0  0  0  0  0
  -29.1004  -24.2396   19.5628 C   0  0  0  0  0  0
  -27.7562  -24.6046   21.5070 C   0  0  0  0  0  0
  -27.8440  -23.2193   21.8634 C   0  0  0  0  0  0
  -28.5802  -22.2914   21.0381 C   0  0  0  0  0  0
  -28.3807  -25.1596   20.3685 C   0  0  0  0  0  0
  -25.6447  -22.3814   22.9688 C   0  0  0  0  0  0
  -25.2504  -21.7475   24.3160 C   0  0  0  0  0  0
  -27.6703  -21.9126   24.2139 C   0  0  0  0  0  0
  -27.0835  -22.8645   23.1608 C   0  0  1  0  0  0
  -26.5119  -21.7590   25.2088 C   0  0  2  0  0  0
  -28.7314  -20.7656   21.4266 C   0  0  0  0  0  0
  -26.6436  -20.5257   26.1283 C   0  0  0  0  0  0
  -30.1144  -17.1516   20.3517 C   0  0  0  0  0  0
  -29.2627  -18.2907   21.0704 C   0  0  0  0  0  0
  -29.8535  -15.7214   20.7586 N   0  0  0  0  0  0
  -25.6386  -20.5322   27.2027 N   0  3  0  0  0  0
  -29.3727  -19.7168   20.5441 N   0  3  0  0  0  0
  -31.4740  -12.4915   19.1654 H   0  0  0  0  0  0
  -30.3492  -11.3907   19.9138 H   0  0  0  0  0  0
  -29.7728  -11.7380   17.4895 H   0  0  0  0  0  0
  -29.6566  -13.4602   17.7417 H   0  0  0  0  0  0
  -27.8569  -11.2919   18.8665 H   0  0  0  0  0  0
  -27.3792  -12.5783   17.7926 H   0  0  0  0  0  0
  -27.6637  -14.2520   19.5137 H   0  0  0  0  0  0
  -28.6952  -12.0757   21.4015 H   0  0  0  0  0  0
  -28.4405  -13.7453   21.8311 H   0  0  0  0  0  0
  -25.2746   -9.5713   22.4750 H   0  0  0  0  0  0
  -24.0013   -7.4645   22.7462 H   0  0  0  0  0  0
  -21.0834   -8.8779   19.8943 H   0  0  0  0  0  0
  -22.3684  -10.9677   19.6174 H   0  0  0  0  0  0
  -21.2006   -7.6147   23.9719 H   0  0  0  0  0  0
  -21.1488   -6.0517   25.9076 H   0  0  0  0  0  0
  -22.0590   -2.7612   23.2841 H   0  0  0  0  0  0
  -22.4066  -11.9913   22.4843 H   0  0  0  0  0  0
  -21.1059  -13.1260   22.2566 H   0  0  0  0  0  0
  -24.6564  -15.8424   20.5190 H   0  0  0  0  0  0
  -26.2640  -15.6224   20.0473 H   0  0  0  0  0  0
  -26.7158  -32.5464   23.1092 H   0  0  0  0  0  0
  -25.0078  -33.9715   25.0441 H   0  0  0  0  0  0
  -22.7139  -31.2981   21.3946 H   0  0  0  0  0  0
  -23.3738  -35.9631   23.3320 H   0  0  0  0  0  0
  -24.3564  -36.8897   22.2050 H   0  0  0  0  0  0
  -23.7241  -37.6509   23.6644 H   0  0  0  0  0  0
  -26.0767  -31.5509   20.5919 H   0  0  0  0  0  0
  -26.8378  -30.8541   21.9938 H   0  0  0  0  0  0
  -28.1203  -29.0101   21.1837 H   0  0  0  0  0  0
  -26.0418  -25.9100   19.0284 H   0  0  0  0  0  0
  -23.9882  -27.2758   19.0265 H   0  0  0  0  0  0
  -23.7584  -30.5774   19.3996 H   0  0  0  0  0  0
  -22.7581  -29.2338   19.8591 H   0  0  0  0  0  0
  -25.1279  -36.1940   25.0831 H   0  0  0  0  0  0
  -20.9952  -28.3299   24.1414 H   0  0  0  0  0  0
  -20.5682  -26.2323   23.3625 H   0  0  0  0  0  0
  -21.6644  -26.7480   22.1209 H   0  0  0  0  0  0
  -19.6919  -25.6320   21.1248 H   0  0  0  0  0  0
  -19.6693  -27.3214   20.6740 H   0  0  0  0  0  0
  -17.4198  -26.6687   21.4026 H   0  0  0  0  0  0
  -18.0329  -26.0097   22.9027 H   0  0  0  0  0  0
  -19.7938  -30.7292   24.2263 H   0  0  0  0  0  0
  -17.5023  -31.6273   24.5196 H   0  0  0  0  0  0
  -15.5358  -30.3020   23.7672 H   0  0  0  0  0  0
  -15.8659  -28.0873   22.7041 H   0  0  0  0  0  0
  -24.5926  -30.7037   25.7817 H   0  0  0  0  0  0
  -24.8932  -32.2870   26.4887 H   0  0  0  0  0  0
  -25.8098  -30.8909   27.0232 H   0  0  0  0  0  0
  -26.2902  -29.6752   24.1188 H   0  0  0  0  0  0
  -27.4045  -29.7252   25.4646 H   0  0  0  0  0  0
  -27.8755  -30.4285   23.9352 H   0  0  0  0  0  0
  -27.2650  -33.3609   26.2045 H   0  0  0  0  0  0
  -28.3865  -32.6856   25.0325 H   0  0  0  0  0  0
  -28.0690  -31.8447   26.5425 H   0  0  0  0  0  0
  -28.2607  -38.0085   24.7490 H   0  0  0  0  0  0
  -28.1040  -36.2621   24.6321 H   0  0  0  0  0  0
  -27.2289  -37.1487   25.8877 H   0  0  0  0  0  0
  -20.9371  -29.8762   21.6860 H   0  0  0  0  0  0
  -26.0170  -38.2861   24.1408 H   0  0  0  0  0  0
  -29.7672  -22.2189   19.2191 H   0  0  0  0  0  0
  -29.6135  -24.6056   18.6845 H   0  0  0  0  0  0
  -27.2042  -25.2815   22.1451 H   0  0  0  0  0  0
  -24.9792  -23.1985   22.6873 H   0  0  0  0  0  0
  -25.5888  -21.6312   22.1792 H   0  0  0  0  0  0
  -24.8951  -20.7306   24.1448 H   0  0  0  0  0  0
  -24.4322  -22.2926   24.7893 H   0  0  0  0  0  0
  -28.5775  -22.3027   24.6771 H   0  0  0  0  0  0
  -27.8804  -20.9181   23.8369 H   0  0  0  0  0  0
  -27.0002  -23.8050   23.7097 H   0  0  0  0  0  0
  -26.4973  -22.6631   25.8218 H   0  0  0  0  0  0
  -27.7350  -20.3989   21.6773 H   0  0  0  0  0  0
  -29.3344  -20.7521   22.3335 H   0  0  0  0  0  0
  -27.6332  -20.5053   26.5877 H   0  0  0  0  0  0
  -26.5504  -19.6029   25.5530 H   0  0  0  0  0  0
  -31.1758  -17.3661   20.4911 H   0  0  0  0  0  0
  -29.9350  -17.2087   19.2771 H   0  0  0  0  0  0
  -29.5477  -18.3028   22.1223 H   0  0  0  0  0  0
  -28.2077  -18.0135   21.0551 H   0  0  0  0  0  0
  -28.9182  -15.5086   21.0735 H   0  0  0  0  0  0
  -25.8153  -21.2818   27.8470 H   0  0  0  0  0  0
  -25.6736  -19.6673   27.7129 H   0  0  0  0  0  0
  -24.7145  -20.6408   26.8262 H   0  0  0  0  0  0
  -28.9413  -19.7518   19.6356 H   0  0  0  0  0  0
  -30.3456  -19.9560   20.4391 H   0  0  0  0  0  0
  1 25  1  0  0  0
  1 30  2  0  0  0
  1 86  1  0  0  0
  2  3  1  0  0  0
  2 25  1  0  0  0
  2 89  1  0  0  0
  2 90  1  0  0  0
  3  4  1  0  0  0
  3 91  1  0  0  0
  3 92  1  0  0  0
  4  5  1  0  0  0
  4 93  1  0  0  0
  4 94  1  0  0  0
  5  6  1  0  0  0
  5 26  1  0  0  0
  5 95  1  0  0  0
  6 25  1  0  0  0
  6 96  1  0  0  0
  6 97  1  0  0  0
  7  8  2  0  0  0
  7 26  1  0  0  0
  7 29  1  0  0  0
  8  9  1  0  0  0
  8 22  1  0  0  0
  9 10  1  0  0  0
  9 27  2  0  0  0
 10 11  2  0  0  0
 10 15  1  0  0  0
 11 12  1  0  0  0
 11 98  1  0  0  0
 12 13  2  0  0  0
 12 99  1  0  0  0
 13 14  1  0  0  0
 13 31  1  0  0  0
 14 15  2  0  0  0
 14100  1  0  0  0
 15101  1  0  0  0
 16 17  2  0  0  0
 16 21  1  0  0  0
 16 31  1  0  0  0
 17 18  1  0  0  0
 17102  1  0  0  0
 18 19  2  0  0  0
 18103  1  0  0  0
 19 20  1  0  0  0
 19 24  1  0  0  0
 20 21  2  0  0  0
 20104  1  0  0  0
 21 23  1  0  0  0
 22 28  1  0  0  0
 22 32  2  0  0  0
 26 27  1  0  0  0
 28105  1  0  0  0
 28106  1  0  0  0
 29107  1  0  0  0
 29108  1  0  0  0
 33 34  1  0  0  0
 33 66  1  0  0  0
 33 70  2  0  0  0
 34 36  1  0  0  0
 34 59  1  0  0  0
 34109  1  0  0  0
 35 44  2  0  0  0
 35 45  1  0  0  0
 35 68  1  0  0  0
 36 56  1  0  0  0
 36110  1  0  0  0
 37 39  1  0  0  0
 37 47  1  0  0  0
 37 66  1  0  0  0
 37111  1  0  0  0
 38 43  2  0  0  0
 38 46  1  0  0  0
 38 47  1  0  0  0
 39 64  1  0  0  0
 39 67  2  0  0  0
 40 52  1  0  0  0
 40 53  2  0  0  0
 40 58  1  0  0  0
 41112  1  0  0  0
 41113  1  0  0  0
 41114  1  0  0  0
 41 48  1  0  0  0
 42 43  1  0  0  0
 42 66  1  0  0  0
 42115  1  0  0  0
 42116  1  0  0  0
 43 44  1  0  0  0
 44117  1  0  0  0
 45 46  2  0  0  0
 45118  1  0  0  0
 46119  1  0  0  0
 47120  1  0  0  0
 47121  1  0  0  0
 48 56  1  0  0  0
 48 65  1  0  0  0
 48122  1  0  0  0
 49 50  1  0  0  0
 49 53  1  0  0  0
 49 64  1  0  0  0
 49123  1  0  0  0
 50 51  1  0  0  0
 50124  1  0  0  0
 50125  1  0  0  0
 51 52  1  0  0  0
 51126  1  0  0  0
 51127  1  0  0  0
 52128  1  0  0  0
 52129  1  0  0  0
 53 54  1  0  0  0
 54 55  2  0  0  0
 54130  1  0  0  0
 55 57  1  0  0  0
 55131  1  0  0  0
 56 69  2  0  0  0
 57 58  2  0  0  0
 57132  1  0  0  0
 58133  1  0  0  0
 59 60  1  0  0  0
 59 61  1  0  0  0
 59 62  1  0  0  0
 60134  1  0  0  0
 60135  1  0  0  0
 60136  1  0  0  0
 61137  1  0  0  0
 61138  1  0  0  0
 61139  1  0  0  0
 62140  1  0  0  0
 62141  1  0  0  0
 62142  1  0  0  0
 63 65  1  0  0  0
 63143  1  0  0  0
 63144  1  0  0  0
 63145  1  0  0  0
 64146  1  0  0  0
 65147  1  0  0  0
 68 76  1  0  0  0
 71 72  2  0  0  0
 71 75  1  0  0  0
 71148  1  0  0  0
 72 76  1  0  0  0
 72149  1  0  0  0
 73 74  1  0  0  0
 73 76  2  0  0  0
 73150  1  0  0  0
 74 75  2  0  0  0
 74 80  1  0  0  0
 75 82  1  0  0  0
 77 78  1  0  0  0
 77 80  1  0  0  0
 77151  1  0  0  0
 77152  1  0  0  0
 78 81  1  0  0  0
 78153  1  0  0  0
 78154  1  0  0  0
 79 80  1  0  0  0
 79 81  1  0  0  0
 79155  1  0  0  0
 79156  1  0  0  0
 80157  1  0  0  0
 81 83  1  0  0  0
 81158  1  0  0  0
 82 88  1  0  0  0
 82159  1  0  0  0
 82160  1  0  0  0
 83 87  1  0  0  0
 83161  1  0  0  0
 83162  1  0  0  0
 84 85  1  0  0  0
 84 86  1  0  0  0
 84163  1  0  0  0
 84164  1  0  0  0
 85 88  1  0  0  0
 85165  1  0  0  0
 85166  1  0  0  0
 86167  1  0  0  0
 87168  1  0  0  0
 87169  1  0  0  0
 87170  1  0  0  0
 88171  1  0  0  0
 88172  1  0  0  0
M  CHG  2  87   1  88   1
M  ISO  4   1 100  68 101  76 101  86 100
M  END
> <chiral flag>
0

> <version>
0

> <s_m_source_file>
/data/baiqing/PycharmProjects/Reinvent-master-3.2/result/LINK_invent/BTK/process_docking_weight1_custom_sum_contain_oxygen_bond_distance_aromatic_linkinvent_7_9_3/rearranged_h_0132.sdf

> <i_m_source_file_index>
84

> <r_mmod_Potential_Energy-OPLS-2005>
-354.402221679688

> <r_mmod_Stretch_Energy-OPLS-2005>
77.7386169433594

> <r_mmod_Bend_Energy-OPLS-2005>
180.944290161133

> <r_mmod_Torsional_Energy-OPLS-2005>
262.353942871094

> <r_mmod_Improper_Torsional_Energy-OPLS-2005>
6.55652523040771

> <r_mmod_Van_der_Waal_Energy-OPLS-2005>
137.555404663086

> <r_mmod_Electrostatic_Energy-OPLS-2005>
-76.4377212524414

> <r_mmod_Solvation_Energy-OPLS-2005>
-984.23779296875

> <b_mmod_Minimization_Converged-OPLS-2005>
0

> <r_mmod_RMS_Derivative-OPLS-2005>
2.05704426765442

$$$$
86
                    3D
 Structure written by MMmdl.
170179  0  0  1  0            999 V2000
  -30.6890  -14.4565   20.5116 C   0  0  0  0  0  0
  -30.4253  -12.2806   19.4215 C   0  0  0  0  0  0
  -29.4928  -12.4580   18.2029 C   0  0  0  0  0  0
  -28.0095  -12.3505   18.6137 C   0  0  0  0  0  0
  -27.6599  -13.1942   19.8691 C   0  0  2  0  0  0
  -28.7051  -12.9890   20.9902 C   0  0  0  0  0  0
  -25.2612  -13.8135   20.5704 C   0  0  0  0  0  0
  -24.1863  -13.0449   20.9254 C   0  0  0  0  0  0
  -24.6385  -11.6905   20.8783 C   0  0  0  0  0  0
  -23.9048  -10.4302   21.0432 C   0  0  0  0  0  0
  -24.3601   -9.4214   21.9198 C   0  0  0  0  0  0
  -23.6287   -8.2238   22.0748 C   0  0  0  0  0  0
  -22.4270   -8.0281   21.3534 C   0  0  0  0  0  0
  -21.9908   -9.0257   20.4638 C   0  0  0  0  0  0
  -22.7230  -10.2147   20.3063 C   0  0  0  0  0  0
  -21.6858   -6.0737   22.5275 C   0  0  0  0  0  0
  -21.4032   -6.5644   23.8212 C   0  0  0  0  0  0
  -21.3645   -5.6800   24.9175 C   0  0  0  0  0  0
  -21.6036   -4.3059   24.7220 C   0  0  0  0  0  0
  -21.8821   -3.8144   23.4337 C   0  0  0  0  0  0
  -21.9203   -4.6963   22.3402 C   0  0  0  0  0  0
  -22.7886  -13.5253   21.1888 C   0  0  0  0  0  0
  -22.1667   -4.2143   21.0976 F   0  0  0  0  0  0
  -21.5616   -3.4549   25.7735 F   0  0  0  0  0  0
  -30.0341  -13.2740   20.4289 N   0  0  0  0  0  0
  -26.3016  -12.9273   20.3341 N   0  0  0  0  0  0
  -25.9301  -11.6454   20.5778 N   0  0  0  0  0  0
  -22.0469  -12.8245   22.0402 N   0  0  0  0  0  0
  -25.4391  -15.1837   20.3997 N   0  0  0  0  0  0
  -31.8646  -14.6109   20.1745 O   0  0  0  0  0  0
  -21.6636   -6.8871   21.4236 O   0  0  0  0  0  0
  -22.3626  -14.5576   20.6722 O   0  0  0  0  0  0
  -24.6118  -31.8713   23.2112 C   0  0  0  0  0  0
  -25.9027  -32.4840   23.8402 C   0  0  1  0  0  0
  -27.2364  -27.4476   20.0966 C   0  0  0  0  0  0
  -25.5887  -33.8632   24.2342 N   0  0  0  0  0  0
  -23.3972  -30.4927   21.5530 C   0  0  2  0  0  0
  -24.8419  -28.9563   20.1218 C   0  0  0  0  0  0
  -22.7383  -29.4648   22.5020 C   0  0  0  0  0  0
  -18.0251  -28.1352   22.8503 C   0  0  0  0  0  0
  -24.1489  -36.7323   23.2639 C   0  0  0  0  0  0
  -25.9235  -30.8401   21.3617 C   0  0  0  0  0  0
  -25.9995  -29.4726   20.7144 C   0  0  0  0  0  0
  -27.1951  -28.7231   20.7005 C   0  0  0  0  0  0
  -26.0524  -26.9346   19.5151 C   0  0  0  0  0  0
  -24.8612  -27.6846   19.5244 C   0  0  0  0  0  0
  -23.6070  -29.8251   20.1668 C   0  0  0  0  0  0
  -25.4108  -36.3122   24.0345 C   0  0  1  0  0  0
  -20.5842  -28.3597   23.1329 C   0  0  2  0  0  0
  -20.6717  -26.9325   22.5421 C   0  0  0  0  0  0
  -19.5653  -26.6259   21.5280 C   0  0  0  0  0  0
  -18.1849  -26.7881   22.1701 C   0  0  0  0  0  0
  -19.1510  -28.8786   23.2914 C   0  0  0  0  0  0
  -18.9448  -30.1388   23.8940 C   0  0  0  0  0  0
  -17.6459  -30.6546   24.0574 C   0  0  0  0  0  0
  -25.9031  -34.9483   23.5141 C   0  0  0  0  0  0
  -16.5348  -29.9068   23.6313 C   0  0  0  0  0  0
  -16.7245  -28.6477   23.0353 C   0  0  0  0  0  0
  -26.4455  -31.6615   25.0724 C   0  0  0  0  0  0
  -25.3732  -31.3705   26.1485 C   0  0  0  0  0  0
  -27.0275  -30.3065   24.6070 C   0  0  0  0  0  0
  -27.6037  -32.4331   25.7486 C   0  0  0  0  0  0
  -27.5582  -37.1818   24.8466 C   0  0  0  0  0  0
  -21.4120  -29.2963   22.3729 N   0  0  0  0  0  0
  -26.4295  -37.3808   23.9412 N   0  0  0  0  0  0
  -24.6622  -31.0823   22.1008 N   0  0  0  0  0  0
  -23.4154  -28.8218   23.3078 O   0  0  0  0  0  0
  -28.4447  -26.7823   20.0922 O   0  0  0  0  0  0
  -26.5587  -34.8919   22.4697 O   0  0  0  0  0  0
  -23.5318  -32.1449   23.7518 O   0  0  0  0  0  0
  -26.9215  -22.2866   21.0489 C   0  0  0  0  0  0
  -28.3950  -23.2493   22.7207 C   0  0  0  0  0  0
  -27.2017  -23.3614   20.1793 C   0  0  0  0  0  0
  -28.6723  -24.3283   21.8564 C   0  0  0  0  0  0
  -27.5466  -22.1962   22.3145 C   0  0  0  0  0  0
  -28.1006  -24.3762   20.5677 C   0  0  0  0  0  0
  -27.4001  -21.0292   23.2149 C   0  0  0  0  0  0
  -27.2989  -19.7154   22.9111 C   0  0  0  0  0  0
  -28.0390  -17.8515   18.8916 C   0  0  0  0  0  0
  -28.7728  -18.2093   17.5776 C   0  0  0  0  0  0
  -30.4306  -16.5696   18.4019 C   0  0  0  0  0  0
  -30.1219  -16.8077   19.9225 C   0  0  1  0  0  0
  -29.0121  -17.9022   20.0969 C   0  0  2  0  0  0
  -28.5304  -25.4534   19.5795 C   0  0  0  0  0  0
  -27.3589  -19.0755   21.5331 C   0  0  0  0  0  0
  -29.8651  -15.5175   20.6033 N   0  0  0  0  0  0
  -30.1874  -17.7625   17.5643 N   0  3  0  0  0  0
  -28.3400  -17.9611   21.4251 N   0  3  0  0  0  0
  -31.4681  -12.3779   19.1148 H   0  0  0  0  0  0
  -30.3292  -11.2768   19.8363 H   0  0  0  0  0  0
  -29.7214  -11.7005   17.4523 H   0  0  0  0  0  0
  -29.6747  -13.4188   17.7214 H   0  0  0  0  0  0
  -27.7989  -11.2993   18.8082 H   0  0  0  0  0  0
  -27.3673  -12.6367   17.7797 H   0  0  0  0  0  0
  -27.6993  -14.2363   19.5591 H   0  0  0  0  0  0
  -28.6781  -11.9589   21.3496 H   0  0  0  0  0  0
  -28.4878  -13.6182   21.8555 H   0  0  0  0  0  0
  -25.2736   -9.5692   22.4795 H   0  0  0  0  0  0
  -23.9990   -7.4633   22.7463 H   0  0  0  0  0  0
  -21.0833   -8.8768   19.8952 H   0  0  0  0  0  0
  -22.3660  -10.9687   19.6175 H   0  0  0  0  0  0
  -21.2039   -7.6159   23.9710 H   0  0  0  0  0  0
  -21.1460   -6.0530   25.9076 H   0  0  0  0  0  0
  -22.0611   -2.7608   23.2844 H   0  0  0  0  0  0
  -22.4034  -11.9897   22.4812 H   0  0  0  0  0  0
  -21.1077  -13.1275   22.2566 H   0  0  0  0  0  0
  -24.5998  -15.7537   20.4055 H   0  0  0  0  0  0
  -26.0948  -15.4856   19.6939 H   0  0  0  0  0  0
  -26.7110  -32.5562   23.1184 H   0  0  0  0  0  0
  -25.0070  -33.9816   25.0511 H   0  0  0  0  0  0
  -22.6823  -31.3065   21.4160 H   0  0  0  0  0  0
  -23.3742  -35.9663   23.3317 H   0  0  0  0  0  0
  -24.3584  -36.8921   22.2046 H   0  0  0  0  0  0
  -23.7235  -37.6535   23.6639 H   0  0  0  0  0  0
  -26.0290  -31.6044   20.5905 H   0  0  0  0  0  0
  -26.8139  -30.8989   21.9753 H   0  0  0  0  0  0
  -28.0919  -29.1238   21.1524 H   0  0  0  0  0  0
  -26.0209  -25.9608   19.0523 H   0  0  0  0  0  0
  -23.9658  -27.2764   19.0760 H   0  0  0  0  0  0
  -23.7229  -30.6006   19.4089 H   0  0  0  0  0  0
  -22.7306  -29.2489   19.8658 H   0  0  0  0  0  0
  -25.1279  -36.1999   25.0838 H   0  0  0  0  0  0
  -20.9931  -28.3125   24.1456 H   0  0  0  0  0  0
  -21.6560  -26.7373   22.1139 H   0  0  0  0  0  0
  -20.5688  -26.2199   23.3626 H   0  0  0  0  0  0
  -19.6564  -27.2946   20.6717 H   0  0  0  0  0  0
  -19.6748  -25.6112   21.1427 H   0  0  0  0  0  0
  -18.0226  -26.0060   22.9133 H   0  0  0  0  0  0
  -17.4084  -26.6598   21.4136 H   0  0  0  0  0  0
  -19.7928  -30.7172   24.2338 H   0  0  0  0  0  0
  -17.4991  -31.6210   24.5195 H   0  0  0  0  0  0
  -15.5353  -30.2993   23.7612 H   0  0  0  0  0  0
  -15.8612  -28.0823   22.7099 H   0  0  0  0  0  0
  -24.5896  -30.7072   25.7817 H   0  0  0  0  0  0
  -24.8941  -32.2856   26.4968 H   0  0  0  0  0  0
  -25.8104  -30.8842   27.0216 H   0  0  0  0  0  0
  -26.2803  -29.6850   24.1124 H   0  0  0  0  0  0
  -27.4056  -29.7278   25.4505 H   0  0  0  0  0  0
  -27.8632  -30.4399   23.9201 H   0  0  0  0  0  0
  -27.2652  -33.3608   26.2112 H   0  0  0  0  0  0
  -28.3815  -32.6935   25.0299 H   0  0  0  0  0  0
  -28.0736  -31.8428   26.5364 H   0  0  0  0  0  0
  -28.2610  -38.0107   24.7506 H   0  0  0  0  0  0
  -28.1071  -36.2635   24.6305 H   0  0  0  0  0  0
  -27.2300  -37.1487   25.8871 H   0  0  0  0  0  0
  -20.9305  -29.8576   21.6857 H   0  0  0  0  0  0
  -26.0190  -38.2895   24.1402 H   0  0  0  0  0  0
  -26.2279  -21.5269   20.7191 H   0  0  0  0  0  0
  -28.8719  -23.2170   23.6906 H   0  0  0  0  0  0
  -26.7441  -23.3878   19.1994 H   0  0  0  0  0  0
  -29.3599  -25.1029   22.1697 H   0  0  0  0  0  0
  -27.3467  -21.2802   24.2654 H   0  0  0  0  0  0
  -27.1580  -19.0238   23.7308 H   0  0  0  0  0  0
  -27.6095  -16.8515   18.8140 H   0  0  0  0  0  0
  -27.1909  -18.5280   18.9906 H   0  0  0  0  0  0
  -28.7496  -19.2872   17.4072 H   0  0  0  0  0  0
  -28.2411  -17.7567   16.7402 H   0  0  0  0  0  0
  -29.8134  -15.7620   18.0044 H   0  0  0  0  0  0
  -31.4669  -16.2632   18.2590 H   0  0  0  0  0  0
  -31.0245  -17.2123   20.3867 H   0  0  0  0  0  0
  -29.5327  -18.8621   20.0267 H   0  0  0  0  0  0
  -28.0327  -25.3463   18.6153 H   0  0  0  0  0  0
  -29.5838  -25.2703   19.3658 H   0  0  0  0  0  0
  -27.6259  -19.8414   20.8110 H   0  0  0  0  0  0
  -26.3654  -18.7120   21.2648 H   0  0  0  0  0  0
  -28.9170  -15.2746   20.8377 H   0  0  0  0  0  0
  -30.7880  -18.5160   17.8594 H   0  0  0  0  0  0
  -30.4435  -17.5575   16.6110 H   0  0  0  0  0  0
  -27.8722  -17.0968   21.6448 H   0  0  0  0  0  0
  -29.0516  -18.1018   22.1261 H   0  0  0  0  0  0
  1 25  1  0  0  0
  1 30  2  0  0  0
  1 86  1  0  0  0
  2  3  1  0  0  0
  2 25  1  0  0  0
  2 89  1  0  0  0
  2 90  1  0  0  0
  3  4  1  0  0  0
  3 91  1  0  0  0
  3 92  1  0  0  0
  4  5  1  0  0  0
  4 93  1  0  0  0
  4 94  1  0  0  0
  5  6  1  0  0  0
  5 26  1  0  0  0
  5 95  1  0  0  0
  6 25  1  0  0  0
  6 96  1  0  0  0
  6 97  1  0  0  0
  7  8  2  0  0  0
  7 26  1  0  0  0
  7 29  1  0  0  0
  8  9  1  0  0  0
  8 22  1  0  0  0
  9 10  1  0  0  0
  9 27  2  0  0  0
 10 11  2  0  0  0
 10 15  1  0  0  0
 11 12  1  0  0  0
 11 98  1  0  0  0
 12 13  2  0  0  0
 12 99  1  0  0  0
 13 14  1  0  0  0
 13 31  1  0  0  0
 14 15  2  0  0  0
 14100  1  0  0  0
 15101  1  0  0  0
 16 17  2  0  0  0
 16 21  1  0  0  0
 16 31  1  0  0  0
 17 18  1  0  0  0
 17102  1  0  0  0
 18 19  2  0  0  0
 18103  1  0  0  0
 19 20  1  0  0  0
 19 24  1  0  0  0
 20 21  2  0  0  0
 20104  1  0  0  0
 21 23  1  0  0  0
 22 28  1  0  0  0
 22 32  2  0  0  0
 26 27  1  0  0  0
 28105  1  0  0  0
 28106  1  0  0  0
 29107  1  0  0  0
 29108  1  0  0  0
 33 34  1  0  0  0
 33 66  1  0  0  0
 33 70  2  0  0  0
 34 36  1  0  0  0
 34 59  1  0  0  0
 34109  1  0  0  0
 35 44  2  0  0  0
 35 45  1  0  0  0
 35 68  1  0  0  0
 36 56  1  0  0  0
 36110  1  0  0  0
 37 39  1  0  0  0
 37 47  1  0  0  0
 37 66  1  0  0  0
 37111  1  0  0  0
 38 43  2  0  0  0
 38 46  1  0  0  0
 38 47  1  0  0  0
 39 64  1  0  0  0
 39 67  2  0  0  0
 40 52  1  0  0  0
 40 53  2  0  0  0
 40 58  1  0  0  0
 41112  1  0  0  0
 41113  1  0  0  0
 41114  1  0  0  0
 41 48  1  0  0  0
 42 43  1  0  0  0
 42 66  1  0  0  0
 42115  1  0  0  0
 42116  1  0  0  0
 43 44  1  0  0  0
 44117  1  0  0  0
 45 46  2  0  0  0
 45118  1  0  0  0
 46119  1  0  0  0
 47120  1  0  0  0
 47121  1  0  0  0
 48 56  1  0  0  0
 48 65  1  0  0  0
 48122  1  0  0  0
 49 50  1  0  0  0
 49 53  1  0  0  0
 49 64  1  0  0  0
 49123  1  0  0  0
 50 51  1  0  0  0
 50124  1  0  0  0
 50125  1  0  0  0
 51 52  1  0  0  0
 51126  1  0  0  0
 51127  1  0  0  0
 52128  1  0  0  0
 52129  1  0  0  0
 53 54  1  0  0  0
 54 55  2  0  0  0
 54130  1  0  0  0
 55 57  1  0  0  0
 55131  1  0  0  0
 56 69  2  0  0  0
 57 58  2  0  0  0
 57132  1  0  0  0
 58133  1  0  0  0
 59 60  1  0  0  0
 59 61  1  0  0  0
 59 62  1  0  0  0
 60134  1  0  0  0
 60135  1  0  0  0
 60136  1  0  0  0
 61137  1  0  0  0
 61138  1  0  0  0
 61139  1  0  0  0
 62140  1  0  0  0
 62141  1  0  0  0
 62142  1  0  0  0
 63 65  1  0  0  0
 63143  1  0  0  0
 63144  1  0  0  0
 63145  1  0  0  0
 64146  1  0  0  0
 65147  1  0  0  0
 68 84  1  0  0  0
 71 73  2  0  0  0
 71 75  1  0  0  0
 71148  1  0  0  0
 72 74  1  0  0  0
 72 75  2  0  0  0
 72149  1  0  0  0
 73 76  1  0  0  0
 73150  1  0  0  0
 74 76  2  0  0  0
 74151  1  0  0  0
 75 77  1  0  0  0
 76 84  1  0  0  0
 77 78  2  0  0  0
 77152  1  0  0  0
 78 85  1  0  0  0
 78153  1  0  0  0
 79 80  1  0  0  0
 79 83  1  0  0  0
 79154  1  0  0  0
 79155  1  0  0  0
 80 87  1  0  0  0
 80156  1  0  0  0
 80157  1  0  0  0
 81 82  1  0  0  0
 81 87  1  0  0  0
 81158  1  0  0  0
 81159  1  0  0  0
 82 83  1  0  0  0
 82 86  1  0  0  0
 82160  1  0  0  0
 83 88  1  0  0  0
 83161  1  0  0  0
 84162  1  0  0  0
 84163  1  0  0  0
 85 88  1  0  0  0
 85164  1  0  0  0
 85165  1  0  0  0
 86166  1  0  0  0
 87167  1  0  0  0
 87168  1  0  0  0
 88169  1  0  0  0
 88170  1  0  0  0
M  CHG  2  87   1  88   1
M  ISO  4   1 100  68 101  84 101  86 100
M  END
> <chiral flag>
0

> <version>
0

> <s_m_source_file>
/data/baiqing/PycharmProjects/Reinvent-master-3.2/result/LINK_invent/BTK/process_docking_weight1_custom_sum_contain_oxygen_bond_distance_aromatic_linkinvent_7_9_3/rearranged_h_0132.sdf

> <i_m_source_file_index>
85

> <r_mmod_Potential_Energy-OPLS-2005>
-365.525817871094

> <r_mmod_Stretch_Energy-OPLS-2005>
39.4451026916504

> <r_mmod_Bend_Energy-OPLS-2005>
110.846672058105

> <r_mmod_Torsional_Energy-OPLS-2005>
320.417663574219

> <r_mmod_Improper_Torsional_Energy-OPLS-2005>
16.1987533569336

> <r_mmod_Van_der_Waal_Energy-OPLS-2005>
164.140823364258

> <r_mmod_Electrostatic_Energy-OPLS-2005>
1.07300901412964

> <r_mmod_Solvation_Energy-OPLS-2005>
-1033.32153320312

> <b_mmod_Minimization_Converged-OPLS-2005>
0

> <r_mmod_RMS_Derivative-OPLS-2005>
2.43806576728821

$$$$
87
                    3D
 Structure written by MMmdl.
156164  0  0  1  0            999 V2000
  -30.5667  -14.6692   20.5024 C   0  0  0  0  0  0
  -30.4523  -12.4079   19.4528 C   0  0  0  0  0  0
  -29.5158  -12.5119   18.2266 C   0  0  0  0  0  0
  -28.0382  -12.3377   18.6364 C   0  0  0  0  0  0
  -27.6572  -13.2045   19.8650 C   0  0  2  0  0  0
  -28.6978  -13.0436   20.9962 C   0  0  0  0  0  0
  -25.2613  -13.8118   20.5644 C   0  0  0  0  0  0
  -24.1864  -13.0419   20.9156 C   0  0  0  0  0  0
  -24.6400  -11.6872   20.8718 C   0  0  0  0  0  0
  -23.9048  -10.4270   21.0414 C   0  0  0  0  0  0
  -24.3614   -9.4194   21.9192 C   0  0  0  0  0  0
  -23.6291   -8.2240   22.0771 C   0  0  0  0  0  0
  -22.4272   -8.0282   21.3552 C   0  0  0  0  0  0
  -21.9906   -9.0241   20.4653 C   0  0  0  0  0  0
  -22.7227  -10.2117   20.3064 C   0  0  0  0  0  0
  -21.6843   -6.0743   22.5278 C   0  0  0  0  0  0
  -21.4011   -6.5649   23.8206 C   0  0  0  0  0  0
  -21.3654   -5.6802   24.9166 C   0  0  0  0  0  0
  -21.6048   -4.3066   24.7210 C   0  0  0  0  0  0
  -21.8822   -3.8158   23.4325 C   0  0  0  0  0  0
  -21.9190   -4.6978   22.3391 C   0  0  0  0  0  0
  -22.7891  -13.5255   21.1793 C   0  0  0  0  0  0
  -22.1668   -4.2168   21.0966 F   0  0  0  0  0  0
  -21.5620   -3.4556   25.7718 F   0  0  0  0  0  0
  -30.0111  -13.4149   20.4396 N   0  0  0  0  0  0
  -26.3013  -12.9272   20.3296 N   0  0  0  0  0  0
  -25.9329  -11.6431   20.5736 N   0  0  0  0  0  0
  -22.0523  -12.8258   22.0358 N   0  0  0  0  0  0
  -25.4351  -15.1829   20.4000 N   0  0  0  0  0  0
  -31.7192  -14.8827   20.1073 O   0  0  0  0  0  0
  -21.6637   -6.8881   21.4239 O   0  0  0  0  0  0
  -22.3597  -14.5560   20.6622 O   0  0  0  0  0  0
  -24.6250  -31.8576   23.2023 C   0  0  0  0  0  0
  -25.9100  -32.4776   23.8336 C   0  0  1  0  0  0
  -27.2224  -27.3064   20.1333 C   0  0  0  0  0  0
  -25.5938  -33.8578   24.2269 N   0  0  0  0  0  0
  -23.4209  -30.4788   21.5428 C   0  0  2  0  0  0
  -24.8672  -28.9233   20.1206 C   0  0  0  0  0  0
  -22.7485  -29.4583   22.4924 C   0  0  0  0  0  0
  -18.0281  -28.1406   22.8439 C   0  0  0  0  0  0
  -24.1496  -36.7282   23.2645 C   0  0  0  0  0  0
  -25.9602  -30.7865   21.3722 C   0  0  0  0  0  0
  -26.0348  -29.4108   20.7194 C   0  0  0  0  0  0
  -27.2174  -28.6149   20.7101 C   0  0  0  0  0  0
  -26.0320  -26.8586   19.5274 C   0  0  0  0  0  0
  -24.8670  -27.6532   19.5184 C   0  0  0  0  0  0
  -23.6426  -29.8151   20.1582 C   0  0  0  0  0  0
  -25.4108  -36.3082   24.0348 C   0  0  1  0  0  0
  -20.5878  -28.3697   23.1296 C   0  0  2  0  0  0
  -20.6799  -26.9428   22.5419 C   0  0  0  0  0  0
  -19.5776  -26.6373   21.5224 C   0  0  0  0  0  0
  -18.1925  -26.7926   22.1595 C   0  0  0  0  0  0
  -19.1526  -28.8861   23.2854 C   0  0  0  0  0  0
  -18.9471  -30.1451   23.8883 C   0  0  0  0  0  0
  -17.6478  -30.6607   24.0549 C   0  0  0  0  0  0
  -25.9050  -34.9458   23.5100 C   0  0  0  0  0  0
  -16.5363  -29.9108   23.6346 C   0  0  0  0  0  0
  -16.7265  -28.6549   23.0313 C   0  0  0  0  0  0
  -26.4495  -31.6585   25.0693 C   0  0  0  0  0  0
  -25.3743  -31.3762   26.1450 C   0  0  0  0  0  0
  -27.0341  -30.3021   24.6112 C   0  0  0  0  0  0
  -27.6030  -32.4354   25.7484 C   0  0  0  0  0  0
  -27.5580  -37.1791   24.8469 C   0  0  0  0  0  0
  -21.4192  -29.3037   22.3707 N   0  0  0  0  0  0
  -26.4281  -37.3778   23.9427 N   0  0  0  0  0  0
  -24.6876  -31.0565   22.0990 N   0  0  0  0  0  0
  -23.4224  -28.8103   23.2982 O   0  0  0  0  0  0
  -28.3684  -26.5045   20.0894 O   0  0  0  0  0  0
  -26.5585  -34.8924   22.4643 O   0  0  0  0  0  0
  -23.5413  -32.1380   23.7335 O   0  0  0  0  0  0
  -30.3337  -19.4626   20.3799 C   0  0  0  0  0  0
  -30.5852  -18.0449   20.3793 C   0  0  0  0  0  0
  -28.3131  -17.6749   21.0391 C   0  0  0  0  0  0
  -29.0678  -20.0324   20.7258 C   0  0  0  0  0  0
  -28.0481  -19.0759   21.0273 C   0  0  0  0  0  0
  -29.5786  -17.1098   20.7448 C   0  0  0  0  0  0
  -26.6451  -19.5117   21.4278 C   0  0  0  0  0  0
  -28.8391  -21.5949   20.9633 C   0  0  0  0  0  0
  -28.1325  -23.8484   19.7277 C   0  0  0  0  0  0
  -28.3760  -25.1265   20.6519 C   0  0  0  0  0  0
  -29.6945  -15.6530   20.8946 N   0  0  0  0  0  0
  -29.0235  -22.6005   19.8470 N   0  3  0  0  0  0
  -31.4914  -12.5588   19.1537 H   0  0  0  0  0  0
  -30.4086  -11.4070   19.8870 H   0  0  0  0  0  0
  -29.7845  -11.7623   17.4822 H   0  0  0  0  0  0
  -29.6506  -13.4828   17.7466 H   0  0  0  0  0  0
  -27.8810  -11.2822   18.8656 H   0  0  0  0  0  0
  -27.3832  -12.5660   17.7957 H   0  0  0  0  0  0
  -27.6780  -14.2415   19.5289 H   0  0  0  0  0  0
  -28.7211  -12.0111   21.3527 H   0  0  0  0  0  0
  -28.4308  -13.6454   21.8675 H   0  0  0  0  0  0
  -25.2757   -9.5681   22.4765 H   0  0  0  0  0  0
  -23.9992   -7.4645   22.7515 H   0  0  0  0  0  0
  -21.0834   -8.8748   19.8968 H   0  0  0  0  0  0
  -22.3682  -10.9655   19.6184 H   0  0  0  0  0  0
  -21.2011   -7.6160   23.9707 H   0  0  0  0  0  0
  -21.1476   -6.0535   25.9061 H   0  0  0  0  0  0
  -22.0605   -2.7625   23.2812 H   0  0  0  0  0  0
  -22.4134  -11.9901   22.4714 H   0  0  0  0  0  0
  -21.1162  -13.1335   22.2582 H   0  0  0  0  0  0
  -24.6524  -15.8244   20.4598 H   0  0  0  0  0  0
  -26.2612  -15.5986   19.9904 H   0  0  0  0  0  0
  -26.7144  -32.5470   23.1058 H   0  0  0  0  0  0
  -25.0226  -33.9730   25.0510 H   0  0  0  0  0  0
  -22.7128  -31.2970   21.3963 H   0  0  0  0  0  0
  -23.3783  -35.9591   23.3292 H   0  0  0  0  0  0
  -24.3596  -36.8897   22.2065 H   0  0  0  0  0  0
  -23.7234  -37.6469   23.6668 H   0  0  0  0  0  0
  -26.0862  -31.5478   20.6015 H   0  0  0  0  0  0
  -26.8438  -30.8399   21.9987 H   0  0  0  0  0  0
  -28.1231  -28.9886   21.1628 H   0  0  0  0  0  0
  -26.0019  -25.8896   19.0473 H   0  0  0  0  0  0
  -23.9696  -27.2738   19.0502 H   0  0  0  0  0  0
  -23.7903  -30.5972   19.4118 H   0  0  0  0  0  0
  -22.7604  -29.2616   19.8363 H   0  0  0  0  0  0
  -25.1286  -36.1931   25.0843 H   0  0  0  0  0  0
  -20.9906  -28.3259   24.1438 H   0  0  0  0  0  0
  -20.5754  -26.2275   23.3605 H   0  0  0  0  0  0
  -21.6662  -26.7496   22.1171 H   0  0  0  0  0  0
  -19.6960  -25.6277   21.1285 H   0  0  0  0  0  0
  -19.6759  -27.3158   20.6747 H   0  0  0  0  0  0
  -17.4213  -26.6669   21.3988 H   0  0  0  0  0  0
  -18.0297  -26.0083   22.9011 H   0  0  0  0  0  0
  -19.7962  -30.7238   24.2251 H   0  0  0  0  0  0
  -17.5067  -31.6294   24.5135 H   0  0  0  0  0  0
  -15.5369  -30.3019   23.7709 H   0  0  0  0  0  0
  -15.8648  -28.0908   22.7000 H   0  0  0  0  0  0
  -24.5880  -30.7145   25.7808 H   0  0  0  0  0  0
  -24.8990  -32.2960   26.4882 H   0  0  0  0  0  0
  -25.8069  -30.8946   27.0225 H   0  0  0  0  0  0
  -26.2882  -29.6782   24.1168 H   0  0  0  0  0  0
  -27.4122  -29.7272   25.4570 H   0  0  0  0  0  0
  -27.8726  -30.4350   23.9267 H   0  0  0  0  0  0
  -27.2615  -33.3676   26.1990 H   0  0  0  0  0  0
  -28.3885  -32.6870   25.0359 H   0  0  0  0  0  0
  -28.0636  -31.8540   26.5471 H   0  0  0  0  0  0
  -28.2560  -38.0117   24.7508 H   0  0  0  0  0  0
  -28.1107  -36.2638   24.6297 H   0  0  0  0  0  0
  -27.2298  -37.1434   25.8870 H   0  0  0  0  0  0
  -20.9363  -29.8817   21.6978 H   0  0  0  0  0  0
  -26.0174  -38.2850   24.1438 H   0  0  0  0  0  0
  -31.1598  -20.1222   20.1489 H   0  0  0  0  0  0
  -31.5770  -17.6889   20.1334 H   0  0  0  0  0  0
  -27.5101  -17.0063   21.3184 H   0  0  0  0  0  0
  -25.9726  -18.6598   21.5409 H   0  0  0  0  0  0
  -26.2035  -20.1731   20.6817 H   0  0  0  0  0  0
  -26.6669  -20.0283   22.3879 H   0  0  0  0  0  0
  -29.5114  -21.8884   21.7701 H   0  0  0  0  0  0
  -27.8447  -21.7635   21.3709 H   0  0  0  0  0  0
  -28.2486  -24.1852   18.6979 H   0  0  0  0  0  0
  -27.0888  -23.5423   19.8037 H   0  0  0  0  0  0
  -29.3608  -25.0160   21.1062 H   0  0  0  0  0  0
  -27.6838  -25.0833   21.4934 H   0  0  0  0  0  0
  -28.8486  -15.2326   21.2485 H   0  0  0  0  0  0
  -28.8727  -22.0766   19.0000 H   0  0  0  0  0  0
  -29.9914  -22.8800   19.8315 H   0  0  0  0  0  0
  1 25  1  0  0  0
  1 30  2  0  0  0
  1 81  1  0  0  0
  2  3  1  0  0  0
  2 25  1  0  0  0
  2 83  1  0  0  0
  2 84  1  0  0  0
  3  4  1  0  0  0
  3 85  1  0  0  0
  3 86  1  0  0  0
  4  5  1  0  0  0
  4 87  1  0  0  0
  4 88  1  0  0  0
  5  6  1  0  0  0
  5 26  1  0  0  0
  5 89  1  0  0  0
  6 25  1  0  0  0
  6 90  1  0  0  0
  6 91  1  0  0  0
  7  8  2  0  0  0
  7 26  1  0  0  0
  7 29  1  0  0  0
  8  9  1  0  0  0
  8 22  1  0  0  0
  9 10  1  0  0  0
  9 27  2  0  0  0
 10 11  2  0  0  0
 10 15  1  0  0  0
 11 12  1  0  0  0
 11 92  1  0  0  0
 12 13  2  0  0  0
 12 93  1  0  0  0
 13 14  1  0  0  0
 13 31  1  0  0  0
 14 15  2  0  0  0
 14 94  1  0  0  0
 15 95  1  0  0  0
 16 17  2  0  0  0
 16 21  1  0  0  0
 16 31  1  0  0  0
 17 18  1  0  0  0
 17 96  1  0  0  0
 18 19  2  0  0  0
 18 97  1  0  0  0
 19 20  1  0  0  0
 19 24  1  0  0  0
 20 21  2  0  0  0
 20 98  1  0  0  0
 21 23  1  0  0  0
 22 28  1  0  0  0
 22 32  2  0  0  0
 26 27  1  0  0  0
 28 99  1  0  0  0
 28100  1  0  0  0
 29101  1  0  0  0
 29102  1  0  0  0
 33 34  1  0  0  0
 33 66  1  0  0  0
 33 70  2  0  0  0
 34 36  1  0  0  0
 34 59  1  0  0  0
 34103  1  0  0  0
 35 44  2  0  0  0
 35 45  1  0  0  0
 35 68  1  0  0  0
 36 56  1  0  0  0
 36104  1  0  0  0
 37 39  1  0  0  0
 37 47  1  0  0  0
 37 66  1  0  0  0
 37105  1  0  0  0
 38 43  2  0  0  0
 38 46  1  0  0  0
 38 47  1  0  0  0
 39 64  1  0  0  0
 39 67  2  0  0  0
 40 52  1  0  0  0
 40 53  2  0  0  0
 40 58  1  0  0  0
 41106  1  0  0  0
 41107  1  0  0  0
 41108  1  0  0  0
 41 48  1  0  0  0
 42 43  1  0  0  0
 42 66  1  0  0  0
 42109  1  0  0  0
 42110  1  0  0  0
 43 44  1  0  0  0
 44111  1  0  0  0
 45 46  2  0  0  0
 45112  1  0  0  0
 46113  1  0  0  0
 47114  1  0  0  0
 47115  1  0  0  0
 48 56  1  0  0  0
 48 65  1  0  0  0
 48116  1  0  0  0
 49 50  1  0  0  0
 49 53  1  0  0  0
 49 64  1  0  0  0
 49117  1  0  0  0
 50 51  1  0  0  0
 50118  1  0  0  0
 50119  1  0  0  0
 51 52  1  0  0  0
 51120  1  0  0  0
 51121  1  0  0  0
 52122  1  0  0  0
 52123  1  0  0  0
 53 54  1  0  0  0
 54 55  2  0  0  0
 54124  1  0  0  0
 55 57  1  0  0  0
 55125  1  0  0  0
 56 69  2  0  0  0
 57 58  2  0  0  0
 57126  1  0  0  0
 58127  1  0  0  0
 59 60  1  0  0  0
 59 61  1  0  0  0
 59 62  1  0  0  0
 60128  1  0  0  0
 60129  1  0  0  0
 60130  1  0  0  0
 61131  1  0  0  0
 61132  1  0  0  0
 61133  1  0  0  0
 62134  1  0  0  0
 62135  1  0  0  0
 62136  1  0  0  0
 63 65  1  0  0  0
 63137  1  0  0  0
 63138  1  0  0  0
 63139  1  0  0  0
 64140  1  0  0  0
 65141  1  0  0  0
 68 80  1  0  0  0
 71 72  2  0  0  0
 71 74  1  0  0  0
 71142  1  0  0  0
 72 76  1  0  0  0
 72143  1  0  0  0
 73 75  1  0  0  0
 73 76  2  0  0  0
 73144  1  0  0  0
 74 75  2  0  0  0
 74 78  1  0  0  0
 75 77  1  0  0  0
 76 81  1  0  0  0
 77145  1  0  0  0
 77146  1  0  0  0
 77147  1  0  0  0
 78 82  1  0  0  0
 78148  1  0  0  0
 78149  1  0  0  0
 79 80  1  0  0  0
 79 82  1  0  0  0
 79150  1  0  0  0
 79151  1  0  0  0
 80152  1  0  0  0
 80153  1  0  0  0
 81154  1  0  0  0
 82155  1  0  0  0
 82156  1  0  0  0
M  CHG  1  82   1
M  ISO  4   1 100  68 101  80 101  81 100
M  END
> <chiral flag>
0

> <version>
0

> <s_m_source_file>
/data/baiqing/PycharmProjects/Reinvent-master-3.2/result/LINK_invent/BTK/process_docking_weight1_custom_sum_contain_oxygen_bond_distance_aromatic_linkinvent_7_9_3/rearranged_h_0132.sdf

> <i_m_source_file_index>
86

> <r_mmod_Potential_Energy-OPLS-2005>
-37.6671562194824

> <r_mmod_Stretch_Energy-OPLS-2005>
89.2558670043945

> <r_mmod_Bend_Energy-OPLS-2005>
176.998718261719

> <r_mmod_Torsional_Energy-OPLS-2005>
240.18049621582

> <r_mmod_Improper_Torsional_Energy-OPLS-2005>
5.40977430343628

> <r_mmod_Van_der_Waal_Energy-OPLS-2005>
133.726760864258

> <r_mmod_Electrostatic_Energy-OPLS-2005>
-278.037017822266

> <r_mmod_Solvation_Energy-OPLS-2005>
-458.652923583984

> <b_mmod_Minimization_Converged-OPLS-2005>
0

> <r_mmod_RMS_Derivative-OPLS-2005>
3.56062626838684

$$$$
88
                    3D
 Structure written by MMmdl.
165173  0  0  1  0            999 V2000
  -30.6572  -14.6333   20.4655 C   0  0  0  0  0  0
  -30.4197  -12.3807   19.4552 C   0  0  0  0  0  0
  -29.4967  -12.4949   18.2240 C   0  0  0  0  0  0
  -28.0214  -12.3406   18.6420 C   0  0  0  0  0  0
  -27.6476  -13.2250   19.8614 C   0  0  2  0  0  0
  -28.6971  -13.1159   20.9897 C   0  0  0  0  0  0
  -25.2543  -13.8203   20.5717 C   0  0  0  0  0  0
  -24.1814  -13.0453   20.9227 C   0  0  0  0  0  0
  -24.6399  -11.6931   20.8785 C   0  0  0  0  0  0
  -23.9069  -10.4302   21.0437 C   0  0  0  0  0  0
  -24.3613   -9.4215   21.9220 C   0  0  0  0  0  0
  -23.6290   -8.2242   22.0767 C   0  0  0  0  0  0
  -22.4277   -8.0286   21.3547 C   0  0  0  0  0  0
  -21.9913   -9.0265   20.4651 C   0  0  0  0  0  0
  -22.7240  -10.2153   20.3081 C   0  0  0  0  0  0
  -21.6850   -6.0740   22.5272 C   0  0  0  0  0  0
  -21.4003   -6.5648   23.8206 C   0  0  0  0  0  0
  -21.3664   -5.6803   24.9172 C   0  0  0  0  0  0
  -21.6055   -4.3066   24.7223 C   0  0  0  0  0  0
  -21.8822   -3.8148   23.4348 C   0  0  0  0  0  0
  -21.9179   -4.6963   22.3399 C   0  0  0  0  0  0
  -22.7830  -13.5243   21.1863 C   0  0  0  0  0  0
  -22.1662   -4.2154   21.0980 F   0  0  0  0  0  0
  -21.5636   -3.4543   25.7737 F   0  0  0  0  0  0
  -30.0061  -13.4306   20.4058 N   0  0  0  0  0  0
  -26.2971  -12.9397   20.3366 N   0  0  0  0  0  0
  -25.9332  -11.6543   20.5820 N   0  0  0  0  0  0
  -22.0466  -12.8224   22.0420 N   0  0  0  0  0  0
  -25.4251  -15.1913   20.4069 N   0  0  0  0  0  0
  -31.8409  -14.7313   20.1350 O   0  0  0  0  0  0
  -21.6640   -6.8882   21.4235 O   0  0  0  0  0  0
  -22.3522  -14.5547   20.6718 O   0  0  0  0  0  0
  -24.6247  -31.8544   23.2039 C   0  0  0  0  0  0
  -25.9071  -32.4759   23.8393 C   0  0  1  0  0  0
  -27.2508  -27.3479   20.1244 C   0  0  0  0  0  0
  -25.5869  -33.8578   24.2313 N   0  0  0  0  0  0
  -23.4216  -30.4747   21.5410 C   0  0  2  0  0  0
  -24.8751  -28.9271   20.0988 C   0  0  0  0  0  0
  -22.7475  -29.4586   22.4928 C   0  0  0  0  0  0
  -18.0307  -28.1357   22.8493 C   0  0  0  0  0  0
  -24.1471  -36.7360   23.2638 C   0  0  0  0  0  0
  -25.9557  -30.7936   21.3693 C   0  0  0  0  0  0
  -26.0307  -29.4226   20.7110 C   0  0  0  0  0  0
  -27.2136  -28.6374   20.7227 C   0  0  0  0  0  0
  -26.0827  -26.8823   19.4857 C   0  0  0  0  0  0
  -24.9022  -27.6628   19.4753 C   0  0  0  0  0  0
  -23.6351  -29.7996   20.1547 C   0  0  0  0  0  0
  -25.4094  -36.3127   24.0334 C   0  0  1  0  0  0
  -20.5903  -28.3667   23.1271 C   0  0  2  0  0  0
  -20.6789  -26.9385   22.5400 C   0  0  0  0  0  0
  -19.5759  -26.6366   21.5204 C   0  0  0  0  0  0
  -18.1937  -26.7914   22.1606 C   0  0  0  0  0  0
  -19.1553  -28.8833   23.2876 C   0  0  0  0  0  0
  -18.9467  -30.1443   23.8870 C   0  0  0  0  0  0
  -17.6461  -30.6568   24.0555 C   0  0  0  0  0  0
  -25.9017  -34.9465   23.5142 C   0  0  0  0  0  0
  -16.5358  -29.9068   23.6307 C   0  0  0  0  0  0
  -16.7289  -28.6482   23.0341 C   0  0  0  0  0  0
  -26.4464  -31.6586   25.0778 C   0  0  0  0  0  0
  -25.3736  -31.3640   26.1519 C   0  0  0  0  0  0
  -27.0340  -30.3024   24.6254 C   0  0  0  0  0  0
  -27.6027  -32.4349   25.7524 C   0  0  0  0  0  0
  -27.5592  -37.1805   24.8449 C   0  0  0  0  0  0
  -21.4190  -29.3021   22.3660 N   0  0  0  0  0  0
  -26.4288  -37.3814   23.9414 N   0  0  0  0  0  0
  -24.6862  -31.0545   22.0967 N   0  0  0  0  0  0
  -23.4196  -28.8144   23.3019 O   0  0  0  0  0  0
  -28.3793  -26.5545   20.3251 O   0  0  0  0  0  0
  -26.5588  -34.8907   22.4716 O   0  0  0  0  0  0
  -23.5418  -32.1328   23.7370 O   0  0  0  0  0  0
  -28.9973  -23.4492   21.1202 C   0  0  0  0  0  0
  -29.2543  -23.0331   18.6243 C   0  0  0  0  0  0
  -28.8997  -21.8936   21.3266 C   0  0  0  0  0  0
  -29.1748  -21.4830   18.8769 C   0  0  0  0  0  0
  -28.6088  -23.9850   19.7015 C   0  0  2  0  0  0
  -29.7446  -21.1347   20.2716 C   0  0  2  0  0  0
  -30.8274  -27.3414   19.4257 C   0  0  0  0  0  0
  -30.4368  -25.8524   19.4976 C   0  0  0  0  0  0
  -30.4365  -17.1753   20.7100 C   0  0  0  0  0  0
  -29.4857  -18.4192   20.3807 C   0  0  0  0  0  0
  -28.9110  -25.5452   19.4215 C   0  0  2  0  0  0
  -29.9130  -15.7620   20.6962 N   0  0  0  0  0  0
  -30.2240  -19.7227   20.5893 N   0  3  0  0  0  0
  -31.4654  -12.4729   19.1564 H   0  0  0  0  0  0
  -30.3273  -11.3963   19.9181 H   0  0  0  0  0  0
  -29.7549  -11.7372   17.4835 H   0  0  0  0  0  0
  -29.6439  -13.4608   17.7404 H   0  0  0  0  0  0
  -27.8566  -11.2902   18.8863 H   0  0  0  0  0  0
  -27.3637  -12.5641   17.8004 H   0  0  0  0  0  0
  -27.6575  -14.2531   19.5025 H   0  0  0  0  0  0
  -28.7072  -12.1115   21.4155 H   0  0  0  0  0  0
  -28.4583  -13.7908   21.8126 H   0  0  0  0  0  0
  -25.2747   -9.5692   22.4817 H   0  0  0  0  0  0
  -23.9994   -7.4631   22.7491 H   0  0  0  0  0  0
  -21.0848   -8.8798   19.8953 H   0  0  0  0  0  0
  -22.3701  -10.9709   19.6204 H   0  0  0  0  0  0
  -21.1996   -7.6157   23.9707 H   0  0  0  0  0  0
  -21.1498   -6.0538   25.9081 H   0  0  0  0  0  0
  -22.0593   -2.7606   23.2842 H   0  0  0  0  0  0
  -22.4068  -11.9854   22.4759 H   0  0  0  0  0  0
  -21.1103  -13.1281   22.2657 H   0  0  0  0  0  0
  -24.6558  -15.8472   20.4923 H   0  0  0  0  0  0
  -26.2689  -15.6178   20.0456 H   0  0  0  0  0  0
  -26.7171  -32.5407   23.1181 H   0  0  0  0  0  0
  -24.9958  -33.9702   25.0423 H   0  0  0  0  0  0
  -22.7177  -31.2965   21.3956 H   0  0  0  0  0  0
  -23.3733  -35.9693   23.3286 H   0  0  0  0  0  0
  -24.3554  -36.9024   22.2057 H   0  0  0  0  0  0
  -23.7221  -37.6553   23.6687 H   0  0  0  0  0  0
  -26.0784  -31.5565   20.5989 H   0  0  0  0  0  0
  -26.8388  -30.8456   21.9949 H   0  0  0  0  0  0
  -28.0985  -28.9991   21.2297 H   0  0  0  0  0  0
  -26.0625  -25.8904   19.0588 H   0  0  0  0  0  0
  -24.0126  -27.2725   19.0002 H   0  0  0  0  0  0
  -23.7515  -30.5722   19.3932 H   0  0  0  0  0  0
  -22.7562  -29.2220   19.8631 H   0  0  0  0  0  0
  -25.1290  -36.1989   25.0829 H   0  0  0  0  0  0
  -21.0016  -28.3274   24.1386 H   0  0  0  0  0  0
  -20.5685  -26.2297   23.3625 H   0  0  0  0  0  0
  -21.6654  -26.7414   22.1182 H   0  0  0  0  0  0
  -19.6905  -25.6283   21.1226 H   0  0  0  0  0  0
  -19.6682  -27.3168   20.6734 H   0  0  0  0  0  0
  -17.4222  -26.6700   21.3983 H   0  0  0  0  0  0
  -18.0286  -26.0043   22.8975 H   0  0  0  0  0  0
  -19.7949  -30.7255   24.2225 H   0  0  0  0  0  0
  -17.5023  -31.6231   24.5183 H   0  0  0  0  0  0
  -15.5344  -30.2952   23.7639 H   0  0  0  0  0  0
  -15.8710  -28.0786   22.7057 H   0  0  0  0  0  0
  -24.5951  -30.6951   25.7841 H   0  0  0  0  0  0
  -24.8867  -32.2743   26.5015 H   0  0  0  0  0  0
  -25.8093  -30.8788   27.0266 H   0  0  0  0  0  0
  -26.2918  -29.6693   24.1367 H   0  0  0  0  0  0
  -27.4142  -29.7346   25.4760 H   0  0  0  0  0  0
  -27.8754  -30.4343   23.9448 H   0  0  0  0  0  0
  -27.2680  -33.3690   26.2056 H   0  0  0  0  0  0
  -28.3831  -32.6834   25.0326 H   0  0  0  0  0  0
  -28.0735  -31.8535   26.5465 H   0  0  0  0  0  0
  -28.2567  -38.0146   24.7583 H   0  0  0  0  0  0
  -28.1138  -36.2678   24.6202 H   0  0  0  0  0  0
  -27.2300  -37.1371   25.8843 H   0  0  0  0  0  0
  -20.9405  -29.8733   21.6837 H   0  0  0  0  0  0
  -26.0197  -38.2897   24.1447 H   0  0  0  0  0  0
  -30.0206  -23.7357   21.3519 H   0  0  0  0  0  0
  -28.3828  -23.9568   21.8643 H   0  0  0  0  0  0
  -28.8342  -23.2599   17.6433 H   0  0  0  0  0  0
  -30.3152  -23.2668   18.5363 H   0  0  0  0  0  0
  -27.8560  -21.5764   21.2776 H   0  0  0  0  0  0
  -29.2464  -21.6533   22.3310 H   0  0  0  0  0  0
  -29.7437  -20.9742   18.1006 H   0  0  0  0  0  0
  -28.1450  -21.1347   18.7824 H   0  0  0  0  0  0
  -27.5293  -23.8612   19.6164 H   0  0  0  0  0  0
  -30.7113  -21.6406   20.2997 H   0  0  0  0  0  0
  -31.9105  -27.4520   19.5004 H   0  0  0  0  0  0
  -30.4036  -27.9211   20.2505 H   0  0  0  0  0  0
  -30.5052  -27.7991   18.4913 H   0  0  0  0  0  0
  -30.8532  -25.4681   20.4291 H   0  0  0  0  0  0
  -30.9668  -25.3348   18.6998 H   0  0  0  0  0  0
  -30.8659  -17.3278   21.7000 H   0  0  0  0  0  0
  -31.2831  -17.2271   20.0242 H   0  0  0  0  0  0
  -28.5960  -18.4024   21.0113 H   0  0  0  0  0  0
  -29.1432  -18.3599   19.3461 H   0  0  0  0  0  0
  -28.5743  -25.7934   18.4137 H   0  0  0  0  0  0
  -28.9418  -15.6251   20.9285 H   0  0  0  0  0  0
  -30.5107  -19.7358   21.5548 H   0  0  0  0  0  0
  -31.0776  -19.6239   20.0630 H   0  0  0  0  0  0
  1 25  1  0  0  0
  1 30  2  0  0  0
  1 82  1  0  0  0
  2  3  1  0  0  0
  2 25  1  0  0  0
  2 84  1  0  0  0
  2 85  1  0  0  0
  3  4  1  0  0  0
  3 86  1  0  0  0
  3 87  1  0  0  0
  4  5  1  0  0  0
  4 88  1  0  0  0
  4 89  1  0  0  0
  5  6  1  0  0  0
  5 26  1  0  0  0
  5 90  1  0  0  0
  6 25  1  0  0  0
  6 91  1  0  0  0
  6 92  1  0  0  0
  7  8  2  0  0  0
  7 26  1  0  0  0
  7 29  1  0  0  0
  8  9  1  0  0  0
  8 22  1  0  0  0
  9 10  1  0  0  0
  9 27  2  0  0  0
 10 11  2  0  0  0
 10 15  1  0  0  0
 11 12  1  0  0  0
 11 93  1  0  0  0
 12 13  2  0  0  0
 12 94  1  0  0  0
 13 14  1  0  0  0
 13 31  1  0  0  0
 14 15  2  0  0  0
 14 95  1  0  0  0
 15 96  1  0  0  0
 16 17  2  0  0  0
 16 21  1  0  0  0
 16 31  1  0  0  0
 17 18  1  0  0  0
 17 97  1  0  0  0
 18 19  2  0  0  0
 18 98  1  0  0  0
 19 20  1  0  0  0
 19 24  1  0  0  0
 20 21  2  0  0  0
 20 99  1  0  0  0
 21 23  1  0  0  0
 22 28  1  0  0  0
 22 32  2  0  0  0
 26 27  1  0  0  0
 28100  1  0  0  0
 28101  1  0  0  0
 29102  1  0  0  0
 29103  1  0  0  0
 33 34  1  0  0  0
 33 66  1  0  0  0
 33 70  2  0  0  0
 34 36  1  0  0  0
 34 59  1  0  0  0
 34104  1  0  0  0
 35 44  2  0  0  0
 35 45  1  0  0  0
 35 68  1  0  0  0
 36 56  1  0  0  0
 36105  1  0  0  0
 37 39  1  0  0  0
 37 47  1  0  0  0
 37 66  1  0  0  0
 37106  1  0  0  0
 38 43  2  0  0  0
 38 46  1  0  0  0
 38 47  1  0  0  0
 39 64  1  0  0  0
 39 67  2  0  0  0
 40 52  1  0  0  0
 40 53  2  0  0  0
 40 58  1  0  0  0
 41107  1  0  0  0
 41108  1  0  0  0
 41109  1  0  0  0
 41 48  1  0  0  0
 42 43  1  0  0  0
 42 66  1  0  0  0
 42110  1  0  0  0
 42111  1  0  0  0
 43 44  1  0  0  0
 44112  1  0  0  0
 45 46  2  0  0  0
 45113  1  0  0  0
 46114  1  0  0  0
 47115  1  0  0  0
 47116  1  0  0  0
 48 56  1  0  0  0
 48 65  1  0  0  0
 48117  1  0  0  0
 49 50  1  0  0  0
 49 53  1  0  0  0
 49 64  1  0  0  0
 49118  1  0  0  0
 50 51  1  0  0  0
 50119  1  0  0  0
 50120  1  0  0  0
 51 52  1  0  0  0
 51121  1  0  0  0
 51122  1  0  0  0
 52123  1  0  0  0
 52124  1  0  0  0
 53 54  1  0  0  0
 54 55  2  0  0  0
 54125  1  0  0  0
 55 57  1  0  0  0
 55126  1  0  0  0
 56 69  2  0  0  0
 57 58  2  0  0  0
 57127  1  0  0  0
 58128  1  0  0  0
 59 60  1  0  0  0
 59 61  1  0  0  0
 59 62  1  0  0  0
 60129  1  0  0  0
 60130  1  0  0  0
 60131  1  0  0  0
 61132  1  0  0  0
 61133  1  0  0  0
 61134  1  0  0  0
 62135  1  0  0  0
 62136  1  0  0  0
 62137  1  0  0  0
 63 65  1  0  0  0
 63138  1  0  0  0
 63139  1  0  0  0
 63140  1  0  0  0
 64141  1  0  0  0
 65142  1  0  0  0
 68 81  1  0  0  0
 71 73  1  0  0  0
 71143  1  0  0  0
 71144  1  0  0  0
 71 75  1  0  0  0
 72 74  1  0  0  0
 72 75  1  0  0  0
 72145  1  0  0  0
 72146  1  0  0  0
 73 76  1  0  0  0
 73147  1  0  0  0
 73148  1  0  0  0
 74 76  1  0  0  0
 74149  1  0  0  0
 74150  1  0  0  0
 75 81  1  0  0  0
 75151  1  0  0  0
 76 83  1  0  0  0
 76152  1  0  0  0
 77 78  1  0  0  0
 77153  1  0  0  0
 77154  1  0  0  0
 77155  1  0  0  0
 78156  1  0  0  0
 78157  1  0  0  0
 78 81  1  0  0  0
 79 80  1  0  0  0
 79 82  1  0  0  0
 79158  1  0  0  0
 79159  1  0  0  0
 80 83  1  0  0  0
 80160  1  0  0  0
 80161  1  0  0  0
 81162  1  0  0  0
 82163  1  0  0  0
 83164  1  0  0  0
 83165  1  0  0  0
M  CHG  1  83   1
M  ISO  4   1 100  68 101  81 101  82 100
M  END
> <chiral flag>
0

> <version>
0

> <s_m_source_file>
/data/baiqing/PycharmProjects/Reinvent-master-3.2/result/LINK_invent/BTK/process_docking_weight1_custom_sum_contain_oxygen_bond_distance_aromatic_linkinvent_7_9_3/rearranged_h_0132.sdf

> <i_m_source_file_index>
87

> <r_mmod_Potential_Energy-OPLS-2005>
-57.9697227478027

> <r_mmod_Stretch_Energy-OPLS-2005>
76.0481719970703

> <r_mmod_Bend_Energy-OPLS-2005>
200.555191040039

> <r_mmod_Torsional_Energy-OPLS-2005>
249.911346435547

> <r_mmod_Improper_Torsional_Energy-OPLS-2005>
5.33385419845581

> <r_mmod_Van_der_Waal_Energy-OPLS-2005>
121.345726013184

> <r_mmod_Electrostatic_Energy-OPLS-2005>
-289.881439208984

> <r_mmod_Solvation_Energy-OPLS-2005>
-472.853179931641

> <b_mmod_Minimization_Converged-OPLS-2005>
0

> <r_mmod_RMS_Derivative-OPLS-2005>
3.88229751586914

$$$$
89
                    3D
 Structure written by MMmdl.
160168  0  0  1  0            999 V2000
  -30.7154  -14.4483   20.6153 C   0  0  0  0  0  0
  -30.4227  -12.3093   19.4111 C   0  0  0  0  0  0
  -29.4904  -12.5173   18.2007 C   0  0  0  0  0  0
  -28.0125  -12.3771   18.6152 C   0  0  0  0  0  0
  -27.6636  -13.2060   19.8796 C   0  0  2  0  0  0
  -28.7051  -12.9685   20.9959 C   0  0  0  0  0  0
  -25.2594  -13.8159   20.5691 C   0  0  0  0  0  0
  -24.1840  -13.0434   20.9172 C   0  0  0  0  0  0
  -24.6394  -11.6901   20.8732 C   0  0  0  0  0  0
  -23.9058  -10.4289   21.0403 C   0  0  0  0  0  0
  -24.3609   -9.4212   21.9193 C   0  0  0  0  0  0
  -23.6283   -8.2250   22.0761 C   0  0  0  0  0  0
  -22.4273   -8.0282   21.3541 C   0  0  0  0  0  0
  -21.9907   -9.0255   20.4650 C   0  0  0  0  0  0
  -22.7227  -10.2138   20.3056 C   0  0  0  0  0  0
  -21.6849   -6.0736   22.5279 C   0  0  0  0  0  0
  -21.4009   -6.5638   23.8212 C   0  0  0  0  0  0
  -21.3661   -5.6793   24.9176 C   0  0  0  0  0  0
  -21.6046   -4.3055   24.7231 C   0  0  0  0  0  0
  -21.8818   -3.8146   23.4352 C   0  0  0  0  0  0
  -21.9191   -4.6963   22.3405 C   0  0  0  0  0  0
  -22.7864  -13.5233   21.1847 C   0  0  0  0  0  0
  -22.1661   -4.2150   21.0984 F   0  0  0  0  0  0
  -21.5635   -3.4540   25.7745 F   0  0  0  0  0  0
  -30.0377  -13.2800   20.4476 N   0  0  0  0  0  0
  -26.3033  -12.9328   20.3386 N   0  0  0  0  0  0
  -25.9323  -11.6484   20.5765 N   0  0  0  0  0  0
  -22.0510  -12.8223   22.0403 N   0  0  0  0  0  0
  -25.4321  -15.1877   20.4123 N   0  0  0  0  0  0
  -31.8096  -14.6746   20.0908 O   0  0  0  0  0  0
  -21.6635   -6.8879   21.4240 O   0  0  0  0  0  0
  -22.3551  -14.5548   20.6708 O   0  0  0  0  0  0
  -24.6155  -31.8671   23.2103 C   0  0  0  0  0  0
  -25.9045  -32.4815   23.8405 C   0  0  1  0  0  0
  -27.2305  -27.4265   20.0985 C   0  0  0  0  0  0
  -25.5899  -33.8617   24.2330 N   0  0  0  0  0  0
  -23.4028  -30.4914   21.5518 C   0  0  2  0  0  0
  -24.8476  -28.9563   20.1175 C   0  0  0  0  0  0
  -22.7414  -29.4652   22.4997 C   0  0  0  0  0  0
  -18.0268  -28.1377   22.8492 C   0  0  0  0  0  0
  -24.1473  -36.7306   23.2645 C   0  0  0  0  0  0
  -25.9330  -30.8315   21.3636 C   0  0  0  0  0  0
  -26.0101  -29.4660   20.7099 C   0  0  0  0  0  0
  -27.2075  -28.7116   20.6898 C   0  0  0  0  0  0
  -26.0481  -26.9340   19.5009 C   0  0  0  0  0  0
  -24.8624  -27.6906   19.5090 C   0  0  0  0  0  0
  -23.6103  -29.8239   20.1669 C   0  0  0  0  0  0
  -25.4101  -36.3100   24.0333 C   0  0  1  0  0  0
  -20.5861  -28.3665   23.1316 C   0  0  2  0  0  0
  -20.6752  -26.9400   22.5417 C   0  0  0  0  0  0
  -19.5735  -26.6378   21.5210 C   0  0  0  0  0  0
  -18.1905  -26.7924   22.1614 C   0  0  0  0  0  0
  -19.1518  -28.8836   23.2897 C   0  0  0  0  0  0
  -18.9450  -30.1442   23.8906 C   0  0  0  0  0  0
  -17.6455  -30.6589   24.0557 C   0  0  0  0  0  0
  -25.9032  -34.9470   23.5127 C   0  0  0  0  0  0
  -16.5346  -29.9084   23.6330 C   0  0  0  0  0  0
  -16.7257  -28.6495   23.0360 C   0  0  0  0  0  0
  -26.4482  -31.6607   25.0741 C   0  0  0  0  0  0
  -25.3748  -31.3673   26.1481 C   0  0  0  0  0  0
  -27.0359  -30.3065   24.6124 C   0  0  0  0  0  0
  -27.6028  -32.4363   25.7521 C   0  0  0  0  0  0
  -27.5566  -37.1808   24.8473 C   0  0  0  0  0  0
  -21.4140  -29.3036   22.3734 N   0  0  0  0  0  0
  -26.4287  -37.3789   23.9410 N   0  0  0  0  0  0
  -24.6690  -31.0775   22.1004 N   0  0  0  0  0  0
  -23.4188  -28.8183   23.3031 O   0  0  0  0  0  0
  -28.3948  -26.6840   20.0834 O   0  0  0  0  0  0
  -26.5596  -34.8920   22.4690 O   0  0  0  0  0  0
  -23.5343  -32.1423   23.7489 O   0  0  0  0  0  0
  -27.9679  -22.2916   20.9610 C   0  0  0  0  0  0
  -28.1071  -20.9795   21.4539 C   0  0  0  0  0  0
  -30.1327  -22.0326   19.9431 C   0  0  0  0  0  0
  -29.0047  -22.8522   20.1826 C   0  0  0  0  0  0
  -29.2605  -20.2408   21.1433 C   0  0  0  0  0  0
  -28.9193  -23.6297   17.1959 C   0  0  0  0  0  0
  -29.9067  -17.8550   20.8333 C   0  0  0  0  0  0
  -30.5600  -16.7296   21.6790 C   0  0  0  0  0  0
  -28.3047  -25.3350   20.5892 C   0  0  0  0  0  0
  -28.9321  -24.2918   19.6175 C   0  0  2  0  0  0
  -30.2534  -20.7585   20.3928 N   0  0  0  0  0  0
  -29.4145  -18.9508   21.6708 N   0  0  0  0  0  0
  -30.0781  -15.3852   21.3370 N   0  0  0  0  0  0
  -28.2400  -24.3331   18.3040 N   0  3  0  0  0  0
  -31.4659  -12.4140   19.1079 H   0  0  0  0  0  0
  -30.3275  -11.2934   19.7979 H   0  0  0  0  0  0
  -29.7278  -11.7992   17.4150 H   0  0  0  0  0  0
  -29.6593  -13.5066   17.7716 H   0  0  0  0  0  0
  -27.8186  -11.3201   18.8009 H   0  0  0  0  0  0
  -27.3611  -12.6636   17.7886 H   0  0  0  0  0  0
  -27.7149  -14.2577   19.5963 H   0  0  0  0  0  0
  -28.6800  -11.9267   21.3191 H   0  0  0  0  0  0
  -28.4592  -13.5491   21.8862 H   0  0  0  0  0  0
  -25.2750   -9.5692   22.4774 H   0  0  0  0  0  0
  -23.9993   -7.4643   22.7485 H   0  0  0  0  0  0
  -21.0841   -8.8771   19.8957 H   0  0  0  0  0  0
  -22.3683  -10.9678   19.6173 H   0  0  0  0  0  0
  -21.1996   -7.6148   23.9711 H   0  0  0  0  0  0
  -21.1486   -6.0529   25.9078 H   0  0  0  0  0  0
  -22.0599   -2.7612   23.2851 H   0  0  0  0  0  0
  -22.4120  -11.9859   22.4752 H   0  0  0  0  0  0
  -21.1144  -13.1259   22.2643 H   0  0  0  0  0  0
  -24.6689  -15.8460   20.5253 H   0  0  0  0  0  0
  -26.2917  -15.6270   20.1081 H   0  0  0  0  0  0
  -26.7117  -32.5522   23.1173 H   0  0  0  0  0  0
  -25.0082  -33.9784   25.0497 H   0  0  0  0  0  0
  -22.6900  -31.3073   21.4139 H   0  0  0  0  0  0
  -23.3726  -35.9649   23.3328 H   0  0  0  0  0  0
  -24.3550  -36.8921   22.2056 H   0  0  0  0  0  0
  -23.7238  -37.6514   23.6670 H   0  0  0  0  0  0
  -26.0463  -31.5966   20.5949 H   0  0  0  0  0  0
  -26.8203  -30.8840   21.9829 H   0  0  0  0  0  0
  -28.1080  -29.1044   21.1414 H   0  0  0  0  0  0
  -26.0258  -25.9676   19.0211 H   0  0  0  0  0  0
  -23.9680  -27.2949   19.0458 H   0  0  0  0  0  0
  -23.7170  -30.5981   19.4067 H   0  0  0  0  0  0
  -22.7333  -29.2438   19.8746 H   0  0  0  0  0  0
  -25.1277  -36.1967   25.0826 H   0  0  0  0  0  0
  -20.9944  -28.3233   24.1438 H   0  0  0  0  0  0
  -20.5661  -26.2274   23.3600 H   0  0  0  0  0  0
  -21.6626  -26.7438   22.1217 H   0  0  0  0  0  0
  -19.6893  -25.6285   21.1247 H   0  0  0  0  0  0
  -19.6678  -27.3174   20.6729 H   0  0  0  0  0  0
  -17.4189  -26.6692   21.3997 H   0  0  0  0  0  0
  -18.0278  -26.0054   22.8988 H   0  0  0  0  0  0
  -19.7931  -30.7247   24.2286 H   0  0  0  0  0  0
  -17.5018  -31.6272   24.5153 H   0  0  0  0  0  0
  -15.5345  -30.2994   23.7654 H   0  0  0  0  0  0
  -15.8651  -28.0815   22.7093 H   0  0  0  0  0  0
  -24.5974  -30.6957   25.7825 H   0  0  0  0  0  0
  -24.8861  -32.2793   26.4911 H   0  0  0  0  0  0
  -25.8119  -30.8886   27.0251 H   0  0  0  0  0  0
  -26.2922  -29.6780   24.1209 H   0  0  0  0  0  0
  -27.4187  -29.7349   25.4591 H   0  0  0  0  0  0
  -27.8721  -30.4424   23.9260 H   0  0  0  0  0  0
  -27.2629  -33.3672   26.2079 H   0  0  0  0  0  0
  -28.3847  -32.6921   25.0358 H   0  0  0  0  0  0
  -28.0686  -31.8509   26.5460 H   0  0  0  0  0  0
  -28.2600  -38.0093   24.7514 H   0  0  0  0  0  0
  -28.1051  -36.2621   24.6324 H   0  0  0  0  0  0
  -27.2271  -37.1493   25.8876 H   0  0  0  0  0  0
  -20.9301  -29.8790   21.6982 H   0  0  0  0  0  0
  -26.0166  -38.2865   24.1414 H   0  0  0  0  0  0
  -27.0707  -22.8464   21.1906 H   0  0  0  0  0  0
  -27.3189  -20.5588   22.0638 H   0  0  0  0  0  0
  -30.9589  -22.4029   19.3545 H   0  0  0  0  0  0
  -28.3903  -23.8069   16.2592 H   0  0  0  0  0  0
  -28.9445  -22.5523   17.3610 H   0  0  0  0  0  0
  -29.9426  -23.9845   17.0707 H   0  0  0  0  0  0
  -29.0538  -17.4648   20.2756 H   0  0  0  0  0  0
  -30.6176  -18.2155   20.0886 H   0  0  0  0  0  0
  -30.3429  -16.8723   22.7389 H   0  0  0  0  0  0
  -31.6474  -16.7903   21.6002 H   0  0  0  0  0  0
  -28.8537  -25.3135   21.5308 H   0  0  0  0  0  0
  -27.2814  -25.0597   20.8456 H   0  0  0  0  0  0
  -29.9605  -24.6182   19.4515 H   0  0  0  0  0  0
  -28.6689  -18.6733   22.3004 H   0  0  0  0  0  0
  -29.1824  -15.1168   21.7152 H   0  0  0  0  0  0
  -27.3012  -23.9748   18.3835 H   0  0  0  0  0  0
  -28.1694  -25.3023   18.0311 H   0  0  0  0  0  0
  1 25  1  0  0  0
  1 30  2  0  0  0
  1 83  1  0  0  0
  2  3  1  0  0  0
  2 25  1  0  0  0
  2 85  1  0  0  0
  2 86  1  0  0  0
  3  4  1  0  0  0
  3 87  1  0  0  0
  3 88  1  0  0  0
  4  5  1  0  0  0
  4 89  1  0  0  0
  4 90  1  0  0  0
  5  6  1  0  0  0
  5 26  1  0  0  0
  5 91  1  0  0  0
  6 25  1  0  0  0
  6 92  1  0  0  0
  6 93  1  0  0  0
  7  8  2  0  0  0
  7 26  1  0  0  0
  7 29  1  0  0  0
  8  9  1  0  0  0
  8 22  1  0  0  0
  9 10  1  0  0  0
  9 27  2  0  0  0
 10 11  2  0  0  0
 10 15  1  0  0  0
 11 12  1  0  0  0
 11 94  1  0  0  0
 12 13  2  0  0  0
 12 95  1  0  0  0
 13 14  1  0  0  0
 13 31  1  0  0  0
 14 15  2  0  0  0
 14 96  1  0  0  0
 15 97  1  0  0  0
 16 17  2  0  0  0
 16 21  1  0  0  0
 16 31  1  0  0  0
 17 18  1  0  0  0
 17 98  1  0  0  0
 18 19  2  0  0  0
 18 99  1  0  0  0
 19 20  1  0  0  0
 19 24  1  0  0  0
 20 21  2  0  0  0
 20100  1  0  0  0
 21 23  1  0  0  0
 22 28  1  0  0  0
 22 32  2  0  0  0
 26 27  1  0  0  0
 28101  1  0  0  0
 28102  1  0  0  0
 29103  1  0  0  0
 29104  1  0  0  0
 33 34  1  0  0  0
 33 66  1  0  0  0
 33 70  2  0  0  0
 34 36  1  0  0  0
 34 59  1  0  0  0
 34105  1  0  0  0
 35 44  2  0  0  0
 35 45  1  0  0  0
 35 68  1  0  0  0
 36 56  1  0  0  0
 36106  1  0  0  0
 37 39  1  0  0  0
 37 47  1  0  0  0
 37 66  1  0  0  0
 37107  1  0  0  0
 38 43  2  0  0  0
 38 46  1  0  0  0
 38 47  1  0  0  0
 39 64  1  0  0  0
 39 67  2  0  0  0
 40 52  1  0  0  0
 40 53  2  0  0  0
 40 58  1  0  0  0
 41108  1  0  0  0
 41109  1  0  0  0
 41110  1  0  0  0
 41 48  1  0  0  0
 42 43  1  0  0  0
 42 66  1  0  0  0
 42111  1  0  0  0
 42112  1  0  0  0
 43 44  1  0  0  0
 44113  1  0  0  0
 45 46  2  0  0  0
 45114  1  0  0  0
 46115  1  0  0  0
 47116  1  0  0  0
 47117  1  0  0  0
 48 56  1  0  0  0
 48 65  1  0  0  0
 48118  1  0  0  0
 49 50  1  0  0  0
 49 53  1  0  0  0
 49 64  1  0  0  0
 49119  1  0  0  0
 50 51  1  0  0  0
 50120  1  0  0  0
 50121  1  0  0  0
 51 52  1  0  0  0
 51122  1  0  0  0
 51123  1  0  0  0
 52124  1  0  0  0
 52125  1  0  0  0
 53 54  1  0  0  0
 54 55  2  0  0  0
 54126  1  0  0  0
 55 57  1  0  0  0
 55127  1  0  0  0
 56 69  2  0  0  0
 57 58  2  0  0  0
 57128  1  0  0  0
 58129  1  0  0  0
 59 60  1  0  0  0
 59 61  1  0  0  0
 59 62  1  0  0  0
 60130  1  0  0  0
 60131  1  0  0  0
 60132  1  0  0  0
 61133  1  0  0  0
 61134  1  0  0  0
 61135  1  0  0  0
 62136  1  0  0  0
 62137  1  0  0  0
 62138  1  0  0  0
 63 65  1  0  0  0
 63139  1  0  0  0
 63140  1  0  0  0
 63141  1  0  0  0
 64142  1  0  0  0
 65143  1  0  0  0
 68 79  1  0  0  0
 71 72  2  0  0  0
 71 74  1  0  0  0
 71144  1  0  0  0
 72 75  1  0  0  0
 72145  1  0  0  0
 73 74  2  0  0  0
 73 81  1  0  0  0
 73146  1  0  0  0
 74 80  1  0  0  0
 75 81  2  0  0  0
 75 82  1  0  0  0
 76 84  1  0  0  0
 76147  1  0  0  0
 76148  1  0  0  0
 76149  1  0  0  0
 77 78  1  0  0  0
 77 82  1  0  0  0
 77150  1  0  0  0
 77151  1  0  0  0
 78 83  1  0  0  0
 78152  1  0  0  0
 78153  1  0  0  0
 79154  1  0  0  0
 79155  1  0  0  0
 79 80  1  0  0  0
 80 84  1  0  0  0
 80156  1  0  0  0
 82157  1  0  0  0
 83158  1  0  0  0
 84159  1  0  0  0
 84160  1  0  0  0
M  CHG  1  84   1
M  ISO  4   1 100  68 101  79 101  83 100
M  END
> <chiral flag>
0

> <version>
0

> <s_m_source_file>
/data/baiqing/PycharmProjects/Reinvent-master-3.2/result/LINK_invent/BTK/process_docking_weight1_custom_sum_contain_oxygen_bond_distance_aromatic_linkinvent_7_9_3/rearranged_h_0132.sdf

> <i_m_source_file_index>
88

> <r_mmod_Potential_Energy-OPLS-2005>
-487.622955322266

> <r_mmod_Stretch_Energy-OPLS-2005>
38.3720626831055

> <r_mmod_Bend_Energy-OPLS-2005>
100.110069274902

> <r_mmod_Torsional_Energy-OPLS-2005>
215.739929199219

> <r_mmod_Improper_Torsional_Energy-OPLS-2005>
5.6080527305603

> <r_mmod_Van_der_Waal_Energy-OPLS-2005>
154.084548950195

> <r_mmod_Electrostatic_Energy-OPLS-2005>
-530.380065917969

> <r_mmod_Solvation_Energy-OPLS-2005>
-481.746459960938

> <b_mmod_Minimization_Converged-OPLS-2005>
0

> <r_mmod_RMS_Derivative-OPLS-2005>
1.17694449424744

$$$$
90
                    3D
 Structure written by MMmdl.
157166  0  0  1  0            999 V2000
  -30.5540  -14.8780   20.4277 C   0  0  0  0  0  0
  -30.4420  -12.5444   19.4783 C   0  0  0  0  0  0
  -29.5130  -12.4996   18.2451 C   0  0  0  0  0  0
  -28.0471  -12.2927   18.6714 C   0  0  0  0  0  0
  -27.6339  -13.2300   19.8367 C   0  0  2  0  0  0
  -28.6776  -13.2366   20.9712 C   0  0  0  0  0  0
  -25.2519  -13.8204   20.5685 C   0  0  0  0  0  0
  -24.1812  -13.0450   20.9189 C   0  0  0  0  0  0
  -24.6403  -11.6933   20.8753 C   0  0  0  0  0  0
  -23.9091  -10.4305   21.0400 C   0  0  0  0  0  0
  -24.3642   -9.4212   21.9166 C   0  0  0  0  0  0
  -23.6300   -8.2255   22.0742 C   0  0  0  0  0  0
  -22.4271   -8.0305   21.3544 C   0  0  0  0  0  0
  -21.9919   -9.0285   20.4642 C   0  0  0  0  0  0
  -22.7277  -10.2145   20.3041 C   0  0  0  0  0  0
  -21.6862   -6.0748   22.5275 C   0  0  0  0  0  0
  -21.4033   -6.5642   23.8214 C   0  0  0  0  0  0
  -21.3634   -5.6788   24.9173 C   0  0  0  0  0  0
  -21.6033   -4.3054   24.7211 C   0  0  0  0  0  0
  -21.8834   -3.8154   23.4336 C   0  0  0  0  0  0
  -21.9198   -4.6977   22.3401 C   0  0  0  0  0  0
  -22.7844  -13.5229   21.1846 C   0  0  0  0  0  0
  -22.1674   -4.2170   21.0978 F   0  0  0  0  0  0
  -21.5607   -3.4534   25.7711 F   0  0  0  0  0  0
  -29.9555  -13.6304   20.3683 N   0  0  0  0  0  0
  -26.2913  -12.9391   20.3240 N   0  0  0  0  0  0
  -25.9323  -11.6544   20.5759 N   0  0  0  0  0  0
  -22.0505  -12.8197   22.0390 N   0  0  0  0  0  0
  -25.4263  -15.1932   20.4137 N   0  0  0  0  0  0
  -31.7609  -14.9553   20.1838 O   0  0  0  0  0  0
  -21.6651   -6.8892   21.4237 O   0  0  0  0  0  0
  -22.3521  -14.5539   20.6696 O   0  0  0  0  0  0
  -24.6343  -31.8500   23.1901 C   0  0  0  0  0  0
  -25.9159  -32.4728   23.8274 C   0  0  1  0  0  0
  -27.2174  -27.2002   20.1511 C   0  0  0  0  0  0
  -25.5954  -33.8523   24.2242 N   0  0  0  0  0  0
  -23.4334  -30.4670   21.5347 C   0  0  2  0  0  0
  -24.8797  -28.8922   20.1143 C   0  0  0  0  0  0
  -22.7534  -29.4553   22.4884 C   0  0  0  0  0  0
  -18.0307  -28.1410   22.8466 C   0  0  0  0  0  0
  -24.1483  -36.7261   23.2630 C   0  0  0  0  0  0
  -25.9798  -30.7446   21.3733 C   0  0  0  0  0  0
  -26.0513  -29.3555   20.7261 C   0  0  0  0  0  0
  -27.2186  -28.5229   20.7277 C   0  0  0  0  0  0
  -26.0250  -26.8083   19.5095 C   0  0  0  0  0  0
  -24.8721  -27.6290   19.4956 C   0  0  0  0  0  0
  -23.6574  -29.7927   20.1531 C   0  0  0  0  0  0
  -25.4111  -36.3043   24.0321 C   0  0  1  0  0  0
  -20.5911  -28.3700   23.1259 C   0  0  2  0  0  0
  -20.6798  -26.9411   22.5397 C   0  0  0  0  0  0
  -19.5768  -26.6391   21.5206 C   0  0  0  0  0  0
  -18.1945  -26.7955   22.1611 C   0  0  0  0  0  0
  -19.1559  -28.8884   23.2858 C   0  0  0  0  0  0
  -18.9469  -30.1487   23.8875 C   0  0  0  0  0  0
  -17.6466  -30.6599   24.0568 C   0  0  0  0  0  0
  -25.9049  -34.9412   23.5076 C   0  0  0  0  0  0
  -16.5367  -29.9078   23.6345 C   0  0  0  0  0  0
  -16.7287  -28.6516   23.0329 C   0  0  0  0  0  0
  -26.4534  -31.6557   25.0672 C   0  0  0  0  0  0
  -25.3770  -31.3742   26.1419 C   0  0  0  0  0  0
  -27.0355  -30.2948   24.6176 C   0  0  0  0  0  0
  -27.6089  -32.4293   25.7458 C   0  0  0  0  0  0
  -27.5587  -37.1785   24.8472 C   0  0  0  0  0  0
  -21.4244  -29.3020   22.3633 N   0  0  0  0  0  0
  -26.4295  -37.3739   23.9414 N   0  0  0  0  0  0
  -24.7026  -31.0404   22.0911 N   0  0  0  0  0  0
  -23.4219  -28.8108   23.3002 O   0  0  0  0  0  0
  -28.3533  -26.3455   20.1447 O   0  0  0  0  0  0
  -26.5590  -34.8900   22.4630 O   0  0  0  0  0  0
  -23.5477  -32.1368   23.7171 O   0  0  0  0  0  0
  -27.8591  -22.5060   20.8459 C   0  0  0  0  0  0
  -27.5443  -23.9229   20.7250 C   0  0  0  0  0  0
  -29.6530  -24.2863   19.7221 C   0  0  0  0  0  0
  -29.1054  -21.9117   20.4376 C   0  0  0  0  0  0
  -29.9861  -22.8865   19.8492 C   0  0  0  0  0  0
  -28.4444  -24.8967   20.1726 C   0  0  0  0  0  0
  -31.4102  -22.5013   19.4438 C   0  0  0  0  0  0
  -31.1977  -20.5822   21.0052 C   0  0  0  0  0  0
  -29.6659  -20.4308   20.8852 C   0  0  2  0  0  0
  -29.2887  -18.9088   20.2943 C   0  0  0  0  0  0
  -30.1739  -17.5490   20.7318 C   0  0  0  0  0  0
  -29.7681  -16.0471   20.5592 N   0  0  0  0  0  0
  -31.7722  -21.1033   19.7495 N   0  3  0  0  0  0
  -31.4733  -12.7061   19.1585 H   0  0  0  0  0  0
  -30.4407  -11.5890   20.0055 H   0  0  0  0  0  0
  -29.8214  -11.7019   17.5682 H   0  0  0  0  0  0
  -29.6016  -13.4310   17.6829 H   0  0  0  0  0  0
  -27.9383  -11.2512   18.9765 H   0  0  0  0  0  0
  -27.3812  -12.4274   17.8196 H   0  0  0  0  0  0
  -27.6089  -14.2321   19.4080 H   0  0  0  0  0  0
  -28.7543  -12.2577   21.4450 H   0  0  0  0  0  0
  -28.3887  -13.9364   21.7558 H   0  0  0  0  0  0
  -25.2801   -9.5687   22.4725 H   0  0  0  0  0  0
  -24.0017   -7.4642   22.7451 H   0  0  0  0  0  0
  -21.0858   -8.8840   19.8935 H   0  0  0  0  0  0
  -22.3775  -10.9692   19.6138 H   0  0  0  0  0  0
  -21.2057   -7.6151   23.9725 H   0  0  0  0  0  0
  -21.1420   -6.0513   25.9066 H   0  0  0  0  0  0
  -22.0630   -2.7617   23.2839 H   0  0  0  0  0  0
  -22.4157  -11.9860   22.4757 H   0  0  0  0  0  0
  -21.1119  -13.1208   22.2619 H   0  0  0  0  0  0
  -24.6679  -15.8525   20.5462 H   0  0  0  0  0  0
  -26.2743  -15.6323   20.0799 H   0  0  0  0  0  0
  -26.7212  -32.5400   23.0992 H   0  0  0  0  0  0
  -25.0216  -33.9660   25.0468 H   0  0  0  0  0  0
  -22.7271  -31.2868   21.3819 H   0  0  0  0  0  0
  -23.3756  -35.9583   23.3271 H   0  0  0  0  0  0
  -24.3582  -36.8897   22.2048 H   0  0  0  0  0  0
  -23.7204  -37.6441   23.6666 H   0  0  0  0  0  0
  -26.1124  -31.4966   20.5942 H   0  0  0  0  0  0
  -26.8570  -30.8063   22.0055 H   0  0  0  0  0  0
  -28.1267  -28.8798   21.1943 H   0  0  0  0  0  0
  -25.9746  -25.8412   19.0307 H   0  0  0  0  0  0
  -23.9729  -27.2717   19.0134 H   0  0  0  0  0  0
  -23.7975  -30.5666   19.3965 H   0  0  0  0  0  0
  -22.7726  -29.2346   19.8418 H   0  0  0  0  0  0
  -25.1273  -36.1886   25.0807 H   0  0  0  0  0  0
  -20.9999  -28.3288   24.1386 H   0  0  0  0  0  0
  -20.5714  -26.2293   23.3598 H   0  0  0  0  0  0
  -21.6659  -26.7451   22.1173 H   0  0  0  0  0  0
  -19.6912  -25.6293   21.1239 H   0  0  0  0  0  0
  -19.6717  -27.3203   20.6734 H   0  0  0  0  0  0
  -17.4211  -26.6698   21.4016 H   0  0  0  0  0  0
  -18.0347  -26.0130   22.9037 H   0  0  0  0  0  0
  -19.7937  -30.7325   24.2227 H   0  0  0  0  0  0
  -17.5003  -31.6274   24.5160 H   0  0  0  0  0  0
  -15.5354  -30.2951   23.7704 H   0  0  0  0  0  0
  -15.8699  -28.0841   22.7013 H   0  0  0  0  0  0
  -24.5898  -30.7141   25.7755 H   0  0  0  0  0  0
  -24.9053  -32.2943   26.4880 H   0  0  0  0  0  0
  -25.8112  -30.8880   27.0165 H   0  0  0  0  0  0
  -26.2923  -29.6690   24.1228 H   0  0  0  0  0  0
  -27.4016  -29.7215   25.4699 H   0  0  0  0  0  0
  -27.8810  -30.4159   23.9406 H   0  0  0  0  0  0
  -27.2714  -33.3609   26.2005 H   0  0  0  0  0  0
  -28.3948  -32.6824   25.0332 H   0  0  0  0  0  0
  -28.0707  -31.8439   26.5418 H   0  0  0  0  0  0
  -28.2578  -38.0103   24.7526 H   0  0  0  0  0  0
  -28.1106  -36.2630   24.6289 H   0  0  0  0  0  0
  -27.2324  -37.1430   25.8879 H   0  0  0  0  0  0
  -20.9447  -29.8717   21.6812 H   0  0  0  0  0  0
  -26.0172  -38.2803   24.1433 H   0  0  0  0  0  0
  -27.1329  -21.8764   21.3448 H   0  0  0  0  0  0
  -26.5988  -24.2669   21.1221 H   0  0  0  0  0  0
  -30.4064  -24.9482   19.3137 H   0  0  0  0  0  0
  -32.1103  -23.1580   19.9652 H   0  0  0  0  0  0
  -31.5555  -22.6872   18.3788 H   0  0  0  0  0  0
  -31.6847  -19.6471   21.2715 H   0  0  0  0  0  0
  -31.4337  -21.2702   21.8203 H   0  0  0  0  0  0
  -29.3171  -20.3591   21.9171 H   0  0  0  0  0  0
  -29.2957  -18.9609   19.2059 H   0  0  0  0  0  0
  -28.2452  -18.7226   20.5530 H   0  0  0  0  0  0
  -30.3672  -17.6412   21.8003 H   0  0  0  0  0  0
  -31.1547  -17.6449   20.2666 H   0  0  0  0  0  0
  -28.7820  -15.8606   20.6631 H   0  0  0  0  0  0
  -32.7778  -21.0522   19.7921 H   0  0  0  0  0  0
  -31.4673  -20.5271   18.9843 H   0  0  0  0  0  0
  1 25  1  0  0  0
  1 30  2  0  0  0
  1 82  1  0  0  0
  2  3  1  0  0  0
  2 25  1  0  0  0
  2 84  1  0  0  0
  2 85  1  0  0  0
  3  4  1  0  0  0
  3 86  1  0  0  0
  3 87  1  0  0  0
  4  5  1  0  0  0
  4 88  1  0  0  0
  4 89  1  0  0  0
  5  6  1  0  0  0
  5 26  1  0  0  0
  5 90  1  0  0  0
  6 25  1  0  0  0
  6 91  1  0  0  0
  6 92  1  0  0  0
  7  8  2  0  0  0
  7 26  1  0  0  0
  7 29  1  0  0  0
  8  9  1  0  0  0
  8 22  1  0  0  0
  9 10  1  0  0  0
  9 27  2  0  0  0
 10 11  2  0  0  0
 10 15  1  0  0  0
 11 12  1  0  0  0
 11 93  1  0  0  0
 12 13  2  0  0  0
 12 94  1  0  0  0
 13 14  1  0  0  0
 13 31  1  0  0  0
 14 15  2  0  0  0
 14 95  1  0  0  0
 15 96  1  0  0  0
 16 17  2  0  0  0
 16 21  1  0  0  0
 16 31  1  0  0  0
 17 18  1  0  0  0
 17 97  1  0  0  0
 18 19  2  0  0  0
 18 98  1  0  0  0
 19 20  1  0  0  0
 19 24  1  0  0  0
 20 21  2  0  0  0
 20 99  1  0  0  0
 21 23  1  0  0  0
 22 28  1  0  0  0
 22 32  2  0  0  0
 26 27  1  0  0  0
 28100  1  0  0  0
 28101  1  0  0  0
 29102  1  0  0  0
 29103  1  0  0  0
 33 34  1  0  0  0
 33 66  1  0  0  0
 33 70  2  0  0  0
 34 36  1  0  0  0
 34 59  1  0  0  0
 34104  1  0  0  0
 35 44  2  0  0  0
 35 45  1  0  0  0
 35 68  1  0  0  0
 36 56  1  0  0  0
 36105  1  0  0  0
 37 39  1  0  0  0
 37 47  1  0  0  0
 37 66  1  0  0  0
 37106  1  0  0  0
 38 43  2  0  0  0
 38 46  1  0  0  0
 38 47  1  0  0  0
 39 64  1  0  0  0
 39 67  2  0  0  0
 40 52  1  0  0  0
 40 53  2  0  0  0
 40 58  1  0  0  0
 41107  1  0  0  0
 41108  1  0  0  0
 41109  1  0  0  0
 41 48  1  0  0  0
 42 43  1  0  0  0
 42 66  1  0  0  0
 42110  1  0  0  0
 42111  1  0  0  0
 43 44  1  0  0  0
 44112  1  0  0  0
 45 46  2  0  0  0
 45113  1  0  0  0
 46114  1  0  0  0
 47115  1  0  0  0
 47116  1  0  0  0
 48 56  1  0  0  0
 48 65  1  0  0  0
 48117  1  0  0  0
 49 50  1  0  0  0
 49 53  1  0  0  0
 49 64  1  0  0  0
 49118  1  0  0  0
 50 51  1  0  0  0
 50119  1  0  0  0
 50120  1  0  0  0
 51 52  1  0  0  0
 51121  1  0  0  0
 51122  1  0  0  0
 52123  1  0  0  0
 52124  1  0  0  0
 53 54  1  0  0  0
 54 55  2  0  0  0
 54125  1  0  0  0
 55 57  1  0  0  0
 55126  1  0  0  0
 56 69  2  0  0  0
 57 58  2  0  0  0
 57127  1  0  0  0
 58128  1  0  0  0
 59 60  1  0  0  0
 59 61  1  0  0  0
 59 62  1  0  0  0
 60129  1  0  0  0
 60130  1  0  0  0
 60131  1  0  0  0
 61132  1  0  0  0
 61133  1  0  0  0
 61134  1  0  0  0
 62135  1  0  0  0
 62136  1  0  0  0
 62137  1  0  0  0
 63 65  1  0  0  0
 63138  1  0  0  0
 63139  1  0  0  0
 63140  1  0  0  0
 64141  1  0  0  0
 65142  1  0  0  0
 68 76  1  0  0  0
 71 72  2  0  0  0
 71 74  1  0  0  0
 71143  1  0  0  0
 72 76  1  0  0  0
 72144  1  0  0  0
 73 75  1  0  0  0
 73 76  2  0  0  0
 73145  1  0  0  0
 74 75  2  0  0  0
 74 79  1  0  0  0
 75 77  1  0  0  0
 77 83  1  0  0  0
 77146  1  0  0  0
 77147  1  0  0  0
 78 79  1  0  0  0
 78 83  1  0  0  0
 78148  1  0  0  0
 78149  1  0  0  0
 79 80  1  0  0  0
 79150  1  0  0  0
 80 81  1  0  0  0
 80151  1  0  0  0
 80152  1  0  0  0
 81 82  1  0  0  0
 81153  1  0  0  0
 81154  1  0  0  0
 82155  1  0  0  0
 83156  1  0  0  0
 83157  1  0  0  0
M  CHG  1  83   1
M  ISO  4   1 100  68 101  76 101  82 100
M  END
> <chiral flag>
0

> <version>
0

> <s_m_source_file>
/data/baiqing/PycharmProjects/Reinvent-master-3.2/result/LINK_invent/BTK/process_docking_weight1_custom_sum_contain_oxygen_bond_distance_aromatic_linkinvent_7_9_3/rearranged_h_0132.sdf

> <i_m_source_file_index>
89

> <r_mmod_Potential_Energy-OPLS-2005>
156.867797851562

> <r_mmod_Stretch_Energy-OPLS-2005>
190.772735595703

> <r_mmod_Bend_Energy-OPLS-2005>
244.850860595703

> <r_mmod_Torsional_Energy-OPLS-2005>
242.359283447266

> <r_mmod_Improper_Torsional_Energy-OPLS-2005>
7.57840585708618

> <r_mmod_Van_der_Waal_Energy-OPLS-2005>
136.054748535156

> <r_mmod_Electrostatic_Energy-OPLS-2005>
-318.783325195312

> <r_mmod_Solvation_Energy-OPLS-2005>
-481.697692871094

> <b_mmod_Minimization_Converged-OPLS-2005>
0

> <r_mmod_RMS_Derivative-OPLS-2005>
3.34278249740601

$$$$
91
                    3D
 Structure written by MMmdl.
174182  0  0  1  0            999 V2000
  -31.1789  -14.7360   19.6352 C   0  0  0  0  0  0
  -30.7584  -12.5734   20.3901 C   0  0  0  0  0  0
  -29.5373  -11.3502   19.7045 C   0  0  0  0  0  0
  -27.9224  -11.8083   19.0218 C   0  0  0  0  0  0
  -27.2599  -13.5000   19.2545 C   0  0  2  0  0  0
  -28.5458  -14.9460   19.8029 C   0  0  0  0  0  0
  -25.0515  -13.9571   20.4743 C   0  0  0  0  0  0
  -24.0622  -13.1343   20.9398 C   0  0  0  0  0  0
  -24.5396  -11.7937   20.8769 C   0  0  0  0  0  0
  -23.8780  -10.4824   21.0316 C   0  0  0  0  0  0
  -24.3639   -9.4723   21.9004 C   0  0  0  0  0  0
  -23.6501   -8.2605   22.0618 C   0  0  0  0  0  0
  -22.4520   -8.0377   21.3399 C   0  0  0  0  0  0
  -22.0044   -9.0200   20.4411 C   0  0  0  0  0  0
  -22.7101  -10.2250   20.2785 C   0  0  0  0  0  0
  -21.7000   -6.0827   22.5250 C   0  0  0  0  0  0
  -21.4115   -6.5682   23.8199 C   0  0  0  0  0  0
  -21.3710   -5.6783   24.9121 C   0  0  0  0  0  0
  -21.6027   -4.3049   24.7138 C   0  0  0  0  0  0
  -21.8815   -3.8202   23.4253 C   0  0  0  0  0  0
  -21.9220   -4.7029   22.3329 C   0  0  0  0  0  0
  -22.6750  -13.5603   21.2361 C   0  0  0  0  0  0
  -22.1687   -4.2176   21.0918 F   0  0  0  0  0  0
  -21.5600   -3.4540   25.7689 F   0  0  0  0  0  0
  -30.2812  -14.3326   20.3990 N   0  0  0  0  0  0
  -26.0688  -13.1542   20.0999 N   0  0  0  0  0  0
  -25.7761  -11.8530   20.4691 N   0  0  0  0  0  0
  -21.9891  -12.8272   22.1050 N   0  0  0  0  0  0
  -25.1540  -15.3013   20.1977 N   0  0  0  0  0  0
  -32.2973  -15.0406   19.9690 O   0  0  0  0  0  0
  -21.6870   -6.8930   21.4199 O   0  0  0  0  0  0
  -22.2194  -14.5857   20.7313 O   0  0  0  0  0  0
  -24.6667  -31.8250   23.1731 C   0  0  0  0  0  0
  -25.9313  -32.4595   23.8233 C   0  0  1  0  0  0
  -27.0672  -26.7879   20.3507 C   0  0  0  0  0  0
  -25.5945  -33.8417   24.2110 N   0  0  0  0  0  0
  -23.4820  -30.4393   21.5212 C   0  0  2  0  0  0
  -24.9211  -28.8182   20.1207 C   0  0  0  0  0  0
  -22.7706  -29.4420   22.4762 C   0  0  0  0  0  0
  -18.0303  -28.1419   22.8456 C   0  0  0  0  0  0
  -24.1477  -36.7189   23.2659 C   0  0  0  0  0  0
  -26.0548  -30.5925   21.4313 C   0  0  0  0  0  0
  -26.1019  -29.1719   20.7885 C   0  0  0  0  0  0
  -27.1849  -28.1800   20.8696 C   0  0  0  0  0  0
  -25.9120  -26.6329   19.5589 C   0  0  0  0  0  0
  -24.8679  -27.5812   19.4613 C   0  0  0  0  0  0
  -23.7270  -29.7738   20.1414 C   0  0  0  0  0  0
  -25.4122  -36.2994   24.0330 C   0  0  1  0  0  0
  -20.5954  -28.3761   23.1165 C   0  0  2  0  0  0
  -20.6787  -26.9426   22.5410 C   0  0  0  0  0  0
  -19.5750  -26.6359   21.5227 C   0  0  0  0  0  0
  -18.1930  -26.7948   22.1631 C   0  0  0  0  0  0
  -19.1578  -28.8899   23.2799 C   0  0  0  0  0  0
  -18.9483  -30.1495   23.8820 C   0  0  0  0  0  0
  -17.6472  -30.6599   24.0541 C   0  0  0  0  0  0
  -25.9091  -34.9365   23.5057 C   0  0  0  0  0  0
  -16.5359  -29.9076   23.6357 C   0  0  0  0  0  0
  -16.7285  -28.6510   23.0360 C   0  0  0  0  0  0
  -26.4543  -31.6561   25.0787 C   0  0  0  0  0  0
  -25.3621  -31.3791   26.1404 C   0  0  0  0  0  0
  -27.0480  -30.2908   24.6661 C   0  0  0  0  0  0
  -27.6075  -32.4402   25.7494 C   0  0  0  0  0  0
  -27.5583  -37.1753   24.8474 C   0  0  0  0  0  0
  -21.4366  -29.3040   22.3505 N   0  0  0  0  0  0
  -26.4285  -37.3723   23.9420 N   0  0  0  0  0  0
  -24.7548  -30.9870   22.0907 N   0  0  0  0  0  0
  -23.4232  -28.7987   23.3035 O   0  0  0  0  0  0
  -27.9016  -25.5459   20.5016 O   0  0  0  0  0  0
  -26.5735  -34.8892   22.4673 O   0  0  0  0  0  0
  -23.5726  -32.1230   23.6762 O   0  0  0  0  0  0
  -27.4433  -20.5242   19.1971 C   0  0  0  0  0  0
  -27.5956  -19.4111   20.0598 C   0  0  0  0  0  0
  -27.4738  -21.8892   19.5930 C   0  0  0  0  0  0
  -27.7758  -19.4922   21.4569 C   0  0  0  0  0  0
  -27.6210  -22.3103   20.9218 C   0  0  0  0  0  0
  -27.7028  -21.0386   21.8481 C   0  0  0  0  0  0
  -24.0518  -20.9659   23.6217 C   0  0  0  0  0  0
  -28.1571  -17.9014   22.2297 C   0  0  0  0  0  0
  -27.6206  -21.4970   23.3116 C   0  0  0  0  0  0
  -27.4467  -24.0804   21.2180 C   0  0  0  0  0  0
  -27.4593  -20.4750   24.4463 C   0  0  0  0  0  0
  -29.5856  -13.3915   18.5393 C   0  0  0  0  0  0
  -27.6234  -16.1191   22.1900 C   0  0  0  0  0  0
  -26.0335  -19.9659   24.8065 C   0  0  0  0  0  0
  -28.5469  -13.1196   21.1708 C   0  0  0  0  0  0
  -30.7603  -14.3302   18.4469 N   0  0  0  0  0  0
  -25.0463  -19.8692   23.6989 N   0  3  0  0  0  0
  -28.3299  -14.5345   22.2351 N   0  3  0  0  0  0
  -31.6996  -12.3854   19.8585 H   0  0  0  0  0  0
  -31.0792  -12.2770   21.3907 H   0  0  0  0  0  0
  -29.3561  -10.6021   20.4767 H   0  0  0  0  0  0
  -30.0617  -10.7352   18.9695 H   0  0  0  0  0  0
  -27.2756  -10.9329   19.0746 H   0  0  0  0  0  0
  -28.0020  -11.6933   17.9359 H   0  0  0  0  0  0
  -26.8050  -13.8265   18.3235 H   0  0  0  0  0  0
  -28.1384  -15.8936   20.0728 H   0  0  0  0  0  0
  -28.7013  -15.5201   18.8775 H   0  0  0  0  0  0
  -25.2722   -9.6382   22.4604 H   0  0  0  0  0  0
  -24.0243   -7.5050   22.7381 H   0  0  0  0  0  0
  -21.1082   -8.8460   19.8625 H   0  0  0  0  0  0
  -22.3403  -10.9645   19.5821 H   0  0  0  0  0  0
  -21.2196   -7.6188   23.9727 H   0  0  0  0  0  0
  -21.1525   -6.0490   25.9008 H   0  0  0  0  0  0
  -22.0573   -2.7655   23.2706 H   0  0  0  0  0  0
  -22.4088  -11.9919   22.4954 H   0  0  0  0  0  0
  -21.0597  -13.1068   22.3845 H   0  0  0  0  0  0
  -25.8795  -15.6603   19.5854 H   0  0  0  0  0  0
  -24.3386  -15.9011   20.1945 H   0  0  0  0  0  0
  -26.7378  -32.5096   23.0947 H   0  0  0  0  0  0
  -24.9978  -33.9492   25.0188 H   0  0  0  0  0  0
  -22.7972  -31.2694   21.3585 H   0  0  0  0  0  0
  -23.3797  -35.9464   23.3290 H   0  0  0  0  0  0
  -24.3541  -36.8863   22.2078 H   0  0  0  0  0  0
  -23.7154  -37.6339   23.6720 H   0  0  0  0  0  0
  -26.2742  -31.3258   20.6536 H   0  0  0  0  0  0
  -26.9017  -30.6330   22.1037 H   0  0  0  0  0  0
  -28.0704  -28.4329   21.4342 H   0  0  0  0  0  0
  -25.7608  -25.6822   19.0694 H   0  0  0  0  0  0
  -23.9828  -27.3172   18.9027 H   0  0  0  0  0  0
  -23.9050  -30.5478   19.3932 H   0  0  0  0  0  0
  -22.8290  -29.2496   19.8120 H   0  0  0  0  0  0
  -25.1317  -36.1838   25.0831 H   0  0  0  0  0  0
  -21.0024  -28.3365   24.1298 H   0  0  0  0  0  0
  -20.5666  -26.2374   23.3668 H   0  0  0  0  0  0
  -21.6646  -26.7393   22.1211 H   0  0  0  0  0  0
  -19.6905  -25.6244   21.1306 H   0  0  0  0  0  0
  -19.6695  -27.3127   20.6721 H   0  0  0  0  0  0
  -17.4213  -26.6687   21.4025 H   0  0  0  0  0  0
  -18.0299  -26.0110   22.9042 H   0  0  0  0  0  0
  -19.7946  -30.7343   24.2175 H   0  0  0  0  0  0
  -17.5003  -31.6267   24.5162 H   0  0  0  0  0  0
  -15.5354  -30.2949   23.7708 H   0  0  0  0  0  0
  -15.8694  -28.0795   22.7131 H   0  0  0  0  0  0
  -24.5826  -30.7157   25.7625 H   0  0  0  0  0  0
  -24.8768  -32.2969   26.4747 H   0  0  0  0  0  0
  -25.7787  -30.8951   27.0249 H   0  0  0  0  0  0
  -26.3169  -29.6469   24.1765 H   0  0  0  0  0  0
  -27.4004  -29.7442   25.5425 H   0  0  0  0  0  0
  -27.9132  -30.4021   24.0116 H   0  0  0  0  0  0
  -27.2699  -33.3763   26.1954 H   0  0  0  0  0  0
  -28.3856  -32.6884   25.0255 H   0  0  0  0  0  0
  -28.0796  -31.8632   26.5459 H   0  0  0  0  0  0
  -28.2610  -38.0047   24.7559 H   0  0  0  0  0  0
  -28.1081  -36.2592   24.6273 H   0  0  0  0  0  0
  -27.2306  -37.1358   25.8877 H   0  0  0  0  0  0
  -20.9636  -29.8706   21.6605 H   0  0  0  0  0  0
  -26.0172  -38.2808   24.1408 H   0  0  0  0  0  0
  -27.3149  -20.3077   18.1482 H   0  0  0  0  0  0
  -27.5989  -18.4300   19.6019 H   0  0  0  0  0  0
  -27.3526  -22.6548   18.8407 H   0  0  0  0  0  0
  -23.2401  -20.6782   22.9544 H   0  0  0  0  0  0
  -24.4839  -21.8946   23.2497 H   0  0  0  0  0  0
  -23.5951  -21.1697   24.5923 H   0  0  0  0  0  0
  -27.8068  -18.1067   23.2326 H   0  0  0  0  0  0
  -29.2413  -17.8872   22.3468 H   0  0  0  0  0  0
  -26.7863  -22.2009   23.4024 H   0  0  0  0  0  0
  -28.5135  -22.0975   23.5050 H   0  0  0  0  0  0
  -27.8339  -24.1912   22.2299 H   0  0  0  0  0  0
  -26.3685  -24.1821   21.3237 H   0  0  0  0  0  0
  -27.7807  -21.0046   25.3448 H   0  0  0  0  0  0
  -28.2138  -19.6993   24.3737 H   0  0  0  0  0  0
  -28.9555  -13.7738   17.7291 H   0  0  0  0  0  0
  -30.0066  -12.5851   17.9268 H   0  0  0  0  0  0
  -26.6330  -16.0961   21.7696 H   0  0  0  0  0  0
  -27.3053  -16.0646   23.2310 H   0  0  0  0  0  0
  -25.6120  -20.5618   25.6179 H   0  0  0  0  0  0
  -26.1384  -18.9639   25.2294 H   0  0  0  0  0  0
  -29.1444  -12.6100   21.9296 H   0  0  0  0  0  0
  -27.8147  -12.3542   21.4032 H   0  0  0  0  0  0
  -31.3829  -14.3216   17.6520 H   0  0  0  0  0  0
  -25.4910  -19.7233   22.8065 H   0  0  0  0  0  0
  -24.4909  -19.0494   23.8870 H   0  0  0  0  0  0
  -27.8807  -14.1274   23.0411 H   0  0  0  0  0  0
  -29.2743  -14.7111   22.5359 H   0  0  0  0  0  0
  1 25  1  0  0  0
  1 30  2  0  0  0
  1 86  1  0  0  0
  2  3  1  0  0  0
  2 25  1  0  0  0
  2 89  1  0  0  0
  2 90  1  0  0  0
  3  4  1  0  0  0
  3 91  1  0  0  0
  3 92  1  0  0  0
  4  5  1  0  0  0
  4 93  1  0  0  0
  4 94  1  0  0  0
  5  6  1  0  0  0
  5 26  1  0  0  0
  5 95  1  0  0  0
  6 25  1  0  0  0
  6 96  1  0  0  0
  6 97  1  0  0  0
  7  8  2  0  0  0
  7 26  1  0  0  0
  7 29  1  0  0  0
  8  9  1  0  0  0
  8 22  1  0  0  0
  9 10  1  0  0  0
  9 27  2  0  0  0
 10 11  2  0  0  0
 10 15  1  0  0  0
 11 12  1  0  0  0
 11 98  1  0  0  0
 12 13  2  0  0  0
 12 99  1  0  0  0
 13 14  1  0  0  0
 13 31  1  0  0  0
 14 15  2  0  0  0
 14100  1  0  0  0
 15101  1  0  0  0
 16 17  2  0  0  0
 16 21  1  0  0  0
 16 31  1  0  0  0
 17 18  1  0  0  0
 17102  1  0  0  0
 18 19  2  0  0  0
 18103  1  0  0  0
 19 20  1  0  0  0
 19 24  1  0  0  0
 20 21  2  0  0  0
 20104  1  0  0  0
 21 23  1  0  0  0
 22 28  1  0  0  0
 22 32  2  0  0  0
 26 27  1  0  0  0
 28105  1  0  0  0
 28106  1  0  0  0
 29107  1  0  0  0
 29108  1  0  0  0
 33 34  1  0  0  0
 33 66  1  0  0  0
 33 70  2  0  0  0
 34 36  1  0  0  0
 34 59  1  0  0  0
 34109  1  0  0  0
 35 44  2  0  0  0
 35 45  1  0  0  0
 35 68  1  0  0  0
 36 56  1  0  0  0
 36110  1  0  0  0
 37 39  1  0  0  0
 37 47  1  0  0  0
 37 66  1  0  0  0
 37111  1  0  0  0
 38 43  2  0  0  0
 38 46  1  0  0  0
 38 47  1  0  0  0
 39 64  1  0  0  0
 39 67  2  0  0  0
 40 52  1  0  0  0
 40 53  2  0  0  0
 40 58  1  0  0  0
 41112  1  0  0  0
 41113  1  0  0  0
 41114  1  0  0  0
 41 48  1  0  0  0
 42 43  1  0  0  0
 42 66  1  0  0  0
 42115  1  0  0  0
 42116  1  0  0  0
 43 44  1  0  0  0
 44117  1  0  0  0
 45 46  2  0  0  0
 45118  1  0  0  0
 46119  1  0  0  0
 47120  1  0  0  0
 47121  1  0  0  0
 48 56  1  0  0  0
 48 65  1  0  0  0
 48122  1  0  0  0
 49 50  1  0  0  0
 49 53  1  0  0  0
 49 64  1  0  0  0
 49123  1  0  0  0
 50 51  1  0  0  0
 50124  1  0  0  0
 50125  1  0  0  0
 51 52  1  0  0  0
 51126  1  0  0  0
 51127  1  0  0  0
 52128  1  0  0  0
 52129  1  0  0  0
 53 54  1  0  0  0
 54 55  2  0  0  0
 54130  1  0  0  0
 55 57  1  0  0  0
 55131  1  0  0  0
 56 69  2  0  0  0
 57 58  2  0  0  0
 57132  1  0  0  0
 58133  1  0  0  0
 59 60  1  0  0  0
 59 61  1  0  0  0
 59 62  1  0  0  0
 60134  1  0  0  0
 60135  1  0  0  0
 60136  1  0  0  0
 61137  1  0  0  0
 61138  1  0  0  0
 61139  1  0  0  0
 62140  1  0  0  0
 62141  1  0  0  0
 62142  1  0  0  0
 63 65  1  0  0  0
 63143  1  0  0  0
 63144  1  0  0  0
 63145  1  0  0  0
 64146  1  0  0  0
 65147  1  0  0  0
 68 80  1  0  0  0
 71 72  2  0  0  0
 71 73  1  0  0  0
 71148  1  0  0  0
 72 74  1  0  0  0
 72149  1  0  0  0
 73 75  2  0  0  0
 73150  1  0  0  0
 74 76  2  0  0  0
 74 78  1  0  0  0
 75 76  1  0  0  0
 75 80  1  0  0  0
 76 79  1  0  0  0
 77 87  1  0  0  0
 77151  1  0  0  0
 77152  1  0  0  0
 77153  1  0  0  0
 78 83  1  0  0  0
 78154  1  0  0  0
 78155  1  0  0  0
 79 81  1  0  0  0
 79156  1  0  0  0
 79157  1  0  0  0
 80158  1  0  0  0
 80159  1  0  0  0
 81 84  1  0  0  0
 81160  1  0  0  0
 81161  1  0  0  0
 82 85  1  0  0  0
 82 86  1  0  0  0
 82162  1  0  0  0
 82163  1  0  0  0
 83 88  1  0  0  0
 83164  1  0  0  0
 83165  1  0  0  0
 84 87  1  0  0  0
 84166  1  0  0  0
 84167  1  0  0  0
 85 88  1  0  0  0
 85168  1  0  0  0
 85169  1  0  0  0
 86170  1  0  0  0
 87171  1  0  0  0
 87172  1  0  0  0
 88173  1  0  0  0
 88174  1  0  0  0
M  CHG  2  87   1  88   1
M  ISO  4   1 100  68 101  80 101  86 100
M  END
> <chiral flag>
0

> <version>
0

> <s_m_source_file>
/data/baiqing/PycharmProjects/Reinvent-master-3.2/result/LINK_invent/BTK/process_docking_weight1_custom_sum_contain_oxygen_bond_distance_aromatic_linkinvent_7_9_3/rearranged_h_0132.sdf

> <i_m_source_file_index>
90

> <r_mmod_Potential_Energy-OPLS-2005>
8211.134765625

> <r_mmod_Stretch_Energy-OPLS-2005>
4031.84375

> <r_mmod_Bend_Energy-OPLS-2005>
924.409301757812

> <r_mmod_Torsional_Energy-OPLS-2005>
486.201080322266

> <r_mmod_Improper_Torsional_Energy-OPLS-2005>
24.9331569671631

> <r_mmod_Van_der_Waal_Energy-OPLS-2005>
1885.85498046875

> <r_mmod_Electrostatic_Energy-OPLS-2005>
-100.457359313965

> <r_mmod_Solvation_Energy-OPLS-2005>
-906.697875976562

> <b_mmod_Minimization_Converged-OPLS-2005>
0

> <r_mmod_RMS_Derivative-OPLS-2005>
16.0999088287354

$$$$
92
                    3D
 Structure written by MMmdl.
158167  0  0  1  0            999 V2000
  -30.5939  -14.7782   20.4677 C   0  0  0  0  0  0
  -30.4354  -12.4813   19.4719 C   0  0  0  0  0  0
  -29.5082  -12.5100   18.2358 C   0  0  0  0  0  0
  -28.0377  -12.3239   18.6545 C   0  0  0  0  0  0
  -27.6392  -13.2313   19.8483 C   0  0  2  0  0  0
  -28.6834  -13.1781   20.9839 C   0  0  0  0  0  0
  -25.2508  -13.8190   20.5693 C   0  0  0  0  0  0
  -24.1800  -13.0441   20.9214 C   0  0  0  0  0  0
  -24.6391  -11.6917   20.8756 C   0  0  0  0  0  0
  -23.9070  -10.4293   21.0411 C   0  0  0  0  0  0
  -24.3625   -9.4204   21.9185 C   0  0  0  0  0  0
  -23.6295   -8.2245   22.0755 C   0  0  0  0  0  0
  -22.4279   -8.0286   21.3548 C   0  0  0  0  0  0
  -21.9914   -9.0259   20.4651 C   0  0  0  0  0  0
  -22.7242  -10.2134   20.3061 C   0  0  0  0  0  0
  -21.6858   -6.0737   22.5280 C   0  0  0  0  0  0
  -21.4014   -6.5642   23.8209 C   0  0  0  0  0  0
  -21.3657   -5.6797   24.9174 C   0  0  0  0  0  0
  -21.6043   -4.3059   24.7225 C   0  0  0  0  0  0
  -21.8818   -3.8148   23.4349 C   0  0  0  0  0  0
  -21.9194   -4.6963   22.3405 C   0  0  0  0  0  0
  -22.7821  -13.5226   21.1873 C   0  0  0  0  0  0
  -22.1663   -4.2148   21.0982 F   0  0  0  0  0  0
  -21.5628   -3.4543   25.7739 F   0  0  0  0  0  0
  -29.9785  -13.5452   20.3991 N   0  0  0  0  0  0
  -26.2929  -12.9400   20.3270 N   0  0  0  0  0  0
  -25.9320  -11.6543   20.5750 N   0  0  0  0  0  0
  -22.0469  -12.8211   22.0421 N   0  0  0  0  0  0
  -25.4194  -15.1916   20.4102 N   0  0  0  0  0  0
  -31.7834  -14.8800   20.1551 O   0  0  0  0  0  0
  -21.6646   -6.8884   21.4244 O   0  0  0  0  0  0
  -22.3504  -14.5530   20.6714 O   0  0  0  0  0  0
  -24.6316  -31.8540   23.1980 C   0  0  0  0  0  0
  -25.9136  -32.4746   23.8328 C   0  0  1  0  0  0
  -27.2165  -27.2330   20.1584 C   0  0  0  0  0  0
  -25.5926  -33.8551   24.2248 N   0  0  0  0  0  0
  -23.4305  -30.4738   21.5416 C   0  0  2  0  0  0
  -24.8797  -28.9093   20.1224 C   0  0  0  0  0  0
  -22.7505  -29.4589   22.4928 C   0  0  0  0  0  0
  -18.0296  -28.1361   22.8481 C   0  0  0  0  0  0
  -24.1491  -36.7278   23.2640 C   0  0  0  0  0  0
  -25.9781  -30.7559   21.3855 C   0  0  0  0  0  0
  -26.0496  -29.3713   20.7401 C   0  0  0  0  0  0
  -27.2224  -28.5451   20.7482 C   0  0  0  0  0  0
  -26.0353  -26.8523   19.4941 C   0  0  0  0  0  0
  -24.8781  -27.6570   19.4879 C   0  0  0  0  0  0
  -23.6532  -29.8020   20.1611 C   0  0  0  0  0  0
  -25.4121  -36.3066   24.0325 C   0  0  1  0  0  0
  -20.5899  -28.3673   23.1255 C   0  0  2  0  0  0
  -20.6788  -26.9413   22.5340 C   0  0  0  0  0  0
  -19.5743  -26.6394   21.5163 C   0  0  0  0  0  0
  -18.1933  -26.7910   22.1602 C   0  0  0  0  0  0
  -19.1550  -28.8832   23.2870 C   0  0  0  0  0  0
  -18.9471  -30.1430   23.8894 C   0  0  0  0  0  0
  -17.6474  -30.6564   24.0558 C   0  0  0  0  0  0
  -25.9061  -34.9436   23.5094 C   0  0  0  0  0  0
  -16.5363  -29.9065   23.6330 C   0  0  0  0  0  0
  -16.7283  -28.6479   23.0354 C   0  0  0  0  0  0
  -26.4500  -31.6582   25.0730 C   0  0  0  0  0  0
  -25.3714  -31.3745   26.1446 C   0  0  0  0  0  0
  -27.0356  -30.2990   24.6247 C   0  0  0  0  0  0
  -27.6047  -32.4333   25.7502 C   0  0  0  0  0  0
  -27.5580  -37.1796   24.8466 C   0  0  0  0  0  0
  -21.4212  -29.3038   22.3665 N   0  0  0  0  0  0
  -26.4294  -37.3764   23.9409 N   0  0  0  0  0  0
  -24.6989  -31.0475   22.0974 N   0  0  0  0  0  0
  -23.4196  -28.8141   23.3042 O   0  0  0  0  0  0
  -28.3197  -26.3497   20.0960 O   0  0  0  0  0  0
  -26.5640  -34.8908   22.4668 O   0  0  0  0  0  0
  -23.5459  -32.1377   23.7256 O   0  0  0  0  0  0
  -26.7844  -23.3195   20.0389 C   0  0  0  0  0  0
  -27.2768  -20.9390   19.9861 C   0  0  0  0  0  0
  -26.3658  -21.9968   19.7991 C   0  0  0  0  0  0
  -28.0976  -23.5993   20.4544 C   0  0  0  0  0  0
  -28.5897  -21.1893   20.4191 C   0  0  0  0  0  0
  -23.7939  -22.2661   20.1885 C   0  0  0  0  0  0
  -24.0814  -20.7829   20.1973 C   0  0  0  0  0  0
  -24.9535  -21.7159   19.3901 C   0  0  0  0  0  0
  -28.4263  -25.1002   20.9420 C   0  0  0  0  0  0
  -29.0977  -18.5815   20.5182 C   0  0  0  0  0  0
  -30.2183  -17.4043   20.6946 C   0  0  0  0  0  0
  -28.9756  -22.5144   20.6444 N   0  0  0  0  0  0
  -29.4797  -20.0597   20.6321 N   0  0  0  0  0  0
  -29.8185  -15.9150   20.6902 N   0  0  0  0  0  0
  -31.4728  -12.6203   19.1630 H   0  0  0  0  0  0
  -30.3992  -11.5068   19.9618 H   0  0  0  0  0  0
  -29.7963  -11.7313   17.5283 H   0  0  0  0  0  0
  -29.6227  -13.4590   17.7097 H   0  0  0  0  0  0
  -27.9055  -11.2766   18.9294 H   0  0  0  0  0  0
  -27.3751  -12.5000   17.8061 H   0  0  0  0  0  0
  -27.6295  -14.2492   19.4585 H   0  0  0  0  0  0
  -28.7288  -12.1817   21.4256 H   0  0  0  0  0  0
  -28.4124  -13.8595   21.7919 H   0  0  0  0  0  0
  -25.2770   -9.5680   22.4759 H   0  0  0  0  0  0
  -24.0002   -7.4637   22.7472 H   0  0  0  0  0  0
  -21.0841   -8.8785   19.8957 H   0  0  0  0  0  0
  -22.3702  -10.9680   19.6174 H   0  0  0  0  0  0
  -21.2005   -7.6149   23.9711 H   0  0  0  0  0  0
  -21.1478   -6.0529   25.9076 H   0  0  0  0  0  0
  -22.0596   -2.7610   23.2849 H   0  0  0  0  0  0
  -22.4113  -11.9888   22.4820 H   0  0  0  0  0  0
  -21.1085  -13.1237   22.2628 H   0  0  0  0  0  0
  -24.6492  -15.8425   20.5176 H   0  0  0  0  0  0
  -26.2589  -15.6288   20.0541 H   0  0  0  0  0  0
  -26.7204  -32.5393   23.1070 H   0  0  0  0  0  0
  -25.0047  -33.9689   25.0373 H   0  0  0  0  0  0
  -22.7276  -31.2963   21.3913 H   0  0  0  0  0  0
  -23.3754  -35.9609   23.3304 H   0  0  0  0  0  0
  -24.3576  -36.8901   22.2052 H   0  0  0  0  0  0
  -23.7244  -37.6479   23.6669 H   0  0  0  0  0  0
  -26.1199  -31.5095   20.6097 H   0  0  0  0  0  0
  -26.8542  -30.8096   22.0197 H   0  0  0  0  0  0
  -28.1241  -28.9018   21.2268 H   0  0  0  0  0  0
  -26.0061  -25.9203   18.9524 H   0  0  0  0  0  0
  -23.9892  -27.3045   18.9820 H   0  0  0  0  0  0
  -23.7839  -30.5754   19.4033 H   0  0  0  0  0  0
  -22.7710  -29.2373   19.8541 H   0  0  0  0  0  0
  -25.1304  -36.1908   25.0816 H   0  0  0  0  0  0
  -20.9990  -28.3215   24.1374 H   0  0  0  0  0  0
  -20.5736  -26.2263   23.3516 H   0  0  0  0  0  0
  -21.6641  -26.7474   22.1084 H   0  0  0  0  0  0
  -19.6914  -25.6327   21.1146 H   0  0  0  0  0  0
  -19.6657  -27.3232   20.6709 H   0  0  0  0  0  0
  -17.4198  -26.6664   21.4003 H   0  0  0  0  0  0
  -18.0344  -26.0037   22.8985 H   0  0  0  0  0  0
  -19.7948  -30.7245   24.2258 H   0  0  0  0  0  0
  -17.5036  -31.6242   24.5159 H   0  0  0  0  0  0
  -15.5368  -30.2967   23.7652 H   0  0  0  0  0  0
  -15.8686  -28.0796   22.7071 H   0  0  0  0  0  0
  -24.5890  -30.7092   25.7777 H   0  0  0  0  0  0
  -24.8900  -32.2917   26.4846 H   0  0  0  0  0  0
  -25.8015  -30.8938   27.0240 H   0  0  0  0  0  0
  -26.2951  -29.6732   24.1247 H   0  0  0  0  0  0
  -27.3995  -29.7261   25.4788 H   0  0  0  0  0  0
  -27.8848  -30.4256   23.9530 H   0  0  0  0  0  0
  -27.2650  -33.3639   26.2060 H   0  0  0  0  0  0
  -28.3862  -32.6886   25.0333 H   0  0  0  0  0  0
  -28.0714  -31.8475   26.5433 H   0  0  0  0  0  0
  -28.2602  -38.0089   24.7505 H   0  0  0  0  0  0
  -28.1072  -36.2618   24.6303 H   0  0  0  0  0  0
  -27.2296  -37.1456   25.8869 H   0  0  0  0  0  0
  -20.9414  -29.8731   21.6835 H   0  0  0  0  0  0
  -26.0171  -38.2839   24.1398 H   0  0  0  0  0  0
  -26.0611  -24.1153   19.9701 H   0  0  0  0  0  0
  -26.9318  -19.9301   19.8112 H   0  0  0  0  0  0
  -24.0177  -22.8226   21.0968 H   0  0  0  0  0  0
  -22.9127  -22.5965   19.6430 H   0  0  0  0  0  0
  -23.3849  -20.1437   19.6587 H   0  0  0  0  0  0
  -24.5009  -20.3574   21.1068 H   0  0  0  0  0  0
  -24.8581  -21.6845   18.3058 H   0  0  0  0  0  0
  -29.4574  -25.0821   21.2956 H   0  0  0  0  0  0
  -27.8315  -25.2704   21.8398 H   0  0  0  0  0  0
  -28.3081  -18.4097   21.2510 H   0  0  0  0  0  0
  -28.6297  -18.4439   19.5428 H   0  0  0  0  0  0
  -30.7348  -17.5737   21.6404 H   0  0  0  0  0  0
  -30.9775  -17.5398   19.9233 H   0  0  0  0  0  0
  -30.4161  -20.2660   20.9657 H   0  0  0  0  0  0
  -28.8462  -15.7271   20.8829 H   0  0  0  0  0  0
  1 25  1  0  0  0
  1 30  2  0  0  0
  1 84  1  0  0  0
  2  3  1  0  0  0
  2 25  1  0  0  0
  2 85  1  0  0  0
  2 86  1  0  0  0
  3  4  1  0  0  0
  3 87  1  0  0  0
  3 88  1  0  0  0
  4  5  1  0  0  0
  4 89  1  0  0  0
  4 90  1  0  0  0
  5  6  1  0  0  0
  5 26  1  0  0  0
  5 91  1  0  0  0
  6 25  1  0  0  0
  6 92  1  0  0  0
  6 93  1  0  0  0
  7  8  2  0  0  0
  7 26  1  0  0  0
  7 29  1  0  0  0
  8  9  1  0  0  0
  8 22  1  0  0  0
  9 10  1  0  0  0
  9 27  2  0  0  0
 10 11  2  0  0  0
 10 15  1  0  0  0
 11 12  1  0  0  0
 11 94  1  0  0  0
 12 13  2  0  0  0
 12 95  1  0  0  0
 13 14  1  0  0  0
 13 31  1  0  0  0
 14 15  2  0  0  0
 14 96  1  0  0  0
 15 97  1  0  0  0
 16 17  2  0  0  0
 16 21  1  0  0  0
 16 31  1  0  0  0
 17 18  1  0  0  0
 17 98  1  0  0  0
 18 19  2  0  0  0
 18 99  1  0  0  0
 19 20  1  0  0  0
 19 24  1  0  0  0
 20 21  2  0  0  0
 20100  1  0  0  0
 21 23  1  0  0  0
 22 28  1  0  0  0
 22 32  2  0  0  0
 26 27  1  0  0  0
 28101  1  0  0  0
 28102  1  0  0  0
 29103  1  0  0  0
 29104  1  0  0  0
 33 34  1  0  0  0
 33 66  1  0  0  0
 33 70  2  0  0  0
 34 36  1  0  0  0
 34 59  1  0  0  0
 34105  1  0  0  0
 35 44  2  0  0  0
 35 45  1  0  0  0
 35 68  1  0  0  0
 36 56  1  0  0  0
 36106  1  0  0  0
 37 39  1  0  0  0
 37 47  1  0  0  0
 37 66  1  0  0  0
 37107  1  0  0  0
 38 43  2  0  0  0
 38 46  1  0  0  0
 38 47  1  0  0  0
 39 64  1  0  0  0
 39 67  2  0  0  0
 40 52  1  0  0  0
 40 53  2  0  0  0
 40 58  1  0  0  0
 41108  1  0  0  0
 41109  1  0  0  0
 41110  1  0  0  0
 41 48  1  0  0  0
 42 43  1  0  0  0
 42 66  1  0  0  0
 42111  1  0  0  0
 42112  1  0  0  0
 43 44  1  0  0  0
 44113  1  0  0  0
 45 46  2  0  0  0
 45114  1  0  0  0
 46115  1  0  0  0
 47116  1  0  0  0
 47117  1  0  0  0
 48 56  1  0  0  0
 48 65  1  0  0  0
 48118  1  0  0  0
 49 50  1  0  0  0
 49 53  1  0  0  0
 49 64  1  0  0  0
 49119  1  0  0  0
 50 51  1  0  0  0
 50120  1  0  0  0
 50121  1  0  0  0
 51 52  1  0  0  0
 51122  1  0  0  0
 51123  1  0  0  0
 52124  1  0  0  0
 52125  1  0  0  0
 53 54  1  0  0  0
 54 55  2  0  0  0
 54126  1  0  0  0
 55 57  1  0  0  0
 55127  1  0  0  0
 56 69  2  0  0  0
 57 58  2  0  0  0
 57128  1  0  0  0
 58129  1  0  0  0
 59 60  1  0  0  0
 59 61  1  0  0  0
 59 62  1  0  0  0
 60130  1  0  0  0
 60131  1  0  0  0
 60132  1  0  0  0
 61133  1  0  0  0
 61134  1  0  0  0
 61135  1  0  0  0
 62136  1  0  0  0
 62137  1  0  0  0
 62138  1  0  0  0
 63 65  1  0  0  0
 63139  1  0  0  0
 63140  1  0  0  0
 63141  1  0  0  0
 64142  1  0  0  0
 65143  1  0  0  0
 68 79  1  0  0  0
 71 73  2  0  0  0
 71 74  1  0  0  0
 71144  1  0  0  0
 72 73  1  0  0  0
 72 75  2  0  0  0
 72145  1  0  0  0
 73 78  1  0  0  0
 74 79  1  0  0  0
 74 82  2  0  0  0
 75 82  1  0  0  0
 75 83  1  0  0  0
 76 77  1  0  0  0
 76 78  1  0  0  0
 76146  1  0  0  0
 76147  1  0  0  0
 77 78  1  0  0  0
 77148  1  0  0  0
 77149  1  0  0  0
 78150  1  0  0  0
 79151  1  0  0  0
 79152  1  0  0  0
 80 81  1  0  0  0
 80 83  1  0  0  0
 80153  1  0  0  0
 80154  1  0  0  0
 81 84  1  0  0  0
 81155  1  0  0  0
 81156  1  0  0  0
 83157  1  0  0  0
 84158  1  0  0  0
M  ISO  4   1 100  68 101  79 101  84 100
M  END
> <chiral flag>
0

> <version>
0

> <s_m_source_file>
/data/baiqing/PycharmProjects/Reinvent-master-3.2/result/LINK_invent/BTK/process_docking_weight1_custom_sum_contain_oxygen_bond_distance_aromatic_linkinvent_7_9_3/rearranged_h_0132.sdf

> <i_m_source_file_index>
91

> <r_mmod_Potential_Energy-OPLS-2005>
-50.2367553710938

> <r_mmod_Stretch_Energy-OPLS-2005>
139.497604370117

> <r_mmod_Bend_Energy-OPLS-2005>
192.419616699219

> <r_mmod_Torsional_Energy-OPLS-2005>
254.15510559082

> <r_mmod_Improper_Torsional_Energy-OPLS-2005>
6.12811136245728

> <r_mmod_Van_der_Waal_Energy-OPLS-2005>
129.629272460938

> <r_mmod_Electrostatic_Energy-OPLS-2005>
-626.196655273438

> <r_mmod_Solvation_Energy-OPLS-2005>
-242.679580688477

> <b_mmod_Minimization_Converged-OPLS-2005>
0

> <r_mmod_RMS_Derivative-OPLS-2005>
1.15009129047394

$$$$
93
                    3D
 Structure written by MMmdl.
160169  0  0  1  0            999 V2000
  -30.6735  -14.5745   20.4887 C   0  0  0  0  0  0
  -30.4201  -12.3487   19.4528 C   0  0  0  0  0  0
  -29.4991  -12.4999   18.2231 C   0  0  0  0  0  0
  -28.0206  -12.3571   18.6332 C   0  0  0  0  0  0
  -27.6537  -13.2221   19.8681 C   0  0  2  0  0  0
  -28.6977  -13.0782   20.9990 C   0  0  0  0  0  0
  -25.2557  -13.8201   20.5709 C   0  0  0  0  0  0
  -24.1828  -13.0450   20.9212 C   0  0  0  0  0  0
  -24.6413  -11.6926   20.8764 C   0  0  0  0  0  0
  -23.9085  -10.4304   21.0420 C   0  0  0  0  0  0
  -24.3635   -9.4214   21.9191 C   0  0  0  0  0  0
  -23.6310   -8.2248   22.0747 C   0  0  0  0  0  0
  -22.4290   -8.0296   21.3541 C   0  0  0  0  0  0
  -21.9931   -9.0276   20.4643 C   0  0  0  0  0  0
  -22.7263  -10.2153   20.3061 C   0  0  0  0  0  0
  -21.6855   -6.0749   22.5281 C   0  0  0  0  0  0
  -21.4016   -6.5644   23.8217 C   0  0  0  0  0  0
  -21.3655   -5.6790   24.9175 C   0  0  0  0  0  0
  -21.6042   -4.3054   24.7221 C   0  0  0  0  0  0
  -21.8822   -3.8153   23.4341 C   0  0  0  0  0  0
  -21.9196   -4.6976   22.3400 C   0  0  0  0  0  0
  -22.7850  -13.5238   21.1870 C   0  0  0  0  0  0
  -22.1666   -4.2163   21.0979 F   0  0  0  0  0  0
  -21.5628   -3.4536   25.7731 F   0  0  0  0  0  0
  -30.0193  -13.3771   20.4312 N   0  0  0  0  0  0
  -26.3001  -12.9391   20.3365 N   0  0  0  0  0  0
  -25.9344  -11.6537   20.5790 N   0  0  0  0  0  0
  -22.0491  -12.8214   22.0419 N   0  0  0  0  0  0
  -25.4254  -15.1914   20.4106 N   0  0  0  0  0  0
  -31.8396  -14.6924   20.1065 O   0  0  0  0  0  0
  -21.6642   -6.8899   21.4245 O   0  0  0  0  0  0
  -22.3530  -14.5545   20.6724 O   0  0  0  0  0  0
  -24.6217  -31.8626   23.2067 C   0  0  0  0  0  0
  -25.9088  -32.4792   23.8368 C   0  0  1  0  0  0
  -27.2199  -27.3566   20.1052 C   0  0  0  0  0  0
  -25.5911  -33.8591   24.2289 N   0  0  0  0  0  0
  -23.4114  -30.4889   21.5484 C   0  0  2  0  0  0
  -24.8551  -28.9508   20.1084 C   0  0  0  0  0  0
  -22.7446  -29.4634   22.4953 C   0  0  0  0  0  0
  -18.0282  -28.1408   22.8494 C   0  0  0  0  0  0
  -24.1477  -36.7287   23.2638 C   0  0  0  0  0  0
  -25.9482  -30.8038   21.3728 C   0  0  0  0  0  0
  -26.0199  -29.4345   20.7160 C   0  0  0  0  0  0
  -27.2017  -28.6449   20.7123 C   0  0  0  0  0  0
  -26.0367  -26.9233   19.4612 C   0  0  0  0  0  0
  -24.8629  -27.6990   19.4750 C   0  0  0  0  0  0
  -23.6222  -29.8276   20.1611 C   0  0  0  0  0  0
  -25.4103  -36.3084   24.0330 C   0  0  1  0  0  0
  -20.5877  -28.3686   23.1311 C   0  0  2  0  0  0
  -20.6774  -26.9419   22.5430 C   0  0  0  0  0  0
  -19.5746  -26.6402   21.5236 C   0  0  0  0  0  0
  -18.1923  -26.7952   22.1644 C   0  0  0  0  0  0
  -19.1534  -28.8868   23.2894 C   0  0  0  0  0  0
  -18.9462  -30.1478   23.8898 C   0  0  0  0  0  0
  -17.6462  -30.6606   24.0582 C   0  0  0  0  0  0
  -25.9043  -34.9459   23.5111 C   0  0  0  0  0  0
  -16.5351  -29.9108   23.6348 C   0  0  0  0  0  0
  -16.7270  -28.6537   23.0347 C   0  0  0  0  0  0
  -26.4487  -31.6594   25.0722 C   0  0  0  0  0  0
  -25.3734  -31.3722   26.1457 C   0  0  0  0  0  0
  -27.0326  -30.3024   24.6150 C   0  0  0  0  0  0
  -27.6050  -32.4324   25.7491 C   0  0  0  0  0  0
  -27.5569  -37.1800   24.8469 C   0  0  0  0  0  0
  -21.4166  -29.3032   22.3696 N   0  0  0  0  0  0
  -26.4279  -37.3783   23.9417 N   0  0  0  0  0  0
  -24.6791  -31.0674   22.1000 N   0  0  0  0  0  0
  -23.4190  -28.8177   23.3019 O   0  0  0  0  0  0
  -28.3665  -26.5617   20.1667 O   0  0  0  0  0  0
  -26.5616  -34.8929   22.4678 O   0  0  0  0  0  0
  -23.5398  -32.1410   23.7427 O   0  0  0  0  0  0
  -29.4420  -18.2104   22.3527 C   0  0  0  0  0  0
  -28.8436  -20.5536   22.3023 C   0  0  0  0  0  0
  -29.0007  -19.3595   23.0400 C   0  0  0  0  0  0
  -29.6972  -18.2743   20.9724 C   0  0  0  0  0  0
  -29.1012  -20.5592   20.9229 C   0  0  0  0  0  0
  -28.2066  -20.4312   25.3469 C   0  0  0  0  0  0
  -29.6292  -19.9458   25.5092 C   0  0  0  0  0  0
  -28.7157  -19.2731   24.5141 C   0  0  0  0  0  0
  -30.2736  -17.0438   20.2337 C   0  0  0  0  0  0
  -29.1596  -24.2234   20.8094 C   0  0  0  0  0  0
  -28.3151  -25.1286   19.8472 C   0  0  0  0  0  0
  -29.7193  -22.8370   20.3025 C   0  0  0  0  0  0
  -29.5118  -19.4335   20.2666 N   0  0  0  0  0  0
  -29.9212  -15.6789   20.7259 N   0  0  0  0  0  0
  -28.8357  -21.6961   20.1622 O   0  0  0  0  0  0
  -31.4652  -12.4396   19.1510 H   0  0  0  0  0  0
  -30.3222  -11.3538   19.8902 H   0  0  0  0  0  0
  -29.7508  -11.7524   17.4699 H   0  0  0  0  0  0
  -29.6586  -13.4718   17.7530 H   0  0  0  0  0  0
  -27.8399  -11.3040   18.8519 H   0  0  0  0  0  0
  -27.3712  -12.6095   17.7940 H   0  0  0  0  0  0
  -27.6743  -14.2590   19.5324 H   0  0  0  0  0  0
  -28.6881  -12.0677   21.4108 H   0  0  0  0  0  0
  -28.4616  -13.7463   21.8285 H   0  0  0  0  0  0
  -25.2786   -9.5682   22.4761 H   0  0  0  0  0  0
  -24.0023   -7.4631   22.7452 H   0  0  0  0  0  0
  -21.0866   -8.8811   19.8938 H   0  0  0  0  0  0
  -22.3745  -10.9702   19.6166 H   0  0  0  0  0  0
  -21.2011   -7.6152   23.9729 H   0  0  0  0  0  0
  -21.1469   -6.0514   25.9078 H   0  0  0  0  0  0
  -22.0606   -2.7619   23.2834 H   0  0  0  0  0  0
  -22.4112  -11.9872   22.4790 H   0  0  0  0  0  0
  -21.1107  -13.1224   22.2629 H   0  0  0  0  0  0
  -24.6614  -15.8475   20.5305 H   0  0  0  0  0  0
  -26.2731  -15.6311   20.0762 H   0  0  0  0  0  0
  -26.7150  -32.5476   23.1116 H   0  0  0  0  0  0
  -25.0047  -33.9734   25.0425 H   0  0  0  0  0  0
  -22.7024  -31.3084   21.4112 H   0  0  0  0  0  0
  -23.3739  -35.9623   23.3316 H   0  0  0  0  0  0
  -24.3561  -36.8891   22.2050 H   0  0  0  0  0  0
  -23.7243  -37.6497   23.6652 H   0  0  0  0  0  0
  -26.0745  -31.5682   20.6049 H   0  0  0  0  0  0
  -26.8319  -30.8512   21.9975 H   0  0  0  0  0  0
  -28.0946  -29.0094   21.2015 H   0  0  0  0  0  0
  -25.9849  -25.9842   18.9334 H   0  0  0  0  0  0
  -23.9720  -27.3300   18.9857 H   0  0  0  0  0  0
  -23.7379  -30.6065   19.4061 H   0  0  0  0  0  0
  -22.7427  -29.2552   19.8603 H   0  0  0  0  0  0
  -25.1291  -36.1928   25.0824 H   0  0  0  0  0  0
  -20.9969  -28.3268   24.1431 H   0  0  0  0  0  0
  -20.5711  -26.2289   23.3617 H   0  0  0  0  0  0
  -21.6638  -26.7484   22.1200 H   0  0  0  0  0  0
  -19.6901  -25.6316   21.1252 H   0  0  0  0  0  0
  -19.6690  -27.3228   20.6776 H   0  0  0  0  0  0
  -17.4198  -26.6713   21.4040 H   0  0  0  0  0  0
  -18.0314  -26.0108   22.9051 H   0  0  0  0  0  0
  -19.7936  -30.7312   24.2247 H   0  0  0  0  0  0
  -17.5016  -31.6286   24.5188 H   0  0  0  0  0  0
  -15.5351  -30.3013   23.7680 H   0  0  0  0  0  0
  -15.8671  -28.0875   22.7030 H   0  0  0  0  0  0
  -24.5908  -30.7066   25.7792 H   0  0  0  0  0  0
  -24.8921  -32.2883   26.4889 H   0  0  0  0  0  0
  -25.8072  -30.8903   27.0226 H   0  0  0  0  0  0
  -26.2887  -29.6775   24.1190 H   0  0  0  0  0  0
  -27.4045  -29.7281   25.4644 H   0  0  0  0  0  0
  -27.8751  -30.4320   23.9352 H   0  0  0  0  0  0
  -27.2658  -33.3620   26.2078 H   0  0  0  0  0  0
  -28.3860  -32.6884   25.0317 H   0  0  0  0  0  0
  -28.0715  -31.8439   26.5398 H   0  0  0  0  0  0
  -28.2605  -38.0079   24.7504 H   0  0  0  0  0  0
  -28.1046  -36.2613   24.6312 H   0  0  0  0  0  0
  -27.2282  -37.1473   25.8871 H   0  0  0  0  0  0
  -20.9336  -29.8720   21.6883 H   0  0  0  0  0  0
  -26.0153  -38.2854   24.1433 H   0  0  0  0  0  0
  -29.6054  -17.2846   22.8882 H   0  0  0  0  0  0
  -28.4950  -21.4618   22.7700 H   0  0  0  0  0  0
  -28.0622  -21.4045   24.8863 H   0  0  0  0  0  0
  -27.5185  -20.2009   26.1572 H   0  0  0  0  0  0
  -29.8673  -19.4039   26.4223 H   0  0  0  0  0  0
  -30.4225  -20.5800   25.1182 H   0  0  0  0  0  0
  -28.3344  -18.2870   24.7738 H   0  0  0  0  0  0
  -31.3578  -17.1693   20.2438 H   0  0  0  0  0  0
  -29.9781  -17.1031   19.1857 H   0  0  0  0  0  0
  -28.6276  -24.0860   21.7509 H   0  0  0  0  0  0
  -30.0399  -24.8120   21.0670 H   0  0  0  0  0  0
  -28.6731  -25.0113   18.8241 H   0  0  0  0  0  0
  -27.3096  -24.7142   19.8754 H   0  0  0  0  0  0
  -30.5429  -22.5549   20.9609 H   0  0  0  0  0  0
  -30.1863  -22.9935   19.3299 H   0  0  0  0  0  0
  -28.9727  -15.5438   21.0396 H   0  0  0  0  0  0
  1 25  1  0  0  0
  1 30  2  0  0  0
  1 84  1  0  0  0
  2  3  1  0  0  0
  2 25  1  0  0  0
  2 86  1  0  0  0
  2 87  1  0  0  0
  3  4  1  0  0  0
  3 88  1  0  0  0
  3 89  1  0  0  0
  4  5  1  0  0  0
  4 90  1  0  0  0
  4 91  1  0  0  0
  5  6  1  0  0  0
  5 26  1  0  0  0
  5 92  1  0  0  0
  6 25  1  0  0  0
  6 93  1  0  0  0
  6 94  1  0  0  0
  7  8  2  0  0  0
  7 26  1  0  0  0
  7 29  1  0  0  0
  8  9  1  0  0  0
  8 22  1  0  0  0
  9 10  1  0  0  0
  9 27  2  0  0  0
 10 11  2  0  0  0
 10 15  1  0  0  0
 11 12  1  0  0  0
 11 95  1  0  0  0
 12 13  2  0  0  0
 12 96  1  0  0  0
 13 14  1  0  0  0
 13 31  1  0  0  0
 14 15  2  0  0  0
 14 97  1  0  0  0
 15 98  1  0  0  0
 16 17  2  0  0  0
 16 21  1  0  0  0
 16 31  1  0  0  0
 17 18  1  0  0  0
 17 99  1  0  0  0
 18 19  2  0  0  0
 18100  1  0  0  0
 19 20  1  0  0  0
 19 24  1  0  0  0
 20 21  2  0  0  0
 20101  1  0  0  0
 21 23  1  0  0  0
 22 28  1  0  0  0
 22 32  2  0  0  0
 26 27  1  0  0  0
 28102  1  0  0  0
 28103  1  0  0  0
 29104  1  0  0  0
 29105  1  0  0  0
 33 34  1  0  0  0
 33 66  1  0  0  0
 33 70  2  0  0  0
 34 36  1  0  0  0
 34 59  1  0  0  0
 34106  1  0  0  0
 35 44  2  0  0  0
 35 45  1  0  0  0
 35 68  1  0  0  0
 36 56  1  0  0  0
 36107  1  0  0  0
 37 39  1  0  0  0
 37 47  1  0  0  0
 37 66  1  0  0  0
 37108  1  0  0  0
 38 43  2  0  0  0
 38 46  1  0  0  0
 38 47  1  0  0  0
 39 64  1  0  0  0
 39 67  2  0  0  0
 40 52  1  0  0  0
 40 53  2  0  0  0
 40 58  1  0  0  0
 41109  1  0  0  0
 41110  1  0  0  0
 41111  1  0  0  0
 41 48  1  0  0  0
 42 43  1  0  0  0
 42 66  1  0  0  0
 42112  1  0  0  0
 42113  1  0  0  0
 43 44  1  0  0  0
 44114  1  0  0  0
 45 46  2  0  0  0
 45115  1  0  0  0
 46116  1  0  0  0
 47117  1  0  0  0
 47118  1  0  0  0
 48 56  1  0  0  0
 48 65  1  0  0  0
 48119  1  0  0  0
 49 50  1  0  0  0
 49 53  1  0  0  0
 49 64  1  0  0  0
 49120  1  0  0  0
 50 51  1  0  0  0
 50121  1  0  0  0
 50122  1  0  0  0
 51 52  1  0  0  0
 51123  1  0  0  0
 51124  1  0  0  0
 52125  1  0  0  0
 52126  1  0  0  0
 53 54  1  0  0  0
 54 55  2  0  0  0
 54127  1  0  0  0
 55 57  1  0  0  0
 55128  1  0  0  0
 56 69  2  0  0  0
 57 58  2  0  0  0
 57129  1  0  0  0
 58130  1  0  0  0
 59 60  1  0  0  0
 59 61  1  0  0  0
 59 62  1  0  0  0
 60131  1  0  0  0
 60132  1  0  0  0
 60133  1  0  0  0
 61134  1  0  0  0
 61135  1  0  0  0
 61136  1  0  0  0
 62137  1  0  0  0
 62138  1  0  0  0
 62139  1  0  0  0
 63 65  1  0  0  0
 63140  1  0  0  0
 63141  1  0  0  0
 63142  1  0  0  0
 64143  1  0  0  0
 65144  1  0  0  0
 68 81  1  0  0  0
 71 73  2  0  0  0
 71 74  1  0  0  0
 71145  1  0  0  0
 72 73  1  0  0  0
 72 75  2  0  0  0
 72146  1  0  0  0
 73 78  1  0  0  0
 74 79  1  0  0  0
 74 83  2  0  0  0
 75 83  1  0  0  0
 75 85  1  0  0  0
 76 77  1  0  0  0
 76 78  1  0  0  0
 76147  1  0  0  0
 76148  1  0  0  0
 77 78  1  0  0  0
 77149  1  0  0  0
 77150  1  0  0  0
 78151  1  0  0  0
 79 84  1  0  0  0
 79152  1  0  0  0
 79153  1  0  0  0
 80 81  1  0  0  0
 80 82  1  0  0  0
 80154  1  0  0  0
 80155  1  0  0  0
 81156  1  0  0  0
 81157  1  0  0  0
 82 85  1  0  0  0
 82158  1  0  0  0
 82159  1  0  0  0
 84160  1  0  0  0
M  ISO  4   1 100  68 101  81 101  84 100
M  END
> <chiral flag>
0

> <version>
0

> <s_m_source_file>
/data/baiqing/PycharmProjects/Reinvent-master-3.2/result/LINK_invent/BTK/process_docking_weight1_custom_sum_contain_oxygen_bond_distance_aromatic_linkinvent_7_9_3/rearranged_h_0132.sdf

> <i_m_source_file_index>
92

> <r_mmod_Potential_Energy-OPLS-2005>
-252.995956420898

> <r_mmod_Stretch_Energy-OPLS-2005>
56.1849975585938

> <r_mmod_Bend_Energy-OPLS-2005>
127.615547180176

> <r_mmod_Torsional_Energy-OPLS-2005>
265.021087646484

> <r_mmod_Improper_Torsional_Energy-OPLS-2005>
7.23229026794434

> <r_mmod_Van_der_Waal_Energy-OPLS-2005>
151.101333618164

> <r_mmod_Electrostatic_Energy-OPLS-2005>
-672.199768066406

> <r_mmod_Solvation_Energy-OPLS-2005>
-221.169525146484

> <b_mmod_Minimization_Converged-OPLS-2005>
0

> <r_mmod_RMS_Derivative-OPLS-2005>
1.4488080739975

$$$$
94
                    3D
 Structure written by MMmdl.
155163  0  0  1  0            999 V2000
  -30.6402  -14.6209   20.5044 C   0  0  0  0  0  0
  -30.4348  -12.3833   19.4475 C   0  0  0  0  0  0
  -29.5120  -12.5082   18.2163 C   0  0  0  0  0  0
  -28.0302  -12.3649   18.6159 C   0  0  0  0  0  0
  -27.6533  -13.2227   19.8565 C   0  0  2  0  0  0
  -28.6974  -13.0759   20.9856 C   0  0  0  0  0  0
  -25.2558  -13.8204   20.5633 C   0  0  0  0  0  0
  -24.1831  -13.0475   20.9176 C   0  0  0  0  0  0
  -24.6399  -11.6939   20.8722 C   0  0  0  0  0  0
  -23.9070  -10.4318   21.0394 C   0  0  0  0  0  0
  -24.3642   -9.4252   21.9160 C   0  0  0  0  0  0
  -23.6326   -8.2288   22.0728 C   0  0  0  0  0  0
  -22.4296   -8.0309   21.3543 C   0  0  0  0  0  0
  -21.9925   -9.0272   20.4646 C   0  0  0  0  0  0
  -22.7241  -10.2148   20.3052 C   0  0  0  0  0  0
  -21.6882   -6.0767   22.5270 C   0  0  0  0  0  0
  -21.4011   -6.5644   23.8207 C   0  0  0  0  0  0
  -21.3671   -5.6788   24.9161 C   0  0  0  0  0  0
  -21.6054   -4.3047   24.7207 C   0  0  0  0  0  0
  -21.8834   -3.8150   23.4319 C   0  0  0  0  0  0
  -21.9207   -4.6987   22.3379 C   0  0  0  0  0  0
  -22.7847  -13.5270   21.1831 C   0  0  0  0  0  0
  -22.1676   -4.2167   21.0958 F   0  0  0  0  0  0
  -21.5643   -3.4520   25.7719 F   0  0  0  0  0  0
  -30.0126  -13.4070   20.4219 N   0  0  0  0  0  0
  -26.2978  -12.9397   20.3242 N   0  0  0  0  0  0
  -25.9325  -11.6550   20.5709 N   0  0  0  0  0  0
  -22.0476  -12.8289   22.0408 N   0  0  0  0  0  0
  -25.4248  -15.1954   20.4041 N   0  0  0  0  0  0
  -31.8029  -14.7718   20.1256 O   0  0  0  0  0  0
  -21.6668   -6.8910   21.4236 O   0  0  0  0  0  0
  -22.3526  -14.5559   20.6676 O   0  0  0  0  0  0
  -24.6246  -31.8582   23.2025 C   0  0  0  0  0  0
  -25.9086  -32.4784   23.8360 C   0  0  1  0  0  0
  -27.2355  -27.3197   20.1375 C   0  0  0  0  0  0
  -25.5887  -33.8589   24.2299 N   0  0  0  0  0  0
  -23.4228  -30.4789   21.5417 C   0  0  2  0  0  0
  -24.8731  -28.9244   20.1184 C   0  0  0  0  0  0
  -22.7461  -29.4616   22.4913 C   0  0  0  0  0  0
  -18.0286  -28.1380   22.8501 C   0  0  0  0  0  0
  -24.1476  -36.7301   23.2642 C   0  0  0  0  0  0
  -25.9608  -30.7874   21.3788 C   0  0  0  0  0  0
  -26.0338  -29.4109   20.7294 C   0  0  0  0  0  0
  -27.2163  -28.6164   20.7364 C   0  0  0  0  0  0
  -26.0560  -26.8817   19.4967 C   0  0  0  0  0  0
  -24.8837  -27.6631   19.4959 C   0  0  0  0  0  0
  -23.6401  -29.8045   20.1595 C   0  0  0  0  0  0
  -25.4105  -36.3110   24.0348 C   0  0  1  0  0  0
  -20.5884  -28.3693   23.1284 C   0  0  2  0  0  0
  -20.6764  -26.9413   22.5415 C   0  0  0  0  0  0
  -19.5735  -26.6375   21.5213 C   0  0  0  0  0  0
  -18.1921  -26.7921   22.1626 C   0  0  0  0  0  0
  -19.1539  -28.8848   23.2892 C   0  0  0  0  0  0
  -18.9455  -30.1449   23.8912 C   0  0  0  0  0  0
  -17.6453  -30.6578   24.0572 C   0  0  0  0  0  0
  -25.9049  -34.9475   23.5144 C   0  0  0  0  0  0
  -16.5346  -29.9084   23.6317 C   0  0  0  0  0  0
  -16.7270  -28.6492   23.0355 C   0  0  0  0  0  0
  -26.4468  -31.6614   25.0752 C   0  0  0  0  0  0
  -25.3689  -31.3757   26.1470 C   0  0  0  0  0  0
  -27.0332  -30.3044   24.6244 C   0  0  0  0  0  0
  -27.6051  -32.4334   25.7497 C   0  0  0  0  0  0
  -27.5589  -37.1813   24.8461 C   0  0  0  0  0  0
  -21.4168  -29.3049   22.3677 N   0  0  0  0  0  0
  -26.4294  -37.3795   23.9417 N   0  0  0  0  0  0
  -24.6869  -31.0581   22.0977 N   0  0  0  0  0  0
  -23.4172  -28.8151   23.2995 O   0  0  0  0  0  0
  -28.3911  -26.5294   20.1282 O   0  0  0  0  0  0
  -26.5615  -34.8929   22.4710 O   0  0  0  0  0  0
  -23.5406  -32.1372   23.7340 O   0  0  0  0  0  0
  -29.4876  -24.3973   19.5780 C   0  0  0  0  0  0
  -27.5363  -23.0546   20.9111 C   0  0  0  0  0  0
  -29.5508  -22.9745   19.6229 C   0  0  0  0  0  0
  -28.5383  -22.2421   20.3043 C   0  0  0  0  0  0
  -28.4303  -25.1126   20.1876 C   0  0  0  0  0  0
  -30.6975  -22.2838   18.9043 C   0  0  0  0  0  0
  -28.3573  -20.6638   20.2503 C   0  0  0  0  0  0
  -30.2496  -17.1576   20.8521 C   0  0  0  0  0  0
  -29.0758  -18.2123   20.6298 C   0  0  0  0  0  0
  -27.4770  -24.4221   20.8657 N   0  0  0  0  0  0
  -29.8663  -15.6982   20.8435 N   0  0  0  0  0  0
  -29.4315  -19.6915   20.7063 N   0  3  0  0  0  0
  -31.4761  -12.4993   19.1488 H   0  0  0  0  0  0
  -30.3596  -11.3862   19.8838 H   0  0  0  0  0  0
  -29.7743  -11.7559   17.4693 H   0  0  0  0  0  0
  -29.6736  -13.4769   17.7438 H   0  0  0  0  0  0
  -27.8406  -11.3108   18.8181 H   0  0  0  0  0  0
  -27.3929  -12.6308   17.7703 H   0  0  0  0  0  0
  -27.6686  -14.2610   19.5257 H   0  0  0  0  0  0
  -28.7057  -12.0554   21.3763 H   0  0  0  0  0  0
  -28.4468  -13.7217   21.8289 H   0  0  0  0  0  0
  -25.2821   -9.5733   22.4703 H   0  0  0  0  0  0
  -24.0051   -7.4703   22.7454 H   0  0  0  0  0  0
  -21.0873   -8.8813   19.8957 H   0  0  0  0  0  0
  -22.3731  -10.9697   19.6161 H   0  0  0  0  0  0
  -21.1971   -7.6147   23.9707 H   0  0  0  0  0  0
  -21.1477   -6.0504   25.9077 H   0  0  0  0  0  0
  -22.0595   -2.7610   23.2807 H   0  0  0  0  0  0
  -22.4096  -11.9996   22.4854 H   0  0  0  0  0  0
  -21.1054  -13.1261   22.2537 H   0  0  0  0  0  0
  -24.6471  -15.8399   20.4920 H   0  0  0  0  0  0
  -26.2578  -15.6307   20.0285 H   0  0  0  0  0  0
  -26.7163  -32.5462   23.1110 H   0  0  0  0  0  0
  -25.0042  -33.9713   25.0451 H   0  0  0  0  0  0
  -22.7208  -31.3004   21.3907 H   0  0  0  0  0  0
  -23.3761  -35.9612   23.3306 H   0  0  0  0  0  0
  -24.3569  -36.8911   22.2056 H   0  0  0  0  0  0
  -23.7193  -37.6496   23.6650 H   0  0  0  0  0  0
  -26.0942  -31.5474   20.6079 H   0  0  0  0  0  0
  -26.8377  -30.8382   22.0122 H   0  0  0  0  0  0
  -28.1107  -28.9864   21.2183 H   0  0  0  0  0  0
  -26.0367  -25.9174   19.0106 H   0  0  0  0  0  0
  -23.9931  -27.2870   19.0123 H   0  0  0  0  0  0
  -23.7645  -30.5723   19.3949 H   0  0  0  0  0  0
  -22.7610  -29.2311   19.8604 H   0  0  0  0  0  0
  -25.1286  -36.1986   25.0839 H   0  0  0  0  0  0
  -20.9993  -28.3251   24.1393 H   0  0  0  0  0  0
  -20.5639  -26.2300   23.3619 H   0  0  0  0  0  0
  -21.6639  -26.7414   22.1228 H   0  0  0  0  0  0
  -19.6905  -25.6276   21.1255 H   0  0  0  0  0  0
  -19.6676  -27.3168   20.6733 H   0  0  0  0  0  0
  -17.4196  -26.6681   21.4024 H   0  0  0  0  0  0
  -18.0322  -26.0054   22.9007 H   0  0  0  0  0  0
  -19.7933  -30.7262   24.2284 H   0  0  0  0  0  0
  -17.5013  -31.6270   24.5161 H   0  0  0  0  0  0
  -15.5354  -30.2996   23.7635 H   0  0  0  0  0  0
  -15.8668  -28.0815   22.7077 H   0  0  0  0  0  0
  -24.5812  -30.7182   25.7763 H   0  0  0  0  0  0
  -24.8933  -32.2935   26.4947 H   0  0  0  0  0  0
  -25.7969  -30.8851   27.0222 H   0  0  0  0  0  0
  -26.2946  -29.6784   24.1224 H   0  0  0  0  0  0
  -27.3975  -29.7312   25.4781 H   0  0  0  0  0  0
  -27.8828  -30.4351   23.9537 H   0  0  0  0  0  0
  -27.2693  -33.3611   26.2135 H   0  0  0  0  0  0
  -28.3811  -32.6924   25.0286 H   0  0  0  0  0  0
  -28.0786  -31.8428   26.5345 H   0  0  0  0  0  0
  -28.2619  -38.0103   24.7543 H   0  0  0  0  0  0
  -28.1079  -36.2650   24.6255 H   0  0  0  0  0  0
  -27.2321  -37.1429   25.8864 H   0  0  0  0  0  0
  -20.9340  -29.8782   21.6921 H   0  0  0  0  0  0
  -26.0200  -38.2889   24.1388 H   0  0  0  0  0  0
  -30.2569  -24.9519   19.0587 H   0  0  0  0  0  0
  -26.7036  -22.5854   21.4143 H   0  0  0  0  0  0
  -31.5540  -22.9550   18.8130 H   0  0  0  0  0  0
  -30.3996  -21.9767   17.9003 H   0  0  0  0  0  0
  -31.0433  -21.4095   19.4513 H   0  0  0  0  0  0
  -28.1041  -20.4132   19.2176 H   0  0  0  0  0  0
  -27.4592  -20.4214   20.8254 H   0  0  0  0  0  0
  -30.7326  -17.3570   21.8101 H   0  0  0  0  0  0
  -31.0151  -17.3236   20.0925 H   0  0  0  0  0  0
  -28.2802  -18.0222   21.3512 H   0  0  0  0  0  0
  -28.6352  -18.0249   19.6484 H   0  0  0  0  0  0
  -28.9194  -15.4758   21.1179 H   0  0  0  0  0  0
  -29.6809  -19.9066   21.6573 H   0  0  0  0  0  0
  -30.2481  -19.8324   20.1357 H   0  0  0  0  0  0
  1 25  1  0  0  0
  1 30  2  0  0  0
  1 81  1  0  0  0
  2  3  1  0  0  0
  2 25  1  0  0  0
  2 83  1  0  0  0
  2 84  1  0  0  0
  3  4  1  0  0  0
  3 85  1  0  0  0
  3 86  1  0  0  0
  4  5  1  0  0  0
  4 87  1  0  0  0
  4 88  1  0  0  0
  5  6  1  0  0  0
  5 26  1  0  0  0
  5 89  1  0  0  0
  6 25  1  0  0  0
  6 90  1  0  0  0
  6 91  1  0  0  0
  7  8  2  0  0  0
  7 26  1  0  0  0
  7 29  1  0  0  0
  8  9  1  0  0  0
  8 22  1  0  0  0
  9 10  1  0  0  0
  9 27  2  0  0  0
 10 11  2  0  0  0
 10 15  1  0  0  0
 11 12  1  0  0  0
 11 92  1  0  0  0
 12 13  2  0  0  0
 12 93  1  0  0  0
 13 14  1  0  0  0
 13 31  1  0  0  0
 14 15  2  0  0  0
 14 94  1  0  0  0
 15 95  1  0  0  0
 16 17  2  0  0  0
 16 21  1  0  0  0
 16 31  1  0  0  0
 17 18  1  0  0  0
 17 96  1  0  0  0
 18 19  2  0  0  0
 18 97  1  0  0  0
 19 20  1  0  0  0
 19 24  1  0  0  0
 20 21  2  0  0  0
 20 98  1  0  0  0
 21 23  1  0  0  0
 22 28  1  0  0  0
 22 32  2  0  0  0
 26 27  1  0  0  0
 28 99  1  0  0  0
 28100  1  0  0  0
 29101  1  0  0  0
 29102  1  0  0  0
 33 34  1  0  0  0
 33 66  1  0  0  0
 33 70  2  0  0  0
 34 36  1  0  0  0
 34 59  1  0  0  0
 34103  1  0  0  0
 35 44  2  0  0  0
 35 45  1  0  0  0
 35 68  1  0  0  0
 36 56  1  0  0  0
 36104  1  0  0  0
 37 39  1  0  0  0
 37 47  1  0  0  0
 37 66  1  0  0  0
 37105  1  0  0  0
 38 43  2  0  0  0
 38 46  1  0  0  0
 38 47  1  0  0  0
 39 64  1  0  0  0
 39 67  2  0  0  0
 40 52  1  0  0  0
 40 53  2  0  0  0
 40 58  1  0  0  0
 41106  1  0  0  0
 41107  1  0  0  0
 41108  1  0  0  0
 41 48  1  0  0  0
 42 43  1  0  0  0
 42 66  1  0  0  0
 42109  1  0  0  0
 42110  1  0  0  0
 43 44  1  0  0  0
 44111  1  0  0  0
 45 46  2  0  0  0
 45112  1  0  0  0
 46113  1  0  0  0
 47114  1  0  0  0
 47115  1  0  0  0
 48 56  1  0  0  0
 48 65  1  0  0  0
 48116  1  0  0  0
 49 50  1  0  0  0
 49 53  1  0  0  0
 49 64  1  0  0  0
 49117  1  0  0  0
 50 51  1  0  0  0
 50118  1  0  0  0
 50119  1  0  0  0
 51 52  1  0  0  0
 51120  1  0  0  0
 51121  1  0  0  0
 52122  1  0  0  0
 52123  1  0  0  0
 53 54  1  0  0  0
 54 55  2  0  0  0
 54124  1  0  0  0
 55 57  1  0  0  0
 55125  1  0  0  0
 56 69  2  0  0  0
 57 58  2  0  0  0
 57126  1  0  0  0
 58127  1  0  0  0
 59 60  1  0  0  0
 59 61  1  0  0  0
 59 62  1  0  0  0
 60128  1  0  0  0
 60129  1  0  0  0
 60130  1  0  0  0
 61131  1  0  0  0
 61132  1  0  0  0
 61133  1  0  0  0
 62134  1  0  0  0
 62135  1  0  0  0
 62136  1  0  0  0
 63 65  1  0  0  0
 63137  1  0  0  0
 63138  1  0  0  0
 63139  1  0  0  0
 64140  1  0  0  0
 65141  1  0  0  0
 68 75  1  0  0  0
 71 73  2  0  0  0
 71 75  1  0  0  0
 71142  1  0  0  0
 72 74  2  0  0  0
 72 80  1  0  0  0
 72143  1  0  0  0
 73 74  1  0  0  0
 73 76  1  0  0  0
 74 77  1  0  0  0
 75 80  2  0  0  0
 76144  1  0  0  0
 76145  1  0  0  0
 76146  1  0  0  0
 77 82  1  0  0  0
 77147  1  0  0  0
 77148  1  0  0  0
 78 79  1  0  0  0
 78 81  1  0  0  0
 78149  1  0  0  0
 78150  1  0  0  0
 79 82  1  0  0  0
 79151  1  0  0  0
 79152  1  0  0  0
 81153  1  0  0  0
 82154  1  0  0  0
 82155  1  0  0  0
M  CHG  1  82   1
M  ISO  4   1 100  68 101  75 101  81 100
M  END
> <chiral flag>
0

> <version>
0

> <s_m_source_file>
/data/baiqing/PycharmProjects/Reinvent-master-3.2/result/LINK_invent/BTK/process_docking_weight1_custom_sum_contain_oxygen_bond_distance_aromatic_linkinvent_7_9_3/rearranged_h_0132.sdf

> <i_m_source_file_index>
93

> <r_mmod_Potential_Energy-OPLS-2005>
-302.14013671875

> <r_mmod_Stretch_Energy-OPLS-2005>
76.7402572631836

> <r_mmod_Bend_Energy-OPLS-2005>
136.44108581543

> <r_mmod_Torsional_Energy-OPLS-2005>
194.513595581055

> <r_mmod_Improper_Torsional_Energy-OPLS-2005>
5.4126763343811

> <r_mmod_Van_der_Waal_Energy-OPLS-2005>
141.517471313477

> <r_mmod_Electrostatic_Energy-OPLS-2005>
-387.432708740234

> <r_mmod_Solvation_Energy-OPLS-2005>
-511.356018066406

> <b_mmod_Minimization_Converged-OPLS-2005>
0

> <r_mmod_RMS_Derivative-OPLS-2005>
4.16164588928223

$$$$
95
                    3D
 Structure written by MMmdl.
167176  0  0  1  0            999 V2000
  -30.6768  -14.6400   20.4692 C   0  0  0  0  0  0
  -30.4154  -12.3890   19.4581 C   0  0  0  0  0  0
  -29.4939  -12.4888   18.2242 C   0  0  0  0  0  0
  -28.0225  -12.3243   18.6476 C   0  0  0  0  0  0
  -27.6451  -13.2231   19.8553 C   0  0  2  0  0  0
  -28.6923  -13.1379   20.9882 C   0  0  0  0  0  0
  -25.2537  -13.8175   20.5711 C   0  0  0  0  0  0
  -24.1810  -13.0431   20.9194 C   0  0  0  0  0  0
  -24.6385  -11.6905   20.8743 C   0  0  0  0  0  0
  -23.9047  -10.4281   21.0403 C   0  0  0  0  0  0
  -24.3600   -9.4207   21.9187 C   0  0  0  0  0  0
  -23.6283   -8.2243   22.0768 C   0  0  0  0  0  0
  -22.4276   -8.0265   21.3536 C   0  0  0  0  0  0
  -21.9896   -9.0244   20.4649 C   0  0  0  0  0  0
  -22.7219  -10.2122   20.3059 C   0  0  0  0  0  0
  -21.6853   -6.0721   22.5266 C   0  0  0  0  0  0
  -21.4019   -6.5633   23.8194 C   0  0  0  0  0  0
  -21.3670   -5.6796   24.9164 C   0  0  0  0  0  0
  -21.6048   -4.3058   24.7222 C   0  0  0  0  0  0
  -21.8814   -3.8141   23.4347 C   0  0  0  0  0  0
  -21.9194   -4.6947   22.3397 C   0  0  0  0  0  0
  -22.7835  -13.5217   21.1853 C   0  0  0  0  0  0
  -22.1663   -4.2130   21.0974 F   0  0  0  0  0  0
  -21.5636   -3.4548   25.7747 F   0  0  0  0  0  0
  -30.0033  -13.4484   20.4034 N   0  0  0  0  0  0
  -26.2960  -12.9373   20.3334 N   0  0  0  0  0  0
  -25.9312  -11.6518   20.5780 N   0  0  0  0  0  0
  -22.0500  -12.8206   22.0419 N   0  0  0  0  0  0
  -25.4220  -15.1901   20.4142 N   0  0  0  0  0  0
  -31.8637  -14.7120   20.1462 O   0  0  0  0  0  0
  -21.6644   -6.8862   21.4227 O   0  0  0  0  0  0
  -22.3524  -14.5530   20.6711 O   0  0  0  0  0  0
  -24.6295  -31.8575   23.2004 C   0  0  0  0  0  0
  -25.9138  -32.4749   23.8345 C   0  0  1  0  0  0
  -27.2352  -27.3135   20.1122 C   0  0  0  0  0  0
  -25.5937  -33.8553   24.2272 N   0  0  0  0  0  0
  -23.4224  -30.4807   21.5439 C   0  0  2  0  0  0
  -24.8690  -28.9342   20.1136 C   0  0  0  0  0  0
  -22.7491  -29.4611   22.4937 C   0  0  0  0  0  0
  -18.0288  -28.1380   22.8498 C   0  0  0  0  0  0
  -24.1493  -36.7280   23.2643 C   0  0  0  0  0  0
  -25.9650  -30.7846   21.3745 C   0  0  0  0  0  0
  -26.0386  -29.4134   20.7153 C   0  0  0  0  0  0
  -27.2204  -28.6128   20.7091 C   0  0  0  0  0  0
  -26.0271  -26.8746   19.5190 C   0  0  0  0  0  0
  -24.8651  -27.6677   19.5104 C   0  0  0  0  0  0
  -23.6353  -29.8123   20.1614 C   0  0  0  0  0  0
  -25.4125  -36.3063   24.0324 C   0  0  1  0  0  0
  -20.5896  -28.3690   23.1285 C   0  0  2  0  0  0
  -20.6792  -26.9410   22.5408 C   0  0  0  0  0  0
  -19.5746  -26.6374   21.5226 C   0  0  0  0  0  0
  -18.1921  -26.7927   22.1628 C   0  0  0  0  0  0
  -19.1545  -28.8857   23.2874 C   0  0  0  0  0  0
  -18.9475  -30.1475   23.8867 C   0  0  0  0  0  0
  -17.6476  -30.6592   24.0569 C   0  0  0  0  0  0
  -25.9057  -34.9430   23.5098 C   0  0  0  0  0  0
  -16.5369  -29.9087   23.6349 C   0  0  0  0  0  0
  -16.7277  -28.6510   23.0357 C   0  0  0  0  0  0
  -26.4513  -31.6587   25.0750 C   0  0  0  0  0  0
  -25.3716  -31.3718   26.1457 C   0  0  0  0  0  0
  -27.0424  -30.3023   24.6242 C   0  0  0  0  0  0
  -27.6067  -32.4348   25.7509 C   0  0  0  0  0  0
  -27.5571  -37.1794   24.8465 C   0  0  0  0  0  0
  -21.4209  -29.3042   22.3688 N   0  0  0  0  0  0
  -26.4294  -37.3769   23.9403 N   0  0  0  0  0  0
  -24.6903  -31.0581   22.0950 N   0  0  0  0  0  0
  -23.4207  -28.8147   23.3020 O   0  0  0  0  0  0
  -28.3722  -26.4875   20.1911 O   0  0  0  0  0  0
  -26.5620  -34.8909   22.4659 O   0  0  0  0  0  0
  -23.5451  -32.1396   23.7313 O   0  0  0  0  0  0
  -30.3180  -23.4467   19.6043 C   0  0  0  0  0  0
  -30.7115  -22.0967   19.8101 C   0  0  0  0  0  0
  -28.4919  -21.5502   20.5453 C   0  0  0  0  0  0
  -28.9970  -23.9007   19.8458 C   0  0  0  0  0  0
  -29.8114  -21.0971   20.2561 C   0  0  0  0  0  0
  -28.0871  -22.9215   20.3508 C   0  0  0  0  0  0
  -24.3812  -23.1983   21.1895 C   0  0  0  0  0  0
  -23.2483  -22.2734   20.7344 C   0  0  0  0  0  0
  -25.1672  -21.9062   19.3470 C   0  0  0  0  0  0
  -25.6293  -22.4725   20.6989 C   0  0  1  0  0  0
  -28.5565  -25.3212   19.3057 C   0  0  0  0  0  0
  -29.5675  -18.4645   20.5412 C   0  0  0  0  0  0
  -30.5200  -17.1841   20.4591 C   0  0  0  0  0  0
  -26.7827  -23.3612   20.6234 N   0  0  0  0  0  0
  -30.3057  -19.7524   20.3758 N   0  0  0  0  0  0
  -29.9635  -15.7969   20.6659 N   0  0  0  0  0  0
  -23.7414  -21.5772   19.5285 N   0  3  0  0  0  0
  -31.4612  -12.4745   19.1590 H   0  0  0  0  0  0
  -30.3193  -11.4083   19.9269 H   0  0  0  0  0  0
  -29.7565  -11.7248   17.4913 H   0  0  0  0  0  0
  -29.6299  -13.4503   17.7278 H   0  0  0  0  0  0
  -27.8754  -11.2763   18.9109 H   0  0  0  0  0  0
  -27.3568  -12.5187   17.8055 H   0  0  0  0  0  0
  -27.6478  -14.2466   19.4816 H   0  0  0  0  0  0
  -28.7072  -12.1412   21.4313 H   0  0  0  0  0  0
  -28.4492  -13.8279   21.7978 H   0  0  0  0  0  0
  -25.2739   -9.5701   22.4766 H   0  0  0  0  0  0
  -23.9990   -7.4651   22.7501 H   0  0  0  0  0  0
  -21.0820   -8.8738   19.8963 H   0  0  0  0  0  0
  -22.3647  -10.9659   19.6172 H   0  0  0  0  0  0
  -21.2011   -7.6143   23.9679 H   0  0  0  0  0  0
  -21.1509   -6.0543   25.9062 H   0  0  0  0  0  0
  -22.0587   -2.7597   23.2854 H   0  0  0  0  0  0
  -22.4130  -11.9853   22.4761 H   0  0  0  0  0  0
  -21.1127  -13.1223   22.2660 H   0  0  0  0  0  0
  -24.6512  -15.8390   20.5238 H   0  0  0  0  0  0
  -26.2694  -15.6322   20.0823 H   0  0  0  0  0  0
  -26.7210  -32.5410   23.1092 H   0  0  0  0  0  0
  -25.0133  -33.9709   25.0443 H   0  0  0  0  0  0
  -22.7182  -31.3034   21.4016 H   0  0  0  0  0  0
  -23.3756  -35.9601   23.3291 H   0  0  0  0  0  0
  -24.3576  -36.8920   22.2056 H   0  0  0  0  0  0
  -23.7259  -37.6483   23.6680 H   0  0  0  0  0  0
  -26.1050  -31.5480   20.6085 H   0  0  0  0  0  0
  -26.8422  -30.8289   22.0081 H   0  0  0  0  0  0
  -28.1184  -28.9751   21.1897 H   0  0  0  0  0  0
  -25.9181  -25.8896   19.0958 H   0  0  0  0  0  0
  -23.9603  -27.2819   19.0626 H   0  0  0  0  0  0
  -23.7424  -30.5866   19.4009 H   0  0  0  0  0  0
  -22.7561  -29.2354   19.8681 H   0  0  0  0  0  0
  -25.1294  -36.1902   25.0816 H   0  0  0  0  0  0
  -20.9996  -28.3264   24.1399 H   0  0  0  0  0  0
  -20.5750  -26.2278   23.3605 H   0  0  0  0  0  0
  -21.6651  -26.7449   22.1163 H   0  0  0  0  0  0
  -19.6902  -25.6282   21.1260 H   0  0  0  0  0  0
  -19.6686  -27.3183   20.6758 H   0  0  0  0  0  0
  -17.4205  -26.6717   21.4012 H   0  0  0  0  0  0
  -18.0289  -26.0055   22.9008 H   0  0  0  0  0  0
  -19.7949  -30.7314   24.2193 H   0  0  0  0  0  0
  -17.5022  -31.6267   24.5168 H   0  0  0  0  0  0
  -15.5367  -30.2971   23.7685 H   0  0  0  0  0  0
  -15.8682  -28.0830   22.7061 H   0  0  0  0  0  0
  -24.5885  -30.7079   25.7758 H   0  0  0  0  0  0
  -24.8919  -32.2893   26.4890 H   0  0  0  0  0  0
  -25.8021  -30.8873   27.0234 H   0  0  0  0  0  0
  -26.3062  -29.6712   24.1257 H   0  0  0  0  0  0
  -27.4147  -29.7322   25.4768 H   0  0  0  0  0  0
  -27.8872  -30.4342   23.9480 H   0  0  0  0  0  0
  -27.2688  -33.3676   26.2037 H   0  0  0  0  0  0
  -28.3887  -32.6879   25.0334 H   0  0  0  0  0  0
  -28.0717  -31.8509   26.5464 H   0  0  0  0  0  0
  -28.2572  -38.0101   24.7542 H   0  0  0  0  0  0
  -28.1095  -36.2651   24.6269 H   0  0  0  0  0  0
  -27.2280  -37.1399   25.8859 H   0  0  0  0  0  0
  -20.9397  -29.8779   21.6905 H   0  0  0  0  0  0
  -26.0161  -38.2830   24.1420 H   0  0  0  0  0  0
  -31.0396  -24.1321   19.1861 H   0  0  0  0  0  0
  -31.7321  -21.8308   19.5723 H   0  0  0  0  0  0
  -27.7871  -20.8238   20.9188 H   0  0  0  0  0  0
  -24.3797  -23.3655   22.2674 H   0  0  0  0  0  0
  -24.2793  -24.1692   20.7005 H   0  0  0  0  0  0
  -22.3249  -22.8207   20.5412 H   0  0  0  0  0  0
  -23.0405  -21.5311   21.5055 H   0  0  0  0  0  0
  -25.7485  -21.0410   19.0262 H   0  0  0  0  0  0
  -25.2432  -22.6614   18.5637 H   0  0  0  0  0  0
  -25.8312  -21.6495   21.3861 H   0  0  0  0  0  0
  -27.7268  -25.1446   18.6292 H   0  0  0  0  0  0
  -29.3461  -25.6422   18.6277 H   0  0  0  0  0  0
  -29.0464  -18.4788   21.4987 H   0  0  0  0  0  0
  -28.7989  -18.4036   19.7684 H   0  0  0  0  0  0
  -31.3340  -17.3045   21.1761 H   0  0  0  0  0  0
  -30.9980  -17.1884   19.4768 H   0  0  0  0  0  0
  -26.6016  -24.3587   20.5758 H   0  0  0  0  0  0
  -31.3011  -19.6406   20.1977 H   0  0  0  0  0  0
  -28.9825  -15.7087   20.8848 H   0  0  0  0  0  0
  -23.2195  -21.8641   18.7164 H   0  0  0  0  0  0
  -23.6255  -20.5835   19.6458 H   0  0  0  0  0  0
  1 25  1  0  0  0
  1 30  2  0  0  0
  1 86  1  0  0  0
  2  3  1  0  0  0
  2 25  1  0  0  0
  2 88  1  0  0  0
  2 89  1  0  0  0
  3  4  1  0  0  0
  3 90  1  0  0  0
  3 91  1  0  0  0
  4  5  1  0  0  0
  4 92  1  0  0  0
  4 93  1  0  0  0
  5  6  1  0  0  0
  5 26  1  0  0  0
  5 94  1  0  0  0
  6 25  1  0  0  0
  6 95  1  0  0  0
  6 96  1  0  0  0
  7  8  2  0  0  0
  7 26  1  0  0  0
  7 29  1  0  0  0
  8  9  1  0  0  0
  8 22  1  0  0  0
  9 10  1  0  0  0
  9 27  2  0  0  0
 10 11  2  0  0  0
 10 15  1  0  0  0
 11 12  1  0  0  0
 11 97  1  0  0  0
 12 13  2  0  0  0
 12 98  1  0  0  0
 13 14  1  0  0  0
 13 31  1  0  0  0
 14 15  2  0  0  0
 14 99  1  0  0  0
 15100  1  0  0  0
 16 17  2  0  0  0
 16 21  1  0  0  0
 16 31  1  0  0  0
 17 18  1  0  0  0
 17101  1  0  0  0
 18 19  2  0  0  0
 18102  1  0  0  0
 19 20  1  0  0  0
 19 24  1  0  0  0
 20 21  2  0  0  0
 20103  1  0  0  0
 21 23  1  0  0  0
 22 28  1  0  0  0
 22 32  2  0  0  0
 26 27  1  0  0  0
 28104  1  0  0  0
 28105  1  0  0  0
 29106  1  0  0  0
 29107  1  0  0  0
 33 34  1  0  0  0
 33 66  1  0  0  0
 33 70  2  0  0  0
 34 36  1  0  0  0
 34 59  1  0  0  0
 34108  1  0  0  0
 35 44  2  0  0  0
 35 45  1  0  0  0
 35 68  1  0  0  0
 36 56  1  0  0  0
 36109  1  0  0  0
 37 39  1  0  0  0
 37 47  1  0  0  0
 37 66  1  0  0  0
 37110  1  0  0  0
 38 43  2  0  0  0
 38 46  1  0  0  0
 38 47  1  0  0  0
 39 64  1  0  0  0
 39 67  2  0  0  0
 40 52  1  0  0  0
 40 53  2  0  0  0
 40 58  1  0  0  0
 41111  1  0  0  0
 41112  1  0  0  0
 41113  1  0  0  0
 41 48  1  0  0  0
 42 43  1  0  0  0
 42 66  1  0  0  0
 42114  1  0  0  0
 42115  1  0  0  0
 43 44  1  0  0  0
 44116  1  0  0  0
 45 46  2  0  0  0
 45117  1  0  0  0
 46118  1  0  0  0
 47119  1  0  0  0
 47120  1  0  0  0
 48 56  1  0  0  0
 48 65  1  0  0  0
 48121  1  0  0  0
 49 50  1  0  0  0
 49 53  1  0  0  0
 49 64  1  0  0  0
 49122  1  0  0  0
 50 51  1  0  0  0
 50123  1  0  0  0
 50124  1  0  0  0
 51 52  1  0  0  0
 51125  1  0  0  0
 51126  1  0  0  0
 52127  1  0  0  0
 52128  1  0  0  0
 53 54  1  0  0  0
 54 55  2  0  0  0
 54129  1  0  0  0
 55 57  1  0  0  0
 55130  1  0  0  0
 56 69  2  0  0  0
 57 58  2  0  0  0
 57131  1  0  0  0
 58132  1  0  0  0
 59 60  1  0  0  0
 59 61  1  0  0  0
 59 62  1  0  0  0
 60133  1  0  0  0
 60134  1  0  0  0
 60135  1  0  0  0
 61136  1  0  0  0
 61137  1  0  0  0
 61138  1  0  0  0
 62139  1  0  0  0
 62140  1  0  0  0
 62141  1  0  0  0
 63 65  1  0  0  0
 63142  1  0  0  0
 63143  1  0  0  0
 63144  1  0  0  0
 64145  1  0  0  0
 65146  1  0  0  0
 68 81  1  0  0  0
 71 72  2  0  0  0
 71 74  1  0  0  0
 71147  1  0  0  0
 72 75  1  0  0  0
 72148  1  0  0  0
 73 75  2  0  0  0
 73 76  1  0  0  0
 73149  1  0  0  0
 74 76  2  0  0  0
 74 81  1  0  0  0
 75 85  1  0  0  0
 76 84  1  0  0  0
 77 78  1  0  0  0
 77 80  1  0  0  0
 77150  1  0  0  0
 77151  1  0  0  0
 78 87  1  0  0  0
 78152  1  0  0  0
 78153  1  0  0  0
 79 80  1  0  0  0
 79 87  1  0  0  0
 79154  1  0  0  0
 79155  1  0  0  0
 80 84  1  0  0  0
 80156  1  0  0  0
 81157  1  0  0  0
 81158  1  0  0  0
 82 83  1  0  0  0
 82 85  1  0  0  0
 82159  1  0  0  0
 82160  1  0  0  0
 83 86  1  0  0  0
 83161  1  0  0  0
 83162  1  0  0  0
 84163  1  0  0  0
 85164  1  0  0  0
 86165  1  0  0  0
 87166  1  0  0  0
 87167  1  0  0  0
M  CHG  1  87   1
M  ISO  4   1 100  68 101  81 101  86 100
M  END
> <chiral flag>
0

> <version>
0

> <s_m_source_file>
/data/baiqing/PycharmProjects/Reinvent-master-3.2/result/LINK_invent/BTK/process_docking_weight1_custom_sum_contain_oxygen_bond_distance_aromatic_linkinvent_7_9_3/rearranged_h_0132.sdf

> <i_m_source_file_index>
94

> <r_mmod_Potential_Energy-OPLS-2005>
-33.5297164916992

> <r_mmod_Stretch_Energy-OPLS-2005>
80.8758010864258

> <r_mmod_Bend_Energy-OPLS-2005>
206.276962280273

> <r_mmod_Torsional_Energy-OPLS-2005>
266.919097900391

> <r_mmod_Improper_Torsional_Energy-OPLS-2005>
7.65346574783325

> <r_mmod_Van_der_Waal_Energy-OPLS-2005>
135.057662963867

> <r_mmod_Electrostatic_Energy-OPLS-2005>
-281.285217285156

> <r_mmod_Solvation_Energy-OPLS-2005>
-502.238159179688

> <b_mmod_Minimization_Converged-OPLS-2005>
0

> <r_mmod_RMS_Derivative-OPLS-2005>
2.71301579475403

$$$$
96
                    3D
 Structure written by MMmdl.
159168  0  0  1  0            999 V2000
  -30.5083  -14.9423   20.4272 C   0  0  0  0  0  0
  -30.4515  -12.5820   19.4996 C   0  0  0  0  0  0
  -29.5276  -12.5364   18.2585 C   0  0  0  0  0  0
  -28.0591  -12.3205   18.6734 C   0  0  0  0  0  0
  -27.6367  -13.2421   19.8463 C   0  0  2  0  0  0
  -28.6783  -13.2391   20.9860 C   0  0  0  0  0  0
  -25.2488  -13.8199   20.5697 C   0  0  0  0  0  0
  -24.1797  -13.0437   20.9226 C   0  0  0  0  0  0
  -24.6403  -11.6920   20.8754 C   0  0  0  0  0  0
  -23.9079  -10.4294   21.0405 C   0  0  0  0  0  0
  -24.3625   -9.4210   21.9183 C   0  0  0  0  0  0
  -23.6296   -8.2250   22.0758 C   0  0  0  0  0  0
  -22.4275   -8.0288   21.3551 C   0  0  0  0  0  0
  -21.9911   -9.0264   20.4653 C   0  0  0  0  0  0
  -22.7248  -10.2139   20.3058 C   0  0  0  0  0  0
  -21.6855   -6.0738   22.5278 C   0  0  0  0  0  0
  -21.4016   -6.5640   23.8212 C   0  0  0  0  0  0
  -21.3658   -5.6793   24.9175 C   0  0  0  0  0  0
  -21.6040   -4.3055   24.7226 C   0  0  0  0  0  0
  -21.8818   -3.8149   23.4345 C   0  0  0  0  0  0
  -21.9195   -4.6966   22.3400 C   0  0  0  0  0  0
  -22.7817  -13.5219   21.1875 C   0  0  0  0  0  0
  -22.1661   -4.2152   21.0976 F   0  0  0  0  0  0
  -21.5625   -3.4537   25.7738 F   0  0  0  0  0  0
  -29.9607  -13.6605   20.4037 N   0  0  0  0  0  0
  -26.2919  -12.9422   20.3257 N   0  0  0  0  0  0
  -25.9333  -11.6558   20.5737 N   0  0  0  0  0  0
  -22.0457  -12.8215   22.0430 N   0  0  0  0  0  0
  -25.4148  -15.1917   20.4078 N   0  0  0  0  0  0
  -31.6906  -15.0660   20.0859 O   0  0  0  0  0  0
  -21.6643   -6.8885   21.4243 O   0  0  0  0  0  0
  -22.3500  -14.5518   20.6708 O   0  0  0  0  0  0
  -24.6434  -31.8427   23.1863 C   0  0  0  0  0  0
  -25.9211  -32.4683   23.8251 C   0  0  1  0  0  0
  -27.2237  -27.1352   20.1484 C   0  0  0  0  0  0
  -25.5963  -33.8489   24.2177 N   0  0  0  0  0  0
  -23.4463  -30.4607   21.5314 C   0  0  2  0  0  0
  -24.8955  -28.8829   20.1080 C   0  0  0  0  0  0
  -22.7566  -29.4539   22.4856 C   0  0  0  0  0  0
  -18.0307  -28.1394   22.8475 C   0  0  0  0  0  0
  -24.1490  -36.7249   23.2642 C   0  0  0  0  0  0
  -26.0009  -30.7160   21.3836 C   0  0  0  0  0  0
  -26.0706  -29.3264   20.7257 C   0  0  0  0  0  0
  -27.2311  -28.4674   20.7283 C   0  0  0  0  0  0
  -26.0187  -26.7850   19.5000 C   0  0  0  0  0  0
  -24.8823  -27.6260   19.4815 C   0  0  0  0  0  0
  -23.6719  -29.7862   20.1508 C   0  0  0  0  0  0
  -25.4121  -36.3023   24.0314 C   0  0  1  0  0  0
  -20.5920  -28.3717   23.1238 C   0  0  2  0  0  0
  -20.6790  -26.9418   22.5408 C   0  0  0  0  0  0
  -19.5764  -26.6377   21.5213 C   0  0  0  0  0  0
  -18.1945  -26.7934   22.1620 C   0  0  0  0  0  0
  -19.1564  -28.8874   23.2848 C   0  0  0  0  0  0
  -18.9480  -30.1470   23.8871 C   0  0  0  0  0  0
  -17.6476  -30.6587   24.0559 C   0  0  0  0  0  0
  -25.9073  -34.9399   23.5054 C   0  0  0  0  0  0
  -16.5367  -29.9079   23.6335 C   0  0  0  0  0  0
  -16.7293  -28.6501   23.0353 C   0  0  0  0  0  0
  -26.4533  -31.6559   25.0698 C   0  0  0  0  0  0
  -25.3722  -31.3767   26.1401 C   0  0  0  0  0  0
  -27.0400  -30.2953   24.6287 C   0  0  0  0  0  0
  -27.6056  -32.4334   25.7491 C   0  0  0  0  0  0
  -27.5576  -37.1778   24.8463 C   0  0  0  0  0  0
  -21.4259  -29.3038   22.3608 N   0  0  0  0  0  0
  -26.4283  -37.3736   23.9410 N   0  0  0  0  0  0
  -24.7165  -31.0284   22.0889 N   0  0  0  0  0  0
  -23.4212  -28.8092   23.3011 O   0  0  0  0  0  0
  -28.3085  -26.1899   20.2468 O   0  0  0  0  0  0
  -26.5653  -34.8905   22.4630 O   0  0  0  0  0  0
  -23.5558  -32.1306   23.7090 O   0  0  0  0  0  0
  -30.1724  -19.8516   19.5273 C   0  0  0  0  0  0
  -30.3715  -18.4130   19.6746 C   0  0  0  0  0  0
  -28.5047  -19.8270   21.1677 C   0  0  0  0  0  0
  -28.6780  -18.3834   21.3121 C   0  0  0  0  0  0
  -29.2226  -20.6681   20.2528 C   0  0  0  0  0  0
  -29.6235  -17.5795   20.5694 C   0  0  0  0  0  0
  -29.7030  -24.3734   19.1746 C   0  0  0  0  0  0
  -29.8385  -22.8242   19.0070 C   0  0  0  0  0  0
  -28.3314  -24.6970   19.7920 C   0  0  1  0  0  0
  -28.2670  -23.3083   20.6903 C   0  0  1  0  0  0
  -27.7851  -17.6772   22.3185 C   0  0  0  0  0  0
  -26.8129  -22.9493   21.0190 C   0  0  0  0  0  0
  -29.0344  -22.1437   20.0280 N   0  0  0  0  0  0
  -29.6618  -16.0465   20.7133 N   0  0  0  0  0  0
  -31.4833  -12.7527   19.1882 H   0  0  0  0  0  0
  -30.4537  -11.6216   20.0171 H   0  0  0  0  0  0
  -29.8445  -11.7447   17.5783 H   0  0  0  0  0  0
  -29.6164  -13.4706   17.7016 H   0  0  0  0  0  0
  -27.9523  -11.2767   18.9710 H   0  0  0  0  0  0
  -27.3979  -12.4638   17.8184 H   0  0  0  0  0  0
  -27.6091  -14.2497   19.4307 H   0  0  0  0  0  0
  -28.7611  -12.2496   21.4374 H   0  0  0  0  0  0
  -28.3749  -13.9150   21.7869 H   0  0  0  0  0  0
  -25.2770   -9.5682   22.4760 H   0  0  0  0  0  0
  -24.0005   -7.4636   22.7467 H   0  0  0  0  0  0
  -21.0846   -8.8784   19.8955 H   0  0  0  0  0  0
  -22.3707  -10.9679   19.6168 H   0  0  0  0  0  0
  -21.2011   -7.6148   23.9716 H   0  0  0  0  0  0
  -21.1476   -6.0523   25.9077 H   0  0  0  0  0  0
  -22.0599   -2.7613   23.2845 H   0  0  0  0  0  0
  -22.4077  -11.9888   22.4836 H   0  0  0  0  0  0
  -21.1071  -13.1237   22.2620 H   0  0  0  0  0  0
  -24.6392  -15.8371   20.5072 H   0  0  0  0  0  0
  -26.2420  -15.6269   20.0218 H   0  0  0  0  0  0
  -26.7272  -32.5287   23.0974 H   0  0  0  0  0  0
  -25.0106  -33.9594   25.0324 H   0  0  0  0  0  0
  -22.7488  -31.2866   21.3760 H   0  0  0  0  0  0
  -23.3757  -35.9575   23.3285 H   0  0  0  0  0  0
  -24.3577  -36.8900   22.2060 H   0  0  0  0  0  0
  -23.7241  -37.6439   23.6690 H   0  0  0  0  0  0
  -26.1567  -31.4710   20.6118 H   0  0  0  0  0  0
  -26.8716  -30.7660   22.0259 H   0  0  0  0  0  0
  -28.1268  -28.8019   21.2315 H   0  0  0  0  0  0
  -25.9130  -25.8200   19.0302 H   0  0  0  0  0  0
  -23.9817  -27.2794   18.9930 H   0  0  0  0  0  0
  -23.8086  -30.5595   19.3941 H   0  0  0  0  0  0
  -22.7863  -29.2291   19.8398 H   0  0  0  0  0  0
  -25.1308  -36.1842   25.0805 H   0  0  0  0  0  0
  -21.0013  -28.3308   24.1359 H   0  0  0  0  0  0
  -20.5680  -26.2326   23.3625 H   0  0  0  0  0  0
  -21.6656  -26.7417   22.1206 H   0  0  0  0  0  0
  -19.6919  -25.6281   21.1256 H   0  0  0  0  0  0
  -19.6700  -27.3174   20.6732 H   0  0  0  0  0  0
  -17.4212  -26.6686   21.4024 H   0  0  0  0  0  0
  -18.0333  -26.0081   22.9020 H   0  0  0  0  0  0
  -19.7957  -30.7298   24.2224 H   0  0  0  0  0  0
  -17.5028  -31.6265   24.5163 H   0  0  0  0  0  0
  -15.5366  -30.2970   23.7675 H   0  0  0  0  0  0
  -15.8696  -28.0811   22.7077 H   0  0  0  0  0  0
  -24.5891  -30.7116   25.7741 H   0  0  0  0  0  0
  -24.8924  -32.2960   26.4770 H   0  0  0  0  0  0
  -25.8011  -30.8984   27.0215 H   0  0  0  0  0  0
  -26.3016  -29.6671   24.1290 H   0  0  0  0  0  0
  -27.4008  -29.7257   25.4864 H   0  0  0  0  0  0
  -27.8925  -30.4189   23.9603 H   0  0  0  0  0  0
  -27.2629  -33.3644   26.2020 H   0  0  0  0  0  0
  -28.3892  -32.6885   25.0344 H   0  0  0  0  0  0
  -28.0692  -31.8496   26.5454 H   0  0  0  0  0  0
  -28.2579  -38.0089   24.7510 H   0  0  0  0  0  0
  -28.1086  -36.2617   24.6278 H   0  0  0  0  0  0
  -27.2297  -37.1412   25.8867 H   0  0  0  0  0  0
  -20.9471  -29.8749   21.6785 H   0  0  0  0  0  0
  -26.0149  -38.2802   24.1420 H   0  0  0  0  0  0
  -30.7982  -20.3319   18.7902 H   0  0  0  0  0  0
  -31.1111  -17.9425   19.0420 H   0  0  0  0  0  0
  -27.7591  -20.2943   21.7901 H   0  0  0  0  0  0
  -29.8589  -24.8954   18.2304 H   0  0  0  0  0  0
  -30.4810  -24.7200   19.8563 H   0  0  0  0  0  0
  -30.8889  -22.5368   19.0671 H   0  0  0  0  0  0
  -29.4743  -22.5251   18.0227 H   0  0  0  0  0  0
  -27.6158  -24.5815   18.9799 H   0  0  0  0  0  0
  -28.7822  -23.5107   21.6308 H   0  0  0  0  0  0
  -27.1757  -18.3804   22.8869 H   0  0  0  0  0  0
  -28.3844  -17.1085   23.0300 H   0  0  0  0  0  0
  -27.1094  -16.9894   21.8115 H   0  0  0  0  0  0
  -26.2760  -22.6126   20.1318 H   0  0  0  0  0  0
  -26.2861  -23.8211   21.4091 H   0  0  0  0  0  0
  -26.7395  -22.1761   21.7799 H   0  0  0  0  0  0
  -28.7986  -15.6931   21.0958 H   0  0  0  0  0  0
  1 25  1  0  0  0
  1 30  2  0  0  0
  1 84  1  0  0  0
  2  3  1  0  0  0
  2 25  1  0  0  0
  2 85  1  0  0  0
  2 86  1  0  0  0
  3  4  1  0  0  0
  3 87  1  0  0  0
  3 88  1  0  0  0
  4  5  1  0  0  0
  4 89  1  0  0  0
  4 90  1  0  0  0
  5  6  1  0  0  0
  5 26  1  0  0  0
  5 91  1  0  0  0
  6 25  1  0  0  0
  6 92  1  0  0  0
  6 93  1  0  0  0
  7  8  2  0  0  0
  7 26  1  0  0  0
  7 29  1  0  0  0
  8  9  1  0  0  0
  8 22  1  0  0  0
  9 10  1  0  0  0
  9 27  2  0  0  0
 10 11  2  0  0  0
 10 15  1  0  0  0
 11 12  1  0  0  0
 11 94  1  0  0  0
 12 13  2  0  0  0
 12 95  1  0  0  0
 13 14  1  0  0  0
 13 31  1  0  0  0
 14 15  2  0  0  0
 14 96  1  0  0  0
 15 97  1  0  0  0
 16 17  2  0  0  0
 16 21  1  0  0  0
 16 31  1  0  0  0
 17 18  1  0  0  0
 17 98  1  0  0  0
 18 19  2  0  0  0
 18 99  1  0  0  0
 19 20  1  0  0  0
 19 24  1  0  0  0
 20 21  2  0  0  0
 20100  1  0  0  0
 21 23  1  0  0  0
 22 28  1  0  0  0
 22 32  2  0  0  0
 26 27  1  0  0  0
 28101  1  0  0  0
 28102  1  0  0  0
 29103  1  0  0  0
 29104  1  0  0  0
 33 34  1  0  0  0
 33 66  1  0  0  0
 33 70  2  0  0  0
 34 36  1  0  0  0
 34 59  1  0  0  0
 34105  1  0  0  0
 35 44  2  0  0  0
 35 45  1  0  0  0
 35 68  1  0  0  0
 36 56  1  0  0  0
 36106  1  0  0  0
 37 39  1  0  0  0
 37 47  1  0  0  0
 37 66  1  0  0  0
 37107  1  0  0  0
 38 43  2  0  0  0
 38 46  1  0  0  0
 38 47  1  0  0  0
 39 64  1  0  0  0
 39 67  2  0  0  0
 40 52  1  0  0  0
 40 53  2  0  0  0
 40 58  1  0  0  0
 41108  1  0  0  0
 41109  1  0  0  0
 41110  1  0  0  0
 41 48  1  0  0  0
 42 43  1  0  0  0
 42 66  1  0  0  0
 42111  1  0  0  0
 42112  1  0  0  0
 43 44  1  0  0  0
 44113  1  0  0  0
 45 46  2  0  0  0
 45114  1  0  0  0
 46115  1  0  0  0
 47116  1  0  0  0
 47117  1  0  0  0
 48 56  1  0  0  0
 48 65  1  0  0  0
 48118  1  0  0  0
 49 50  1  0  0  0
 49 53  1  0  0  0
 49 64  1  0  0  0
 49119  1  0  0  0
 50 51  1  0  0  0
 50120  1  0  0  0
 50121  1  0  0  0
 51 52  1  0  0  0
 51122  1  0  0  0
 51123  1  0  0  0
 52124  1  0  0  0
 52125  1  0  0  0
 53 54  1  0  0  0
 54 55  2  0  0  0
 54126  1  0  0  0
 55 57  1  0  0  0
 55127  1  0  0  0
 56 69  2  0  0  0
 57 58  2  0  0  0
 57128  1  0  0  0
 58129  1  0  0  0
 59 60  1  0  0  0
 59 61  1  0  0  0
 59 62  1  0  0  0
 60130  1  0  0  0
 60131  1  0  0  0
 60132  1  0  0  0
 61133  1  0  0  0
 61134  1  0  0  0
 61135  1  0  0  0
 62136  1  0  0  0
 62137  1  0  0  0
 62138  1  0  0  0
 63 65  1  0  0  0
 63139  1  0  0  0
 63140  1  0  0  0
 63141  1  0  0  0
 64142  1  0  0  0
 65143  1  0  0  0
 68 79  1  0  0  0
 71 72  2  0  0  0
 71 75  1  0  0  0
 71144  1  0  0  0
 72 76  1  0  0  0
 72145  1  0  0  0
 73 74  1  0  0  0
 73 75  2  0  0  0
 73146  1  0  0  0
 74 76  2  0  0  0
 74 81  1  0  0  0
 75 83  1  0  0  0
 76 84  1  0  0  0
 77 78  1  0  0  0
 77 79  1  0  0  0
 77147  1  0  0  0
 77148  1  0  0  0
 78 83  1  0  0  0
 78149  1  0  0  0
 78150  1  0  0  0
 79 80  1  0  0  0
 79151  1  0  0  0
 80 82  1  0  0  0
 80 83  1  0  0  0
 80152  1  0  0  0
 81153  1  0  0  0
 81154  1  0  0  0
 81155  1  0  0  0
 82156  1  0  0  0
 82157  1  0  0  0
 82158  1  0  0  0
 84159  1  0  0  0
M  ISO  4   1 100  68 101  79 101  84 100
M  END
> <chiral flag>
0

> <version>
0

> <s_m_source_file>
/data/baiqing/PycharmProjects/Reinvent-master-3.2/result/LINK_invent/BTK/process_docking_weight1_custom_sum_contain_oxygen_bond_distance_aromatic_linkinvent_7_9_3/rearranged_h_0132.sdf

> <i_m_source_file_index>
95

> <r_mmod_Potential_Energy-OPLS-2005>
489.059387207031

> <r_mmod_Stretch_Energy-OPLS-2005>
222.06884765625

> <r_mmod_Bend_Energy-OPLS-2005>
329.053680419922

> <r_mmod_Torsional_Energy-OPLS-2005>
257.860809326172

> <r_mmod_Improper_Torsional_Energy-OPLS-2005>
3.6941990852356

> <r_mmod_Van_der_Waal_Energy-OPLS-2005>
125.911842346191

> <r_mmod_Electrostatic_Energy-OPLS-2005>
-415.377868652344

> <r_mmod_Solvation_Energy-OPLS-2005>
-221.976989746094

> <b_mmod_Minimization_Converged-OPLS-2005>
0

> <r_mmod_RMS_Derivative-OPLS-2005>
0.947630167007446

$$$$
