0
                    3D
 Structure written by MMmdl.
155163  0  0  1  0            999 V2000
  -30.6601  -14.6810   20.4482 C   0  0  0  0  0  0
  -30.4267  -12.4087   19.4692 C   0  0  0  0  0  0
  -29.5084  -12.4930   18.2311 C   0  0  0  0  0  0
  -28.0322  -12.3349   18.6408 C   0  0  0  0  0  0
  -27.6469  -13.2296   19.8489 C   0  0  2  0  0  0
  -28.6936  -13.1548   20.9842 C   0  0  0  0  0  0
  -25.2537  -13.8205   20.5665 C   0  0  0  0  0  0
  -24.1837  -13.0451   20.9188 C   0  0  0  0  0  0
  -24.6428  -11.6925   20.8736 C   0  0  0  0  0  0
  -23.9100  -10.4307   21.0398 C   0  0  0  0  0  0
  -24.3644   -9.4215   21.9173 C   0  0  0  0  0  0
  -23.6314   -8.2252   22.0748 C   0  0  0  0  0  0
  -22.4289   -8.0297   21.3544 C   0  0  0  0  0  0
  -21.9935   -9.0272   20.4639 C   0  0  0  0  0  0
  -22.7270  -10.2147   20.3048 C   0  0  0  0  0  0
  -21.6862   -6.0748   22.5282 C   0  0  0  0  0  0
  -21.4021   -6.5647   23.8217 C   0  0  0  0  0  0
  -21.3655   -5.6792   24.9171 C   0  0  0  0  0  0
  -21.6039   -4.3057   24.7221 C   0  0  0  0  0  0
  -21.8823   -3.8159   23.4342 C   0  0  0  0  0  0
  -21.9204   -4.6978   22.3401 C   0  0  0  0  0  0
  -22.7851  -13.5221   21.1846 C   0  0  0  0  0  0
  -22.1671   -4.2166   21.0978 F   0  0  0  0  0  0
  -21.5622   -3.4536   25.7730 F   0  0  0  0  0  0
  -30.0059  -13.4734   20.4065 N   0  0  0  0  0  0
  -26.2974  -12.9411   20.3268 N   0  0  0  0  0  0
  -25.9357  -11.6555   20.5747 N   0  0  0  0  0  0
  -22.0512  -12.8204   22.0401 N   0  0  0  0  0  0
  -25.4234  -15.1931   20.4055 N   0  0  0  0  0  0
  -31.8404  -14.7614   20.1011 O   0  0  0  0  0  0
  -21.6650   -6.8892   21.4243 O   0  0  0  0  0  0
  -22.3521  -14.5521   20.6688 O   0  0  0  0  0  0
  -24.6296  -31.8566   23.2015 C   0  0  0  0  0  0
  -25.9126  -32.4763   23.8356 C   0  0  1  0  0  0
  -27.2259  -27.2910   20.1074 C   0  0  0  0  0  0
  -25.5933  -33.8569   24.2268 N   0  0  0  0  0  0
  -23.4248  -30.4809   21.5454 C   0  0  2  0  0  0
  -24.8716  -28.9384   20.1062 C   0  0  0  0  0  0
  -22.7498  -29.4603   22.4923 C   0  0  0  0  0  0
  -18.0288  -28.1385   22.8468 C   0  0  0  0  0  0
  -24.1485  -36.7289   23.2642 C   0  0  0  0  0  0
  -25.9700  -30.7761   21.3800 C   0  0  0  0  0  0
  -26.0426  -29.4039   20.7170 C   0  0  0  0  0  0
  -27.2207  -28.5927   20.7094 C   0  0  0  0  0  0
  -26.0301  -26.8987   19.4570 C   0  0  0  0  0  0
  -24.8703  -27.6932   19.4649 C   0  0  0  0  0  0
  -23.6405  -29.8189   20.1599 C   0  0  0  0  0  0
  -25.4115  -36.3075   24.0324 C   0  0  1  0  0  0
  -20.5888  -28.3695   23.1253 C   0  0  2  0  0  0
  -20.6767  -26.9408   22.5395 C   0  0  0  0  0  0
  -19.5747  -26.6372   21.5195 C   0  0  0  0  0  0
  -18.1931  -26.7920   22.1615 C   0  0  0  0  0  0
  -19.1542  -28.8858   23.2853 C   0  0  0  0  0  0
  -18.9468  -30.1461   23.8866 C   0  0  0  0  0  0
  -17.6470  -30.6581   24.0558 C   0  0  0  0  0  0
  -25.9058  -34.9445   23.5099 C   0  0  0  0  0  0
  -16.5359  -29.9075   23.6332 C   0  0  0  0  0  0
  -16.7277  -28.6500   23.0334 C   0  0  0  0  0  0
  -26.4498  -31.6596   25.0747 C   0  0  0  0  0  0
  -25.3726  -31.3746   26.1475 C   0  0  0  0  0  0
  -27.0352  -30.3011   24.6239 C   0  0  0  0  0  0
  -27.6044  -32.4351   25.7516 C   0  0  0  0  0  0
  -27.5577  -37.1799   24.8463 C   0  0  0  0  0  0
  -21.4208  -29.3046   22.3657 N   0  0  0  0  0  0
  -26.4291  -37.3773   23.9409 N   0  0  0  0  0  0
  -24.6935  -31.0555   22.0983 N   0  0  0  0  0  0
  -23.4202  -28.8123   23.3005 O   0  0  0  0  0  0
  -28.3242  -26.4021   20.1796 O   0  0  0  0  0  0
  -26.5627  -34.8911   22.4667 O   0  0  0  0  0  0
  -23.5450  -32.1374   23.7325 O   0  0  0  0  0  0
  -28.9098  -22.4314   19.9361 C   0  0  0  0  0  0
  -30.0583  -24.0500   21.2977 C   0  0  0  0  0  0
  -29.0431  -23.8062   20.3608 C   0  0  0  0  0  0
  -29.7652  -21.3768   20.4332 C   0  0  0  0  0  0
  -30.7421  -21.7989   21.3686 C   0  0  0  0  0  0
  -31.7688  -20.8500   21.9624 C   0  0  0  0  0  0
  -29.7705  -19.9000   19.8394 C   0  0  0  0  0  0
  -28.0775  -24.9586   19.8778 C   0  0  0  0  0  0
  -29.6294  -18.5521   20.7205 C   0  0  0  0  0  0
  -30.2839  -17.2154   20.1040 C   0  0  0  0  0  0
  -30.8697  -23.0817   21.7862 N   0  0  0  0  0  0
  -29.9211  -15.8308   20.6241 N   0  0  0  0  0  0
  -31.4702  -12.5041   19.1653 H   0  0  0  0  0  0
  -30.3483  -11.4298   19.9450 H   0  0  0  0  0  0
  -29.7776  -11.7226   17.5066 H   0  0  0  0  0  0
  -29.6538  -13.4502   17.7276 H   0  0  0  0  0  0
  -27.8704  -11.2853   18.8898 H   0  0  0  0  0  0
  -27.3822  -12.5448   17.7913 H   0  0  0  0  0  0
  -27.6468  -14.2527   19.4730 H   0  0  0  0  0  0
  -28.7079  -12.1627   21.4378 H   0  0  0  0  0  0
  -28.4410  -13.8506   21.7853 H   0  0  0  0  0  0
  -25.2795   -9.5683   22.4731 H   0  0  0  0  0  0
  -24.0032   -7.4640   22.7459 H   0  0  0  0  0  0
  -21.0875   -8.8797   19.8933 H   0  0  0  0  0  0
  -22.3750  -10.9681   19.6150 H   0  0  0  0  0  0
  -21.2020   -7.6151   23.9724 H   0  0  0  0  0  0
  -21.1461   -6.0516   25.9070 H   0  0  0  0  0  0
  -22.0609   -2.7624   23.2835 H   0  0  0  0  0  0
  -22.4172  -11.9894   22.4809 H   0  0  0  0  0  0
  -21.1111  -13.1189   22.2573 H   0  0  0  0  0  0
  -24.6530  -15.8448   20.5074 H   0  0  0  0  0  0
  -26.2658  -15.6322   20.0568 H   0  0  0  0  0  0
  -26.7199  -32.5401   23.1108 H   0  0  0  0  0  0
  -25.0084  -33.9719   25.0413 H   0  0  0  0  0  0
  -22.7208  -31.3033   21.4033 H   0  0  0  0  0  0
  -23.3736  -35.9630   23.3310 H   0  0  0  0  0  0
  -24.3572  -36.8909   22.2055 H   0  0  0  0  0  0
  -23.7246  -37.6496   23.6663 H   0  0  0  0  0  0
  -26.1125  -31.5394   20.6137 H   0  0  0  0  0  0
  -26.8463  -30.8189   22.0156 H   0  0  0  0  0  0
  -28.1149  -28.9459   21.2031 H   0  0  0  0  0  0
  -25.9511  -25.9551   18.9382 H   0  0  0  0  0  0
  -23.9771  -27.3365   18.9704 H   0  0  0  0  0  0
  -23.7592  -30.5965   19.4050 H   0  0  0  0  0  0
  -22.7581  -29.2512   19.8576 H   0  0  0  0  0  0
  -25.1293  -36.1931   25.0816 H   0  0  0  0  0  0
  -20.9983  -28.3271   24.1371 H   0  0  0  0  0  0
  -20.5643  -26.2314   23.3608 H   0  0  0  0  0  0
  -21.6638  -26.7409   22.1205 H   0  0  0  0  0  0
  -19.6908  -25.6276   21.1238 H   0  0  0  0  0  0
  -19.6675  -27.3169   20.6712 H   0  0  0  0  0  0
  -17.4187  -26.6644   21.4031 H   0  0  0  0  0  0
  -18.0345  -26.0070   22.9025 H   0  0  0  0  0  0
  -19.7951  -30.7284   24.2203 H   0  0  0  0  0  0
  -17.5027  -31.6251   24.5183 H   0  0  0  0  0  0
  -15.5359  -30.2970   23.7679 H   0  0  0  0  0  0
  -15.8676  -28.0832   22.7037 H   0  0  0  0  0  0
  -24.5885  -30.7114   25.7810 H   0  0  0  0  0  0
  -24.8934  -32.2916   26.4913 H   0  0  0  0  0  0
  -25.8044  -30.8913   27.0248 H   0  0  0  0  0  0
  -26.2946  -29.6757   24.1240 H   0  0  0  0  0  0
  -27.4006  -29.7282   25.4773 H   0  0  0  0  0  0
  -27.8834  -30.4287   23.9508 H   0  0  0  0  0  0
  -27.2644  -33.3660   26.2070 H   0  0  0  0  0  0
  -28.3859  -32.6908   25.0349 H   0  0  0  0  0  0
  -28.0708  -31.8499   26.5455 H   0  0  0  0  0  0
  -28.2591  -38.0099   24.7507 H   0  0  0  0  0  0
  -28.1073  -36.2626   24.6287 H   0  0  0  0  0  0
  -27.2292  -37.1451   25.8867 H   0  0  0  0  0  0
  -20.9396  -29.8817   21.6899 H   0  0  0  0  0  0
  -26.0161  -38.2848   24.1403 H   0  0  0  0  0  0
  -28.1563  -22.1871   19.2004 H   0  0  0  0  0  0
  -30.2275  -25.0470   21.6782 H   0  0  0  0  0  0
  -32.7109  -21.3641   22.1526 H   0  0  0  0  0  0
  -31.9975  -20.0140   21.3043 H   0  0  0  0  0  0
  -31.4055  -20.4536   22.9107 H   0  0  0  0  0  0
  -30.7137  -19.8257   19.2959 H   0  0  0  0  0  0
  -29.0172  -19.8611   19.0522 H   0  0  0  0  0  0
  -27.1190  -24.6804   20.3170 H   0  0  0  0  0  0
  -27.9710  -24.8581   18.7963 H   0  0  0  0  0  0
  -28.5713  -18.3842   20.9206 H   0  0  0  0  0  0
  -30.0787  -18.7026   21.7014 H   0  0  0  0  0  0
  -31.3690  -17.3260   20.1567 H   0  0  0  0  0  0
  -30.0547  -17.2006   19.0365 H   0  0  0  0  0  0
  -28.9613  -15.6932   20.9035 H   0  0  0  0  0  0
  1 25  1  0  0  0
  1 30  2  0  0  0
  1 82  1  0  0  0
  2  3  1  0  0  0
  2 25  1  0  0  0
  2 83  1  0  0  0
  2 84  1  0  0  0
  3  4  1  0  0  0
  3 85  1  0  0  0
  3 86  1  0  0  0
  4  5  1  0  0  0
  4 87  1  0  0  0
  4 88  1  0  0  0
  5  6  1  0  0  0
  5 26  1  0  0  0
  5 89  1  0  0  0
  6 25  1  0  0  0
  6 90  1  0  0  0
  6 91  1  0  0  0
  7  8  2  0  0  0
  7 26  1  0  0  0
  7 29  1  0  0  0
  8  9  1  0  0  0
  8 22  1  0  0  0
  9 10  1  0  0  0
  9 27  2  0  0  0
 10 11  2  0  0  0
 10 15  1  0  0  0
 11 12  1  0  0  0
 11 92  1  0  0  0
 12 13  2  0  0  0
 12 93  1  0  0  0
 13 14  1  0  0  0
 13 31  1  0  0  0
 14 15  2  0  0  0
 14 94  1  0  0  0
 15 95  1  0  0  0
 16 17  2  0  0  0
 16 21  1  0  0  0
 16 31  1  0  0  0
 17 18  1  0  0  0
 17 96  1  0  0  0
 18 19  2  0  0  0
 18 97  1  0  0  0
 19 20  1  0  0  0
 19 24  1  0  0  0
 20 21  2  0  0  0
 20 98  1  0  0  0
 21 23  1  0  0  0
 22 28  1  0  0  0
 22 32  2  0  0  0
 26 27  1  0  0  0
 28 99  1  0  0  0
 28100  1  0  0  0
 29101  1  0  0  0
 29102  1  0  0  0
 33 34  1  0  0  0
 33 66  1  0  0  0
 33 70  2  0  0  0
 34 36  1  0  0  0
 34 59  1  0  0  0
 34103  1  0  0  0
 35 44  2  0  0  0
 35 45  1  0  0  0
 35 68  1  0  0  0
 36 56  1  0  0  0
 36104  1  0  0  0
 37 39  1  0  0  0
 37 47  1  0  0  0
 37 66  1  0  0  0
 37105  1  0  0  0
 38 43  2  0  0  0
 38 46  1  0  0  0
 38 47  1  0  0  0
 39 64  1  0  0  0
 39 67  2  0  0  0
 40 52  1  0  0  0
 40 53  2  0  0  0
 40 58  1  0  0  0
 41106  1  0  0  0
 41107  1  0  0  0
 41108  1  0  0  0
 41 48  1  0  0  0
 42 43  1  0  0  0
 42 66  1  0  0  0
 42109  1  0  0  0
 42110  1  0  0  0
 43 44  1  0  0  0
 44111  1  0  0  0
 45 46  2  0  0  0
 45112  1  0  0  0
 46113  1  0  0  0
 47114  1  0  0  0
 47115  1  0  0  0
 48 56  1  0  0  0
 48 65  1  0  0  0
 48116  1  0  0  0
 49 50  1  0  0  0
 49 53  1  0  0  0
 49 64  1  0  0  0
 49117  1  0  0  0
 50 51  1  0  0  0
 50118  1  0  0  0
 50119  1  0  0  0
 51 52  1  0  0  0
 51120  1  0  0  0
 51121  1  0  0  0
 52122  1  0  0  0
 52123  1  0  0  0
 53 54  1  0  0  0
 54 55  2  0  0  0
 54124  1  0  0  0
 55 57  1  0  0  0
 55125  1  0  0  0
 56 69  2  0  0  0
 57 58  2  0  0  0
 57126  1  0  0  0
 58127  1  0  0  0
 59 60  1  0  0  0
 59 61  1  0  0  0
 59 62  1  0  0  0
 60128  1  0  0  0
 60129  1  0  0  0
 60130  1  0  0  0
 61131  1  0  0  0
 61132  1  0  0  0
 61133  1  0  0  0
 62134  1  0  0  0
 62135  1  0  0  0
 62136  1  0  0  0
 63 65  1  0  0  0
 63137  1  0  0  0
 63138  1  0  0  0
 63139  1  0  0  0
 64140  1  0  0  0
 65141  1  0  0  0
 68 78  1  0  0  0
 71 73  2  0  0  0
 71 74  1  0  0  0
 71142  1  0  0  0
 72 73  1  0  0  0
 72 81  2  0  0  0
 72143  1  0  0  0
 73 78  1  0  0  0
 74 75  2  0  0  0
 74 77  1  0  0  0
 75 76  1  0  0  0
 75 81  1  0  0  0
 76144  1  0  0  0
 76145  1  0  0  0
 76146  1  0  0  0
 77 79  1  0  0  0
 77147  1  0  0  0
 77148  1  0  0  0
 78149  1  0  0  0
 78150  1  0  0  0
 79 80  1  0  0  0
 79151  1  0  0  0
 79152  1  0  0  0
 80 82  1  0  0  0
 80153  1  0  0  0
 80154  1  0  0  0
 82155  1  0  0  0
M  ISO  4   1 100  68 101  78 101  82 100
M  END
> <chiral flag>
0

> <version>
0

> <s_m_source_file>
/data/baiqing/PycharmProjects/Reinvent-master-3.2/result/LINK_invent/BTK/process_docking_weight1_custom_sum_contain_oxygen_bond_distance_aromatic_linkinvent_7_9_3/rearranged_h_0035.sdf

> <i_m_source_file_index>
1

> <r_mmod_Potential_Energy-OPLS-2005>
-27.0072612762451

> <r_mmod_Stretch_Energy-OPLS-2005>
103.518646240234

> <r_mmod_Bend_Energy-OPLS-2005>
151.537292480469

> <r_mmod_Torsional_Energy-OPLS-2005>
218.263153076172

> <r_mmod_Improper_Torsional_Energy-OPLS-2005>
7.81759929656982

> <r_mmod_Van_der_Waal_Energy-OPLS-2005>
146.572799682617

> <r_mmod_Electrostatic_Energy-OPLS-2005>
-492.918426513672

> <r_mmod_Solvation_Energy-OPLS-2005>
-228.381744384766

> <b_mmod_Minimization_Converged-OPLS-2005>
0

> <r_mmod_RMS_Derivative-OPLS-2005>
2.01713824272156

$$$$
1
                    3D
 Structure written by MMmdl.
165174  0  0  1  0            999 V2000
  -30.7518  -14.3855   20.6769 C   0  0  0  0  0  0
  -30.4156  -12.2996   19.3988 C   0  0  0  0  0  0
  -29.4834  -12.5324   18.1952 C   0  0  0  0  0  0
  -28.0074  -12.3824   18.6106 C   0  0  0  0  0  0
  -27.6627  -13.2047   19.8798 C   0  0  2  0  0  0
  -28.6996  -12.9504   20.9953 C   0  0  0  0  0  0
  -25.2577  -13.8166   20.5670 C   0  0  0  0  0  0
  -24.1838  -13.0446   20.9171 C   0  0  0  0  0  0
  -24.6392  -11.6905   20.8747 C   0  0  0  0  0  0
  -23.9069  -10.4294   21.0425 C   0  0  0  0  0  0
  -24.3617   -9.4208   21.9203 C   0  0  0  0  0  0
  -23.6292   -8.2245   22.0760 C   0  0  0  0  0  0
  -22.4281   -8.0288   21.3544 C   0  0  0  0  0  0
  -21.9930   -9.0262   20.4641 C   0  0  0  0  0  0
  -22.7256  -10.2139   20.3061 C   0  0  0  0  0  0
  -21.6850   -6.0746   22.5275 C   0  0  0  0  0  0
  -21.4017   -6.5646   23.8214 C   0  0  0  0  0  0
  -21.3657   -5.6794   24.9176 C   0  0  0  0  0  0
  -21.6045   -4.3058   24.7221 C   0  0  0  0  0  0
  -21.8815   -3.8155   23.4338 C   0  0  0  0  0  0
  -21.9187   -4.6974   22.3396 C   0  0  0  0  0  0
  -22.7859  -13.5243   21.1837 C   0  0  0  0  0  0
  -22.1659   -4.2165   21.0971 F   0  0  0  0  0  0
  -21.5629   -3.4535   25.7733 F   0  0  0  0  0  0
  -30.0401  -13.2499   20.4555 N   0  0  0  0  0  0
  -26.3023  -12.9338   20.3380 N   0  0  0  0  0  0
  -25.9318  -11.6493   20.5773 N   0  0  0  0  0  0
  -22.0496  -12.8233   22.0381 N   0  0  0  0  0  0
  -25.4289  -15.1885   20.4055 N   0  0  0  0  0  0
  -31.8047  -14.6520   20.0877 O   0  0  0  0  0  0
  -21.6634   -6.8892   21.4241 O   0  0  0  0  0  0
  -22.3558  -14.5566   20.6702 O   0  0  0  0  0  0
  -24.6118  -31.8689   23.2110 C   0  0  0  0  0  0
  -25.9011  -32.4836   23.8412 C   0  0  1  0  0  0
  -27.2398  -27.4577   20.0624 C   0  0  0  0  0  0
  -25.5889  -33.8644   24.2338 N   0  0  0  0  0  0
  -23.3982  -30.4943   21.5492 C   0  0  2  0  0  0
  -24.8438  -28.9579   20.1192 C   0  0  0  0  0  0
  -22.7379  -29.4674   22.4969 C   0  0  0  0  0  0
  -18.0271  -28.1372   22.8498 C   0  0  0  0  0  0
  -24.1492  -36.7339   23.2641 C   0  0  0  0  0  0
  -25.9262  -30.8391   21.3607 C   0  0  0  0  0  0
  -26.0034  -29.4725   20.7107 C   0  0  0  0  0  0
  -27.2002  -28.7242   20.6874 C   0  0  0  0  0  0
  -26.0498  -26.9398   19.4973 C   0  0  0  0  0  0
  -24.8588  -27.6887   19.5175 C   0  0  0  0  0  0
  -23.6062  -29.8232   20.1664 C   0  0  0  0  0  0
  -25.4113  -36.3126   24.0335 C   0  0  1  0  0  0
  -20.5854  -28.3653   23.1330 C   0  0  2  0  0  0
  -20.6747  -26.9388   22.5420 C   0  0  0  0  0  0
  -19.5738  -26.6383   21.5204 C   0  0  0  0  0  0
  -18.1907  -26.7938   22.1590 C   0  0  0  0  0  0
  -19.1518  -28.8826   23.2924 C   0  0  0  0  0  0
  -18.9445  -30.1436   23.8929 C   0  0  0  0  0  0
  -17.6447  -30.6588   24.0555 C   0  0  0  0  0  0
  -25.9029  -34.9485   23.5124 C   0  0  0  0  0  0
  -16.5339  -29.9077   23.6329 C   0  0  0  0  0  0
  -16.7262  -28.6492   23.0361 C   0  0  0  0  0  0
  -26.4444  -31.6617   25.0742 C   0  0  0  0  0  0
  -25.3689  -31.3657   26.1451 C   0  0  0  0  0  0
  -27.0319  -30.3089   24.6104 C   0  0  0  0  0  0
  -27.6012  -32.4327   25.7533 C   0  0  0  0  0  0
  -27.5600  -37.1824   24.8453 C   0  0  0  0  0  0
  -21.4105  -29.3042   22.3738 N   0  0  0  0  0  0
  -26.4304  -37.3809   23.9410 N   0  0  0  0  0  0
  -24.6634  -31.0810   22.0993 N   0  0  0  0  0  0
  -23.4168  -28.8203   23.2985 O   0  0  0  0  0  0
  -28.4438  -26.7865   20.0290 O   0  0  0  0  0  0
  -26.5564  -34.8921   22.4670 O   0  0  0  0  0  0
  -23.5314  -32.1435   23.7516 O   0  0  0  0  0  0
  -31.5531  -18.3026   20.7256 C   0  0  0  0  0  0
  -31.3034  -19.5834   20.2054 C   0  0  0  0  0  0
  -30.5897  -17.7034   21.5603 C   0  0  0  0  0  0
  -30.0985  -20.2339   20.5283 C   0  0  0  0  0  0
  -29.3928  -18.4172   21.8099 C   0  0  0  0  0  0
  -29.7568  -22.6849   21.2035 C   0  0  0  0  0  0
  -28.6369  -21.8319   19.1191 C   0  0  0  0  0  0
  -29.6973  -24.1272   20.6657 C   0  0  0  0  0  0
  -28.5755  -23.2669   18.5493 C   0  0  0  0  0  0
  -29.8505  -21.6682   20.0510 C   0  0  2  0  0  0
  -28.5528  -24.3522   19.6522 C   0  0  2  0  0  0
  -28.3043  -17.8535   22.7048 C   0  0  0  0  0  0
  -30.9052  -16.3548   22.2127 C   0  0  0  0  0  0
  -28.6519  -25.7693   19.0442 C   0  0  0  0  0  0
  -29.1542  -19.6501   21.3024 N   0  0  0  0  0  0
  -30.2428  -15.1981   21.6122 N   0  0  0  0  0  0
  -31.4588  -12.4025   19.0941 H   0  0  0  0  0  0
  -30.3178  -11.2795   19.7718 H   0  0  0  0  0  0
  -29.7213  -11.8363   17.3902 H   0  0  0  0  0  0
  -29.6485  -13.5329   17.7920 H   0  0  0  0  0  0
  -27.8134  -11.3246   18.7897 H   0  0  0  0  0  0
  -27.3552  -12.6752   17.7871 H   0  0  0  0  0  0
  -27.7187  -14.2581   19.6056 H   0  0  0  0  0  0
  -28.6665  -11.9075   21.3129 H   0  0  0  0  0  0
  -28.4415  -13.5231   21.8868 H   0  0  0  0  0  0
  -25.2754   -9.5683   22.4789 H   0  0  0  0  0  0
  -23.9996   -7.4645   22.7495 H   0  0  0  0  0  0
  -21.0862   -8.8788   19.8940 H   0  0  0  0  0  0
  -22.3727  -10.9684   19.6169 H   0  0  0  0  0  0
  -21.2021   -7.6155   23.9726 H   0  0  0  0  0  0
  -21.1486   -6.0519   25.9081 H   0  0  0  0  0  0
  -22.0599   -2.7618   23.2830 H   0  0  0  0  0  0
  -22.4077  -11.9846   22.4701 H   0  0  0  0  0  0
  -21.1132  -13.1282   22.2615 H   0  0  0  0  0  0
  -24.6571  -15.8401   20.4981 H   0  0  0  0  0  0
  -26.2819  -15.6287   20.0837 H   0  0  0  0  0  0
  -26.7078  -32.5558   23.1186 H   0  0  0  0  0  0
  -25.0065  -33.9827   25.0499 H   0  0  0  0  0  0
  -22.6874  -31.3104   21.4072 H   0  0  0  0  0  0
  -23.3781  -35.9639   23.3228 H   0  0  0  0  0  0
  -24.3601  -36.9057   22.2075 H   0  0  0  0  0  0
  -23.7209  -37.6502   23.6713 H   0  0  0  0  0  0
  -26.0322  -31.6027   20.5891 H   0  0  0  0  0  0
  -26.8180  -30.8989   21.9731 H   0  0  0  0  0  0
  -28.1026  -29.1267   21.1268 H   0  0  0  0  0  0
  -26.0199  -25.9630   19.0363 H   0  0  0  0  0  0
  -23.9618  -27.2843   19.0689 H   0  0  0  0  0  0
  -23.7139  -30.5939   19.4024 H   0  0  0  0  0  0
  -22.7315  -29.2399   19.8737 H   0  0  0  0  0  0
  -25.1287  -36.1995   25.0833 H   0  0  0  0  0  0
  -20.9968  -28.3209   24.1441 H   0  0  0  0  0  0
  -20.5619  -26.2250   23.3587 H   0  0  0  0  0  0
  -21.6625  -26.7398   22.1247 H   0  0  0  0  0  0
  -19.6877  -25.6291   21.1244 H   0  0  0  0  0  0
  -19.6715  -27.3180   20.6725 H   0  0  0  0  0  0
  -17.4190  -26.6743   21.3963 H   0  0  0  0  0  0
  -18.0252  -26.0060   22.8951 H   0  0  0  0  0  0
  -19.7915  -30.7248   24.2328 H   0  0  0  0  0  0
  -17.4994  -31.6281   24.5138 H   0  0  0  0  0  0
  -15.5334  -30.2968   23.7666 H   0  0  0  0  0  0
  -15.8659  -28.0824   22.7066 H   0  0  0  0  0  0
  -24.6078  -30.6739   25.7821 H   0  0  0  0  0  0
  -24.8591  -32.2734   26.4677 H   0  0  0  0  0  0
  -25.8075  -30.9097   27.0335 H   0  0  0  0  0  0
  -26.2890  -29.6834   24.1142 H   0  0  0  0  0  0
  -27.4117  -29.7336   25.4562 H   0  0  0  0  0  0
  -27.8681  -30.4482   23.9252 H   0  0  0  0  0  0
  -27.2680  -33.3667   26.2071 H   0  0  0  0  0  0
  -28.3858  -32.6816   25.0377 H   0  0  0  0  0  0
  -28.0606  -31.8445   26.5491 H   0  0  0  0  0  0
  -28.2557  -38.0180   24.7565 H   0  0  0  0  0  0
  -28.1163  -36.2714   24.6200 H   0  0  0  0  0  0
  -27.2314  -37.1371   25.8851 H   0  0  0  0  0  0
  -20.9216  -29.8808   21.7037 H   0  0  0  0  0  0
  -26.0199  -38.2886   24.1431 H   0  0  0  0  0  0
  -32.4846  -17.7993   20.5110 H   0  0  0  0  0  0
  -32.0458  -20.0675   19.5855 H   0  0  0  0  0  0
  -28.8757  -22.4762   21.8116 H   0  0  0  0  0  0
  -30.6198  -22.5819   21.8616 H   0  0  0  0  0  0
  -28.6981  -21.1163   18.2980 H   0  0  0  0  0  0
  -27.7191  -21.6064   19.6647 H   0  0  0  0  0  0
  -30.6511  -24.3691   20.1923 H   0  0  0  0  0  0
  -29.5930  -24.8209   21.5001 H   0  0  0  0  0  0
  -27.6941  -23.3656   17.9145 H   0  0  0  0  0  0
  -29.4342  -23.4266   17.8942 H   0  0  0  0  0  0
  -30.7295  -21.9406   19.4652 H   0  0  0  0  0  0
  -27.6007  -24.2673   20.1791 H   0  0  0  0  0  0
  -28.6445  -17.8240   23.7398 H   0  0  0  0  0  0
  -28.0387  -16.8410   22.4017 H   0  0  0  0  0  0
  -27.3961  -18.4557   22.6674 H   0  0  0  0  0  0
  -30.6181  -16.3956   23.2635 H   0  0  0  0  0  0
  -31.9855  -16.1978   22.2233 H   0  0  0  0  0  0
  -28.0018  -25.8835   18.1768 H   0  0  0  0  0  0
  -29.6560  -25.9163   18.6441 H   0  0  0  0  0  0
  -29.3817  -14.8885   22.0375 H   0  0  0  0  0  0
  1 25  1  0  0  0
  1 30  2  0  0  0
  1 86  1  0  0  0
  2  3  1  0  0  0
  2 25  1  0  0  0
  2 87  1  0  0  0
  2 88  1  0  0  0
  3  4  1  0  0  0
  3 89  1  0  0  0
  3 90  1  0  0  0
  4  5  1  0  0  0
  4 91  1  0  0  0
  4 92  1  0  0  0
  5  6  1  0  0  0
  5 26  1  0  0  0
  5 93  1  0  0  0
  6 25  1  0  0  0
  6 94  1  0  0  0
  6 95  1  0  0  0
  7  8  2  0  0  0
  7 26  1  0  0  0
  7 29  1  0  0  0
  8  9  1  0  0  0
  8 22  1  0  0  0
  9 10  1  0  0  0
  9 27  2  0  0  0
 10 11  2  0  0  0
 10 15  1  0  0  0
 11 12  1  0  0  0
 11 96  1  0  0  0
 12 13  2  0  0  0
 12 97  1  0  0  0
 13 14  1  0  0  0
 13 31  1  0  0  0
 14 15  2  0  0  0
 14 98  1  0  0  0
 15 99  1  0  0  0
 16 17  2  0  0  0
 16 21  1  0  0  0
 16 31  1  0  0  0
 17 18  1  0  0  0
 17100  1  0  0  0
 18 19  2  0  0  0
 18101  1  0  0  0
 19 20  1  0  0  0
 19 24  1  0  0  0
 20 21  2  0  0  0
 20102  1  0  0  0
 21 23  1  0  0  0
 22 28  1  0  0  0
 22 32  2  0  0  0
 26 27  1  0  0  0
 28103  1  0  0  0
 28104  1  0  0  0
 29105  1  0  0  0
 29106  1  0  0  0
 33 34  1  0  0  0
 33 66  1  0  0  0
 33 70  2  0  0  0
 34 36  1  0  0  0
 34 59  1  0  0  0
 34107  1  0  0  0
 35 44  2  0  0  0
 35 45  1  0  0  0
 35 68  1  0  0  0
 36 56  1  0  0  0
 36108  1  0  0  0
 37 39  1  0  0  0
 37 47  1  0  0  0
 37 66  1  0  0  0
 37109  1  0  0  0
 38 43  2  0  0  0
 38 46  1  0  0  0
 38 47  1  0  0  0
 39 64  1  0  0  0
 39 67  2  0  0  0
 40 52  1  0  0  0
 40 53  2  0  0  0
 40 58  1  0  0  0
 41110  1  0  0  0
 41111  1  0  0  0
 41112  1  0  0  0
 41 48  1  0  0  0
 42 43  1  0  0  0
 42 66  1  0  0  0
 42113  1  0  0  0
 42114  1  0  0  0
 43 44  1  0  0  0
 44115  1  0  0  0
 45 46  2  0  0  0
 45116  1  0  0  0
 46117  1  0  0  0
 47118  1  0  0  0
 47119  1  0  0  0
 48 56  1  0  0  0
 48 65  1  0  0  0
 48120  1  0  0  0
 49 50  1  0  0  0
 49 53  1  0  0  0
 49 64  1  0  0  0
 49121  1  0  0  0
 50 51  1  0  0  0
 50122  1  0  0  0
 50123  1  0  0  0
 51 52  1  0  0  0
 51124  1  0  0  0
 51125  1  0  0  0
 52126  1  0  0  0
 52127  1  0  0  0
 53 54  1  0  0  0
 54 55  2  0  0  0
 54128  1  0  0  0
 55 57  1  0  0  0
 55129  1  0  0  0
 56 69  2  0  0  0
 57 58  2  0  0  0
 57130  1  0  0  0
 58131  1  0  0  0
 59 60  1  0  0  0
 59 61  1  0  0  0
 59 62  1  0  0  0
 60132  1  0  0  0
 60133  1  0  0  0
 60134  1  0  0  0
 61135  1  0  0  0
 61136  1  0  0  0
 61137  1  0  0  0
 62138  1  0  0  0
 62139  1  0  0  0
 62140  1  0  0  0
 63 65  1  0  0  0
 63141  1  0  0  0
 63142  1  0  0  0
 63143  1  0  0  0
 64144  1  0  0  0
 65145  1  0  0  0
 68 84  1  0  0  0
 71 72  2  0  0  0
 71 73  1  0  0  0
 71146  1  0  0  0
 72 74  1  0  0  0
 72147  1  0  0  0
 73 75  2  0  0  0
 73 83  1  0  0  0
 74 85  2  0  0  0
 74 80  1  0  0  0
 75 82  1  0  0  0
 75 85  1  0  0  0
 76 78  1  0  0  0
 76 80  1  0  0  0
 76148  1  0  0  0
 76149  1  0  0  0
 77 79  1  0  0  0
 77 80  1  0  0  0
 77150  1  0  0  0
 77151  1  0  0  0
 78 81  1  0  0  0
 78152  1  0  0  0
 78153  1  0  0  0
 79 81  1  0  0  0
 79154  1  0  0  0
 79155  1  0  0  0
 80156  1  0  0  0
 81 84  1  0  0  0
 81157  1  0  0  0
 82158  1  0  0  0
 82159  1  0  0  0
 82160  1  0  0  0
 83 86  1  0  0  0
 83161  1  0  0  0
 83162  1  0  0  0
 84163  1  0  0  0
 84164  1  0  0  0
 86165  1  0  0  0
M  ISO  4   1 100  68 101  84 101  86 100
M  END
> <chiral flag>
0

> <version>
0

> <s_m_source_file>
/data/baiqing/PycharmProjects/Reinvent-master-3.2/result/LINK_invent/BTK/process_docking_weight1_custom_sum_contain_oxygen_bond_distance_aromatic_linkinvent_7_9_3/rearranged_h_0035.sdf

> <i_m_source_file_index>
2

> <r_mmod_Potential_Energy-OPLS-2005>
-202.586242675781

> <r_mmod_Stretch_Energy-OPLS-2005>
34.7538528442383

> <r_mmod_Bend_Energy-OPLS-2005>
99.977783203125

> <r_mmod_Torsional_Energy-OPLS-2005>
201.661315917969

> <r_mmod_Improper_Torsional_Energy-OPLS-2005>
2.23033833503723

> <r_mmod_Van_der_Waal_Energy-OPLS-2005>
157.136093139648

> <r_mmod_Electrostatic_Energy-OPLS-2005>
-490.756134033203

> <r_mmod_Solvation_Energy-OPLS-2005>
-215.465957641602

> <b_mmod_Minimization_Converged-OPLS-2005>
0

> <r_mmod_RMS_Derivative-OPLS-2005>
2.06822228431702

$$$$
2
                    3D
 Structure written by MMmdl.
156164  0  0  1  0            999 V2000
  -30.6453  -14.6800   20.4769 C   0  0  0  0  0  0
  -30.4195  -12.4131   19.4691 C   0  0  0  0  0  0
  -29.5086  -12.5147   18.2291 C   0  0  0  0  0  0
  -28.0359  -12.3298   18.6416 C   0  0  0  0  0  0
  -27.6438  -13.2237   19.8508 C   0  0  2  0  0  0
  -28.6850  -13.1465   20.9883 C   0  0  0  0  0  0
  -25.2524  -13.8188   20.5646 C   0  0  0  0  0  0
  -24.1806  -13.0447   20.9179 C   0  0  0  0  0  0
  -24.6398  -11.6928   20.8747 C   0  0  0  0  0  0
  -23.9087  -10.4304   21.0410 C   0  0  0  0  0  0
  -24.3643   -9.4217   21.9187 C   0  0  0  0  0  0
  -23.6313   -8.2256   22.0763 C   0  0  0  0  0  0
  -22.4299   -8.0286   21.3542 C   0  0  0  0  0  0
  -21.9939   -9.0259   20.4633 C   0  0  0  0  0  0
  -22.7280  -10.2133   20.3043 C   0  0  0  0  0  0
  -21.6865   -6.0736   22.5286 C   0  0  0  0  0  0
  -21.4019   -6.5646   23.8218 C   0  0  0  0  0  0
  -21.3662   -5.6801   24.9184 C   0  0  0  0  0  0
  -21.6048   -4.3060   24.7229 C   0  0  0  0  0  0
  -21.8819   -3.8147   23.4350 C   0  0  0  0  0  0
  -21.9190   -4.6959   22.3409 C   0  0  0  0  0  0
  -22.7831  -13.5226   21.1835 C   0  0  0  0  0  0
  -22.1652   -4.2145   21.0985 F   0  0  0  0  0  0
  -21.5627   -3.4542   25.7734 F   0  0  0  0  0  0
  -29.9950  -13.4733   20.4083 N   0  0  0  0  0  0
  -26.2936  -12.9379   20.3259 N   0  0  0  0  0  0
  -25.9319  -11.6526   20.5743 N   0  0  0  0  0  0
  -22.0467  -12.8210   22.0372 N   0  0  0  0  0  0
  -25.4240  -15.1918   20.4051 N   0  0  0  0  0  0
  -31.8342  -14.7710   20.1610 O   0  0  0  0  0  0
  -21.6657   -6.8884   21.4250 O   0  0  0  0  0  0
  -22.3527  -14.5541   20.6682 O   0  0  0  0  0  0
  -24.6332  -31.8557   23.1986 C   0  0  0  0  0  0
  -25.9169  -32.4750   23.8327 C   0  0  1  0  0  0
  -27.2289  -27.2783   20.1365 C   0  0  0  0  0  0
  -25.5994  -33.8550   24.2266 N   0  0  0  0  0  0
  -23.4281  -30.4786   21.5402 C   0  0  2  0  0  0
  -24.8762  -28.9215   20.1160 C   0  0  0  0  0  0
  -22.7504  -29.4622   22.4909 C   0  0  0  0  0  0
  -18.0291  -28.1404   22.8493 C   0  0  0  0  0  0
  -24.1483  -36.7249   23.2630 C   0  0  0  0  0  0
  -25.9721  -30.7763   21.3707 C   0  0  0  0  0  0
  -26.0472  -29.3975   20.7196 C   0  0  0  0  0  0
  -27.2290  -28.5890   20.7167 C   0  0  0  0  0  0
  -26.0352  -26.8648   19.5079 C   0  0  0  0  0  0
  -24.8721  -27.6595   19.5027 C   0  0  0  0  0  0
  -23.6466  -29.8076   20.1582 C   0  0  0  0  0  0
  -25.4114  -36.3057   24.0330 C   0  0  1  0  0  0
  -20.5898  -28.3716   23.1267 C   0  0  2  0  0  0
  -20.6789  -26.9439   22.5401 C   0  0  0  0  0  0
  -19.5768  -26.6416   21.5205 C   0  0  0  0  0  0
  -18.1941  -26.7959   22.1606 C   0  0  0  0  0  0
  -19.1549  -28.8874   23.2878 C   0  0  0  0  0  0
  -18.9468  -30.1465   23.8904 C   0  0  0  0  0  0
  -17.6471  -30.6600   24.0581 C   0  0  0  0  0  0
  -25.9066  -34.9438   23.5085 C   0  0  0  0  0  0
  -16.5357  -29.9103   23.6348 C   0  0  0  0  0  0
  -16.7279  -28.6525   23.0366 C   0  0  0  0  0  0
  -26.4554  -31.6567   25.0701 C   0  0  0  0  0  0
  -25.3783  -31.3703   26.1414 C   0  0  0  0  0  0
  -27.0403  -30.2998   24.6142 C   0  0  0  0  0  0
  -27.6089  -32.4300   25.7502 C   0  0  0  0  0  0
  -27.5566  -37.1794   24.8476 C   0  0  0  0  0  0
  -21.4220  -29.3068   22.3662 N   0  0  0  0  0  0
  -26.4279  -37.3767   23.9416 N   0  0  0  0  0  0
  -24.6969  -31.0551   22.0934 N   0  0  0  0  0  0
  -23.4217  -28.8164   23.3011 O   0  0  0  0  0  0
  -28.3295  -26.3941   20.1422 O   0  0  0  0  0  0
  -26.5605  -34.8919   22.4626 O   0  0  0  0  0  0
  -23.5493  -32.1355   23.7314 O   0  0  0  0  0  0
  -29.7557  -23.9089   18.9594 C   0  0  0  0  0  0
  -28.9196  -22.4476   20.7093 C   0  0  0  0  0  0
  -28.9436  -23.7643   20.1002 C   0  0  0  0  0  0
  -30.5237  -22.8282   18.4604 C   0  0  0  0  0  0
  -29.6872  -21.3176   20.2253 C   0  0  0  0  0  0
  -30.4996  -21.5545   19.0880 C   0  0  0  0  0  0
  -31.4237  -23.0591   17.2569 C   0  0  0  0  0  0
  -29.8335  -19.9434   21.0091 C   0  0  0  0  0  0
  -28.0946  -24.9950   20.6320 C   0  0  0  0  0  0
  -29.4838  -18.4935   20.3893 C   0  0  0  0  0  0
  -30.3935  -17.2469   20.8578 C   0  0  0  0  0  0
  -29.9001  -15.8148   20.7118 N   0  0  0  0  0  0
  -31.5394  -20.3008   18.4932 Cl  0  0  0  0  0  0
  -31.4684  -12.5054   19.1856 H   0  0  0  0  0  0
  -30.3166  -11.4302   19.9328 H   0  0  0  0  0  0
  -29.7952  -11.7739   17.4808 H   0  0  0  0  0  0
  -29.6360  -13.4902   17.7573 H   0  0  0  0  0  0
  -27.9020  -11.2788   18.8992 H   0  0  0  0  0  0
  -27.3763  -12.5216   17.7941 H   0  0  0  0  0  0
  -27.6451  -14.2487   19.4806 H   0  0  0  0  0  0
  -28.7046  -12.1491   21.4311 H   0  0  0  0  0  0
  -28.4243  -13.8335   21.7952 H   0  0  0  0  0  0
  -25.2786   -9.5693   22.4766 H   0  0  0  0  0  0
  -24.0012   -7.4657   22.7500 H   0  0  0  0  0  0
  -21.0870   -8.8786   19.8938 H   0  0  0  0  0  0
  -22.3758  -10.9665   19.6134 H   0  0  0  0  0  0
  -21.2018   -7.6158   23.9724 H   0  0  0  0  0  0
  -21.1482   -6.0529   25.9091 H   0  0  0  0  0  0
  -22.0587   -2.7605   23.2864 H   0  0  0  0  0  0
  -22.4081  -11.9859   22.4749 H   0  0  0  0  0  0
  -21.1058  -13.1195   22.2519 H   0  0  0  0  0  0
  -24.6563  -15.8479   20.5009 H   0  0  0  0  0  0
  -26.2750  -15.6273   20.0738 H   0  0  0  0  0  0
  -26.7234  -32.5419   23.1075 H   0  0  0  0  0  0
  -25.0286  -33.9686   25.0514 H   0  0  0  0  0  0
  -22.7246  -31.3008   21.3919 H   0  0  0  0  0  0
  -23.3768  -35.9554   23.3300 H   0  0  0  0  0  0
  -24.3589  -36.8851   22.2041 H   0  0  0  0  0  0
  -23.7204  -37.6443   23.6638 H   0  0  0  0  0  0
  -26.1011  -31.5322   20.5946 H   0  0  0  0  0  0
  -26.8546  -30.8334   21.9963 H   0  0  0  0  0  0
  -28.1276  -28.9542   21.1922 H   0  0  0  0  0  0
  -25.9852  -25.9007   19.0240 H   0  0  0  0  0  0
  -23.9753  -27.2847   19.0300 H   0  0  0  0  0  0
  -23.7746  -30.5805   19.3996 H   0  0  0  0  0  0
  -22.7657  -29.2395   19.8547 H   0  0  0  0  0  0
  -25.1288  -36.1895   25.0824 H   0  0  0  0  0  0
  -20.9986  -28.3287   24.1387 H   0  0  0  0  0  0
  -20.5691  -26.2324   23.3602 H   0  0  0  0  0  0
  -21.6655  -26.7483   22.1186 H   0  0  0  0  0  0
  -19.6940  -25.6339   21.1213 H   0  0  0  0  0  0
  -19.6708  -27.3240   20.6749 H   0  0  0  0  0  0
  -17.4220  -26.6727   21.3993 H   0  0  0  0  0  0
  -18.0328  -26.0081   22.8978 H   0  0  0  0  0  0
  -19.7943  -30.7283   24.2271 H   0  0  0  0  0  0
  -17.5027  -31.6272   24.5199 H   0  0  0  0  0  0
  -15.5358  -30.3001   23.7689 H   0  0  0  0  0  0
  -15.8680  -28.0844   22.7084 H   0  0  0  0  0  0
  -24.6022  -30.6968   25.7785 H   0  0  0  0  0  0
  -24.8903  -32.2852   26.4776 H   0  0  0  0  0  0
  -25.8128  -30.8980   27.0230 H   0  0  0  0  0  0
  -26.2977  -29.6741   24.1175 H   0  0  0  0  0  0
  -27.4144  -29.7262   25.4636 H   0  0  0  0  0  0
  -27.8835  -30.4328   23.9351 H   0  0  0  0  0  0
  -27.2721  -33.3663   26.1975 H   0  0  0  0  0  0
  -28.3990  -32.6738   25.0386 H   0  0  0  0  0  0
  -28.0641  -31.8462   26.5514 H   0  0  0  0  0  0
  -28.2591  -38.0084   24.7519 H   0  0  0  0  0  0
  -28.1046  -36.2615   24.6304 H   0  0  0  0  0  0
  -27.2286  -37.1444   25.8881 H   0  0  0  0  0  0
  -20.9395  -29.8804   21.6885 H   0  0  0  0  0  0
  -26.0147  -38.2830   24.1434 H   0  0  0  0  0  0
  -29.7970  -24.8712   18.4692 H   0  0  0  0  0  0
  -28.3187  -22.3129   21.5977 H   0  0  0  0  0  0
  -31.2602  -24.0363   16.8033 H   0  0  0  0  0  0
  -31.2538  -22.3002   16.4921 H   0  0  0  0  0  0
  -32.4701  -23.0021   17.5574 H   0  0  0  0  0  0
  -29.2951  -20.0456   21.9506 H   0  0  0  0  0  0
  -30.8819  -19.9124   21.3097 H   0  0  0  0  0  0
  -28.2599  -25.0294   21.7100 H   0  0  0  0  0  0
  -27.0507  -24.7032   20.5246 H   0  0  0  0  0  0
  -29.5318  -18.5439   19.3018 H   0  0  0  0  0  0
  -28.4376  -18.2804   20.6073 H   0  0  0  0  0  0
  -30.6256  -17.3709   21.9155 H   0  0  0  0  0  0
  -31.3544  -17.3357   20.3465 H   0  0  0  0  0  0
  -28.9219  -15.6531   20.8975 H   0  0  0  0  0  0
  1 25  1  0  0  0
  1 30  2  0  0  0
  1 82  1  0  0  0
  2  3  1  0  0  0
  2 25  1  0  0  0
  2 84  1  0  0  0
  2 85  1  0  0  0
  3  4  1  0  0  0
  3 86  1  0  0  0
  3 87  1  0  0  0
  4  5  1  0  0  0
  4 88  1  0  0  0
  4 89  1  0  0  0
  5  6  1  0  0  0
  5 26  1  0  0  0
  5 90  1  0  0  0
  6 25  1  0  0  0
  6 91  1  0  0  0
  6 92  1  0  0  0
  7  8  2  0  0  0
  7 26  1  0  0  0
  7 29  1  0  0  0
  8  9  1  0  0  0
  8 22  1  0  0  0
  9 10  1  0  0  0
  9 27  2  0  0  0
 10 11  2  0  0  0
 10 15  1  0  0  0
 11 12  1  0  0  0
 11 93  1  0  0  0
 12 13  2  0  0  0
 12 94  1  0  0  0
 13 14  1  0  0  0
 13 31  1  0  0  0
 14 15  2  0  0  0
 14 95  1  0  0  0
 15 96  1  0  0  0
 16 17  2  0  0  0
 16 21  1  0  0  0
 16 31  1  0  0  0
 17 18  1  0  0  0
 17 97  1  0  0  0
 18 19  2  0  0  0
 18 98  1  0  0  0
 19 20  1  0  0  0
 19 24  1  0  0  0
 20 21  2  0  0  0
 20 99  1  0  0  0
 21 23  1  0  0  0
 22 28  1  0  0  0
 22 32  2  0  0  0
 26 27  1  0  0  0
 28100  1  0  0  0
 28101  1  0  0  0
 29102  1  0  0  0
 29103  1  0  0  0
 33 34  1  0  0  0
 33 66  1  0  0  0
 33 70  2  0  0  0
 34 36  1  0  0  0
 34 59  1  0  0  0
 34104  1  0  0  0
 35 44  2  0  0  0
 35 45  1  0  0  0
 35 68  1  0  0  0
 36 56  1  0  0  0
 36105  1  0  0  0
 37 39  1  0  0  0
 37 47  1  0  0  0
 37 66  1  0  0  0
 37106  1  0  0  0
 38 43  2  0  0  0
 38 46  1  0  0  0
 38 47  1  0  0  0
 39 64  1  0  0  0
 39 67  2  0  0  0
 40 52  1  0  0  0
 40 53  2  0  0  0
 40 58  1  0  0  0
 41107  1  0  0  0
 41108  1  0  0  0
 41109  1  0  0  0
 41 48  1  0  0  0
 42 43  1  0  0  0
 42 66  1  0  0  0
 42110  1  0  0  0
 42111  1  0  0  0
 43 44  1  0  0  0
 44112  1  0  0  0
 45 46  2  0  0  0
 45113  1  0  0  0
 46114  1  0  0  0
 47115  1  0  0  0
 47116  1  0  0  0
 48 56  1  0  0  0
 48 65  1  0  0  0
 48117  1  0  0  0
 49 50  1  0  0  0
 49 53  1  0  0  0
 49 64  1  0  0  0
 49118  1  0  0  0
 50 51  1  0  0  0
 50119  1  0  0  0
 50120  1  0  0  0
 51 52  1  0  0  0
 51121  1  0  0  0
 51122  1  0  0  0
 52123  1  0  0  0
 52124  1  0  0  0
 53 54  1  0  0  0
 54 55  2  0  0  0
 54125  1  0  0  0
 55 57  1  0  0  0
 55126  1  0  0  0
 56 69  2  0  0  0
 57 58  2  0  0  0
 57127  1  0  0  0
 58128  1  0  0  0
 59 60  1  0  0  0
 59 61  1  0  0  0
 59 62  1  0  0  0
 60129  1  0  0  0
 60130  1  0  0  0
 60131  1  0  0  0
 61132  1  0  0  0
 61133  1  0  0  0
 61134  1  0  0  0
 62135  1  0  0  0
 62136  1  0  0  0
 62137  1  0  0  0
 63 65  1  0  0  0
 63138  1  0  0  0
 63139  1  0  0  0
 63140  1  0  0  0
 64141  1  0  0  0
 65142  1  0  0  0
 68 79  1  0  0  0
 71 73  2  0  0  0
 71 74  1  0  0  0
 71143  1  0  0  0
 72 73  1  0  0  0
 72 75  2  0  0  0
 72144  1  0  0  0
 73 79  1  0  0  0
 74 76  2  0  0  0
 74 77  1  0  0  0
 75 76  1  0  0  0
 75 78  1  0  0  0
 76 83  1  0  0  0
 77145  1  0  0  0
 77146  1  0  0  0
 77147  1  0  0  0
 78 80  1  0  0  0
 78148  1  0  0  0
 78149  1  0  0  0
 79150  1  0  0  0
 79151  1  0  0  0
 80 81  1  0  0  0
 80152  1  0  0  0
 80153  1  0  0  0
 81 82  1  0  0  0
 81154  1  0  0  0
 81155  1  0  0  0
 82156  1  0  0  0
M  ISO  4   1 100  68 101  79 101  82 100
M  END
> <chiral flag>
0

> <version>
0

> <s_m_source_file>
/data/baiqing/PycharmProjects/Reinvent-master-3.2/result/LINK_invent/BTK/process_docking_weight1_custom_sum_contain_oxygen_bond_distance_aromatic_linkinvent_7_9_3/rearranged_h_0035.sdf

> <i_m_source_file_index>
3

> <r_mmod_Potential_Energy-OPLS-2005>
136.915969848633

> <r_mmod_Stretch_Energy-OPLS-2005>
107.385116577148

> <r_mmod_Bend_Energy-OPLS-2005>
146.978073120117

> <r_mmod_Torsional_Energy-OPLS-2005>
234.12956237793

> <r_mmod_Improper_Torsional_Energy-OPLS-2005>
5.35117626190186

> <r_mmod_Van_der_Waal_Energy-OPLS-2005>
139.561569213867

> <r_mmod_Electrostatic_Energy-OPLS-2005>
-357.868896484375

> <r_mmod_Solvation_Energy-OPLS-2005>
-205.578460693359

> <b_mmod_Minimization_Converged-OPLS-2005>
0

> <r_mmod_RMS_Derivative-OPLS-2005>
2.76973915100098

$$$$
3
                    3D
 Structure written by MMmdl.
161169  0  0  1  0            999 V2000
  -30.7149  -14.3845   20.6312 C   0  0  0  0  0  0
  -30.4193  -12.2715   19.4005 C   0  0  0  0  0  0
  -29.4897  -12.5007   18.1936 C   0  0  0  0  0  0
  -28.0089  -12.3690   18.6048 C   0  0  0  0  0  0
  -27.6648  -13.1932   19.8755 C   0  0  2  0  0  0
  -28.6990  -12.9207   20.9887 C   0  0  0  0  0  0
  -25.2611  -13.8138   20.5663 C   0  0  0  0  0  0
  -24.1843  -13.0440   20.9178 C   0  0  0  0  0  0
  -24.6363  -11.6900   20.8720 C   0  0  0  0  0  0
  -23.9026  -10.4294   21.0385 C   0  0  0  0  0  0
  -24.3594   -9.4217   21.9157 C   0  0  0  0  0  0
  -23.6293   -8.2251   22.0734 C   0  0  0  0  0  0
  -22.4271   -8.0276   21.3537 C   0  0  0  0  0  0
  -21.9886   -9.0231   20.4632 C   0  0  0  0  0  0
  -22.7200  -10.2121   20.3036 C   0  0  0  0  0  0
  -21.6858   -6.0731   22.5279 C   0  0  0  0  0  0
  -21.4010   -6.5631   23.8206 C   0  0  0  0  0  0
  -21.3667   -5.6787   24.9174 C   0  0  0  0  0  0
  -21.6050   -4.3047   24.7224 C   0  0  0  0  0  0
  -21.8823   -3.8136   23.4343 C   0  0  0  0  0  0
  -21.9192   -4.6962   22.3399 C   0  0  0  0  0  0
  -22.7864  -13.5252   21.1831 C   0  0  0  0  0  0
  -22.1659   -4.2147   21.0980 F   0  0  0  0  0  0
  -21.5638   -3.4527   25.7733 F   0  0  0  0  0  0
  -30.0372  -13.2237   20.4514 N   0  0  0  0  0  0
  -26.3018  -12.9275   20.3329 N   0  0  0  0  0  0
  -25.9281  -11.6443   20.5734 N   0  0  0  0  0  0
  -22.0507  -12.8259   22.0402 N   0  0  0  0  0  0
  -25.4363  -15.1857   20.4062 N   0  0  0  0  0  0
  -31.7962  -14.6354   20.0875 O   0  0  0  0  0  0
  -21.6645   -6.8872   21.4236 O   0  0  0  0  0  0
  -22.3556  -14.5563   20.6685 O   0  0  0  0  0  0
  -24.6107  -31.8695   23.2108 C   0  0  0  0  0  0
  -25.9011  -32.4835   23.8395 C   0  0  1  0  0  0
  -27.2329  -27.4680   20.0971 C   0  0  0  0  0  0
  -25.5852  -33.8624   24.2319 N   0  0  0  0  0  0
  -23.3963  -30.4933   21.5525 C   0  0  2  0  0  0
  -24.8438  -28.9590   20.1202 C   0  0  0  0  0  0
  -22.7375  -29.4687   22.5023 C   0  0  0  0  0  0
  -18.0270  -28.1401   22.8504 C   0  0  0  0  0  0
  -24.1477  -36.7334   23.2651 C   0  0  0  0  0  0
  -25.9210  -30.8487   21.3570 C   0  0  0  0  0  0
  -26.0004  -29.4809   20.7141 C   0  0  0  0  0  0
  -27.2015  -28.7394   20.7047 C   0  0  0  0  0  0
  -26.0667  -26.9468   19.5035 C   0  0  0  0  0  0
  -24.8682  -27.6885   19.5148 C   0  0  0  0  0  0
  -23.6029  -29.8215   20.1679 C   0  0  0  0  0  0
  -25.4096  -36.3109   24.0345 C   0  0  1  0  0  0
  -20.5851  -28.3663   23.1342 C   0  0  2  0  0  0
  -20.6761  -26.9398   22.5435 C   0  0  0  0  0  0
  -19.5736  -26.6402   21.5227 C   0  0  0  0  0  0
  -18.1912  -26.7941   22.1624 C   0  0  0  0  0  0
  -19.1513  -28.8842   23.2922 C   0  0  0  0  0  0
  -18.9452  -30.1456   23.8924 C   0  0  0  0  0  0
  -17.6454  -30.6599   24.0576 C   0  0  0  0  0  0
  -25.9012  -34.9474   23.5136 C   0  0  0  0  0  0
  -16.5344  -29.9103   23.6334 C   0  0  0  0  0  0
  -16.7256  -28.6523   23.0343 C   0  0  0  0  0  0
  -26.4449  -31.6606   25.0705 C   0  0  0  0  0  0
  -25.3723  -31.3696   26.1456 C   0  0  0  0  0  0
  -27.0311  -30.3062   24.6066 C   0  0  0  0  0  0
  -27.6025  -32.4325   25.7461 C   0  0  0  0  0  0
  -27.5574  -37.1810   24.8459 C   0  0  0  0  0  0
  -21.4108  -29.3030   22.3749 N   0  0  0  0  0  0
  -26.4288  -37.3782   23.9402 N   0  0  0  0  0  0
  -24.6609  -31.0836   22.0999 N   0  0  0  0  0  0
  -23.4158  -28.8247   23.3064 O   0  0  0  0  0  0
  -28.3986  -26.7533   20.0327 O   0  0  0  0  0  0
  -26.5599  -34.8921   22.4707 O   0  0  0  0  0  0
  -23.5310  -32.1450   23.7516 O   0  0  0  0  0  0
  -30.9002  -23.8225   22.1276 C   0  0  0  0  0  0
  -29.0376  -22.3122   21.8429 C   0  0  0  0  0  0
  -29.6622  -23.5341   21.5219 C   0  0  0  0  0  0
  -31.4516  -22.8978   23.0323 C   0  0  0  0  0  0
  -29.6722  -21.4371   22.7451 C   0  0  0  0  0  0
  -32.8079  -23.1367   23.6614 C   0  0  0  0  0  0
  -29.0687  -24.4844   20.4938 C   0  0  0  0  0  0
  -29.1352  -20.0357   22.9875 C   0  0  0  0  0  0
  -30.0541  -19.0004   22.3167 C   0  0  0  0  0  0
  -29.4994  -17.5726   22.2096 C   0  0  0  0  0  0
  -30.5606  -16.6560   21.5787 C   0  0  0  0  0  0
  -28.5895  -25.8176   21.0916 C   0  0  0  0  0  0
  -30.8432  -21.7367   23.3505 N   0  0  0  0  0  0
  -30.0844  -15.2939   21.3848 N   0  0  0  0  0  0
  -31.4633  -12.3750   19.0999 H   0  0  0  0  0  0
  -30.3180  -11.2504   19.7710 H   0  0  0  0  0  0
  -29.7215  -11.7878   17.4010 H   0  0  0  0  0  0
  -29.6686  -13.4932   17.7773 H   0  0  0  0  0  0
  -27.8112  -11.3109   18.7839 H   0  0  0  0  0  0
  -27.3617  -12.6605   17.7782 H   0  0  0  0  0  0
  -27.7251  -14.2485   19.6056 H   0  0  0  0  0  0
  -28.6627  -11.8709   21.2845 H   0  0  0  0  0  0
  -28.4553  -13.4789   21.8932 H   0  0  0  0  0  0
  -25.2736   -9.5722   22.4724 H   0  0  0  0  0  0
  -24.0017   -7.4646   22.7445 H   0  0  0  0  0  0
  -21.0822   -8.8732   19.8939 H   0  0  0  0  0  0
  -22.3635  -10.9649   19.6153 H   0  0  0  0  0  0
  -21.1993   -7.6134   23.9718 H   0  0  0  0  0  0
  -21.1491   -6.0508   25.9082 H   0  0  0  0  0  0
  -22.0597   -2.7597   23.2840 H   0  0  0  0  0  0
  -22.4120  -11.9932   22.4815 H   0  0  0  0  0  0
  -21.1115  -13.1260   22.2581 H   0  0  0  0  0  0
  -24.6741  -15.8460   20.5162 H   0  0  0  0  0  0
  -26.2944  -15.6187   20.0879 H   0  0  0  0  0  0
  -26.7087  -32.5555   23.1169 H   0  0  0  0  0  0
  -24.9937  -33.9775   25.0423 H   0  0  0  0  0  0
  -22.6843  -31.3101   21.4142 H   0  0  0  0  0  0
  -23.3709  -35.9700   23.3336 H   0  0  0  0  0  0
  -24.3578  -36.8921   22.2065 H   0  0  0  0  0  0
  -23.7272  -37.6561   23.6655 H   0  0  0  0  0  0
  -26.0219  -31.6128   20.5845 H   0  0  0  0  0  0
  -26.8133  -30.9121   21.9684 H   0  0  0  0  0  0
  -28.0997  -29.1417   21.1523 H   0  0  0  0  0  0
  -26.0881  -25.9779   19.0255 H   0  0  0  0  0  0
  -23.9780  -27.2807   19.0536 H   0  0  0  0  0  0
  -23.7047  -30.5959   19.4059 H   0  0  0  0  0  0
  -22.7275  -29.2380   19.8775 H   0  0  0  0  0  0
  -25.1284  -36.1969   25.0847 H   0  0  0  0  0  0
  -20.9949  -28.3228   24.1454 H   0  0  0  0  0  0
  -20.5685  -26.2254   23.3617 H   0  0  0  0  0  0
  -21.6636  -26.7469   22.1205 H   0  0  0  0  0  0
  -19.6888  -25.6322   21.1230 H   0  0  0  0  0  0
  -19.6681  -27.3239   20.6779 H   0  0  0  0  0  0
  -17.4191  -26.6713   21.4021 H   0  0  0  0  0  0
  -18.0295  -26.0104   22.9031 H   0  0  0  0  0  0
  -19.7938  -30.7267   24.2291 H   0  0  0  0  0  0
  -17.5019  -31.6277   24.5187 H   0  0  0  0  0  0
  -15.5345  -30.3007   23.7658 H   0  0  0  0  0  0
  -15.8665  -28.0855   22.7024 H   0  0  0  0  0  0
  -24.5866  -30.7085   25.7762 H   0  0  0  0  0  0
  -24.8949  -32.2858   26.4948 H   0  0  0  0  0  0
  -25.8072  -30.8834   27.0202 H   0  0  0  0  0  0
  -26.2863  -29.6781   24.1167 H   0  0  0  0  0  0
  -27.4176  -29.7326   25.4505 H   0  0  0  0  0  0
  -27.8626  -30.4427   23.9154 H   0  0  0  0  0  0
  -27.2657  -33.3619   26.2074 H   0  0  0  0  0  0
  -28.3815  -32.6873   25.0262 H   0  0  0  0  0  0
  -28.0708  -31.8447   26.5360 H   0  0  0  0  0  0
  -28.2584  -38.0101   24.7470 H   0  0  0  0  0  0
  -28.1063  -36.2629   24.6317 H   0  0  0  0  0  0
  -27.2296  -37.1520   25.8858 H   0  0  0  0  0  0
  -20.9265  -29.8718   21.6953 H   0  0  0  0  0  0
  -26.0174  -38.2859   24.1377 H   0  0  0  0  0  0
  -31.4320  -24.7299   21.8789 H   0  0  0  0  0  0
  -28.1097  -22.0279   21.3661 H   0  0  0  0  0  0
  -32.7018  -23.5874   24.6474 H   0  0  0  0  0  0
  -33.4109  -23.8054   23.0470 H   0  0  0  0  0  0
  -33.3567  -22.1992   23.7655 H   0  0  0  0  0  0
  -28.2448  -23.9986   19.9684 H   0  0  0  0  0  0
  -29.8349  -24.6744   19.7409 H   0  0  0  0  0  0
  -28.1268  -19.9608   22.5815 H   0  0  0  0  0  0
  -29.0518  -19.8471   24.0583 H   0  0  0  0  0  0
  -31.0049  -18.9845   22.8495 H   0  0  0  0  0  0
  -30.2840  -19.3492   21.3094 H   0  0  0  0  0  0
  -28.5973  -17.5787   21.5961 H   0  0  0  0  0  0
  -29.2101  -17.2009   23.1940 H   0  0  0  0  0  0
  -31.4576  -16.6279   22.1988 H   0  0  0  0  0  0
  -30.8607  -17.0686   20.6124 H   0  0  0  0  0  0
  -29.3503  -26.2285   21.7570 H   0  0  0  0  0  0
  -27.6902  -25.6564   21.6922 H   0  0  0  0  0  0
  -29.1979  -15.0295   21.7886 H   0  0  0  0  0  0
  1 25  1  0  0  0
  1 30  2  0  0  0
  1 84  1  0  0  0
  2  3  1  0  0  0
  2 25  1  0  0  0
  2 85  1  0  0  0
  2 86  1  0  0  0
  3  4  1  0  0  0
  3 87  1  0  0  0
  3 88  1  0  0  0
  4  5  1  0  0  0
  4 89  1  0  0  0
  4 90  1  0  0  0
  5  6  1  0  0  0
  5 26  1  0  0  0
  5 91  1  0  0  0
  6 25  1  0  0  0
  6 92  1  0  0  0
  6 93  1  0  0  0
  7  8  2  0  0  0
  7 26  1  0  0  0
  7 29  1  0  0  0
  8  9  1  0  0  0
  8 22  1  0  0  0
  9 10  1  0  0  0
  9 27  2  0  0  0
 10 11  2  0  0  0
 10 15  1  0  0  0
 11 12  1  0  0  0
 11 94  1  0  0  0
 12 13  2  0  0  0
 12 95  1  0  0  0
 13 14  1  0  0  0
 13 31  1  0  0  0
 14 15  2  0  0  0
 14 96  1  0  0  0
 15 97  1  0  0  0
 16 17  2  0  0  0
 16 21  1  0  0  0
 16 31  1  0  0  0
 17 18  1  0  0  0
 17 98  1  0  0  0
 18 19  2  0  0  0
 18 99  1  0  0  0
 19 20  1  0  0  0
 19 24  1  0  0  0
 20 21  2  0  0  0
 20100  1  0  0  0
 21 23  1  0  0  0
 22 28  1  0  0  0
 22 32  2  0  0  0
 26 27  1  0  0  0
 28101  1  0  0  0
 28102  1  0  0  0
 29103  1  0  0  0
 29104  1  0  0  0
 33 34  1  0  0  0
 33 66  1  0  0  0
 33 70  2  0  0  0
 34 36  1  0  0  0
 34 59  1  0  0  0
 34105  1  0  0  0
 35 44  2  0  0  0
 35 45  1  0  0  0
 35 68  1  0  0  0
 36 56  1  0  0  0
 36106  1  0  0  0
 37 39  1  0  0  0
 37 47  1  0  0  0
 37 66  1  0  0  0
 37107  1  0  0  0
 38 43  2  0  0  0
 38 46  1  0  0  0
 38 47  1  0  0  0
 39 64  1  0  0  0
 39 67  2  0  0  0
 40 52  1  0  0  0
 40 53  2  0  0  0
 40 58  1  0  0  0
 41108  1  0  0  0
 41109  1  0  0  0
 41110  1  0  0  0
 41 48  1  0  0  0
 42 43  1  0  0  0
 42 66  1  0  0  0
 42111  1  0  0  0
 42112  1  0  0  0
 43 44  1  0  0  0
 44113  1  0  0  0
 45 46  2  0  0  0
 45114  1  0  0  0
 46115  1  0  0  0
 47116  1  0  0  0
 47117  1  0  0  0
 48 56  1  0  0  0
 48 65  1  0  0  0
 48118  1  0  0  0
 49 50  1  0  0  0
 49 53  1  0  0  0
 49 64  1  0  0  0
 49119  1  0  0  0
 50 51  1  0  0  0
 50120  1  0  0  0
 50121  1  0  0  0
 51 52  1  0  0  0
 51122  1  0  0  0
 51123  1  0  0  0
 52124  1  0  0  0
 52125  1  0  0  0
 53 54  1  0  0  0
 54 55  2  0  0  0
 54126  1  0  0  0
 55 57  1  0  0  0
 55127  1  0  0  0
 56 69  2  0  0  0
 57 58  2  0  0  0
 57128  1  0  0  0
 58129  1  0  0  0
 59 60  1  0  0  0
 59 61  1  0  0  0
 59 62  1  0  0  0
 60130  1  0  0  0
 60131  1  0  0  0
 60132  1  0  0  0
 61133  1  0  0  0
 61134  1  0  0  0
 61135  1  0  0  0
 62136  1  0  0  0
 62137  1  0  0  0
 62138  1  0  0  0
 63 65  1  0  0  0
 63139  1  0  0  0
 63140  1  0  0  0
 63141  1  0  0  0
 64142  1  0  0  0
 65143  1  0  0  0
 68 82  1  0  0  0
 71 73  2  0  0  0
 71 74  1  0  0  0
 71144  1  0  0  0
 72 73  1  0  0  0
 72 75  2  0  0  0
 72145  1  0  0  0
 73 77  1  0  0  0
 74 76  1  0  0  0
 74 83  2  0  0  0
 75 78  1  0  0  0
 75 83  1  0  0  0
 76146  1  0  0  0
 76147  1  0  0  0
 76148  1  0  0  0
 77 82  1  0  0  0
 77149  1  0  0  0
 77150  1  0  0  0
 78 79  1  0  0  0
 78151  1  0  0  0
 78152  1  0  0  0
 79 80  1  0  0  0
 79153  1  0  0  0
 79154  1  0  0  0
 80 81  1  0  0  0
 80155  1  0  0  0
 80156  1  0  0  0
 81 84  1  0  0  0
 81157  1  0  0  0
 81158  1  0  0  0
 82159  1  0  0  0
 82160  1  0  0  0
 84161  1  0  0  0
M  ISO  4   1 100  68 101  82 101  84 100
M  END
> <chiral flag>
0

> <version>
0

> <s_m_source_file>
/data/baiqing/PycharmProjects/Reinvent-master-3.2/result/LINK_invent/BTK/process_docking_weight1_custom_sum_contain_oxygen_bond_distance_aromatic_linkinvent_7_9_3/rearranged_h_0035.sdf

> <i_m_source_file_index>
4

> <r_mmod_Potential_Energy-OPLS-2005>
-238.307998657227

> <r_mmod_Stretch_Energy-OPLS-2005>
29.7749366760254

> <r_mmod_Bend_Energy-OPLS-2005>
84.4340057373047

> <r_mmod_Torsional_Energy-OPLS-2005>
215.997573852539

> <r_mmod_Improper_Torsional_Energy-OPLS-2005>
3.02785277366638

> <r_mmod_Van_der_Waal_Energy-OPLS-2005>
153.347076416016

> <r_mmod_Electrostatic_Energy-OPLS-2005>
-514.736450195312

> <r_mmod_Solvation_Energy-OPLS-2005>
-217.114776611328

> <b_mmod_Minimization_Converged-OPLS-2005>
0

> <r_mmod_RMS_Derivative-OPLS-2005>
2.65268635749817

$$$$
4
                    3D
 Structure written by MMmdl.
156164  0  0  1  0            999 V2000
  -30.6986  -14.5884   20.5226 C   0  0  0  0  0  0
  -30.4209  -12.3714   19.4465 C   0  0  0  0  0  0
  -29.4979  -12.4971   18.2180 C   0  0  0  0  0  0
  -28.0226  -12.3450   18.6347 C   0  0  0  0  0  0
  -27.6505  -13.2245   19.8595 C   0  0  2  0  0  0
  -28.6975  -13.1005   20.9888 C   0  0  0  0  0  0
  -25.2531  -13.8181   20.5676 C   0  0  0  0  0  0
  -24.1813  -13.0434   20.9178 C   0  0  0  0  0  0
  -24.6402  -11.6916   20.8745 C   0  0  0  0  0  0
  -23.9078  -10.4293   21.0412 C   0  0  0  0  0  0
  -24.3624   -9.4206   21.9190 C   0  0  0  0  0  0
  -23.6293   -8.2243   22.0760 C   0  0  0  0  0  0
  -22.4276   -8.0282   21.3546 C   0  0  0  0  0  0
  -21.9917   -9.0258   20.4649 C   0  0  0  0  0  0
  -22.7251  -10.2134   20.3059 C   0  0  0  0  0  0
  -21.6852   -6.0738   22.5279 C   0  0  0  0  0  0
  -21.4010   -6.5641   23.8213 C   0  0  0  0  0  0
  -21.3659   -5.6794   24.9176 C   0  0  0  0  0  0
  -21.6046   -4.3058   24.7224 C   0  0  0  0  0  0
  -21.8819   -3.8151   23.4344 C   0  0  0  0  0  0
  -21.9190   -4.6967   22.3402 C   0  0  0  0  0  0
  -22.7833  -13.5221   21.1845 C   0  0  0  0  0  0
  -22.1660   -4.2152   21.0981 F   0  0  0  0  0  0
  -21.5629   -3.4542   25.7738 F   0  0  0  0  0  0
  -30.0130  -13.4101   20.4119 N   0  0  0  0  0  0
  -26.2984  -12.9389   20.3332 N   0  0  0  0  0  0
  -25.9337  -11.6532   20.5783 N   0  0  0  0  0  0
  -22.0481  -12.8211   22.0404 N   0  0  0  0  0  0
  -25.4211  -15.1894   20.4084 N   0  0  0  0  0  0
  -31.8653  -14.6841   20.1350 O   0  0  0  0  0  0
  -21.6638   -6.8882   21.4243 O   0  0  0  0  0  0
  -22.3510  -14.5526   20.6706 O   0  0  0  0  0  0
  -24.6257  -31.8623   23.2068 C   0  0  0  0  0  0
  -25.9118  -32.4786   23.8385 C   0  0  1  0  0  0
  -27.2141  -27.3332   20.1013 C   0  0  0  0  0  0
  -25.5948  -33.8589   24.2312 N   0  0  0  0  0  0
  -23.4167  -30.4902   21.5496 C   0  0  2  0  0  0
  -24.8596  -28.9548   20.1084 C   0  0  0  0  0  0
  -22.7468  -29.4644   22.4950 C   0  0  0  0  0  0
  -18.0286  -28.1377   22.8466 C   0  0  0  0  0  0
  -24.1496  -36.7293   23.2637 C   0  0  0  0  0  0
  -25.9597  -30.7938   21.3799 C   0  0  0  0  0  0
  -26.0297  -29.4257   20.7175 C   0  0  0  0  0  0
  -27.2084  -28.6233   20.7115 C   0  0  0  0  0  0
  -26.0228  -26.9285   19.4491 C   0  0  0  0  0  0
  -24.8572  -27.7101   19.4673 C   0  0  0  0  0  0
  -23.6284  -29.8326   20.1624 C   0  0  0  0  0  0
  -25.4114  -36.3082   24.0339 C   0  0  1  0  0  0
  -20.5884  -28.3677   23.1282 C   0  0  2  0  0  0
  -20.6780  -26.9404   22.5403 C   0  0  0  0  0  0
  -19.5760  -26.6378   21.5203 C   0  0  0  0  0  0
  -18.1935  -26.7916   22.1609 C   0  0  0  0  0  0
  -19.1537  -28.8843   23.2860 C   0  0  0  0  0  0
  -18.9467  -30.1442   23.8877 C   0  0  0  0  0  0
  -17.6472  -30.6577   24.0554 C   0  0  0  0  0  0
  -25.9058  -34.9453   23.5117 C   0  0  0  0  0  0
  -16.5360  -29.9074   23.6336 C   0  0  0  0  0  0
  -16.7275  -28.6500   23.0336 C   0  0  0  0  0  0
  -26.4500  -31.6586   25.0744 C   0  0  0  0  0  0
  -25.3731  -31.3725   26.1469 C   0  0  0  0  0  0
  -27.0345  -30.3015   24.6189 C   0  0  0  0  0  0
  -27.6062  -32.4321   25.7513 C   0  0  0  0  0  0
  -27.5574  -37.1803   24.8466 C   0  0  0  0  0  0
  -21.4189  -29.3034   22.3685 N   0  0  0  0  0  0
  -26.4286  -37.3777   23.9412 N   0  0  0  0  0  0
  -24.6861  -31.0644   22.1018 N   0  0  0  0  0  0
  -23.4204  -28.8177   23.3014 O   0  0  0  0  0  0
  -28.3248  -26.4756   20.1657 O   0  0  0  0  0  0
  -26.5609  -34.8913   22.4674 O   0  0  0  0  0  0
  -23.5428  -32.1433   23.7397 O   0  0  0  0  0  0
  -30.9750  -19.4023   20.3941 C   0  0  0  0  0  0
  -28.3020  -20.1105   20.6459 C   0  0  0  0  0  0
  -30.5635  -20.7297   20.0771 C   0  0  0  0  0  0
  -30.0751  -18.3950   20.8355 C   0  0  0  0  0  0
  -29.2010  -21.1154   20.1934 C   0  0  0  0  0  0
  -28.7181  -18.7869   20.9685 C   0  0  0  0  0  0
  -31.6116  -21.7220   19.6058 C   0  0  0  0  0  0
  -28.6353  -22.4894   19.6921 C   0  0  0  0  0  0
  -30.6518  -17.0107   21.2920 C   0  0  0  0  0  0
  -29.0452  -23.8884   20.3175 C   0  0  0  0  0  0
  -28.0942  -25.0561   19.8331 C   0  0  0  0  0  0
  -30.0224  -15.6965   20.9391 N   0  0  0  0  0  0
  -27.5388  -17.6693   21.5526 Cl  0  0  0  0  0  0
  -31.4652  -12.4641   19.1423 H   0  0  0  0  0  0
  -30.3310  -11.3816   19.8967 H   0  0  0  0  0  0
  -29.7552  -11.7419   17.4739 H   0  0  0  0  0  0
  -29.6483  -13.4653   17.7370 H   0  0  0  0  0  0
  -27.8572  -11.2936   18.8718 H   0  0  0  0  0  0
  -27.3670  -12.5714   17.7934 H   0  0  0  0  0  0
  -27.6644  -14.2581   19.5109 H   0  0  0  0  0  0
  -28.7016  -12.0921   21.4042 H   0  0  0  0  0  0
  -28.4541  -13.7675   21.8172 H   0  0  0  0  0  0
  -25.2769   -9.5677   22.4764 H   0  0  0  0  0  0
  -24.0001   -7.4634   22.7480 H   0  0  0  0  0  0
  -21.0847   -8.8778   19.8951 H   0  0  0  0  0  0
  -22.3716  -10.9671   19.6162 H   0  0  0  0  0  0
  -21.2003   -7.6149   23.9715 H   0  0  0  0  0  0
  -21.1482   -6.0526   25.9077 H   0  0  0  0  0  0
  -22.0600   -2.7610   23.2846 H   0  0  0  0  0  0
  -22.4090  -11.9859   22.4774 H   0  0  0  0  0  0
  -21.1101  -13.1238   22.2623 H   0  0  0  0  0  0
  -24.6653  -15.8477   20.5584 H   0  0  0  0  0  0
  -26.2915  -15.6415   20.1600 H   0  0  0  0  0  0
  -26.7172  -32.5443   23.1117 H   0  0  0  0  0  0
  -25.0122  -33.9743   25.0473 H   0  0  0  0  0  0
  -22.7102  -31.3114   21.4102 H   0  0  0  0  0  0
  -23.3755  -35.9624   23.3305 H   0  0  0  0  0  0
  -24.3590  -36.8900   22.2049 H   0  0  0  0  0  0
  -23.7260  -37.6501   23.6652 H   0  0  0  0  0  0
  -26.0976  -31.5599   20.6157 H   0  0  0  0  0  0
  -26.8398  -30.8356   22.0100 H   0  0  0  0  0  0
  -28.1020  -28.9758   21.2064 H   0  0  0  0  0  0
  -25.9489  -25.9915   18.9182 H   0  0  0  0  0  0
  -23.9626  -27.3504   18.9777 H   0  0  0  0  0  0
  -23.7460  -30.6123   19.4093 H   0  0  0  0  0  0
  -22.7488  -29.2619   19.8589 H   0  0  0  0  0  0
  -25.1293  -36.1932   25.0833 H   0  0  0  0  0  0
  -20.9956  -28.3228   24.1417 H   0  0  0  0  0  0
  -20.5694  -26.2279   23.3594 H   0  0  0  0  0  0
  -21.6650  -26.7454   22.1188 H   0  0  0  0  0  0
  -19.6942  -25.6295   21.1224 H   0  0  0  0  0  0
  -19.6699  -27.3188   20.6733 H   0  0  0  0  0  0
  -17.4211  -26.6651   21.4007 H   0  0  0  0  0  0
  -18.0335  -26.0063   22.9013 H   0  0  0  0  0  0
  -19.7952  -30.7253   24.2229 H   0  0  0  0  0  0
  -17.5040  -31.6258   24.5156 H   0  0  0  0  0  0
  -15.5361  -30.2976   23.7680 H   0  0  0  0  0  0
  -15.8671  -28.0827   22.7055 H   0  0  0  0  0  0
  -24.5917  -30.7062   25.7797 H   0  0  0  0  0  0
  -24.8907  -32.2887   26.4879 H   0  0  0  0  0  0
  -25.8053  -30.8914   27.0252 H   0  0  0  0  0  0
  -26.2915  -29.6770   24.1209 H   0  0  0  0  0  0
  -27.4050  -29.7268   25.4686 H   0  0  0  0  0  0
  -27.8787  -30.4321   23.9418 H   0  0  0  0  0  0
  -27.2678  -33.3629   26.2085 H   0  0  0  0  0  0
  -28.3871  -32.6868   25.0337 H   0  0  0  0  0  0
  -28.0729  -31.8450   26.5434 H   0  0  0  0  0  0
  -28.2588  -38.0096   24.7500 H   0  0  0  0  0  0
  -28.1074  -36.2630   24.6307 H   0  0  0  0  0  0
  -27.2296  -37.1466   25.8868 H   0  0  0  0  0  0
  -20.9375  -29.8765   21.6896 H   0  0  0  0  0  0
  -26.0170  -38.2854   24.1402 H   0  0  0  0  0  0
  -32.0244  -19.1538   20.3086 H   0  0  0  0  0  0
  -27.2516  -20.3472   20.7348 H   0  0  0  0  0  0
  -32.5488  -21.2248   19.3545 H   0  0  0  0  0  0
  -31.8233  -22.4449   20.3934 H   0  0  0  0  0  0
  -31.2786  -22.2609   18.7192 H   0  0  0  0  0  0
  -27.5489  -22.4163   19.7573 H   0  0  0  0  0  0
  -28.8337  -22.5327   18.6200 H   0  0  0  0  0  0
  -30.6769  -17.0425   22.3819 H   0  0  0  0  0  0
  -31.7027  -16.9927   21.0008 H   0  0  0  0  0  0
  -30.0776  -24.1249   20.0653 H   0  0  0  0  0  0
  -28.9961  -23.8254   21.4044 H   0  0  0  0  0  0
  -27.1203  -24.7612   20.2251 H   0  0  0  0  0  0
  -28.0245  -24.9985   18.7459 H   0  0  0  0  0  0
  -29.0464  -15.5830   21.1700 H   0  0  0  0  0  0
  1 25  1  0  0  0
  1 30  2  0  0  0
  1 82  1  0  0  0
  2  3  1  0  0  0
  2 25  1  0  0  0
  2 84  1  0  0  0
  2 85  1  0  0  0
  3  4  1  0  0  0
  3 86  1  0  0  0
  3 87  1  0  0  0
  4  5  1  0  0  0
  4 88  1  0  0  0
  4 89  1  0  0  0
  5  6  1  0  0  0
  5 26  1  0  0  0
  5 90  1  0  0  0
  6 25  1  0  0  0
  6 91  1  0  0  0
  6 92  1  0  0  0
  7  8  2  0  0  0
  7 26  1  0  0  0
  7 29  1  0  0  0
  8  9  1  0  0  0
  8 22  1  0  0  0
  9 10  1  0  0  0
  9 27  2  0  0  0
 10 11  2  0  0  0
 10 15  1  0  0  0
 11 12  1  0  0  0
 11 93  1  0  0  0
 12 13  2  0  0  0
 12 94  1  0  0  0
 13 14  1  0  0  0
 13 31  1  0  0  0
 14 15  2  0  0  0
 14 95  1  0  0  0
 15 96  1  0  0  0
 16 17  2  0  0  0
 16 21  1  0  0  0
 16 31  1  0  0  0
 17 18  1  0  0  0
 17 97  1  0  0  0
 18 19  2  0  0  0
 18 98  1  0  0  0
 19 20  1  0  0  0
 19 24  1  0  0  0
 20 21  2  0  0  0
 20 99  1  0  0  0
 21 23  1  0  0  0
 22 28  1  0  0  0
 22 32  2  0  0  0
 26 27  1  0  0  0
 28100  1  0  0  0
 28101  1  0  0  0
 29102  1  0  0  0
 29103  1  0  0  0
 33 34  1  0  0  0
 33 66  1  0  0  0
 33 70  2  0  0  0
 34 36  1  0  0  0
 34 59  1  0  0  0
 34104  1  0  0  0
 35 44  2  0  0  0
 35 45  1  0  0  0
 35 68  1  0  0  0
 36 56  1  0  0  0
 36105  1  0  0  0
 37 39  1  0  0  0
 37 47  1  0  0  0
 37 66  1  0  0  0
 37106  1  0  0  0
 38 43  2  0  0  0
 38 46  1  0  0  0
 38 47  1  0  0  0
 39 64  1  0  0  0
 39 67  2  0  0  0
 40 52  1  0  0  0
 40 53  2  0  0  0
 40 58  1  0  0  0
 41107  1  0  0  0
 41108  1  0  0  0
 41109  1  0  0  0
 41 48  1  0  0  0
 42 43  1  0  0  0
 42 66  1  0  0  0
 42110  1  0  0  0
 42111  1  0  0  0
 43 44  1  0  0  0
 44112  1  0  0  0
 45 46  2  0  0  0
 45113  1  0  0  0
 46114  1  0  0  0
 47115  1  0  0  0
 47116  1  0  0  0
 48 56  1  0  0  0
 48 65  1  0  0  0
 48117  1  0  0  0
 49 50  1  0  0  0
 49 53  1  0  0  0
 49 64  1  0  0  0
 49118  1  0  0  0
 50 51  1  0  0  0
 50119  1  0  0  0
 50120  1  0  0  0
 51 52  1  0  0  0
 51121  1  0  0  0
 51122  1  0  0  0
 52123  1  0  0  0
 52124  1  0  0  0
 53 54  1  0  0  0
 54 55  2  0  0  0
 54125  1  0  0  0
 55 57  1  0  0  0
 55126  1  0  0  0
 56 69  2  0  0  0
 57 58  2  0  0  0
 57127  1  0  0  0
 58128  1  0  0  0
 59 60  1  0  0  0
 59 61  1  0  0  0
 59 62  1  0  0  0
 60129  1  0  0  0
 60130  1  0  0  0
 60131  1  0  0  0
 61132  1  0  0  0
 61133  1  0  0  0
 61134  1  0  0  0
 62135  1  0  0  0
 62136  1  0  0  0
 62137  1  0  0  0
 63 65  1  0  0  0
 63138  1  0  0  0
 63139  1  0  0  0
 63140  1  0  0  0
 64141  1  0  0  0
 65142  1  0  0  0
 68 81  1  0  0  0
 71 73  2  0  0  0
 71 74  1  0  0  0
 71143  1  0  0  0
 72 75  2  0  0  0
 72 76  1  0  0  0
 72144  1  0  0  0
 73 75  1  0  0  0
 73 77  1  0  0  0
 74 76  2  0  0  0
 74 79  1  0  0  0
 75 78  1  0  0  0
 76 83  1  0  0  0
 77145  1  0  0  0
 77146  1  0  0  0
 77147  1  0  0  0
 78 80  1  0  0  0
 78148  1  0  0  0
 78149  1  0  0  0
 79 82  1  0  0  0
 79150  1  0  0  0
 79151  1  0  0  0
 80 81  1  0  0  0
 80152  1  0  0  0
 80153  1  0  0  0
 81154  1  0  0  0
 81155  1  0  0  0
 82156  1  0  0  0
M  ISO  4   1 100  68 101  81 101  82 100
M  END
> <chiral flag>
0

> <version>
0

> <s_m_source_file>
/data/baiqing/PycharmProjects/Reinvent-master-3.2/result/LINK_invent/BTK/process_docking_weight1_custom_sum_contain_oxygen_bond_distance_aromatic_linkinvent_7_9_3/rearranged_h_0035.sdf

> <i_m_source_file_index>
5

> <r_mmod_Potential_Energy-OPLS-2005>
7.60685586929321

> <r_mmod_Stretch_Energy-OPLS-2005>
68.6994781494141

> <r_mmod_Bend_Energy-OPLS-2005>
141.908493041992

> <r_mmod_Torsional_Energy-OPLS-2005>
199.405288696289

> <r_mmod_Improper_Torsional_Energy-OPLS-2005>
4.28323030471802

> <r_mmod_Van_der_Waal_Energy-OPLS-2005>
151.511932373047

> <r_mmod_Electrostatic_Energy-OPLS-2005>
-404.008331298828

> <r_mmod_Solvation_Energy-OPLS-2005>
-196.595092773438

> <b_mmod_Minimization_Converged-OPLS-2005>
0

> <r_mmod_RMS_Derivative-OPLS-2005>
1.19769871234894

$$$$
5
                    3D
 Structure written by MMmdl.
161169  0  0  1  0            999 V2000
  -30.6958  -14.5181   20.5653 C   0  0  0  0  0  0
  -30.4260  -12.3362   19.4291 C   0  0  0  0  0  0
  -29.4954  -12.5043   18.2107 C   0  0  0  0  0  0
  -28.0211  -12.3518   18.6290 C   0  0  0  0  0  0
  -27.6599  -13.2105   19.8702 C   0  0  2  0  0  0
  -28.7028  -13.0234   20.9946 C   0  0  0  0  0  0
  -25.2600  -13.8177   20.5687 C   0  0  0  0  0  0
  -24.1847  -13.0451   20.9179 C   0  0  0  0  0  0
  -24.6399  -11.6916   20.8721 C   0  0  0  0  0  0
  -23.9071  -10.4302   21.0401 C   0  0  0  0  0  0
  -24.3623   -9.4216   21.9183 C   0  0  0  0  0  0
  -23.6292   -8.2255   22.0757 C   0  0  0  0  0  0
  -22.4276   -8.0293   21.3548 C   0  0  0  0  0  0
  -21.9908   -9.0264   20.4652 C   0  0  0  0  0  0
  -22.7242  -10.2139   20.3060 C   0  0  0  0  0  0
  -21.6858   -6.0737   22.5275 C   0  0  0  0  0  0
  -21.4017   -6.5639   23.8206 C   0  0  0  0  0  0
  -21.3659   -5.6794   24.9169 C   0  0  0  0  0  0
  -21.6040   -4.3056   24.7220 C   0  0  0  0  0  0
  -21.8827   -3.8146   23.4345 C   0  0  0  0  0  0
  -21.9193   -4.6964   22.3401 C   0  0  0  0  0  0
  -22.7873  -13.5236   21.1865 C   0  0  0  0  0  0
  -22.1665   -4.2147   21.0982 F   0  0  0  0  0  0
  -21.5630   -3.4544   25.7735 F   0  0  0  0  0  0
  -30.0286  -13.3359   20.4347 N   0  0  0  0  0  0
  -26.3027  -12.9341   20.3354 N   0  0  0  0  0  0
  -25.9330  -11.6500   20.5756 N   0  0  0  0  0  0
  -22.0541  -12.8214   22.0434 N   0  0  0  0  0  0
  -25.4372  -15.1889   20.4098 N   0  0  0  0  0  0
  -31.8317  -14.6885   20.1127 O   0  0  0  0  0  0
  -21.6644   -6.8887   21.4244 O   0  0  0  0  0  0
  -22.3537  -14.5539   20.6719 O   0  0  0  0  0  0
  -24.6184  -31.8655   23.2089 C   0  0  0  0  0  0
  -25.9065  -32.4823   23.8382 C   0  0  1  0  0  0
  -27.2333  -27.3927   20.0956 C   0  0  0  0  0  0
  -25.5917  -33.8617   24.2322 N   0  0  0  0  0  0
  -23.4083  -30.4906   21.5511 C   0  0  2  0  0  0
  -24.8541  -28.9533   20.1129 C   0  0  0  0  0  0
  -22.7425  -29.4657   22.4983 C   0  0  0  0  0  0
  -18.0269  -28.1392   22.8486 C   0  0  0  0  0  0
  -24.1485  -36.7302   23.2636 C   0  0  0  0  0  0
  -25.9418  -30.8177   21.3688 C   0  0  0  0  0  0
  -26.0173  -29.4500   20.7119 C   0  0  0  0  0  0
  -27.2077  -28.6785   20.6987 C   0  0  0  0  0  0
  -26.0462  -26.9274   19.4805 C   0  0  0  0  0  0
  -24.8655  -27.6929   19.4936 C   0  0  0  0  0  0
  -23.6185  -29.8255   20.1647 C   0  0  0  0  0  0
  -25.4110  -36.3108   24.0336 C   0  0  1  0  0  0
  -20.5862  -28.3685   23.1313 C   0  0  2  0  0  0
  -20.6755  -26.9416   22.5418 C   0  0  0  0  0  0
  -19.5741  -26.6390   21.5208 C   0  0  0  0  0  0
  -18.1922  -26.7934   22.1623 C   0  0  0  0  0  0
  -19.1516  -28.8850   23.2901 C   0  0  0  0  0  0
  -18.9449  -30.1455   23.8915 C   0  0  0  0  0  0
  -17.6454  -30.6594   24.0561 C   0  0  0  0  0  0
  -25.9043  -34.9475   23.5125 C   0  0  0  0  0  0
  -16.5345  -29.9095   23.6327 C   0  0  0  0  0  0
  -16.7258  -28.6511   23.0348 C   0  0  0  0  0  0
  -26.4478  -31.6623   25.0722 C   0  0  0  0  0  0
  -25.3738  -31.3736   26.1471 C   0  0  0  0  0  0
  -27.0324  -30.3066   24.6127 C   0  0  0  0  0  0
  -27.6059  -32.4340   25.7478 C   0  0  0  0  0  0
  -27.5587  -37.1814   24.8466 C   0  0  0  0  0  0
  -21.4151  -29.3046   22.3714 N   0  0  0  0  0  0
  -26.4294  -37.3799   23.9411 N   0  0  0  0  0  0
  -24.6751  -31.0724   22.1012 N   0  0  0  0  0  0
  -23.4170  -28.8191   23.3041 O   0  0  0  0  0  0
  -28.3934  -26.6258   20.1288 O   0  0  0  0  0  0
  -26.5596  -34.8929   22.4687 O   0  0  0  0  0  0
  -23.5370  -32.1422   23.7466 O   0  0  0  0  0  0
  -29.7435  -19.3648   20.8830 C   0  0  0  0  0  0
  -29.1218  -20.3452   20.0644 C   0  0  0  0  0  0
  -28.5877  -19.8942   18.8274 C   0  0  0  0  0  0
  -29.8013  -18.0082   20.4723 C   0  0  0  0  0  0
  -28.7106  -18.5213   18.4886 C   0  0  0  0  0  0
  -27.8863  -20.8514   17.8673 C   0  0  0  0  0  0
  -28.1872  -17.9626   17.1774 C   0  0  0  0  0  0
  -28.9657  -21.8085   20.5609 C   0  0  0  0  0  0
  -30.4696  -16.9213   21.3352 C   0  0  0  0  0  0
  -29.6849  -22.9274   19.7399 C   0  0  0  0  0  0
  -29.5570  -24.4007   20.2645 C   0  0  0  0  0  0
  -28.2968  -25.2067   19.8331 C   0  0  0  0  0  0
  -29.2906  -17.6071   19.2921 N   0  0  0  0  0  0
  -30.0045  -15.5321   21.1218 N   0  0  0  0  0  0
  -31.4686  -12.4431   19.1260 H   0  0  0  0  0  0
  -30.3372  -11.3317   19.8447 H   0  0  0  0  0  0
  -29.7430  -11.7669   17.4458 H   0  0  0  0  0  0
  -29.6505  -13.4837   17.7540 H   0  0  0  0  0  0
  -27.8496  -11.2974   18.8465 H   0  0  0  0  0  0
  -27.3635  -12.5981   17.7941 H   0  0  0  0  0  0
  -27.6979  -14.2534   19.5535 H   0  0  0  0  0  0
  -28.6900  -11.9958   21.3602 H   0  0  0  0  0  0
  -28.4585  -13.6425   21.8587 H   0  0  0  0  0  0
  -25.2783   -9.5676   22.4744 H   0  0  0  0  0  0
  -24.0002   -7.4647   22.7474 H   0  0  0  0  0  0
  -21.0834   -8.8785   19.8955 H   0  0  0  0  0  0
  -22.3717  -10.9677   19.6157 H   0  0  0  0  0  0
  -21.2025   -7.6152   23.9705 H   0  0  0  0  0  0
  -21.1470   -6.0529   25.9068 H   0  0  0  0  0  0
  -22.0610   -2.7606   23.2847 H   0  0  0  0  0  0
  -22.4158  -11.9834   22.4743 H   0  0  0  0  0  0
  -21.1187  -13.1256   22.2738 H   0  0  0  0  0  0
  -24.6797  -15.8537   20.5221 H   0  0  0  0  0  0
  -26.2969  -15.6227   20.0975 H   0  0  0  0  0  0
  -26.7133  -32.5510   23.1134 H   0  0  0  0  0  0
  -25.0071  -33.9774   25.0471 H   0  0  0  0  0  0
  -22.6993  -31.3094   21.4126 H   0  0  0  0  0  0
  -23.3754  -35.9630   23.3291 H   0  0  0  0  0  0
  -24.3574  -36.8916   22.2051 H   0  0  0  0  0  0
  -23.7224  -37.6500   23.6651 H   0  0  0  0  0  0
  -26.0595  -31.5842   20.6022 H   0  0  0  0  0  0
  -26.8273  -30.8689   21.9908 H   0  0  0  0  0  0
  -28.1038  -29.0583   21.1692 H   0  0  0  0  0  0
  -26.0074  -25.9695   18.9833 H   0  0  0  0  0  0
  -23.9721  -27.3069   19.0228 H   0  0  0  0  0  0
  -23.7328  -30.6028   19.4084 H   0  0  0  0  0  0
  -22.7401  -29.2522   19.8630 H   0  0  0  0  0  0
  -25.1285  -36.1973   25.0828 H   0  0  0  0  0  0
  -20.9957  -28.3252   24.1435 H   0  0  0  0  0  0
  -20.5658  -26.2283   23.3607 H   0  0  0  0  0  0
  -21.6632  -26.7459   22.1224 H   0  0  0  0  0  0
  -19.6905  -25.6295   21.1249 H   0  0  0  0  0  0
  -19.6693  -27.3187   20.6730 H   0  0  0  0  0  0
  -17.4195  -26.6673   21.4026 H   0  0  0  0  0  0
  -18.0344  -26.0071   22.9015 H   0  0  0  0  0  0
  -19.7919  -30.7258   24.2306 H   0  0  0  0  0  0
  -17.5003  -31.6278   24.5159 H   0  0  0  0  0  0
  -15.5346  -30.3006   23.7637 H   0  0  0  0  0  0
  -15.8655  -28.0835   22.7067 H   0  0  0  0  0  0
  -24.5909  -30.7083   25.7802 H   0  0  0  0  0  0
  -24.8919  -32.2888   26.4926 H   0  0  0  0  0  0
  -25.8083  -30.8894   27.0226 H   0  0  0  0  0  0
  -26.2886  -29.6825   24.1159 H   0  0  0  0  0  0
  -27.4058  -29.7316   25.4610 H   0  0  0  0  0  0
  -27.8727  -30.4370   23.9302 H   0  0  0  0  0  0
  -27.2705  -33.3638   26.2082 H   0  0  0  0  0  0
  -28.3861  -32.6915   25.0301 H   0  0  0  0  0  0
  -28.0745  -31.8443   26.5374 H   0  0  0  0  0  0
  -28.2616  -38.0102   24.7519 H   0  0  0  0  0  0
  -28.1076  -36.2640   24.6287 H   0  0  0  0  0  0
  -27.2304  -37.1455   25.8868 H   0  0  0  0  0  0
  -20.9315  -29.8765   21.6930 H   0  0  0  0  0  0
  -26.0180  -38.2871   24.1427 H   0  0  0  0  0  0
  -30.1632  -19.6447   21.8397 H   0  0  0  0  0  0
  -27.4183  -21.6888   18.3826 H   0  0  0  0  0  0
  -27.0889  -20.3618   17.3080 H   0  0  0  0  0  0
  -28.6028  -21.2475   17.1468 H   0  0  0  0  0  0
  -27.0986  -18.0007   17.1497 H   0  0  0  0  0  0
  -28.4830  -16.9219   17.0355 H   0  0  0  0  0  0
  -28.5769  -18.5315   16.3338 H   0  0  0  0  0  0
  -29.3237  -21.8540   21.5904 H   0  0  0  0  0  0
  -27.9002  -22.0315   20.6226 H   0  0  0  0  0  0
  -30.2939  -17.1674   22.3830 H   0  0  0  0  0  0
  -31.5485  -16.9951   21.1915 H   0  0  0  0  0  0
  -29.3788  -22.9052   18.6961 H   0  0  0  0  0  0
  -30.7460  -22.6755   19.7262 H   0  0  0  0  0  0
  -29.6531  -24.4155   21.3501 H   0  0  0  0  0  0
  -30.4217  -24.9512   19.8916 H   0  0  0  0  0  0
  -27.4295  -24.7682   20.3283 H   0  0  0  0  0  0
  -28.1518  -25.0872   18.7586 H   0  0  0  0  0  0
  -29.0552  -15.3393   21.3956 H   0  0  0  0  0  0
  1 25  1  0  0  0
  1 30  2  0  0  0
  1 84  1  0  0  0
  2  3  1  0  0  0
  2 25  1  0  0  0
  2 85  1  0  0  0
  2 86  1  0  0  0
  3  4  1  0  0  0
  3 87  1  0  0  0
  3 88  1  0  0  0
  4  5  1  0  0  0
  4 89  1  0  0  0
  4 90  1  0  0  0
  5  6  1  0  0  0
  5 26  1  0  0  0
  5 91  1  0  0  0
  6 25  1  0  0  0
  6 92  1  0  0  0
  6 93  1  0  0  0
  7  8  2  0  0  0
  7 26  1  0  0  0
  7 29  1  0  0  0
  8  9  1  0  0  0
  8 22  1  0  0  0
  9 10  1  0  0  0
  9 27  2  0  0  0
 10 11  2  0  0  0
 10 15  1  0  0  0
 11 12  1  0  0  0
 11 94  1  0  0  0
 12 13  2  0  0  0
 12 95  1  0  0  0
 13 14  1  0  0  0
 13 31  1  0  0  0
 14 15  2  0  0  0
 14 96  1  0  0  0
 15 97  1  0  0  0
 16 17  2  0  0  0
 16 21  1  0  0  0
 16 31  1  0  0  0
 17 18  1  0  0  0
 17 98  1  0  0  0
 18 19  2  0  0  0
 18 99  1  0  0  0
 19 20  1  0  0  0
 19 24  1  0  0  0
 20 21  2  0  0  0
 20100  1  0  0  0
 21 23  1  0  0  0
 22 28  1  0  0  0
 22 32  2  0  0  0
 26 27  1  0  0  0
 28101  1  0  0  0
 28102  1  0  0  0
 29103  1  0  0  0
 29104  1  0  0  0
 33 34  1  0  0  0
 33 66  1  0  0  0
 33 70  2  0  0  0
 34 36  1  0  0  0
 34 59  1  0  0  0
 34105  1  0  0  0
 35 44  2  0  0  0
 35 45  1  0  0  0
 35 68  1  0  0  0
 36 56  1  0  0  0
 36106  1  0  0  0
 37 39  1  0  0  0
 37 47  1  0  0  0
 37 66  1  0  0  0
 37107  1  0  0  0
 38 43  2  0  0  0
 38 46  1  0  0  0
 38 47  1  0  0  0
 39 64  1  0  0  0
 39 67  2  0  0  0
 40 52  1  0  0  0
 40 53  2  0  0  0
 40 58  1  0  0  0
 41108  1  0  0  0
 41109  1  0  0  0
 41110  1  0  0  0
 41 48  1  0  0  0
 42 43  1  0  0  0
 42 66  1  0  0  0
 42111  1  0  0  0
 42112  1  0  0  0
 43 44  1  0  0  0
 44113  1  0  0  0
 45 46  2  0  0  0
 45114  1  0  0  0
 46115  1  0  0  0
 47116  1  0  0  0
 47117  1  0  0  0
 48 56  1  0  0  0
 48 65  1  0  0  0
 48118  1  0  0  0
 49 50  1  0  0  0
 49 53  1  0  0  0
 49 64  1  0  0  0
 49119  1  0  0  0
 50 51  1  0  0  0
 50120  1  0  0  0
 50121  1  0  0  0
 51 52  1  0  0  0
 51122  1  0  0  0
 51123  1  0  0  0
 52124  1  0  0  0
 52125  1  0  0  0
 53 54  1  0  0  0
 54 55  2  0  0  0
 54126  1  0  0  0
 55 57  1  0  0  0
 55127  1  0  0  0
 56 69  2  0  0  0
 57 58  2  0  0  0
 57128  1  0  0  0
 58129  1  0  0  0
 59 60  1  0  0  0
 59 61  1  0  0  0
 59 62  1  0  0  0
 60130  1  0  0  0
 60131  1  0  0  0
 60132  1  0  0  0
 61133  1  0  0  0
 61134  1  0  0  0
 61135  1  0  0  0
 62136  1  0  0  0
 62137  1  0  0  0
 62138  1  0  0  0
 63 65  1  0  0  0
 63139  1  0  0  0
 63140  1  0  0  0
 63141  1  0  0  0
 64142  1  0  0  0
 65143  1  0  0  0
 68 82  1  0  0  0
 71 72  2  0  0  0
 71 74  1  0  0  0
 71144  1  0  0  0
 72 73  1  0  0  0
 72 78  1  0  0  0
 73 75  2  0  0  0
 73 76  1  0  0  0
 74 79  1  0  0  0
 74 83  2  0  0  0
 75 77  1  0  0  0
 75 83  1  0  0  0
 76145  1  0  0  0
 76146  1  0  0  0
 76147  1  0  0  0
 77148  1  0  0  0
 77149  1  0  0  0
 77150  1  0  0  0
 78 80  1  0  0  0
 78151  1  0  0  0
 78152  1  0  0  0
 79 84  1  0  0  0
 79153  1  0  0  0
 79154  1  0  0  0
 80 81  1  0  0  0
 80155  1  0  0  0
 80156  1  0  0  0
 81 82  1  0  0  0
 81157  1  0  0  0
 81158  1  0  0  0
 82159  1  0  0  0
 82160  1  0  0  0
 84161  1  0  0  0
M  ISO  4   1 100  68 101  82 101  84 100
M  END
> <chiral flag>
0

> <version>
0

> <s_m_source_file>
/data/baiqing/PycharmProjects/Reinvent-master-3.2/result/LINK_invent/BTK/process_docking_weight1_custom_sum_contain_oxygen_bond_distance_aromatic_linkinvent_7_9_3/rearranged_h_0035.sdf

> <i_m_source_file_index>
6

> <r_mmod_Potential_Energy-OPLS-2005>
-352.875427246094

> <r_mmod_Stretch_Energy-OPLS-2005>
47.6411361694336

> <r_mmod_Bend_Energy-OPLS-2005>
105.179489135742

> <r_mmod_Torsional_Energy-OPLS-2005>
192.040634155273

> <r_mmod_Improper_Torsional_Energy-OPLS-2005>
2.63391971588135

> <r_mmod_Van_der_Waal_Energy-OPLS-2005>
155.276565551758

> <r_mmod_Electrostatic_Energy-OPLS-2005>
-654.165771484375

> <r_mmod_Solvation_Energy-OPLS-2005>
-221.499755859375

> <b_mmod_Minimization_Converged-OPLS-2005>
0

> <r_mmod_RMS_Derivative-OPLS-2005>
1.87383258342743

$$$$
6
                    3D
 Structure written by MMmdl.
168177  0  0  1  0            999 V2000
  -30.7303  -14.4004   20.5663 C   0  0  0  0  0  0
  -30.4198  -12.2615   19.4088 C   0  0  0  0  0  0
  -29.4901  -12.4861   18.1991 C   0  0  0  0  0  0
  -28.0097  -12.3660   18.6135 C   0  0  0  0  0  0
  -27.6646  -13.1986   19.8775 C   0  0  2  0  0  0
  -28.7071  -12.9595   20.9949 C   0  0  0  0  0  0
  -25.2609  -13.8141   20.5694 C   0  0  0  0  0  0
  -24.1840  -13.0445   20.9187 C   0  0  0  0  0  0
  -24.6366  -11.6900   20.8730 C   0  0  0  0  0  0
  -23.9035  -10.4290   21.0400 C   0  0  0  0  0  0
  -24.3596   -9.4198   21.9171 C   0  0  0  0  0  0
  -23.6305   -8.2217   22.0719 C   0  0  0  0  0  0
  -22.4275   -8.0273   21.3532 C   0  0  0  0  0  0
  -21.9878   -9.0248   20.4660 C   0  0  0  0  0  0
  -22.7195  -10.2138   20.3065 C   0  0  0  0  0  0
  -21.6849   -6.0733   22.5283 C   0  0  0  0  0  0
  -21.3998   -6.5636   23.8209 C   0  0  0  0  0  0
  -21.3652   -5.6790   24.9174 C   0  0  0  0  0  0
  -21.6043   -4.3050   24.7234 C   0  0  0  0  0  0
  -21.8803   -3.8147   23.4356 C   0  0  0  0  0  0
  -21.9171   -4.6960   22.3411 C   0  0  0  0  0  0
  -22.7857  -13.5244   21.1853 C   0  0  0  0  0  0
  -22.1655   -4.2147   21.0991 F   0  0  0  0  0  0
  -21.5645   -3.4526   25.7746 F   0  0  0  0  0  0
  -30.0448  -13.2371   20.4400 N   0  0  0  0  0  0
  -26.3036  -12.9311   20.3387 N   0  0  0  0  0  0
  -25.9291  -11.6476   20.5766 N   0  0  0  0  0  0
  -22.0515  -12.8251   22.0427 N   0  0  0  0  0  0
  -25.4352  -15.1861   20.4089 N   0  0  0  0  0  0
  -31.8615  -14.5880   20.1174 O   0  0  0  0  0  0
  -21.6648   -6.8869   21.4235 O   0  0  0  0  0  0
  -22.3539  -14.5548   20.6691 O   0  0  0  0  0  0
  -24.6144  -31.8723   23.2126 C   0  0  0  0  0  0
  -25.9065  -32.4841   23.8399 C   0  0  1  0  0  0
  -27.2269  -27.4787   20.0661 C   0  0  0  0  0  0
  -25.5931  -33.8629   24.2343 N   0  0  0  0  0  0
  -23.3984  -30.4991   21.5539 C   0  0  2  0  0  0
  -24.8393  -28.9775   20.1081 C   0  0  0  0  0  0
  -22.7413  -29.4689   22.5002 C   0  0  0  0  0  0
  -18.0282  -28.1386   22.8497 C   0  0  0  0  0  0
  -24.1483  -36.7317   23.2633 C   0  0  0  0  0  0
  -25.9253  -30.8493   21.3614 C   0  0  0  0  0  0
  -26.0012  -29.4922   20.6977 C   0  0  0  0  0  0
  -27.2017  -28.7511   20.6699 C   0  0  0  0  0  0
  -26.0486  -26.9743   19.4693 C   0  0  0  0  0  0
  -24.8561  -27.7162   19.4912 C   0  0  0  0  0  0
  -23.6007  -29.8390   20.1654 C   0  0  0  0  0  0
  -25.4103  -36.3121   24.0343 C   0  0  1  0  0  0
  -20.5874  -28.3683   23.1316 C   0  0  2  0  0  0
  -20.6778  -26.9424   22.5410 C   0  0  0  0  0  0
  -19.5749  -26.6403   21.5213 C   0  0  0  0  0  0
  -18.1932  -26.7939   22.1625 C   0  0  0  0  0  0
  -19.1529  -28.8852   23.2909 C   0  0  0  0  0  0
  -18.9448  -30.1459   23.8920 C   0  0  0  0  0  0
  -17.6447  -30.6591   24.0579 C   0  0  0  0  0  0
  -25.9037  -34.9488   23.5137 C   0  0  0  0  0  0
  -16.5343  -29.9092   23.6330 C   0  0  0  0  0  0
  -16.7270  -28.6510   23.0349 C   0  0  0  0  0  0
  -26.4488  -31.6601   25.0716 C   0  0  0  0  0  0
  -25.3747  -31.3708   26.1452 C   0  0  0  0  0  0
  -27.0308  -30.3038   24.6091 C   0  0  0  0  0  0
  -27.6084  -32.4296   25.7475 C   0  0  0  0  0  0
  -27.5583  -37.1809   24.8467 C   0  0  0  0  0  0
  -21.4146  -29.3045   22.3722 N   0  0  0  0  0  0
  -26.4293  -37.3805   23.9417 N   0  0  0  0  0  0
  -24.6639  -31.0853   22.1014 N   0  0  0  0  0  0
  -23.4194  -28.8237   23.3043 O   0  0  0  0  0  0
  -28.3806  -26.7307   20.0898 O   0  0  0  0  0  0
  -26.5576  -34.8931   22.4680 O   0  0  0  0  0  0
  -23.5347  -32.1457   23.7555 O   0  0  0  0  0  0
  -26.5332  -21.5309   22.5192 C   0  0  0  0  0  0
  -26.7285  -19.3271   23.4802 C   0  0  0  0  0  0
  -25.9286  -20.4387   23.1666 C   0  0  0  0  0  0
  -27.9088  -21.4739   22.2092 C   0  0  0  0  0  0
  -28.0917  -19.3550   23.1386 C   0  0  0  0  0  0
  -28.6895  -23.8571   22.4898 C   0  0  0  0  0  0
  -27.9361  -22.9775   20.1583 C   0  0  0  0  0  0
  -29.1083  -25.1699   21.8078 C   0  0  0  0  0  0
  -28.3945  -24.3201   19.5624 C   0  0  0  0  0  0
  -28.6025  -22.6501   21.5219 C   0  0  2  0  0  0
  -28.1873  -25.4172   20.6139 C   0  0  2  0  0  0
  -24.4514  -20.4458   23.5012 C   0  0  0  0  0  0
  -28.9562  -18.1322   23.3558 C   0  0  0  0  0  0
  -29.0034  -17.2947   22.0751 C   0  0  0  0  0  0
  -29.8857  -16.0464   22.1765 C   0  0  0  0  0  0
  -28.6746  -20.4061   22.5198 N   0  0  0  0  0  0
  -29.9747  -15.4590   20.8500 N   0  0  0  0  0  0
  -31.4643  -12.3531   19.1011 H   0  0  0  0  0  0
  -30.3120  -11.2474   19.7971 H   0  0  0  0  0  0
  -29.7120  -11.7601   17.4160 H   0  0  0  0  0  0
  -29.6750  -13.4702   17.7656 H   0  0  0  0  0  0
  -27.8074  -11.3117   18.8023 H   0  0  0  0  0  0
  -27.3618  -12.6548   17.7840 H   0  0  0  0  0  0
  -27.7164  -14.2491   19.5915 H   0  0  0  0  0  0
  -28.6611  -11.9274   21.3450 H   0  0  0  0  0  0
  -28.4794  -13.5719   21.8669 H   0  0  0  0  0  0
  -25.2727   -9.5691   22.4760 H   0  0  0  0  0  0
  -24.0044   -7.4580   22.7391 H   0  0  0  0  0  0
  -21.0791   -8.8767   19.9004 H   0  0  0  0  0  0
  -22.3614  -10.9693   19.6210 H   0  0  0  0  0  0
  -21.2003   -7.6142   23.9703 H   0  0  0  0  0  0
  -21.1492   -6.0536   25.9081 H   0  0  0  0  0  0
  -22.0587   -2.7614   23.2863 H   0  0  0  0  0  0
  -22.4161  -11.9924   22.4822 H   0  0  0  0  0  0
  -21.1157  -13.1322   22.2706 H   0  0  0  0  0  0
  -24.6777  -15.8474   20.5398 H   0  0  0  0  0  0
  -26.3052  -15.6231   20.1302 H   0  0  0  0  0  0
  -26.7153  -32.5562   23.1181 H   0  0  0  0  0  0
  -25.0136  -33.9779   25.0525 H   0  0  0  0  0  0
  -22.6852  -31.3152   21.4227 H   0  0  0  0  0  0
  -23.3745  -35.9653   23.3311 H   0  0  0  0  0  0
  -24.3583  -36.8901   22.2044 H   0  0  0  0  0  0
  -23.7219  -37.6526   23.6619 H   0  0  0  0  0  0
  -26.0396  -31.6231   20.6019 H   0  0  0  0  0  0
  -26.8116  -30.8919   21.9826 H   0  0  0  0  0  0
  -28.1008  -29.1435   21.1234 H   0  0  0  0  0  0
  -26.0425  -26.0056   18.9927 H   0  0  0  0  0  0
  -23.9647  -27.3155   19.0284 H   0  0  0  0  0  0
  -23.7020  -30.6151   19.4060 H   0  0  0  0  0  0
  -22.7247  -29.2573   19.8748 H   0  0  0  0  0  0
  -25.1271  -36.2007   25.0838 H   0  0  0  0  0  0
  -20.9977  -28.3253   24.1431 H   0  0  0  0  0  0
  -20.5713  -26.2289   23.3591 H   0  0  0  0  0  0
  -21.6644  -26.7488   22.1185 H   0  0  0  0  0  0
  -19.6916  -25.6321   21.1227 H   0  0  0  0  0  0
  -19.6689  -27.3221   20.6747 H   0  0  0  0  0  0
  -17.4212  -26.6711   21.4019 H   0  0  0  0  0  0
  -18.0333  -26.0063   22.8999 H   0  0  0  0  0  0
  -19.7921  -30.7282   24.2289 H   0  0  0  0  0  0
  -17.4998  -31.6267   24.5182 H   0  0  0  0  0  0
  -15.5346  -30.3003   23.7629 H   0  0  0  0  0  0
  -15.8672  -28.0838   22.7040 H   0  0  0  0  0  0
  -24.5931  -30.7054   25.7765 H   0  0  0  0  0  0
  -24.8928  -32.2863   26.4891 H   0  0  0  0  0  0
  -25.8083  -30.8865   27.0209 H   0  0  0  0  0  0
  -26.2848  -29.6811   24.1133 H   0  0  0  0  0  0
  -27.4053  -29.7264   25.4554 H   0  0  0  0  0  0
  -27.8704  -30.4336   23.9254 H   0  0  0  0  0  0
  -27.2731  -33.3579   26.2107 H   0  0  0  0  0  0
  -28.3868  -32.6874   25.0282 H   0  0  0  0  0  0
  -28.0791  -31.8381   26.5336 H   0  0  0  0  0  0
  -28.2614  -38.0096   24.7520 H   0  0  0  0  0  0
  -28.1062  -36.2626   24.6292 H   0  0  0  0  0  0
  -27.2303  -37.1473   25.8870 H   0  0  0  0  0  0
  -20.9315  -29.8740   21.6917 H   0  0  0  0  0  0
  -26.0196  -38.2895   24.1400 H   0  0  0  0  0  0
  -25.9490  -22.4036   22.2594 H   0  0  0  0  0  0
  -26.3020  -18.4528   23.9559 H   0  0  0  0  0  0
  -27.7128  -24.0204   22.9467 H   0  0  0  0  0  0
  -29.3678  -23.6260   23.3110 H   0  0  0  0  0  0
  -28.1156  -22.1652   19.4537 H   0  0  0  0  0  0
  -26.8546  -23.0310   20.2773 H   0  0  0  0  0  0
  -30.1513  -25.1319   21.4901 H   0  0  0  0  0  0
  -29.0255  -25.9942   22.5165 H   0  0  0  0  0  0
  -27.8216  -24.5370   18.6612 H   0  0  0  0  0  0
  -29.4405  -24.2702   19.2582 H   0  0  0  0  0  0
  -29.6299  -22.3584   21.2975 H   0  0  0  0  0  0
  -27.1722  -25.3127   21.0047 H   0  0  0  0  0  0
  -24.0662  -21.4645   23.5509 H   0  0  0  0  0  0
  -24.2688  -19.9712   24.4646 H   0  0  0  0  0  0
  -23.8852  -19.9046   22.7428 H   0  0  0  0  0  0
  -28.5598  -17.5404   24.1820 H   0  0  0  0  0  0
  -29.9619  -18.4398   23.6446 H   0  0  0  0  0  0
  -29.3672  -17.9303   21.2666 H   0  0  0  0  0  0
  -27.9883  -17.0043   21.7997 H   0  0  0  0  0  0
  -29.4786  -15.3362   22.8980 H   0  0  0  0  0  0
  -30.8862  -16.3195   22.5160 H   0  0  0  0  0  0
  -30.1568  -16.1873   20.1747 H   0  0  0  0  0  0
  1 25  1  0  0  0
  1 30  2  0  0  0
  1 87  1  0  0  0
  2  3  1  0  0  0
  2 25  1  0  0  0
  2 88  1  0  0  0
  2 89  1  0  0  0
  3  4  1  0  0  0
  3 90  1  0  0  0
  3 91  1  0  0  0
  4  5  1  0  0  0
  4 92  1  0  0  0
  4 93  1  0  0  0
  5  6  1  0  0  0
  5 26  1  0  0  0
  5 94  1  0  0  0
  6 25  1  0  0  0
  6 95  1  0  0  0
  6 96  1  0  0  0
  7  8  2  0  0  0
  7 26  1  0  0  0
  7 29  1  0  0  0
  8  9  1  0  0  0
  8 22  1  0  0  0
  9 10  1  0  0  0
  9 27  2  0  0  0
 10 11  2  0  0  0
 10 15  1  0  0  0
 11 12  1  0  0  0
 11 97  1  0  0  0
 12 13  2  0  0  0
 12 98  1  0  0  0
 13 14  1  0  0  0
 13 31  1  0  0  0
 14 15  2  0  0  0
 14 99  1  0  0  0
 15100  1  0  0  0
 16 17  2  0  0  0
 16 21  1  0  0  0
 16 31  1  0  0  0
 17 18  1  0  0  0
 17101  1  0  0  0
 18 19  2  0  0  0
 18102  1  0  0  0
 19 20  1  0  0  0
 19 24  1  0  0  0
 20 21  2  0  0  0
 20103  1  0  0  0
 21 23  1  0  0  0
 22 28  1  0  0  0
 22 32  2  0  0  0
 26 27  1  0  0  0
 28104  1  0  0  0
 28105  1  0  0  0
 29106  1  0  0  0
 29107  1  0  0  0
 33 34  1  0  0  0
 33 66  1  0  0  0
 33 70  2  0  0  0
 34 36  1  0  0  0
 34 59  1  0  0  0
 34108  1  0  0  0
 35 44  2  0  0  0
 35 45  1  0  0  0
 35 68  1  0  0  0
 36 56  1  0  0  0
 36109  1  0  0  0
 37 39  1  0  0  0
 37 47  1  0  0  0
 37 66  1  0  0  0
 37110  1  0  0  0
 38 43  2  0  0  0
 38 46  1  0  0  0
 38 47  1  0  0  0
 39 64  1  0  0  0
 39 67  2  0  0  0
 40 52  1  0  0  0
 40 53  2  0  0  0
 40 58  1  0  0  0
 41111  1  0  0  0
 41112  1  0  0  0
 41113  1  0  0  0
 41 48  1  0  0  0
 42 43  1  0  0  0
 42 66  1  0  0  0
 42114  1  0  0  0
 42115  1  0  0  0
 43 44  1  0  0  0
 44116  1  0  0  0
 45 46  2  0  0  0
 45117  1  0  0  0
 46118  1  0  0  0
 47119  1  0  0  0
 47120  1  0  0  0
 48 56  1  0  0  0
 48 65  1  0  0  0
 48121  1  0  0  0
 49 50  1  0  0  0
 49 53  1  0  0  0
 49 64  1  0  0  0
 49122  1  0  0  0
 50 51  1  0  0  0
 50123  1  0  0  0
 50124  1  0  0  0
 51 52  1  0  0  0
 51125  1  0  0  0
 51126  1  0  0  0
 52127  1  0  0  0
 52128  1  0  0  0
 53 54  1  0  0  0
 54 55  2  0  0  0
 54129  1  0  0  0
 55 57  1  0  0  0
 55130  1  0  0  0
 56 69  2  0  0  0
 57 58  2  0  0  0
 57131  1  0  0  0
 58132  1  0  0  0
 59 60  1  0  0  0
 59 61  1  0  0  0
 59 62  1  0  0  0
 60133  1  0  0  0
 60134  1  0  0  0
 60135  1  0  0  0
 61136  1  0  0  0
 61137  1  0  0  0
 61138  1  0  0  0
 62139  1  0  0  0
 62140  1  0  0  0
 62141  1  0  0  0
 63 65  1  0  0  0
 63142  1  0  0  0
 63143  1  0  0  0
 63144  1  0  0  0
 64145  1  0  0  0
 65146  1  0  0  0
 68 81  1  0  0  0
 71 73  2  0  0  0
 71 74  1  0  0  0
 71147  1  0  0  0
 72 73  1  0  0  0
 72 75  2  0  0  0
 72148  1  0  0  0
 73 82  1  0  0  0
 74 86  2  0  0  0
 74 80  1  0  0  0
 75 83  1  0  0  0
 75 86  1  0  0  0
 76 78  1  0  0  0
 76 80  1  0  0  0
 76149  1  0  0  0
 76150  1  0  0  0
 77 79  1  0  0  0
 77 80  1  0  0  0
 77151  1  0  0  0
 77152  1  0  0  0
 78 81  1  0  0  0
 78153  1  0  0  0
 78154  1  0  0  0
 79 81  1  0  0  0
 79155  1  0  0  0
 79156  1  0  0  0
 80157  1  0  0  0
 81158  1  0  0  0
 82159  1  0  0  0
 82160  1  0  0  0
 82161  1  0  0  0
 83 84  1  0  0  0
 83162  1  0  0  0
 83163  1  0  0  0
 84 85  1  0  0  0
 84164  1  0  0  0
 84165  1  0  0  0
 85 87  1  0  0  0
 85166  1  0  0  0
 85167  1  0  0  0
 87168  1  0  0  0
M  ISO  4   1 100  68 101  81 101  87 100
M  END
> <chiral flag>
0

> <version>
0

> <s_m_source_file>
/data/baiqing/PycharmProjects/Reinvent-master-3.2/result/LINK_invent/BTK/process_docking_weight1_custom_sum_contain_oxygen_bond_distance_aromatic_linkinvent_7_9_3/rearranged_h_0035.sdf

> <i_m_source_file_index>
7

> <r_mmod_Potential_Energy-OPLS-2005>
-149.695114135742

> <r_mmod_Stretch_Energy-OPLS-2005>
31.3922786712646

> <r_mmod_Bend_Energy-OPLS-2005>
100.494621276855

> <r_mmod_Torsional_Energy-OPLS-2005>
286.425689697266

> <r_mmod_Improper_Torsional_Energy-OPLS-2005>
15.4983606338501

> <r_mmod_Van_der_Waal_Energy-OPLS-2005>
159.105499267578

> <r_mmod_Electrostatic_Energy-OPLS-2005>
-546.277282714844

> <r_mmod_Solvation_Energy-OPLS-2005>
-207.477142333984

> <b_mmod_Minimization_Converged-OPLS-2005>
0

> <r_mmod_RMS_Derivative-OPLS-2005>
2.38336300849915

$$$$
7
                    3D
 Structure written by MMmdl.
162170  0  0  1  0            999 V2000
  -30.6834  -14.5010   20.5893 C   0  0  0  0  0  0
  -30.4305  -12.3416   19.4074 C   0  0  0  0  0  0
  -29.4906  -12.5192   18.1982 C   0  0  0  0  0  0
  -28.0088  -12.3846   18.6048 C   0  0  0  0  0  0
  -27.6567  -13.2113   19.8723 C   0  0  2  0  0  0
  -28.7045  -12.9855   20.9864 C   0  0  0  0  0  0
  -25.2598  -13.8196   20.5738 C   0  0  0  0  0  0
  -24.1853  -13.0455   20.9203 C   0  0  0  0  0  0
  -24.6402  -11.6908   20.8729 C   0  0  0  0  0  0
  -23.9078  -10.4311   21.0377 C   0  0  0  0  0  0
  -24.3633   -9.4227   21.9151 C   0  0  0  0  0  0
  -23.6303   -8.2267   22.0727 C   0  0  0  0  0  0
  -22.4278   -8.0289   21.3552 C   0  0  0  0  0  0
  -21.9925   -9.0260   20.4661 C   0  0  0  0  0  0
  -22.7238  -10.2139   20.3041 C   0  0  0  0  0  0
  -21.6869   -6.0719   22.5273 C   0  0  0  0  0  0
  -21.4035   -6.5632   23.8213 C   0  0  0  0  0  0
  -21.3655   -5.6792   24.9177 C   0  0  0  0  0  0
  -21.6028   -4.3039   24.7208 C   0  0  0  0  0  0
  -21.8832   -3.8131   23.4337 C   0  0  0  0  0  0
  -21.9231   -4.6960   22.3380 C   0  0  0  0  0  0
  -22.7868  -13.5222   21.1822 C   0  0  0  0  0  0
  -22.1668   -4.2141   21.0955 F   0  0  0  0  0  0
  -21.5621   -3.4513   25.7710 F   0  0  0  0  0  0
  -30.0266  -13.3209   20.4291 N   0  0  0  0  0  0
  -26.3026  -12.9336   20.3400 N   0  0  0  0  0  0
  -25.9343  -11.6511   20.5819 N   0  0  0  0  0  0
  -22.0524  -12.8210   22.0393 N   0  0  0  0  0  0
  -25.4310  -15.1917   20.4155 N   0  0  0  0  0  0
  -31.8161  -14.7041   20.1419 O   0  0  0  0  0  0
  -21.6660   -6.8867   21.4229 O   0  0  0  0  0  0
  -22.3491  -14.5486   20.6615 O   0  0  0  0  0  0
  -24.6182  -31.8653   23.2075 C   0  0  0  0  0  0
  -25.9068  -32.4799   23.8388 C   0  0  1  0  0  0
  -27.2176  -27.3690   20.1245 C   0  0  0  0  0  0
  -25.5907  -33.8597   24.2315 N   0  0  0  0  0  0
  -23.4071  -30.4920   21.5499 C   0  0  2  0  0  0
  -24.8484  -28.9507   20.1119 C   0  0  0  0  0  0
  -22.7422  -29.4687   22.4975 C   0  0  0  0  0  0
  -18.0309  -28.1372   22.8520 C   0  0  0  0  0  0
  -24.1488  -36.7286   23.2650 C   0  0  0  0  0  0
  -25.9401  -30.8149   21.3682 C   0  0  0  0  0  0
  -26.0131  -29.4458   20.7119 C   0  0  0  0  0  0
  -27.1974  -28.6658   20.7078 C   0  0  0  0  0  0
  -26.0311  -26.8993   19.5165 C   0  0  0  0  0  0
  -24.8594  -27.6834   19.5040 C   0  0  0  0  0  0
  -23.6120  -29.8216   20.1628 C   0  0  0  0  0  0
  -25.4115  -36.3100   24.0345 C   0  0  1  0  0  0
  -20.5889  -28.3680   23.1303 C   0  0  2  0  0  0
  -20.6758  -26.9410   22.5407 C   0  0  0  0  0  0
  -19.5737  -26.6387   21.5209 C   0  0  0  0  0  0
  -18.1936  -26.7941   22.1629 C   0  0  0  0  0  0
  -19.1555  -28.8845   23.2920 C   0  0  0  0  0  0
  -18.9470  -30.1441   23.8938 C   0  0  0  0  0  0
  -17.6460  -30.6583   24.0580 C   0  0  0  0  0  0
  -25.9038  -34.9466   23.5137 C   0  0  0  0  0  0
  -16.5353  -29.9079   23.6318 C   0  0  0  0  0  0
  -16.7287  -28.6485   23.0374 C   0  0  0  0  0  0
  -26.4479  -31.6585   25.0722 C   0  0  0  0  0  0
  -25.3702  -31.3704   26.1436 C   0  0  0  0  0  0
  -27.0299  -30.3024   24.6113 C   0  0  0  0  0  0
  -27.6076  -32.4303   25.7451 C   0  0  0  0  0  0
  -27.5601  -37.1802   24.8477 C   0  0  0  0  0  0
  -21.4154  -29.3049   22.3679 N   0  0  0  0  0  0
  -26.4297  -37.3786   23.9420 N   0  0  0  0  0  0
  -24.6745  -31.0723   22.1001 N   0  0  0  0  0  0
  -23.4176  -28.8242   23.3041 O   0  0  0  0  0  0
  -28.3901  -26.6229   20.1702 O   0  0  0  0  0  0
  -26.5615  -34.8938   22.4707 O   0  0  0  0  0  0
  -23.5361  -32.1460   23.7429 O   0  0  0  0  0  0
  -31.0160  -20.9006   21.7352 C   0  0  0  0  0  0
  -28.7980  -21.7009   21.1616 C   0  0  0  0  0  0
  -29.6792  -20.6093   21.4141 C   0  0  0  0  0  0
  -31.4656  -22.2322   21.8547 C   0  0  0  0  0  0
  -29.2188  -23.0604   21.2716 C   0  0  0  0  0  0
  -30.5688  -23.3216   21.6543 C   0  0  0  0  0  0
  -32.9147  -22.4497   22.2649 C   0  0  0  0  0  0
  -31.0574  -24.7507   21.9116 C   0  0  0  0  0  0
  -29.1810  -19.1474   21.5021 C   0  0  0  0  0  0
  -28.1912  -24.2155   21.0888 C   0  0  0  0  0  0
  -30.0064  -18.0376   20.7566 C   0  0  0  0  0  0
  -30.4558  -16.8113   21.6254 C   0  0  0  0  0  0
  -28.4265  -25.1922   19.8831 C   0  0  0  0  0  0
  -29.9760  -15.4835   21.1859 N   0  0  0  0  0  0
  -31.4664  -12.4719   19.0919 H   0  0  0  0  0  0
  -30.3651  -11.3270   19.8025 H   0  0  0  0  0  0
  -29.7333  -11.7949   17.4176 H   0  0  0  0  0  0
  -29.6506  -13.5089   17.7651 H   0  0  0  0  0  0
  -27.7966  -11.3257   18.7643 H   0  0  0  0  0  0
  -27.3746  -12.6952   17.7730 H   0  0  0  0  0  0
  -27.6957  -14.2629   19.5848 H   0  0  0  0  0  0
  -28.7011  -11.9399   21.2955 H   0  0  0  0  0  0
  -28.4571  -13.5592   21.8815 H   0  0  0  0  0  0
  -25.2792   -9.5690   22.4701 H   0  0  0  0  0  0
  -24.0043   -7.4660   22.7422 H   0  0  0  0  0  0
  -21.0869   -8.8731   19.8965 H   0  0  0  0  0  0
  -22.3690  -10.9645   19.6117 H   0  0  0  0  0  0
  -21.2001   -7.6137   23.9702 H   0  0  0  0  0  0
  -21.1456   -6.0513   25.9090 H   0  0  0  0  0  0
  -22.0613   -2.7591   23.2832 H   0  0  0  0  0  0
  -22.4205  -11.9912   22.4783 H   0  0  0  0  0  0
  -21.1105  -13.1158   22.2564 H   0  0  0  0  0  0
  -24.6624  -15.8432   20.5339 H   0  0  0  0  0  0
  -26.2821  -15.6414   20.0988 H   0  0  0  0  0  0
  -26.7125  -32.5481   23.1128 H   0  0  0  0  0  0
  -25.0025  -33.9767   25.0445 H   0  0  0  0  0  0
  -22.7032  -31.3144   21.4116 H   0  0  0  0  0  0
  -23.3769  -35.9601   23.3309 H   0  0  0  0  0  0
  -24.3576  -36.8895   22.2065 H   0  0  0  0  0  0
  -23.7205  -37.6479   23.6653 H   0  0  0  0  0  0
  -26.0615  -31.5874   20.6082 H   0  0  0  0  0  0
  -26.8247  -30.8619   21.9908 H   0  0  0  0  0  0
  -28.0933  -29.0435   21.1813 H   0  0  0  0  0  0
  -25.9782  -25.9255   19.0530 H   0  0  0  0  0  0
  -23.9648  -27.3019   19.0289 H   0  0  0  0  0  0
  -23.7110  -30.5974   19.4014 H   0  0  0  0  0  0
  -22.7352  -29.2384   19.8734 H   0  0  0  0  0  0
  -25.1298  -36.1974   25.0831 H   0  0  0  0  0  0
  -21.0032  -28.3237   24.1411 H   0  0  0  0  0  0
  -20.5622  -26.2319   23.3609 H   0  0  0  0  0  0
  -21.6632  -26.7419   22.1231 H   0  0  0  0  0  0
  -19.6876  -25.6301   21.1248 H   0  0  0  0  0  0
  -19.6664  -27.3198   20.6734 H   0  0  0  0  0  0
  -17.4213  -26.6776   21.4011 H   0  0  0  0  0  0
  -18.0300  -26.0046   22.8974 H   0  0  0  0  0  0
  -19.7930  -30.7257   24.2337 H   0  0  0  0  0  0
  -17.5003  -31.6273   24.5158 H   0  0  0  0  0  0
  -15.5345  -30.2969   23.7603 H   0  0  0  0  0  0
  -15.8717  -28.0756   22.7093 H   0  0  0  0  0  0
  -24.5877  -30.7080   25.7724 H   0  0  0  0  0  0
  -24.8881  -32.2856   26.4882 H   0  0  0  0  0  0
  -25.7980  -30.8838   27.0203 H   0  0  0  0  0  0
  -26.2843  -29.6794   24.1152 H   0  0  0  0  0  0
  -27.4061  -29.7264   25.4580 H   0  0  0  0  0  0
  -27.8690  -30.4371   23.9278 H   0  0  0  0  0  0
  -27.2733  -33.3603   26.2059 H   0  0  0  0  0  0
  -28.3816  -32.6853   25.0202 H   0  0  0  0  0  0
  -28.0813  -31.8406   26.5310 H   0  0  0  0  0  0
  -28.2624  -38.0097   24.7527 H   0  0  0  0  0  0
  -28.1090  -36.2634   24.6288 H   0  0  0  0  0  0
  -27.2334  -37.1436   25.8884 H   0  0  0  0  0  0
  -20.9320  -29.8725   21.6862 H   0  0  0  0  0  0
  -26.0202  -38.2874   24.1389 H   0  0  0  0  0  0
  -31.6980  -20.0842   21.9395 H   0  0  0  0  0  0
  -27.7616  -21.4885   20.9358 H   0  0  0  0  0  0
  -33.5318  -21.6022   21.9627 H   0  0  0  0  0  0
  -32.9837  -22.5399   23.3492 H   0  0  0  0  0  0
  -33.3628  -23.3328   21.8102 H   0  0  0  0  0  0
  -31.6373  -24.8008   22.8342 H   0  0  0  0  0  0
  -30.2551  -25.4719   22.0416 H   0  0  0  0  0  0
  -31.6784  -25.1146   21.0938 H   0  0  0  0  0  0
  -28.1416  -19.1005   21.1729 H   0  0  0  0  0  0
  -29.1432  -18.9151   22.5666 H   0  0  0  0  0  0
  -28.1347  -24.7695   22.0265 H   0  0  0  0  0  0
  -27.1919  -23.7871   20.9857 H   0  0  0  0  0  0
  -30.9045  -18.4868   20.3305 H   0  0  0  0  0  0
  -29.4376  -17.6894   19.8932 H   0  0  0  0  0  0
  -30.1085  -16.9340   22.6498 H   0  0  0  0  0  0
  -31.5465  -16.7955   21.7004 H   0  0  0  0  0  0
  -27.8048  -24.9023   19.0359 H   0  0  0  0  0  0
  -29.4368  -25.0133   19.5187 H   0  0  0  0  0  0
  -29.0450  -15.2197   21.4778 H   0  0  0  0  0  0
  1 25  1  0  0  0
  1 30  2  0  0  0
  1 84  1  0  0  0
  2  3  1  0  0  0
  2 25  1  0  0  0
  2 85  1  0  0  0
  2 86  1  0  0  0
  3  4  1  0  0  0
  3 87  1  0  0  0
  3 88  1  0  0  0
  4  5  1  0  0  0
  4 89  1  0  0  0
  4 90  1  0  0  0
  5  6  1  0  0  0
  5 26  1  0  0  0
  5 91  1  0  0  0
  6 25  1  0  0  0
  6 92  1  0  0  0
  6 93  1  0  0  0
  7  8  2  0  0  0
  7 26  1  0  0  0
  7 29  1  0  0  0
  8  9  1  0  0  0
  8 22  1  0  0  0
  9 10  1  0  0  0
  9 27  2  0  0  0
 10 11  2  0  0  0
 10 15  1  0  0  0
 11 12  1  0  0  0
 11 94  1  0  0  0
 12 13  2  0  0  0
 12 95  1  0  0  0
 13 14  1  0  0  0
 13 31  1  0  0  0
 14 15  2  0  0  0
 14 96  1  0  0  0
 15 97  1  0  0  0
 16 17  2  0  0  0
 16 21  1  0  0  0
 16 31  1  0  0  0
 17 18  1  0  0  0
 17 98  1  0  0  0
 18 19  2  0  0  0
 18 99  1  0  0  0
 19 20  1  0  0  0
 19 24  1  0  0  0
 20 21  2  0  0  0
 20100  1  0  0  0
 21 23  1  0  0  0
 22 28  1  0  0  0
 22 32  2  0  0  0
 26 27  1  0  0  0
 28101  1  0  0  0
 28102  1  0  0  0
 29103  1  0  0  0
 29104  1  0  0  0
 33 34  1  0  0  0
 33 66  1  0  0  0
 33 70  2  0  0  0
 34 36  1  0  0  0
 34 59  1  0  0  0
 34105  1  0  0  0
 35 44  2  0  0  0
 35 45  1  0  0  0
 35 68  1  0  0  0
 36 56  1  0  0  0
 36106  1  0  0  0
 37 39  1  0  0  0
 37 47  1  0  0  0
 37 66  1  0  0  0
 37107  1  0  0  0
 38 43  2  0  0  0
 38 46  1  0  0  0
 38 47  1  0  0  0
 39 64  1  0  0  0
 39 67  2  0  0  0
 40 52  1  0  0  0
 40 53  2  0  0  0
 40 58  1  0  0  0
 41108  1  0  0  0
 41109  1  0  0  0
 41110  1  0  0  0
 41 48  1  0  0  0
 42 43  1  0  0  0
 42 66  1  0  0  0
 42111  1  0  0  0
 42112  1  0  0  0
 43 44  1  0  0  0
 44113  1  0  0  0
 45 46  2  0  0  0
 45114  1  0  0  0
 46115  1  0  0  0
 47116  1  0  0  0
 47117  1  0  0  0
 48 56  1  0  0  0
 48 65  1  0  0  0
 48118  1  0  0  0
 49 50  1  0  0  0
 49 53  1  0  0  0
 49 64  1  0  0  0
 49119  1  0  0  0
 50 51  1  0  0  0
 50120  1  0  0  0
 50121  1  0  0  0
 51 52  1  0  0  0
 51122  1  0  0  0
 51123  1  0  0  0
 52124  1  0  0  0
 52125  1  0  0  0
 53 54  1  0  0  0
 54 55  2  0  0  0
 54126  1  0  0  0
 55 57  1  0  0  0
 55127  1  0  0  0
 56 69  2  0  0  0
 57 58  2  0  0  0
 57128  1  0  0  0
 58129  1  0  0  0
 59 60  1  0  0  0
 59 61  1  0  0  0
 59 62  1  0  0  0
 60130  1  0  0  0
 60131  1  0  0  0
 60132  1  0  0  0
 61133  1  0  0  0
 61134  1  0  0  0
 61135  1  0  0  0
 62136  1  0  0  0
 62137  1  0  0  0
 62138  1  0  0  0
 63 65  1  0  0  0
 63139  1  0  0  0
 63140  1  0  0  0
 63141  1  0  0  0
 64142  1  0  0  0
 65143  1  0  0  0
 68 83  1  0  0  0
 71 73  2  0  0  0
 71 74  1  0  0  0
 71144  1  0  0  0
 72 73  1  0  0  0
 72 75  2  0  0  0
 72145  1  0  0  0
 73 79  1  0  0  0
 74 76  2  0  0  0
 74 77  1  0  0  0
 75 76  1  0  0  0
 75 80  1  0  0  0
 76 78  1  0  0  0
 77146  1  0  0  0
 77147  1  0  0  0
 77148  1  0  0  0
 78149  1  0  0  0
 78150  1  0  0  0
 78151  1  0  0  0
 79 81  1  0  0  0
 79152  1  0  0  0
 79153  1  0  0  0
 80 83  1  0  0  0
 80154  1  0  0  0
 80155  1  0  0  0
 81 82  1  0  0  0
 81156  1  0  0  0
 81157  1  0  0  0
 82 84  1  0  0  0
 82158  1  0  0  0
 82159  1  0  0  0
 83160  1  0  0  0
 83161  1  0  0  0
 84162  1  0  0  0
M  ISO  4   1 100  68 101  83 101  84 100
M  END
> <chiral flag>
0

> <version>
0

> <s_m_source_file>
/data/baiqing/PycharmProjects/Reinvent-master-3.2/result/LINK_invent/BTK/process_docking_weight1_custom_sum_contain_oxygen_bond_distance_aromatic_linkinvent_7_9_3/rearranged_h_0035.sdf

> <i_m_source_file_index>
8

> <r_mmod_Potential_Energy-OPLS-2005>
-13.7605504989624

> <r_mmod_Stretch_Energy-OPLS-2005>
53.6920318603516

> <r_mmod_Bend_Energy-OPLS-2005>
120.819862365723

> <r_mmod_Torsional_Energy-OPLS-2005>
230.266342163086

> <r_mmod_Improper_Torsional_Energy-OPLS-2005>
3.54314422607422

> <r_mmod_Van_der_Waal_Energy-OPLS-2005>
152.232284545898

> <r_mmod_Electrostatic_Energy-OPLS-2005>
-388.982940673828

> <r_mmod_Solvation_Energy-OPLS-2005>
-206.242431640625

> <b_mmod_Minimization_Converged-OPLS-2005>
0

> <r_mmod_RMS_Derivative-OPLS-2005>
5.32398986816406

$$$$
8
                    3D
 Structure written by MMmdl.
156164  0  0  1  0            999 V2000
  -30.6664  -14.7624   20.4416 C   0  0  0  0  0  0
  -30.4021  -12.4743   19.4669 C   0  0  0  0  0  0
  -29.4844  -12.4868   18.2290 C   0  0  0  0  0  0
  -28.0184  -12.3089   18.6609 C   0  0  0  0  0  0
  -27.6250  -13.2415   19.8376 C   0  0  2  0  0  0
  -28.6767  -13.2444   20.9658 C   0  0  0  0  0  0
  -25.2448  -13.8229   20.5752 C   0  0  0  0  0  0
  -24.1758  -13.0473   20.9258 C   0  0  0  0  0  0
  -24.6360  -11.6944   20.8790 C   0  0  0  0  0  0
  -23.9055  -10.4314   21.0425 C   0  0  0  0  0  0
  -24.3615   -9.4221   21.9190 C   0  0  0  0  0  0
  -23.6302   -8.2248   22.0747 C   0  0  0  0  0  0
  -22.4284   -8.0285   21.3541 C   0  0  0  0  0  0
  -21.9922   -9.0258   20.4641 C   0  0  0  0  0  0
  -22.7238  -10.2147   20.3059 C   0  0  0  0  0  0
  -21.6860   -6.0747   22.5281 C   0  0  0  0  0  0
  -21.4020   -6.5646   23.8217 C   0  0  0  0  0  0
  -21.3654   -5.6792   24.9171 C   0  0  0  0  0  0
  -21.6043   -4.3057   24.7221 C   0  0  0  0  0  0
  -21.8820   -3.8155   23.4340 C   0  0  0  0  0  0
  -21.9195   -4.6974   22.3396 C   0  0  0  0  0  0
  -22.7774  -13.5235   21.1912 C   0  0  0  0  0  0
  -22.1663   -4.2162   21.0970 F   0  0  0  0  0  0
  -21.5621   -3.4535   25.7729 F   0  0  0  0  0  0
  -29.9551  -13.5862   20.3409 N   0  0  0  0  0  0
  -26.2859  -12.9457   20.3304 N   0  0  0  0  0  0
  -25.9291  -11.6594   20.5815 N   0  0  0  0  0  0
  -22.0440  -12.8192   22.0450 N   0  0  0  0  0  0
  -25.4184  -15.1952   20.4135 N   0  0  0  0  0  0
  -31.8803  -14.7259   20.2495 O   0  0  0  0  0  0
  -21.6643   -6.8889   21.4246 O   0  0  0  0  0  0
  -22.3442  -14.5538   20.6754 O   0  0  0  0  0  0
  -24.6323  -31.8509   23.1973 C   0  0  0  0  0  0
  -25.9124  -32.4737   23.8338 C   0  0  1  0  0  0
  -27.2162  -27.2437   20.1451 C   0  0  0  0  0  0
  -25.5896  -33.8539   24.2255 N   0  0  0  0  0  0
  -23.4305  -30.4718   21.5390 C   0  0  2  0  0  0
  -24.8774  -28.9067   20.1178 C   0  0  0  0  0  0
  -22.7499  -29.4579   22.4912 C   0  0  0  0  0  0
  -18.0283  -28.1394   22.8472 C   0  0  0  0  0  0
  -24.1484  -36.7305   23.2641 C   0  0  0  0  0  0
  -25.9753  -30.7627   21.3737 C   0  0  0  0  0  0
  -26.0487  -29.3777   20.7265 C   0  0  0  0  0  0
  -27.2267  -28.5620   20.7169 C   0  0  0  0  0  0
  -26.0236  -26.8321   19.5225 C   0  0  0  0  0  0
  -24.8703  -27.6441   19.5005 C   0  0  0  0  0  0
  -23.6497  -29.7978   20.1581 C   0  0  0  0  0  0
  -25.4102  -36.3060   24.0329 C   0  0  1  0  0  0
  -20.5879  -28.3707   23.1265 C   0  0  2  0  0  0
  -20.6759  -26.9423   22.5406 C   0  0  0  0  0  0
  -19.5747  -26.6394   21.5193 C   0  0  0  0  0  0
  -18.1927  -26.7938   22.1609 C   0  0  0  0  0  0
  -19.1534  -28.8870   23.2863 C   0  0  0  0  0  0
  -18.9449  -30.1460   23.8898 C   0  0  0  0  0  0
  -17.6444  -30.6586   24.0564 C   0  0  0  0  0  0
  -25.9038  -34.9425   23.5108 C   0  0  0  0  0  0
  -16.5339  -29.9084   23.6317 C   0  0  0  0  0  0
  -16.7268  -28.6502   23.0345 C   0  0  0  0  0  0
  -26.4491  -31.6569   25.0739 C   0  0  0  0  0  0
  -25.3744  -31.3678   26.1489 C   0  0  0  0  0  0
  -27.0329  -30.2992   24.6199 C   0  0  0  0  0  0
  -27.6052  -32.4309   25.7511 C   0  0  0  0  0  0
  -27.5573  -37.1804   24.8457 C   0  0  0  0  0  0
  -21.4201  -29.3046   22.3657 N   0  0  0  0  0  0
  -26.4280  -37.3753   23.9413 N   0  0  0  0  0  0
  -24.6988  -31.0472   22.0937 N   0  0  0  0  0  0
  -23.4188  -28.8116   23.3019 O   0  0  0  0  0  0
  -28.3303  -26.3835   20.0672 O   0  0  0  0  0  0
  -26.5620  -34.8900   22.4680 O   0  0  0  0  0  0
  -23.5467  -32.1315   23.7269 O   0  0  0  0  0  0
  -30.2850  -21.3169   21.3513 C   0  0  0  0  0  0
  -30.9893  -20.2444   21.9350 C   0  0  0  0  0  0
  -28.8495  -19.6893   20.2574 C   0  0  0  0  0  0
  -29.1980  -21.0914   20.4888 C   0  0  0  0  0  0
  -30.6448  -18.8923   21.6996 C   0  0  0  0  0  0
  -29.5555  -18.5537   20.8522 C   0  0  0  0  0  0
  -31.4656  -17.8250   22.4062 C   0  0  0  0  0  0
  -28.6141  -22.3660   19.7179 C   0  0  0  0  0  0
  -29.1339  -17.0074   20.6945 C   0  0  0  0  0  0
  -27.8134  -23.6140   20.3907 C   0  0  0  0  0  0
  -28.4169  -25.0700   20.7980 C   0  0  0  0  0  0
  -30.0975  -15.9868   20.1127 N   0  0  0  0  0  0
  -31.4443  -12.5645   19.1585 H   0  0  0  0  0  0
  -30.3288  -11.5205   19.9919 H   0  0  0  0  0  0
  -29.7669  -11.6938   17.5360 H   0  0  0  0  0  0
  -29.5958  -13.4282   17.6907 H   0  0  0  0  0  0
  -27.8941  -11.2679   18.9604 H   0  0  0  0  0  0
  -27.3473  -12.4592   17.8148 H   0  0  0  0  0  0
  -27.6034  -14.2481   19.4207 H   0  0  0  0  0  0
  -28.7301  -12.2717   21.4567 H   0  0  0  0  0  0
  -28.4190  -13.9728   21.7357 H   0  0  0  0  0  0
  -25.2761   -9.5695   22.4771 H   0  0  0  0  0  0
  -24.0019   -7.4629   22.7446 H   0  0  0  0  0  0
  -21.0868   -8.8774   19.8930 H   0  0  0  0  0  0
  -22.3705  -10.9686   19.6164 H   0  0  0  0  0  0
  -21.2024   -7.6158   23.9730 H   0  0  0  0  0  0
  -21.1468   -6.0516   25.9075 H   0  0  0  0  0  0
  -22.0607   -2.7624   23.2830 H   0  0  0  0  0  0
  -22.4084  -11.9833   22.4779 H   0  0  0  0  0  0
  -21.1056  -13.1173   22.2705 H   0  0  0  0  0  0
  -24.6612  -15.8601   20.5257 H   0  0  0  0  0  0
  -26.2728  -15.6205   20.0789 H   0  0  0  0  0  0
  -26.7209  -32.5393   23.1099 H   0  0  0  0  0  0
  -25.0015  -33.9659   25.0384 H   0  0  0  0  0  0
  -22.7293  -31.2952   21.3892 H   0  0  0  0  0  0
  -23.3720  -35.9659   23.3281 H   0  0  0  0  0  0
  -24.3578  -36.8951   22.2057 H   0  0  0  0  0  0
  -23.7268  -37.6513   23.6690 H   0  0  0  0  0  0
  -26.1062  -31.5145   20.5941 H   0  0  0  0  0  0
  -26.8565  -30.8227   22.0017 H   0  0  0  0  0  0
  -28.1408  -28.9258   21.1648 H   0  0  0  0  0  0
  -25.9862  -25.8657   19.0420 H   0  0  0  0  0  0
  -23.9776  -27.2821   19.0090 H   0  0  0  0  0  0
  -23.7772  -30.5696   19.3984 H   0  0  0  0  0  0
  -22.7670  -29.2302   19.8565 H   0  0  0  0  0  0
  -25.1285  -36.1897   25.0820 H   0  0  0  0  0  0
  -20.9974  -28.3285   24.1382 H   0  0  0  0  0  0
  -20.5612  -26.2324   23.3610 H   0  0  0  0  0  0
  -21.6636  -26.7420   22.1231 H   0  0  0  0  0  0
  -19.6905  -25.6302   21.1227 H   0  0  0  0  0  0
  -19.6686  -27.3199   20.6718 H   0  0  0  0  0  0
  -17.4187  -26.6664   21.4025 H   0  0  0  0  0  0
  -18.0354  -26.0088   22.9020 H   0  0  0  0  0  0
  -19.7918  -30.7270   24.2294 H   0  0  0  0  0  0
  -17.4990  -31.6266   24.5168 H   0  0  0  0  0  0
  -15.5339  -30.2982   23.7644 H   0  0  0  0  0  0
  -15.8666  -28.0815   22.7073 H   0  0  0  0  0  0
  -24.5951  -30.6980   25.7842 H   0  0  0  0  0  0
  -24.8897  -32.2810   26.4945 H   0  0  0  0  0  0
  -25.8101  -30.8871   27.0259 H   0  0  0  0  0  0
  -26.2899  -29.6755   24.1219 H   0  0  0  0  0  0
  -27.4010  -29.7240   25.4704 H   0  0  0  0  0  0
  -27.8778  -30.4273   23.9432 H   0  0  0  0  0  0
  -27.2672  -33.3621   26.2069 H   0  0  0  0  0  0
  -28.3867  -32.6837   25.0336 H   0  0  0  0  0  0
  -28.0719  -31.8450   26.5438 H   0  0  0  0  0  0
  -28.2571  -38.0114   24.7486 H   0  0  0  0  0  0
  -28.1082  -36.2640   24.6290 H   0  0  0  0  0  0
  -27.2298  -37.1466   25.8861 H   0  0  0  0  0  0
  -20.9402  -29.8781   21.6863 H   0  0  0  0  0  0
  -26.0150  -38.2826   24.1401 H   0  0  0  0  0  0
  -30.6155  -22.3296   21.5385 H   0  0  0  0  0  0
  -31.8259  -20.4781   22.5809 H   0  0  0  0  0  0
  -28.0250  -19.4709   19.5916 H   0  0  0  0  0  0
  -32.0854  -18.2661   23.1892 H   0  0  0  0  0  0
  -32.1302  -17.3233   21.7034 H   0  0  0  0  0  0
  -30.8297  -17.0782   22.8814 H   0  0  0  0  0  0
  -27.9330  -21.9394   18.9814 H   0  0  0  0  0  0
  -29.4214  -22.7755   19.1113 H   0  0  0  0  0  0
  -28.2387  -16.9786   20.0735 H   0  0  0  0  0  0
  -28.8115  -16.6483   21.6722 H   0  0  0  0  0  0
  -27.3240  -23.2032   21.2748 H   0  0  0  0  0  0
  -26.9807  -23.8348   19.7240 H   0  0  0  0  0  0
  -29.4806  -24.9152   20.9809 H   0  0  0  0  0  0
  -28.0169  -25.2875   21.7889 H   0  0  0  0  0  0
  -30.8045  -16.5018   19.6096 H   0  0  0  0  0  0
  1 25  1  0  0  0
  1 30  2  0  0  0
  1 82  1  0  0  0
  2  3  1  0  0  0
  2 25  1  0  0  0
  2 83  1  0  0  0
  2 84  1  0  0  0
  3  4  1  0  0  0
  3 85  1  0  0  0
  3 86  1  0  0  0
  4  5  1  0  0  0
  4 87  1  0  0  0
  4 88  1  0  0  0
  5  6  1  0  0  0
  5 26  1  0  0  0
  5 89  1  0  0  0
  6 25  1  0  0  0
  6 90  1  0  0  0
  6 91  1  0  0  0
  7  8  2  0  0  0
  7 26  1  0  0  0
  7 29  1  0  0  0
  8  9  1  0  0  0
  8 22  1  0  0  0
  9 10  1  0  0  0
  9 27  2  0  0  0
 10 11  2  0  0  0
 10 15  1  0  0  0
 11 12  1  0  0  0
 11 92  1  0  0  0
 12 13  2  0  0  0
 12 93  1  0  0  0
 13 14  1  0  0  0
 13 31  1  0  0  0
 14 15  2  0  0  0
 14 94  1  0  0  0
 15 95  1  0  0  0
 16 17  2  0  0  0
 16 21  1  0  0  0
 16 31  1  0  0  0
 17 18  1  0  0  0
 17 96  1  0  0  0
 18 19  2  0  0  0
 18 97  1  0  0  0
 19 20  1  0  0  0
 19 24  1  0  0  0
 20 21  2  0  0  0
 20 98  1  0  0  0
 21 23  1  0  0  0
 22 28  1  0  0  0
 22 32  2  0  0  0
 26 27  1  0  0  0
 28 99  1  0  0  0
 28100  1  0  0  0
 29101  1  0  0  0
 29102  1  0  0  0
 33 34  1  0  0  0
 33 66  1  0  0  0
 33 70  2  0  0  0
 34 36  1  0  0  0
 34 59  1  0  0  0
 34103  1  0  0  0
 35 44  2  0  0  0
 35 45  1  0  0  0
 35 68  1  0  0  0
 36 56  1  0  0  0
 36104  1  0  0  0
 37 39  1  0  0  0
 37 47  1  0  0  0
 37 66  1  0  0  0
 37105  1  0  0  0
 38 43  2  0  0  0
 38 46  1  0  0  0
 38 47  1  0  0  0
 39 64  1  0  0  0
 39 67  2  0  0  0
 40 52  1  0  0  0
 40 53  2  0  0  0
 40 58  1  0  0  0
 41106  1  0  0  0
 41107  1  0  0  0
 41108  1  0  0  0
 41 48  1  0  0  0
 42 43  1  0  0  0
 42 66  1  0  0  0
 42109  1  0  0  0
 42110  1  0  0  0
 43 44  1  0  0  0
 44111  1  0  0  0
 45 46  2  0  0  0
 45112  1  0  0  0
 46113  1  0  0  0
 47114  1  0  0  0
 47115  1  0  0  0
 48 56  1  0  0  0
 48 65  1  0  0  0
 48116  1  0  0  0
 49 50  1  0  0  0
 49 53  1  0  0  0
 49 64  1  0  0  0
 49117  1  0  0  0
 50 51  1  0  0  0
 50118  1  0  0  0
 50119  1  0  0  0
 51 52  1  0  0  0
 51120  1  0  0  0
 51121  1  0  0  0
 52122  1  0  0  0
 52123  1  0  0  0
 53 54  1  0  0  0
 54 55  2  0  0  0
 54124  1  0  0  0
 55 57  1  0  0  0
 55125  1  0  0  0
 56 69  2  0  0  0
 57 58  2  0  0  0
 57126  1  0  0  0
 58127  1  0  0  0
 59 60  1  0  0  0
 59 61  1  0  0  0
 59 62  1  0  0  0
 60128  1  0  0  0
 60129  1  0  0  0
 60130  1  0  0  0
 61131  1  0  0  0
 61132  1  0  0  0
 61133  1  0  0  0
 62134  1  0  0  0
 62135  1  0  0  0
 62136  1  0  0  0
 63 65  1  0  0  0
 63137  1  0  0  0
 63138  1  0  0  0
 63139  1  0  0  0
 64140  1  0  0  0
 65141  1  0  0  0
 68 81  1  0  0  0
 71 72  2  0  0  0
 71 74  1  0  0  0
 71142  1  0  0  0
 72 75  1  0  0  0
 72143  1  0  0  0
 73 74  2  0  0  0
 73 76  1  0  0  0
 73144  1  0  0  0
 74 78  1  0  0  0
 75 76  2  0  0  0
 75 77  1  0  0  0
 76 79  1  0  0  0
 77145  1  0  0  0
 77146  1  0  0  0
 77147  1  0  0  0
 78 80  1  0  0  0
 78148  1  0  0  0
 78149  1  0  0  0
 79 82  1  0  0  0
 79150  1  0  0  0
 79151  1  0  0  0
 80 81  1  0  0  0
 80152  1  0  0  0
 80153  1  0  0  0
 81154  1  0  0  0
 81155  1  0  0  0
 82156  1  0  0  0
M  ISO  4   1 100  68 101  81 101  82 100
M  END
> <chiral flag>
0

> <version>
0

> <s_m_source_file>
/data/baiqing/PycharmProjects/Reinvent-master-3.2/result/LINK_invent/BTK/process_docking_weight1_custom_sum_contain_oxygen_bond_distance_aromatic_linkinvent_7_9_3/rearranged_h_0035.sdf

> <i_m_source_file_index>
9

> <r_mmod_Potential_Energy-OPLS-2005>
306.078796386719

> <r_mmod_Stretch_Energy-OPLS-2005>
130.996109008789

> <r_mmod_Bend_Energy-OPLS-2005>
253.633193969727

> <r_mmod_Torsional_Energy-OPLS-2005>
295.576629638672

> <r_mmod_Improper_Torsional_Energy-OPLS-2005>
27.3879241943359

> <r_mmod_Van_der_Waal_Energy-OPLS-2005>
122.298042297363

> <r_mmod_Electrostatic_Energy-OPLS-2005>
-423.401123046875

> <r_mmod_Solvation_Energy-OPLS-2005>
-198.597366333008

> <b_mmod_Minimization_Converged-OPLS-2005>
0

> <r_mmod_RMS_Derivative-OPLS-2005>
2.32137417793274

$$$$
9
                    3D
 Structure written by MMmdl.
170178  0  0  1  0            999 V2000
  -30.7833  -14.3307   20.7465 C   0  0  0  0  0  0
  -30.4214  -12.2904   19.3981 C   0  0  0  0  0  0
  -29.4938  -12.5329   18.1927 C   0  0  0  0  0  0
  -28.0147  -12.3860   18.5966 C   0  0  0  0  0  0
  -27.6684  -13.2010   19.8693 C   0  0  2  0  0  0
  -28.6982  -12.9277   20.9827 C   0  0  0  0  0  0
  -25.2622  -13.8152   20.5655 C   0  0  0  0  0  0
  -24.1862  -13.0448   20.9155 C   0  0  0  0  0  0
  -24.6405  -11.6904   20.8705 C   0  0  0  0  0  0
  -23.9069  -10.4306   21.0375 C   0  0  0  0  0  0
  -24.3614   -9.4229   21.9164 C   0  0  0  0  0  0
  -23.6297   -8.2260   22.0761 C   0  0  0  0  0  0
  -22.4274   -8.0301   21.3557 C   0  0  0  0  0  0
  -21.9908   -9.0264   20.4640 C   0  0  0  0  0  0
  -22.7240  -10.2143   20.3034 C   0  0  0  0  0  0
  -21.6868   -6.0755   22.5297 C   0  0  0  0  0  0
  -21.4023   -6.5653   23.8234 C   0  0  0  0  0  0
  -21.3660   -5.6793   24.9185 C   0  0  0  0  0  0
  -21.6038   -4.3059   24.7231 C   0  0  0  0  0  0
  -21.8833   -3.8165   23.4350 C   0  0  0  0  0  0
  -21.9194   -4.6982   22.3406 C   0  0  0  0  0  0
  -22.7883  -13.5249   21.1848 C   0  0  0  0  0  0
  -22.1657   -4.2165   21.0983 F   0  0  0  0  0  0
  -21.5616   -3.4536   25.7743 F   0  0  0  0  0  0
  -30.0516  -13.2157   20.4788 N   0  0  0  0  0  0
  -26.3053  -12.9311   20.3293 N   0  0  0  0  0  0
  -25.9318  -11.6476   20.5685 N   0  0  0  0  0  0
  -22.0491  -12.8237   22.0375 N   0  0  0  0  0  0
  -25.4357  -15.1874   20.4108 N   0  0  0  0  0  0
  -31.7312  -14.6984   20.0470 O   0  0  0  0  0  0
  -21.6640   -6.8899   21.4260 O   0  0  0  0  0  0
  -22.3570  -14.5566   20.6707 O   0  0  0  0  0  0
  -24.6094  -31.8711   23.2129 C   0  0  0  0  0  0
  -25.9007  -32.4847   23.8407 C   0  0  1  0  0  0
  -27.2354  -27.4867   20.0801 C   0  0  0  0  0  0
  -25.5885  -33.8637   24.2356 N   0  0  0  0  0  0
  -23.3956  -30.4932   21.5533 C   0  0  2  0  0  0
  -24.8432  -28.9636   20.1152 C   0  0  0  0  0  0
  -22.7385  -29.4668   22.5021 C   0  0  0  0  0  0
  -18.0261  -28.1379   22.8489 C   0  0  0  0  0  0
  -24.1487  -36.7310   23.2637 C   0  0  0  0  0  0
  -25.9167  -30.8542   21.3542 C   0  0  0  0  0  0
  -26.0002  -29.4905   20.7042 C   0  0  0  0  0  0
  -27.2026  -28.7544   20.6910 C   0  0  0  0  0  0
  -26.0705  -26.9604   19.4880 C   0  0  0  0  0  0
  -24.8690  -27.6953   19.5079 C   0  0  0  0  0  0
  -23.6010  -29.8235   20.1685 C   0  0  0  0  0  0
  -25.4111  -36.3119   24.0340 C   0  0  1  0  0  0
  -20.5846  -28.3654   23.1341 C   0  0  2  0  0  0
  -20.6762  -26.9403   22.5426 C   0  0  0  0  0  0
  -19.5749  -26.6396   21.5216 C   0  0  0  0  0  0
  -18.1913  -26.7935   22.1618 C   0  0  0  0  0  0
  -19.1508  -28.8839   23.2909 C   0  0  0  0  0  0
  -18.9446  -30.1441   23.8923 C   0  0  0  0  0  0
  -17.6452  -30.6587   24.0573 C   0  0  0  0  0  0
  -25.9039  -34.9484   23.5151 C   0  0  0  0  0  0
  -16.5342  -29.9092   23.6327 C   0  0  0  0  0  0
  -16.7255  -28.6511   23.0346 C   0  0  0  0  0  0
  -26.4455  -31.6605   25.0705 C   0  0  0  0  0  0
  -25.3731  -31.3651   26.1454 C   0  0  0  0  0  0
  -27.0307  -30.3084   24.6014 C   0  0  0  0  0  0
  -27.6059  -32.4294   25.7460 C   0  0  0  0  0  0
  -27.5589  -37.1803   24.8466 C   0  0  0  0  0  0
  -21.4118  -29.3021   22.3751 N   0  0  0  0  0  0
  -26.4303  -37.3803   23.9409 N   0  0  0  0  0  0
  -24.6591  -31.0853   22.1006 N   0  0  0  0  0  0
  -23.4183  -28.8207   23.3045 O   0  0  0  0  0  0
  -28.3916  -26.7571   20.0765 O   0  0  0  0  0  0
  -26.5592  -34.8921   22.4711 O   0  0  0  0  0  0
  -23.5298  -32.1446   23.7558 O   0  0  0  0  0  0
  -27.8225  -23.4335   22.8890 C   0  0  0  0  0  0
  -27.9166  -22.4091   23.8468 C   0  0  0  0  0  0
  -29.1430  -22.0967   21.3402 C   0  0  0  0  0  0
  -28.4601  -23.2958   21.6363 C   0  0  0  0  0  0
  -28.6423  -21.2318   23.5718 C   0  0  0  0  0  0
  -29.2515  -21.0689   22.3012 C   0  0  0  0  0  0
  -28.4048  -24.3766   20.6155 C   0  0  0  0  0  0
  -30.0381  -19.8173   21.9440 C   0  0  0  0  0  0
  -28.7537  -20.1827   24.6690 C   0  0  0  0  0  0
  -28.4318  -25.8159   21.1476 C   0  0  0  0  0  0
  -29.1577  -16.4538   24.3209 C   0  0  0  0  0  0
  -29.3269  -14.9428   24.0845 C   0  0  0  0  0  0
  -27.8270  -16.7506   25.0431 C   0  0  0  0  0  0
  -30.5195  -14.5288   23.1953 C   0  0  0  0  0  0
  -27.6993  -18.1660   25.6357 C   0  0  0  0  0  0
  -30.4304  -15.0479   21.8267 N   0  0  0  0  0  0
  -27.6440  -19.2163   24.6002 N   0  3  0  0  0  0
  -28.4125  -24.1539   19.3983 O   0  0  0  0  0  0
  -31.4655  -12.4029   19.0999 H   0  0  0  0  0  0
  -30.3238  -11.2603   19.7496 H   0  0  0  0  0  0
  -29.7332  -11.8350   17.3908 H   0  0  0  0  0  0
  -29.6652  -13.5314   17.7878 H   0  0  0  0  0  0
  -27.8144  -11.3272   18.7665 H   0  0  0  0  0  0
  -27.3695  -12.6875   17.7703 H   0  0  0  0  0  0
  -27.7338  -14.2590   19.6102 H   0  0  0  0  0  0
  -28.6512  -11.8864   21.3059 H   0  0  0  0  0  0
  -28.4210  -13.5157   21.8478 H   0  0  0  0  0  0
  -25.2766   -9.5717   22.4727 H   0  0  0  0  0  0
  -24.0032   -7.4657   22.7486 H   0  0  0  0  0  0
  -21.0848   -8.8782   19.8922 H   0  0  0  0  0  0
  -22.3710  -10.9677   19.6137 H   0  0  0  0  0  0
  -21.2023   -7.6159   23.9748 H   0  0  0  0  0  0
  -21.1450   -6.0503   25.9088 H   0  0  0  0  0  0
  -22.0599   -2.7623   23.2830 H   0  0  0  0  0  0
  -22.4061  -11.9875   22.4754 H   0  0  0  0  0  0
  -21.1087  -13.1250   22.2535 H   0  0  0  0  0  0
  -24.6701  -15.8435   20.5241 H   0  0  0  0  0  0
  -26.2973  -15.6263   20.1119 H   0  0  0  0  0  0
  -26.7085  -32.5589   23.1183 H   0  0  0  0  0  0
  -25.0054  -33.9810   25.0515 H   0  0  0  0  0  0
  -22.6827  -31.3085   21.4158 H   0  0  0  0  0  0
  -23.3756  -35.9642   23.3314 H   0  0  0  0  0  0
  -24.3575  -36.8916   22.2049 H   0  0  0  0  0  0
  -23.7238  -37.6517   23.6650 H   0  0  0  0  0  0
  -26.0125  -31.6213   20.5837 H   0  0  0  0  0  0
  -26.8096  -30.9179   21.9638 H   0  0  0  0  0  0
  -28.0982  -29.1531   21.1478 H   0  0  0  0  0  0
  -26.0949  -25.9909   19.0108 H   0  0  0  0  0  0
  -23.9779  -27.2852   19.0518 H   0  0  0  0  0  0
  -23.7007  -30.5989   19.4070 H   0  0  0  0  0  0
  -22.7267  -29.2383   19.8786 H   0  0  0  0  0  0
  -25.1281  -36.1996   25.0833 H   0  0  0  0  0  0
  -20.9931  -28.3223   24.1471 H   0  0  0  0  0  0
  -20.5702  -26.2248   23.3592 H   0  0  0  0  0  0
  -21.6622  -26.7493   22.1194 H   0  0  0  0  0  0
  -19.6927  -25.6317   21.1217 H   0  0  0  0  0  0
  -19.6699  -27.3231   20.6763 H   0  0  0  0  0  0
  -17.4193  -26.6693   21.4002 H   0  0  0  0  0  0
  -18.0305  -26.0070   22.9007 H   0  0  0  0  0  0
  -19.7926  -30.7229   24.2317 H   0  0  0  0  0  0
  -17.5018  -31.6275   24.5157 H   0  0  0  0  0  0
  -15.5344  -30.3003   23.7646 H   0  0  0  0  0  0
  -15.8652  -28.0841   22.7050 H   0  0  0  0  0  0
  -24.5956  -30.6950   25.7762 H   0  0  0  0  0  0
  -24.8835  -32.2760   26.4906 H   0  0  0  0  0  0
  -25.8073  -30.8828   27.0219 H   0  0  0  0  0  0
  -26.2848  -29.6819   24.1118 H   0  0  0  0  0  0
  -27.4196  -29.7323   25.4416 H   0  0  0  0  0  0
  -27.8602  -30.4454   23.9078 H   0  0  0  0  0  0
  -27.2762  -33.3625   26.2043 H   0  0  0  0  0  0
  -28.3873  -32.6804   25.0272 H   0  0  0  0  0  0
  -28.0730  -31.8401   26.5365 H   0  0  0  0  0  0
  -28.2588  -38.0113   24.7541 H   0  0  0  0  0  0
  -28.1091  -36.2641   24.6265 H   0  0  0  0  0  0
  -27.2286  -37.1425   25.8859 H   0  0  0  0  0  0
  -20.9279  -29.8732   21.6964 H   0  0  0  0  0  0
  -26.0191  -38.2879   24.1429 H   0  0  0  0  0  0
  -27.2545  -24.3187   23.1383 H   0  0  0  0  0  0
  -27.4356  -22.5461   24.8067 H   0  0  0  0  0  0
  -29.6160  -21.9819   20.3739 H   0  0  0  0  0  0
  -30.4828  -19.8951   20.9516 H   0  0  0  0  0  0
  -29.3895  -18.9421   21.9403 H   0  0  0  0  0  0
  -30.8562  -19.6519   22.6456 H   0  0  0  0  0  0
  -28.7389  -20.6858   25.6383 H   0  0  0  0  0  0
  -29.7110  -19.6647   24.6162 H   0  0  0  0  0  0
  -29.3486  -25.9644   21.7170 H   0  0  0  0  0  0
  -27.6012  -25.9714   21.8373 H   0  0  0  0  0  0
  -29.1828  -16.9892   23.3731 H   0  0  0  0  0  0
  -29.9975  -16.8254   24.9098 H   0  0  0  0  0  0
  -28.3955  -14.5484   23.6826 H   0  0  0  0  0  0
  -29.4456  -14.4557   25.0540 H   0  0  0  0  0  0
  -27.7102  -16.0463   25.8677 H   0  0  0  0  0  0
  -26.9914  -16.5506   24.3693 H   0  0  0  0  0  0
  -30.6019  -13.4391   23.1869 H   0  0  0  0  0  0
  -31.4499  -14.8928   23.6351 H   0  0  0  0  0  0
  -28.5000  -18.3560   26.3532 H   0  0  0  0  0  0
  -26.7720  -18.2260   26.2054 H   0  0  0  0  0  0
  -30.7763  -15.9939   21.7654 H   0  0  0  0  0  0
  -27.6180  -18.7929   23.6889 H   0  0  0  0  0  0
  -26.7849  -19.7281   24.7160 H   0  0  0  0  0  0
  1 25  1  0  0  0
  1 30  2  0  0  0
  1 86  1  0  0  0
  2  3  1  0  0  0
  2 25  1  0  0  0
  2 89  1  0  0  0
  2 90  1  0  0  0
  3  4  1  0  0  0
  3 91  1  0  0  0
  3 92  1  0  0  0
  4  5  1  0  0  0
  4 93  1  0  0  0
  4 94  1  0  0  0
  5  6  1  0  0  0
  5 26  1  0  0  0
  5 95  1  0  0  0
  6 25  1  0  0  0
  6 96  1  0  0  0
  6 97  1  0  0  0
  7  8  2  0  0  0
  7 26  1  0  0  0
  7 29  1  0  0  0
  8  9  1  0  0  0
  8 22  1  0  0  0
  9 10  1  0  0  0
  9 27  2  0  0  0
 10 11  2  0  0  0
 10 15  1  0  0  0
 11 12  1  0  0  0
 11 98  1  0  0  0
 12 13  2  0  0  0
 12 99  1  0  0  0
 13 14  1  0  0  0
 13 31  1  0  0  0
 14 15  2  0  0  0
 14100  1  0  0  0
 15101  1  0  0  0
 16 17  2  0  0  0
 16 21  1  0  0  0
 16 31  1  0  0  0
 17 18  1  0  0  0
 17102  1  0  0  0
 18 19  2  0  0  0
 18103  1  0  0  0
 19 20  1  0  0  0
 19 24  1  0  0  0
 20 21  2  0  0  0
 20104  1  0  0  0
 21 23  1  0  0  0
 22 28  1  0  0  0
 22 32  2  0  0  0
 26 27  1  0  0  0
 28105  1  0  0  0
 28106  1  0  0  0
 29107  1  0  0  0
 29108  1  0  0  0
 33 34  1  0  0  0
 33 66  1  0  0  0
 33 70  2  0  0  0
 34 36  1  0  0  0
 34 59  1  0  0  0
 34109  1  0  0  0
 35 44  2  0  0  0
 35 45  1  0  0  0
 35 68  1  0  0  0
 36 56  1  0  0  0
 36110  1  0  0  0
 37 39  1  0  0  0
 37 47  1  0  0  0
 37 66  1  0  0  0
 37111  1  0  0  0
 38 43  2  0  0  0
 38 46  1  0  0  0
 38 47  1  0  0  0
 39 64  1  0  0  0
 39 67  2  0  0  0
 40 52  1  0  0  0
 40 53  2  0  0  0
 40 58  1  0  0  0
 41112  1  0  0  0
 41113  1  0  0  0
 41114  1  0  0  0
 41 48  1  0  0  0
 42 43  1  0  0  0
 42 66  1  0  0  0
 42115  1  0  0  0
 42116  1  0  0  0
 43 44  1  0  0  0
 44117  1  0  0  0
 45 46  2  0  0  0
 45118  1  0  0  0
 46119  1  0  0  0
 47120  1  0  0  0
 47121  1  0  0  0
 48 56  1  0  0  0
 48 65  1  0  0  0
 48122  1  0  0  0
 49 50  1  0  0  0
 49 53  1  0  0  0
 49 64  1  0  0  0
 49123  1  0  0  0
 50 51  1  0  0  0
 50124  1  0  0  0
 50125  1  0  0  0
 51 52  1  0  0  0
 51126  1  0  0  0
 51127  1  0  0  0
 52128  1  0  0  0
 52129  1  0  0  0
 53 54  1  0  0  0
 54 55  2  0  0  0
 54130  1  0  0  0
 55 57  1  0  0  0
 55131  1  0  0  0
 56 69  2  0  0  0
 57 58  2  0  0  0
 57132  1  0  0  0
 58133  1  0  0  0
 59 60  1  0  0  0
 59 61  1  0  0  0
 59 62  1  0  0  0
 60134  1  0  0  0
 60135  1  0  0  0
 60136  1  0  0  0
 61137  1  0  0  0
 61138  1  0  0  0
 61139  1  0  0  0
 62140  1  0  0  0
 62141  1  0  0  0
 62142  1  0  0  0
 63 65  1  0  0  0
 63143  1  0  0  0
 63144  1  0  0  0
 63145  1  0  0  0
 64146  1  0  0  0
 65147  1  0  0  0
 68 80  1  0  0  0
 71 72  2  0  0  0
 71 74  1  0  0  0
 71148  1  0  0  0
 72 75  1  0  0  0
 72149  1  0  0  0
 73 74  2  0  0  0
 73 76  1  0  0  0
 73150  1  0  0  0
 74 77  1  0  0  0
 75 76  2  0  0  0
 75 79  1  0  0  0
 76 78  1  0  0  0
 77 80  1  0  0  0
 77 88  2  0  0  0
 78151  1  0  0  0
 78152  1  0  0  0
 78153  1  0  0  0
 79 87  1  0  0  0
 79154  1  0  0  0
 79155  1  0  0  0
 80156  1  0  0  0
 80157  1  0  0  0
 81 82  1  0  0  0
 81 83  1  0  0  0
 81158  1  0  0  0
 81159  1  0  0  0
 82 84  1  0  0  0
 82160  1  0  0  0
 82161  1  0  0  0
 83 85  1  0  0  0
 83162  1  0  0  0
 83163  1  0  0  0
 84 86  1  0  0  0
 84164  1  0  0  0
 84165  1  0  0  0
 85 87  1  0  0  0
 85166  1  0  0  0
 85167  1  0  0  0
 86168  1  0  0  0
 87169  1  0  0  0
 87170  1  0  0  0
M  CHG  1  87   1
M  ISO  4   1 100  68 101  80 101  86 100
M  END
> <chiral flag>
0

> <version>
0

> <s_m_source_file>
/data/baiqing/PycharmProjects/Reinvent-master-3.2/result/LINK_invent/BTK/process_docking_weight1_custom_sum_contain_oxygen_bond_distance_aromatic_linkinvent_7_9_3/rearranged_h_0035.sdf

> <i_m_source_file_index>
10

> <r_mmod_Potential_Energy-OPLS-2005>
-126.915176391602

> <r_mmod_Stretch_Energy-OPLS-2005>
32.6005172729492

> <r_mmod_Bend_Energy-OPLS-2005>
93.6721954345703

> <r_mmod_Torsional_Energy-OPLS-2005>
320.049438476562

> <r_mmod_Improper_Torsional_Energy-OPLS-2005>
6.07191228866577

> <r_mmod_Van_der_Waal_Energy-OPLS-2005>
146.89306640625

> <r_mmod_Electrostatic_Energy-OPLS-2005>
-249.703567504883

> <r_mmod_Solvation_Energy-OPLS-2005>
-484.253479003906

> <b_mmod_Minimization_Converged-OPLS-2005>
0

> <r_mmod_RMS_Derivative-OPLS-2005>
2.53785991668701

$$$$
10
                    3D
 Structure written by MMmdl.
159167  0  0  1  0            999 V2000
  -30.6590  -14.4669   20.5101 C   0  0  0  0  0  0
  -30.4207  -12.2756   19.4379 C   0  0  0  0  0  0
  -29.4990  -12.4866   18.2165 C   0  0  0  0  0  0
  -28.0152  -12.3543   18.6182 C   0  0  0  0  0  0
  -27.6586  -13.1928   19.8755 C   0  0  2  0  0  0
  -28.6984  -12.9720   21.0011 C   0  0  0  0  0  0
  -25.2577  -13.8131   20.5661 C   0  0  0  0  0  0
  -24.1818  -13.0429   20.9179 C   0  0  0  0  0  0
  -24.6349  -11.6892   20.8727 C   0  0  0  0  0  0
  -23.9018  -10.4292   21.0399 C   0  0  0  0  0  0
  -24.3590   -9.4216   21.9176 C   0  0  0  0  0  0
  -23.6281   -8.2241   22.0745 C   0  0  0  0  0  0
  -22.4262   -8.0269   21.3536 C   0  0  0  0  0  0
  -21.9883   -9.0239   20.4640 C   0  0  0  0  0  0
  -22.7195  -10.2129   20.3049 C   0  0  0  0  0  0
  -21.6849   -6.0722   22.5275 C   0  0  0  0  0  0
  -21.4011   -6.5629   23.8209 C   0  0  0  0  0  0
  -21.3665   -5.6789   24.9174 C   0  0  0  0  0  0
  -21.6046   -4.3050   24.7226 C   0  0  0  0  0  0
  -21.8824   -3.8133   23.4352 C   0  0  0  0  0  0
  -21.9193   -4.6948   22.3405 C   0  0  0  0  0  0
  -22.7849  -13.5242   21.1834 C   0  0  0  0  0  0
  -22.1662   -4.2133   21.0985 F   0  0  0  0  0  0
  -21.5633   -3.4537   25.7741 F   0  0  0  0  0  0
  -30.0347  -13.2622   20.4573 N   0  0  0  0  0  0
  -26.2989  -12.9262   20.3357 N   0  0  0  0  0  0
  -25.9262  -11.6443   20.5762 N   0  0  0  0  0  0
  -22.0481  -12.8265   22.0412 N   0  0  0  0  0  0
  -25.4335  -15.1846   20.4049 N   0  0  0  0  0  0
  -31.8028  -14.6591   20.0905 O   0  0  0  0  0  0
  -21.6633   -6.8861   21.4233 O   0  0  0  0  0  0
  -22.3560  -14.5551   20.6680 O   0  0  0  0  0  0
  -24.6146  -31.8681   23.2083 C   0  0  0  0  0  0
  -25.9041  -32.4826   23.8391 C   0  0  1  0  0  0
  -27.2318  -27.4250   20.1049 C   0  0  0  0  0  0
  -25.5891  -33.8623   24.2307 N   0  0  0  0  0  0
  -23.4028  -30.4892   21.5497 C   0  0  2  0  0  0
  -24.8473  -28.9546   20.1158 C   0  0  0  0  0  0
  -22.7410  -29.4650   22.4999 C   0  0  0  0  0  0
  -18.0256  -28.1387   22.8487 C   0  0  0  0  0  0
  -24.1474  -36.7334   23.2635 C   0  0  0  0  0  0
  -25.9308  -30.8325   21.3611 C   0  0  0  0  0  0
  -26.0055  -29.4654   20.7107 C   0  0  0  0  0  0
  -27.1986  -28.7078   20.7003 C   0  0  0  0  0  0
  -26.0514  -26.9292   19.5033 C   0  0  0  0  0  0
  -24.8656  -27.6879   19.5072 C   0  0  0  0  0  0
  -23.6089  -29.8199   20.1648 C   0  0  0  0  0  0
  -25.4094  -36.3117   24.0325 C   0  0  1  0  0  0
  -20.5849  -28.3671   23.1324 C   0  0  2  0  0  0
  -20.6747  -26.9410   22.5415 C   0  0  0  0  0  0
  -19.5724  -26.6385   21.5219 C   0  0  0  0  0  0
  -18.1902  -26.7927   22.1629 C   0  0  0  0  0  0
  -19.1507  -28.8850   23.2897 C   0  0  0  0  0  0
  -18.9444  -30.1449   23.8913 C   0  0  0  0  0  0
  -17.6449  -30.6598   24.0571 C   0  0  0  0  0  0
  -25.9028  -34.9483   23.5121 C   0  0  0  0  0  0
  -16.5337  -29.9102   23.6325 C   0  0  0  0  0  0
  -16.7253  -28.6517   23.0356 C   0  0  0  0  0  0
  -26.4445  -31.6646   25.0763 C   0  0  0  0  0  0
  -25.3692  -31.3808   26.1516 C   0  0  0  0  0  0
  -27.0281  -30.3067   24.6193 C   0  0  0  0  0  0
  -27.6004  -32.4385   25.7533 C   0  0  0  0  0  0
  -27.5563  -37.1813   24.8452 C   0  0  0  0  0  0
  -21.4133  -29.3043   22.3749 N   0  0  0  0  0  0
  -26.4277  -37.3803   23.9396 N   0  0  0  0  0  0
  -24.6676  -31.0774   22.0982 N   0  0  0  0  0  0
  -23.4188  -28.8190   23.3037 O   0  0  0  0  0  0
  -28.4194  -26.7187   20.1354 O   0  0  0  0  0  0
  -26.5597  -34.8938   22.4685 O   0  0  0  0  0  0
  -23.5328  -32.1426   23.7474 O   0  0  0  0  0  0
  -28.2878  -19.9092   21.0249 C   0  0  0  0  0  0
  -28.4142  -18.5339   20.7305 C   0  0  0  0  0  0
  -30.6227  -20.2372   20.4444 C   0  0  0  0  0  0
  -29.3851  -20.7827   20.8503 C   0  0  0  0  0  0
  -29.6365  -18.0040   20.2604 C   0  0  0  0  0  0
  -30.7595  -18.8611   20.1554 C   0  0  0  0  0  0
  -32.1058  -18.3373   19.6868 C   0  0  0  0  0  0
  -29.2880  -22.2930   21.0970 C   0  0  0  0  0  0
  -29.6798  -16.5665   19.7409 C   0  0  0  0  0  0
  -27.8942  -22.9344   20.8838 C   0  0  0  0  0  0
  -27.8448  -24.4752   21.0699 C   0  0  0  0  0  0
  -28.4332  -25.3007   19.8989 C   0  0  0  0  0  0
  -29.8228  -15.4944   20.7326 N   0  0  0  0  0  0
  -31.4680  -12.3689   19.1456 H   0  0  0  0  0  0
  -30.3081  -11.2645   19.8331 H   0  0  0  0  0  0
  -29.7368  -11.7635   17.4359 H   0  0  0  0  0  0
  -29.6776  -13.4713   17.7811 H   0  0  0  0  0  0
  -27.8193  -11.2982   18.8105 H   0  0  0  0  0  0
  -27.3726  -12.6363   17.7831 H   0  0  0  0  0  0
  -27.6964  -14.2365   19.5680 H   0  0  0  0  0  0
  -28.6624  -11.9400   21.3512 H   0  0  0  0  0  0
  -28.4702  -13.5844   21.8739 H   0  0  0  0  0  0
  -25.2735   -9.5704   22.4758 H   0  0  0  0  0  0
  -23.9993   -7.4631   22.7466 H   0  0  0  0  0  0
  -21.0814   -8.8748   19.8953 H   0  0  0  0  0  0
  -22.3637  -10.9662   19.6168 H   0  0  0  0  0  0
  -21.2000   -7.6136   23.9711 H   0  0  0  0  0  0
  -21.1482   -6.0517   25.9083 H   0  0  0  0  0  0
  -22.0596   -2.7591   23.2860 H   0  0  0  0  0  0
  -22.4078  -11.9940   22.4829 H   0  0  0  0  0  0
  -21.1092  -13.1298   22.2563 H   0  0  0  0  0  0
  -24.6678  -15.8411   20.5059 H   0  0  0  0  0  0
  -26.2801  -15.6184   20.0626 H   0  0  0  0  0  0
  -26.7133  -32.5529   23.1175 H   0  0  0  0  0  0
  -25.0040  -33.9766   25.0456 H   0  0  0  0  0  0
  -22.6910  -31.3049   21.4096 H   0  0  0  0  0  0
  -23.3723  -35.9686   23.3323 H   0  0  0  0  0  0
  -24.3559  -36.8926   22.2042 H   0  0  0  0  0  0
  -23.7237  -37.6543   23.6654 H   0  0  0  0  0  0
  -26.0397  -31.5956   20.5882 H   0  0  0  0  0  0
  -26.8187  -30.8872   21.9808 H   0  0  0  0  0  0
  -28.0936  -29.0987   21.1630 H   0  0  0  0  0  0
  -26.0209  -25.9589   19.0307 H   0  0  0  0  0  0
  -23.9744  -27.2912   19.0408 H   0  0  0  0  0  0
  -23.7122  -30.5913   19.4005 H   0  0  0  0  0  0
  -22.7341  -29.2344   19.8757 H   0  0  0  0  0  0
  -25.1269  -36.1969   25.0815 H   0  0  0  0  0  0
  -20.9917  -28.3227   24.1454 H   0  0  0  0  0  0
  -20.5641  -26.2285   23.3604 H   0  0  0  0  0  0
  -21.6617  -26.7451   22.1208 H   0  0  0  0  0  0
  -19.6881  -25.6296   21.1240 H   0  0  0  0  0  0
  -19.6649  -27.3204   20.6758 H   0  0  0  0  0  0
  -17.4156  -26.6674   21.4037 H   0  0  0  0  0  0
  -18.0307  -26.0075   22.9035 H   0  0  0  0  0  0
  -19.7935  -30.7251   24.2288 H   0  0  0  0  0  0
  -17.5025  -31.6274   24.5182 H   0  0  0  0  0  0
  -15.5345  -30.3027   23.7648 H   0  0  0  0  0  0
  -15.8649  -28.0848   22.7085 H   0  0  0  0  0  0
  -24.5834  -30.7178   25.7885 H   0  0  0  0  0  0
  -24.8932  -32.3007   26.4935 H   0  0  0  0  0  0
  -25.8012  -30.9003   27.0305 H   0  0  0  0  0  0
  -26.2879  -29.6863   24.1132 H   0  0  0  0  0  0
  -27.3888  -29.7264   25.4697 H   0  0  0  0  0  0
  -27.8778  -30.4359   23.9485 H   0  0  0  0  0  0
  -27.2594  -33.3666   26.2139 H   0  0  0  0  0  0
  -28.3809  -32.6980   25.0373 H   0  0  0  0  0  0
  -28.0710  -31.8524   26.5434 H   0  0  0  0  0  0
  -28.2587  -38.0101   24.7497 H   0  0  0  0  0  0
  -28.1043  -36.2626   24.6289 H   0  0  0  0  0  0
  -27.2292  -37.1497   25.8860 H   0  0  0  0  0  0
  -20.9306  -29.8795   21.6988 H   0  0  0  0  0  0
  -26.0162  -38.2877   24.1409 H   0  0  0  0  0  0
  -27.3286  -20.2833   21.3528 H   0  0  0  0  0  0
  -27.5448  -17.8961   20.8166 H   0  0  0  0  0  0
  -31.4769  -20.8917   20.3273 H   0  0  0  0  0  0
  -32.3578  -17.4058   20.1950 H   0  0  0  0  0  0
  -32.9048  -19.0467   19.8975 H   0  0  0  0  0  0
  -32.0919  -18.1575   18.6115 H   0  0  0  0  0  0
  -30.0050  -22.7839   20.4380 H   0  0  0  0  0  0
  -29.6324  -22.4899   22.1124 H   0  0  0  0  0  0
  -30.4135  -16.4763   18.9378 H   0  0  0  0  0  0
  -28.7332  -16.3847   19.2304 H   0  0  0  0  0  0
  -27.2012  -22.4991   21.6038 H   0  0  0  0  0  0
  -27.5065  -22.6755   19.8988 H   0  0  0  0  0  0
  -28.3427  -24.7442   22.0023 H   0  0  0  0  0  0
  -26.8012  -24.7622   21.2013 H   0  0  0  0  0  0
  -27.9628  -25.0434   18.9501 H   0  0  0  0  0  0
  -29.4802  -25.0255   19.7747 H   0  0  0  0  0  0
  -28.9679  -15.2386   21.2016 H   0  0  0  0  0  0
  1 25  1  0  0  0
  1 30  2  0  0  0
  1 83  1  0  0  0
  2  3  1  0  0  0
  2 25  1  0  0  0
  2 84  1  0  0  0
  2 85  1  0  0  0
  3  4  1  0  0  0
  3 86  1  0  0  0
  3 87  1  0  0  0
  4  5  1  0  0  0
  4 88  1  0  0  0
  4 89  1  0  0  0
  5  6  1  0  0  0
  5 26  1  0  0  0
  5 90  1  0  0  0
  6 25  1  0  0  0
  6 91  1  0  0  0
  6 92  1  0  0  0
  7  8  2  0  0  0
  7 26  1  0  0  0
  7 29  1  0  0  0
  8  9  1  0  0  0
  8 22  1  0  0  0
  9 10  1  0  0  0
  9 27  2  0  0  0
 10 11  2  0  0  0
 10 15  1  0  0  0
 11 12  1  0  0  0
 11 93  1  0  0  0
 12 13  2  0  0  0
 12 94  1  0  0  0
 13 14  1  0  0  0
 13 31  1  0  0  0
 14 15  2  0  0  0
 14 95  1  0  0  0
 15 96  1  0  0  0
 16 17  2  0  0  0
 16 21  1  0  0  0
 16 31  1  0  0  0
 17 18  1  0  0  0
 17 97  1  0  0  0
 18 19  2  0  0  0
 18 98  1  0  0  0
 19 20  1  0  0  0
 19 24  1  0  0  0
 20 21  2  0  0  0
 20 99  1  0  0  0
 21 23  1  0  0  0
 22 28  1  0  0  0
 22 32  2  0  0  0
 26 27  1  0  0  0
 28100  1  0  0  0
 28101  1  0  0  0
 29102  1  0  0  0
 29103  1  0  0  0
 33 34  1  0  0  0
 33 66  1  0  0  0
 33 70  2  0  0  0
 34 36  1  0  0  0
 34 59  1  0  0  0
 34104  1  0  0  0
 35 44  2  0  0  0
 35 45  1  0  0  0
 35 68  1  0  0  0
 36 56  1  0  0  0
 36105  1  0  0  0
 37 39  1  0  0  0
 37 47  1  0  0  0
 37 66  1  0  0  0
 37106  1  0  0  0
 38 43  2  0  0  0
 38 46  1  0  0  0
 38 47  1  0  0  0
 39 64  1  0  0  0
 39 67  2  0  0  0
 40 52  1  0  0  0
 40 53  2  0  0  0
 40 58  1  0  0  0
 41107  1  0  0  0
 41108  1  0  0  0
 41109  1  0  0  0
 41 48  1  0  0  0
 42 43  1  0  0  0
 42 66  1  0  0  0
 42110  1  0  0  0
 42111  1  0  0  0
 43 44  1  0  0  0
 44112  1  0  0  0
 45 46  2  0  0  0
 45113  1  0  0  0
 46114  1  0  0  0
 47115  1  0  0  0
 47116  1  0  0  0
 48 56  1  0  0  0
 48 65  1  0  0  0
 48117  1  0  0  0
 49 50  1  0  0  0
 49 53  1  0  0  0
 49 64  1  0  0  0
 49118  1  0  0  0
 50 51  1  0  0  0
 50119  1  0  0  0
 50120  1  0  0  0
 51 52  1  0  0  0
 51121  1  0  0  0
 51122  1  0  0  0
 52123  1  0  0  0
 52124  1  0  0  0
 53 54  1  0  0  0
 54 55  2  0  0  0
 54125  1  0  0  0
 55 57  1  0  0  0
 55126  1  0  0  0
 56 69  2  0  0  0
 57 58  2  0  0  0
 57127  1  0  0  0
 58128  1  0  0  0
 59 60  1  0  0  0
 59 61  1  0  0  0
 59 62  1  0  0  0
 60129  1  0  0  0
 60130  1  0  0  0
 60131  1  0  0  0
 61132  1  0  0  0
 61133  1  0  0  0
 61134  1  0  0  0
 62135  1  0  0  0
 62136  1  0  0  0
 62137  1  0  0  0
 63 65  1  0  0  0
 63138  1  0  0  0
 63139  1  0  0  0
 63140  1  0  0  0
 64141  1  0  0  0
 65142  1  0  0  0
 68 82  1  0  0  0
 71 72  2  0  0  0
 71 74  1  0  0  0
 71143  1  0  0  0
 72 75  1  0  0  0
 72144  1  0  0  0
 73 74  2  0  0  0
 73 76  1  0  0  0
 73145  1  0  0  0
 74 78  1  0  0  0
 75 76  2  0  0  0
 75 79  1  0  0  0
 76 77  1  0  0  0
 77146  1  0  0  0
 77147  1  0  0  0
 77148  1  0  0  0
 78 80  1  0  0  0
 78149  1  0  0  0
 78150  1  0  0  0
 79 83  1  0  0  0
 79151  1  0  0  0
 79152  1  0  0  0
 80 81  1  0  0  0
 80153  1  0  0  0
 80154  1  0  0  0
 81 82  1  0  0  0
 81155  1  0  0  0
 81156  1  0  0  0
 82157  1  0  0  0
 82158  1  0  0  0
 83159  1  0  0  0
M  ISO  4   1 100  68 101  82 101  83 100
M  END
> <chiral flag>
0

> <version>
0

> <s_m_source_file>
/data/baiqing/PycharmProjects/Reinvent-master-3.2/result/LINK_invent/BTK/process_docking_weight1_custom_sum_contain_oxygen_bond_distance_aromatic_linkinvent_7_9_3/rearranged_h_0035.sdf

> <i_m_source_file_index>
11

> <r_mmod_Potential_Energy-OPLS-2005>
-68.2114715576172

> <r_mmod_Stretch_Energy-OPLS-2005>
36.278923034668

> <r_mmod_Bend_Energy-OPLS-2005>
101.477668762207

> <r_mmod_Torsional_Energy-OPLS-2005>
230.776123046875

> <r_mmod_Improper_Torsional_Energy-OPLS-2005>
12.6449604034424

> <r_mmod_Van_der_Waal_Energy-OPLS-2005>
150.314117431641

> <r_mmod_Electrostatic_Energy-OPLS-2005>
-409.253631591797

> <r_mmod_Solvation_Energy-OPLS-2005>
-205.633056640625

> <b_mmod_Minimization_Converged-OPLS-2005>
0

> <r_mmod_RMS_Derivative-OPLS-2005>
2.42660069465637

$$$$
11
                    3D
 Structure written by MMmdl.
157165  0  0  1  0            999 V2000
  -30.6279  -14.5577   20.4795 C   0  0  0  0  0  0
  -30.4124  -12.3341   19.4468 C   0  0  0  0  0  0
  -29.5065  -12.5292   18.2159 C   0  0  0  0  0  0
  -28.0210  -12.3860   18.6105 C   0  0  0  0  0  0
  -27.6556  -13.2135   19.8721 C   0  0  2  0  0  0
  -28.6941  -13.0186   20.9978 C   0  0  0  0  0  0
  -25.2613  -13.8148   20.5678 C   0  0  0  0  0  0
  -24.1873  -13.0400   20.9116 C   0  0  0  0  0  0
  -24.6443  -11.6880   20.8705 C   0  0  0  0  0  0
  -23.9143  -10.4247   21.0387 C   0  0  0  0  0  0
  -24.3683   -9.4153   21.9161 C   0  0  0  0  0  0
  -23.6307   -8.2224   22.0754 C   0  0  0  0  0  0
  -22.4288   -8.0306   21.3551 C   0  0  0  0  0  0
  -21.9944   -9.0278   20.4659 C   0  0  0  0  0  0
  -22.7317  -10.2121   20.3029 C   0  0  0  0  0  0
  -21.6858   -6.0767   22.5293 C   0  0  0  0  0  0
  -21.4032   -6.5667   23.8237 C   0  0  0  0  0  0
  -21.3650   -5.6807   24.9182 C   0  0  0  0  0  0
  -21.6032   -4.3070   24.7221 C   0  0  0  0  0  0
  -21.8819   -3.8174   23.4342 C   0  0  0  0  0  0
  -21.9187   -4.6992   22.3405 C   0  0  0  0  0  0
  -22.7923  -13.5221   21.1806 C   0  0  0  0  0  0
  -22.1662   -4.2185   21.0976 F   0  0  0  0  0  0
  -21.5598   -3.4546   25.7724 F   0  0  0  0  0  0
  -30.0135  -13.3427   20.4406 N   0  0  0  0  0  0
  -26.3019  -12.9317   20.3322 N   0  0  0  0  0  0
  -25.9359  -11.6476   20.5710 N   0  0  0  0  0  0
  -22.0587  -12.8188   22.0400 N   0  0  0  0  0  0
  -25.4290  -15.1838   20.4124 N   0  0  0  0  0  0
  -31.7991  -14.7065   20.1039 O   0  0  0  0  0  0
  -21.6637   -6.8914   21.4267 O   0  0  0  0  0  0
  -22.3619  -14.5512   20.6658 O   0  0  0  0  0  0
  -24.6295  -31.8577   23.2042 C   0  0  0  0  0  0
  -25.9145  -32.4792   23.8300 C   0  0  1  0  0  0
  -27.1503  -27.3022   20.0560 C   0  0  0  0  0  0
  -25.5941  -33.8582   24.2266 N   0  0  0  0  0  0
  -23.4158  -30.4777   21.5551 C   0  0  2  0  0  0
  -24.8453  -28.9623   20.0909 C   0  0  0  0  0  0
  -22.7523  -29.4488   22.5002 C   0  0  0  0  0  0
  -18.0355  -28.1388   22.8923 C   0  0  0  0  0  0
  -24.1498  -36.7301   23.2639 C   0  0  0  0  0  0
  -25.9610  -30.7869   21.3661 C   0  0  0  0  0  0
  -26.0237  -29.4174   20.6890 C   0  0  0  0  0  0
  -27.1931  -28.5953   20.6573 C   0  0  0  0  0  0
  -25.9496  -26.8921   19.4498 C   0  0  0  0  0  0
  -24.8164  -27.7138   19.4535 C   0  0  0  0  0  0
  -23.6213  -29.8378   20.1593 C   0  0  0  0  0  0
  -25.4135  -36.3093   24.0297 C   0  0  1  0  0  0
  -20.5989  -28.3720   23.1610 C   0  0  2  0  0  0
  -20.6901  -26.9589   22.5415 C   0  0  0  0  0  0
  -19.5633  -26.6823   21.5333 C   0  0  0  0  0  0
  -18.2142  -26.7771   22.2481 C   0  0  0  0  0  0
  -19.1586  -28.8919   23.3174 C   0  0  0  0  0  0
  -18.9436  -30.1618   23.8892 C   0  0  0  0  0  0
  -17.6451  -30.6835   24.0308 C   0  0  0  0  0  0
  -25.9059  -34.9449   23.5101 C   0  0  0  0  0  0
  -16.5360  -29.9306   23.6197 C   0  0  0  0  0  0
  -16.7340  -28.6569   23.0602 C   0  0  0  0  0  0
  -26.4510  -31.6614   25.0648 C   0  0  0  0  0  0
  -25.3735  -31.3721   26.1350 C   0  0  0  0  0  0
  -27.0268  -30.3024   24.6086 C   0  0  0  0  0  0
  -27.6032  -32.4351   25.7468 C   0  0  0  0  0  0
  -27.5579  -37.1782   24.8455 C   0  0  0  0  0  0
  -21.4198  -29.3041   22.3955 N   0  0  0  0  0  0
  -26.4302  -37.3782   23.9408 N   0  0  0  0  0  0
  -24.6899  -31.0576   22.0987 N   0  0  0  0  0  0
  -23.4343  -28.8006   23.2936 O   0  0  0  0  0  0
  -28.2148  -26.4054   20.0372 O   0  0  0  0  0  0
  -26.5640  -34.8878   22.4681 O   0  0  0  0  0  0
  -23.5436  -32.1353   23.7379 O   0  0  0  0  0  0
  -28.3017  -21.4869   20.0539 C   0  0  0  0  0  0
  -27.6523  -20.2925   20.3100 C   0  0  0  0  0  0
  -26.2844  -20.6330   20.0550 C   0  0  0  0  0  0
  -26.1478  -21.9258   19.6073 C   0  0  0  0  0  0
  -24.9373  -22.6784   19.1393 C   0  0  0  0  0  0
  -28.2539  -18.9493   20.8225 C   0  0  0  0  0  0
  -29.0204  -18.0038   19.8093 C   0  0  0  0  0  0
  -27.7903  -23.8761   19.1805 C   0  0  0  0  0  0
  -30.1484  -17.0563   20.3986 C   0  0  0  0  0  0
  -27.8879  -24.9800   20.3318 C   0  0  0  0  0  0
  -27.4193  -22.4877   19.6222 N   0  0  0  0  0  0
  -29.8281  -15.6310   20.7129 N   0  0  0  0  0  0
  -24.9569  -19.5563   20.3062 Cl  0  0  0  0  0  0
  -31.4609  -12.4118   19.1627 H   0  0  0  0  0  0
  -30.2978  -11.3291   19.8497 H   0  0  0  0  0  0
  -29.7582  -11.8102   17.4350 H   0  0  0  0  0  0
  -29.6855  -13.5192   17.7917 H   0  0  0  0  0  0
  -27.8198  -11.3306   18.7740 H   0  0  0  0  0  0
  -27.3828  -12.6911   17.7775 H   0  0  0  0  0  0
  -27.6868  -14.2578   19.5685 H   0  0  0  0  0  0
  -28.6867  -11.9842   21.3437 H   0  0  0  0  0  0
  -28.4635  -13.6218   21.8767 H   0  0  0  0  0  0
  -25.2843   -9.5610   22.4723 H   0  0  0  0  0  0
  -24.0019   -7.4618   22.7460 H   0  0  0  0  0  0
  -21.0873   -8.8822   19.8959 H   0  0  0  0  0  0
  -22.3814  -10.9662   19.6126 H   0  0  0  0  0  0
  -21.2070   -7.6183   23.9753 H   0  0  0  0  0  0
  -21.1460   -6.0535   25.9085 H   0  0  0  0  0  0
  -22.0607   -2.7643   23.2821 H   0  0  0  0  0  0
  -22.4282  -11.9883   22.4776 H   0  0  0  0  0  0
  -21.1194  -13.1181   22.2629 H   0  0  0  0  0  0
  -24.6518  -15.8233   20.5271 H   0  0  0  0  0  0
  -26.2767  -15.6399   20.1044 H   0  0  0  0  0  0
  -26.7142  -32.5343   23.0947 H   0  0  0  0  0  0
  -25.0003  -33.9806   25.0344 H   0  0  0  0  0  0
  -22.7004  -31.2900   21.4346 H   0  0  0  0  0  0
  -23.3766  -35.9628   23.3307 H   0  0  0  0  0  0
  -24.3538  -36.8901   22.2039 H   0  0  0  0  0  0
  -23.7236  -37.6488   23.6681 H   0  0  0  0  0  0
  -26.0800  -31.5587   20.6025 H   0  0  0  0  0  0
  -26.8439  -30.8257   21.9917 H   0  0  0  0  0  0
  -28.1081  -28.9379   21.1287 H   0  0  0  0  0  0
  -25.8659  -25.9294   18.9647 H   0  0  0  0  0  0
  -23.9189  -27.3912   18.9487 H   0  0  0  0  0  0
  -23.7370  -30.6479   19.4324 H   0  0  0  0  0  0
  -22.7263  -29.2777   19.8705 H   0  0  0  0  0  0
  -25.1332  -36.1899   25.0771 H   0  0  0  0  0  0
  -21.0006  -28.3250   24.1735 H   0  0  0  0  0  0
  -20.5857  -26.2416   23.3557 H   0  0  0  0  0  0
  -21.6815  -26.7614   22.1248 H   0  0  0  0  0  0
  -19.6908  -25.7003   21.0814 H   0  0  0  0  0  0
  -19.6263  -27.4096   20.7267 H   0  0  0  0  0  0
  -17.3814  -26.5705   21.5682 H   0  0  0  0  0  0
  -18.1800  -26.0231   23.0356 H   0  0  0  0  0  0
  -19.7749  -30.7531   24.2328 H   0  0  0  0  0  0
  -17.4996  -31.6645   24.4601 H   0  0  0  0  0  0
  -15.5382  -30.3323   23.7379 H   0  0  0  0  0  0
  -15.8694  -28.0780   22.7626 H   0  0  0  0  0  0
  -24.6004  -30.6999   25.7655 H   0  0  0  0  0  0
  -24.8827  -32.2842   26.4746 H   0  0  0  0  0  0
  -25.8041  -30.8919   27.0152 H   0  0  0  0  0  0
  -26.2773  -29.6850   24.1147 H   0  0  0  0  0  0
  -27.3929  -29.7238   25.4581 H   0  0  0  0  0  0
  -27.8699  -30.4251   23.9287 H   0  0  0  0  0  0
  -27.2682  -33.3685   26.2050 H   0  0  0  0  0  0
  -28.3938  -32.6867   25.0379 H   0  0  0  0  0  0
  -28.0691  -31.8477   26.5400 H   0  0  0  0  0  0
  -28.2588  -38.0076   24.7508 H   0  0  0  0  0  0
  -28.1070  -36.2600   24.6315 H   0  0  0  0  0  0
  -27.2296  -37.1480   25.8849 H   0  0  0  0  0  0
  -20.9201  -29.8995   21.7471 H   0  0  0  0  0  0
  -26.0178  -38.2851   24.1393 H   0  0  0  0  0  0
  -29.3513  -21.7082   20.1340 H   0  0  0  0  0  0
  -24.0324  -22.1022   19.3247 H   0  0  0  0  0  0
  -24.9843  -22.8426   18.0613 H   0  0  0  0  0  0
  -24.8255  -23.6551   19.6114 H   0  0  0  0  0  0
  -27.4582  -18.3688   21.2995 H   0  0  0  0  0  0
  -28.9495  -19.2126   21.6187 H   0  0  0  0  0  0
  -29.5431  -18.6497   19.1067 H   0  0  0  0  0  0
  -28.3176  -17.4455   19.1964 H   0  0  0  0  0  0
  -28.7303  -23.7847   18.6475 H   0  0  0  0  0  0
  -27.0825  -24.1755   18.4093 H   0  0  0  0  0  0
  -30.6146  -17.5260   21.2601 H   0  0  0  0  0  0
  -30.9448  -17.0364   19.6523 H   0  0  0  0  0  0
  -26.9675  -24.9301   20.9237 H   0  0  0  0  0  0
  -28.6737  -24.6469   21.0036 H   0  0  0  0  0  0
  -28.9242  -15.4492   21.1275 H   0  0  0  0  0  0
  1 25  1  0  0  0
  1 30  2  0  0  0
  1 82  1  0  0  0
  2  3  1  0  0  0
  2 25  1  0  0  0
  2 84  1  0  0  0
  2 85  1  0  0  0
  3  4  1  0  0  0
  3 86  1  0  0  0
  3 87  1  0  0  0
  4  5  1  0  0  0
  4 88  1  0  0  0
  4 89  1  0  0  0
  5  6  1  0  0  0
  5 26  1  0  0  0
  5 90  1  0  0  0
  6 25  1  0  0  0
  6 91  1  0  0  0
  6 92  1  0  0  0
  7  8  2  0  0  0
  7 26  1  0  0  0
  7 29  1  0  0  0
  8  9  1  0  0  0
  8 22  1  0  0  0
  9 10  1  0  0  0
  9 27  2  0  0  0
 10 11  2  0  0  0
 10 15  1  0  0  0
 11 12  1  0  0  0
 11 93  1  0  0  0
 12 13  2  0  0  0
 12 94  1  0  0  0
 13 14  1  0  0  0
 13 31  1  0  0  0
 14 15  2  0  0  0
 14 95  1  0  0  0
 15 96  1  0  0  0
 16 17  2  0  0  0
 16 21  1  0  0  0
 16 31  1  0  0  0
 17 18  1  0  0  0
 17 97  1  0  0  0
 18 19  2  0  0  0
 18 98  1  0  0  0
 19 20  1  0  0  0
 19 24  1  0  0  0
 20 21  2  0  0  0
 20 99  1  0  0  0
 21 23  1  0  0  0
 22 28  1  0  0  0
 22 32  2  0  0  0
 26 27  1  0  0  0
 28100  1  0  0  0
 28101  1  0  0  0
 29102  1  0  0  0
 29103  1  0  0  0
 33 34  1  0  0  0
 33 66  1  0  0  0
 33 70  2  0  0  0
 34 36  1  0  0  0
 34 59  1  0  0  0
 34104  1  0  0  0
 35 44  2  0  0  0
 35 45  1  0  0  0
 35 68  1  0  0  0
 36 56  1  0  0  0
 36105  1  0  0  0
 37 39  1  0  0  0
 37 47  1  0  0  0
 37 66  1  0  0  0
 37106  1  0  0  0
 38 43  2  0  0  0
 38 46  1  0  0  0
 38 47  1  0  0  0
 39 64  1  0  0  0
 39 67  2  0  0  0
 40 52  1  0  0  0
 40 53  2  0  0  0
 40 58  1  0  0  0
 41107  1  0  0  0
 41108  1  0  0  0
 41109  1  0  0  0
 41 48  1  0  0  0
 42 43  1  0  0  0
 42 66  1  0  0  0
 42110  1  0  0  0
 42111  1  0  0  0
 43 44  1  0  0  0
 44112  1  0  0  0
 45 46  2  0  0  0
 45113  1  0  0  0
 46114  1  0  0  0
 47115  1  0  0  0
 47116  1  0  0  0
 48 56  1  0  0  0
 48 65  1  0  0  0
 48117  1  0  0  0
 49 50  1  0  0  0
 49 53  1  0  0  0
 49 64  1  0  0  0
 49118  1  0  0  0
 50 51  1  0  0  0
 50119  1  0  0  0
 50120  1  0  0  0
 51 52  1  0  0  0
 51121  1  0  0  0
 51122  1  0  0  0
 52123  1  0  0  0
 52124  1  0  0  0
 53 54  1  0  0  0
 54 55  2  0  0  0
 54125  1  0  0  0
 55 57  1  0  0  0
 55126  1  0  0  0
 56 69  2  0  0  0
 57 58  2  0  0  0
 57127  1  0  0  0
 58128  1  0  0  0
 59 60  1  0  0  0
 59 61  1  0  0  0
 59 62  1  0  0  0
 60129  1  0  0  0
 60130  1  0  0  0
 60131  1  0  0  0
 61132  1  0  0  0
 61133  1  0  0  0
 61134  1  0  0  0
 62135  1  0  0  0
 62136  1  0  0  0
 62137  1  0  0  0
 63 65  1  0  0  0
 63138  1  0  0  0
 63139  1  0  0  0
 63140  1  0  0  0
 64141  1  0  0  0
 65142  1  0  0  0
 68 80  1  0  0  0
 71 72  2  0  0  0
 71 81  1  0  0  0
 71143  1  0  0  0
 72 73  1  0  0  0
 72 76  1  0  0  0
 73 74  2  0  0  0
 73 83  1  0  0  0
 74 75  1  0  0  0
 74 81  1  0  0  0
 75144  1  0  0  0
 75145  1  0  0  0
 75146  1  0  0  0
 76 77  1  0  0  0
 76147  1  0  0  0
 76148  1  0  0  0
 77 79  1  0  0  0
 77149  1  0  0  0
 77150  1  0  0  0
 78 80  1  0  0  0
 78 81  1  0  0  0
 78151  1  0  0  0
 78152  1  0  0  0
 79 82  1  0  0  0
 79153  1  0  0  0
 79154  1  0  0  0
 80155  1  0  0  0
 80156  1  0  0  0
 82157  1  0  0  0
M  ISO  4   1 100  68 101  80 101  82 100
M  END
> <chiral flag>
0

> <version>
0

> <s_m_source_file>
/data/baiqing/PycharmProjects/Reinvent-master-3.2/result/LINK_invent/BTK/process_docking_weight1_custom_sum_contain_oxygen_bond_distance_aromatic_linkinvent_7_9_3/rearranged_h_0035.sdf

> <i_m_source_file_index>
12

> <r_mmod_Potential_Energy-OPLS-2005>
46.9226264953613

> <r_mmod_Stretch_Energy-OPLS-2005>
69.9581069946289

> <r_mmod_Bend_Energy-OPLS-2005>
136.276916503906

> <r_mmod_Torsional_Energy-OPLS-2005>
239.944808959961

> <r_mmod_Improper_Torsional_Energy-OPLS-2005>
6.06216382980347

> <r_mmod_Van_der_Waal_Energy-OPLS-2005>
121.640960693359

> <r_mmod_Electrostatic_Energy-OPLS-2005>
-368.181762695312

> <r_mmod_Solvation_Energy-OPLS-2005>
-209.44743347168

> <b_mmod_Minimization_Converged-OPLS-2005>
0

> <r_mmod_RMS_Derivative-OPLS-2005>
15.170205116272

$$$$
12
                    3D
 Structure written by MMmdl.
156164  0  0  1  0            999 V2000
  -30.5516  -14.9381   20.4024 C   0  0  0  0  0  0
  -30.4483  -12.5742   19.4947 C   0  0  0  0  0  0
  -29.5319  -12.4967   18.2547 C   0  0  0  0  0  0
  -28.0581  -12.3098   18.6683 C   0  0  0  0  0  0
  -27.6330  -13.2445   19.8316 C   0  0  2  0  0  0
  -28.6788  -13.2743   20.9654 C   0  0  0  0  0  0
  -25.2519  -13.8201   20.5727 C   0  0  0  0  0  0
  -24.1824  -13.0444   20.9212 C   0  0  0  0  0  0
  -24.6416  -11.6913   20.8740 C   0  0  0  0  0  0
  -23.9086  -10.4302   21.0398 C   0  0  0  0  0  0
  -24.3648   -9.4210   21.9177 C   0  0  0  0  0  0
  -23.6330   -8.2248   22.0753 C   0  0  0  0  0  0
  -22.4284   -8.0311   21.3557 C   0  0  0  0  0  0
  -21.9924   -9.0283   20.4633 C   0  0  0  0  0  0
  -22.7253  -10.2163   20.3046 C   0  0  0  0  0  0
  -21.6871   -6.0735   22.5259 C   0  0  0  0  0  0
  -21.4037   -6.5635   23.8182 C   0  0  0  0  0  0
  -21.3660   -5.6777   24.9138 C   0  0  0  0  0  0
  -21.6048   -4.3051   24.7181 C   0  0  0  0  0  0
  -21.8845   -3.8137   23.4318 C   0  0  0  0  0  0
  -21.9207   -4.6959   22.3365 C   0  0  0  0  0  0
  -22.7846  -13.5239   21.1851 C   0  0  0  0  0  0
  -22.1700   -4.2153   21.0939 F   0  0  0  0  0  0
  -21.5613   -3.4533   25.7684 F   0  0  0  0  0  0
  -29.9506  -13.6831   20.3558 N   0  0  0  0  0  0
  -26.2929  -12.9413   20.3227 N   0  0  0  0  0  0
  -25.9336  -11.6542   20.5668 N   0  0  0  0  0  0
  -22.0513  -12.8230   22.0408 N   0  0  0  0  0  0
  -25.4214  -15.1934   20.4158 N   0  0  0  0  0  0
  -31.7655  -14.9940   20.1826 O   0  0  0  0  0  0
  -21.6671   -6.8899   21.4217 O   0  0  0  0  0  0
  -22.3525  -14.5533   20.6659 O   0  0  0  0  0  0
  -24.6477  -31.8410   23.1863 C   0  0  0  0  0  0
  -25.9232  -32.4698   23.8273 C   0  0  1  0  0  0
  -27.2211  -27.1093   20.1181 C   0  0  0  0  0  0
  -25.5965  -33.8508   24.2205 N   0  0  0  0  0  0
  -23.4560  -30.4611   21.5321 C   0  0  2  0  0  0
  -24.9031  -28.8814   20.1080 C   0  0  0  0  0  0
  -22.7616  -29.4546   22.4836 C   0  0  0  0  0  0
  -18.0338  -28.1420   22.8476 C   0  0  0  0  0  0
  -24.1499  -36.7228   23.2631 C   0  0  0  0  0  0
  -26.0169  -30.6960   21.3958 C   0  0  0  0  0  0
  -26.0852  -29.3101   20.7251 C   0  0  0  0  0  0
  -27.2443  -28.4408   20.7132 C   0  0  0  0  0  0
  -26.0102  -26.7884   19.4675 C   0  0  0  0  0  0
  -24.8792  -27.6349   19.4675 C   0  0  0  0  0  0
  -23.6840  -29.7913   20.1532 C   0  0  0  0  0  0
  -25.4145  -36.3029   24.0309 C   0  0  1  0  0  0
  -20.5953  -28.3732   23.1214 C   0  0  2  0  0  0
  -20.6822  -26.9420   22.5396 C   0  0  0  0  0  0
  -19.5797  -26.6376   21.5222 C   0  0  0  0  0  0
  -18.1973  -26.7963   22.1624 C   0  0  0  0  0  0
  -19.1593  -28.8901   23.2851 C   0  0  0  0  0  0
  -18.9490  -30.1499   23.8864 C   0  0  0  0  0  0
  -17.6474  -30.6588   24.0557 C   0  0  0  0  0  0
  -25.9084  -34.9400   23.5078 C   0  0  0  0  0  0
  -16.5381  -29.9070   23.6336 C   0  0  0  0  0  0
  -16.7316  -28.6514   23.0334 C   0  0  0  0  0  0
  -26.4525  -31.6572   25.0726 C   0  0  0  0  0  0
  -25.3676  -31.3754   26.1387 C   0  0  0  0  0  0
  -27.0408  -30.2970   24.6355 C   0  0  0  0  0  0
  -27.6074  -32.4329   25.7495 C   0  0  0  0  0  0
  -27.5605  -37.1771   24.8461 C   0  0  0  0  0  0
  -21.4297  -29.3059   22.3574 N   0  0  0  0  0  0
  -26.4306  -37.3750   23.9407 N   0  0  0  0  0  0
  -24.7274  -31.0217   22.0917 N   0  0  0  0  0  0
  -23.4228  -28.8065   23.2988 O   0  0  0  0  0  0
  -28.2677  -26.1044   20.1678 O   0  0  0  0  0  0
  -26.5663  -34.8889   22.4646 O   0  0  0  0  0  0
  -23.5578  -32.1287   23.7053 O   0  0  0  0  0  0
  -27.2906  -19.7714   18.9033 C   0  0  0  0  0  0
  -28.0900  -18.7171   19.3892 C   0  0  0  0  0  0
  -27.5701  -21.1477   19.1156 C   0  0  0  0  0  0
  -29.2758  -18.9667   20.1008 C   0  0  0  0  0  0
  -29.5631  -20.4223   20.3021 C   0  0  0  0  0  0
  -28.7064  -21.5742   19.8714 C   0  0  0  0  0  0
  -26.6232  -22.1226   18.4317 C   0  0  0  0  0  0
  -30.8963  -20.7630   20.9477 C   0  0  0  0  0  0
  -29.0120  -23.2076   20.1410 C   0  0  0  0  0  0
  -30.1832  -17.6537   20.5363 C   0  0  0  0  0  0
  -28.0075  -24.5738   19.8996 C   0  0  0  0  0  0
  -29.7799  -16.1272   20.4849 N   0  0  0  0  0  0
  -31.4798  -12.7425   19.1820 H   0  0  0  0  0  0
  -30.4529  -11.6277   20.0407 H   0  0  0  0  0  0
  -29.8432  -11.6715   17.6128 H   0  0  0  0  0  0
  -29.6444  -13.4007   17.6558 H   0  0  0  0  0  0
  -27.9355  -11.2712   18.9766 H   0  0  0  0  0  0
  -27.4068  -12.4534   17.8057 H   0  0  0  0  0  0
  -27.5920  -14.2410   19.3975 H   0  0  0  0  0  0
  -28.7698  -12.2964   21.4372 H   0  0  0  0  0  0
  -28.3817  -13.9695   21.7514 H   0  0  0  0  0  0
  -25.2820   -9.5676   22.4722 H   0  0  0  0  0  0
  -24.0036   -7.4610   22.7458 H   0  0  0  0  0  0
  -21.0875   -8.8806   19.8945 H   0  0  0  0  0  0
  -22.3733  -10.9706   19.6160 H   0  0  0  0  0  0
  -21.2041   -7.6149   23.9685 H   0  0  0  0  0  0
  -21.1476   -6.0502   25.9033 H   0  0  0  0  0  0
  -22.0619   -2.7603   23.2783 H   0  0  0  0  0  0
  -22.4182  -11.9980   22.4914 H   0  0  0  0  0  0
  -21.1088  -13.1205   22.2505 H   0  0  0  0  0  0
  -24.6542  -15.8485   20.5176 H   0  0  0  0  0  0
  -26.2566  -15.6278   20.0488 H   0  0  0  0  0  0
  -26.7294  -32.5281   23.0989 H   0  0  0  0  0  0
  -25.0119  -33.9655   25.0351 H   0  0  0  0  0  0
  -22.7598  -31.2888   21.3776 H   0  0  0  0  0  0
  -23.3806  -35.9514   23.3255 H   0  0  0  0  0  0
  -24.3572  -36.8893   22.2050 H   0  0  0  0  0  0
  -23.7183  -37.6379   23.6691 H   0  0  0  0  0  0
  -26.1953  -31.4563   20.6307 H   0  0  0  0  0  0
  -26.8762  -30.7335   22.0536 H   0  0  0  0  0  0
  -28.1460  -28.7611   21.2156 H   0  0  0  0  0  0
  -25.9010  -25.8401   18.9607 H   0  0  0  0  0  0
  -23.9732  -27.3126   18.9728 H   0  0  0  0  0  0
  -23.8250  -30.5653   19.3976 H   0  0  0  0  0  0
  -22.7955  -29.2427   19.8410 H   0  0  0  0  0  0
  -25.1338  -36.1866   25.0803 H   0  0  0  0  0  0
  -21.0093  -28.3325   24.1327 H   0  0  0  0  0  0
  -20.5735  -26.2342   23.3625 H   0  0  0  0  0  0
  -21.6670  -26.7425   22.1167 H   0  0  0  0  0  0
  -19.6935  -25.6281   21.1269 H   0  0  0  0  0  0
  -19.6729  -27.3163   20.6742 H   0  0  0  0  0  0
  -17.4241  -26.6726   21.4009 H   0  0  0  0  0  0
  -18.0344  -26.0128   22.9042 H   0  0  0  0  0  0
  -19.7946  -30.7363   24.2180 H   0  0  0  0  0  0
  -17.4997  -31.6248   24.5176 H   0  0  0  0  0  0
  -15.5363  -30.2930   23.7686 H   0  0  0  0  0  0
  -15.8740  -28.0815   22.7019 H   0  0  0  0  0  0
  -24.5843  -30.7170   25.7609 H   0  0  0  0  0  0
  -24.8882  -32.2938   26.4801 H   0  0  0  0  0  0
  -25.7883  -30.8841   27.0174 H   0  0  0  0  0  0
  -26.3039  -29.6677   24.1361 H   0  0  0  0  0  0
  -27.3990  -29.7310   25.4963 H   0  0  0  0  0  0
  -27.8956  -30.4204   23.9709 H   0  0  0  0  0  0
  -27.2702  -33.3635   26.2080 H   0  0  0  0  0  0
  -28.3853  -32.6903   25.0292 H   0  0  0  0  0  0
  -28.0789  -31.8457   26.5386 H   0  0  0  0  0  0
  -28.2591  -38.0106   24.7578 H   0  0  0  0  0  0
  -28.1148  -36.2640   24.6231 H   0  0  0  0  0  0
  -27.2320  -37.1319   25.8859 H   0  0  0  0  0  0
  -20.9537  -29.8721   21.6681 H   0  0  0  0  0  0
  -26.0187  -38.2810   24.1449 H   0  0  0  0  0  0
  -26.4207  -19.4887   18.3244 H   0  0  0  0  0  0
  -27.7957  -17.6984   19.1764 H   0  0  0  0  0  0
  -25.8002  -21.6010   17.9391 H   0  0  0  0  0  0
  -27.1428  -22.6650   17.6421 H   0  0  0  0  0  0
  -26.1550  -22.8137   19.1323 H   0  0  0  0  0  0
  -31.4552  -19.8734   21.2377 H   0  0  0  0  0  0
  -30.7607  -21.3760   21.8358 H   0  0  0  0  0  0
  -31.5180  -21.3160   20.2429 H   0  0  0  0  0  0
  -29.9256  -23.4077   19.5762 H   0  0  0  0  0  0
  -29.3170  -23.2577   21.1849 H   0  0  0  0  0  0
  -30.4751  -17.8287   21.5744 H   0  0  0  0  0  0
  -31.1178  -17.7353   19.9785 H   0  0  0  0  0  0
  -27.0948  -24.3555   20.4506 H   0  0  0  0  0  0
  -27.7549  -24.5512   18.8398 H   0  0  0  0  0  0
  -28.7937  -15.9587   20.6018 H   0  0  0  0  0  0
  1 25  1  0  0  0
  1 30  2  0  0  0
  1 82  1  0  0  0
  2  3  1  0  0  0
  2 25  1  0  0  0
  2 83  1  0  0  0
  2 84  1  0  0  0
  3  4  1  0  0  0
  3 85  1  0  0  0
  3 86  1  0  0  0
  4  5  1  0  0  0
  4 87  1  0  0  0
  4 88  1  0  0  0
  5  6  1  0  0  0
  5 26  1  0  0  0
  5 89  1  0  0  0
  6 25  1  0  0  0
  6 90  1  0  0  0
  6 91  1  0  0  0
  7  8  2  0  0  0
  7 26  1  0  0  0
  7 29  1  0  0  0
  8  9  1  0  0  0
  8 22  1  0  0  0
  9 10  1  0  0  0
  9 27  2  0  0  0
 10 11  2  0  0  0
 10 15  1  0  0  0
 11 12  1  0  0  0
 11 92  1  0  0  0
 12 13  2  0  0  0
 12 93  1  0  0  0
 13 14  1  0  0  0
 13 31  1  0  0  0
 14 15  2  0  0  0
 14 94  1  0  0  0
 15 95  1  0  0  0
 16 17  2  0  0  0
 16 21  1  0  0  0
 16 31  1  0  0  0
 17 18  1  0  0  0
 17 96  1  0  0  0
 18 19  2  0  0  0
 18 97  1  0  0  0
 19 20  1  0  0  0
 19 24  1  0  0  0
 20 21  2  0  0  0
 20 98  1  0  0  0
 21 23  1  0  0  0
 22 28  1  0  0  0
 22 32  2  0  0  0
 26 27  1  0  0  0
 28 99  1  0  0  0
 28100  1  0  0  0
 29101  1  0  0  0
 29102  1  0  0  0
 33 34  1  0  0  0
 33 66  1  0  0  0
 33 70  2  0  0  0
 34 36  1  0  0  0
 34 59  1  0  0  0
 34103  1  0  0  0
 35 44  2  0  0  0
 35 45  1  0  0  0
 35 68  1  0  0  0
 36 56  1  0  0  0
 36104  1  0  0  0
 37 39  1  0  0  0
 37 47  1  0  0  0
 37 66  1  0  0  0
 37105  1  0  0  0
 38 43  2  0  0  0
 38 46  1  0  0  0
 38 47  1  0  0  0
 39 64  1  0  0  0
 39 67  2  0  0  0
 40 52  1  0  0  0
 40 53  2  0  0  0
 40 58  1  0  0  0
 41106  1  0  0  0
 41107  1  0  0  0
 41108  1  0  0  0
 41 48  1  0  0  0
 42 43  1  0  0  0
 42 66  1  0  0  0
 42109  1  0  0  0
 42110  1  0  0  0
 43 44  1  0  0  0
 44111  1  0  0  0
 45 46  2  0  0  0
 45112  1  0  0  0
 46113  1  0  0  0
 47114  1  0  0  0
 47115  1  0  0  0
 48 56  1  0  0  0
 48 65  1  0  0  0
 48116  1  0  0  0
 49 50  1  0  0  0
 49 53  1  0  0  0
 49 64  1  0  0  0
 49117  1  0  0  0
 50 51  1  0  0  0
 50118  1  0  0  0
 50119  1  0  0  0
 51 52  1  0  0  0
 51120  1  0  0  0
 51121  1  0  0  0
 52122  1  0  0  0
 52123  1  0  0  0
 53 54  1  0  0  0
 54 55  2  0  0  0
 54124  1  0  0  0
 55 57  1  0  0  0
 55125  1  0  0  0
 56 69  2  0  0  0
 57 58  2  0  0  0
 57126  1  0  0  0
 58127  1  0  0  0
 59 60  1  0  0  0
 59 61  1  0  0  0
 59 62  1  0  0  0
 60128  1  0  0  0
 60129  1  0  0  0
 60130  1  0  0  0
 61131  1  0  0  0
 61132  1  0  0  0
 61133  1  0  0  0
 62134  1  0  0  0
 62135  1  0  0  0
 62136  1  0  0  0
 63 65  1  0  0  0
 63137  1  0  0  0
 63138  1  0  0  0
 63139  1  0  0  0
 64140  1  0  0  0
 65141  1  0  0  0
 68 81  1  0  0  0
 71 72  2  0  0  0
 71 73  1  0  0  0
 71142  1  0  0  0
 72 74  1  0  0  0
 72143  1  0  0  0
 73 76  2  0  0  0
 73 77  1  0  0  0
 74 75  2  0  0  0
 74 80  1  0  0  0
 75 76  1  0  0  0
 75 78  1  0  0  0
 76 79  1  0  0  0
 77144  1  0  0  0
 77145  1  0  0  0
 77146  1  0  0  0
 78147  1  0  0  0
 78148  1  0  0  0
 78149  1  0  0  0
 79 81  1  0  0  0
 79150  1  0  0  0
 79151  1  0  0  0
 80 82  1  0  0  0
 80152  1  0  0  0
 80153  1  0  0  0
 81154  1  0  0  0
 81155  1  0  0  0
 82156  1  0  0  0
M  ISO  4   1 100  68 101  81 101  82 100
M  END
> <chiral flag>
0

> <version>
0

> <s_m_source_file>
/data/baiqing/PycharmProjects/Reinvent-master-3.2/result/LINK_invent/BTK/process_docking_weight1_custom_sum_contain_oxygen_bond_distance_aromatic_linkinvent_7_9_3/rearranged_h_0035.sdf

> <i_m_source_file_index>
13

> <r_mmod_Potential_Energy-OPLS-2005>
464.687255859375

> <r_mmod_Stretch_Energy-OPLS-2005>
288.389801025391

> <r_mmod_Bend_Energy-OPLS-2005>
259.789855957031

> <r_mmod_Torsional_Energy-OPLS-2005>
200.698608398438

> <r_mmod_Improper_Torsional_Energy-OPLS-2005>
4.84215497970581

> <r_mmod_Van_der_Waal_Energy-OPLS-2005>
133.853363037109

> <r_mmod_Electrostatic_Energy-OPLS-2005>
-412.460876464844

> <r_mmod_Solvation_Energy-OPLS-2005>
-212.253890991211

> <b_mmod_Minimization_Converged-OPLS-2005>
0

> <r_mmod_RMS_Derivative-OPLS-2005>
5.21337509155273

$$$$
13
                    3D
 Structure written by MMmdl.
155163  0  0  1  0            999 V2000
  -30.5272  -14.9773   20.4228 C   0  0  0  0  0  0
  -30.4398  -12.6089   19.5018 C   0  0  0  0  0  0
  -29.5222  -12.5332   18.2589 C   0  0  0  0  0  0
  -28.0561  -12.3141   18.6769 C   0  0  0  0  0  0
  -27.6270  -13.2501   19.8370 C   0  0  2  0  0  0
  -28.6680  -13.2893   20.9754 C   0  0  0  0  0  0
  -25.2449  -13.8216   20.5713 C   0  0  0  0  0  0
  -24.1770  -13.0437   20.9233 C   0  0  0  0  0  0
  -24.6390  -11.6924   20.8755 C   0  0  0  0  0  0
  -23.9077  -10.4292   21.0408 C   0  0  0  0  0  0
  -24.3625   -9.4207   21.9185 C   0  0  0  0  0  0
  -23.6298   -8.2242   22.0753 C   0  0  0  0  0  0
  -22.4280   -8.0280   21.3544 C   0  0  0  0  0  0
  -21.9918   -9.0255   20.4646 C   0  0  0  0  0  0
  -22.7248  -10.2133   20.3057 C   0  0  0  0  0  0
  -21.6854   -6.0736   22.5278 C   0  0  0  0  0  0
  -21.4015   -6.5640   23.8211 C   0  0  0  0  0  0
  -21.3661   -5.6792   24.9174 C   0  0  0  0  0  0
  -21.6044   -4.3055   24.7224 C   0  0  0  0  0  0
  -21.8819   -3.8147   23.4346 C   0  0  0  0  0  0
  -21.9193   -4.6963   22.3402 C   0  0  0  0  0  0
  -22.7791  -13.5206   21.1888 C   0  0  0  0  0  0
  -22.1662   -4.2149   21.0979 F   0  0  0  0  0  0
  -21.5629   -3.4539   25.7737 F   0  0  0  0  0  0
  -29.9387  -13.7118   20.3742 N   0  0  0  0  0  0
  -26.2871  -12.9451   20.3238 N   0  0  0  0  0  0
  -25.9321  -11.6579   20.5735 N   0  0  0  0  0  0
  -22.0444  -12.8191   22.0444 N   0  0  0  0  0  0
  -25.4109  -15.1946   20.4134 N   0  0  0  0  0  0
  -31.7338  -15.0389   20.1624 O   0  0  0  0  0  0
  -21.6642   -6.8879   21.4240 O   0  0  0  0  0  0
  -22.3472  -14.5508   20.6730 O   0  0  0  0  0  0
  -24.6447  -31.8421   23.1875 C   0  0  0  0  0  0
  -25.9214  -32.4682   23.8266 C   0  0  1  0  0  0
  -27.2067  -27.0911   20.1859 C   0  0  0  0  0  0
  -25.5956  -33.8491   24.2178 N   0  0  0  0  0  0
  -23.4496  -30.4597   21.5335 C   0  0  2  0  0  0
  -24.8984  -28.8736   20.1215 C   0  0  0  0  0  0
  -22.7570  -29.4534   22.4864 C   0  0  0  0  0  0
  -18.0307  -28.1393   22.8474 C   0  0  0  0  0  0
  -24.1492  -36.7250   23.2643 C   0  0  0  0  0  0
  -26.0069  -30.6987   21.3972 C   0  0  0  0  0  0
  -26.0729  -29.3007   20.7541 C   0  0  0  0  0  0
  -27.2267  -28.4257   20.7701 C   0  0  0  0  0  0
  -26.0270  -26.7989   19.4700 C   0  0  0  0  0  0
  -24.8888  -27.6348   19.4637 C   0  0  0  0  0  0
  -23.6797  -29.7839   20.1555 C   0  0  0  0  0  0
  -25.4126  -36.3025   24.0313 C   0  0  1  0  0  0
  -20.5918  -28.3718   23.1231 C   0  0  2  0  0  0
  -20.6793  -26.9420   22.5402 C   0  0  0  0  0  0
  -19.5767  -26.6374   21.5211 C   0  0  0  0  0  0
  -18.1947  -26.7931   22.1621 C   0  0  0  0  0  0
  -19.1563  -28.8875   23.2845 C   0  0  0  0  0  0
  -18.9479  -30.1470   23.8872 C   0  0  0  0  0  0
  -17.6475  -30.6589   24.0558 C   0  0  0  0  0  0
  -25.9078  -34.9401   23.5056 C   0  0  0  0  0  0
  -16.5367  -29.9081   23.6335 C   0  0  0  0  0  0
  -16.7291  -28.6500   23.0355 C   0  0  0  0  0  0
  -26.4529  -31.6562   25.0720 C   0  0  0  0  0  0
  -25.3703  -31.3761   26.1408 C   0  0  0  0  0  0
  -27.0404  -30.2952   24.6334 C   0  0  0  0  0  0
  -27.6051  -32.4339   25.7507 C   0  0  0  0  0  0
  -27.5575  -37.1783   24.8465 C   0  0  0  0  0  0
  -21.4263  -29.3042   22.3603 N   0  0  0  0  0  0
  -26.4287  -37.3741   23.9407 N   0  0  0  0  0  0
  -24.7201  -31.0239   22.0935 N   0  0  0  0  0  0
  -23.4200  -28.8088   23.3029 O   0  0  0  0  0  0
  -28.3014  -26.1474   20.1092 O   0  0  0  0  0  0
  -26.5667  -34.8902   22.4638 O   0  0  0  0  0  0
  -23.5560  -32.1322   23.7071 O   0  0  0  0  0  0
  -26.2971  -23.6636   20.3932 C   0  0  0  0  0  0
  -26.7369  -21.0347   19.9620 C   0  0  0  0  0  0
  -27.6593  -23.2986   20.3731 C   0  0  0  0  0  0
  -27.9064  -21.7838   20.2593 C   0  0  0  0  0  0
  -25.2580  -22.7736   20.1333 C   0  0  0  0  0  0
  -23.8127  -23.2267   20.1443 C   0  0  0  0  0  0
  -29.1698  -20.7130   20.4195 C   0  0  0  0  0  0
  -28.5219  -24.6714   20.6569 C   0  0  0  0  0  0
  -28.9607  -18.9968   20.3970 C   0  0  0  0  0  0
  -30.0880  -17.7275   20.5232 C   0  0  0  0  0  0
  -25.4763  -21.4852   19.8782 N   0  0  0  0  0  0
  -29.7458  -16.1684   20.5602 N   0  0  0  0  0  0
  -31.4718  -12.7741   19.1889 H   0  0  0  0  0  0
  -30.4414  -11.6610   20.0421 H   0  0  0  0  0  0
  -29.8470  -11.7308   17.5952 H   0  0  0  0  0  0
  -29.6055  -13.4583   17.6861 H   0  0  0  0  0  0
  -27.9568  -11.2738   18.9893 H   0  0  0  0  0  0
  -27.3928  -12.4396   17.8204 H   0  0  0  0  0  0
  -27.5867  -14.2498   19.4035 H   0  0  0  0  0  0
  -28.7628  -12.3159   21.4590 H   0  0  0  0  0  0
  -28.3620  -13.9930   21.7512 H   0  0  0  0  0  0
  -25.2768   -9.5683   22.4763 H   0  0  0  0  0  0
  -24.0006   -7.4634   22.7473 H   0  0  0  0  0  0
  -21.0849   -8.8775   19.8951 H   0  0  0  0  0  0
  -22.3706  -10.9673   19.6168 H   0  0  0  0  0  0
  -21.2008   -7.6148   23.9714 H   0  0  0  0  0  0
  -21.1483   -6.0523   25.9076 H   0  0  0  0  0  0
  -22.0597   -2.7609   23.2846 H   0  0  0  0  0  0
  -22.4072  -11.9859   22.4835 H   0  0  0  0  0  0
  -21.1057  -13.1204   22.2648 H   0  0  0  0  0  0
  -24.6389  -15.8434   20.5227 H   0  0  0  0  0  0
  -26.2478  -15.6351   20.0550 H   0  0  0  0  0  0
  -26.7275  -32.5278   23.0987 H   0  0  0  0  0  0
  -25.0074  -33.9603   25.0306 H   0  0  0  0  0  0
  -22.7539  -31.2863   21.3752 H   0  0  0  0  0  0
  -23.3761  -35.9575   23.3291 H   0  0  0  0  0  0
  -24.3575  -36.8898   22.2060 H   0  0  0  0  0  0
  -23.7242  -37.6438   23.6691 H   0  0  0  0  0  0
  -26.1671  -31.4430   20.6161 H   0  0  0  0  0  0
  -26.8767  -30.7548   22.0398 H   0  0  0  0  0  0
  -28.1286  -28.7583   21.2645 H   0  0  0  0  0  0
  -25.9743  -25.8829   18.9000 H   0  0  0  0  0  0
  -24.0048  -27.3150   18.9295 H   0  0  0  0  0  0
  -23.8245  -30.5552   19.3982 H   0  0  0  0  0  0
  -22.7933  -29.2293   19.8422 H   0  0  0  0  0  0
  -25.1316  -36.1850   25.0805 H   0  0  0  0  0  0
  -21.0008  -28.3310   24.1354 H   0  0  0  0  0  0
  -20.5688  -26.2331   23.3622 H   0  0  0  0  0  0
  -21.6659  -26.7425   22.1199 H   0  0  0  0  0  0
  -19.6929  -25.6277   21.1260 H   0  0  0  0  0  0
  -19.6706  -27.3168   20.6728 H   0  0  0  0  0  0
  -17.4216  -26.6673   21.4025 H   0  0  0  0  0  0
  -18.0347  -26.0079   22.9024 H   0  0  0  0  0  0
  -19.7954  -30.7293   24.2231 H   0  0  0  0  0  0
  -17.5028  -31.6267   24.5164 H   0  0  0  0  0  0
  -15.5365  -30.2975   23.7672 H   0  0  0  0  0  0
  -15.8692  -28.0810   22.7084 H   0  0  0  0  0  0
  -24.5893  -30.7099   25.7725 H   0  0  0  0  0  0
  -24.8882  -32.2945   26.4764 H   0  0  0  0  0  0
  -25.7977  -30.8978   27.0230 H   0  0  0  0  0  0
  -26.3033  -29.6662   24.1329 H   0  0  0  0  0  0
  -27.3985  -29.7268   25.4928 H   0  0  0  0  0  0
  -27.8955  -30.4175   23.9684 H   0  0  0  0  0  0
  -27.2636  -33.3661   26.2019 H   0  0  0  0  0  0
  -28.3894  -32.6866   25.0359 H   0  0  0  0  0  0
  -28.0684  -31.8511   26.5478 H   0  0  0  0  0  0
  -28.2584  -38.0087   24.7512 H   0  0  0  0  0  0
  -28.1080  -36.2615   24.6295 H   0  0  0  0  0  0
  -27.2291  -37.1431   25.8868 H   0  0  0  0  0  0
  -20.9481  -29.8746   21.6769 H   0  0  0  0  0  0
  -26.0152  -38.2808   24.1409 H   0  0  0  0  0  0
  -26.0271  -24.6674   20.6664 H   0  0  0  0  0  0
  -26.7636  -19.9715   19.8075 H   0  0  0  0  0  0
  -23.2893  -22.8049   21.0025 H   0  0  0  0  0  0
  -23.3007  -22.9046   19.2373 H   0  0  0  0  0  0
  -23.7371  -24.3128   20.2031 H   0  0  0  0  0  0
  -29.8855  -20.9661   19.6369 H   0  0  0  0  0  0
  -29.6702  -20.9698   21.3536 H   0  0  0  0  0  0
  -29.5454  -24.4197   20.3794 H   0  0  0  0  0  0
  -28.5531  -24.7706   21.7422 H   0  0  0  0  0  0
  -28.4616  -18.7758   19.4538 H   0  0  0  0  0  0
  -28.2212  -18.7857   21.1700 H   0  0  0  0  0  0
  -30.8019  -17.8548   19.7083 H   0  0  0  0  0  0
  -30.6704  -17.9147   21.4261 H   0  0  0  0  0  0
  -28.7691  -15.9703   20.7194 H   0  0  0  0  0  0
  1 25  1  0  0  0
  1 30  2  0  0  0
  1 82  1  0  0  0
  2  3  1  0  0  0
  2 25  1  0  0  0
  2 83  1  0  0  0
  2 84  1  0  0  0
  3  4  1  0  0  0
  3 85  1  0  0  0
  3 86  1  0  0  0
  4  5  1  0  0  0
  4 87  1  0  0  0
  4 88  1  0  0  0
  5  6  1  0  0  0
  5 26  1  0  0  0
  5 89  1  0  0  0
  6 25  1  0  0  0
  6 90  1  0  0  0
  6 91  1  0  0  0
  7  8  2  0  0  0
  7 26  1  0  0  0
  7 29  1  0  0  0
  8  9  1  0  0  0
  8 22  1  0  0  0
  9 10  1  0  0  0
  9 27  2  0  0  0
 10 11  2  0  0  0
 10 15  1  0  0  0
 11 12  1  0  0  0
 11 92  1  0  0  0
 12 13  2  0  0  0
 12 93  1  0  0  0
 13 14  1  0  0  0
 13 31  1  0  0  0
 14 15  2  0  0  0
 14 94  1  0  0  0
 15 95  1  0  0  0
 16 17  2  0  0  0
 16 21  1  0  0  0
 16 31  1  0  0  0
 17 18  1  0  0  0
 17 96  1  0  0  0
 18 19  2  0  0  0
 18 97  1  0  0  0
 19 20  1  0  0  0
 19 24  1  0  0  0
 20 21  2  0  0  0
 20 98  1  0  0  0
 21 23  1  0  0  0
 22 28  1  0  0  0
 22 32  2  0  0  0
 26 27  1  0  0  0
 28 99  1  0  0  0
 28100  1  0  0  0
 29101  1  0  0  0
 29102  1  0  0  0
 33 34  1  0  0  0
 33 66  1  0  0  0
 33 70  2  0  0  0
 34 36  1  0  0  0
 34 59  1  0  0  0
 34103  1  0  0  0
 35 44  2  0  0  0
 35 45  1  0  0  0
 35 68  1  0  0  0
 36 56  1  0  0  0
 36104  1  0  0  0
 37 39  1  0  0  0
 37 47  1  0  0  0
 37 66  1  0  0  0
 37105  1  0  0  0
 38 43  2  0  0  0
 38 46  1  0  0  0
 38 47  1  0  0  0
 39 64  1  0  0  0
 39 67  2  0  0  0
 40 52  1  0  0  0
 40 53  2  0  0  0
 40 58  1  0  0  0
 41106  1  0  0  0
 41107  1  0  0  0
 41108  1  0  0  0
 41 48  1  0  0  0
 42 43  1  0  0  0
 42 66  1  0  0  0
 42109  1  0  0  0
 42110  1  0  0  0
 43 44  1  0  0  0
 44111  1  0  0  0
 45 46  2  0  0  0
 45112  1  0  0  0
 46113  1  0  0  0
 47114  1  0  0  0
 47115  1  0  0  0
 48 56  1  0  0  0
 48 65  1  0  0  0
 48116  1  0  0  0
 49 50  1  0  0  0
 49 53  1  0  0  0
 49 64  1  0  0  0
 49117  1  0  0  0
 50 51  1  0  0  0
 50118  1  0  0  0
 50119  1  0  0  0
 51 52  1  0  0  0
 51120  1  0  0  0
 51121  1  0  0  0
 52122  1  0  0  0
 52123  1  0  0  0
 53 54  1  0  0  0
 54 55  2  0  0  0
 54124  1  0  0  0
 55 57  1  0  0  0
 55125  1  0  0  0
 56 69  2  0  0  0
 57 58  2  0  0  0
 57126  1  0  0  0
 58127  1  0  0  0
 59 60  1  0  0  0
 59 61  1  0  0  0
 59 62  1  0  0  0
 60128  1  0  0  0
 60129  1  0  0  0
 60130  1  0  0  0
 61131  1  0  0  0
 61132  1  0  0  0
 61133  1  0  0  0
 62134  1  0  0  0
 62135  1  0  0  0
 62136  1  0  0  0
 63 65  1  0  0  0
 63137  1  0  0  0
 63138  1  0  0  0
 63139  1  0  0  0
 64140  1  0  0  0
 65141  1  0  0  0
 68 78  1  0  0  0
 71 73  2  0  0  0
 71 75  1  0  0  0
 71142  1  0  0  0
 72 74  2  0  0  0
 72 81  1  0  0  0
 72143  1  0  0  0
 73 74  1  0  0  0
 73 78  1  0  0  0
 74 77  1  0  0  0
 75 76  1  0  0  0
 75 81  2  0  0  0
 76144  1  0  0  0
 76145  1  0  0  0
 76146  1  0  0  0
 77 79  1  0  0  0
 77147  1  0  0  0
 77148  1  0  0  0
 78149  1  0  0  0
 78150  1  0  0  0
 79 80  1  0  0  0
 79151  1  0  0  0
 79152  1  0  0  0
 80 82  1  0  0  0
 80153  1  0  0  0
 80154  1  0  0  0
 82155  1  0  0  0
M  ISO  4   1 100  68 101  78 101  82 100
M  END
> <chiral flag>
0

> <version>
0

> <s_m_source_file>
/data/baiqing/PycharmProjects/Reinvent-master-3.2/result/LINK_invent/BTK/process_docking_weight1_custom_sum_contain_oxygen_bond_distance_aromatic_linkinvent_7_9_3/rearranged_h_0035.sdf

> <i_m_source_file_index>
14

> <r_mmod_Potential_Energy-OPLS-2005>
571.636901855469

> <r_mmod_Stretch_Energy-OPLS-2005>
331.643432617188

> <r_mmod_Bend_Energy-OPLS-2005>
380.7587890625

> <r_mmod_Torsional_Energy-OPLS-2005>
231.391403198242

> <r_mmod_Improper_Torsional_Energy-OPLS-2005>
5.85608577728271

> <r_mmod_Van_der_Waal_Energy-OPLS-2005>
138.974029541016

> <r_mmod_Electrostatic_Energy-OPLS-2005>
-499.144775390625

> <r_mmod_Solvation_Energy-OPLS-2005>
-227.695724487305

> <b_mmod_Minimization_Converged-OPLS-2005>
0

> <r_mmod_RMS_Derivative-OPLS-2005>
0.184875249862671

$$$$
14
                    3D
 Structure written by MMmdl.
169177  0  0  1  0            999 V2000
  -30.7372  -14.3401   20.6754 C   0  0  0  0  0  0
  -30.4070  -12.2716   19.3835 C   0  0  0  0  0  0
  -29.4765  -12.5390   18.1839 C   0  0  0  0  0  0
  -27.9964  -12.4126   18.5948 C   0  0  0  0  0  0
  -27.6632  -13.2014   19.8898 C   0  0  2  0  0  0
  -28.6972  -12.8930   20.9933 C   0  0  0  0  0  0
  -25.2562  -13.8151   20.5675 C   0  0  0  0  0  0
  -24.1818  -13.0442   20.9164 C   0  0  0  0  0  0
  -24.6378  -11.6913   20.8737 C   0  0  0  0  0  0
  -23.9044  -10.4296   21.0404 C   0  0  0  0  0  0
  -24.3605   -9.4220   21.9178 C   0  0  0  0  0  0
  -23.6290   -8.2249   22.0758 C   0  0  0  0  0  0
  -22.4258   -8.0288   21.3559 C   0  0  0  0  0  0
  -21.9905   -9.0248   20.4647 C   0  0  0  0  0  0
  -22.7230  -10.2135   20.3059 C   0  0  0  0  0  0
  -21.6841   -6.0739   22.5287 C   0  0  0  0  0  0
  -21.3997   -6.5643   23.8216 C   0  0  0  0  0  0
  -21.3663   -5.6805   24.9192 C   0  0  0  0  0  0
  -21.6036   -4.3065   24.7240 C   0  0  0  0  0  0
  -21.8813   -3.8159   23.4352 C   0  0  0  0  0  0
  -21.9202   -4.6964   22.3413 C   0  0  0  0  0  0
  -22.7844  -13.5238   21.1881 C   0  0  0  0  0  0
  -22.1665   -4.2160   21.0986 F   0  0  0  0  0  0
  -21.5631   -3.4560   25.7747 F   0  0  0  0  0  0
  -30.0357  -13.2026   20.4564 N   0  0  0  0  0  0
  -26.3005  -12.9323   20.3431 N   0  0  0  0  0  0
  -25.9296  -11.6478   20.5791 N   0  0  0  0  0  0
  -22.0528  -12.8173   22.0416 N   0  0  0  0  0  0
  -25.4332  -15.1869   20.4042 N   0  0  0  0  0  0
  -31.8093  -14.5958   20.1203 O   0  0  0  0  0  0
  -21.6644   -6.8890   21.4245 O   0  0  0  0  0  0
  -22.3530  -14.5575   20.6803 O   0  0  0  0  0  0
  -24.6128  -31.8669   23.2113 C   0  0  0  0  0  0
  -25.9031  -32.4801   23.8399 C   0  0  1  0  0  0
  -27.2638  -27.4709   20.0810 C   0  0  0  0  0  0
  -25.5898  -33.8606   24.2321 N   0  0  0  0  0  0
  -23.4022  -30.4892   21.5460 C   0  0  2  0  0  0
  -24.8562  -28.9600   20.1090 C   0  0  0  0  0  0
  -22.7399  -29.4646   22.4960 C   0  0  0  0  0  0
  -18.0274  -28.1392   22.8471 C   0  0  0  0  0  0
  -24.1471  -36.7306   23.2636 C   0  0  0  0  0  0
  -25.9287  -30.8398   21.3662 C   0  0  0  0  0  0
  -26.0086  -29.4761   20.7138 C   0  0  0  0  0  0
  -27.2083  -28.7334   20.7067 C   0  0  0  0  0  0
  -26.0901  -26.9536   19.4830 C   0  0  0  0  0  0
  -24.8902  -27.6941   19.4957 C   0  0  0  0  0  0
  -23.6128  -29.8201   20.1596 C   0  0  0  0  0  0
  -25.4094  -36.3095   24.0333 C   0  0  1  0  0  0
  -20.5860  -28.3675   23.1297 C   0  0  2  0  0  0
  -20.6757  -26.9408   22.5425 C   0  0  0  0  0  0
  -19.5757  -26.6389   21.5201 C   0  0  0  0  0  0
  -18.1915  -26.7943   22.1582 C   0  0  0  0  0  0
  -19.1524  -28.8850   23.2884 C   0  0  0  0  0  0
  -18.9452  -30.1454   23.8905 C   0  0  0  0  0  0
  -17.6460  -30.6587   24.0578 C   0  0  0  0  0  0
  -25.9033  -34.9461   23.5124 C   0  0  0  0  0  0
  -16.5348  -29.9092   23.6343 C   0  0  0  0  0  0
  -16.7275  -28.6517   23.0338 C   0  0  0  0  0  0
  -26.4482  -31.6589   25.0730 C   0  0  0  0  0  0
  -25.3774  -31.3718   26.1502 C   0  0  0  0  0  0
  -27.0295  -30.3010   24.6131 C   0  0  0  0  0  0
  -27.6052  -32.4323   25.7482 C   0  0  0  0  0  0
  -27.5590  -37.1784   24.8441 C   0  0  0  0  0  0
  -21.4129  -29.3026   22.3680 N   0  0  0  0  0  0
  -26.4267  -37.3785   23.9434 N   0  0  0  0  0  0
  -24.6644  -31.0796   22.0993 N   0  0  0  0  0  0
  -23.4158  -28.8207   23.3017 O   0  0  0  0  0  0
  -28.4440  -26.7614   20.1293 O   0  0  0  0  0  0
  -26.5591  -34.8919   22.4688 O   0  0  0  0  0  0
  -23.5328  -32.1425   23.7512 O   0  0  0  0  0  0
  -32.0107  -24.4657   20.0427 C   0  0  0  0  0  0
  -31.4275  -23.4233   19.3924 C   0  0  0  0  0  0
  -30.1785  -23.9001   18.8791 C   0  0  0  0  0  0
  -30.0385  -25.2154   19.2596 C   0  0  0  0  0  0
  -29.1726  -23.1061   18.0791 C   0  0  0  0  0  0
  -31.4622  -26.5585   22.2401 C   0  0  0  0  0  0
  -32.0201  -22.0404   19.2962 C   0  0  0  0  0  0
  -28.9183  -26.1737   18.9207 C   0  0  0  0  0  0
  -30.8352  -17.4918   20.8589 C   0  0  0  0  0  0
  -31.1645  -18.9074   21.3493 C   0  0  0  0  0  0
  -31.4719  -26.7844   20.7190 C   0  0  0  0  0  0
  -30.7181  -16.4603   21.9922 C   0  0  0  0  0  0
  -31.7728  -19.7692   20.2267 C   0  0  0  0  0  0
  -31.1596  -25.5479   20.0217 N   0  0  0  0  0  0
  -30.1612  -15.1943   21.5296 N   0  0  0  0  0  0
  -31.4747  -21.2056   20.3786 N   0  3  0  0  0  0
  -31.4527  -12.3683   19.0855 H   0  0  0  0  0  0
  -30.2940  -11.2412   19.7236 H   0  0  0  0  0  0
  -29.6958  -11.8512   17.3689 H   0  0  0  0  0  0
  -29.6640  -13.5417   17.7940 H   0  0  0  0  0  0
  -27.7700  -11.3545   18.7298 H   0  0  0  0  0  0
  -27.3594  -12.7580   17.7782 H   0  0  0  0  0  0
  -27.7392  -14.2654   19.6606 H   0  0  0  0  0  0
  -28.6528  -11.8346   21.2505 H   0  0  0  0  0  0
  -28.4541  -13.4196   21.9187 H   0  0  0  0  0  0
  -25.2762   -9.5681   22.4742 H   0  0  0  0  0  0
  -24.0022   -7.4623   22.7438 H   0  0  0  0  0  0
  -21.0871   -8.8739   19.8910 H   0  0  0  0  0  0
  -22.3699  -10.9662   19.6155 H   0  0  0  0  0  0
  -21.1971   -7.6140   23.9714 H   0  0  0  0  0  0
  -21.1478   -6.0549   25.9090 H   0  0  0  0  0  0
  -22.0579   -2.7616   23.2871 H   0  0  0  0  0  0
  -22.4183  -11.9793   22.4708 H   0  0  0  0  0  0
  -21.1141  -13.1125   22.2679 H   0  0  0  0  0  0
  -24.6756  -15.8521   20.5145 H   0  0  0  0  0  0
  -26.2980  -15.6174   20.0982 H   0  0  0  0  0  0
  -26.7098  -32.5532   23.1167 H   0  0  0  0  0  0
  -25.0065  -33.9769   25.0472 H   0  0  0  0  0  0
  -22.6902  -31.3042   21.4024 H   0  0  0  0  0  0
  -23.3736  -35.9636   23.3255 H   0  0  0  0  0  0
  -24.3575  -36.8973   22.2066 H   0  0  0  0  0  0
  -23.7216  -37.6488   23.6689 H   0  0  0  0  0  0
  -26.0447  -31.6095   20.6006 H   0  0  0  0  0  0
  -26.8131  -30.8867   21.9903 H   0  0  0  0  0  0
  -28.0989  -29.1314   21.1747 H   0  0  0  0  0  0
  -26.0853  -25.9750   19.0266 H   0  0  0  0  0  0
  -24.0024  -27.2842   19.0337 H   0  0  0  0  0  0
  -23.7180  -30.5958   19.3990 H   0  0  0  0  0  0
  -22.7406  -29.2338   19.8633 H   0  0  0  0  0  0
  -25.1272  -36.1945   25.0821 H   0  0  0  0  0  0
  -20.9963  -28.3281   24.1413 H   0  0  0  0  0  0
  -20.5642  -26.2302   23.3624 H   0  0  0  0  0  0
  -21.6642  -26.7424   22.1251 H   0  0  0  0  0  0
  -19.6923  -25.6296   21.1239 H   0  0  0  0  0  0
  -19.6737  -27.3202   20.6735 H   0  0  0  0  0  0
  -17.4218  -26.6737   21.3942 H   0  0  0  0  0  0
  -18.0274  -26.0063   22.8947 H   0  0  0  0  0  0
  -19.7934  -30.7269   24.2266 H   0  0  0  0  0  0
  -17.5013  -31.6267   24.5192 H   0  0  0  0  0  0
  -15.5352  -30.3003   23.7651 H   0  0  0  0  0  0
  -15.8668  -28.0856   22.7025 H   0  0  0  0  0  0
  -24.5944  -30.7040   25.7897 H   0  0  0  0  0  0
  -24.8979  -32.2885   26.4945 H   0  0  0  0  0  0
  -25.8167  -30.8934   27.0264 H   0  0  0  0  0  0
  -26.2840  -29.6773   24.1186 H   0  0  0  0  0  0
  -27.4022  -29.7249   25.4609 H   0  0  0  0  0  0
  -27.8694  -30.4275   23.9294 H   0  0  0  0  0  0
  -27.2649  -33.3598   26.2099 H   0  0  0  0  0  0
  -28.3842  -32.6932   25.0308 H   0  0  0  0  0  0
  -28.0741  -31.8439   26.5377 H   0  0  0  0  0  0
  -28.2548  -38.0133   24.7554 H   0  0  0  0  0  0
  -28.1134  -36.2670   24.6151 H   0  0  0  0  0  0
  -27.2333  -37.1331   25.8842 H   0  0  0  0  0  0
  -20.9293  -29.8735   21.6886 H   0  0  0  0  0  0
  -26.0143  -38.2839   24.1513 H   0  0  0  0  0  0
  -32.9594  -24.5179   20.5637 H   0  0  0  0  0  0
  -29.5960  -22.1711   17.7122 H   0  0  0  0  0  0
  -28.8302  -23.6748   17.2118 H   0  0  0  0  0  0
  -28.3077  -22.8683   18.6999 H   0  0  0  0  0  0
  -31.7934  -27.4475   22.7741 H   0  0  0  0  0  0
  -32.1242  -25.7417   22.5309 H   0  0  0  0  0  0
  -30.4626  -26.3045   22.5939 H   0  0  0  0  0  0
  -33.1059  -22.0970   19.3893 H   0  0  0  0  0  0
  -31.8070  -21.6124   18.3168 H   0  0  0  0  0  0
  -28.1304  -25.6409   18.3899 H   0  0  0  0  0  0
  -29.2848  -26.9517   18.2506 H   0  0  0  0  0  0
  -31.6104  -17.1656   20.1657 H   0  0  0  0  0  0
  -29.9073  -17.5262   20.2860 H   0  0  0  0  0  0
  -31.8591  -18.8663   22.1885 H   0  0  0  0  0  0
  -30.2482  -19.3551   21.7364 H   0  0  0  0  0  0
  -32.4665  -27.1067   20.4035 H   0  0  0  0  0  0
  -30.7819  -27.5769   20.4348 H   0  0  0  0  0  0
  -30.0794  -16.8415   22.7878 H   0  0  0  0  0  0
  -31.6986  -16.2727   22.4309 H   0  0  0  0  0  0
  -31.3962  -19.4446   19.2564 H   0  0  0  0  0  0
  -32.8560  -19.6249   20.2039 H   0  0  0  0  0  0
  -29.2687  -14.9152   21.9121 H   0  0  0  0  0  0
  -30.4770  -21.3400   20.3861 H   0  0  0  0  0  0
  -31.8383  -21.5455   21.2536 H   0  0  0  0  0  0
  1 25  1  0  0  0
  1 30  2  0  0  0
  1 85  1  0  0  0
  2  3  1  0  0  0
  2 25  1  0  0  0
  2 87  1  0  0  0
  2 88  1  0  0  0
  3  4  1  0  0  0
  3 89  1  0  0  0
  3 90  1  0  0  0
  4  5  1  0  0  0
  4 91  1  0  0  0
  4 92  1  0  0  0
  5  6  1  0  0  0
  5 26  1  0  0  0
  5 93  1  0  0  0
  6 25  1  0  0  0
  6 94  1  0  0  0
  6 95  1  0  0  0
  7  8  2  0  0  0
  7 26  1  0  0  0
  7 29  1  0  0  0
  8  9  1  0  0  0
  8 22  1  0  0  0
  9 10  1  0  0  0
  9 27  2  0  0  0
 10 11  2  0  0  0
 10 15  1  0  0  0
 11 12  1  0  0  0
 11 96  1  0  0  0
 12 13  2  0  0  0
 12 97  1  0  0  0
 13 14  1  0  0  0
 13 31  1  0  0  0
 14 15  2  0  0  0
 14 98  1  0  0  0
 15 99  1  0  0  0
 16 17  2  0  0  0
 16 21  1  0  0  0
 16 31  1  0  0  0
 17 18  1  0  0  0
 17100  1  0  0  0
 18 19  2  0  0  0
 18101  1  0  0  0
 19 20  1  0  0  0
 19 24  1  0  0  0
 20 21  2  0  0  0
 20102  1  0  0  0
 21 23  1  0  0  0
 22 28  1  0  0  0
 22 32  2  0  0  0
 26 27  1  0  0  0
 28103  1  0  0  0
 28104  1  0  0  0
 29105  1  0  0  0
 29106  1  0  0  0
 33 34  1  0  0  0
 33 66  1  0  0  0
 33 70  2  0  0  0
 34 36  1  0  0  0
 34 59  1  0  0  0
 34107  1  0  0  0
 35 44  2  0  0  0
 35 45  1  0  0  0
 35 68  1  0  0  0
 36 56  1  0  0  0
 36108  1  0  0  0
 37 39  1  0  0  0
 37 47  1  0  0  0
 37 66  1  0  0  0
 37109  1  0  0  0
 38 43  2  0  0  0
 38 46  1  0  0  0
 38 47  1  0  0  0
 39 64  1  0  0  0
 39 67  2  0  0  0
 40 52  1  0  0  0
 40 53  2  0  0  0
 40 58  1  0  0  0
 41110  1  0  0  0
 41111  1  0  0  0
 41112  1  0  0  0
 41 48  1  0  0  0
 42 43  1  0  0  0
 42 66  1  0  0  0
 42113  1  0  0  0
 42114  1  0  0  0
 43 44  1  0  0  0
 44115  1  0  0  0
 45 46  2  0  0  0
 45116  1  0  0  0
 46117  1  0  0  0
 47118  1  0  0  0
 47119  1  0  0  0
 48 56  1  0  0  0
 48 65  1  0  0  0
 48120  1  0  0  0
 49 50  1  0  0  0
 49 53  1  0  0  0
 49 64  1  0  0  0
 49121  1  0  0  0
 50 51  1  0  0  0
 50122  1  0  0  0
 50123  1  0  0  0
 51 52  1  0  0  0
 51124  1  0  0  0
 51125  1  0  0  0
 52126  1  0  0  0
 52127  1  0  0  0
 53 54  1  0  0  0
 54 55  2  0  0  0
 54128  1  0  0  0
 55 57  1  0  0  0
 55129  1  0  0  0
 56 69  2  0  0  0
 57 58  2  0  0  0
 57130  1  0  0  0
 58131  1  0  0  0
 59 60  1  0  0  0
 59 61  1  0  0  0
 59 62  1  0  0  0
 60132  1  0  0  0
 60133  1  0  0  0
 60134  1  0  0  0
 61135  1  0  0  0
 61136  1  0  0  0
 61137  1  0  0  0
 62138  1  0  0  0
 62139  1  0  0  0
 62140  1  0  0  0
 63 65  1  0  0  0
 63141  1  0  0  0
 63142  1  0  0  0
 63143  1  0  0  0
 64144  1  0  0  0
 65145  1  0  0  0
 68 78  1  0  0  0
 71 72  2  0  0  0
 71 84  1  0  0  0
 71146  1  0  0  0
 72 73  1  0  0  0
 72 77  1  0  0  0
 73 74  2  0  0  0
 73 75  1  0  0  0
 74 78  1  0  0  0
 74 84  1  0  0  0
 75147  1  0  0  0
 75148  1  0  0  0
 75149  1  0  0  0
 76 81  1  0  0  0
 76150  1  0  0  0
 76151  1  0  0  0
 76152  1  0  0  0
 77 86  1  0  0  0
 77153  1  0  0  0
 77154  1  0  0  0
 78155  1  0  0  0
 78156  1  0  0  0
 79 80  1  0  0  0
 79 82  1  0  0  0
 79157  1  0  0  0
 79158  1  0  0  0
 80 83  1  0  0  0
 80159  1  0  0  0
 80160  1  0  0  0
 81 84  1  0  0  0
 81161  1  0  0  0
 81162  1  0  0  0
 82 85  1  0  0  0
 82163  1  0  0  0
 82164  1  0  0  0
 83 86  1  0  0  0
 83165  1  0  0  0
 83166  1  0  0  0
 85167  1  0  0  0
 86168  1  0  0  0
 86169  1  0  0  0
M  CHG  1  86   1
M  ISO  4   1 100  68 101  78 101  85 100
M  END
> <chiral flag>
0

> <version>
0

> <s_m_source_file>
/data/baiqing/PycharmProjects/Reinvent-master-3.2/result/LINK_invent/BTK/process_docking_weight1_custom_sum_contain_oxygen_bond_distance_aromatic_linkinvent_7_9_3/rearranged_h_0035.sdf

> <i_m_source_file_index>
15

> <r_mmod_Potential_Energy-OPLS-2005>
-276.495208740234

> <r_mmod_Stretch_Energy-OPLS-2005>
31.3324127197266

> <r_mmod_Bend_Energy-OPLS-2005>
98.4145736694336

> <r_mmod_Torsional_Energy-OPLS-2005>
218.915252685547

> <r_mmod_Improper_Torsional_Energy-OPLS-2005>
1.91293430328369

> <r_mmod_Van_der_Waal_Energy-OPLS-2005>
129.237579345703

> <r_mmod_Electrostatic_Energy-OPLS-2005>
-323.230163574219

> <r_mmod_Solvation_Energy-OPLS-2005>
-442.560119628906

> <b_mmod_Minimization_Converged-OPLS-2005>
0

> <r_mmod_RMS_Derivative-OPLS-2005>
4.01674461364746

$$$$
15
                    3D
 Structure written by MMmdl.
168176  0  0  1  0            999 V2000
  -30.6141  -14.8425   20.3429 C   0  0  0  0  0  0
  -30.4367  -12.5207   19.4332 C   0  0  0  0  0  0
  -29.4994  -12.4968   18.2091 C   0  0  0  0  0  0
  -28.0346  -12.3068   18.6502 C   0  0  0  0  0  0
  -27.6383  -13.2249   19.8362 C   0  0  2  0  0  0
  -28.6999  -13.2494   20.9511 C   0  0  0  0  0  0
  -25.2569  -13.8160   20.5741 C   0  0  0  0  0  0
  -24.1844  -13.0402   20.9218 C   0  0  0  0  0  0
  -24.6424  -11.6889   20.8753 C   0  0  0  0  0  0
  -23.9085  -10.4265   21.0403 C   0  0  0  0  0  0
  -24.3625   -9.4189   21.9184 C   0  0  0  0  0  0
  -23.6291   -8.2226   22.0761 C   0  0  0  0  0  0
  -22.4266   -8.0258   21.3547 C   0  0  0  0  0  0
  -21.9899   -9.0259   20.4671 C   0  0  0  0  0  0
  -22.7242  -10.2123   20.3078 C   0  0  0  0  0  0
  -21.6845   -6.0731   22.5283 C   0  0  0  0  0  0
  -21.4021   -6.5656   23.8208 C   0  0  0  0  0  0
  -21.3654   -5.6800   24.9172 C   0  0  0  0  0  0
  -21.6042   -4.3065   24.7222 C   0  0  0  0  0  0
  -21.8822   -3.8150   23.4351 C   0  0  0  0  0  0
  -21.9197   -4.6961   22.3398 C   0  0  0  0  0  0
  -22.7890  -13.5221   21.1827 C   0  0  0  0  0  0
  -22.1663   -4.2148   21.0975 F   0  0  0  0  0  0
  -21.5619   -3.4553   25.7734 F   0  0  0  0  0  0
  -29.9620  -13.6232   20.3028 N   0  0  0  0  0  0
  -26.2966  -12.9351   20.3320 N   0  0  0  0  0  0
  -25.9355  -11.6496   20.5793 N   0  0  0  0  0  0
  -22.0482  -12.8238   22.0365 N   0  0  0  0  0  0
  -25.4255  -15.1880   20.4189 N   0  0  0  0  0  0
  -31.8488  -14.8335   20.3085 O   0  0  0  0  0  0
  -21.6618   -6.8862   21.4237 O   0  0  0  0  0  0
  -22.3617  -14.5530   20.6638 O   0  0  0  0  0  0
  -24.6328  -31.8515   23.1992 C   0  0  0  0  0  0
  -25.9164  -32.4725   23.8313 C   0  0  1  0  0  0
  -27.2241  -27.2380   20.1138 C   0  0  0  0  0  0
  -25.5967  -33.8532   24.2251 N   0  0  0  0  0  0
  -23.4313  -30.4752   21.5397 C   0  0  2  0  0  0
  -24.8789  -28.9142   20.1076 C   0  0  0  0  0  0
  -22.7527  -29.4576   22.4892 C   0  0  0  0  0  0
  -18.0311  -28.1377   22.8503 C   0  0  0  0  0  0
  -24.1510  -36.7253   23.2636 C   0  0  0  0  0  0
  -25.9788  -30.7526   21.3885 C   0  0  0  0  0  0
  -26.0491  -29.3763   20.7204 C   0  0  0  0  0  0
  -27.2185  -28.5479   20.7149 C   0  0  0  0  0  0
  -26.0260  -26.8432   19.4802 C   0  0  0  0  0  0
  -24.8743  -27.6581   19.4796 C   0  0  0  0  0  0
  -23.6537  -29.8069   20.1542 C   0  0  0  0  0  0
  -25.4137  -36.3050   24.0323 C   0  0  1  0  0  0
  -20.5915  -28.3694   23.1291 C   0  0  2  0  0  0
  -20.6799  -26.9399   22.5478 C   0  0  0  0  0  0
  -19.5796  -26.6345   21.5270 C   0  0  0  0  0  0
  -18.1971  -26.7920   22.1656 C   0  0  0  0  0  0
  -19.1562  -28.8851   23.2889 C   0  0  0  0  0  0
  -18.9482  -30.1448   23.8916 C   0  0  0  0  0  0
  -17.6476  -30.6577   24.0554 C   0  0  0  0  0  0
  -25.9069  -34.9422   23.5089 C   0  0  0  0  0  0
  -16.5369  -29.9068   23.6330 C   0  0  0  0  0  0
  -16.7294  -28.6485   23.0361 C   0  0  0  0  0  0
  -26.4545  -31.6556   25.0694 C   0  0  0  0  0  0
  -25.3764  -31.3710   26.1398 C   0  0  0  0  0  0
  -27.0409  -30.2979   24.6209 C   0  0  0  0  0  0
  -27.6100  -32.4296   25.7450 C   0  0  0  0  0  0
  -27.5599  -37.1779   24.8467 C   0  0  0  0  0  0
  -21.4222  -29.3044   22.3651 N   0  0  0  0  0  0
  -26.4310  -37.3751   23.9404 N   0  0  0  0  0  0
  -24.6988  -31.0465   22.0976 N   0  0  0  0  0  0
  -23.4219  -28.8127   23.3004 O   0  0  0  0  0  0
  -28.3410  -26.3659   20.1767 O   0  0  0  0  0  0
  -26.5611  -34.8909   22.4641 O   0  0  0  0  0  0
  -23.5483  -32.1352   23.7302 O   0  0  0  0  0  0
  -28.6320  -21.1215   19.2584 C   0  0  0  0  0  0
  -29.4252  -19.7226   19.2833 C   0  0  0  0  0  0
  -28.8448  -21.2512   21.6560 C   0  0  0  0  0  0
  -29.0051  -22.1562   20.3849 C   0  0  2  0  0  0
  -29.2834  -18.7994   20.5613 C   0  0  2  0  0  0
  -29.6122  -19.8564   21.7030 C   0  0  2  0  0  0
  -29.4264  -19.2471   23.1044 C   0  0  0  0  0  0
  -27.6443  -16.5982   18.0791 C   0  0  0  0  0  0
  -28.2254  -23.6109   20.5502 C   0  0  0  0  0  0
  -30.1428  -17.3749   20.7131 C   0  0  0  0  0  0
  -29.0769  -16.5977   17.5303 C   0  0  0  0  0  0
  -30.2545  -16.3267   18.5039 C   0  0  0  0  0  0
  -28.4129  -24.9484   19.6343 C   0  0  0  0  0  0
  -29.9559  -16.0360   19.9396 N   0  0  0  0  0  0
  -31.4627  -12.6763   19.0973 H   0  0  0  0  0  0
  -30.4245  -11.5669   19.9651 H   0  0  0  0  0  0
  -29.7937  -11.7035   17.5180 H   0  0  0  0  0  0
  -29.5928  -13.4291   17.6531 H   0  0  0  0  0  0
  -27.9173  -11.2648   18.9438 H   0  0  0  0  0  0
  -27.3634  -12.4650   17.8045 H   0  0  0  0  0  0
  -27.6134  -14.2329   19.4389 H   0  0  0  0  0  0
  -28.7838  -12.2886   21.4577 H   0  0  0  0  0  0
  -28.4413  -13.9852   21.7139 H   0  0  0  0  0  0
  -25.2782   -9.5659   22.4759 H   0  0  0  0  0  0
  -23.9983   -7.4630   22.7506 H   0  0  0  0  0  0
  -21.0811   -8.8813   19.9009 H   0  0  0  0  0  0
  -22.3707  -10.9675   19.6200 H   0  0  0  0  0  0
  -21.2013   -7.6161   23.9733 H   0  0  0  0  0  0
  -21.1463   -6.0515   25.9074 H   0  0  0  0  0  0
  -22.0596   -2.7611   23.2848 H   0  0  0  0  0  0
  -22.4036  -11.9890   22.4768 H   0  0  0  0  0  0
  -21.1122  -13.1347   22.2553 H   0  0  0  0  0  0
  -24.6564  -15.8388   20.5243 H   0  0  0  0  0  0
  -26.2777  -15.6335   20.1057 H   0  0  0  0  0  0
  -26.7200  -32.5388   23.1021 H   0  0  0  0  0  0
  -25.0170  -33.9652   25.0442 H   0  0  0  0  0  0
  -22.7255  -31.2953   21.3921 H   0  0  0  0  0  0
  -23.3793  -35.9562   23.3283 H   0  0  0  0  0  0
  -24.3615  -36.8884   22.2052 H   0  0  0  0  0  0
  -23.7234  -37.6445   23.6661 H   0  0  0  0  0  0
  -26.1291  -31.5202   20.6288 H   0  0  0  0  0  0
  -26.8482  -30.7896   22.0322 H   0  0  0  0  0  0
  -28.1121  -28.8971   21.2159 H   0  0  0  0  0  0
  -25.9458  -25.8786   19.0042 H   0  0  0  0  0  0
  -23.9761  -27.2958   18.9977 H   0  0  0  0  0  0
  -23.7854  -30.5813   19.3962 H   0  0  0  0  0  0
  -22.7713  -29.2401   19.8549 H   0  0  0  0  0  0
  -25.1339  -36.1885   25.0815 H   0  0  0  0  0  0
  -21.0027  -28.3321   24.1417 H   0  0  0  0  0  0
  -20.5641  -26.2330   23.3714 H   0  0  0  0  0  0
  -21.6687  -26.7406   22.1314 H   0  0  0  0  0  0
  -19.6958  -25.6227   21.1367 H   0  0  0  0  0  0
  -19.6720  -27.3112   20.6765 H   0  0  0  0  0  0
  -17.4270  -26.6669   21.4032 H   0  0  0  0  0  0
  -18.0395  -26.0075   22.9070 H   0  0  0  0  0  0
  -19.7949  -30.7269   24.2295 H   0  0  0  0  0  0
  -17.5035  -31.6269   24.5123 H   0  0  0  0  0  0
  -15.5367  -30.2957   23.7629 H   0  0  0  0  0  0
  -15.8724  -28.0755   22.7084 H   0  0  0  0  0  0
  -24.5950  -30.7047   25.7728 H   0  0  0  0  0  0
  -24.8936  -32.2873   26.4805 H   0  0  0  0  0  0
  -25.8073  -30.8898   27.0177 H   0  0  0  0  0  0
  -26.3007  -29.6661   24.1276 H   0  0  0  0  0  0
  -27.4150  -29.7303   25.4735 H   0  0  0  0  0  0
  -27.8861  -30.4270   23.9438 H   0  0  0  0  0  0
  -27.2742  -33.3617   26.2003 H   0  0  0  0  0  0
  -28.3917  -32.6800   25.0266 H   0  0  0  0  0  0
  -28.0752  -31.8414   26.5368 H   0  0  0  0  0  0
  -28.2610  -38.0088   24.7554 H   0  0  0  0  0  0
  -28.1107  -36.2618   24.6271 H   0  0  0  0  0  0
  -27.2310  -37.1412   25.8868 H   0  0  0  0  0  0
  -20.9410  -29.8781   21.6857 H   0  0  0  0  0  0
  -26.0191  -38.2823   24.1413 H   0  0  0  0  0  0
  -27.5636  -20.9090   19.3190 H   0  0  0  0  0  0
  -28.7753  -21.5964   18.2880 H   0  0  0  0  0  0
  -30.4844  -19.9363   19.1334 H   0  0  0  0  0  0
  -29.1120  -19.1679   18.4079 H   0  0  0  0  0  0
  -27.7819  -21.0561   21.8082 H   0  0  0  0  0  0
  -29.1514  -21.8483   22.5181 H   0  0  0  0  0  0
  -30.0676  -22.3803   20.2754 H   0  0  0  0  0  0
  -28.2283  -18.5415   20.6521 H   0  0  0  0  0  0
  -30.6714  -20.1004   21.6065 H   0  0  0  0  0  0
  -29.4075  -20.0144   23.8807 H   0  0  0  0  0  0
  -30.2408  -18.5704   23.3603 H   0  0  0  0  0  0
  -28.4895  -18.6931   23.1714 H   0  0  0  0  0  0
  -27.1778  -15.6284   17.9101 H   0  0  0  0  0  0
  -27.0255  -17.3234   17.5476 H   0  0  0  0  0  0
  -27.5941  -16.8417   19.1373 H   0  0  0  0  0  0
  -28.4960  -23.9547   21.5476 H   0  0  0  0  0  0
  -27.1569  -23.4091   20.6250 H   0  0  0  0  0  0
  -29.9963  -17.0456   21.7409 H   0  0  0  0  0  0
  -31.2051  -17.6266   20.6701 H   0  0  0  0  0  0
  -29.1260  -15.8861   16.7051 H   0  0  0  0  0  0
  -29.2611  -17.5489   17.0291 H   0  0  0  0  0  0
  -30.9523  -17.1668   18.4325 H   0  0  0  0  0  0
  -30.8335  -15.5193   18.0418 H   0  0  0  0  0  0
  -29.4255  -24.8882   19.2358 H   0  0  0  0  0  0
  -27.7965  -24.8527   18.7414 H   0  0  0  0  0  0
  1 25  1  0  0  0
  1 30  2  0  0  0
  1 84  1  0  0  0
  2  3  1  0  0  0
  2 25  1  0  0  0
  2 85  1  0  0  0
  2 86  1  0  0  0
  3  4  1  0  0  0
  3 87  1  0  0  0
  3 88  1  0  0  0
  4  5  1  0  0  0
  4 89  1  0  0  0
  4 90  1  0  0  0
  5  6  1  0  0  0
  5 26  1  0  0  0
  5 91  1  0  0  0
  6 25  1  0  0  0
  6 92  1  0  0  0
  6 93  1  0  0  0
  7  8  2  0  0  0
  7 26  1  0  0  0
  7 29  1  0  0  0
  8  9  1  0  0  0
  8 22  1  0  0  0
  9 10  1  0  0  0
  9 27  2  0  0  0
 10 11  2  0  0  0
 10 15  1  0  0  0
 11 12  1  0  0  0
 11 94  1  0  0  0
 12 13  2  0  0  0
 12 95  1  0  0  0
 13 14  1  0  0  0
 13 31  1  0  0  0
 14 15  2  0  0  0
 14 96  1  0  0  0
 15 97  1  0  0  0
 16 17  2  0  0  0
 16 21  1  0  0  0
 16 31  1  0  0  0
 17 18  1  0  0  0
 17 98  1  0  0  0
 18 19  2  0  0  0
 18 99  1  0  0  0
 19 20  1  0  0  0
 19 24  1  0  0  0
 20 21  2  0  0  0
 20100  1  0  0  0
 21 23  1  0  0  0
 22 28  1  0  0  0
 22 32  2  0  0  0
 26 27  1  0  0  0
 28101  1  0  0  0
 28102  1  0  0  0
 29103  1  0  0  0
 29104  1  0  0  0
 33 34  1  0  0  0
 33 66  1  0  0  0
 33 70  2  0  0  0
 34 36  1  0  0  0
 34 59  1  0  0  0
 34105  1  0  0  0
 35 44  2  0  0  0
 35 45  1  0  0  0
 35 68  1  0  0  0
 36 56  1  0  0  0
 36106  1  0  0  0
 37 39  1  0  0  0
 37 47  1  0  0  0
 37 66  1  0  0  0
 37107  1  0  0  0
 38 43  2  0  0  0
 38 46  1  0  0  0
 38 47  1  0  0  0
 39 64  1  0  0  0
 39 67  2  0  0  0
 40 52  1  0  0  0
 40 53  2  0  0  0
 40 58  1  0  0  0
 41108  1  0  0  0
 41109  1  0  0  0
 41110  1  0  0  0
 41 48  1  0  0  0
 42 43  1  0  0  0
 42 66  1  0  0  0
 42111  1  0  0  0
 42112  1  0  0  0
 43 44  1  0  0  0
 44113  1  0  0  0
 45 46  2  0  0  0
 45114  1  0  0  0
 46115  1  0  0  0
 47116  1  0  0  0
 47117  1  0  0  0
 48 56  1  0  0  0
 48 65  1  0  0  0
 48118  1  0  0  0
 49 50  1  0  0  0
 49 53  1  0  0  0
 49 64  1  0  0  0
 49119  1  0  0  0
 50 51  1  0  0  0
 50120  1  0  0  0
 50121  1  0  0  0
 51 52  1  0  0  0
 51122  1  0  0  0
 51123  1  0  0  0
 52124  1  0  0  0
 52125  1  0  0  0
 53 54  1  0  0  0
 54 55  2  0  0  0
 54126  1  0  0  0
 55 57  1  0  0  0
 55127  1  0  0  0
 56 69  2  0  0  0
 57 58  2  0  0  0
 57128  1  0  0  0
 58129  1  0  0  0
 59 60  1  0  0  0
 59 61  1  0  0  0
 59 62  1  0  0  0
 60130  1  0  0  0
 60131  1  0  0  0
 60132  1  0  0  0
 61133  1  0  0  0
 61134  1  0  0  0
 61135  1  0  0  0
 62136  1  0  0  0
 62137  1  0  0  0
 62138  1  0  0  0
 63 65  1  0  0  0
 63139  1  0  0  0
 63140  1  0  0  0
 63141  1  0  0  0
 64142  1  0  0  0
 65143  1  0  0  0
 68 83  1  0  0  0
 71 72  1  0  0  0
 71 74  1  0  0  0
 71144  1  0  0  0
 71145  1  0  0  0
 72 75  1  0  0  0
 72146  1  0  0  0
 72147  1  0  0  0
 73 74  1  0  0  0
 73 76  1  0  0  0
 73148  1  0  0  0
 73149  1  0  0  0
 74 79  1  0  0  0
 74150  1  0  0  0
 75 76  1  0  0  0
 75 80  1  0  0  0
 75151  1  0  0  0
 76 77  1  0  0  0
 76152  1  0  0  0
 77153  1  0  0  0
 77154  1  0  0  0
 77155  1  0  0  0
 78 81  1  0  0  0
 78156  1  0  0  0
 78157  1  0  0  0
 78158  1  0  0  0
 79 83  1  0  0  0
 79159  1  0  0  0
 79160  1  0  0  0
 80 84  1  0  0  0
 80161  1  0  0  0
 80162  1  0  0  0
 81 82  1  0  0  0
 81163  1  0  0  0
 81164  1  0  0  0
 82 84  1  0  0  0
 82165  1  0  0  0
 82166  1  0  0  0
 83167  1  0  0  0
 83168  1  0  0  0
M  ISO  4   1 100  68 101  83 101  84 100
M  END
> <chiral flag>
0

> <version>
0

> <s_m_source_file>
/data/baiqing/PycharmProjects/Reinvent-master-3.2/result/LINK_invent/BTK/process_docking_weight1_custom_sum_contain_oxygen_bond_distance_aromatic_linkinvent_7_9_3/rearranged_h_0035.sdf

> <i_m_source_file_index>
16

> <r_mmod_Potential_Energy-OPLS-2005>
625.484680175781

> <r_mmod_Stretch_Energy-OPLS-2005>
173.682205200195

> <r_mmod_Bend_Energy-OPLS-2005>
286.163665771484

> <r_mmod_Torsional_Energy-OPLS-2005>
358.359893798828

> <r_mmod_Improper_Torsional_Energy-OPLS-2005>
20.2645320892334

> <r_mmod_Van_der_Waal_Energy-OPLS-2005>
121.102081298828

> <r_mmod_Electrostatic_Energy-OPLS-2005>
-286.812652587891

> <r_mmod_Solvation_Energy-OPLS-2005>
-174.053207397461

> <b_mmod_Minimization_Converged-OPLS-2005>
0

> <r_mmod_RMS_Derivative-OPLS-2005>
4.33438110351562

$$$$
16
                    3D
 Structure written by MMmdl.
159167  0  0  1  0            999 V2000
  -30.7057  -14.4240   20.4943 C   0  0  0  0  0  0
  -30.4027  -12.2495   19.4341 C   0  0  0  0  0  0
  -29.4906  -12.4786   18.2120 C   0  0  0  0  0  0
  -28.0096  -12.3587   18.6174 C   0  0  0  0  0  0
  -27.6556  -13.2026   19.8704 C   0  0  2  0  0  0
  -28.6953  -12.9961   20.9996 C   0  0  0  0  0  0
  -25.2561  -13.8156   20.5707 C   0  0  0  0  0  0
  -24.1803  -13.0432   20.9169 C   0  0  0  0  0  0
  -24.6365  -11.6904   20.8738 C   0  0  0  0  0  0
  -23.9065  -10.4278   21.0433 C   0  0  0  0  0  0
  -24.3627   -9.4194   21.9217 C   0  0  0  0  0  0
  -23.6289   -8.2233   22.0783 C   0  0  0  0  0  0
  -22.4272   -8.0273   21.3565 C   0  0  0  0  0  0
  -21.9920   -9.0252   20.4663 C   0  0  0  0  0  0
  -22.7254  -10.2123   20.3079 C   0  0  0  0  0  0
  -21.6842   -6.0723   22.5280 C   0  0  0  0  0  0
  -21.4000   -6.5639   23.8207 C   0  0  0  0  0  0
  -21.3659   -5.6809   24.9177 C   0  0  0  0  0  0
  -21.6041   -4.3065   24.7229 C   0  0  0  0  0  0
  -21.8824   -3.8142   23.4359 C   0  0  0  0  0  0
  -21.9201   -4.6945   22.3409 C   0  0  0  0  0  0
  -22.7834  -13.5234   21.1829 C   0  0  0  0  0  0
  -22.1681   -4.2132   21.0987 F   0  0  0  0  0  0
  -21.5623   -3.4567   25.7756 F   0  0  0  0  0  0
  -30.0354  -13.2470   20.4474 N   0  0  0  0  0  0
  -26.2975  -12.9319   20.3354 N   0  0  0  0  0  0
  -25.9275  -11.6484   20.5746 N   0  0  0  0  0  0
  -22.0479  -12.8206   22.0367 N   0  0  0  0  0  0
  -25.4308  -15.1876   20.4211 N   0  0  0  0  0  0
  -31.8775  -14.5482   20.1349 O   0  0  0  0  0  0
  -21.6633   -6.8865   21.4234 O   0  0  0  0  0  0
  -22.3531  -14.5547   20.6681 O   0  0  0  0  0  0
  -24.6103  -31.8709   23.2146 C   0  0  0  0  0  0
  -25.9025  -32.4833   23.8424 C   0  0  1  0  0  0
  -27.2255  -27.4793   20.0885 C   0  0  0  0  0  0
  -25.5918  -33.8633   24.2361 N   0  0  0  0  0  0
  -23.3945  -30.4966   21.5543 C   0  0  2  0  0  0
  -24.8387  -28.9727   20.1120 C   0  0  0  0  0  0
  -22.7375  -29.4673   22.5007 C   0  0  0  0  0  0
  -18.0263  -28.1372   22.8492 C   0  0  0  0  0  0
  -24.1481  -36.7303   23.2637 C   0  0  0  0  0  0
  -25.9197  -30.8506   21.3617 C   0  0  0  0  0  0
  -25.9974  -29.4914   20.7050 C   0  0  0  0  0  0
  -27.1974  -28.7525   20.6887 C   0  0  0  0  0  0
  -26.0573  -26.9700   19.4789 C   0  0  0  0  0  0
  -24.8618  -27.7095   19.4958 C   0  0  0  0  0  0
  -23.5984  -29.8317   20.1677 C   0  0  0  0  0  0
  -25.4103  -36.3110   24.0344 C   0  0  1  0  0  0
  -20.5844  -28.3648   23.1333 C   0  0  2  0  0  0
  -20.6750  -26.9384   22.5425 C   0  0  0  0  0  0
  -19.5742  -26.6373   21.5205 C   0  0  0  0  0  0
  -18.1905  -26.7934   22.1591 C   0  0  0  0  0  0
  -19.1510  -28.8822   23.2910 C   0  0  0  0  0  0
  -18.9442  -30.1436   23.8912 C   0  0  0  0  0  0
  -17.6452  -30.6582   24.0560 C   0  0  0  0  0  0
  -25.9038  -34.9480   23.5137 C   0  0  0  0  0  0
  -16.5339  -29.9077   23.6332 C   0  0  0  0  0  0
  -16.7256  -28.6494   23.0361 C   0  0  0  0  0  0
  -26.4472  -31.6601   25.0733 C   0  0  0  0  0  0
  -25.3749  -31.3644   26.1466 C   0  0  0  0  0  0
  -27.0319  -30.3061   24.6078 C   0  0  0  0  0  0
  -27.6053  -32.4308   25.7494 C   0  0  0  0  0  0
  -27.5596  -37.1777   24.8446 C   0  0  0  0  0  0
  -21.4112  -29.3019   22.3741 N   0  0  0  0  0  0
  -26.4281  -37.3808   23.9436 N   0  0  0  0  0  0
  -24.6593  -31.0851   22.1026 N   0  0  0  0  0  0
  -23.4164  -28.8223   23.3043 O   0  0  0  0  0  0
  -28.3889  -26.7571   20.0965 O   0  0  0  0  0  0
  -26.5583  -34.8924   22.4689 O   0  0  0  0  0  0
  -23.5306  -32.1441   23.7580 O   0  0  0  0  0  0
  -29.0049  -20.2240   19.7285 C   0  0  0  0  0  0
  -31.2294  -19.9702   20.6781 C   0  0  0  0  0  0
  -30.1965  -20.8034   20.2098 C   0  0  0  0  0  0
  -28.8733  -18.8265   19.6230 C   0  0  0  0  0  0
  -29.9694  -17.9910   19.9730 C   0  0  0  0  0  0
  -31.1247  -18.5738   20.5567 C   0  0  0  0  0  0
  -27.5684  -18.2785   19.0663 C   0  0  0  0  0  0
  -30.4201  -22.3015   20.1252 C   0  0  0  0  0  0
  -29.9937  -16.5301   19.5338 C   0  0  0  0  0  0
  -29.2644  -23.1540   20.6617 C   0  0  0  0  0  0
  -29.4812  -24.6376   20.3473 C   0  0  0  0  0  0
  -28.2616  -25.4782   20.7075 C   0  0  0  0  0  0
  -29.9021  -15.4943   20.5684 N   0  0  0  0  0  0
  -32.4755  -17.6200   21.0591 Cl  0  0  0  0  0  0
  -31.4505  -12.3120   19.1374 H   0  0  0  0  0  0
  -30.2633  -11.2431   19.8332 H   0  0  0  0  0  0
  -29.7239  -11.7572   17.4265 H   0  0  0  0  0  0
  -29.6785  -13.4630   17.7850 H   0  0  0  0  0  0
  -27.8065  -11.3056   18.8099 H   0  0  0  0  0  0
  -27.3674  -12.6414   17.7827 H   0  0  0  0  0  0
  -27.6901  -14.2449   19.5573 H   0  0  0  0  0  0
  -28.6426  -11.9757   21.3801 H   0  0  0  0  0  0
  -28.4837  -13.6457   21.8516 H   0  0  0  0  0  0
  -25.2785   -9.5674   22.4777 H   0  0  0  0  0  0
  -23.9996   -7.4637   22.7524 H   0  0  0  0  0  0
  -21.0857   -8.8790   19.8961 H   0  0  0  0  0  0
  -22.3743  -10.9668   19.6190 H   0  0  0  0  0  0
  -21.1968   -7.6150   23.9700 H   0  0  0  0  0  0
  -21.1489   -6.0542   25.9085 H   0  0  0  0  0  0
  -22.0591   -2.7590   23.2874 H   0  0  0  0  0  0
  -22.4112  -11.9865   22.4743 H   0  0  0  0  0  0
  -21.1111  -13.1237   22.2626 H   0  0  0  0  0  0
  -24.6653  -15.8443   20.5331 H   0  0  0  0  0  0
  -26.2906  -15.6285   20.1264 H   0  0  0  0  0  0
  -26.7101  -32.5563   23.1197 H   0  0  0  0  0  0
  -25.0112  -33.9799   25.0537 H   0  0  0  0  0  0
  -22.6810  -31.3125   21.4207 H   0  0  0  0  0  0
  -23.3778  -35.9596   23.3242 H   0  0  0  0  0  0
  -24.3585  -36.8982   22.2063 H   0  0  0  0  0  0
  -23.7184  -37.6468   23.6695 H   0  0  0  0  0  0
  -26.0301  -31.6223   20.5981 H   0  0  0  0  0  0
  -26.8090  -30.8985   21.9792 H   0  0  0  0  0  0
  -28.0948  -29.1481   21.1455 H   0  0  0  0  0  0
  -26.0641  -26.0091   18.9826 H   0  0  0  0  0  0
  -23.9727  -27.3074   19.0295 H   0  0  0  0  0  0
  -23.6993  -30.6072   19.4076 H   0  0  0  0  0  0
  -22.7233  -29.2464   19.8781 H   0  0  0  0  0  0
  -25.1266  -36.1966   25.0835 H   0  0  0  0  0  0
  -20.9939  -28.3214   24.1449 H   0  0  0  0  0  0
  -20.5642  -26.2248   23.3605 H   0  0  0  0  0  0
  -21.6626  -26.7421   22.1247 H   0  0  0  0  0  0
  -19.6900  -25.6291   21.1233 H   0  0  0  0  0  0
  -19.6706  -27.3175   20.6737 H   0  0  0  0  0  0
  -17.4202  -26.6740   21.3956 H   0  0  0  0  0  0
  -18.0251  -26.0051   22.8938 H   0  0  0  0  0  0
  -19.7909  -30.7249   24.2295 H   0  0  0  0  0  0
  -17.5000  -31.6261   24.5160 H   0  0  0  0  0  0
  -15.5344  -30.2985   23.7653 H   0  0  0  0  0  0
  -15.8652  -28.0816   22.7081 H   0  0  0  0  0  0
  -24.6047  -30.6838   25.7819 H   0  0  0  0  0  0
  -24.8777  -32.2743   26.4823 H   0  0  0  0  0  0
  -25.8145  -30.8942   27.0269 H   0  0  0  0  0  0
  -26.2844  -29.6786   24.1202 H   0  0  0  0  0  0
  -27.4188  -29.7322   25.4512 H   0  0  0  0  0  0
  -27.8632  -30.4398   23.9150 H   0  0  0  0  0  0
  -27.2703  -33.3616   26.2072 H   0  0  0  0  0  0
  -28.3866  -32.6839   25.0321 H   0  0  0  0  0  0
  -28.0715  -31.8425   26.5403 H   0  0  0  0  0  0
  -28.2539  -38.0151   24.7645 H   0  0  0  0  0  0
  -28.1174  -36.2698   24.6087 H   0  0  0  0  0  0
  -27.2338  -37.1206   25.8847 H   0  0  0  0  0  0
  -20.9260  -29.8736   21.6968 H   0  0  0  0  0  0
  -26.0164  -38.2861   24.1541 H   0  0  0  0  0  0
  -28.1989  -20.8521   19.3756 H   0  0  0  0  0  0
  -32.1440  -20.3973   21.0663 H   0  0  0  0  0  0
  -26.7516  -18.9867   19.2155 H   0  0  0  0  0  0
  -27.2801  -17.3550   19.5689 H   0  0  0  0  0  0
  -27.6516  -18.0863   17.9957 H   0  0  0  0  0  0
  -30.5763  -22.5336   19.0709 H   0  0  0  0  0  0
  -31.3446  -22.5734   20.6362 H   0  0  0  0  0  0
  -30.8980  -16.4245   18.9310 H   0  0  0  0  0  0
  -29.2039  -16.3273   18.8125 H   0  0  0  0  0  0
  -29.1427  -22.9989   21.7338 H   0  0  0  0  0  0
  -28.3294  -22.8486   20.1952 H   0  0  0  0  0  0
  -29.6752  -24.7487   19.2803 H   0  0  0  0  0  0
  -30.3616  -25.0160   20.8661 H   0  0  0  0  0  0
  -28.1813  -25.5909   21.7897 H   0  0  0  0  0  0
  -27.3664  -24.9495   20.3801 H   0  0  0  0  0  0
  -28.9804  -15.3233   20.9379 H   0  0  0  0  0  0
  1 25  1  0  0  0
  1 30  2  0  0  0
  1 83  1  0  0  0
  2  3  1  0  0  0
  2 25  1  0  0  0
  2 85  1  0  0  0
  2 86  1  0  0  0
  3  4  1  0  0  0
  3 87  1  0  0  0
  3 88  1  0  0  0
  4  5  1  0  0  0
  4 89  1  0  0  0
  4 90  1  0  0  0
  5  6  1  0  0  0
  5 26  1  0  0  0
  5 91  1  0  0  0
  6 25  1  0  0  0
  6 92  1  0  0  0
  6 93  1  0  0  0
  7  8  2  0  0  0
  7 26  1  0  0  0
  7 29  1  0  0  0
  8  9  1  0  0  0
  8 22  1  0  0  0
  9 10  1  0  0  0
  9 27  2  0  0  0
 10 11  2  0  0  0
 10 15  1  0  0  0
 11 12  1  0  0  0
 11 94  1  0  0  0
 12 13  2  0  0  0
 12 95  1  0  0  0
 13 14  1  0  0  0
 13 31  1  0  0  0
 14 15  2  0  0  0
 14 96  1  0  0  0
 15 97  1  0  0  0
 16 17  2  0  0  0
 16 21  1  0  0  0
 16 31  1  0  0  0
 17 18  1  0  0  0
 17 98  1  0  0  0
 18 19  2  0  0  0
 18 99  1  0  0  0
 19 20  1  0  0  0
 19 24  1  0  0  0
 20 21  2  0  0  0
 20100  1  0  0  0
 21 23  1  0  0  0
 22 28  1  0  0  0
 22 32  2  0  0  0
 26 27  1  0  0  0
 28101  1  0  0  0
 28102  1  0  0  0
 29103  1  0  0  0
 29104  1  0  0  0
 33 34  1  0  0  0
 33 66  1  0  0  0
 33 70  2  0  0  0
 34 36  1  0  0  0
 34 59  1  0  0  0
 34105  1  0  0  0
 35 44  2  0  0  0
 35 45  1  0  0  0
 35 68  1  0  0  0
 36 56  1  0  0  0
 36106  1  0  0  0
 37 39  1  0  0  0
 37 47  1  0  0  0
 37 66  1  0  0  0
 37107  1  0  0  0
 38 43  2  0  0  0
 38 46  1  0  0  0
 38 47  1  0  0  0
 39 64  1  0  0  0
 39 67  2  0  0  0
 40 52  1  0  0  0
 40 53  2  0  0  0
 40 58  1  0  0  0
 41108  1  0  0  0
 41109  1  0  0  0
 41110  1  0  0  0
 41 48  1  0  0  0
 42 43  1  0  0  0
 42 66  1  0  0  0
 42111  1  0  0  0
 42112  1  0  0  0
 43 44  1  0  0  0
 44113  1  0  0  0
 45 46  2  0  0  0
 45114  1  0  0  0
 46115  1  0  0  0
 47116  1  0  0  0
 47117  1  0  0  0
 48 56  1  0  0  0
 48 65  1  0  0  0
 48118  1  0  0  0
 49 50  1  0  0  0
 49 53  1  0  0  0
 49 64  1  0  0  0
 49119  1  0  0  0
 50 51  1  0  0  0
 50120  1  0  0  0
 50121  1  0  0  0
 51 52  1  0  0  0
 51122  1  0  0  0
 51123  1  0  0  0
 52124  1  0  0  0
 52125  1  0  0  0
 53 54  1  0  0  0
 54 55  2  0  0  0
 54126  1  0  0  0
 55 57  1  0  0  0
 55127  1  0  0  0
 56 69  2  0  0  0
 57 58  2  0  0  0
 57128  1  0  0  0
 58129  1  0  0  0
 59 60  1  0  0  0
 59 61  1  0  0  0
 59 62  1  0  0  0
 60130  1  0  0  0
 60131  1  0  0  0
 60132  1  0  0  0
 61133  1  0  0  0
 61134  1  0  0  0
 61135  1  0  0  0
 62136  1  0  0  0
 62137  1  0  0  0
 62138  1  0  0  0
 63 65  1  0  0  0
 63139  1  0  0  0
 63140  1  0  0  0
 63141  1  0  0  0
 64142  1  0  0  0
 65143  1  0  0  0
 68 82  1  0  0  0
 71 73  2  0  0  0
 71 74  1  0  0  0
 71144  1  0  0  0
 72 73  1  0  0  0
 72 76  2  0  0  0
 72145  1  0  0  0
 73 78  1  0  0  0
 74 75  2  0  0  0
 74 77  1  0  0  0
 75 76  1  0  0  0
 75 79  1  0  0  0
 76 84  1  0  0  0
 77146  1  0  0  0
 77147  1  0  0  0
 77148  1  0  0  0
 78 80  1  0  0  0
 78149  1  0  0  0
 78150  1  0  0  0
 79 83  1  0  0  0
 79151  1  0  0  0
 79152  1  0  0  0
 80 81  1  0  0  0
 80153  1  0  0  0
 80154  1  0  0  0
 81 82  1  0  0  0
 81155  1  0  0  0
 81156  1  0  0  0
 82157  1  0  0  0
 82158  1  0  0  0
 83159  1  0  0  0
M  ISO  4   1 100  68 101  82 101  83 100
M  END
> <chiral flag>
0

> <version>
0

> <s_m_source_file>
/data/baiqing/PycharmProjects/Reinvent-master-3.2/result/LINK_invent/BTK/process_docking_weight1_custom_sum_contain_oxygen_bond_distance_aromatic_linkinvent_7_9_3/rearranged_h_0035.sdf

> <i_m_source_file_index>
17

> <r_mmod_Potential_Energy-OPLS-2005>
-9.65554523468018

> <r_mmod_Stretch_Energy-OPLS-2005>
30.8503532409668

> <r_mmod_Bend_Energy-OPLS-2005>
89.3402481079102

> <r_mmod_Torsional_Energy-OPLS-2005>
259.260375976562

> <r_mmod_Improper_Torsional_Energy-OPLS-2005>
15.3316516876221

> <r_mmod_Van_der_Waal_Energy-OPLS-2005>
158.598052978516

> <r_mmod_Electrostatic_Energy-OPLS-2005>
-369.717803955078

> <r_mmod_Solvation_Energy-OPLS-2005>
-207.981109619141

> <b_mmod_Minimization_Converged-OPLS-2005>
0

> <r_mmod_RMS_Derivative-OPLS-2005>
2.45140981674194

$$$$
17
                    3D
 Structure written by MMmdl.
153161  0  0  1  0            999 V2000
  -30.6173  -14.7393   20.4645 C   0  0  0  0  0  0
  -30.4364  -12.4528   19.4888 C   0  0  0  0  0  0
  -29.5212  -12.5135   18.2471 C   0  0  0  0  0  0
  -28.0451  -12.3352   18.6522 C   0  0  0  0  0  0
  -27.6445  -13.2347   19.8517 C   0  0  2  0  0  0
  -28.6848  -13.1739   20.9923 C   0  0  0  0  0  0
  -25.2516  -13.8205   20.5678 C   0  0  0  0  0  0
  -24.1819  -13.0458   20.9212 C   0  0  0  0  0  0
  -24.6408  -11.6935   20.8756 C   0  0  0  0  0  0
  -23.9094  -10.4309   21.0433 C   0  0  0  0  0  0
  -24.3646   -9.4212   21.9195 C   0  0  0  0  0  0
  -23.6320   -8.2243   22.0753 C   0  0  0  0  0  0
  -22.4300   -8.0277   21.3546 C   0  0  0  0  0  0
  -21.9942   -9.0261   20.4647 C   0  0  0  0  0  0
  -22.7279  -10.2139   20.3067 C   0  0  0  0  0  0
  -21.6850   -6.0746   22.5279 C   0  0  0  0  0  0
  -21.4024   -6.5648   23.8211 C   0  0  0  0  0  0
  -21.3671   -5.6791   24.9169 C   0  0  0  0  0  0
  -21.6042   -4.3053   24.7215 C   0  0  0  0  0  0
  -21.8832   -3.8159   23.4328 C   0  0  0  0  0  0
  -21.9197   -4.6977   22.3391 C   0  0  0  0  0  0
  -22.7832  -13.5215   21.1886 C   0  0  0  0  0  0
  -22.1656   -4.2163   21.0969 F   0  0  0  0  0  0
  -21.5632   -3.4532   25.7720 F   0  0  0  0  0  0
  -29.9923  -13.5138   20.4178 N   0  0  0  0  0  0
  -26.2955  -12.9415   20.3266 N   0  0  0  0  0  0
  -25.9336  -11.6558   20.5740 N   0  0  0  0  0  0
  -22.0477  -12.8195   22.0425 N   0  0  0  0  0  0
  -25.4217  -15.1933   20.4066 N   0  0  0  0  0  0
  -31.7981  -14.8462   20.1258 O   0  0  0  0  0  0
  -21.6646   -6.8890   21.4242 O   0  0  0  0  0  0
  -22.3497  -14.5508   20.6704 O   0  0  0  0  0  0
  -24.6268  -31.8555   23.2052 C   0  0  0  0  0  0
  -25.9093  -32.4794   23.8367 C   0  0  1  0  0  0
  -27.2058  -27.2794   20.1333 C   0  0  0  0  0  0
  -25.5913  -33.8591   24.2278 N   0  0  0  0  0  0
  -23.4228  -30.4859   21.5456 C   0  0  2  0  0  0
  -24.8683  -28.9366   20.1138 C   0  0  0  0  0  0
  -22.7465  -29.4621   22.4893 C   0  0  0  0  0  0
  -18.0276  -28.1380   22.8488 C   0  0  0  0  0  0
  -24.1503  -36.7299   23.2641 C   0  0  0  0  0  0
  -25.9681  -30.7819   21.3821 C   0  0  0  0  0  0
  -26.0410  -29.4057   20.7206 C   0  0  0  0  0  0
  -27.2147  -28.5883   20.7179 C   0  0  0  0  0  0
  -26.0154  -26.8801   19.4871 C   0  0  0  0  0  0
  -24.8565  -27.6791   19.4931 C   0  0  0  0  0  0
  -23.6439  -29.8276   20.1595 C   0  0  0  0  0  0
  -25.4128  -36.3098   24.0325 C   0  0  1  0  0  0
  -20.5879  -28.3696   23.1258 C   0  0  2  0  0  0
  -20.6768  -26.9415   22.5398 C   0  0  0  0  0  0
  -19.5744  -26.6374   21.5206 C   0  0  0  0  0  0
  -18.1924  -26.7917   22.1621 C   0  0  0  0  0  0
  -19.1533  -28.8854   23.2863 C   0  0  0  0  0  0
  -18.9464  -30.1449   23.8883 C   0  0  0  0  0  0
  -17.6468  -30.6578   24.0590 C   0  0  0  0  0  0
  -25.9032  -34.9466   23.5091 C   0  0  0  0  0  0
  -16.5360  -29.9084   23.6345 C   0  0  0  0  0  0
  -16.7267  -28.6506   23.0359 C   0  0  0  0  0  0
  -26.4475  -31.6623   25.0741 C   0  0  0  0  0  0
  -25.3719  -31.3759   26.1491 C   0  0  0  0  0  0
  -27.0334  -30.3057   24.6219 C   0  0  0  0  0  0
  -27.6015  -32.4395   25.7499 C   0  0  0  0  0  0
  -27.5589  -37.1811   24.8452 C   0  0  0  0  0  0
  -21.4171  -29.3053   22.3643 N   0  0  0  0  0  0
  -26.4310  -37.3815   23.9400 N   0  0  0  0  0  0
  -24.6928  -31.0555   22.1031 N   0  0  0  0  0  0
  -23.4183  -28.8126   23.2965 O   0  0  0  0  0  0
  -28.2912  -26.3825   20.2171 O   0  0  0  0  0  0
  -26.5602  -34.8922   22.4661 O   0  0  0  0  0  0
  -23.5413  -32.1342   23.7364 O   0  0  0  0  0  0
  -28.9689  -21.1877   21.2440 C   0  0  0  0  0  0
  -29.2610  -20.0085   20.4420 C   0  0  0  0  0  0
  -29.1121  -22.3306   20.4562 C   0  0  0  0  0  0
  -29.9030  -22.5150   18.0282 C   0  0  0  0  0  0
  -29.0697  -18.4622   20.7537 C   0  0  0  0  0  0
  -29.0654  -23.8743   20.7790 C   0  0  0  0  0  0
  -30.1949  -17.3421   20.4455 C   0  0  0  0  0  0
  -28.0314  -24.9078   20.1126 C   0  0  0  0  0  0
  -29.5585  -20.4339   19.2169 N   0  0  0  0  0  0
  -29.5057  -21.8040   19.2311 N   0  0  0  0  0  0
  -29.8442  -15.8680   20.6752 N   0  0  0  0  0  0
  -31.4793  -12.5786   19.1930 H   0  0  0  0  0  0
  -30.3751  -11.4767   19.9724 H   0  0  0  0  0  0
  -29.8099  -11.7448   17.5275 H   0  0  0  0  0  0
  -29.6524  -13.4717   17.7423 H   0  0  0  0  0  0
  -27.9082  -11.2860   18.9166 H   0  0  0  0  0  0
  -27.3919  -12.5255   17.8002 H   0  0  0  0  0  0
  -27.6362  -14.2573   19.4730 H   0  0  0  0  0  0
  -28.7123  -12.1822   21.4445 H   0  0  0  0  0  0
  -28.4160  -13.8652   21.7917 H   0  0  0  0  0  0
  -25.2789   -9.5665   22.4771 H   0  0  0  0  0  0
  -24.0023   -7.4632   22.7467 H   0  0  0  0  0  0
  -21.0868   -8.8804   19.8947 H   0  0  0  0  0  0
  -22.3756  -10.9687   19.6177 H   0  0  0  0  0  0
  -21.2008   -7.6154   23.9723 H   0  0  0  0  0  0
  -21.1486   -6.0512   25.9071 H   0  0  0  0  0  0
  -22.0599   -2.7622   23.2821 H   0  0  0  0  0  0
  -22.4083  -11.9836   22.4786 H   0  0  0  0  0  0
  -21.1104  -13.1236   22.2674 H   0  0  0  0  0  0
  -24.6545  -15.8491   20.5069 H   0  0  0  0  0  0
  -26.2638  -15.6258   20.0502 H   0  0  0  0  0  0
  -26.7165  -32.5469   23.1103 H   0  0  0  0  0  0
  -25.0158  -33.9760   25.0500 H   0  0  0  0  0  0
  -22.7207  -31.3097   21.4018 H   0  0  0  0  0  0
  -23.3787  -35.9606   23.3287 H   0  0  0  0  0  0
  -24.3602  -36.8928   22.2057 H   0  0  0  0  0  0
  -23.7209  -37.6475   23.6670 H   0  0  0  0  0  0
  -26.0993  -31.5552   20.6236 H   0  0  0  0  0  0
  -26.8473  -30.8271   22.0141 H   0  0  0  0  0  0
  -28.1122  -28.9337   21.2106 H   0  0  0  0  0  0
  -25.9510  -25.9265   18.9861 H   0  0  0  0  0  0
  -23.9541  -27.3134   19.0246 H   0  0  0  0  0  0
  -23.7844  -30.6101   19.4116 H   0  0  0  0  0  0
  -22.7614  -29.2715   19.8394 H   0  0  0  0  0  0
  -25.1322  -36.1960   25.0821 H   0  0  0  0  0  0
  -20.9986  -28.3280   24.1373 H   0  0  0  0  0  0
  -20.5657  -26.2315   23.3603 H   0  0  0  0  0  0
  -21.6639  -26.7430   22.1209 H   0  0  0  0  0  0
  -19.6912  -25.6274   21.1251 H   0  0  0  0  0  0
  -19.6682  -27.3176   20.6730 H   0  0  0  0  0  0
  -17.4197  -26.6675   21.4018 H   0  0  0  0  0  0
  -18.0325  -26.0022   22.8983 H   0  0  0  0  0  0
  -19.7948  -30.7270   24.2237 H   0  0  0  0  0  0
  -17.5033  -31.6256   24.5188 H   0  0  0  0  0  0
  -15.5364  -30.3017   23.7641 H   0  0  0  0  0  0
  -15.8662  -28.0837   22.7084 H   0  0  0  0  0  0
  -24.5848  -30.7165   25.7826 H   0  0  0  0  0  0
  -24.8983  -32.2934   26.4989 H   0  0  0  0  0  0
  -25.8055  -30.8872   27.0220 H   0  0  0  0  0  0
  -26.2906  -29.6808   24.1259 H   0  0  0  0  0  0
  -27.4028  -29.7331   25.4723 H   0  0  0  0  0  0
  -27.8775  -30.4344   23.9446 H   0  0  0  0  0  0
  -27.2579  -33.3675   26.2081 H   0  0  0  0  0  0
  -28.3802  -32.7007   25.0324 H   0  0  0  0  0  0
  -28.0713  -31.8537   26.5403 H   0  0  0  0  0  0
  -28.2613  -38.0124   24.7567 H   0  0  0  0  0  0
  -28.1090  -36.2653   24.6216 H   0  0  0  0  0  0
  -27.2289  -37.1380   25.8854 H   0  0  0  0  0  0
  -20.9311  -29.8842   21.6935 H   0  0  0  0  0  0
  -26.0180  -38.2870   24.1468 H   0  0  0  0  0  0
  -28.6836  -21.1901   22.2862 H   0  0  0  0  0  0
  -29.5490  -23.5446   18.0393 H   0  0  0  0  0  0
  -29.5004  -22.0165   17.1448 H   0  0  0  0  0  0
  -30.9917  -22.5389   17.9616 H   0  0  0  0  0  0
  -28.1624  -18.1510   20.2354 H   0  0  0  0  0  0
  -28.8172  -18.3662   21.8109 H   0  0  0  0  0  0
  -30.0673  -24.2662   20.6128 H   0  0  0  0  0  0
  -28.9188  -23.9701   21.8572 H   0  0  0  0  0  0
  -31.0960  -17.5743   21.0168 H   0  0  0  0  0  0
  -30.4806  -17.4402   19.3978 H   0  0  0  0  0  0
  -27.0655  -24.6925   20.5749 H   0  0  0  0  0  0
  -27.9103  -24.6680   19.0549 H   0  0  0  0  0  0
  -28.8836  -15.6820   20.9220 H   0  0  0  0  0  0
  1 25  1  0  0  0
  1 30  2  0  0  0
  1 81  1  0  0  0
  2  3  1  0  0  0
  2 25  1  0  0  0
  2 82  1  0  0  0
  2 83  1  0  0  0
  3  4  1  0  0  0
  3 84  1  0  0  0
  3 85  1  0  0  0
  4  5  1  0  0  0
  4 86  1  0  0  0
  4 87  1  0  0  0
  5  6  1  0  0  0
  5 26  1  0  0  0
  5 88  1  0  0  0
  6 25  1  0  0  0
  6 89  1  0  0  0
  6 90  1  0  0  0
  7  8  2  0  0  0
  7 26  1  0  0  0
  7 29  1  0  0  0
  8  9  1  0  0  0
  8 22  1  0  0  0
  9 10  1  0  0  0
  9 27  2  0  0  0
 10 11  2  0  0  0
 10 15  1  0  0  0
 11 12  1  0  0  0
 11 91  1  0  0  0
 12 13  2  0  0  0
 12 92  1  0  0  0
 13 14  1  0  0  0
 13 31  1  0  0  0
 14 15  2  0  0  0
 14 93  1  0  0  0
 15 94  1  0  0  0
 16 17  2  0  0  0
 16 21  1  0  0  0
 16 31  1  0  0  0
 17 18  1  0  0  0
 17 95  1  0  0  0
 18 19  2  0  0  0
 18 96  1  0  0  0
 19 20  1  0  0  0
 19 24  1  0  0  0
 20 21  2  0  0  0
 20 97  1  0  0  0
 21 23  1  0  0  0
 22 28  1  0  0  0
 22 32  2  0  0  0
 26 27  1  0  0  0
 28 98  1  0  0  0
 28 99  1  0  0  0
 29100  1  0  0  0
 29101  1  0  0  0
 33 34  1  0  0  0
 33 66  1  0  0  0
 33 70  2  0  0  0
 34 36  1  0  0  0
 34 59  1  0  0  0
 34102  1  0  0  0
 35 44  2  0  0  0
 35 45  1  0  0  0
 35 68  1  0  0  0
 36 56  1  0  0  0
 36103  1  0  0  0
 37 39  1  0  0  0
 37 47  1  0  0  0
 37 66  1  0  0  0
 37104  1  0  0  0
 38 43  2  0  0  0
 38 46  1  0  0  0
 38 47  1  0  0  0
 39 64  1  0  0  0
 39 67  2  0  0  0
 40 52  1  0  0  0
 40 53  2  0  0  0
 40 58  1  0  0  0
 41105  1  0  0  0
 41106  1  0  0  0
 41107  1  0  0  0
 41 48  1  0  0  0
 42 43  1  0  0  0
 42 66  1  0  0  0
 42108  1  0  0  0
 42109  1  0  0  0
 43 44  1  0  0  0
 44110  1  0  0  0
 45 46  2  0  0  0
 45111  1  0  0  0
 46112  1  0  0  0
 47113  1  0  0  0
 47114  1  0  0  0
 48 56  1  0  0  0
 48 65  1  0  0  0
 48115  1  0  0  0
 49 50  1  0  0  0
 49 53  1  0  0  0
 49 64  1  0  0  0
 49116  1  0  0  0
 50 51  1  0  0  0
 50117  1  0  0  0
 50118  1  0  0  0
 51 52  1  0  0  0
 51119  1  0  0  0
 51120  1  0  0  0
 52121  1  0  0  0
 52122  1  0  0  0
 53 54  1  0  0  0
 54 55  2  0  0  0
 54123  1  0  0  0
 55 57  1  0  0  0
 55124  1  0  0  0
 56 69  2  0  0  0
 57 58  2  0  0  0
 57125  1  0  0  0
 58126  1  0  0  0
 59 60  1  0  0  0
 59 61  1  0  0  0
 59 62  1  0  0  0
 60127  1  0  0  0
 60128  1  0  0  0
 60129  1  0  0  0
 61130  1  0  0  0
 61131  1  0  0  0
 61132  1  0  0  0
 62133  1  0  0  0
 62134  1  0  0  0
 62135  1  0  0  0
 63 65  1  0  0  0
 63136  1  0  0  0
 63137  1  0  0  0
 63138  1  0  0  0
 64139  1  0  0  0
 65140  1  0  0  0
 68 78  1  0  0  0
 71 72  1  0  0  0
 71 73  2  0  0  0
 71141  1  0  0  0
 72 75  1  0  0  0
 72 79  2  0  0  0
 73 76  1  0  0  0
 73 80  1  0  0  0
 74 80  1  0  0  0
 74142  1  0  0  0
 74143  1  0  0  0
 74144  1  0  0  0
 75 77  1  0  0  0
 75145  1  0  0  0
 75146  1  0  0  0
 76 78  1  0  0  0
 76147  1  0  0  0
 76148  1  0  0  0
 77 81  1  0  0  0
 77149  1  0  0  0
 77150  1  0  0  0
 78151  1  0  0  0
 78152  1  0  0  0
 79 80  1  0  0  0
 81153  1  0  0  0
M  ISO  4   1 100  68 101  78 101  81 100
M  END
> <chiral flag>
0

> <version>
0

> <s_m_source_file>
/data/baiqing/PycharmProjects/Reinvent-master-3.2/result/LINK_invent/BTK/process_docking_weight1_custom_sum_contain_oxygen_bond_distance_aromatic_linkinvent_7_9_3/rearranged_h_0035.sdf

> <i_m_source_file_index>
18

> <r_mmod_Potential_Energy-OPLS-2005>
51.2479095458984

> <r_mmod_Stretch_Energy-OPLS-2005>
107.130195617676

> <r_mmod_Bend_Energy-OPLS-2005>
152.722076416016

> <r_mmod_Torsional_Energy-OPLS-2005>
204.628829956055

> <r_mmod_Improper_Torsional_Energy-OPLS-2005>
6.42910194396973

> <r_mmod_Van_der_Waal_Energy-OPLS-2005>
118.761856079102

> <r_mmod_Electrostatic_Energy-OPLS-2005>
-390.833068847656

> <r_mmod_Solvation_Energy-OPLS-2005>
-230.35285949707

> <b_mmod_Minimization_Converged-OPLS-2005>
0

> <r_mmod_RMS_Derivative-OPLS-2005>
3.95652985572815

$$$$
18
                    3D
 Structure written by MMmdl.
180188  0  0  1  0            999 V2000
  -30.8533  -14.2452   20.8043 C   0  0  0  0  0  0
  -30.4082  -12.3046   19.3526 C   0  0  0  0  0  0
  -29.4624  -12.5539   18.1698 C   0  0  0  0  0  0
  -27.9981  -12.3797   18.6050 C   0  0  0  0  0  0
  -27.6631  -13.2038   19.8732 C   0  0  2  0  0  0
  -28.7025  -12.9591   20.9869 C   0  0  0  0  0  0
  -25.2597  -13.8157   20.5680 C   0  0  0  0  0  0
  -24.1839  -13.0444   20.9173 C   0  0  0  0  0  0
  -24.6389  -11.6904   20.8729 C   0  0  0  0  0  0
  -23.9057  -10.4298   21.0410 C   0  0  0  0  0  0
  -24.3614   -9.4210   21.9187 C   0  0  0  0  0  0
  -23.6290   -8.2246   22.0755 C   0  0  0  0  0  0
  -22.4270   -8.0285   21.3546 C   0  0  0  0  0  0
  -21.9909   -9.0256   20.4644 C   0  0  0  0  0  0
  -22.7237  -10.2135   20.3054 C   0  0  0  0  0  0
  -21.6847   -6.0735   22.5277 C   0  0  0  0  0  0
  -21.4015   -6.5639   23.8211 C   0  0  0  0  0  0
  -21.3653   -5.6791   24.9171 C   0  0  0  0  0  0
  -21.6046   -4.3057   24.7221 C   0  0  0  0  0  0
  -21.8821   -3.8150   23.4345 C   0  0  0  0  0  0
  -21.9196   -4.6964   22.3401 C   0  0  0  0  0  0
  -22.7867  -13.5239   21.1848 C   0  0  0  0  0  0
  -22.1663   -4.2149   21.0980 F   0  0  0  0  0  0
  -21.5626   -3.4542   25.7734 F   0  0  0  0  0  0
  -30.0516  -13.2147   20.4482 N   0  0  0  0  0  0
  -26.3034  -12.9329   20.3373 N   0  0  0  0  0  0
  -25.9313  -11.6483   20.5754 N   0  0  0  0  0  0
  -22.0511  -12.8232   22.0407 N   0  0  0  0  0  0
  -25.4340  -15.1879   20.4097 N   0  0  0  0  0  0
  -31.7631  -14.6891   20.0962 O   0  0  0  0  0  0
  -21.6639   -6.8879   21.4239 O   0  0  0  0  0  0
  -22.3550  -14.5547   20.6697 O   0  0  0  0  0  0
  -24.6066  -31.8722   23.2109 C   0  0  0  0  0  0
  -25.8976  -32.4861   23.8382 C   0  0  1  0  0  0
  -27.2377  -27.4837   20.0910 C   0  0  0  0  0  0
  -25.5828  -33.8651   24.2306 N   0  0  0  0  0  0
  -23.3916  -30.4919   21.5531 C   0  0  2  0  0  0
  -24.8412  -28.9652   20.1150 C   0  0  0  0  0  0
  -22.7368  -29.4651   22.5037 C   0  0  0  0  0  0
  -18.0242  -28.1350   22.8502 C   0  0  0  0  0  0
  -24.1466  -36.7315   23.2644 C   0  0  0  0  0  0
  -25.9123  -30.8568   21.3512 C   0  0  0  0  0  0
  -25.9976  -29.4920   20.7042 C   0  0  0  0  0  0
  -27.2009  -28.7590   20.6878 C   0  0  0  0  0  0
  -26.0691  -26.9607   19.4962 C   0  0  0  0  0  0
  -24.8705  -27.6970   19.5073 C   0  0  0  0  0  0
  -23.5963  -29.8206   20.1681 C   0  0  0  0  0  0
  -25.4095  -36.3140   24.0336 C   0  0  1  0  0  0
  -20.5827  -28.3616   23.1352 C   0  0  2  0  0  0
  -20.6732  -26.9362   22.5445 C   0  0  0  0  0  0
  -19.5718  -26.6353   21.5228 C   0  0  0  0  0  0
  -18.1891  -26.7897   22.1631 C   0  0  0  0  0  0
  -19.1494  -28.8802   23.2912 C   0  0  0  0  0  0
  -18.9453  -30.1423   23.8914 C   0  0  0  0  0  0
  -17.6466  -30.6597   24.0553 C   0  0  0  0  0  0
  -25.9015  -34.9504   23.5125 C   0  0  0  0  0  0
  -16.5341  -29.9107   23.6335 C   0  0  0  0  0  0
  -16.7235  -28.6503   23.0371 C   0  0  0  0  0  0
  -26.4415  -31.6625   25.0686 C   0  0  0  0  0  0
  -25.3678  -31.3721   26.1432 C   0  0  0  0  0  0
  -27.0227  -30.3084   24.5984 C   0  0  0  0  0  0
  -27.5993  -32.4342   25.7467 C   0  0  0  0  0  0
  -27.5571  -37.1808   24.8469 C   0  0  0  0  0  0
  -21.4101  -29.2985   22.3767 N   0  0  0  0  0  0
  -26.4286  -37.3821   23.9411 N   0  0  0  0  0  0
  -24.6555  -31.0860   22.0988 N   0  0  0  0  0  0
  -23.4174  -28.8210   23.3061 O   0  0  0  0  0  0
  -28.4148  -26.7811   20.0747 O   0  0  0  0  0  0
  -26.5638  -34.8961   22.4724 O   0  0  0  0  0  0
  -23.5279  -32.1439   23.7552 O   0  0  0  0  0  0
  -32.2316  -21.2771   24.8067 C   0  0  0  0  0  0
  -31.6199  -21.5082   27.1413 C   0  0  0  0  0  0
  -32.4819  -20.9917   26.1578 C   0  0  0  0  0  0
  -31.0469  -21.9241   24.4139 C   0  0  0  0  0  0
  -30.4620  -22.2276   26.7728 C   0  0  0  0  0  0
  -30.1315  -22.3944   25.3973 C   0  0  0  0  0  0
  -30.7904  -22.0317   22.9198 C   0  0  0  0  0  0
  -29.5744  -22.7630   27.8852 C   0  0  0  0  0  0
  -33.6318  -20.0645   26.5226 C   0  0  0  0  0  0
  -28.7800  -22.9871   24.9778 C   0  0  0  0  0  0
  -33.2743  -18.5640   26.3741 C   0  0  0  0  0  0
  -32.5493  -18.2034   25.0586 C   0  0  0  0  0  0
  -32.4766  -16.7050   24.7543 C   0  0  0  0  0  0
  -31.5633  -16.4011   23.5514 C   0  0  0  0  0  0
  -28.5335  -25.7029   22.2630 C   0  0  0  0  0  0
  -31.8361  -15.0070   22.9722 C   0  0  0  0  0  0
  -28.2552  -24.3887   23.0114 C   0  0  0  0  0  0
  -28.3660  -25.5244   20.7417 C   0  0  0  0  0  0
  -30.7585  -14.5300   22.1094 N   0  0  0  0  0  0
  -28.9104  -24.3115   24.3382 N   0  3  0  0  0  0
  -31.4460  -12.4255   19.0350 H   0  0  0  0  0  0
  -30.3205  -11.2739   19.6992 H   0  0  0  0  0  0
  -29.6934  -11.8725   17.3505 H   0  0  0  0  0  0
  -29.6138  -13.5641   17.7832 H   0  0  0  0  0  0
  -27.8257  -11.3190   18.7930 H   0  0  0  0  0  0
  -27.3283  -12.6580   17.7899 H   0  0  0  0  0  0
  -27.7185  -14.2574   19.5962 H   0  0  0  0  0  0
  -28.6499  -11.9287   21.3416 H   0  0  0  0  0  0
  -28.4533  -13.5861   21.8437 H   0  0  0  0  0  0
  -25.2754   -9.5684   22.4768 H   0  0  0  0  0  0
  -23.9992   -7.4637   22.7477 H   0  0  0  0  0  0
  -21.0840   -8.8777   19.8949 H   0  0  0  0  0  0
  -22.3697  -10.9676   19.6166 H   0  0  0  0  0  0
  -21.2006   -7.6146   23.9710 H   0  0  0  0  0  0
  -21.1472   -6.0524   25.9073 H   0  0  0  0  0  0
  -22.0607   -2.7614   23.2845 H   0  0  0  0  0  0
  -22.4130  -11.9891   22.4790 H   0  0  0  0  0  0
  -21.1138  -13.1272   22.2629 H   0  0  0  0  0  0
  -24.6756  -15.8511   20.5253 H   0  0  0  0  0  0
  -26.2978  -15.6232   20.1105 H   0  0  0  0  0  0
  -26.7056  -32.5603   23.1164 H   0  0  0  0  0  0
  -24.9886  -33.9818   25.0382 H   0  0  0  0  0  0
  -22.6758  -31.3060   21.4148 H   0  0  0  0  0  0
  -23.3758  -35.9622   23.3336 H   0  0  0  0  0  0
  -24.3546  -36.8894   22.2049 H   0  0  0  0  0  0
  -23.7198  -37.6509   23.6655 H   0  0  0  0  0  0
  -26.0010  -31.6240   20.5809 H   0  0  0  0  0  0
  -26.8073  -30.9238   21.9565 H   0  0  0  0  0  0
  -28.0971  -29.1628   21.1398 H   0  0  0  0  0  0
  -26.0852  -25.9956   19.0109 H   0  0  0  0  0  0
  -23.9842  -27.2885   19.0415 H   0  0  0  0  0  0
  -23.6881  -30.5906   19.4012 H   0  0  0  0  0  0
  -22.7239  -29.2278   19.8864 H   0  0  0  0  0  0
  -25.1278  -36.2010   25.0833 H   0  0  0  0  0  0
  -20.9897  -28.3191   24.1478 H   0  0  0  0  0  0
  -20.5641  -26.2226   23.3625 H   0  0  0  0  0  0
  -21.6604  -26.7427   22.1231 H   0  0  0  0  0  0
  -19.6890  -25.6268   21.1251 H   0  0  0  0  0  0
  -19.6665  -27.3177   20.6778 H   0  0  0  0  0  0
  -17.4148  -26.6634   21.4039 H   0  0  0  0  0  0
  -18.0287  -26.0050   22.9039 H   0  0  0  0  0  0
  -19.7946  -30.7200   24.2300 H   0  0  0  0  0  0
  -17.5051  -31.6301   24.5129 H   0  0  0  0  0  0
  -15.5351  -30.3031   23.7672 H   0  0  0  0  0  0
  -15.8610  -28.0845   22.7100 H   0  0  0  0  0  0
  -24.5847  -30.7080   25.7751 H   0  0  0  0  0  0
  -24.8881  -32.2884   26.4887 H   0  0  0  0  0  0
  -25.8015  -30.8875   27.0186 H   0  0  0  0  0  0
  -26.2727  -29.6890   24.1054 H   0  0  0  0  0  0
  -27.4034  -29.7276   25.4393 H   0  0  0  0  0  0
  -27.8546  -30.4416   23.9062 H   0  0  0  0  0  0
  -27.2580  -33.3625   26.2076 H   0  0  0  0  0  0
  -28.3800  -32.6935   25.0298 H   0  0  0  0  0  0
  -28.0662  -31.8441   26.5363 H   0  0  0  0  0  0
  -28.2616  -38.0090   24.7549 H   0  0  0  0  0  0
  -28.1044  -36.2626   24.6277 H   0  0  0  0  0  0
  -27.2285  -37.1424   25.8872 H   0  0  0  0  0  0
  -20.9259  -29.8677   21.6966 H   0  0  0  0  0  0
  -26.0191  -38.2889   24.1478 H   0  0  0  0  0  0
  -32.9143  -20.9081   24.0537 H   0  0  0  0  0  0
  -31.8328  -21.3196   28.1852 H   0  0  0  0  0  0
  -31.5196  -21.4508   22.3536 H   0  0  0  0  0  0
  -30.8753  -23.0629   22.5777 H   0  0  0  0  0  0
  -29.8121  -21.6325   22.6553 H   0  0  0  0  0  0
  -30.0725  -22.6994   28.8535 H   0  0  0  0  0  0
  -28.6480  -22.1925   27.9521 H   0  0  0  0  0  0
  -29.3312  -23.8122   27.7179 H   0  0  0  0  0  0
  -33.9617  -20.2663   27.5429 H   0  0  0  0  0  0
  -34.4819  -20.2981   25.8789 H   0  0  0  0  0  0
  -28.0899  -23.0820   25.8141 H   0  0  0  0  0  0
  -28.2920  -22.2737   24.3133 H   0  0  0  0  0  0
  -32.6364  -18.2675   27.2084 H   0  0  0  0  0  0
  -34.1870  -17.9739   26.4703 H   0  0  0  0  0  0
  -33.0593  -18.6798   24.2217 H   0  0  0  0  0  0
  -31.5373  -18.6092   25.0862 H   0  0  0  0  0  0
  -32.1180  -16.1581   25.6278 H   0  0  0  0  0  0
  -33.4861  -16.3408   24.5594 H   0  0  0  0  0  0
  -31.7115  -17.1455   22.7675 H   0  0  0  0  0  0
  -30.5222  -16.4911   23.8657 H   0  0  0  0  0  0
  -29.5453  -26.0593   22.4585 H   0  0  0  0  0  0
  -27.8577  -26.4732   22.6384 H   0  0  0  0  0  0
  -31.9273  -14.2864   23.7866 H   0  0  0  0  0  0
  -32.7983  -15.0005   22.4554 H   0  0  0  0  0  0
  -28.5991  -23.5603   22.3943 H   0  0  0  0  0  0
  -27.1794  -24.2499   23.1260 H   0  0  0  0  0  0
  -27.4511  -24.9762   20.5168 H   0  0  0  0  0  0
  -29.1854  -24.9158   20.3579 H   0  0  0  0  0  0
  -29.9852  -14.0803   22.5784 H   0  0  0  0  0  0
  -29.8933  -24.5059   24.2506 H   0  0  0  0  0  0
  -28.5144  -25.0006   24.9573 H   0  0  0  0  0  0
  1 25  1  0  0  0
  1 30  2  0  0  0
  1 89  1  0  0  0
  2  3  1  0  0  0
  2 25  1  0  0  0
  2 91  1  0  0  0
  2 92  1  0  0  0
  3  4  1  0  0  0
  3 93  1  0  0  0
  3 94  1  0  0  0
  4  5  1  0  0  0
  4 95  1  0  0  0
  4 96  1  0  0  0
  5  6  1  0  0  0
  5 26  1  0  0  0
  5 97  1  0  0  0
  6 25  1  0  0  0
  6 98  1  0  0  0
  6 99  1  0  0  0
  7  8  2  0  0  0
  7 26  1  0  0  0
  7 29  1  0  0  0
  8  9  1  0  0  0
  8 22  1  0  0  0
  9 10  1  0  0  0
  9 27  2  0  0  0
 10 11  2  0  0  0
 10 15  1  0  0  0
 11 12  1  0  0  0
 11100  1  0  0  0
 12 13  2  0  0  0
 12101  1  0  0  0
 13 14  1  0  0  0
 13 31  1  0  0  0
 14 15  2  0  0  0
 14102  1  0  0  0
 15103  1  0  0  0
 16 17  2  0  0  0
 16 21  1  0  0  0
 16 31  1  0  0  0
 17 18  1  0  0  0
 17104  1  0  0  0
 18 19  2  0  0  0
 18105  1  0  0  0
 19 20  1  0  0  0
 19 24  1  0  0  0
 20 21  2  0  0  0
 20106  1  0  0  0
 21 23  1  0  0  0
 22 28  1  0  0  0
 22 32  2  0  0  0
 26 27  1  0  0  0
 28107  1  0  0  0
 28108  1  0  0  0
 29109  1  0  0  0
 29110  1  0  0  0
 33 34  1  0  0  0
 33 66  1  0  0  0
 33 70  2  0  0  0
 34 36  1  0  0  0
 34 59  1  0  0  0
 34111  1  0  0  0
 35 44  2  0  0  0
 35 45  1  0  0  0
 35 68  1  0  0  0
 36 56  1  0  0  0
 36112  1  0  0  0
 37 39  1  0  0  0
 37 47  1  0  0  0
 37 66  1  0  0  0
 37113  1  0  0  0
 38 43  2  0  0  0
 38 46  1  0  0  0
 38 47  1  0  0  0
 39 64  1  0  0  0
 39 67  2  0  0  0
 40 52  1  0  0  0
 40 53  2  0  0  0
 40 58  1  0  0  0
 41114  1  0  0  0
 41115  1  0  0  0
 41116  1  0  0  0
 41 48  1  0  0  0
 42 43  1  0  0  0
 42 66  1  0  0  0
 42117  1  0  0  0
 42118  1  0  0  0
 43 44  1  0  0  0
 44119  1  0  0  0
 45 46  2  0  0  0
 45120  1  0  0  0
 46121  1  0  0  0
 47122  1  0  0  0
 47123  1  0  0  0
 48 56  1  0  0  0
 48 65  1  0  0  0
 48124  1  0  0  0
 49 50  1  0  0  0
 49 53  1  0  0  0
 49 64  1  0  0  0
 49125  1  0  0  0
 50 51  1  0  0  0
 50126  1  0  0  0
 50127  1  0  0  0
 51 52  1  0  0  0
 51128  1  0  0  0
 51129  1  0  0  0
 52130  1  0  0  0
 52131  1  0  0  0
 53 54  1  0  0  0
 54 55  2  0  0  0
 54132  1  0  0  0
 55 57  1  0  0  0
 55133  1  0  0  0
 56 69  2  0  0  0
 57 58  2  0  0  0
 57134  1  0  0  0
 58135  1  0  0  0
 59 60  1  0  0  0
 59 61  1  0  0  0
 59 62  1  0  0  0
 60136  1  0  0  0
 60137  1  0  0  0
 60138  1  0  0  0
 61139  1  0  0  0
 61140  1  0  0  0
 61141  1  0  0  0
 62142  1  0  0  0
 62143  1  0  0  0
 62144  1  0  0  0
 63 65  1  0  0  0
 63145  1  0  0  0
 63146  1  0  0  0
 63147  1  0  0  0
 64148  1  0  0  0
 65149  1  0  0  0
 68 88  1  0  0  0
 71 73  2  0  0  0
 71 74  1  0  0  0
 71150  1  0  0  0
 72 73  1  0  0  0
 72 75  2  0  0  0
 72151  1  0  0  0
 73 79  1  0  0  0
 74 76  2  0  0  0
 74 77  1  0  0  0
 75 76  1  0  0  0
 75 78  1  0  0  0
 76 80  1  0  0  0
 77152  1  0  0  0
 77153  1  0  0  0
 77154  1  0  0  0
 78155  1  0  0  0
 78156  1  0  0  0
 78157  1  0  0  0
 79 81  1  0  0  0
 79158  1  0  0  0
 79159  1  0  0  0
 80 90  1  0  0  0
 80160  1  0  0  0
 80161  1  0  0  0
 81 82  1  0  0  0
 81162  1  0  0  0
 81163  1  0  0  0
 82 83  1  0  0  0
 82164  1  0  0  0
 82165  1  0  0  0
 83 84  1  0  0  0
 83166  1  0  0  0
 83167  1  0  0  0
 84 86  1  0  0  0
 84168  1  0  0  0
 84169  1  0  0  0
 85 87  1  0  0  0
 85 88  1  0  0  0
 85170  1  0  0  0
 85171  1  0  0  0
 86 89  1  0  0  0
 86172  1  0  0  0
 86173  1  0  0  0
 87 90  1  0  0  0
 87174  1  0  0  0
 87175  1  0  0  0
 88176  1  0  0  0
 88177  1  0  0  0
 89178  1  0  0  0
 90179  1  0  0  0
 90180  1  0  0  0
M  CHG  1  90   1
M  ISO  4   1 100  68 101  88 101  89 100
M  END
> <chiral flag>
0

> <version>
0

> <s_m_source_file>
/data/baiqing/PycharmProjects/Reinvent-master-3.2/result/LINK_invent/BTK/process_docking_weight1_custom_sum_contain_oxygen_bond_distance_aromatic_linkinvent_7_9_3/rearranged_h_0035.sdf

> <i_m_source_file_index>
19

> <r_mmod_Potential_Energy-OPLS-2005>
-235.340911865234

> <r_mmod_Stretch_Energy-OPLS-2005>
33.1546669006348

> <r_mmod_Bend_Energy-OPLS-2005>
89.9447402954102

> <r_mmod_Torsional_Energy-OPLS-2005>
241.622177124023

> <r_mmod_Improper_Torsional_Energy-OPLS-2005>
8.01605987548828

> <r_mmod_Van_der_Waal_Energy-OPLS-2005>
158.444000244141

> <r_mmod_Electrostatic_Energy-OPLS-2005>
-330.869659423828

> <r_mmod_Solvation_Energy-OPLS-2005>
-446.722534179688

> <b_mmod_Minimization_Converged-OPLS-2005>
0

> <r_mmod_RMS_Derivative-OPLS-2005>
2.14327192306519

$$$$
19
                    3D
 Structure written by MMmdl.
161169  0  0  1  0            999 V2000
  -30.7514  -14.3579   20.6740 C   0  0  0  0  0  0
  -30.4237  -12.2804   19.3869 C   0  0  0  0  0  0
  -29.4864  -12.5260   18.1895 C   0  0  0  0  0  0
  -28.0105  -12.3821   18.6063 C   0  0  0  0  0  0
  -27.6706  -13.1952   19.8835 C   0  0  2  0  0  0
  -28.7092  -12.9135   20.9922 C   0  0  0  0  0  0
  -25.2630  -13.8135   20.5662 C   0  0  0  0  0  0
  -24.1864  -13.0445   20.9147 C   0  0  0  0  0  0
  -24.6394  -11.6895   20.8723 C   0  0  0  0  0  0
  -23.9054  -10.4298   21.0407 C   0  0  0  0  0  0
  -24.3611   -9.4215   21.9187 C   0  0  0  0  0  0
  -23.6283   -8.2252   22.0758 C   0  0  0  0  0  0
  -22.4265   -8.0290   21.3545 C   0  0  0  0  0  0
  -21.9903   -9.0270   20.4652 C   0  0  0  0  0  0
  -22.7230  -10.2143   20.3057 C   0  0  0  0  0  0
  -21.6854   -6.0739   22.5273 C   0  0  0  0  0  0
  -21.4023   -6.5645   23.8213 C   0  0  0  0  0  0
  -21.3656   -5.6793   24.9175 C   0  0  0  0  0  0
  -21.6042   -4.3059   24.7220 C   0  0  0  0  0  0
  -21.8820   -3.8146   23.4346 C   0  0  0  0  0  0
  -21.9199   -4.6965   22.3400 C   0  0  0  0  0  0
  -22.7892  -13.5260   21.1821 C   0  0  0  0  0  0
  -22.1660   -4.2157   21.0974 F   0  0  0  0  0  0
  -21.5625   -3.4533   25.7732 F   0  0  0  0  0  0
  -30.0540  -13.2133   20.4592 N   0  0  0  0  0  0
  -26.3070  -12.9295   20.3392 N   0  0  0  0  0  0
  -25.9317  -11.6466   20.5752 N   0  0  0  0  0  0
  -22.0525  -12.8262   22.0376 N   0  0  0  0  0  0
  -25.4383  -15.1856   20.4087 N   0  0  0  0  0  0
  -31.7767  -14.6666   20.0585 O   0  0  0  0  0  0
  -21.6634   -6.8876   21.4237 O   0  0  0  0  0  0
  -22.3585  -14.5581   20.6684 O   0  0  0  0  0  0
  -24.6105  -31.8705   23.2087 C   0  0  0  0  0  0
  -25.9002  -32.4837   23.8367 C   0  0  1  0  0  0
  -27.2519  -27.4722   20.0991 C   0  0  0  0  0  0
  -25.5890  -33.8630   24.2349 N   0  0  0  0  0  0
  -23.3972  -30.4922   21.5493 C   0  0  2  0  0  0
  -24.8486  -28.9575   20.1241 C   0  0  0  0  0  0
  -22.7378  -29.4692   22.5017 C   0  0  0  0  0  0
  -18.0265  -28.1363   22.8526 C   0  0  0  0  0  0
  -24.1499  -36.7353   23.2627 C   0  0  0  0  0  0
  -25.9195  -30.8513   21.3524 C   0  0  0  0  0  0
  -26.0031  -29.4803   20.7202 C   0  0  0  0  0  0
  -27.2074  -28.7442   20.7145 C   0  0  0  0  0  0
  -26.0847  -26.9606   19.4960 C   0  0  0  0  0  0
  -24.8807  -27.6912   19.5139 C   0  0  0  0  0  0
  -23.6060  -29.8160   20.1676 C   0  0  0  0  0  0
  -25.4114  -36.3144   24.0339 C   0  0  1  0  0  0
  -20.5864  -28.3655   23.1345 C   0  0  2  0  0  0
  -20.6788  -26.9389   22.5435 C   0  0  0  0  0  0
  -19.5756  -26.6380   21.5236 C   0  0  0  0  0  0
  -18.1933  -26.7919   22.1639 C   0  0  0  0  0  0
  -19.1513  -28.8817   23.2948 C   0  0  0  0  0  0
  -18.9430  -30.1442   23.8930 C   0  0  0  0  0  0
  -17.6425  -30.6588   24.0573 C   0  0  0  0  0  0
  -25.9019  -34.9495   23.5140 C   0  0  0  0  0  0
  -16.5321  -29.9080   23.6338 C   0  0  0  0  0  0
  -16.7248  -28.6500   23.0356 C   0  0  0  0  0  0
  -26.4446  -31.6517   25.0628 C   0  0  0  0  0  0
  -25.3741  -31.3571   26.1382 C   0  0  0  0  0  0
  -27.0177  -30.2947   24.5895 C   0  0  0  0  0  0
  -27.6115  -32.4119   25.7365 C   0  0  0  0  0  0
  -27.5587  -37.1815   24.8449 C   0  0  0  0  0  0
  -21.4111  -29.3033   22.3744 N   0  0  0  0  0  0
  -26.4309  -37.3803   23.9386 N   0  0  0  0  0  0
  -24.6603  -31.0868   22.0960 N   0  0  0  0  0  0
  -23.4153  -28.8239   23.3055 O   0  0  0  0  0  0
  -28.3953  -26.7136   20.0000 O   0  0  0  0  0  0
  -26.5561  -34.8931   22.4686 O   0  0  0  0  0  0
  -23.5310  -32.1416   23.7506 O   0  0  0  0  0  0
  -28.2336  -22.2709   21.8667 C   0  0  0  0  0  0
  -27.4294  -21.6229   24.4114 C   0  0  0  0  0  0
  -27.9054  -23.3241   22.7501 C   0  0  0  0  0  0
  -27.5002  -22.9865   24.0648 C   0  0  0  0  0  0
  -28.1429  -20.9411   22.3158 C   0  0  0  0  0  0
  -27.9435  -24.7677   22.2565 C   0  0  0  0  0  0
  -28.4378  -19.7697   21.3924 C   0  0  0  0  0  0
  -29.2873  -25.1924   21.6370 C   0  0  0  0  0  0
  -29.6149  -18.8977   21.8753 C   0  0  0  0  0  0
  -29.5901  -17.4887   21.2633 C   0  0  0  0  0  0
  -30.5924  -16.5247   21.9209 C   0  0  0  0  0  0
  -29.2684  -26.6415   21.1268 C   0  0  0  0  0  0
  -27.7309  -20.6189   23.5606 N   0  0  0  0  0  0
  -30.2231  -15.1506   21.6106 N   0  0  0  0  0  0
  -27.0810  -24.1806   25.2453 Cl  0  0  0  0  0  0
  -31.4657  -12.3905   19.0818 H   0  0  0  0  0  0
  -30.3258  -11.2539   19.7426 H   0  0  0  0  0  0
  -29.7159  -11.8301   17.3813 H   0  0  0  0  0  0
  -29.6585  -13.5265   17.7881 H   0  0  0  0  0  0
  -27.8124  -11.3228   18.7767 H   0  0  0  0  0  0
  -27.3578  -12.6850   17.7861 H   0  0  0  0  0  0
  -27.7368  -14.2512   19.6230 H   0  0  0  0  0  0
  -28.6717  -11.8629   21.2845 H   0  0  0  0  0  0
  -28.4530  -13.4644   21.8973 H   0  0  0  0  0  0
  -25.2767   -9.5693   22.4753 H   0  0  0  0  0  0
  -24.0002   -7.4645   22.7477 H   0  0  0  0  0  0
  -21.0837   -8.8790   19.8957 H   0  0  0  0  0  0
  -22.3698  -10.9686   19.6160 H   0  0  0  0  0  0
  -21.2016   -7.6152   23.9718 H   0  0  0  0  0  0
  -21.1473   -6.0520   25.9076 H   0  0  0  0  0  0
  -22.0600   -2.7609   23.2836 H   0  0  0  0  0  0
  -22.4133  -11.9918   22.4769 H   0  0  0  0  0  0
  -21.1151  -13.1314   22.2581 H   0  0  0  0  0  0
  -24.6774  -15.8455   20.5237 H   0  0  0  0  0  0
  -26.3003  -15.6244   20.1101 H   0  0  0  0  0  0
  -26.7075  -32.5604   23.1145 H   0  0  0  0  0  0
  -25.0027  -33.9773   25.0497 H   0  0  0  0  0  0
  -22.6830  -31.3063   21.4061 H   0  0  0  0  0  0
  -23.3755  -35.9698   23.3302 H   0  0  0  0  0  0
  -24.3583  -36.8939   22.2033 H   0  0  0  0  0  0
  -23.7269  -37.6578   23.6617 H   0  0  0  0  0  0
  -26.0051  -31.5982   20.5629 H   0  0  0  0  0  0
  -26.8161  -30.9324   21.9544 H   0  0  0  0  0  0
  -28.0966  -29.1676   21.1592 H   0  0  0  0  0  0
  -26.1127  -25.9918   19.0172 H   0  0  0  0  0  0
  -23.9918  -27.2815   19.0545 H   0  0  0  0  0  0
  -23.7022  -30.5829   19.3975 H   0  0  0  0  0  0
  -22.7371  -29.2224   19.8831 H   0  0  0  0  0  0
  -25.1298  -36.2031   25.0839 H   0  0  0  0  0  0
  -20.9945  -28.3193   24.1464 H   0  0  0  0  0  0
  -20.5722  -26.2218   23.3598 H   0  0  0  0  0  0
  -21.6660  -26.7474   22.1185 H   0  0  0  0  0  0
  -19.6908  -25.6297   21.1253 H   0  0  0  0  0  0
  -19.6709  -27.3212   20.6791 H   0  0  0  0  0  0
  -17.4203  -26.6684   21.4039 H   0  0  0  0  0  0
  -18.0335  -26.0040   22.9016 H   0  0  0  0  0  0
  -19.7893  -30.7292   24.2279 H   0  0  0  0  0  0
  -17.4965  -31.6276   24.5170 H   0  0  0  0  0  0
  -15.5321  -30.2981   23.7654 H   0  0  0  0  0  0
  -15.8654  -28.0837   22.7027 H   0  0  0  0  0  0
  -24.5929  -30.6911   25.7702 H   0  0  0  0  0  0
  -24.8896  -32.2693   26.4872 H   0  0  0  0  0  0
  -25.8126  -30.8668   27.0081 H   0  0  0  0  0  0
  -26.2647  -29.6836   24.0901 H   0  0  0  0  0  0
  -27.3888  -29.7052   25.4290 H   0  0  0  0  0  0
  -27.8539  -30.4246   23.9023 H   0  0  0  0  0  0
  -27.2861  -33.3444   26.1987 H   0  0  0  0  0  0
  -28.3897  -32.6567   25.0125 H   0  0  0  0  0  0
  -28.0774  -31.8107   26.5187 H   0  0  0  0  0  0
  -28.2587  -38.0125   24.7478 H   0  0  0  0  0  0
  -28.1086  -36.2631   24.6325 H   0  0  0  0  0  0
  -27.2229  -37.1517   25.8826 H   0  0  0  0  0  0
  -20.9249  -29.8727   21.6963 H   0  0  0  0  0  0
  -26.0225  -38.2878   24.1449 H   0  0  0  0  0  0
  -28.5308  -22.4792   20.8475 H   0  0  0  0  0  0
  -27.1110  -21.3225   25.3990 H   0  0  0  0  0  0
  -27.7058  -25.4617   23.0615 H   0  0  0  0  0  0
  -27.1437  -24.8819   21.5234 H   0  0  0  0  0  0
  -28.6354  -20.1303   20.3824 H   0  0  0  0  0  0
  -27.5259  -19.1741   21.3280 H   0  0  0  0  0  0
  -29.5600  -24.5296   20.8143 H   0  0  0  0  0  0
  -30.0714  -25.0927   22.3881 H   0  0  0  0  0  0
  -29.5440  -18.7792   22.9573 H   0  0  0  0  0  0
  -30.5652  -19.3962   21.6837 H   0  0  0  0  0  0
  -29.7714  -17.5416   20.1889 H   0  0  0  0  0  0
  -28.5843  -17.0839   21.3813 H   0  0  0  0  0  0
  -30.5608  -16.6309   23.0057 H   0  0  0  0  0  0
  -31.6158  -16.7504   21.6155 H   0  0  0  0  0  0
  -30.2691  -26.9237   20.7985 H   0  0  0  0  0  0
  -29.0060  -27.3122   21.9455 H   0  0  0  0  0  0
  -29.4115  -14.7807   22.0833 H   0  0  0  0  0  0
  1 25  1  0  0  0
  1 30  2  0  0  0
  1 84  1  0  0  0
  2  3  1  0  0  0
  2 25  1  0  0  0
  2 86  1  0  0  0
  2 87  1  0  0  0
  3  4  1  0  0  0
  3 88  1  0  0  0
  3 89  1  0  0  0
  4  5  1  0  0  0
  4 90  1  0  0  0
  4 91  1  0  0  0
  5  6  1  0  0  0
  5 26  1  0  0  0
  5 92  1  0  0  0
  6 25  1  0  0  0
  6 93  1  0  0  0
  6 94  1  0  0  0
  7  8  2  0  0  0
  7 26  1  0  0  0
  7 29  1  0  0  0
  8  9  1  0  0  0
  8 22  1  0  0  0
  9 10  1  0  0  0
  9 27  2  0  0  0
 10 11  2  0  0  0
 10 15  1  0  0  0
 11 12  1  0  0  0
 11 95  1  0  0  0
 12 13  2  0  0  0
 12 96  1  0  0  0
 13 14  1  0  0  0
 13 31  1  0  0  0
 14 15  2  0  0  0
 14 97  1  0  0  0
 15 98  1  0  0  0
 16 17  2  0  0  0
 16 21  1  0  0  0
 16 31  1  0  0  0
 17 18  1  0  0  0
 17 99  1  0  0  0
 18 19  2  0  0  0
 18100  1  0  0  0
 19 20  1  0  0  0
 19 24  1  0  0  0
 20 21  2  0  0  0
 20101  1  0  0  0
 21 23  1  0  0  0
 22 28  1  0  0  0
 22 32  2  0  0  0
 26 27  1  0  0  0
 28102  1  0  0  0
 28103  1  0  0  0
 29104  1  0  0  0
 29105  1  0  0  0
 33 34  1  0  0  0
 33 66  1  0  0  0
 33 70  2  0  0  0
 34 36  1  0  0  0
 34 59  1  0  0  0
 34106  1  0  0  0
 35 44  2  0  0  0
 35 45  1  0  0  0
 35 68  1  0  0  0
 36 56  1  0  0  0
 36107  1  0  0  0
 37 39  1  0  0  0
 37 47  1  0  0  0
 37 66  1  0  0  0
 37108  1  0  0  0
 38 43  2  0  0  0
 38 46  1  0  0  0
 38 47  1  0  0  0
 39 64  1  0  0  0
 39 67  2  0  0  0
 40 52  1  0  0  0
 40 53  2  0  0  0
 40 58  1  0  0  0
 41109  1  0  0  0
 41110  1  0  0  0
 41111  1  0  0  0
 41 48  1  0  0  0
 42 43  1  0  0  0
 42 66  1  0  0  0
 42112  1  0  0  0
 42113  1  0  0  0
 43 44  1  0  0  0
 44114  1  0  0  0
 45 46  2  0  0  0
 45115  1  0  0  0
 46116  1  0  0  0
 47117  1  0  0  0
 47118  1  0  0  0
 48 56  1  0  0  0
 48 65  1  0  0  0
 48119  1  0  0  0
 49 50  1  0  0  0
 49 53  1  0  0  0
 49 64  1  0  0  0
 49120  1  0  0  0
 50 51  1  0  0  0
 50121  1  0  0  0
 50122  1  0  0  0
 51 52  1  0  0  0
 51123  1  0  0  0
 51124  1  0  0  0
 52125  1  0  0  0
 52126  1  0  0  0
 53 54  1  0  0  0
 54 55  2  0  0  0
 54127  1  0  0  0
 55 57  1  0  0  0
 55128  1  0  0  0
 56 69  2  0  0  0
 57 58  2  0  0  0
 57129  1  0  0  0
 58130  1  0  0  0
 59 60  1  0  0  0
 59 61  1  0  0  0
 59 62  1  0  0  0
 60131  1  0  0  0
 60132  1  0  0  0
 60133  1  0  0  0
 61134  1  0  0  0
 61135  1  0  0  0
 61136  1  0  0  0
 62137  1  0  0  0
 62138  1  0  0  0
 62139  1  0  0  0
 63 65  1  0  0  0
 63140  1  0  0  0
 63141  1  0  0  0
 63142  1  0  0  0
 64143  1  0  0  0
 65144  1  0  0  0
 68 82  1  0  0  0
 71 73  2  0  0  0
 71 75  1  0  0  0
 71145  1  0  0  0
 72 74  2  0  0  0
 72 83  1  0  0  0
 72146  1  0  0  0
 73 74  1  0  0  0
 73 76  1  0  0  0
 74 85  1  0  0  0
 75 77  1  0  0  0
 75 83  2  0  0  0
 76 78  1  0  0  0
 76147  1  0  0  0
 76148  1  0  0  0
 77 79  1  0  0  0
 77149  1  0  0  0
 77150  1  0  0  0
 78 82  1  0  0  0
 78151  1  0  0  0
 78152  1  0  0  0
 79 80  1  0  0  0
 79153  1  0  0  0
 79154  1  0  0  0
 80 81  1  0  0  0
 80155  1  0  0  0
 80156  1  0  0  0
 81 84  1  0  0  0
 81157  1  0  0  0
 81158  1  0  0  0
 82159  1  0  0  0
 82160  1  0  0  0
 84161  1  0  0  0
M  ISO  4   1 100  68 101  82 101  84 100
M  END
> <chiral flag>
0

> <version>
0

> <s_m_source_file>
/data/baiqing/PycharmProjects/Reinvent-master-3.2/result/LINK_invent/BTK/process_docking_weight1_custom_sum_contain_oxygen_bond_distance_aromatic_linkinvent_7_9_3/rearranged_h_0035.sdf

> <i_m_source_file_index>
20

> <r_mmod_Potential_Energy-OPLS-2005>
-205.627243041992

> <r_mmod_Stretch_Energy-OPLS-2005>
31.9094486236572

> <r_mmod_Bend_Energy-OPLS-2005>
93.2504043579102

> <r_mmod_Torsional_Energy-OPLS-2005>
196.836044311523

> <r_mmod_Improper_Torsional_Energy-OPLS-2005>
2.18952775001526

> <r_mmod_Van_der_Waal_Energy-OPLS-2005>
155.675827026367

> <r_mmod_Electrostatic_Energy-OPLS-2005>
-475.668090820312

> <r_mmod_Solvation_Energy-OPLS-2005>
-215.545913696289

> <b_mmod_Minimization_Converged-OPLS-2005>
0

> <r_mmod_RMS_Derivative-OPLS-2005>
2.783047914505

$$$$
20
                    3D
 Structure written by MMmdl.
165173  0  0  1  0            999 V2000
  -30.7325  -14.4729   20.5842 C   0  0  0  0  0  0
  -30.4350  -12.3205   19.4326 C   0  0  0  0  0  0
  -29.5084  -12.5089   18.2148 C   0  0  0  0  0  0
  -28.0223  -12.3863   18.6155 C   0  0  0  0  0  0
  -27.6649  -13.2249   19.8742 C   0  0  2  0  0  0
  -28.7042  -13.0216   21.0023 C   0  0  0  0  0  0
  -25.2596  -13.8231   20.5683 C   0  0  0  0  0  0
  -24.1828  -13.0466   20.9149 C   0  0  0  0  0  0
  -24.6424  -11.6946   20.8697 C   0  0  0  0  0  0
  -23.9100  -10.4290   21.0364 C   0  0  0  0  0  0
  -24.3649   -9.4214   21.9149 C   0  0  0  0  0  0
  -23.6310   -8.2260   22.0739 C   0  0  0  0  0  0
  -22.4278   -8.0304   21.3574 C   0  0  0  0  0  0
  -21.9938   -9.0260   20.4655 C   0  0  0  0  0  0
  -22.7280  -10.2127   20.3037 C   0  0  0  0  0  0
  -21.6836   -6.0743   22.5272 C   0  0  0  0  0  0
  -21.3999   -6.5619   23.8206 C   0  0  0  0  0  0
  -21.3672   -5.6792   24.9175 C   0  0  0  0  0  0
  -21.6024   -4.3036   24.7215 C   0  0  0  0  0  0
  -21.8838   -3.8138   23.4337 C   0  0  0  0  0  0
  -21.9196   -4.6975   22.3399 C   0  0  0  0  0  0
  -22.7846  -13.5216   21.1824 C   0  0  0  0  0  0
  -22.1672   -4.2153   21.0984 F   0  0  0  0  0  0
  -21.5645   -3.4521   25.7733 F   0  0  0  0  0  0
  -30.0401  -13.3094   20.4519 N   0  0  0  0  0  0
  -26.3046  -12.9412   20.3362 N   0  0  0  0  0  0
  -25.9362  -11.6551   20.5772 N   0  0  0  0  0  0
  -22.0477  -12.8197   22.0389 N   0  0  0  0  0  0
  -25.4295  -15.1946   20.4135 N   0  0  0  0  0  0
  -31.8484  -14.6374   20.0897 O   0  0  0  0  0  0
  -21.6661   -6.8906   21.4242 O   0  0  0  0  0  0
  -22.3501  -14.5514   20.6683 O   0  0  0  0  0  0
  -24.6094  -31.8664   23.2069 C   0  0  0  0  0  0
  -25.8972  -32.4829   23.8387 C   0  0  1  0  0  0
  -27.2840  -27.4810   20.1050 C   0  0  0  0  0  0
  -25.5852  -33.8630   24.2331 N   0  0  0  0  0  0
  -23.4066  -30.4802   21.5387 C   0  0  2  0  0  0
  -24.8763  -28.9486   20.1133 C   0  0  0  0  0  0
  -22.7420  -29.4620   22.4925 C   0  0  0  0  0  0
  -18.0266  -28.1371   22.8477 C   0  0  0  0  0  0
  -24.1507  -36.7333   23.2631 C   0  0  0  0  0  0
  -25.9303  -30.8394   21.3686 C   0  0  0  0  0  0
  -26.0197  -29.4740   20.7260 C   0  0  0  0  0  0
  -27.2245  -28.7419   20.7307 C   0  0  0  0  0  0
  -26.1320  -26.9588   19.4841 C   0  0  0  0  0  0
  -24.9246  -27.6897   19.4884 C   0  0  0  0  0  0
  -23.6299  -29.8002   20.1565 C   0  0  0  0  0  0
  -25.4124  -36.3116   24.0325 C   0  0  1  0  0  0
  -20.5866  -28.3667   23.1307 C   0  0  2  0  0  0
  -20.6757  -26.9389   22.5417 C   0  0  0  0  0  0
  -19.5746  -26.6375   21.5196 C   0  0  0  0  0  0
  -18.1921  -26.7913   22.1604 C   0  0  0  0  0  0
  -19.1517  -28.8826   23.2899 C   0  0  0  0  0  0
  -18.9452  -30.1420   23.8932 C   0  0  0  0  0  0
  -17.6459  -30.6580   24.0557 C   0  0  0  0  0  0
  -25.9025  -34.9467   23.5121 C   0  0  0  0  0  0
  -16.5351  -29.9102   23.6302 C   0  0  0  0  0  0
  -16.7257  -28.6508   23.0334 C   0  0  0  0  0  0
  -26.4425  -31.6617   25.0707 C   0  0  0  0  0  0
  -25.3704  -31.3728   26.1470 C   0  0  0  0  0  0
  -27.0271  -30.3067   24.6069 C   0  0  0  0  0  0
  -27.6029  -32.4309   25.7454 C   0  0  0  0  0  0
  -27.5603  -37.1823   24.8450 C   0  0  0  0  0  0
  -21.4142  -29.3035   22.3703 N   0  0  0  0  0  0
  -26.4328  -37.3790   23.9372 N   0  0  0  0  0  0
  -24.6634  -31.0824   22.0940 N   0  0  0  0  0  0
  -23.4204  -28.8115   23.2912 O   0  0  0  0  0  0
  -28.4495  -26.7564   20.1378 O   0  0  0  0  0  0
  -26.5576  -34.8926   22.4677 O   0  0  0  0  0  0
  -23.5283  -32.1360   23.7466 O   0  0  0  0  0  0
  -30.6412  -22.5847   21.1356 C   0  0  0  0  0  0
  -29.0913  -23.6228   19.0459 C   0  0  0  0  0  0
  -30.9682  -23.8394   20.5790 C   0  0  0  0  0  0
  -28.8276  -22.3261   19.5345 C   0  0  0  0  0  0
  -29.5462  -21.8413   20.6541 C   0  0  0  0  0  0
  -30.1457  -24.4033   19.5652 C   0  0  0  0  0  0
  -32.2123  -24.5500   21.0771 C   0  0  0  0  0  0
  -27.8083  -21.4650   18.8043 C   0  0  0  0  0  0
  -29.1690  -20.5437   21.3640 C   0  0  0  0  0  0
  -30.4037  -25.7945   18.9689 C   0  0  0  0  0  0
  -30.1866  -19.4107   21.1647 C   0  0  0  0  0  0
  -29.5985  -17.9977   21.3999 C   0  0  0  0  0  0
  -30.6290  -16.8815   21.1298 C   0  0  0  0  0  0
  -29.1837  -26.7480   18.9207 C   0  0  0  0  0  0
  -30.0873  -15.5102   21.1536 N   0  0  0  0  0  0
  -31.4765  -12.4350   19.1193 H   0  0  0  0  0  0
  -30.3608  -11.3087   19.8388 H   0  0  0  0  0  0
  -29.7584  -11.7804   17.4438 H   0  0  0  0  0  0
  -29.6900  -13.4903   17.7699 H   0  0  0  0  0  0
  -27.7976  -11.3331   18.7965 H   0  0  0  0  0  0
  -27.3911  -12.6854   17.7765 H   0  0  0  0  0  0
  -27.7125  -14.2738   19.5793 H   0  0  0  0  0  0
  -28.6762  -11.9941   21.3627 H   0  0  0  0  0  0
  -28.4641  -13.6377   21.8721 H   0  0  0  0  0  0
  -25.2800   -9.5655   22.4728 H   0  0  0  0  0  0
  -24.0020   -7.4631   22.7430 H   0  0  0  0  0  0
  -21.0894   -8.8753   19.8962 H   0  0  0  0  0  0
  -22.3723  -10.9658   19.6144 H   0  0  0  0  0  0
  -21.1979   -7.6121   23.9699 H   0  0  0  0  0  0
  -21.1483   -6.0517   25.9085 H   0  0  0  0  0  0
  -22.0622   -2.7605   23.2816 H   0  0  0  0  0  0
  -22.4155  -11.9920   22.4847 H   0  0  0  0  0  0
  -21.1100  -13.1176   22.2595 H   0  0  0  0  0  0
  -24.6583  -15.8477   20.5094 H   0  0  0  0  0  0
  -26.2874  -15.6322   20.0974 H   0  0  0  0  0  0
  -26.7035  -32.5613   23.1166 H   0  0  0  0  0  0
  -25.0046  -33.9776   25.0505 H   0  0  0  0  0  0
  -22.6954  -31.2935   21.3792 H   0  0  0  0  0  0
  -23.3763  -35.9678   23.3305 H   0  0  0  0  0  0
  -24.3617  -36.8944   22.2049 H   0  0  0  0  0  0
  -23.7286  -37.6548   23.6649 H   0  0  0  0  0  0
  -26.0516  -31.6047   20.6020 H   0  0  0  0  0  0
  -26.8148  -30.8976   21.9914 H   0  0  0  0  0  0
  -28.1095  -29.1387   21.2114 H   0  0  0  0  0  0
  -26.1750  -25.9940   19.0001 H   0  0  0  0  0  0
  -24.0512  -27.2912   18.9913 H   0  0  0  0  0  0
  -23.7389  -30.5616   19.3827 H   0  0  0  0  0  0
  -22.7688  -29.1975   19.8633 H   0  0  0  0  0  0
  -25.1322  -36.1980   25.0827 H   0  0  0  0  0  0
  -20.9957  -28.3216   24.1430 H   0  0  0  0  0  0
  -20.5631  -26.2253   23.3595 H   0  0  0  0  0  0
  -21.6633  -26.7400   22.1226 H   0  0  0  0  0  0
  -19.6915  -25.6285   21.1224 H   0  0  0  0  0  0
  -19.6712  -27.3184   20.6725 H   0  0  0  0  0  0
  -17.4190  -26.6627   21.4020 H   0  0  0  0  0  0
  -18.0348  -26.0063   22.9008 H   0  0  0  0  0  0
  -19.7932  -30.7191   24.2365 H   0  0  0  0  0  0
  -17.5029  -31.6269   24.5137 H   0  0  0  0  0  0
  -15.5358  -30.3022   23.7613 H   0  0  0  0  0  0
  -15.8649  -28.0845   22.7056 H   0  0  0  0  0  0
  -24.5842  -30.7115   25.7803 H   0  0  0  0  0  0
  -24.8932  -32.2903   26.4930 H   0  0  0  0  0  0
  -25.8057  -30.8870   27.0212 H   0  0  0  0  0  0
  -26.2826  -29.6825   24.1109 H   0  0  0  0  0  0
  -27.4055  -29.7291   25.4514 H   0  0  0  0  0  0
  -27.8648  -30.4407   23.9217 H   0  0  0  0  0  0
  -27.2675  -33.3584   26.2092 H   0  0  0  0  0  0
  -28.3811  -32.6896   25.0265 H   0  0  0  0  0  0
  -28.0717  -31.8384   26.5317 H   0  0  0  0  0  0
  -28.2608  -38.0128   24.7505 H   0  0  0  0  0  0
  -28.1116  -36.2664   24.6287 H   0  0  0  0  0  0
  -27.2304  -37.1473   25.8845 H   0  0  0  0  0  0
  -20.9282  -29.8852   21.7021 H   0  0  0  0  0  0
  -26.0222  -38.2876   24.1363 H   0  0  0  0  0  0
  -31.2474  -22.1662   21.9276 H   0  0  0  0  0  0
  -28.4779  -24.0217   18.2491 H   0  0  0  0  0  0
  -31.9691  -25.5589   21.4038 H   0  0  0  0  0  0
  -32.9576  -24.5936   20.2819 H   0  0  0  0  0  0
  -32.6744  -24.0338   21.9196 H   0  0  0  0  0  0
  -28.1255  -20.4199   18.7839 H   0  0  0  0  0  0
  -27.6991  -21.7669   17.7598 H   0  0  0  0  0  0
  -26.8307  -21.5297   19.2797 H   0  0  0  0  0  0
  -28.1763  -20.2167   21.0626 H   0  0  0  0  0  0
  -29.0893  -20.7632   22.4287 H   0  0  0  0  0  0
  -30.7842  -25.6624   17.9531 H   0  0  0  0  0  0
  -31.2022  -26.3101   19.4969 H   0  0  0  0  0  0
  -30.5741  -19.4667   20.1463 H   0  0  0  0  0  0
  -31.0312  -19.5824   21.8325 H   0  0  0  0  0  0
  -28.7335  -17.8602   20.7500 H   0  0  0  0  0  0
  -29.2331  -17.9179   22.4237 H   0  0  0  0  0  0
  -31.0693  -17.0672   20.1488 H   0  0  0  0  0  0
  -31.4446  -16.9497   21.8481 H   0  0  0  0  0  0
  -28.5146  -26.4777   18.1039 H   0  0  0  0  0  0
  -29.5482  -27.7602   18.7268 H   0  0  0  0  0  0
  -29.1681  -15.3551   21.5348 H   0  0  0  0  0  0
  1 25  1  0  0  0
  1 30  2  0  0  0
  1 85  1  0  0  0
  2  3  1  0  0  0
  2 25  1  0  0  0
  2 86  1  0  0  0
  2 87  1  0  0  0
  3  4  1  0  0  0
  3 88  1  0  0  0
  3 89  1  0  0  0
  4  5  1  0  0  0
  4 90  1  0  0  0
  4 91  1  0  0  0
  5  6  1  0  0  0
  5 26  1  0  0  0
  5 92  1  0  0  0
  6 25  1  0  0  0
  6 93  1  0  0  0
  6 94  1  0  0  0
  7  8  2  0  0  0
  7 26  1  0  0  0
  7 29  1  0  0  0
  8  9  1  0  0  0
  8 22  1  0  0  0
  9 10  1  0  0  0
  9 27  2  0  0  0
 10 11  2  0  0  0
 10 15  1  0  0  0
 11 12  1  0  0  0
 11 95  1  0  0  0
 12 13  2  0  0  0
 12 96  1  0  0  0
 13 14  1  0  0  0
 13 31  1  0  0  0
 14 15  2  0  0  0
 14 97  1  0  0  0
 15 98  1  0  0  0
 16 17  2  0  0  0
 16 21  1  0  0  0
 16 31  1  0  0  0
 17 18  1  0  0  0
 17 99  1  0  0  0
 18 19  2  0  0  0
 18100  1  0  0  0
 19 20  1  0  0  0
 19 24  1  0  0  0
 20 21  2  0  0  0
 20101  1  0  0  0
 21 23  1  0  0  0
 22 28  1  0  0  0
 22 32  2  0  0  0
 26 27  1  0  0  0
 28102  1  0  0  0
 28103  1  0  0  0
 29104  1  0  0  0
 29105  1  0  0  0
 33 34  1  0  0  0
 33 66  1  0  0  0
 33 70  2  0  0  0
 34 36  1  0  0  0
 34 59  1  0  0  0
 34106  1  0  0  0
 35 44  2  0  0  0
 35 45  1  0  0  0
 35 68  1  0  0  0
 36 56  1  0  0  0
 36107  1  0  0  0
 37 39  1  0  0  0
 37 47  1  0  0  0
 37 66  1  0  0  0
 37108  1  0  0  0
 38 43  2  0  0  0
 38 46  1  0  0  0
 38 47  1  0  0  0
 39 64  1  0  0  0
 39 67  2  0  0  0
 40 52  1  0  0  0
 40 53  2  0  0  0
 40 58  1  0  0  0
 41109  1  0  0  0
 41110  1  0  0  0
 41111  1  0  0  0
 41 48  1  0  0  0
 42 43  1  0  0  0
 42 66  1  0  0  0
 42112  1  0  0  0
 42113  1  0  0  0
 43 44  1  0  0  0
 44114  1  0  0  0
 45 46  2  0  0  0
 45115  1  0  0  0
 46116  1  0  0  0
 47117  1  0  0  0
 47118  1  0  0  0
 48 56  1  0  0  0
 48 65  1  0  0  0
 48119  1  0  0  0
 49 50  1  0  0  0
 49 53  1  0  0  0
 49 64  1  0  0  0
 49120  1  0  0  0
 50 51  1  0  0  0
 50121  1  0  0  0
 50122  1  0  0  0
 51 52  1  0  0  0
 51123  1  0  0  0
 51124  1  0  0  0
 52125  1  0  0  0
 52126  1  0  0  0
 53 54  1  0  0  0
 54 55  2  0  0  0
 54127  1  0  0  0
 55 57  1  0  0  0
 55128  1  0  0  0
 56 69  2  0  0  0
 57 58  2  0  0  0
 57129  1  0  0  0
 58130  1  0  0  0
 59 60  1  0  0  0
 59 61  1  0  0  0
 59 62  1  0  0  0
 60131  1  0  0  0
 60132  1  0  0  0
 60133  1  0  0  0
 61134  1  0  0  0
 61135  1  0  0  0
 61136  1  0  0  0
 62137  1  0  0  0
 62138  1  0  0  0
 62139  1  0  0  0
 63 65  1  0  0  0
 63140  1  0  0  0
 63141  1  0  0  0
 63142  1  0  0  0
 64143  1  0  0  0
 65144  1  0  0  0
 68 84  1  0  0  0
 71 73  2  0  0  0
 71 75  1  0  0  0
 71145  1  0  0  0
 72 74  1  0  0  0
 72 76  2  0  0  0
 72146  1  0  0  0
 73 76  1  0  0  0
 73 77  1  0  0  0
 74 75  2  0  0  0
 74 78  1  0  0  0
 75 79  1  0  0  0
 76 80  1  0  0  0
 77147  1  0  0  0
 77148  1  0  0  0
 77149  1  0  0  0
 78150  1  0  0  0
 78151  1  0  0  0
 78152  1  0  0  0
 79 81  1  0  0  0
 79153  1  0  0  0
 79154  1  0  0  0
 80 84  1  0  0  0
 80155  1  0  0  0
 80156  1  0  0  0
 81 82  1  0  0  0
 81157  1  0  0  0
 81158  1  0  0  0
 82 83  1  0  0  0
 82159  1  0  0  0
 82160  1  0  0  0
 83 85  1  0  0  0
 83161  1  0  0  0
 83162  1  0  0  0
 84163  1  0  0  0
 84164  1  0  0  0
 85165  1  0  0  0
M  ISO  4   1 100  68 101  84 101  85 100
M  END
> <chiral flag>
0

> <version>
0

> <s_m_source_file>
/data/baiqing/PycharmProjects/Reinvent-master-3.2/result/LINK_invent/BTK/process_docking_weight1_custom_sum_contain_oxygen_bond_distance_aromatic_linkinvent_7_9_3/rearranged_h_0035.sdf

> <i_m_source_file_index>
21

> <r_mmod_Potential_Energy-OPLS-2005>
-67.7153167724609

> <r_mmod_Stretch_Energy-OPLS-2005>
35.9973449707031

> <r_mmod_Bend_Energy-OPLS-2005>
91.8127899169922

> <r_mmod_Torsional_Energy-OPLS-2005>
228.820861816406

> <r_mmod_Improper_Torsional_Energy-OPLS-2005>
3.51895833015442

> <r_mmod_Van_der_Waal_Energy-OPLS-2005>
151.446304321289

> <r_mmod_Electrostatic_Energy-OPLS-2005>
-383.292358398438

> <r_mmod_Solvation_Energy-OPLS-2005>
-209.391723632812

> <b_mmod_Minimization_Converged-OPLS-2005>
0

> <r_mmod_RMS_Derivative-OPLS-2005>
7.11953735351562

$$$$
21
                    3D
 Structure written by MMmdl.
170178  0  0  1  0            999 V2000
  -30.7755  -14.3795   20.6847 C   0  0  0  0  0  0
  -30.4138  -12.2999   19.4045 C   0  0  0  0  0  0
  -29.4847  -12.5315   18.1992 C   0  0  0  0  0  0
  -28.0124  -12.3732   18.6169 C   0  0  0  0  0  0
  -27.6651  -13.2061   19.8782 C   0  0  2  0  0  0
  -28.7021  -12.9707   20.9997 C   0  0  0  0  0  0
  -25.2593  -13.8165   20.5673 C   0  0  0  0  0  0
  -24.1838  -13.0443   20.9162 C   0  0  0  0  0  0
  -24.6395  -11.6908   20.8725 C   0  0  0  0  0  0
  -23.9060  -10.4296   21.0402 C   0  0  0  0  0  0
  -24.3615   -9.4214   21.9186 C   0  0  0  0  0  0
  -23.6292   -8.2247   22.0759 C   0  0  0  0  0  0
  -22.4274   -8.0284   21.3549 C   0  0  0  0  0  0
  -21.9908   -9.0255   20.4649 C   0  0  0  0  0  0
  -22.7233  -10.2133   20.3054 C   0  0  0  0  0  0
  -21.6852   -6.0736   22.5283 C   0  0  0  0  0  0
  -21.4014   -6.5640   23.8216 C   0  0  0  0  0  0
  -21.3658   -5.6790   24.9178 C   0  0  0  0  0  0
  -21.6044   -4.3054   24.7225 C   0  0  0  0  0  0
  -21.8817   -3.8147   23.4347 C   0  0  0  0  0  0
  -21.9193   -4.6964   22.3406 C   0  0  0  0  0  0
  -22.7861  -13.5245   21.1830 C   0  0  0  0  0  0
  -22.1661   -4.2151   21.0982 F   0  0  0  0  0  0
  -21.5627   -3.4538   25.7737 F   0  0  0  0  0  0
  -30.0461  -13.2541   20.4627 N   0  0  0  0  0  0
  -26.3036  -12.9334   20.3375 N   0  0  0  0  0  0
  -25.9325  -11.6491   20.5771 N   0  0  0  0  0  0
  -22.0498  -12.8233   22.0379 N   0  0  0  0  0  0
  -25.4320  -15.1884   20.4096 N   0  0  0  0  0  0
  -31.8012  -14.6520   20.0537 O   0  0  0  0  0  0
  -21.6640   -6.8880   21.4246 O   0  0  0  0  0  0
  -22.3553  -14.5555   20.6689 O   0  0  0  0  0  0
  -24.6110  -31.8705   23.2111 C   0  0  0  0  0  0
  -25.9002  -32.4832   23.8418 C   0  0  1  0  0  0
  -27.2346  -27.4655   20.0895 C   0  0  0  0  0  0
  -25.5877  -33.8641   24.2349 N   0  0  0  0  0  0
  -23.3966  -30.4899   21.5541 C   0  0  2  0  0  0
  -24.8419  -28.9568   20.1188 C   0  0  0  0  0  0
  -22.7387  -29.4654   22.5047 C   0  0  0  0  0  0
  -18.0271  -28.1338   22.8495 C   0  0  0  0  0  0
  -24.1482  -36.7312   23.2641 C   0  0  0  0  0  0
  -25.9208  -30.8404   21.3615 C   0  0  0  0  0  0
  -25.9987  -29.4764   20.7136 C   0  0  0  0  0  0
  -27.2011  -28.7375   20.6997 C   0  0  0  0  0  0
  -26.0679  -26.9553   19.4872 C   0  0  0  0  0  0
  -24.8668  -27.6913   19.5064 C   0  0  0  0  0  0
  -23.5986  -29.8159   20.1702 C   0  0  0  0  0  0
  -25.4099  -36.3125   24.0348 C   0  0  1  0  0  0
  -20.5855  -28.3605   23.1327 C   0  0  2  0  0  0
  -20.6752  -26.9351   22.5418 C   0  0  0  0  0  0
  -19.5744  -26.6358   21.5199 C   0  0  0  0  0  0
  -18.1921  -26.7895   22.1600 C   0  0  0  0  0  0
  -19.1519  -28.8799   23.2901 C   0  0  0  0  0  0
  -18.9452  -30.1422   23.8884 C   0  0  0  0  0  0
  -17.6453  -30.6558   24.0554 C   0  0  0  0  0  0
  -25.9025  -34.9493   23.5144 C   0  0  0  0  0  0
  -16.5336  -29.9045   23.6361 C   0  0  0  0  0  0
  -16.7265  -28.6460   23.0383 C   0  0  0  0  0  0
  -26.4436  -31.6619   25.0748 C   0  0  0  0  0  0
  -25.3707  -31.3745   26.1516 C   0  0  0  0  0  0
  -27.0263  -30.3073   24.6089 C   0  0  0  0  0  0
  -27.6024  -32.4342   25.7478 C   0  0  0  0  0  0
  -27.5588  -37.1801   24.8459 C   0  0  0  0  0  0
  -21.4122  -29.2968   22.3737 N   0  0  0  0  0  0
  -26.4295  -37.3800   23.9421 N   0  0  0  0  0  0
  -24.6605  -31.0819   22.1002 N   0  0  0  0  0  0
  -23.4172  -28.8252   23.3134 O   0  0  0  0  0  0
  -28.3914  -26.7277   20.0448 O   0  0  0  0  0  0
  -26.5594  -34.8945   22.4710 O   0  0  0  0  0  0
  -23.5306  -32.1452   23.7512 O   0  0  0  0  0  0
  -27.0034  -23.1410   18.7896 C   0  0  0  0  0  0
  -27.7834  -22.6870   19.8700 C   0  0  0  0  0  0
  -27.5776  -21.3540   20.3287 C   0  0  0  0  0  0
  -26.0338  -22.2983   18.2254 C   0  0  0  0  0  0
  -26.5735  -20.5825   19.6864 C   0  0  0  0  0  0
  -25.1556  -22.7729   17.0859 C   0  0  0  0  0  0
  -26.2461  -19.1598   20.1048 C   0  0  0  0  0  0
  -28.7933  -23.6655   20.4644 C   0  0  0  0  0  0
  -28.3820  -20.7301   21.4740 C   0  0  0  0  0  0
  -28.1502  -24.7096   21.4063 C   0  0  0  0  0  0
  -29.5021  -19.7859   20.9787 C   0  0  0  0  0  0
  -29.7185  -18.5453   21.8741 C   0  0  0  0  0  0
  -30.8462  -17.6256   21.3635 C   0  0  0  0  0  0
  -31.0604  -16.3421   22.1996 C   0  0  0  0  0  0
  -28.7593  -26.1221   21.2835 C   0  0  0  0  0  0
  -25.8214  -21.0474   18.6678 N   0  0  0  0  0  0
  -30.3430  -15.1730   21.6772 N   0  0  0  0  0  0
  -31.4578  -12.3926   19.1003 H   0  0  0  0  0  0
  -30.3080  -11.2796   19.7769 H   0  0  0  0  0  0
  -29.7248  -11.8330   17.3969 H   0  0  0  0  0  0
  -29.6472  -13.5319   17.7956 H   0  0  0  0  0  0
  -27.8342  -11.3154   18.8120 H   0  0  0  0  0  0
  -27.3538  -12.6451   17.7917 H   0  0  0  0  0  0
  -27.7166  -14.2574   19.5925 H   0  0  0  0  0  0
  -28.6642  -11.9354   21.3418 H   0  0  0  0  0  0
  -28.4467  -13.5720   21.8721 H   0  0  0  0  0  0
  -25.2764   -9.5686   22.4758 H   0  0  0  0  0  0
  -24.0000   -7.4640   22.7480 H   0  0  0  0  0  0
  -21.0838   -8.8776   19.8955 H   0  0  0  0  0  0
  -22.3702  -10.9672   19.6157 H   0  0  0  0  0  0
  -21.2005   -7.6147   23.9722 H   0  0  0  0  0  0
  -21.1480   -6.0519   25.9080 H   0  0  0  0  0  0
  -22.0596   -2.7609   23.2847 H   0  0  0  0  0  0
  -22.4106  -11.9898   22.4774 H   0  0  0  0  0  0
  -21.1121  -13.1275   22.2584 H   0  0  0  0  0  0
  -24.6664  -15.8442   20.5165 H   0  0  0  0  0  0
  -26.2938  -15.6265   20.1101 H   0  0  0  0  0  0
  -26.7064  -32.5528   23.1181 H   0  0  0  0  0  0
  -25.0047  -33.9807   25.0503 H   0  0  0  0  0  0
  -22.6853  -31.3059   21.4157 H   0  0  0  0  0  0
  -23.3755  -35.9632   23.3301 H   0  0  0  0  0  0
  -24.3578  -36.8930   22.2057 H   0  0  0  0  0  0
  -23.7234  -37.6519   23.6644 H   0  0  0  0  0  0
  -26.0339  -31.6038   20.5910 H   0  0  0  0  0  0
  -26.8078  -30.8920   21.9808 H   0  0  0  0  0  0
  -28.1011  -29.1411   21.1428 H   0  0  0  0  0  0
  -26.0818  -25.9874   19.0091 H   0  0  0  0  0  0
  -23.9771  -27.2808   19.0498 H   0  0  0  0  0  0
  -23.6873  -30.5839   19.4004 H   0  0  0  0  0  0
  -22.7248  -29.2214   19.8941 H   0  0  0  0  0  0
  -25.1279  -36.1987   25.0841 H   0  0  0  0  0  0
  -20.9948  -28.3140   24.1448 H   0  0  0  0  0  0
  -20.5641  -26.2210   23.3586 H   0  0  0  0  0  0
  -21.6626  -26.7387   22.1229 H   0  0  0  0  0  0
  -19.6901  -25.6285   21.1198 H   0  0  0  0  0  0
  -19.6691  -27.3188   20.6750 H   0  0  0  0  0  0
  -17.4211  -26.6679   21.3973 H   0  0  0  0  0  0
  -18.0288  -25.9996   22.8945 H   0  0  0  0  0  0
  -19.7940  -30.7242   24.2218 H   0  0  0  0  0  0
  -17.5019  -31.6251   24.5134 H   0  0  0  0  0  0
  -15.5343  -30.2936   23.7709 H   0  0  0  0  0  0
  -15.8660  -28.0765   22.7131 H   0  0  0  0  0  0
  -24.5866  -30.7078   25.7901 H   0  0  0  0  0  0
  -24.8883  -32.2905   26.4943 H   0  0  0  0  0  0
  -25.8072  -30.8963   27.0293 H   0  0  0  0  0  0
  -26.2796  -29.6850   24.1131 H   0  0  0  0  0  0
  -27.4060  -29.7304   25.4531 H   0  0  0  0  0  0
  -27.8622  -30.4449   23.9226 H   0  0  0  0  0  0
  -27.2647  -33.3626   26.2102 H   0  0  0  0  0  0
  -28.3789  -32.6932   25.0266 H   0  0  0  0  0  0
  -28.0727  -31.8434   26.5348 H   0  0  0  0  0  0
  -28.2620  -38.0091   24.7541 H   0  0  0  0  0  0
  -28.1088  -36.2639   24.6243 H   0  0  0  0  0  0
  -27.2319  -37.1415   25.8866 H   0  0  0  0  0  0
  -20.9288  -29.8632   21.6891 H   0  0  0  0  0  0
  -26.0192  -38.2885   24.1406 H   0  0  0  0  0  0
  -27.1450  -24.1372   18.3938 H   0  0  0  0  0  0
  -24.5417  -23.6138   17.4092 H   0  0  0  0  0  0
  -24.4874  -21.9832   16.7393 H   0  0  0  0  0  0
  -25.7638  -23.0921   16.2401 H   0  0  0  0  0  0
  -25.8778  -19.1396   21.1299 H   0  0  0  0  0  0
  -27.1249  -18.5207   20.0365 H   0  0  0  0  0  0
  -25.4733  -18.7227   19.4699 H   0  0  0  0  0  0
  -29.2662  -24.1796   19.6273 H   0  0  0  0  0  0
  -29.6113  -23.1493   20.9646 H   0  0  0  0  0  0
  -27.6893  -20.1785   22.1090 H   0  0  0  0  0  0
  -28.7900  -21.4911   22.1381 H   0  0  0  0  0  0
  -28.2467  -24.3609   22.4343 H   0  0  0  0  0  0
  -27.0758  -24.7798   21.2274 H   0  0  0  0  0  0
  -30.4297  -20.3486   20.8638 H   0  0  0  0  0  0
  -29.2606  -19.4260   19.9774 H   0  0  0  0  0  0
  -28.7907  -17.9747   21.9379 H   0  0  0  0  0  0
  -29.9497  -18.8685   22.8902 H   0  0  0  0  0  0
  -31.7753  -18.1973   21.3749 H   0  0  0  0  0  0
  -30.6785  -17.3666   20.3175 H   0  0  0  0  0  0
  -30.7769  -16.5067   23.2399 H   0  0  0  0  0  0
  -32.1273  -16.1088   22.2271 H   0  0  0  0  0  0
  -29.8468  -26.0686   21.3404 H   0  0  0  0  0  0
  -28.4441  -26.7421   22.1254 H   0  0  0  0  0  0
  -29.5113  -14.8768   22.1671 H   0  0  0  0  0  0
  1 25  1  0  0  0
  1 30  2  0  0  0
  1 87  1  0  0  0
  2  3  1  0  0  0
  2 25  1  0  0  0
  2 88  1  0  0  0
  2 89  1  0  0  0
  3  4  1  0  0  0
  3 90  1  0  0  0
  3 91  1  0  0  0
  4  5  1  0  0  0
  4 92  1  0  0  0
  4 93  1  0  0  0
  5  6  1  0  0  0
  5 26  1  0  0  0
  5 94  1  0  0  0
  6 25  1  0  0  0
  6 95  1  0  0  0
  6 96  1  0  0  0
  7  8  2  0  0  0
  7 26  1  0  0  0
  7 29  1  0  0  0
  8  9  1  0  0  0
  8 22  1  0  0  0
  9 10  1  0  0  0
  9 27  2  0  0  0
 10 11  2  0  0  0
 10 15  1  0  0  0
 11 12  1  0  0  0
 11 97  1  0  0  0
 12 13  2  0  0  0
 12 98  1  0  0  0
 13 14  1  0  0  0
 13 31  1  0  0  0
 14 15  2  0  0  0
 14 99  1  0  0  0
 15100  1  0  0  0
 16 17  2  0  0  0
 16 21  1  0  0  0
 16 31  1  0  0  0
 17 18  1  0  0  0
 17101  1  0  0  0
 18 19  2  0  0  0
 18102  1  0  0  0
 19 20  1  0  0  0
 19 24  1  0  0  0
 20 21  2  0  0  0
 20103  1  0  0  0
 21 23  1  0  0  0
 22 28  1  0  0  0
 22 32  2  0  0  0
 26 27  1  0  0  0
 28104  1  0  0  0
 28105  1  0  0  0
 29106  1  0  0  0
 29107  1  0  0  0
 33 34  1  0  0  0
 33 66  1  0  0  0
 33 70  2  0  0  0
 34 36  1  0  0  0
 34 59  1  0  0  0
 34108  1  0  0  0
 35 44  2  0  0  0
 35 45  1  0  0  0
 35 68  1  0  0  0
 36 56  1  0  0  0
 36109  1  0  0  0
 37 39  1  0  0  0
 37 47  1  0  0  0
 37 66  1  0  0  0
 37110  1  0  0  0
 38 43  2  0  0  0
 38 46  1  0  0  0
 38 47  1  0  0  0
 39 64  1  0  0  0
 39 67  2  0  0  0
 40 52  1  0  0  0
 40 53  2  0  0  0
 40 58  1  0  0  0
 41111  1  0  0  0
 41112  1  0  0  0
 41113  1  0  0  0
 41 48  1  0  0  0
 42 43  1  0  0  0
 42 66  1  0  0  0
 42114  1  0  0  0
 42115  1  0  0  0
 43 44  1  0  0  0
 44116  1  0  0  0
 45 46  2  0  0  0
 45117  1  0  0  0
 46118  1  0  0  0
 47119  1  0  0  0
 47120  1  0  0  0
 48 56  1  0  0  0
 48 65  1  0  0  0
 48121  1  0  0  0
 49 50  1  0  0  0
 49 53  1  0  0  0
 49 64  1  0  0  0
 49122  1  0  0  0
 50 51  1  0  0  0
 50123  1  0  0  0
 50124  1  0  0  0
 51 52  1  0  0  0
 51125  1  0  0  0
 51126  1  0  0  0
 52127  1  0  0  0
 52128  1  0  0  0
 53 54  1  0  0  0
 54 55  2  0  0  0
 54129  1  0  0  0
 55 57  1  0  0  0
 55130  1  0  0  0
 56 69  2  0  0  0
 57 58  2  0  0  0
 57131  1  0  0  0
 58132  1  0  0  0
 59 60  1  0  0  0
 59 61  1  0  0  0
 59 62  1  0  0  0
 60133  1  0  0  0
 60134  1  0  0  0
 60135  1  0  0  0
 61136  1  0  0  0
 61137  1  0  0  0
 61138  1  0  0  0
 62139  1  0  0  0
 62140  1  0  0  0
 62141  1  0  0  0
 63 65  1  0  0  0
 63142  1  0  0  0
 63143  1  0  0  0
 63144  1  0  0  0
 64145  1  0  0  0
 65146  1  0  0  0
 68 85  1  0  0  0
 71 72  2  0  0  0
 71 74  1  0  0  0
 71147  1  0  0  0
 72 73  1  0  0  0
 72 78  1  0  0  0
 73 75  2  0  0  0
 73 79  1  0  0  0
 74 76  1  0  0  0
 74 86  2  0  0  0
 75 77  1  0  0  0
 75 86  1  0  0  0
 76148  1  0  0  0
 76149  1  0  0  0
 76150  1  0  0  0
 77151  1  0  0  0
 77152  1  0  0  0
 77153  1  0  0  0
 78 80  1  0  0  0
 78154  1  0  0  0
 78155  1  0  0  0
 79 81  1  0  0  0
 79156  1  0  0  0
 79157  1  0  0  0
 80 85  1  0  0  0
 80158  1  0  0  0
 80159  1  0  0  0
 81 82  1  0  0  0
 81160  1  0  0  0
 81161  1  0  0  0
 82 83  1  0  0  0
 82162  1  0  0  0
 82163  1  0  0  0
 83 84  1  0  0  0
 83164  1  0  0  0
 83165  1  0  0  0
 84 87  1  0  0  0
 84166  1  0  0  0
 84167  1  0  0  0
 85168  1  0  0  0
 85169  1  0  0  0
 87170  1  0  0  0
M  ISO  4   1 100  68 101  85 101  87 100
M  END
> <chiral flag>
0

> <version>
0

> <s_m_source_file>
/data/baiqing/PycharmProjects/Reinvent-master-3.2/result/LINK_invent/BTK/process_docking_weight1_custom_sum_contain_oxygen_bond_distance_aromatic_linkinvent_7_9_3/rearranged_h_0035.sdf

> <i_m_source_file_index>
22

> <r_mmod_Potential_Energy-OPLS-2005>
-260.469085693359

> <r_mmod_Stretch_Energy-OPLS-2005>
34.6814308166504

> <r_mmod_Bend_Energy-OPLS-2005>
92.3900680541992

> <r_mmod_Torsional_Energy-OPLS-2005>
239.191940307617

> <r_mmod_Improper_Torsional_Energy-OPLS-2005>
1.88242518901825

> <r_mmod_Van_der_Waal_Energy-OPLS-2005>
147.58381652832

> <r_mmod_Electrostatic_Energy-OPLS-2005>
-562.708557128906

> <r_mmod_Solvation_Energy-OPLS-2005>
-220.434997558594

> <b_mmod_Minimization_Converged-OPLS-2005>
0

> <r_mmod_RMS_Derivative-OPLS-2005>
2.5511314868927

$$$$
22
                    3D
 Structure written by MMmdl.
168177  0  0  1  0            999 V2000
  -30.6429  -14.6585   20.5251 C   0  0  0  0  0  0
  -30.4335  -12.4117   19.4538 C   0  0  0  0  0  0
  -29.5053  -12.5232   18.2241 C   0  0  0  0  0  0
  -28.0282  -12.3552   18.6329 C   0  0  0  0  0  0
  -27.6551  -13.2116   19.8727 C   0  0  2  0  0  0
  -28.7048  -13.0448   20.9938 C   0  0  0  0  0  0
  -25.2597  -13.8157   20.5727 C   0  0  0  0  0  0
  -24.1824  -13.0426   20.9153 C   0  0  0  0  0  0
  -24.6393  -11.6901   20.8720 C   0  0  0  0  0  0
  -23.9054  -10.4287   21.0398 C   0  0  0  0  0  0
  -24.3606   -9.4203   21.9175 C   0  0  0  0  0  0
  -23.6289   -8.2239   22.0744 C   0  0  0  0  0  0
  -22.4268   -8.0275   21.3540 C   0  0  0  0  0  0
  -21.9899   -9.0245   20.4637 C   0  0  0  0  0  0
  -22.7231  -10.2133   20.3048 C   0  0  0  0  0  0
  -21.6851   -6.0737   22.5286 C   0  0  0  0  0  0
  -21.4014   -6.5645   23.8215 C   0  0  0  0  0  0
  -21.3660   -5.6799   24.9177 C   0  0  0  0  0  0
  -21.6042   -4.3059   24.7226 C   0  0  0  0  0  0
  -21.8820   -3.8151   23.4347 C   0  0  0  0  0  0
  -21.9192   -4.6968   22.3405 C   0  0  0  0  0  0
  -22.7852  -13.5230   21.1833 C   0  0  0  0  0  0
  -22.1657   -4.2148   21.0982 F   0  0  0  0  0  0
  -21.5629   -3.4546   25.7743 F   0  0  0  0  0  0
  -30.0076  -13.4362   20.4348 N   0  0  0  0  0  0
  -26.3010  -12.9313   20.3395 N   0  0  0  0  0  0
  -25.9322  -11.6468   20.5760 N   0  0  0  0  0  0
  -22.0502  -12.8203   22.0387 N   0  0  0  0  0  0
  -25.4411  -15.1862   20.4246 N   0  0  0  0  0  0
  -31.7825  -14.7585   20.0591 O   0  0  0  0  0  0
  -21.6629   -6.8880   21.4247 O   0  0  0  0  0  0
  -22.3529  -14.5538   20.6701 O   0  0  0  0  0  0
  -24.6249  -31.8625   23.2059 C   0  0  0  0  0  0
  -25.9099  -32.4790   23.8383 C   0  0  1  0  0  0
  -27.2206  -27.3144   20.1198 C   0  0  0  0  0  0
  -25.5918  -33.8590   24.2304 N   0  0  0  0  0  0
  -23.4190  -30.4873   21.5484 C   0  0  2  0  0  0
  -24.8638  -28.9469   20.1116 C   0  0  0  0  0  0
  -22.7469  -29.4630   22.4936 C   0  0  0  0  0  0
  -18.0280  -28.1386   22.8479 C   0  0  0  0  0  0
  -24.1501  -36.7304   23.2641 C   0  0  0  0  0  0
  -25.9617  -30.7894   21.3822 C   0  0  0  0  0  0
  -26.0320  -29.4166   20.7248 C   0  0  0  0  0  0
  -27.2082  -28.6084   20.7278 C   0  0  0  0  0  0
  -26.0330  -26.9142   19.4586 C   0  0  0  0  0  0
  -24.8654  -27.6989   19.4732 C   0  0  0  0  0  0
  -23.6343  -29.8310   20.1615 C   0  0  0  0  0  0
  -25.4117  -36.3091   24.0336 C   0  0  1  0  0  0
  -20.5874  -28.3695   23.1272 C   0  0  2  0  0  0
  -20.6777  -26.9418   22.5408 C   0  0  0  0  0  0
  -19.5764  -26.6388   21.5202 C   0  0  0  0  0  0
  -18.1929  -26.7926   22.1603 C   0  0  0  0  0  0
  -19.1529  -28.8853   23.2873 C   0  0  0  0  0  0
  -18.9461  -30.1451   23.8899 C   0  0  0  0  0  0
  -17.6468  -30.6596   24.0555 C   0  0  0  0  0  0
  -25.9049  -34.9460   23.5118 C   0  0  0  0  0  0
  -16.5355  -29.9091   23.6333 C   0  0  0  0  0  0
  -16.7267  -28.6502   23.0353 C   0  0  0  0  0  0
  -26.4493  -31.6588   25.0742 C   0  0  0  0  0  0
  -25.3726  -31.3696   26.1463 C   0  0  0  0  0  0
  -27.0347  -30.3019   24.6184 C   0  0  0  0  0  0
  -27.6067  -32.4316   25.7494 C   0  0  0  0  0  0
  -27.5587  -37.1793   24.8459 C   0  0  0  0  0  0
  -21.4185  -29.3045   22.3670 N   0  0  0  0  0  0
  -26.4299  -37.3783   23.9406 N   0  0  0  0  0  0
  -24.6874  -31.0625   22.1021 N   0  0  0  0  0  0
  -23.4188  -28.8167   23.3024 O   0  0  0  0  0  0
  -28.3508  -26.4797   20.2064 O   0  0  0  0  0  0
  -26.5629  -34.8913   22.4692 O   0  0  0  0  0  0
  -23.5401  -32.1444   23.7351 O   0  0  0  0  0  0
  -29.6387  -19.9118   20.2367 C   0  0  0  0  0  0
  -29.5129  -21.2213   22.2735 C   0  0  0  0  0  0
  -29.9308  -18.7106   20.9711 C   0  0  0  0  0  0
  -29.9964  -18.8013   22.3846 C   0  0  0  0  0  0
  -29.4102  -21.1817   20.8677 C   0  0  0  0  0  0
  -29.8112  -20.0586   23.0330 C   0  0  0  0  0  0
  -30.1888  -17.3343   20.2591 C   0  0  0  0  0  0
  -30.2218  -17.5397   23.2297 C   0  0  0  0  0  0
  -30.6977  -16.2761   22.4888 C   0  0  0  0  0  0
  -30.0195  -16.0150   21.1323 C   0  0  2  0  0  0
  -29.5558  -21.3709   26.7661 C   0  0  0  0  0  0
  -29.0267  -22.4631   20.0404 C   0  0  0  0  0  0
  -29.9600  -20.1442   24.5592 C   0  0  0  0  0  0
  -29.4944  -21.4482   25.2345 C   0  0  0  0  0  0
  -28.9194  -23.9126   20.7103 C   0  0  0  0  0  0
  -28.3181  -25.0562   19.7817 C   0  0  0  0  0  0
  -28.6162  -15.9415   21.3299 O   0  0  0  0  0  0
  -31.4750  -12.5260   19.1500 H   0  0  0  0  0  0
  -30.3692  -11.4155   19.8924 H   0  0  0  0  0  0
  -29.7750  -11.7768   17.4773 H   0  0  0  0  0  0
  -29.6439  -13.4950   17.7484 H   0  0  0  0  0  0
  -27.8640  -11.2996   18.8525 H   0  0  0  0  0  0
  -27.3742  -12.5960   17.7942 H   0  0  0  0  0  0
  -27.6777  -14.2488   19.5426 H   0  0  0  0  0  0
  -28.7305  -12.0049   21.3232 H   0  0  0  0  0  0
  -28.4476  -13.6079   21.8888 H   0  0  0  0  0  0
  -25.2747   -9.5690   22.4742 H   0  0  0  0  0  0
  -24.0003   -7.4628   22.7461 H   0  0  0  0  0  0
  -21.0831   -8.8777   19.8920 H   0  0  0  0  0  0
  -22.3692  -10.9678   19.6159 H   0  0  0  0  0  0
  -21.2001   -7.6153   23.9727 H   0  0  0  0  0  0
  -21.1485   -6.0523   25.9085 H   0  0  0  0  0  0
  -22.0593   -2.7610   23.2855 H   0  0  0  0  0  0
  -22.4128  -11.9872   22.4783 H   0  0  0  0  0  0
  -21.1122  -13.1213   22.2610 H   0  0  0  0  0  0
  -24.7135  -15.8676   20.6100 H   0  0  0  0  0  0
  -26.3628  -15.5958   20.3097 H   0  0  0  0  0  0
  -26.7166  -32.5480   23.1132 H   0  0  0  0  0  0
  -25.0054  -33.9751   25.0438 H   0  0  0  0  0  0
  -22.7134  -31.3090   21.4094 H   0  0  0  0  0  0
  -23.3762  -35.9639   23.3294 H   0  0  0  0  0  0
  -24.3598  -36.8938   22.2061 H   0  0  0  0  0  0
  -23.7256  -37.6496   23.6682 H   0  0  0  0  0  0
  -26.0935  -31.5529   20.6146 H   0  0  0  0  0  0
  -26.8424  -30.8368   22.0116 H   0  0  0  0  0  0
  -28.1003  -28.9565   21.2298 H   0  0  0  0  0  0
  -25.9542  -25.9887   18.9136 H   0  0  0  0  0  0
  -23.9751  -27.3365   18.9774 H   0  0  0  0  0  0
  -23.7570  -30.6151   19.4125 H   0  0  0  0  0  0
  -22.7521  -29.2668   19.8524 H   0  0  0  0  0  0
  -25.1287  -36.1953   25.0829 H   0  0  0  0  0  0
  -20.9958  -28.3288   24.1392 H   0  0  0  0  0  0
  -20.5682  -26.2305   23.3605 H   0  0  0  0  0  0
  -21.6654  -26.7464   22.1203 H   0  0  0  0  0  0
  -19.6950  -25.6293   21.1246 H   0  0  0  0  0  0
  -19.6717  -27.3192   20.6720 H   0  0  0  0  0  0
  -17.4204  -26.6663   21.3999 H   0  0  0  0  0  0
  -18.0334  -26.0073   22.9000 H   0  0  0  0  0  0
  -19.7948  -30.7246   24.2284 H   0  0  0  0  0  0
  -17.5034  -31.6278   24.5157 H   0  0  0  0  0  0
  -15.5354  -30.2999   23.7675 H   0  0  0  0  0  0
  -15.8653  -28.0829   22.7077 H   0  0  0  0  0  0
  -24.5932  -30.7009   25.7785 H   0  0  0  0  0  0
  -24.8855  -32.2826   26.4898 H   0  0  0  0  0  0
  -25.8052  -30.8880   27.0243 H   0  0  0  0  0  0
  -26.2927  -29.6732   24.1241 H   0  0  0  0  0  0
  -27.4104  -29.7296   25.4676 H   0  0  0  0  0  0
  -27.8773  -30.4319   23.9386 H   0  0  0  0  0  0
  -27.2738  -33.3650   26.2051 H   0  0  0  0  0  0
  -28.3891  -32.6811   25.0310 H   0  0  0  0  0  0
  -28.0734  -31.8441   26.5416 H   0  0  0  0  0  0
  -28.2576  -38.0115   24.7522 H   0  0  0  0  0  0
  -28.1114  -36.2639   24.6277 H   0  0  0  0  0  0
  -27.2301  -37.1427   25.8859 H   0  0  0  0  0  0
  -20.9367  -29.8768   21.6878 H   0  0  0  0  0  0
  -26.0184  -38.2862   24.1399 H   0  0  0  0  0  0
  -29.5699  -19.8547   19.1582 H   0  0  0  0  0  0
  -29.3496  -22.1656   22.7707 H   0  0  0  0  0  0
  -31.2123  -17.3732   19.8845 H   0  0  0  0  0  0
  -29.5640  -17.2743   19.3673 H   0  0  0  0  0  0
  -29.2764  -17.3094   23.7229 H   0  0  0  0  0  0
  -30.9406  -17.7425   24.0238 H   0  0  0  0  0  0
  -30.5895  -15.4117   23.1457 H   0  0  0  0  0  0
  -31.7702  -16.3769   22.3139 H   0  0  0  0  0  0
  -29.2426  -22.3134   27.2151 H   0  0  0  0  0  0
  -30.5669  -21.1566   27.1144 H   0  0  0  0  0  0
  -28.8973  -20.5902   27.1500 H   0  0  0  0  0  0
  -28.0621  -22.2374   19.5835 H   0  0  0  0  0  0
  -29.7274  -22.5288   19.2062 H   0  0  0  0  0  0
  -31.0129  -19.9795   24.7980 H   0  0  0  0  0  0
  -29.4072  -19.3208   25.0106 H   0  0  0  0  0  0
  -30.1080  -22.2856   24.8995 H   0  0  0  0  0  0
  -28.4677  -21.6687   24.9396 H   0  0  0  0  0  0
  -29.9002  -24.2165   21.0741 H   0  0  0  0  0  0
  -28.2795  -23.8503   21.5908 H   0  0  0  0  0  0
  -27.3146  -24.7017   19.5743 H   0  0  0  0  0  0
  -28.8403  -25.0199   18.8252 H   0  0  0  0  0  0
  -28.3491  -16.7935   21.6537 H   0  0  0  0  0  0
  1 25  1  0  0  0
  1 30  2  0  0  0
  1 80  1  0  0  0
  2  3  1  0  0  0
  2 25  1  0  0  0
  2 88  1  0  0  0
  2 89  1  0  0  0
  3  4  1  0  0  0
  3 90  1  0  0  0
  3 91  1  0  0  0
  4  5  1  0  0  0
  4 92  1  0  0  0
  4 93  1  0  0  0
  5  6  1  0  0  0
  5 26  1  0  0  0
  5 94  1  0  0  0
  6 25  1  0  0  0
  6 95  1  0  0  0
  6 96  1  0  0  0
  7  8  2  0  0  0
  7 26  1  0  0  0
  7 29  1  0  0  0
  8  9  1  0  0  0
  8 22  1  0  0  0
  9 10  1  0  0  0
  9 27  2  0  0  0
 10 11  2  0  0  0
 10 15  1  0  0  0
 11 12  1  0  0  0
 11 97  1  0  0  0
 12 13  2  0  0  0
 12 98  1  0  0  0
 13 14  1  0  0  0
 13 31  1  0  0  0
 14 15  2  0  0  0
 14 99  1  0  0  0
 15100  1  0  0  0
 16 17  2  0  0  0
 16 21  1  0  0  0
 16 31  1  0  0  0
 17 18  1  0  0  0
 17101  1  0  0  0
 18 19  2  0  0  0
 18102  1  0  0  0
 19 20  1  0  0  0
 19 24  1  0  0  0
 20 21  2  0  0  0
 20103  1  0  0  0
 21 23  1  0  0  0
 22 28  1  0  0  0
 22 32  2  0  0  0
 26 27  1  0  0  0
 28104  1  0  0  0
 28105  1  0  0  0
 29106  1  0  0  0
 29107  1  0  0  0
 33 34  1  0  0  0
 33 66  1  0  0  0
 33 70  2  0  0  0
 34 36  1  0  0  0
 34 59  1  0  0  0
 34108  1  0  0  0
 35 44  2  0  0  0
 35 45  1  0  0  0
 35 68  1  0  0  0
 36 56  1  0  0  0
 36109  1  0  0  0
 37 39  1  0  0  0
 37 47  1  0  0  0
 37 66  1  0  0  0
 37110  1  0  0  0
 38 43  2  0  0  0
 38 46  1  0  0  0
 38 47  1  0  0  0
 39 64  1  0  0  0
 39 67  2  0  0  0
 40 52  1  0  0  0
 40 53  2  0  0  0
 40 58  1  0  0  0
 41111  1  0  0  0
 41112  1  0  0  0
 41113  1  0  0  0
 41 48  1  0  0  0
 42 43  1  0  0  0
 42 66  1  0  0  0
 42114  1  0  0  0
 42115  1  0  0  0
 43 44  1  0  0  0
 44116  1  0  0  0
 45 46  2  0  0  0
 45117  1  0  0  0
 46118  1  0  0  0
 47119  1  0  0  0
 47120  1  0  0  0
 48 56  1  0  0  0
 48 65  1  0  0  0
 48121  1  0  0  0
 49 50  1  0  0  0
 49 53  1  0  0  0
 49 64  1  0  0  0
 49122  1  0  0  0
 50 51  1  0  0  0
 50123  1  0  0  0
 50124  1  0  0  0
 51 52  1  0  0  0
 51125  1  0  0  0
 51126  1  0  0  0
 52127  1  0  0  0
 52128  1  0  0  0
 53 54  1  0  0  0
 54 55  2  0  0  0
 54129  1  0  0  0
 55 57  1  0  0  0
 55130  1  0  0  0
 56 69  2  0  0  0
 57 58  2  0  0  0
 57131  1  0  0  0
 58132  1  0  0  0
 59 60  1  0  0  0
 59 61  1  0  0  0
 59 62  1  0  0  0
 60133  1  0  0  0
 60134  1  0  0  0
 60135  1  0  0  0
 61136  1  0  0  0
 61137  1  0  0  0
 61138  1  0  0  0
 62139  1  0  0  0
 62140  1  0  0  0
 62141  1  0  0  0
 63 65  1  0  0  0
 63142  1  0  0  0
 63143  1  0  0  0
 63144  1  0  0  0
 64145  1  0  0  0
 65146  1  0  0  0
 68 86  1  0  0  0
 71 73  2  0  0  0
 71 75  1  0  0  0
 71147  1  0  0  0
 72 75  2  0  0  0
 72 76  1  0  0  0
 72148  1  0  0  0
 73 74  1  0  0  0
 73 77  1  0  0  0
 74 76  2  0  0  0
 74 78  1  0  0  0
 75 82  1  0  0  0
 76 83  1  0  0  0
 77 80  1  0  0  0
 77149  1  0  0  0
 77150  1  0  0  0
 78 79  1  0  0  0
 78151  1  0  0  0
 78152  1  0  0  0
 79 80  1  0  0  0
 79153  1  0  0  0
 79154  1  0  0  0
 80 87  1  0  0  0
 81 84  1  0  0  0
 81155  1  0  0  0
 81156  1  0  0  0
 81157  1  0  0  0
 82 85  1  0  0  0
 82158  1  0  0  0
 82159  1  0  0  0
 83 84  1  0  0  0
 83160  1  0  0  0
 83161  1  0  0  0
 84162  1  0  0  0
 84163  1  0  0  0
 85 86  1  0  0  0
 85164  1  0  0  0
 85165  1  0  0  0
 86166  1  0  0  0
 86167  1  0  0  0
 87168  1  0  0  0
M  ISO  4   1 100  68 101  80 100  86 101
M  END
> <chiral flag>
0

> <version>
0

> <s_m_source_file>
/data/baiqing/PycharmProjects/Reinvent-master-3.2/result/LINK_invent/BTK/process_docking_weight1_custom_sum_contain_oxygen_bond_distance_aromatic_linkinvent_7_9_3/rearranged_h_0035.sdf

> <i_m_source_file_index>
23

> <r_mmod_Potential_Energy-OPLS-2005>
153.253952026367

> <r_mmod_Stretch_Energy-OPLS-2005>
93.5018539428711

> <r_mmod_Bend_Energy-OPLS-2005>
158.950042724609

> <r_mmod_Torsional_Energy-OPLS-2005>
180.989608764648

> <r_mmod_Improper_Torsional_Energy-OPLS-2005>
2.30247712135315

> <r_mmod_Van_der_Waal_Energy-OPLS-2005>
161.011001586914

> <r_mmod_Electrostatic_Energy-OPLS-2005>
-311.097442626953

> <r_mmod_Solvation_Energy-OPLS-2005>
-181.851806640625

> <b_mmod_Minimization_Converged-OPLS-2005>
0

> <r_mmod_RMS_Derivative-OPLS-2005>
2.38026189804077

$$$$
23
                    3D
 Structure written by MMmdl.
156164  0  0  1  0            999 V2000
  -30.7417  -14.5830   20.5163 C   0  0  0  0  0  0
  -30.4133  -12.3707   19.4478 C   0  0  0  0  0  0
  -29.4927  -12.4930   18.2179 C   0  0  0  0  0  0
  -28.0191  -12.3465   18.6361 C   0  0  0  0  0  0
  -27.6489  -13.2329   19.8571 C   0  0  2  0  0  0
  -28.7016  -13.1354   20.9864 C   0  0  0  0  0  0
  -25.2498  -13.8160   20.5657 C   0  0  0  0  0  0
  -24.1804  -13.0396   20.9156 C   0  0  0  0  0  0
  -24.6420  -11.6895   20.8737 C   0  0  0  0  0  0
  -23.9086  -10.4276   21.0393 C   0  0  0  0  0  0
  -24.3638   -9.4201   21.9181 C   0  0  0  0  0  0
  -23.6299   -8.2246   22.0763 C   0  0  0  0  0  0
  -22.4278   -8.0286   21.3551 C   0  0  0  0  0  0
  -21.9911   -9.0259   20.4651 C   0  0  0  0  0  0
  -22.7248  -10.2130   20.3047 C   0  0  0  0  0  0
  -21.6867   -6.0734   22.5270 C   0  0  0  0  0  0
  -21.4026   -6.5632   23.8206 C   0  0  0  0  0  0
  -21.3668   -5.6784   24.9169 C   0  0  0  0  0  0
  -21.6046   -4.3044   24.7215 C   0  0  0  0  0  0
  -21.8817   -3.8133   23.4334 C   0  0  0  0  0  0
  -21.9201   -4.6958   22.3393 C   0  0  0  0  0  0
  -22.7830  -13.5188   21.1818 C   0  0  0  0  0  0
  -22.1667   -4.2147   21.0966 F   0  0  0  0  0  0
  -21.5630   -3.4526   25.7726 F   0  0  0  0  0  0
  -30.0180  -13.4260   20.4031 N   0  0  0  0  0  0
  -26.2990  -12.9417   20.3357 N   0  0  0  0  0  0
  -25.9373  -11.6550   20.5818 N   0  0  0  0  0  0
  -22.0492  -12.8207   22.0404 N   0  0  0  0  0  0
  -25.4019  -15.1866   20.4046 N   0  0  0  0  0  0
  -31.9110  -14.6334   20.1366 O   0  0  0  0  0  0
  -21.6649   -6.8877   21.4238 O   0  0  0  0  0  0
  -22.3499  -14.5479   20.6648 O   0  0  0  0  0  0
  -24.6208  -31.8642   23.2080 C   0  0  0  0  0  0
  -25.9080  -32.4810   23.8378 C   0  0  1  0  0  0
  -27.2173  -27.3557   20.1174 C   0  0  0  0  0  0
  -25.5917  -33.8610   24.2300 N   0  0  0  0  0  0
  -23.4123  -30.4919   21.5498 C   0  0  2  0  0  0
  -24.8576  -28.9631   20.1079 C   0  0  0  0  0  0
  -22.7443  -29.4646   22.4942 C   0  0  0  0  0  0
  -18.0280  -28.1386   22.8484 C   0  0  0  0  0  0
  -24.1492  -36.7317   23.2627 C   0  0  0  0  0  0
  -25.9508  -30.8118   21.3720 C   0  0  0  0  0  0
  -26.0269  -29.4439   20.7127 C   0  0  0  0  0  0
  -27.2099  -28.6521   20.7085 C   0  0  0  0  0  0
  -26.0257  -26.9320   19.4764 C   0  0  0  0  0  0
  -24.8577  -27.7112   19.4821 C   0  0  0  0  0  0
  -23.6241  -29.8374   20.1614 C   0  0  0  0  0  0
  -25.4113  -36.3107   24.0320 C   0  0  1  0  0  0
  -20.5877  -28.3683   23.1295 C   0  0  2  0  0  0
  -20.6782  -26.9413   22.5421 C   0  0  0  0  0  0
  -19.5761  -26.6383   21.5218 C   0  0  0  0  0  0
  -18.1930  -26.7933   22.1619 C   0  0  0  0  0  0
  -19.1529  -28.8851   23.2892 C   0  0  0  0  0  0
  -18.9459  -30.1454   23.8904 C   0  0  0  0  0  0
  -17.6458  -30.6593   24.0564 C   0  0  0  0  0  0
  -25.9043  -34.9471   23.5106 C   0  0  0  0  0  0
  -16.5349  -29.9097   23.6327 C   0  0  0  0  0  0
  -16.7267  -28.6519   23.0336 C   0  0  0  0  0  0
  -26.4474  -31.6596   25.0725 C   0  0  0  0  0  0
  -25.3707  -31.3739   26.1451 C   0  0  0  0  0  0
  -27.0288  -30.3012   24.6151 C   0  0  0  0  0  0
  -27.6048  -32.4308   25.7499 C   0  0  0  0  0  0
  -27.5586  -37.1803   24.8446 C   0  0  0  0  0  0
  -21.4156  -29.3043   22.3692 N   0  0  0  0  0  0
  -26.4287  -37.3804   23.9406 N   0  0  0  0  0  0
  -24.6802  -31.0703   22.1015 N   0  0  0  0  0  0
  -23.4189  -28.8166   23.2990 O   0  0  0  0  0  0
  -28.3294  -26.5057   20.2004 O   0  0  0  0  0  0
  -26.5618  -34.8929   22.4679 O   0  0  0  0  0  0
  -23.5385  -32.1417   23.7437 O   0  0  0  0  0  0
  -30.4330  -20.9528   20.8161 C   0  0  0  0  0  0
  -28.2537  -19.9954   20.4923 C   0  0  0  0  0  0
  -29.0654  -21.1536   20.5332 C   0  0  0  0  0  0
  -30.9651  -19.6417   21.0129 C   0  0  0  0  0  0
  -30.1497  -18.4642   20.9129 C   0  0  0  0  0  0
  -28.7660  -18.6853   20.6733 C   0  0  0  0  0  0
  -32.4525  -19.5322   21.3228 C   0  0  0  0  0  0
  -28.4095  -22.5205   20.1744 C   0  0  0  0  0  0
  -30.8286  -17.0506   21.0472 C   0  0  0  0  0  0
  -29.0193  -23.9303   20.5336 C   0  0  0  0  0  0
  -28.0535  -25.0730   20.0321 C   0  0  0  0  0  0
  -30.1188  -15.7340   20.8960 N   0  0  0  0  0  0
  -27.6404  -17.3842   20.5734 Cl  0  0  0  0  0  0
  -31.4570  -12.4478   19.1358 H   0  0  0  0  0  0
  -30.3170  -11.3876   19.9096 H   0  0  0  0  0  0
  -29.7456  -11.7336   17.4765 H   0  0  0  0  0  0
  -29.6507  -13.4584   17.7352 H   0  0  0  0  0  0
  -27.8498  -11.2956   18.8744 H   0  0  0  0  0  0
  -27.3653  -12.5766   17.7944 H   0  0  0  0  0  0
  -27.6499  -14.2617   19.4964 H   0  0  0  0  0  0
  -28.7038  -12.1403   21.4336 H   0  0  0  0  0  0
  -28.4649  -13.8333   21.7917 H   0  0  0  0  0  0
  -25.2794   -9.5680   22.4744 H   0  0  0  0  0  0
  -24.0012   -7.4638   22.7487 H   0  0  0  0  0  0
  -21.0847   -8.8766   19.8954 H   0  0  0  0  0  0
  -22.3712  -10.9666   19.6145 H   0  0  0  0  0  0
  -21.2024   -7.6143   23.9704 H   0  0  0  0  0  0
  -21.1501   -6.0516   25.9072 H   0  0  0  0  0  0
  -22.0594   -2.7596   23.2827 H   0  0  0  0  0  0
  -22.4128  -11.9895   22.4827 H   0  0  0  0  0  0
  -21.1109  -13.1244   22.2587 H   0  0  0  0  0  0
  -24.6304  -15.8290   20.5388 H   0  0  0  0  0  0
  -26.2681  -15.6617   20.1767 H   0  0  0  0  0  0
  -26.7146  -32.5495   23.1130 H   0  0  0  0  0  0
  -25.0023  -33.9773   25.0412 H   0  0  0  0  0  0
  -22.7039  -31.3117   21.4141 H   0  0  0  0  0  0
  -23.3763  -35.9639   23.3259 H   0  0  0  0  0  0
  -24.3590  -36.8972   22.2049 H   0  0  0  0  0  0
  -23.7230  -37.6502   23.6668 H   0  0  0  0  0  0
  -26.0694  -31.5819   20.6088 H   0  0  0  0  0  0
  -26.8367  -30.8633   21.9944 H   0  0  0  0  0  0
  -28.1055  -29.0159   21.1928 H   0  0  0  0  0  0
  -25.9527  -25.9774   18.9784 H   0  0  0  0  0  0
  -23.9624  -27.3387   19.0044 H   0  0  0  0  0  0
  -23.7404  -30.6204   19.4106 H   0  0  0  0  0  0
  -22.7454  -29.2663   19.8556 H   0  0  0  0  0  0
  -25.1293  -36.1960   25.0810 H   0  0  0  0  0  0
  -20.9966  -28.3262   24.1416 H   0  0  0  0  0  0
  -20.5697  -26.2288   23.3611 H   0  0  0  0  0  0
  -21.6650  -26.7460   22.1206 H   0  0  0  0  0  0
  -19.6928  -25.6290   21.1257 H   0  0  0  0  0  0
  -19.6715  -27.3190   20.6742 H   0  0  0  0  0  0
  -17.4209  -26.6671   21.4017 H   0  0  0  0  0  0
  -18.0332  -26.0081   22.9022 H   0  0  0  0  0  0
  -19.7928  -30.7275   24.2276 H   0  0  0  0  0  0
  -17.5009  -31.6274   24.5166 H   0  0  0  0  0  0
  -15.5349  -30.3005   23.7653 H   0  0  0  0  0  0
  -15.8659  -28.0854   22.7030 H   0  0  0  0  0  0
  -24.5881  -30.7097   25.7761 H   0  0  0  0  0  0
  -24.8908  -32.2921   26.4852 H   0  0  0  0  0  0
  -25.8022  -30.8914   27.0229 H   0  0  0  0  0  0
  -26.2842  -29.6799   24.1164 H   0  0  0  0  0  0
  -27.3961  -29.7237   25.4641 H   0  0  0  0  0  0
  -27.8727  -30.4279   23.9366 H   0  0  0  0  0  0
  -27.2657  -33.3584   26.2121 H   0  0  0  0  0  0
  -28.3849  -32.6900   25.0329 H   0  0  0  0  0  0
  -28.0727  -31.8400   26.5385 H   0  0  0  0  0  0
  -28.2574  -38.0131   24.7550 H   0  0  0  0  0  0
  -28.1119  -36.2669   24.6204 H   0  0  0  0  0  0
  -27.2314  -37.1371   25.8850 H   0  0  0  0  0  0
  -20.9307  -29.8770   21.6923 H   0  0  0  0  0  0
  -26.0171  -38.2865   24.1471 H   0  0  0  0  0  0
  -31.0898  -21.8111   20.8580 H   0  0  0  0  0  0
  -27.1985  -20.1076   20.2853 H   0  0  0  0  0  0
  -32.8974  -20.5156   21.4847 H   0  0  0  0  0  0
  -32.9950  -19.0568   20.5055 H   0  0  0  0  0  0
  -32.6274  -18.9547   22.2308 H   0  0  0  0  0  0
  -27.4047  -22.4885   20.5985 H   0  0  0  0  0  0
  -28.2606  -22.4959   19.0938 H   0  0  0  0  0  0
  -31.3225  -17.0162   22.0184 H   0  0  0  0  0  0
  -31.6370  -17.0746   20.3145 H   0  0  0  0  0  0
  -30.0048  -24.0425   20.0812 H   0  0  0  0  0  0
  -29.1483  -24.0106   21.6139 H   0  0  0  0  0  0
  -27.1066  -24.8589   20.5323 H   0  0  0  0  0  0
  -27.8945  -24.9065   18.9667 H   0  0  0  0  0  0
  -29.1265  -15.7108   21.0841 H   0  0  0  0  0  0
  1 25  1  0  0  0
  1 30  2  0  0  0
  1 82  1  0  0  0
  2  3  1  0  0  0
  2 25  1  0  0  0
  2 84  1  0  0  0
  2 85  1  0  0  0
  3  4  1  0  0  0
  3 86  1  0  0  0
  3 87  1  0  0  0
  4  5  1  0  0  0
  4 88  1  0  0  0
  4 89  1  0  0  0
  5  6  1  0  0  0
  5 26  1  0  0  0
  5 90  1  0  0  0
  6 25  1  0  0  0
  6 91  1  0  0  0
  6 92  1  0  0  0
  7  8  2  0  0  0
  7 26  1  0  0  0
  7 29  1  0  0  0
  8  9  1  0  0  0
  8 22  1  0  0  0
  9 10  1  0  0  0
  9 27  2  0  0  0
 10 11  2  0  0  0
 10 15  1  0  0  0
 11 12  1  0  0  0
 11 93  1  0  0  0
 12 13  2  0  0  0
 12 94  1  0  0  0
 13 14  1  0  0  0
 13 31  1  0  0  0
 14 15  2  0  0  0
 14 95  1  0  0  0
 15 96  1  0  0  0
 16 17  2  0  0  0
 16 21  1  0  0  0
 16 31  1  0  0  0
 17 18  1  0  0  0
 17 97  1  0  0  0
 18 19  2  0  0  0
 18 98  1  0  0  0
 19 20  1  0  0  0
 19 24  1  0  0  0
 20 21  2  0  0  0
 20 99  1  0  0  0
 21 23  1  0  0  0
 22 28  1  0  0  0
 22 32  2  0  0  0
 26 27  1  0  0  0
 28100  1  0  0  0
 28101  1  0  0  0
 29102  1  0  0  0
 29103  1  0  0  0
 33 34  1  0  0  0
 33 66  1  0  0  0
 33 70  2  0  0  0
 34 36  1  0  0  0
 34 59  1  0  0  0
 34104  1  0  0  0
 35 44  2  0  0  0
 35 45  1  0  0  0
 35 68  1  0  0  0
 36 56  1  0  0  0
 36105  1  0  0  0
 37 39  1  0  0  0
 37 47  1  0  0  0
 37 66  1  0  0  0
 37106  1  0  0  0
 38 43  2  0  0  0
 38 46  1  0  0  0
 38 47  1  0  0  0
 39 64  1  0  0  0
 39 67  2  0  0  0
 40 52  1  0  0  0
 40 53  2  0  0  0
 40 58  1  0  0  0
 41107  1  0  0  0
 41108  1  0  0  0
 41109  1  0  0  0
 41 48  1  0  0  0
 42 43  1  0  0  0
 42 66  1  0  0  0
 42110  1  0  0  0
 42111  1  0  0  0
 43 44  1  0  0  0
 44112  1  0  0  0
 45 46  2  0  0  0
 45113  1  0  0  0
 46114  1  0  0  0
 47115  1  0  0  0
 47116  1  0  0  0
 48 56  1  0  0  0
 48 65  1  0  0  0
 48117  1  0  0  0
 49 50  1  0  0  0
 49 53  1  0  0  0
 49 64  1  0  0  0
 49118  1  0  0  0
 50 51  1  0  0  0
 50119  1  0  0  0
 50120  1  0  0  0
 51 52  1  0  0  0
 51121  1  0  0  0
 51122  1  0  0  0
 52123  1  0  0  0
 52124  1  0  0  0
 53 54  1  0  0  0
 54 55  2  0  0  0
 54125  1  0  0  0
 55 57  1  0  0  0
 55126  1  0  0  0
 56 69  2  0  0  0
 57 58  2  0  0  0
 57127  1  0  0  0
 58128  1  0  0  0
 59 60  1  0  0  0
 59 61  1  0  0  0
 59 62  1  0  0  0
 60129  1  0  0  0
 60130  1  0  0  0
 60131  1  0  0  0
 61132  1  0  0  0
 61133  1  0  0  0
 61134  1  0  0  0
 62135  1  0  0  0
 62136  1  0  0  0
 62137  1  0  0  0
 63 65  1  0  0  0
 63138  1  0  0  0
 63139  1  0  0  0
 63140  1  0  0  0
 64141  1  0  0  0
 65142  1  0  0  0
 68 81  1  0  0  0
 71 73  2  0  0  0
 71 74  1  0  0  0
 71143  1  0  0  0
 72 73  1  0  0  0
 72 76  2  0  0  0
 72144  1  0  0  0
 73 78  1  0  0  0
 74 75  2  0  0  0
 74 77  1  0  0  0
 75 76  1  0  0  0
 75 79  1  0  0  0
 76 83  1  0  0  0
 77145  1  0  0  0
 77146  1  0  0  0
 77147  1  0  0  0
 78 80  1  0  0  0
 78148  1  0  0  0
 78149  1  0  0  0
 79 82  1  0  0  0
 79150  1  0  0  0
 79151  1  0  0  0
 80 81  1  0  0  0
 80152  1  0  0  0
 80153  1  0  0  0
 81154  1  0  0  0
 81155  1  0  0  0
 82156  1  0  0  0
M  ISO  4   1 100  68 101  81 101  82 100
M  END
> <chiral flag>
0

> <version>
0

> <s_m_source_file>
/data/baiqing/PycharmProjects/Reinvent-master-3.2/result/LINK_invent/BTK/process_docking_weight1_custom_sum_contain_oxygen_bond_distance_aromatic_linkinvent_7_9_3/rearranged_h_0035.sdf

> <i_m_source_file_index>
24

> <r_mmod_Potential_Energy-OPLS-2005>
33.8109703063965

> <r_mmod_Stretch_Energy-OPLS-2005>
66.1886749267578

> <r_mmod_Bend_Energy-OPLS-2005>
153.614288330078

> <r_mmod_Torsional_Energy-OPLS-2005>
194.376510620117

> <r_mmod_Improper_Torsional_Energy-OPLS-2005>
3.44602489471436

> <r_mmod_Van_der_Waal_Energy-OPLS-2005>
161.036193847656

> <r_mmod_Electrostatic_Energy-OPLS-2005>
-394.014038085938

> <r_mmod_Solvation_Energy-OPLS-2005>
-192.692260742188

> <b_mmod_Minimization_Converged-OPLS-2005>
0

> <r_mmod_RMS_Derivative-OPLS-2005>
2.21412253379822

$$$$
24
                    3D
 Structure written by MMmdl.
155163  0  0  1  0            999 V2000
  -30.6437  -14.7019   20.4485 C   0  0  0  0  0  0
  -30.4309  -12.4323   19.4418 C   0  0  0  0  0  0
  -29.4941  -12.5056   18.2164 C   0  0  0  0  0  0
  -28.0223  -12.3352   18.6445 C   0  0  0  0  0  0
  -27.6428  -13.2300   19.8539 C   0  0  2  0  0  0
  -28.7007  -13.1543   20.9746 C   0  0  0  0  0  0
  -25.2530  -13.8207   20.5774 C   0  0  0  0  0  0
  -24.1807  -13.0447   20.9248 C   0  0  0  0  0  0
  -24.6408  -11.6926   20.8776 C   0  0  0  0  0  0
  -23.9095  -10.4306   21.0424 C   0  0  0  0  0  0
  -24.3635   -9.4219   21.9211 C   0  0  0  0  0  0
  -23.6298   -8.2261   22.0766 C   0  0  0  0  0  0
  -22.4293   -8.0293   21.3544 C   0  0  0  0  0  0
  -21.9931   -9.0285   20.4670 C   0  0  0  0  0  0
  -22.7258  -10.2163   20.3081 C   0  0  0  0  0  0
  -21.6855   -6.0756   22.5283 C   0  0  0  0  0  0
  -21.4027   -6.5662   23.8222 C   0  0  0  0  0  0
  -21.3648   -5.6810   24.9185 C   0  0  0  0  0  0
  -21.6037   -4.3071   24.7229 C   0  0  0  0  0  0
  -21.8808   -3.8164   23.4346 C   0  0  0  0  0  0
  -21.9209   -4.6987   22.3406 C   0  0  0  0  0  0
  -22.7829  -13.5218   21.1892 C   0  0  0  0  0  0
  -22.1663   -4.2176   21.0981 F   0  0  0  0  0  0
  -21.5625   -3.4546   25.7735 F   0  0  0  0  0  0
  -29.9974  -13.4919   20.3741 N   0  0  0  0  0  0
  -26.2961  -12.9420   20.3382 N   0  0  0  0  0  0
  -25.9354  -11.6559   20.5824 N   0  0  0  0  0  0
  -22.0487  -12.8201   22.0441 N   0  0  0  0  0  0
  -25.4225  -15.1927   20.4173 N   0  0  0  0  0  0
  -31.8475  -14.7866   20.2036 O   0  0  0  0  0  0
  -21.6641   -6.8892   21.4243 O   0  0  0  0  0  0
  -22.3528  -14.5534   20.6748 O   0  0  0  0  0  0
  -24.6335  -31.8569   23.2049 C   0  0  0  0  0  0
  -25.9145  -32.4759   23.8416 C   0  0  1  0  0  0
  -27.2022  -27.2665   20.1132 C   0  0  0  0  0  0
  -25.5911  -33.8556   24.2326 N   0  0  0  0  0  0
  -23.4273  -30.4849   21.5509 C   0  0  2  0  0  0
  -24.8691  -28.9406   20.1117 C   0  0  0  0  0  0
  -22.7509  -29.4598   22.4954 C   0  0  0  0  0  0
  -18.0282  -28.1341   22.8496 C   0  0  0  0  0  0
  -24.1496  -36.7286   23.2654 C   0  0  0  0  0  0
  -25.9780  -30.7702   21.3877 C   0  0  0  0  0  0
  -26.0443  -29.3969   20.7202 C   0  0  0  0  0  0
  -27.2169  -28.5712   20.7100 C   0  0  0  0  0  0
  -25.9998  -26.8844   19.4736 C   0  0  0  0  0  0
  -24.8516  -27.6934   19.4791 C   0  0  0  0  0  0
  -23.6422  -29.8269   20.1643 C   0  0  0  0  0  0
  -25.4119  -36.3072   24.0357 C   0  0  1  0  0  0
  -20.5884  -28.3655   23.1273 C   0  0  2  0  0  0
  -20.6742  -26.9374   22.5401 C   0  0  0  0  0  0
  -19.5727  -26.6360   21.5190 C   0  0  0  0  0  0
  -18.1913  -26.7888   22.1619 C   0  0  0  0  0  0
  -19.1537  -28.8816   23.2871 C   0  0  0  0  0  0
  -18.9450  -30.1413   23.8896 C   0  0  0  0  0  0
  -17.6443  -30.6544   24.0544 C   0  0  0  0  0  0
  -25.9052  -34.9423   23.5149 C   0  0  0  0  0  0
  -16.5333  -29.9046   23.6306 C   0  0  0  0  0  0
  -16.7265  -28.6446   23.0369 C   0  0  0  0  0  0
  -26.4503  -31.6567   25.0803 C   0  0  0  0  0  0
  -25.3724  -31.3693   26.1531 C   0  0  0  0  0  0
  -27.0356  -30.2982   24.6297 C   0  0  0  0  0  0
  -27.6072  -32.4306   25.7543 C   0  0  0  0  0  0
  -27.5589  -37.1815   24.8482 C   0  0  0  0  0  0
  -21.4214  -29.3024   22.3681 N   0  0  0  0  0  0
  -26.4308  -37.3757   23.9411 N   0  0  0  0  0  0
  -24.6995  -31.0558   22.1028 N   0  0  0  0  0  0
  -23.4198  -28.8101   23.3022 O   0  0  0  0  0  0
  -28.2851  -26.3557   20.1642 O   0  0  0  0  0  0
  -26.5625  -34.8879   22.4720 O   0  0  0  0  0  0
  -23.5473  -32.1377   23.7351 O   0  0  0  0  0  0
  -29.3436  -19.6876   20.5795 C   0  0  0  0  0  0
  -30.7260  -19.9621   18.2543 C   0  0  0  0  0  0
  -30.0945  -18.5349   20.1353 C   0  0  0  0  0  0
  -30.8049  -18.7202   18.9236 C   0  0  0  0  0  0
  -29.3337  -20.9366   19.8499 C   0  0  0  0  0  0
  -31.7020  -17.6334   18.3472 C   0  0  0  0  0  0
  -30.3036  -17.2296   21.0105 C   0  0  0  0  0  0
  -28.4210  -22.1922   20.1647 C   0  0  0  0  0  0
  -29.0061  -23.6936   20.2678 C   0  0  0  0  0  0
  -27.9627  -24.8940   20.0313 C   0  0  0  0  0  0
  -30.0154  -21.0257   18.6899 N   0  0  0  0  0  0
  -29.8768  -15.8351   20.5988 N   0  0  0  0  0  0
  -31.4674  -12.5578   19.1243 H   0  0  0  0  0  0
  -30.3748  -11.4530   19.9216 H   0  0  0  0  0  0
  -29.7632  -11.7432   17.4853 H   0  0  0  0  0  0
  -29.6197  -13.4669   17.7162 H   0  0  0  0  0  0
  -27.8743  -11.2863   18.9032 H   0  0  0  0  0  0
  -27.3570  -12.5391   17.8044 H   0  0  0  0  0  0
  -27.6378  -14.2510   19.4754 H   0  0  0  0  0  0
  -28.7353  -12.1586   21.4215 H   0  0  0  0  0  0
  -28.4575  -13.8462   21.7815 H   0  0  0  0  0  0
  -25.2768   -9.5701   22.4810 H   0  0  0  0  0  0
  -24.0026   -7.4641   22.7455 H   0  0  0  0  0  0
  -21.0883   -8.8785   19.8962 H   0  0  0  0  0  0
  -22.3692  -10.9719   19.6208 H   0  0  0  0  0  0
  -21.2006   -7.6165   23.9723 H   0  0  0  0  0  0
  -21.1481   -6.0545   25.9085 H   0  0  0  0  0  0
  -22.0596   -2.7629   23.2834 H   0  0  0  0  0  0
  -22.4106  -11.9839   22.4782 H   0  0  0  0  0  0
  -21.1136  -13.1261   22.2724 H   0  0  0  0  0  0
  -24.6554  -15.8465   20.5295 H   0  0  0  0  0  0
  -26.2644  -15.6317   20.0686 H   0  0  0  0  0  0
  -26.7214  -32.5401   23.1161 H   0  0  0  0  0  0
  -25.0006  -33.9702   25.0433 H   0  0  0  0  0  0
  -22.7251  -31.3077   21.4115 H   0  0  0  0  0  0
  -23.3739  -35.9633   23.3313 H   0  0  0  0  0  0
  -24.3594  -36.8902   22.2066 H   0  0  0  0  0  0
  -23.7238  -37.6499   23.6652 H   0  0  0  0  0  0
  -26.1280  -31.5390   20.6276 H   0  0  0  0  0  0
  -26.8512  -30.8084   22.0256 H   0  0  0  0  0  0
  -28.1167  -28.9139   21.2000 H   0  0  0  0  0  0
  -25.8965  -25.9380   18.9656 H   0  0  0  0  0  0
  -23.9510  -27.3428   18.9932 H   0  0  0  0  0  0
  -23.7581  -30.6068   19.4126 H   0  0  0  0  0  0
  -22.7606  -29.2617   19.8591 H   0  0  0  0  0  0
  -25.1280  -36.1966   25.0848 H   0  0  0  0  0  0
  -20.9976  -28.3203   24.1396 H   0  0  0  0  0  0
  -20.5564  -26.2276   23.3608 H   0  0  0  0  0  0
  -21.6616  -26.7329   22.1242 H   0  0  0  0  0  0
  -19.6880  -25.6273   21.1213 H   0  0  0  0  0  0
  -19.6643  -27.3167   20.6720 H   0  0  0  0  0  0
  -17.4169  -26.6621   21.4041 H   0  0  0  0  0  0
  -18.0321  -26.0019   22.9007 H   0  0  0  0  0  0
  -19.7917  -30.7218   24.2287 H   0  0  0  0  0  0
  -17.4986  -31.6231   24.5127 H   0  0  0  0  0  0
  -15.5333  -30.2932   23.7613 H   0  0  0  0  0  0
  -15.8672  -28.0727   22.7137 H   0  0  0  0  0  0
  -24.5911  -30.7035   25.7857 H   0  0  0  0  0  0
  -24.8896  -32.2839   26.4990 H   0  0  0  0  0  0
  -25.8057  -30.8857   27.0297 H   0  0  0  0  0  0
  -26.2960  -29.6736   24.1290 H   0  0  0  0  0  0
  -27.3988  -29.7248   25.4835 H   0  0  0  0  0  0
  -27.8853  -30.4260   23.9585 H   0  0  0  0  0  0
  -27.2701  -33.3602   26.2142 H   0  0  0  0  0  0
  -28.3844  -32.6880   25.0332 H   0  0  0  0  0  0
  -28.0785  -31.8423   26.5438 H   0  0  0  0  0  0
  -28.2627  -38.0094   24.7465 H   0  0  0  0  0  0
  -28.1053  -36.2609   24.6359 H   0  0  0  0  0  0
  -27.2300  -37.1534   25.8889 H   0  0  0  0  0  0
  -20.9399  -29.8811   21.6938 H   0  0  0  0  0  0
  -26.0202  -38.2856   24.1324 H   0  0  0  0  0  0
  -28.7737  -19.6145   21.4966 H   0  0  0  0  0  0
  -31.2722  -20.1261   17.3363 H   0  0  0  0  0  0
  -31.1274  -16.7309   18.1462 H   0  0  0  0  0  0
  -32.5055  -17.3864   19.0434 H   0  0  0  0  0  0
  -32.1679  -17.9413   17.4086 H   0  0  0  0  0  0
  -31.3692  -17.1902   21.2397 H   0  0  0  0  0  0
  -29.8312  -17.4213   21.9752 H   0  0  0  0  0  0
  -27.8506  -21.9834   21.0701 H   0  0  0  0  0  0
  -27.6729  -22.2020   19.3704 H   0  0  0  0  0  0
  -29.7999  -23.7928   19.5300 H   0  0  0  0  0  0
  -29.4830  -23.8162   21.2395 H   0  0  0  0  0  0
  -27.1142  -24.6964   20.6901 H   0  0  0  0  0  0
  -27.6032  -24.7329   19.0167 H   0  0  0  0  0  0
  -28.8838  -15.6779   20.6310 H   0  0  0  0  0  0
  1 25  1  0  0  0
  1 30  2  0  0  0
  1 82  1  0  0  0
  2  3  1  0  0  0
  2 25  1  0  0  0
  2 83  1  0  0  0
  2 84  1  0  0  0
  3  4  1  0  0  0
  3 85  1  0  0  0
  3 86  1  0  0  0
  4  5  1  0  0  0
  4 87  1  0  0  0
  4 88  1  0  0  0
  5  6  1  0  0  0
  5 26  1  0  0  0
  5 89  1  0  0  0
  6 25  1  0  0  0
  6 90  1  0  0  0
  6 91  1  0  0  0
  7  8  2  0  0  0
  7 26  1  0  0  0
  7 29  1  0  0  0
  8  9  1  0  0  0
  8 22  1  0  0  0
  9 10  1  0  0  0
  9 27  2  0  0  0
 10 11  2  0  0  0
 10 15  1  0  0  0
 11 12  1  0  0  0
 11 92  1  0  0  0
 12 13  2  0  0  0
 12 93  1  0  0  0
 13 14  1  0  0  0
 13 31  1  0  0  0
 14 15  2  0  0  0
 14 94  1  0  0  0
 15 95  1  0  0  0
 16 17  2  0  0  0
 16 21  1  0  0  0
 16 31  1  0  0  0
 17 18  1  0  0  0
 17 96  1  0  0  0
 18 19  2  0  0  0
 18 97  1  0  0  0
 19 20  1  0  0  0
 19 24  1  0  0  0
 20 21  2  0  0  0
 20 98  1  0  0  0
 21 23  1  0  0  0
 22 28  1  0  0  0
 22 32  2  0  0  0
 26 27  1  0  0  0
 28 99  1  0  0  0
 28100  1  0  0  0
 29101  1  0  0  0
 29102  1  0  0  0
 33 34  1  0  0  0
 33 66  1  0  0  0
 33 70  2  0  0  0
 34 36  1  0  0  0
 34 59  1  0  0  0
 34103  1  0  0  0
 35 44  2  0  0  0
 35 45  1  0  0  0
 35 68  1  0  0  0
 36 56  1  0  0  0
 36104  1  0  0  0
 37 39  1  0  0  0
 37 47  1  0  0  0
 37 66  1  0  0  0
 37105  1  0  0  0
 38 43  2  0  0  0
 38 46  1  0  0  0
 38 47  1  0  0  0
 39 64  1  0  0  0
 39 67  2  0  0  0
 40 52  1  0  0  0
 40 53  2  0  0  0
 40 58  1  0  0  0
 41106  1  0  0  0
 41107  1  0  0  0
 41108  1  0  0  0
 41 48  1  0  0  0
 42 43  1  0  0  0
 42 66  1  0  0  0
 42109  1  0  0  0
 42110  1  0  0  0
 43 44  1  0  0  0
 44111  1  0  0  0
 45 46  2  0  0  0
 45112  1  0  0  0
 46113  1  0  0  0
 47114  1  0  0  0
 47115  1  0  0  0
 48 56  1  0  0  0
 48 65  1  0  0  0
 48116  1  0  0  0
 49 50  1  0  0  0
 49 53  1  0  0  0
 49 64  1  0  0  0
 49117  1  0  0  0
 50 51  1  0  0  0
 50118  1  0  0  0
 50119  1  0  0  0
 51 52  1  0  0  0
 51120  1  0  0  0
 51121  1  0  0  0
 52122  1  0  0  0
 52123  1  0  0  0
 53 54  1  0  0  0
 54 55  2  0  0  0
 54124  1  0  0  0
 55 57  1  0  0  0
 55125  1  0  0  0
 56 69  2  0  0  0
 57 58  2  0  0  0
 57126  1  0  0  0
 58127  1  0  0  0
 59 60  1  0  0  0
 59 61  1  0  0  0
 59 62  1  0  0  0
 60128  1  0  0  0
 60129  1  0  0  0
 60130  1  0  0  0
 61131  1  0  0  0
 61132  1  0  0  0
 61133  1  0  0  0
 62134  1  0  0  0
 62135  1  0  0  0
 62136  1  0  0  0
 63 65  1  0  0  0
 63137  1  0  0  0
 63138  1  0  0  0
 63139  1  0  0  0
 64140  1  0  0  0
 65141  1  0  0  0
 68 80  1  0  0  0
 71 73  2  0  0  0
 71 75  1  0  0  0
 71142  1  0  0  0
 72 74  2  0  0  0
 72 81  1  0  0  0
 72143  1  0  0  0
 73 74  1  0  0  0
 73 77  1  0  0  0
 74 76  1  0  0  0
 75 78  1  0  0  0
 75 81  2  0  0  0
 76144  1  0  0  0
 76145  1  0  0  0
 76146  1  0  0  0
 77 82  1  0  0  0
 77147  1  0  0  0
 77148  1  0  0  0
 78 79  1  0  0  0
 78149  1  0  0  0
 78150  1  0  0  0
 79 80  1  0  0  0
 79151  1  0  0  0
 79152  1  0  0  0
 80153  1  0  0  0
 80154  1  0  0  0
 82155  1  0  0  0
M  ISO  4   1 100  68 101  80 101  82 100
M  END
> <chiral flag>
0

> <version>
0

> <s_m_source_file>
/data/baiqing/PycharmProjects/Reinvent-master-3.2/result/LINK_invent/BTK/process_docking_weight1_custom_sum_contain_oxygen_bond_distance_aromatic_linkinvent_7_9_3/rearranged_h_0035.sdf

> <i_m_source_file_index>
25

> <r_mmod_Potential_Energy-OPLS-2005>
-148.694412231445

> <r_mmod_Stretch_Energy-OPLS-2005>
103.185554504395

> <r_mmod_Bend_Energy-OPLS-2005>
158.081970214844

> <r_mmod_Torsional_Energy-OPLS-2005>
210.267456054688

> <r_mmod_Improper_Torsional_Energy-OPLS-2005>
6.39748048782349

> <r_mmod_Van_der_Waal_Energy-OPLS-2005>
143.449157714844

> <r_mmod_Electrostatic_Energy-OPLS-2005>
-623.481201171875

> <r_mmod_Solvation_Energy-OPLS-2005>
-225.854782104492

> <b_mmod_Minimization_Converged-OPLS-2005>
0

> <r_mmod_RMS_Derivative-OPLS-2005>
3.89103722572327

$$$$
25
                    3D
 Structure written by MMmdl.
156164  0  0  1  0            999 V2000
  -30.7631  -14.4411   20.5586 C   0  0  0  0  0  0
  -30.4513  -12.3057   19.3827 C   0  0  0  0  0  0
  -29.5091  -12.5374   18.1911 C   0  0  0  0  0  0
  -28.0278  -12.3767   18.5940 C   0  0  0  0  0  0
  -27.6846  -13.1655   19.8806 C   0  0  2  0  0  0
  -28.7540  -12.9536   20.9851 C   0  0  0  0  0  0
  -25.2792  -13.7979   20.5901 C   0  0  0  0  0  0
  -24.1989  -13.0374   20.9273 C   0  0  0  0  0  0
  -24.6479  -11.6777   20.8766 C   0  0  0  0  0  0
  -23.9132  -10.4193   21.0451 C   0  0  0  0  0  0
  -24.3614   -9.4087   21.9259 C   0  0  0  0  0  0
  -23.6240   -8.2164   22.0802 C   0  0  0  0  0  0
  -22.4218   -8.0247   21.3578 C   0  0  0  0  0  0
  -21.9884   -9.0255   20.4703 C   0  0  0  0  0  0
  -22.7285  -10.2099   20.3127 C   0  0  0  0  0  0
  -21.6787   -6.0704   22.5280 C   0  0  0  0  0  0
  -21.3977   -6.5624   23.8213 C   0  0  0  0  0  0
  -21.3682   -5.6804   24.9180 C   0  0  0  0  0  0
  -21.6054   -4.3052   24.7220 C   0  0  0  0  0  0
  -21.8821   -3.8138   23.4326 C   0  0  0  0  0  0
  -21.9169   -4.6950   22.3381 C   0  0  0  0  0  0
  -22.8006  -13.5180   21.1900 C   0  0  0  0  0  0
  -22.1642   -4.2124   21.0962 F   0  0  0  0  0  0
  -21.5669   -3.4558   25.7735 F   0  0  0  0  0  0
  -30.0719  -13.2784   20.4174 N   0  0  0  0  0  0
  -26.3203  -12.9092   20.3467 N   0  0  0  0  0  0
  -25.9379  -11.6289   20.5787 N   0  0  0  0  0  0
  -22.0542  -12.8216   22.0360 N   0  0  0  0  0  0
  -25.4709  -15.1717   20.4510 N   0  0  0  0  0  0
  -31.9003  -14.6081   20.1180 O   0  0  0  0  0  0
  -21.6598   -6.8839   21.4233 O   0  0  0  0  0  0
  -22.3776  -14.5566   20.6792 O   0  0  0  0  0  0
  -24.5988  -31.8754   23.2167 C   0  0  0  0  0  0
  -25.8936  -32.4813   23.8355 C   0  0  1  0  0  0
  -27.2118  -27.4664   20.0482 C   0  0  0  0  0  0
  -25.5799  -33.8616   24.2276 N   0  0  0  0  0  0
  -23.3762  -30.5038   21.5732 C   0  0  2  0  0  0
  -24.8120  -28.9821   20.1170 C   0  0  0  0  0  0
  -22.7303  -29.4738   22.5224 C   0  0  0  0  0  0
  -18.0298  -28.1194   22.8834 C   0  0  0  0  0  0
  -24.1485  -36.7276   23.2640 C   0  0  0  0  0  0
  -25.8993  -30.8567   21.3552 C   0  0  0  0  0  0
  -25.9755  -29.4882   20.7053 C   0  0  0  0  0  0
  -27.1725  -28.7353   20.6702 C   0  0  0  0  0  0
  -26.0217  -26.9712   19.4623 C   0  0  0  0  0  0
  -24.8345  -27.7266   19.4889 C   0  0  0  0  0  0
  -23.5657  -29.8341   20.1873 C   0  0  0  0  0  0
  -25.4122  -36.3085   24.0335 C   0  0  1  0  0  0
  -20.5917  -28.3525   23.1560 C   0  0  2  0  0  0
  -20.6930  -26.9437   22.5237 C   0  0  0  0  0  0
  -19.5875  -26.7132   21.4883 C   0  0  0  0  0  0
  -18.2019  -26.8176   22.1365 C   0  0  0  0  0  0
  -19.1533  -28.8630   23.3239 C   0  0  0  0  0  0
  -18.9395  -30.1364   23.8997 C   0  0  0  0  0  0
  -17.6415  -30.6570   24.0293 C   0  0  0  0  0  0
  -25.9068  -34.9439   23.5156 C   0  0  0  0  0  0
  -16.5317  -29.9006   23.6140 C   0  0  0  0  0  0
  -16.7241  -28.6284   23.0538 C   0  0  0  0  0  0
  -26.4399  -31.6507   25.0584 C   0  0  0  0  0  0
  -25.3677  -31.3539   26.1301 C   0  0  0  0  0  0
  -27.0201  -30.2987   24.5794 C   0  0  0  0  0  0
  -27.6013  -32.4196   25.7286 C   0  0  0  0  0  0
  -27.5582  -37.1756   24.8473 C   0  0  0  0  0  0
  -21.4091  -29.2973   22.3935 N   0  0  0  0  0  0
  -26.4306  -37.3774   23.9407 N   0  0  0  0  0  0
  -24.6434  -31.0920   22.1046 N   0  0  0  0  0  0
  -23.4164  -28.8348   23.3309 O   0  0  0  0  0  0
  -28.4159  -26.7958   20.0064 O   0  0  0  0  0  0
  -26.5726  -34.8885   22.4763 O   0  0  0  0  0  0
  -23.5256  -32.1515   23.7640 O   0  0  0  0  0  0
  -27.6198  -19.7630   20.5938 C   0  0  0  0  0  0
  -27.8198  -18.3819   20.3855 C   0  0  0  0  0  0
  -29.9221  -19.9434   21.3492 C   0  0  0  0  0  0
  -28.6675  -20.5488   21.1078 C   0  0  0  0  0  0
  -29.0717  -17.7677   20.6349 C   0  0  0  0  0  0
  -30.1398  -18.5729   21.1068 C   0  0  0  0  0  0
  -28.4320  -22.0081   21.4682 C   0  0  0  0  0  0
  -29.1556  -16.2620   20.3809 C   0  0  0  0  0  0
  -28.4149  -22.9907   20.2822 C   0  0  0  0  0  0
  -28.3292  -24.4716   20.7402 C   0  0  0  0  0  0
  -28.4733  -25.4388   19.5580 C   0  0  0  0  0  0
  -30.1391  -15.4777   21.1279 N   0  0  0  0  0  0
  -31.7215  -17.9517   21.4431 Cl  0  0  0  0  0  0
  -31.4860  -12.4290   19.0557 H   0  0  0  0  0  0
  -30.3905  -11.2777   19.7558 H   0  0  0  0  0  0
  -29.7619  -11.8671   17.3693 H   0  0  0  0  0  0
  -29.6683  -13.5510   17.8173 H   0  0  0  0  0  0
  -27.8070  -11.3157   18.7142 H   0  0  0  0  0  0
  -27.3972  -12.7390   17.7783 H   0  0  0  0  0  0
  -27.7216  -14.1991   19.5632 H   0  0  0  0  0  0
  -28.7700  -11.9112   21.3105 H   0  0  0  0  0  0
  -28.5430  -13.5357   21.8782 H   0  0  0  0  0  0
  -25.2742   -9.5461   22.4864 H   0  0  0  0  0  0
  -23.9963   -7.4458   22.7392 H   0  0  0  0  0  0
  -21.0897   -8.8781   19.8882 H   0  0  0  0  0  0
  -22.3855  -10.9689   19.6233 H   0  0  0  0  0  0
  -21.1973   -7.6134   23.9725 H   0  0  0  0  0  0
  -21.1543   -6.0518   25.9098 H   0  0  0  0  0  0
  -22.0592   -2.7596   23.2852 H   0  0  0  0  0  0
  -22.3999  -11.9786   22.4692 H   0  0  0  0  0  0
  -21.1196  -13.1376   22.2552 H   0  0  0  0  0  0
  -24.7871  -15.8584   20.7482 H   0  0  0  0  0  0
  -26.3541  -15.5696   20.1740 H   0  0  0  0  0  0
  -26.6960  -32.5537   23.1074 H   0  0  0  0  0  0
  -24.9644  -33.9754   25.0189 H   0  0  0  0  0  0
  -22.6487  -31.3142   21.4538 H   0  0  0  0  0  0
  -23.3756  -35.9607   23.3363 H   0  0  0  0  0  0
  -24.3550  -36.8841   22.2046 H   0  0  0  0  0  0
  -23.7229  -37.6481   23.6653 H   0  0  0  0  0  0
  -25.9890  -31.6258   20.5860 H   0  0  0  0  0  0
  -26.7953  -30.9112   21.9616 H   0  0  0  0  0  0
  -28.0708  -29.1356   21.1181 H   0  0  0  0  0  0
  -25.9675  -26.0315   18.9437 H   0  0  0  0  0  0
  -23.9443  -27.3419   19.0057 H   0  0  0  0  0  0
  -23.6146  -30.6079   19.4252 H   0  0  0  0  0  0
  -22.6918  -29.2324   19.9319 H   0  0  0  0  0  0
  -25.1304  -36.1973   25.0853 H   0  0  0  0  0  0
  -21.0183  -28.2943   24.1596 H   0  0  0  0  0  0
  -20.6391  -26.1526   23.2767 H   0  0  0  0  0  0
  -21.6907  -26.8451   22.0896 H   0  0  0  0  0  0
  -19.7040  -25.7830   20.9259 H   0  0  0  0  0  0
  -19.6611  -27.5207   20.7607 H   0  0  0  0  0  0
  -17.4373  -26.7992   21.3615 H   0  0  0  0  0  0
  -18.0032  -25.9658   22.7853 H   0  0  0  0  0  0
  -19.7817  -30.7210   24.2323 H   0  0  0  0  0  0
  -17.4863  -31.6461   24.4344 H   0  0  0  0  0  0
  -15.5303  -30.3025   23.7173 H   0  0  0  0  0  0
  -15.8629  -28.0557   22.7374 H   0  0  0  0  0  0
  -24.5926  -30.6830   25.7570 H   0  0  0  0  0  0
  -24.8754  -32.2671   26.4687 H   0  0  0  0  0  0
  -25.7980  -30.8712   27.0086 H   0  0  0  0  0  0
  -26.2732  -29.6808   24.0817 H   0  0  0  0  0  0
  -27.4067  -29.7074   25.4109 H   0  0  0  0  0  0
  -27.8493  -30.4368   23.8845 H   0  0  0  0  0  0
  -27.2694  -33.3554   26.1796 H   0  0  0  0  0  0
  -28.3772  -32.6661   25.0015 H   0  0  0  0  0  0
  -28.0700  -31.8330   26.5185 H   0  0  0  0  0  0
  -28.2618  -38.0036   24.7536 H   0  0  0  0  0  0
  -28.1060  -36.2566   24.6334 H   0  0  0  0  0  0
  -27.2267  -37.1428   25.8861 H   0  0  0  0  0  0
  -20.9349  -29.8608   21.7035 H   0  0  0  0  0  0
  -26.0202  -38.2865   24.1419 H   0  0  0  0  0  0
  -26.6513  -20.2019   20.3775 H   0  0  0  0  0  0
  -26.9794  -17.7937   20.0438 H   0  0  0  0  0  0
  -30.7387  -20.5249   21.7510 H   0  0  0  0  0  0
  -29.2123  -22.3017   22.1679 H   0  0  0  0  0  0
  -27.4891  -22.0730   22.0111 H   0  0  0  0  0  0
  -28.1878  -15.8833   20.6897 H   0  0  0  0  0  0
  -29.2427  -16.0845   19.3027 H   0  0  0  0  0  0
  -29.3257  -22.8537   19.6869 H   0  0  0  0  0  0
  -27.5841  -22.7336   19.6237 H   0  0  0  0  0  0
  -29.1235  -24.6837   21.4592 H   0  0  0  0  0  0
  -27.3946  -24.6881   21.2685 H   0  0  0  0  0  0
  -27.7632  -25.1788   18.7731 H   0  0  0  0  0  0
  -29.4437  -25.2915   19.0872 H   0  0  0  0  0  0
  -30.8364  -16.1135   21.4942 H   0  0  0  0  0  0
  1 25  1  0  0  0
  1 30  2  0  0  0
  1 82  1  0  0  0
  2  3  1  0  0  0
  2 25  1  0  0  0
  2 84  1  0  0  0
  2 85  1  0  0  0
  3  4  1  0  0  0
  3 86  1  0  0  0
  3 87  1  0  0  0
  4  5  1  0  0  0
  4 88  1  0  0  0
  4 89  1  0  0  0
  5  6  1  0  0  0
  5 26  1  0  0  0
  5 90  1  0  0  0
  6 25  1  0  0  0
  6 91  1  0  0  0
  6 92  1  0  0  0
  7  8  2  0  0  0
  7 26  1  0  0  0
  7 29  1  0  0  0
  8  9  1  0  0  0
  8 22  1  0  0  0
  9 10  1  0  0  0
  9 27  2  0  0  0
 10 11  2  0  0  0
 10 15  1  0  0  0
 11 12  1  0  0  0
 11 93  1  0  0  0
 12 13  2  0  0  0
 12 94  1  0  0  0
 13 14  1  0  0  0
 13 31  1  0  0  0
 14 15  2  0  0  0
 14 95  1  0  0  0
 15 96  1  0  0  0
 16 17  2  0  0  0
 16 21  1  0  0  0
 16 31  1  0  0  0
 17 18  1  0  0  0
 17 97  1  0  0  0
 18 19  2  0  0  0
 18 98  1  0  0  0
 19 20  1  0  0  0
 19 24  1  0  0  0
 20 21  2  0  0  0
 20 99  1  0  0  0
 21 23  1  0  0  0
 22 28  1  0  0  0
 22 32  2  0  0  0
 26 27  1  0  0  0
 28100  1  0  0  0
 28101  1  0  0  0
 29102  1  0  0  0
 29103  1  0  0  0
 33 34  1  0  0  0
 33 66  1  0  0  0
 33 70  2  0  0  0
 34 36  1  0  0  0
 34 59  1  0  0  0
 34104  1  0  0  0
 35 44  2  0  0  0
 35 45  1  0  0  0
 35 68  1  0  0  0
 36 56  1  0  0  0
 36105  1  0  0  0
 37 39  1  0  0  0
 37 47  1  0  0  0
 37 66  1  0  0  0
 37106  1  0  0  0
 38 43  2  0  0  0
 38 46  1  0  0  0
 38 47  1  0  0  0
 39 64  1  0  0  0
 39 67  2  0  0  0
 40 52  1  0  0  0
 40 53  2  0  0  0
 40 58  1  0  0  0
 41107  1  0  0  0
 41108  1  0  0  0
 41109  1  0  0  0
 41 48  1  0  0  0
 42 43  1  0  0  0
 42 66  1  0  0  0
 42110  1  0  0  0
 42111  1  0  0  0
 43 44  1  0  0  0
 44112  1  0  0  0
 45 46  2  0  0  0
 45113  1  0  0  0
 46114  1  0  0  0
 47115  1  0  0  0
 47116  1  0  0  0
 48 56  1  0  0  0
 48 65  1  0  0  0
 48117  1  0  0  0
 49 50  1  0  0  0
 49 53  1  0  0  0
 49 64  1  0  0  0
 49118  1  0  0  0
 50 51  1  0  0  0
 50119  1  0  0  0
 50120  1  0  0  0
 51 52  1  0  0  0
 51121  1  0  0  0
 51122  1  0  0  0
 52123  1  0  0  0
 52124  1  0  0  0
 53 54  1  0  0  0
 54 55  2  0  0  0
 54125  1  0  0  0
 55 57  1  0  0  0
 55126  1  0  0  0
 56 69  2  0  0  0
 57 58  2  0  0  0
 57127  1  0  0  0
 58128  1  0  0  0
 59 60  1  0  0  0
 59 61  1  0  0  0
 59 62  1  0  0  0
 60129  1  0  0  0
 60130  1  0  0  0
 60131  1  0  0  0
 61132  1  0  0  0
 61133  1  0  0  0
 61134  1  0  0  0
 62135  1  0  0  0
 62136  1  0  0  0
 62137  1  0  0  0
 63 65  1  0  0  0
 63138  1  0  0  0
 63139  1  0  0  0
 63140  1  0  0  0
 64141  1  0  0  0
 65142  1  0  0  0
 68 81  1  0  0  0
 71 72  2  0  0  0
 71 74  1  0  0  0
 71143  1  0  0  0
 72 75  1  0  0  0
 72144  1  0  0  0
 73 74  2  0  0  0
 73 76  1  0  0  0
 73145  1  0  0  0
 74 77  1  0  0  0
 75 76  2  0  0  0
 75 78  1  0  0  0
 76 83  1  0  0  0
 77 79  1  0  0  0
 77146  1  0  0  0
 77147  1  0  0  0
 78 82  1  0  0  0
 78148  1  0  0  0
 78149  1  0  0  0
 79 80  1  0  0  0
 79150  1  0  0  0
 79151  1  0  0  0
 80 81  1  0  0  0
 80152  1  0  0  0
 80153  1  0  0  0
 81154  1  0  0  0
 81155  1  0  0  0
 82156  1  0  0  0
M  ISO  4   1 100  68 101  81 101  82 100
M  END
> <chiral flag>
0

> <version>
0

> <s_m_source_file>
/data/baiqing/PycharmProjects/Reinvent-master-3.2/result/LINK_invent/BTK/process_docking_weight1_custom_sum_contain_oxygen_bond_distance_aromatic_linkinvent_7_9_3/rearranged_h_0035.sdf

> <i_m_source_file_index>
26

> <r_mmod_Potential_Energy-OPLS-2005>
12.3281860351562

> <r_mmod_Stretch_Energy-OPLS-2005>
33.083610534668

> <r_mmod_Bend_Energy-OPLS-2005>
126.160469055176

> <r_mmod_Torsional_Energy-OPLS-2005>
247.176666259766

> <r_mmod_Improper_Torsional_Energy-OPLS-2005>
8.39169216156006

> <r_mmod_Van_der_Waal_Energy-OPLS-2005>
162.172576904297

> <r_mmod_Electrostatic_Energy-OPLS-2005>
-383.820709228516

> <r_mmod_Solvation_Energy-OPLS-2005>
-197.930770874023

> <b_mmod_Minimization_Converged-OPLS-2005>
0

> <r_mmod_RMS_Derivative-OPLS-2005>
11.9417724609375

$$$$
26
                    3D
 Structure written by MMmdl.
195203  0  0  1  0            999 V2000
  -30.8267  -14.2820   20.7125 C   0  0  0  0  0  0
  -30.4133  -12.2499   19.3719 C   0  0  0  0  0  0
  -29.4789  -12.5414   18.1854 C   0  0  0  0  0  0
  -28.0088  -12.3831   18.6092 C   0  0  0  0  0  0
  -27.6791  -13.1990   19.8830 C   0  0  2  0  0  0
  -28.7223  -12.9241   20.9928 C   0  0  0  0  0  0
  -25.2679  -13.8193   20.5707 C   0  0  0  0  0  0
  -24.1899  -13.0431   20.9160 C   0  0  0  0  0  0
  -24.6466  -11.6917   20.8717 C   0  0  0  0  0  0
  -23.9108  -10.4300   21.0376 C   0  0  0  0  0  0
  -24.3650   -9.4226   21.9188 C   0  0  0  0  0  0
  -23.6318   -8.2257   22.0747 C   0  0  0  0  0  0
  -22.4298   -8.0308   21.3536 C   0  0  0  0  0  0
  -21.9936   -9.0276   20.4646 C   0  0  0  0  0  0
  -22.7270  -10.2159   20.3037 C   0  0  0  0  0  0
  -21.6873   -6.0756   22.5298 C   0  0  0  0  0  0
  -21.4022   -6.5649   23.8228 C   0  0  0  0  0  0
  -21.3670   -5.6791   24.9181 C   0  0  0  0  0  0
  -21.6019   -4.3055   24.7220 C   0  0  0  0  0  0
  -21.8830   -3.8163   23.4341 C   0  0  0  0  0  0
  -21.9200   -4.6979   22.3405 C   0  0  0  0  0  0
  -22.7935  -13.5246   21.1817 C   0  0  0  0  0  0
  -22.1670   -4.2178   21.0974 F   0  0  0  0  0  0
  -21.5602   -3.4526   25.7723 F   0  0  0  0  0  0
  -30.0817  -13.1729   20.4662 N   0  0  0  0  0  0
  -26.3132  -12.9342   20.3424 N   0  0  0  0  0  0
  -25.9399  -11.6511   20.5796 N   0  0  0  0  0  0
  -22.0537  -12.8231   22.0369 N   0  0  0  0  0  0
  -25.4371  -15.1891   20.4142 N   0  0  0  0  0  0
  -31.7608  -14.6627   20.0011 O   0  0  0  0  0  0
  -21.6653   -6.8914   21.4265 O   0  0  0  0  0  0
  -22.3618  -14.5525   20.6669 O   0  0  0  0  0  0
  -24.6116  -31.8714   23.2124 C   0  0  0  0  0  0
  -25.9002  -32.4873   23.8384 C   0  0  1  0  0  0
  -27.2298  -27.4707   20.0535 C   0  0  0  0  0  0
  -25.5877  -33.8671   24.2343 N   0  0  0  0  0  0
  -23.3937  -30.4998   21.5557 C   0  0  2  0  0  0
  -24.8352  -28.9672   20.1211 C   0  0  0  0  0  0
  -22.7378  -29.4713   22.5032 C   0  0  0  0  0  0
  -18.0272  -28.1384   22.8512 C   0  0  0  0  0  0
  -24.1485  -36.7325   23.2637 C   0  0  0  0  0  0
  -25.9230  -30.8488   21.3530 C   0  0  0  0  0  0
  -26.0013  -29.4865   20.6970 C   0  0  0  0  0  0
  -27.2006  -28.7431   20.6628 C   0  0  0  0  0  0
  -26.0324  -26.9408   19.5223 C   0  0  0  0  0  0
  -24.8423  -27.6873   19.5421 C   0  0  0  0  0  0
  -23.6002  -29.8333   20.1705 C   0  0  0  0  0  0
  -25.4103  -36.3142   24.0344 C   0  0  1  0  0  0
  -20.5861  -28.3648   23.1350 C   0  0  2  0  0  0
  -20.6776  -26.9396   22.5425 C   0  0  0  0  0  0
  -19.5753  -26.6395   21.5220 C   0  0  0  0  0  0
  -18.1931  -26.7939   22.1632 C   0  0  0  0  0  0
  -19.1518  -28.8832   23.2933 C   0  0  0  0  0  0
  -18.9453  -30.1460   23.8921 C   0  0  0  0  0  0
  -17.6460  -30.6605   24.0565 C   0  0  0  0  0  0
  -25.9015  -34.9505   23.5133 C   0  0  0  0  0  0
  -16.5348  -29.9091   23.6345 C   0  0  0  0  0  0
  -16.7263  -28.6512   23.0365 C   0  0  0  0  0  0
  -26.4425  -31.6647   25.0715 C   0  0  0  0  0  0
  -25.3699  -31.3748   26.1473 C   0  0  0  0  0  0
  -27.0241  -30.3103   24.6052 C   0  0  0  0  0  0
  -27.6025  -32.4325   25.7493 C   0  0  0  0  0  0
  -27.5583  -37.1829   24.8469 C   0  0  0  0  0  0
  -21.4114  -29.3026   22.3758 N   0  0  0  0  0  0
  -26.4301  -37.3820   23.9408 N   0  0  0  0  0  0
  -24.6630  -31.0850   22.1002 N   0  0  0  0  0  0
  -23.4159  -28.8271   23.3084 O   0  0  0  0  0  0
  -28.3991  -26.7480   20.0844 O   0  0  0  0  0  0
  -26.5582  -34.8933   22.4697 O   0  0  0  0  0  0
  -23.5317  -32.1466   23.7519 O   0  0  0  0  0  0
  -31.2207  -25.1951   18.2046 C   0  0  0  0  0  0
  -29.1120  -24.1426   17.3549 C   0  0  0  0  0  0
  -30.4287  -25.9734   19.2675 C   0  0  0  0  0  0
  -28.2673  -24.9731   18.3396 C   0  0  0  0  0  0
  -30.5178  -23.8559   17.9012 C   0  0  1  0  0  0
  -28.9649  -26.2527   18.8689 C   0  0  2  0  0  0
  -34.3982  -23.5671   21.4196 C   0  0  0  0  0  0
  -33.0938  -23.1376   22.1364 C   0  0  0  0  0  0
  -34.8315  -22.6015   20.3087 C   0  0  0  0  0  0
  -32.9909  -21.6392   22.5255 C   0  0  0  0  0  0
  -35.8205  -23.1777   19.2769 C   0  0  0  0  0  0
  -31.8773  -20.9011   21.7583 C   0  0  0  0  0  0
  -36.5141  -22.1230   18.3784 C   0  0  0  0  0  0
  -31.9177  -19.3552   21.8137 C   0  0  0  0  0  0
  -35.7163  -21.6025   17.1628 C   0  0  0  0  0  0
  -30.4954  -18.7533   21.6950 C   0  0  0  0  0  0
  -34.4651  -20.7522   17.4859 C   0  0  0  0  0  0
  -30.4012  -17.2867   21.2512 C   0  0  0  0  0  0
  -33.1583  -21.2584   16.8284 C   0  0  0  0  0  0
  -30.9167  -16.2438   22.2675 C   0  0  0  0  0  0
  -32.5488  -22.4771   17.5497 C   0  0  0  0  0  0
  -30.5160  -14.8986   21.8576 N   0  0  0  0  0  0
  -31.2837  -22.9816   16.9773 N   0  3  0  0  0  0
  -31.4579  -12.3253   19.0627 H   0  0  0  0  0  0
  -30.2812  -11.2184   19.7061 H   0  0  0  0  0  0
  -29.6995  -11.8698   17.3547 H   0  0  0  0  0  0
  -29.6585  -13.5563   17.8207 H   0  0  0  0  0  0
  -27.8251  -11.3234   18.7893 H   0  0  0  0  0  0
  -27.3430  -12.6716   17.7950 H   0  0  0  0  0  0
  -27.7503  -14.2544   19.6207 H   0  0  0  0  0  0
  -28.6597  -11.8831   21.3101 H   0  0  0  0  0  0
  -28.4816  -13.5137   21.8780 H   0  0  0  0  0  0
  -25.2798   -9.5692   22.4760 H   0  0  0  0  0  0
  -24.0023   -7.4653   22.7468 H   0  0  0  0  0  0
  -21.0851   -8.8817   19.8970 H   0  0  0  0  0  0
  -22.3749  -10.9689   19.6126 H   0  0  0  0  0  0
  -21.2040   -7.6161   23.9749 H   0  0  0  0  0  0
  -21.1455   -6.0508   25.9084 H   0  0  0  0  0  0
  -22.0597   -2.7628   23.2826 H   0  0  0  0  0  0
  -22.4132  -11.9898   22.4774 H   0  0  0  0  0  0
  -21.1152  -13.1297   22.2512 H   0  0  0  0  0  0
  -24.6726  -15.8425   20.5396 H   0  0  0  0  0  0
  -26.2954  -15.6424   20.1230 H   0  0  0  0  0  0
  -26.7091  -32.5583   23.1152 H   0  0  0  0  0  0
  -25.0058  -33.9851   25.0503 H   0  0  0  0  0  0
  -22.6804  -31.3158   21.4188 H   0  0  0  0  0  0
  -23.3752  -35.9656   23.3322 H   0  0  0  0  0  0
  -24.3598  -36.8915   22.2055 H   0  0  0  0  0  0
  -23.7217  -37.6528   23.6627 H   0  0  0  0  0  0
  -26.0188  -31.6163   20.5825 H   0  0  0  0  0  0
  -26.8173  -30.9105   21.9624 H   0  0  0  0  0  0
  -28.1060  -29.1451   21.0968 H   0  0  0  0  0  0
  -25.9715  -25.9366   19.1392 H   0  0  0  0  0  0
  -23.9333  -27.2627   19.1405 H   0  0  0  0  0  0
  -23.7082  -30.6070   19.4109 H   0  0  0  0  0  0
  -22.7215  -29.2578   19.8758 H   0  0  0  0  0  0
  -25.1282  -36.2026   25.0848 H   0  0  0  0  0  0
  -20.9955  -28.3204   24.1464 H   0  0  0  0  0  0
  -20.5709  -26.2240   23.3590 H   0  0  0  0  0  0
  -21.6649  -26.7483   22.1197 H   0  0  0  0  0  0
  -19.6910  -25.6301   21.1259 H   0  0  0  0  0  0
  -19.6710  -27.3196   20.6749 H   0  0  0  0  0  0
  -17.4205  -26.6694   21.4039 H   0  0  0  0  0  0
  -18.0340  -26.0076   22.9032 H   0  0  0  0  0  0
  -19.7935  -30.7284   24.2285 H   0  0  0  0  0  0
  -17.5016  -31.6291   24.5142 H   0  0  0  0  0  0
  -15.5356  -30.2990   23.7677 H   0  0  0  0  0  0
  -15.8668  -28.0835   22.7059 H   0  0  0  0  0  0
  -24.5859  -30.7117   25.7808 H   0  0  0  0  0  0
  -24.8892  -32.2908   26.4922 H   0  0  0  0  0  0
  -25.8053  -30.8915   27.0225 H   0  0  0  0  0  0
  -26.2793  -29.6929   24.1031 H   0  0  0  0  0  0
  -27.3961  -29.7291   25.4497 H   0  0  0  0  0  0
  -27.8635  -30.4464   23.9229 H   0  0  0  0  0  0
  -27.2668  -33.3595   26.2141 H   0  0  0  0  0  0
  -28.3807  -32.6926   25.0316 H   0  0  0  0  0  0
  -28.0694  -31.8383   26.5351 H   0  0  0  0  0  0
  -28.2618  -38.0114   24.7515 H   0  0  0  0  0  0
  -28.1071  -36.2650   24.6303 H   0  0  0  0  0  0
  -27.2310  -37.1487   25.8876 H   0  0  0  0  0  0
  -20.9256  -29.8694   21.6956 H   0  0  0  0  0  0
  -26.0199  -38.2913   24.1389 H   0  0  0  0  0  0
  -32.2297  -25.0295   18.5835 H   0  0  0  0  0  0
  -31.3173  -25.8012   17.3020 H   0  0  0  0  0  0
  -29.1793  -24.6550   16.3943 H   0  0  0  0  0  0
  -28.5858  -23.2085   17.1590 H   0  0  0  0  0  0
  -30.9361  -26.9136   19.4939 H   0  0  0  0  0  0
  -30.4382  -25.3958   20.1936 H   0  0  0  0  0  0
  -27.9676  -24.3469   19.1810 H   0  0  0  0  0  0
  -27.3598  -25.2409   17.8035 H   0  0  0  0  0  0
  -30.4037  -23.3133   18.8411 H   0  0  0  0  0  0
  -28.9407  -27.0287   18.1036 H   0  0  0  0  0  0
  -35.2119  -23.6559   22.1412 H   0  0  0  0  0  0
  -34.2566  -24.5663   21.0027 H   0  0  0  0  0  0
  -32.2349  -23.4260   21.5190 H   0  0  0  0  0  0
  -32.9926  -23.7333   23.0453 H   0  0  0  0  0  0
  -33.9322  -22.2810   19.8162 H   0  0  0  0  0  0
  -35.2569  -21.7032   20.7563 H   0  0  0  0  0  0
  -32.7685  -21.5561   23.5904 H   0  0  0  0  0  0
  -33.9409  -21.1225   22.4089 H   0  0  0  0  0  0
  -36.5978  -23.7103   19.8263 H   0  0  0  0  0  0
  -35.3318  -23.9287   18.6576 H   0  0  0  0  0  0
  -30.9299  -21.2588   22.1649 H   0  0  0  0  0  0
  -31.8962  -21.2028   20.7089 H   0  0  0  0  0  0
  -36.8669  -21.2846   18.9787 H   0  0  0  0  0  0
  -37.4180  -22.5915   17.9799 H   0  0  0  0  0  0
  -32.5552  -18.9942   21.0036 H   0  0  0  0  0  0
  -32.3829  -19.0010   22.7351 H   0  0  0  0  0  0
  -36.3851  -20.9745   16.5660 H   0  0  0  0  0  0
  -35.4687  -22.4389   16.5089 H   0  0  0  0  0  0
  -29.9662  -18.8810   22.6391 H   0  0  0  0  0  0
  -29.9294  -19.3297   20.9607 H   0  0  0  0  0  0
  -34.3267  -20.6388   18.5565 H   0  0  0  0  0  0
  -34.6503  -19.7286   17.1549 H   0  0  0  0  0  0
  -30.9172  -17.1803   20.2965 H   0  0  0  0  0  0
  -29.3489  -17.0682   21.0398 H   0  0  0  0  0  0
  -32.4386  -20.4404   16.8456 H   0  0  0  0  0  0
  -33.3337  -21.4842   15.7768 H   0  0  0  0  0  0
  -30.4920  -16.4184   23.2594 H   0  0  0  0  0  0
  -31.9996  -16.3104   22.3843 H   0  0  0  0  0  0
  -33.2771  -23.2845   17.6013 H   0  0  0  0  0  0
  -32.3055  -22.1726   18.5612 H   0  0  0  0  0  0
  -29.8653  -14.4044   22.4496 H   0  0  0  0  0  0
  -31.4677  -23.4619   16.1101 H   0  0  0  0  0  0
  -30.6968  -22.1870   16.7779 H   0  0  0  0  0  0
  1 25  1  0  0  0
  1 30  2  0  0  0
  1 92  1  0  0  0
  2  3  1  0  0  0
  2 25  1  0  0  0
  2 94  1  0  0  0
  2 95  1  0  0  0
  3  4  1  0  0  0
  3 96  1  0  0  0
  3 97  1  0  0  0
  4  5  1  0  0  0
  4 98  1  0  0  0
  4 99  1  0  0  0
  5  6  1  0  0  0
  5 26  1  0  0  0
  5100  1  0  0  0
  6 25  1  0  0  0
  6101  1  0  0  0
  6102  1  0  0  0
  7  8  2  0  0  0
  7 26  1  0  0  0
  7 29  1  0  0  0
  8  9  1  0  0  0
  8 22  1  0  0  0
  9 10  1  0  0  0
  9 27  2  0  0  0
 10 11  2  0  0  0
 10 15  1  0  0  0
 11 12  1  0  0  0
 11103  1  0  0  0
 12 13  2  0  0  0
 12104  1  0  0  0
 13 14  1  0  0  0
 13 31  1  0  0  0
 14 15  2  0  0  0
 14105  1  0  0  0
 15106  1  0  0  0
 16 17  2  0  0  0
 16 21  1  0  0  0
 16 31  1  0  0  0
 17 18  1  0  0  0
 17107  1  0  0  0
 18 19  2  0  0  0
 18108  1  0  0  0
 19 20  1  0  0  0
 19 24  1  0  0  0
 20 21  2  0  0  0
 20109  1  0  0  0
 21 23  1  0  0  0
 22 28  1  0  0  0
 22 32  2  0  0  0
 26 27  1  0  0  0
 28110  1  0  0  0
 28111  1  0  0  0
 29112  1  0  0  0
 29113  1  0  0  0
 33 34  1  0  0  0
 33 66  1  0  0  0
 33 70  2  0  0  0
 34 36  1  0  0  0
 34 59  1  0  0  0
 34114  1  0  0  0
 35 44  2  0  0  0
 35 45  1  0  0  0
 35 68  1  0  0  0
 36 56  1  0  0  0
 36115  1  0  0  0
 37 39  1  0  0  0
 37 47  1  0  0  0
 37 66  1  0  0  0
 37116  1  0  0  0
 38 43  2  0  0  0
 38 46  1  0  0  0
 38 47  1  0  0  0
 39 64  1  0  0  0
 39 67  2  0  0  0
 40 52  1  0  0  0
 40 53  2  0  0  0
 40 58  1  0  0  0
 41117  1  0  0  0
 41118  1  0  0  0
 41119  1  0  0  0
 41 48  1  0  0  0
 42 43  1  0  0  0
 42 66  1  0  0  0
 42120  1  0  0  0
 42121  1  0  0  0
 43 44  1  0  0  0
 44122  1  0  0  0
 45 46  2  0  0  0
 45123  1  0  0  0
 46124  1  0  0  0
 47125  1  0  0  0
 47126  1  0  0  0
 48 56  1  0  0  0
 48 65  1  0  0  0
 48127  1  0  0  0
 49 50  1  0  0  0
 49 53  1  0  0  0
 49 64  1  0  0  0
 49128  1  0  0  0
 50 51  1  0  0  0
 50129  1  0  0  0
 50130  1  0  0  0
 51 52  1  0  0  0
 51131  1  0  0  0
 51132  1  0  0  0
 52133  1  0  0  0
 52134  1  0  0  0
 53 54  1  0  0  0
 54 55  2  0  0  0
 54135  1  0  0  0
 55 57  1  0  0  0
 55136  1  0  0  0
 56 69  2  0  0  0
 57 58  2  0  0  0
 57137  1  0  0  0
 58138  1  0  0  0
 59 60  1  0  0  0
 59 61  1  0  0  0
 59 62  1  0  0  0
 60139  1  0  0  0
 60140  1  0  0  0
 60141  1  0  0  0
 61142  1  0  0  0
 61143  1  0  0  0
 61144  1  0  0  0
 62145  1  0  0  0
 62146  1  0  0  0
 62147  1  0  0  0
 63 65  1  0  0  0
 63148  1  0  0  0
 63149  1  0  0  0
 63150  1  0  0  0
 64151  1  0  0  0
 65152  1  0  0  0
 68 76  1  0  0  0
 71 73  1  0  0  0
 71 75  1  0  0  0
 71153  1  0  0  0
 71154  1  0  0  0
 72 74  1  0  0  0
 72 75  1  0  0  0
 72155  1  0  0  0
 72156  1  0  0  0
 73 76  1  0  0  0
 73157  1  0  0  0
 73158  1  0  0  0
 74 76  1  0  0  0
 74159  1  0  0  0
 74160  1  0  0  0
 75 93  1  0  0  0
 75161  1  0  0  0
 76162  1  0  0  0
 77 78  1  0  0  0
 77 79  1  0  0  0
 77163  1  0  0  0
 77164  1  0  0  0
 78 80  1  0  0  0
 78165  1  0  0  0
 78166  1  0  0  0
 79 81  1  0  0  0
 79167  1  0  0  0
 79168  1  0  0  0
 80 82  1  0  0  0
 80169  1  0  0  0
 80170  1  0  0  0
 81 83  1  0  0  0
 81171  1  0  0  0
 81172  1  0  0  0
 82 84  1  0  0  0
 82173  1  0  0  0
 82174  1  0  0  0
 83 85  1  0  0  0
 83175  1  0  0  0
 83176  1  0  0  0
 84 86  1  0  0  0
 84177  1  0  0  0
 84178  1  0  0  0
 85 87  1  0  0  0
 85179  1  0  0  0
 85180  1  0  0  0
 86 88  1  0  0  0
 86181  1  0  0  0
 86182  1  0  0  0
 87 89  1  0  0  0
 87183  1  0  0  0
 87184  1  0  0  0
 88 90  1  0  0  0
 88185  1  0  0  0
 88186  1  0  0  0
 89 91  1  0  0  0
 89187  1  0  0  0
 89188  1  0  0  0
 90 92  1  0  0  0
 90189  1  0  0  0
 90190  1  0  0  0
 91 93  1  0  0  0
 91191  1  0  0  0
 91192  1  0  0  0
 92193  1  0  0  0
 93194  1  0  0  0
 93195  1  0  0  0
M  CHG  1  93   1
M  ISO  4   1 100  68 101  76 101  92 100
M  END
> <chiral flag>
0

> <version>
0

> <s_m_source_file>
/data/baiqing/PycharmProjects/Reinvent-master-3.2/result/LINK_invent/BTK/process_docking_weight1_custom_sum_contain_oxygen_bond_distance_aromatic_linkinvent_7_9_3/rearranged_h_0035.sdf

> <i_m_source_file_index>
27

> <r_mmod_Potential_Energy-OPLS-2005>
-103.747039794922

> <r_mmod_Stretch_Energy-OPLS-2005>
36.2685050964355

> <r_mmod_Bend_Energy-OPLS-2005>
122.661071777344

> <r_mmod_Torsional_Energy-OPLS-2005>
294.313690185547

> <r_mmod_Improper_Torsional_Energy-OPLS-2005>
2.49501585960388

> <r_mmod_Van_der_Waal_Energy-OPLS-2005>
133.765975952148

> <r_mmod_Electrostatic_Energy-OPLS-2005>
-269.381103515625

> <r_mmod_Solvation_Energy-OPLS-2005>
-433.897583007812

> <b_mmod_Minimization_Converged-OPLS-2005>
0

> <r_mmod_RMS_Derivative-OPLS-2005>
6.30217885971069

$$$$
27
                    3D
 Structure written by MMmdl.
165173  0  0  1  0            999 V2000
  -30.7473  -14.3089   20.6633 C   0  0  0  0  0  0
  -30.4096  -12.2443   19.3705 C   0  0  0  0  0  0
  -29.4715  -12.5147   18.1787 C   0  0  0  0  0  0
  -27.9918  -12.3837   18.5928 C   0  0  0  0  0  0
  -27.6648  -13.1875   19.8793 C   0  0  2  0  0  0
  -28.7006  -12.8839   20.9837 C   0  0  0  0  0  0
  -25.2627  -13.8138   20.5653 C   0  0  0  0  0  0
  -24.1851  -13.0459   20.9134 C   0  0  0  0  0  0
  -24.6362  -11.6899   20.8715 C   0  0  0  0  0  0
  -23.9023  -10.4293   21.0405 C   0  0  0  0  0  0
  -24.3591   -9.4227   21.9180 C   0  0  0  0  0  0
  -23.6280   -8.2264   22.0755 C   0  0  0  0  0  0
  -22.4261   -8.0292   21.3558 C   0  0  0  0  0  0
  -21.9891   -9.0255   20.4662 C   0  0  0  0  0  0
  -22.7200  -10.2143   20.3054 C   0  0  0  0  0  0
  -21.6859   -6.0735   22.5277 C   0  0  0  0  0  0
  -21.4011   -6.5634   23.8204 C   0  0  0  0  0  0
  -21.3667   -5.6797   24.9164 C   0  0  0  0  0  0
  -21.6057   -4.3054   24.7222 C   0  0  0  0  0  0
  -21.8822   -3.8150   23.4338 C   0  0  0  0  0  0
  -21.9201   -4.6974   22.3402 C   0  0  0  0  0  0
  -22.7885  -13.5278   21.1809 C   0  0  0  0  0  0
  -22.1667   -4.2154   21.0986 F   0  0  0  0  0  0
  -21.5635   -3.4543   25.7728 F   0  0  0  0  0  0
  -30.0473  -13.1707   20.4515 N   0  0  0  0  0  0
  -26.3016  -12.9262   20.3349 N   0  0  0  0  0  0
  -25.9271  -11.6442   20.5730 N   0  0  0  0  0  0
  -22.0548  -12.8270   22.0362 N   0  0  0  0  0  0
  -25.4465  -15.1855   20.4109 N   0  0  0  0  0  0
  -31.7975  -14.5959   20.0764 O   0  0  0  0  0  0
  -21.6661   -6.8881   21.4232 O   0  0  0  0  0  0
  -22.3558  -14.5589   20.6672 O   0  0  0  0  0  0
  -24.6154  -31.8698   23.2106 C   0  0  0  0  0  0
  -25.9058  -32.4831   23.8382 C   0  0  1  0  0  0
  -27.2267  -27.4491   20.0764 C   0  0  0  0  0  0
  -25.5920  -33.8636   24.2319 N   0  0  0  0  0  0
  -23.4007  -30.4946   21.5518 C   0  0  2  0  0  0
  -24.8406  -28.9604   20.1186 C   0  0  0  0  0  0
  -22.7411  -29.4676   22.5004 C   0  0  0  0  0  0
  -18.0278  -28.1370   22.8497 C   0  0  0  0  0  0
  -24.1492  -36.7313   23.2633 C   0  0  0  0  0  0
  -25.9292  -30.8353   21.3635 C   0  0  0  0  0  0
  -26.0023  -29.4698   20.7133 C   0  0  0  0  0  0
  -27.1982  -28.7155   20.7005 C   0  0  0  0  0  0
  -26.0354  -26.9370   19.5135 C   0  0  0  0  0  0
  -24.8493  -27.6907   19.5206 C   0  0  0  0  0  0
  -23.6057  -29.8284   20.1658 C   0  0  0  0  0  0
  -25.4114  -36.3118   24.0333 C   0  0  1  0  0  0
  -20.5868  -28.3659   23.1318 C   0  0  2  0  0  0
  -20.6765  -26.9398   22.5410 C   0  0  0  0  0  0
  -19.5741  -26.6382   21.5211 C   0  0  0  0  0  0
  -18.1923  -26.7920   22.1625 C   0  0  0  0  0  0
  -19.1525  -28.8832   23.2904 C   0  0  0  0  0  0
  -18.9461  -30.1440   23.8915 C   0  0  0  0  0  0
  -17.6458  -30.6581   24.0567 C   0  0  0  0  0  0
  -25.9046  -34.9478   23.5119 C   0  0  0  0  0  0
  -16.5351  -29.9084   23.6325 C   0  0  0  0  0  0
  -16.7266  -28.6496   23.0357 C   0  0  0  0  0  0
  -26.4483  -31.6612   25.0705 C   0  0  0  0  0  0
  -25.3769  -31.3708   26.1468 C   0  0  0  0  0  0
  -27.0287  -30.3046   24.6062 C   0  0  0  0  0  0
  -27.6055  -32.4329   25.7475 C   0  0  0  0  0  0
  -27.5589  -37.1805   24.8460 C   0  0  0  0  0  0
  -21.4138  -29.3032   22.3739 N   0  0  0  0  0  0
  -26.4293  -37.3804   23.9418 N   0  0  0  0  0  0
  -24.6666  -31.0802   22.1006 N   0  0  0  0  0  0
  -23.4189  -28.8220   23.3049 O   0  0  0  0  0  0
  -28.3940  -26.7199   20.0438 O   0  0  0  0  0  0
  -26.5598  -34.8940   22.4677 O   0  0  0  0  0  0
  -23.5346  -32.1454   23.7503 O   0  0  0  0  0  0
  -29.3150  -23.7319   18.3539 C   0  0  0  0  0  0
  -30.5089  -22.9981   18.5907 C   0  0  0  0  0  0
  -29.5551  -24.9656   18.8952 C   0  0  0  0  0  0
  -31.4292  -25.7415   21.7453 C   0  0  0  0  0  0
  -30.9390  -21.6874   17.9902 C   0  0  0  0  0  0
  -28.7583  -26.2267   18.7528 C   0  0  0  0  0  0
  -31.3579  -20.6362   19.0260 C   0  0  0  0  0  0
  -30.2540  -19.6586   19.4399 C   0  0  0  0  0  0
  -30.7156  -18.8008   20.6251 C   0  0  0  0  0  0
  -30.2036  -17.3686   20.5243 C   0  0  0  0  0  0
  -31.5395  -25.9151   20.2249 C   0  0  0  0  0  0
  -30.5786  -16.5232   21.7491 C   0  0  0  0  0  0
  -31.3716  -23.6882   19.3195 N   0  0  0  0  0  0
  -30.7919  -24.8934   19.5112 N   0  0  0  0  0  0
  -30.1772  -15.1460   21.5321 N   0  0  0  0  0  0
  -31.4463  -12.3527   19.0496 H   0  0  0  0  0  0
  -30.3107  -11.2114   19.7086 H   0  0  0  0  0  0
  -29.6862  -11.8246   17.3617 H   0  0  0  0  0  0
  -29.6519  -13.5182   17.7884 H   0  0  0  0  0  0
  -27.7691  -11.3250   18.7433 H   0  0  0  0  0  0
  -27.3486  -12.7104   17.7745 H   0  0  0  0  0  0
  -27.7343  -14.2473   19.6277 H   0  0  0  0  0  0
  -28.6471  -11.8316   21.2661 H   0  0  0  0  0  0
  -28.4542  -13.4265   21.8960 H   0  0  0  0  0  0
  -25.2768   -9.5710   22.4740 H   0  0  0  0  0  0
  -24.0025   -7.4641   22.7443 H   0  0  0  0  0  0
  -21.0841   -8.8743   19.8940 H   0  0  0  0  0  0
  -22.3655  -10.9675   19.6150 H   0  0  0  0  0  0
  -21.1985   -7.6124   23.9694 H   0  0  0  0  0  0
  -21.1491   -6.0530   25.9070 H   0  0  0  0  0  0
  -22.0600   -2.7601   23.2836 H   0  0  0  0  0  0
  -22.4173  -11.9940   22.4752 H   0  0  0  0  0  0
  -21.1160  -13.1302   22.2577 H   0  0  0  0  0  0
  -24.6969  -15.8578   20.5319 H   0  0  0  0  0  0
  -26.3233  -15.6144   20.1423 H   0  0  0  0  0  0
  -26.7128  -32.5533   23.1142 H   0  0  0  0  0  0
  -25.0098  -33.9793   25.0481 H   0  0  0  0  0  0
  -22.6899  -31.3121   21.4151 H   0  0  0  0  0  0
  -23.3746  -35.9651   23.3319 H   0  0  0  0  0  0
  -24.3583  -36.8902   22.2039 H   0  0  0  0  0  0
  -23.7250  -37.6534   23.6629 H   0  0  0  0  0  0
  -26.0440  -31.5983   20.5920 H   0  0  0  0  0  0
  -26.8194  -30.8861   21.9795 H   0  0  0  0  0  0
  -28.1006  -29.1057   21.1512 H   0  0  0  0  0  0
  -26.0064  -25.9497   19.0759 H   0  0  0  0  0  0
  -23.9514  -27.2856   19.0756 H   0  0  0  0  0  0
  -23.7136  -30.6028   19.4047 H   0  0  0  0  0  0
  -22.7284  -29.2484   19.8737 H   0  0  0  0  0  0
  -25.1286  -36.1972   25.0820 H   0  0  0  0  0  0
  -20.9961  -28.3215   24.1436 H   0  0  0  0  0  0
  -20.5676  -26.2266   23.3594 H   0  0  0  0  0  0
  -21.6638  -26.7445   22.1199 H   0  0  0  0  0  0
  -19.6903  -25.6299   21.1229 H   0  0  0  0  0  0
  -19.6677  -27.3202   20.6749 H   0  0  0  0  0  0
  -17.4193  -26.6681   21.4023 H   0  0  0  0  0  0
  -18.0318  -26.0050   22.9008 H   0  0  0  0  0  0
  -19.7940  -30.7250   24.2288 H   0  0  0  0  0  0
  -17.5023  -31.6266   24.5158 H   0  0  0  0  0  0
  -15.5356  -30.2995   23.7639 H   0  0  0  0  0  0
  -15.8665  -28.0819   22.7067 H   0  0  0  0  0  0
  -24.5921  -30.7077   25.7813 H   0  0  0  0  0  0
  -24.8989  -32.2861   26.4965 H   0  0  0  0  0  0
  -25.8142  -30.8842   27.0197 H   0  0  0  0  0  0
  -26.2785  -29.6825   24.1155 H   0  0  0  0  0  0
  -27.4097  -29.7266   25.4495 H   0  0  0  0  0  0
  -27.8622  -30.4353   23.9155 H   0  0  0  0  0  0
  -27.2656  -33.3602   26.2103 H   0  0  0  0  0  0
  -28.3842  -32.6948   25.0298 H   0  0  0  0  0  0
  -28.0759  -31.8436   26.5358 H   0  0  0  0  0  0
  -28.2593  -38.0119   24.7549 H   0  0  0  0  0  0
  -28.1103  -36.2655   24.6232 H   0  0  0  0  0  0
  -27.2319  -37.1391   25.8866 H   0  0  0  0  0  0
  -20.9304  -29.8759   21.6961 H   0  0  0  0  0  0
  -26.0180  -38.2875   24.1454 H   0  0  0  0  0  0
  -28.4541  -23.4409   17.7671 H   0  0  0  0  0  0
  -32.0738  -26.4523   22.2635 H   0  0  0  0  0  0
  -31.7287  -24.7390   22.0541 H   0  0  0  0  0  0
  -30.4058  -25.9057   22.0860 H   0  0  0  0  0  0
  -31.7990  -21.8840   17.3485 H   0  0  0  0  0  0
  -30.1702  -21.2944   17.3260 H   0  0  0  0  0  0
  -27.9204  -26.0315   18.0851 H   0  0  0  0  0  0
  -29.3638  -26.9821   18.2524 H   0  0  0  0  0  0
  -31.8060  -21.1142   19.8976 H   0  0  0  0  0  0
  -32.1534  -20.0355   18.5813 H   0  0  0  0  0  0
  -30.0135  -19.0250   18.5840 H   0  0  0  0  0  0
  -29.3299  -20.1770   19.7014 H   0  0  0  0  0  0
  -30.4066  -19.2620   21.5648 H   0  0  0  0  0  0
  -31.8060  -18.7582   20.6523 H   0  0  0  0  0  0
  -30.6456  -16.9324   19.6276 H   0  0  0  0  0  0
  -29.1219  -17.3499   20.3765 H   0  0  0  0  0  0
  -32.5836  -25.8537   19.9149 H   0  0  0  0  0  0
  -31.1849  -26.9012   19.9239 H   0  0  0  0  0  0
  -30.0721  -16.8965   22.6405 H   0  0  0  0  0  0
  -31.6524  -16.5646   21.9425 H   0  0  0  0  0  0
  -29.3221  -14.8306   21.9667 H   0  0  0  0  0  0
  1 25  1  0  0  0
  1 30  2  0  0  0
  1 85  1  0  0  0
  2  3  1  0  0  0
  2 25  1  0  0  0
  2 86  1  0  0  0
  2 87  1  0  0  0
  3  4  1  0  0  0
  3 88  1  0  0  0
  3 89  1  0  0  0
  4  5  1  0  0  0
  4 90  1  0  0  0
  4 91  1  0  0  0
  5  6  1  0  0  0
  5 26  1  0  0  0
  5 92  1  0  0  0
  6 25  1  0  0  0
  6 93  1  0  0  0
  6 94  1  0  0  0
  7  8  2  0  0  0
  7 26  1  0  0  0
  7 29  1  0  0  0
  8  9  1  0  0  0
  8 22  1  0  0  0
  9 10  1  0  0  0
  9 27  2  0  0  0
 10 11  2  0  0  0
 10 15  1  0  0  0
 11 12  1  0  0  0
 11 95  1  0  0  0
 12 13  2  0  0  0
 12 96  1  0  0  0
 13 14  1  0  0  0
 13 31  1  0  0  0
 14 15  2  0  0  0
 14 97  1  0  0  0
 15 98  1  0  0  0
 16 17  2  0  0  0
 16 21  1  0  0  0
 16 31  1  0  0  0
 17 18  1  0  0  0
 17 99  1  0  0  0
 18 19  2  0  0  0
 18100  1  0  0  0
 19 20  1  0  0  0
 19 24  1  0  0  0
 20 21  2  0  0  0
 20101  1  0  0  0
 21 23  1  0  0  0
 22 28  1  0  0  0
 22 32  2  0  0  0
 26 27  1  0  0  0
 28102  1  0  0  0
 28103  1  0  0  0
 29104  1  0  0  0
 29105  1  0  0  0
 33 34  1  0  0  0
 33 66  1  0  0  0
 33 70  2  0  0  0
 34 36  1  0  0  0
 34 59  1  0  0  0
 34106  1  0  0  0
 35 44  2  0  0  0
 35 45  1  0  0  0
 35 68  1  0  0  0
 36 56  1  0  0  0
 36107  1  0  0  0
 37 39  1  0  0  0
 37 47  1  0  0  0
 37 66  1  0  0  0
 37108  1  0  0  0
 38 43  2  0  0  0
 38 46  1  0  0  0
 38 47  1  0  0  0
 39 64  1  0  0  0
 39 67  2  0  0  0
 40 52  1  0  0  0
 40 53  2  0  0  0
 40 58  1  0  0  0
 41109  1  0  0  0
 41110  1  0  0  0
 41111  1  0  0  0
 41 48  1  0  0  0
 42 43  1  0  0  0
 42 66  1  0  0  0
 42112  1  0  0  0
 42113  1  0  0  0
 43 44  1  0  0  0
 44114  1  0  0  0
 45 46  2  0  0  0
 45115  1  0  0  0
 46116  1  0  0  0
 47117  1  0  0  0
 47118  1  0  0  0
 48 56  1  0  0  0
 48 65  1  0  0  0
 48119  1  0  0  0
 49 50  1  0  0  0
 49 53  1  0  0  0
 49 64  1  0  0  0
 49120  1  0  0  0
 50 51  1  0  0  0
 50121  1  0  0  0
 50122  1  0  0  0
 51 52  1  0  0  0
 51123  1  0  0  0
 51124  1  0  0  0
 52125  1  0  0  0
 52126  1  0  0  0
 53 54  1  0  0  0
 54 55  2  0  0  0
 54127  1  0  0  0
 55 57  1  0  0  0
 55128  1  0  0  0
 56 69  2  0  0  0
 57 58  2  0  0  0
 57129  1  0  0  0
 58130  1  0  0  0
 59 60  1  0  0  0
 59 61  1  0  0  0
 59 62  1  0  0  0
 60131  1  0  0  0
 60132  1  0  0  0
 60133  1  0  0  0
 61134  1  0  0  0
 61135  1  0  0  0
 61136  1  0  0  0
 62137  1  0  0  0
 62138  1  0  0  0
 62139  1  0  0  0
 63 65  1  0  0  0
 63140  1  0  0  0
 63141  1  0  0  0
 63142  1  0  0  0
 64143  1  0  0  0
 65144  1  0  0  0
 68 76  1  0  0  0
 71 72  1  0  0  0
 71 73  2  0  0  0
 71145  1  0  0  0
 72 75  1  0  0  0
 72 83  2  0  0  0
 73 76  1  0  0  0
 73 84  1  0  0  0
 74 81  1  0  0  0
 74146  1  0  0  0
 74147  1  0  0  0
 74148  1  0  0  0
 75 77  1  0  0  0
 75149  1  0  0  0
 75150  1  0  0  0
 76151  1  0  0  0
 76152  1  0  0  0
 77 78  1  0  0  0
 77153  1  0  0  0
 77154  1  0  0  0
 78 79  1  0  0  0
 78155  1  0  0  0
 78156  1  0  0  0
 79 80  1  0  0  0
 79157  1  0  0  0
 79158  1  0  0  0
 80 82  1  0  0  0
 80159  1  0  0  0
 80160  1  0  0  0
 81 84  1  0  0  0
 81161  1  0  0  0
 81162  1  0  0  0
 82 85  1  0  0  0
 82163  1  0  0  0
 82164  1  0  0  0
 83 84  1  0  0  0
 85165  1  0  0  0
M  ISO  4   1 100  68 101  76 101  85 100
M  END
> <chiral flag>
0

> <version>
0

> <s_m_source_file>
/data/baiqing/PycharmProjects/Reinvent-master-3.2/result/LINK_invent/BTK/process_docking_weight1_custom_sum_contain_oxygen_bond_distance_aromatic_linkinvent_7_9_3/rearranged_h_0035.sdf

> <i_m_source_file_index>
28

> <r_mmod_Potential_Energy-OPLS-2005>
-88.072509765625

> <r_mmod_Stretch_Energy-OPLS-2005>
29.3064823150635

> <r_mmod_Bend_Energy-OPLS-2005>
88.8354568481445

> <r_mmod_Torsional_Energy-OPLS-2005>
234.595169067383

> <r_mmod_Improper_Torsional_Energy-OPLS-2005>
3.49269819259644

> <r_mmod_Van_der_Waal_Energy-OPLS-2005>
135.945037841797

> <r_mmod_Electrostatic_Energy-OPLS-2005>
-374.901794433594

> <r_mmod_Solvation_Energy-OPLS-2005>
-214.307586669922

> <b_mmod_Minimization_Converged-OPLS-2005>
0

> <r_mmod_RMS_Derivative-OPLS-2005>
3.82772922515869

$$$$
28
                    3D
 Structure written by MMmdl.
162170  0  0  1  0            999 V2000
  -30.6019  -14.7416   20.4624 C   0  0  0  0  0  0
  -30.4349  -12.4530   19.4684 C   0  0  0  0  0  0
  -29.5097  -12.5023   18.2327 C   0  0  0  0  0  0
  -28.0354  -12.3276   18.6479 C   0  0  0  0  0  0
  -27.6412  -13.2287   19.8488 C   0  0  2  0  0  0
  -28.6861  -13.1577   20.9825 C   0  0  0  0  0  0
  -25.2515  -13.8195   20.5704 C   0  0  0  0  0  0
  -24.1804  -13.0438   20.9212 C   0  0  0  0  0  0
  -24.6392  -11.6915   20.8752 C   0  0  0  0  0  0
  -23.9071  -10.4291   21.0413 C   0  0  0  0  0  0
  -24.3621   -9.4206   21.9190 C   0  0  0  0  0  0
  -23.6294   -8.2243   22.0758 C   0  0  0  0  0  0
  -22.4277   -8.0282   21.3547 C   0  0  0  0  0  0
  -21.9915   -9.0257   20.4650 C   0  0  0  0  0  0
  -22.7245  -10.2134   20.3062 C   0  0  0  0  0  0
  -21.6855   -6.0739   22.5281 C   0  0  0  0  0  0
  -21.4012   -6.5642   23.8214 C   0  0  0  0  0  0
  -21.3659   -5.6794   24.9176 C   0  0  0  0  0  0
  -21.6047   -4.3057   24.7228 C   0  0  0  0  0  0
  -21.8818   -3.8149   23.4347 C   0  0  0  0  0  0
  -21.9189   -4.6966   22.3402 C   0  0  0  0  0  0
  -22.7825  -13.5220   21.1869 C   0  0  0  0  0  0
  -22.1659   -4.2152   21.0980 F   0  0  0  0  0  0
  -21.5629   -3.4539   25.7739 F   0  0  0  0  0  0
  -29.9851  -13.5130   20.3980 N   0  0  0  0  0  0
  -26.2932  -12.9392   20.3275 N   0  0  0  0  0  0
  -25.9318  -11.6536   20.5750 N   0  0  0  0  0  0
  -22.0469  -12.8209   22.0426 N   0  0  0  0  0  0
  -25.4203  -15.1922   20.4138 N   0  0  0  0  0  0
  -31.7949  -14.8494   20.1672 O   0  0  0  0  0  0
  -21.6640   -6.8881   21.4243 O   0  0  0  0  0  0
  -22.3505  -14.5523   20.6716 O   0  0  0  0  0  0
  -24.6315  -31.8549   23.1974 C   0  0  0  0  0  0
  -25.9139  -32.4752   23.8324 C   0  0  1  0  0  0
  -27.2203  -27.2654   20.1355 C   0  0  0  0  0  0
  -25.5936  -33.8556   24.2252 N   0  0  0  0  0  0
  -23.4286  -30.4759   21.5409 C   0  0  2  0  0  0
  -24.8766  -28.9191   20.1124 C   0  0  0  0  0  0
  -22.7507  -29.4595   22.4914 C   0  0  0  0  0  0
  -18.0294  -28.1388   22.8479 C   0  0  0  0  0  0
  -24.1487  -36.7278   23.2642 C   0  0  0  0  0  0
  -25.9738  -30.7696   21.3749 C   0  0  0  0  0  0
  -26.0485  -29.3914   20.7190 C   0  0  0  0  0  0
  -27.2273  -28.5783   20.7150 C   0  0  0  0  0  0
  -26.0291  -26.8563   19.5022 C   0  0  0  0  0  0
  -24.8713  -27.6592   19.4923 C   0  0  0  0  0  0
  -23.6472  -29.8065   20.1583 C   0  0  0  0  0  0
  -25.4116  -36.3069   24.0327 C   0  0  1  0  0  0
  -20.5899  -28.3695   23.1269 C   0  0  2  0  0  0
  -20.6786  -26.9409   22.5413 C   0  0  0  0  0  0
  -19.5759  -26.6375   21.5218 C   0  0  0  0  0  0
  -18.1937  -26.7929   22.1624 C   0  0  0  0  0  0
  -19.1550  -28.8859   23.2867 C   0  0  0  0  0  0
  -18.9468  -30.1460   23.8887 C   0  0  0  0  0  0
  -17.6468  -30.6587   24.0559 C   0  0  0  0  0  0
  -25.9060  -34.9440   23.5093 C   0  0  0  0  0  0
  -16.5358  -29.9084   23.6331 C   0  0  0  0  0  0
  -16.7281  -28.6502   23.0350 C   0  0  0  0  0  0
  -26.4505  -31.6577   25.0716 C   0  0  0  0  0  0
  -25.3725  -31.3723   26.1434 C   0  0  0  0  0  0
  -27.0356  -30.2997   24.6196 C   0  0  0  0  0  0
  -27.6060  -32.4319   25.7489 C   0  0  0  0  0  0
  -27.5574  -37.1796   24.8469 C   0  0  0  0  0  0
  -21.4214  -29.3039   22.3655 N   0  0  0  0  0  0
  -26.4288  -37.3769   23.9411 N   0  0  0  0  0  0
  -24.6972  -31.0513   22.0947 N   0  0  0  0  0  0
  -23.4203  -28.8145   23.3020 O   0  0  0  0  0  0
  -28.3032  -26.3597   20.1585 O   0  0  0  0  0  0
  -26.5629  -34.8918   22.4663 O   0  0  0  0  0  0
  -23.5465  -32.1371   23.7268 O   0  0  0  0  0  0
  -25.8568  -20.6332   22.1576 C   0  0  0  0  0  0
  -26.2620  -22.5730   20.7940 C   0  0  0  0  0  0
  -25.3687  -21.7670   21.5078 C   0  0  0  0  0  0
  -27.1899  -20.2273   21.9778 C   0  0  0  0  0  0
  -27.6434  -22.2791   20.6716 C   0  0  0  0  0  0
  -28.0735  -20.9196   21.0856 C   0  0  0  0  0  0
  -23.9089  -22.1579   21.6326 C   0  0  0  0  0  0
  -27.6167  -19.0364   22.8305 C   0  0  0  0  0  0
  -28.4367  -23.5444   20.1103 C   0  0  0  0  0  0
  -29.3681  -20.0898   20.6750 C   0  0  0  0  0  0
  -29.1970  -18.5107   20.2489 C   0  0  0  0  0  0
  -30.1992  -17.3462   20.7779 C   0  0  0  0  0  0
  -28.0727  -25.0050   20.7724 C   0  0  0  0  0  0
  -29.8137  -15.8663   20.6640 N   0  0  0  0  0  0
  -31.4752  -12.5841   19.1657 H   0  0  0  0  0  0
  -30.3838  -11.4759   19.9517 H   0  0  0  0  0  0
  -29.7916  -11.7265   17.5194 H   0  0  0  0  0  0
  -29.6356  -13.4549   17.7159 H   0  0  0  0  0  0
  -27.8924  -11.2793   18.9126 H   0  0  0  0  0  0
  -27.3775  -12.5179   17.7993 H   0  0  0  0  0  0
  -27.6359  -14.2504   19.4684 H   0  0  0  0  0  0
  -28.7219  -12.1580   21.4174 H   0  0  0  0  0  0
  -28.4225  -13.8352   21.7961 H   0  0  0  0  0  0
  -25.2765   -9.5679   22.4768 H   0  0  0  0  0  0
  -24.0001   -7.4632   22.7476 H   0  0  0  0  0  0
  -21.0849   -8.8779   19.8955 H   0  0  0  0  0  0
  -22.3709  -10.9674   19.6172 H   0  0  0  0  0  0
  -21.2008   -7.6150   23.9719 H   0  0  0  0  0  0
  -21.1481   -6.0525   25.9079 H   0  0  0  0  0  0
  -22.0598   -2.7613   23.2848 H   0  0  0  0  0  0
  -22.4078  -11.9866   22.4812 H   0  0  0  0  0  0
  -21.1091  -13.1242   22.2637 H   0  0  0  0  0  0
  -24.6508  -15.8425   20.5292 H   0  0  0  0  0  0
  -26.2622  -15.6352   20.0703 H   0  0  0  0  0  0
  -26.7204  -32.5404   23.1066 H   0  0  0  0  0  0
  -25.0086  -33.9688   25.0396 H   0  0  0  0  0  0
  -22.7252  -31.2981   21.3929 H   0  0  0  0  0  0
  -23.3752  -35.9607   23.3307 H   0  0  0  0  0  0
  -24.3577  -36.8900   22.2056 H   0  0  0  0  0  0
  -23.7235  -37.6478   23.6667 H   0  0  0  0  0  0
  -26.1103  -31.5287   20.6034 H   0  0  0  0  0  0
  -26.8524  -30.8214   22.0064 H   0  0  0  0  0  0
  -28.1267  -28.9357   21.1964 H   0  0  0  0  0  0
  -25.9872  -25.8858   19.0283 H   0  0  0  0  0  0
  -23.9744  -27.2921   19.0130 H   0  0  0  0  0  0
  -23.7722  -30.5817   19.4014 H   0  0  0  0  0  0
  -22.7657  -29.2396   19.8535 H   0  0  0  0  0  0
  -25.1296  -36.1915   25.0817 H   0  0  0  0  0  0
  -20.9989  -28.3278   24.1391 H   0  0  0  0  0  0
  -20.5691  -26.2303   23.3619 H   0  0  0  0  0  0
  -21.6652  -26.7435   22.1201 H   0  0  0  0  0  0
  -19.6922  -25.6285   21.1251 H   0  0  0  0  0  0
  -19.6702  -27.3181   20.6745 H   0  0  0  0  0  0
  -17.4210  -26.6676   21.4023 H   0  0  0  0  0  0
  -18.0329  -26.0078   22.9025 H   0  0  0  0  0  0
  -19.7944  -30.7278   24.2251 H   0  0  0  0  0  0
  -17.5021  -31.6266   24.5165 H   0  0  0  0  0  0
  -15.5358  -30.2981   23.7661 H   0  0  0  0  0  0
  -15.8681  -28.0818   22.7069 H   0  0  0  0  0  0
  -24.5904  -30.7071   25.7755 H   0  0  0  0  0  0
  -24.8911  -32.2890   26.4852 H   0  0  0  0  0  0
  -25.8039  -30.8902   27.0215 H   0  0  0  0  0  0
  -26.2938  -29.6740   24.1221 H   0  0  0  0  0  0
  -27.4043  -29.7266   25.4713 H   0  0  0  0  0  0
  -27.8810  -30.4278   23.9434 H   0  0  0  0  0  0
  -27.2672  -33.3627   26.2050 H   0  0  0  0  0  0
  -28.3877  -32.6867   25.0320 H   0  0  0  0  0  0
  -28.0720  -31.8454   26.5416 H   0  0  0  0  0  0
  -28.2597  -38.0087   24.7514 H   0  0  0  0  0  0
  -28.1064  -36.2621   24.6296 H   0  0  0  0  0  0
  -27.2295  -37.1446   25.8872 H   0  0  0  0  0  0
  -20.9408  -29.8751   21.6846 H   0  0  0  0  0  0
  -26.0166  -38.2841   24.1414 H   0  0  0  0  0  0
  -25.1965  -20.0533   22.7894 H   0  0  0  0  0  0
  -25.8587  -23.4730   20.3530 H   0  0  0  0  0  0
  -23.4792  -21.7822   22.5621 H   0  0  0  0  0  0
  -23.3359  -21.7462   20.8011 H   0  0  0  0  0  0
  -23.7902  -23.2419   21.6253 H   0  0  0  0  0  0
  -27.2141  -19.1438   23.8385 H   0  0  0  0  0  0
  -28.6961  -18.9544   22.9455 H   0  0  0  0  0  0
  -27.2248  -18.1009   22.4314 H   0  0  0  0  0  0
  -28.2253  -23.5936   19.0420 H   0  0  0  0  0  0
  -29.5080  -23.3605   20.1931 H   0  0  0  0  0  0
  -30.0674  -20.1547   21.5089 H   0  0  0  0  0  0
  -29.8612  -20.6199   19.8596 H   0  0  0  0  0  0
  -29.2132  -18.4804   19.1590 H   0  0  0  0  0  0
  -28.1827  -18.1879   20.4645 H   0  0  0  0  0  0
  -30.3795  -17.5217   21.8389 H   0  0  0  0  0  0
  -31.1694  -17.4881   20.2995 H   0  0  0  0  0  0
  -28.6124  -25.0358   21.7193 H   0  0  0  0  0  0
  -27.0392  -25.0054   21.1074 H   0  0  0  0  0  0
  -28.8395  -15.6607   20.8270 H   0  0  0  0  0  0
  1 25  1  0  0  0
  1 30  2  0  0  0
  1 84  1  0  0  0
  2  3  1  0  0  0
  2 25  1  0  0  0
  2 85  1  0  0  0
  2 86  1  0  0  0
  3  4  1  0  0  0
  3 87  1  0  0  0
  3 88  1  0  0  0
  4  5  1  0  0  0
  4 89  1  0  0  0
  4 90  1  0  0  0
  5  6  1  0  0  0
  5 26  1  0  0  0
  5 91  1  0  0  0
  6 25  1  0  0  0
  6 92  1  0  0  0
  6 93  1  0  0  0
  7  8  2  0  0  0
  7 26  1  0  0  0
  7 29  1  0  0  0
  8  9  1  0  0  0
  8 22  1  0  0  0
  9 10  1  0  0  0
  9 27  2  0  0  0
 10 11  2  0  0  0
 10 15  1  0  0  0
 11 12  1  0  0  0
 11 94  1  0  0  0
 12 13  2  0  0  0
 12 95  1  0  0  0
 13 14  1  0  0  0
 13 31  1  0  0  0
 14 15  2  0  0  0
 14 96  1  0  0  0
 15 97  1  0  0  0
 16 17  2  0  0  0
 16 21  1  0  0  0
 16 31  1  0  0  0
 17 18  1  0  0  0
 17 98  1  0  0  0
 18 19  2  0  0  0
 18 99  1  0  0  0
 19 20  1  0  0  0
 19 24  1  0  0  0
 20 21  2  0  0  0
 20100  1  0  0  0
 21 23  1  0  0  0
 22 28  1  0  0  0
 22 32  2  0  0  0
 26 27  1  0  0  0
 28101  1  0  0  0
 28102  1  0  0  0
 29103  1  0  0  0
 29104  1  0  0  0
 33 34  1  0  0  0
 33 66  1  0  0  0
 33 70  2  0  0  0
 34 36  1  0  0  0
 34 59  1  0  0  0
 34105  1  0  0  0
 35 44  2  0  0  0
 35 45  1  0  0  0
 35 68  1  0  0  0
 36 56  1  0  0  0
 36106  1  0  0  0
 37 39  1  0  0  0
 37 47  1  0  0  0
 37 66  1  0  0  0
 37107  1  0  0  0
 38 43  2  0  0  0
 38 46  1  0  0  0
 38 47  1  0  0  0
 39 64  1  0  0  0
 39 67  2  0  0  0
 40 52  1  0  0  0
 40 53  2  0  0  0
 40 58  1  0  0  0
 41108  1  0  0  0
 41109  1  0  0  0
 41110  1  0  0  0
 41 48  1  0  0  0
 42 43  1  0  0  0
 42 66  1  0  0  0
 42111  1  0  0  0
 42112  1  0  0  0
 43 44  1  0  0  0
 44113  1  0  0  0
 45 46  2  0  0  0
 45114  1  0  0  0
 46115  1  0  0  0
 47116  1  0  0  0
 47117  1  0  0  0
 48 56  1  0  0  0
 48 65  1  0  0  0
 48118  1  0  0  0
 49 50  1  0  0  0
 49 53  1  0  0  0
 49 64  1  0  0  0
 49119  1  0  0  0
 50 51  1  0  0  0
 50120  1  0  0  0
 50121  1  0  0  0
 51 52  1  0  0  0
 51122  1  0  0  0
 51123  1  0  0  0
 52124  1  0  0  0
 52125  1  0  0  0
 53 54  1  0  0  0
 54 55  2  0  0  0
 54126  1  0  0  0
 55 57  1  0  0  0
 55127  1  0  0  0
 56 69  2  0  0  0
 57 58  2  0  0  0
 57128  1  0  0  0
 58129  1  0  0  0
 59 60  1  0  0  0
 59 61  1  0  0  0
 59 62  1  0  0  0
 60130  1  0  0  0
 60131  1  0  0  0
 60132  1  0  0  0
 61133  1  0  0  0
 61134  1  0  0  0
 61135  1  0  0  0
 62136  1  0  0  0
 62137  1  0  0  0
 62138  1  0  0  0
 63 65  1  0  0  0
 63139  1  0  0  0
 63140  1  0  0  0
 63141  1  0  0  0
 64142  1  0  0  0
 65143  1  0  0  0
 68 83  1  0  0  0
 71 73  2  0  0  0
 71 74  1  0  0  0
 71144  1  0  0  0
 72 73  1  0  0  0
 72 75  2  0  0  0
 72145  1  0  0  0
 73 77  1  0  0  0
 74 76  2  0  0  0
 74 78  1  0  0  0
 75 76  1  0  0  0
 75 79  1  0  0  0
 76 80  1  0  0  0
 77146  1  0  0  0
 77147  1  0  0  0
 77148  1  0  0  0
 78149  1  0  0  0
 78150  1  0  0  0
 78151  1  0  0  0
 79 83  1  0  0  0
 79152  1  0  0  0
 79153  1  0  0  0
 80 81  1  0  0  0
 80154  1  0  0  0
 80155  1  0  0  0
 81 82  1  0  0  0
 81156  1  0  0  0
 81157  1  0  0  0
 82 84  1  0  0  0
 82158  1  0  0  0
 82159  1  0  0  0
 83160  1  0  0  0
 83161  1  0  0  0
 84162  1  0  0  0
M  ISO  4   1 100  68 101  83 101  84 100
M  END
> <chiral flag>
0

> <version>
0

> <s_m_source_file>
/data/baiqing/PycharmProjects/Reinvent-master-3.2/result/LINK_invent/BTK/process_docking_weight1_custom_sum_contain_oxygen_bond_distance_aromatic_linkinvent_7_9_3/rearranged_h_0035.sdf

> <i_m_source_file_index>
29

> <r_mmod_Potential_Energy-OPLS-2005>
257.560729980469

> <r_mmod_Stretch_Energy-OPLS-2005>
145.777557373047

> <r_mmod_Bend_Energy-OPLS-2005>
194.875259399414

> <r_mmod_Torsional_Energy-OPLS-2005>
272.03466796875

> <r_mmod_Improper_Torsional_Energy-OPLS-2005>
4.46284627914429

> <r_mmod_Van_der_Waal_Energy-OPLS-2005>
145.146041870117

> <r_mmod_Electrostatic_Energy-OPLS-2005>
-382.742645263672

> <r_mmod_Solvation_Energy-OPLS-2005>
-207.024703979492

> <b_mmod_Minimization_Converged-OPLS-2005>
0

> <r_mmod_RMS_Derivative-OPLS-2005>
0.553817451000214

$$$$
29
                    3D
 Structure written by MMmdl.
175185  0  0  1  0            999 V2000
  -30.6308  -14.8291   20.4156 C   0  0  0  0  0  0
  -30.4117  -12.5044   19.4888 C   0  0  0  0  0  0
  -29.5085  -12.4986   18.2391 C   0  0  0  0  0  0
  -28.0362  -12.3182   18.6516 C   0  0  0  0  0  0
  -27.6246  -13.2502   19.8253 C   0  0  2  0  0  0
  -28.6675  -13.2753   20.9626 C   0  0  0  0  0  0
  -25.2450  -13.8240   20.5719 C   0  0  0  0  0  0
  -24.1762  -13.0477   20.9221 C   0  0  0  0  0  0
  -24.6380  -11.6951   20.8753 C   0  0  0  0  0  0
  -23.9083  -10.4324   21.0436 C   0  0  0  0  0  0
  -24.3642   -9.4230   21.9204 C   0  0  0  0  0  0
  -23.6315   -8.2266   22.0764 C   0  0  0  0  0  0
  -22.4300   -8.0308   21.3552 C   0  0  0  0  0  0
  -21.9933   -9.0288   20.4664 C   0  0  0  0  0  0
  -22.7258  -10.2164   20.3079 C   0  0  0  0  0  0
  -21.6854   -6.0764   22.5290 C   0  0  0  0  0  0
  -21.4023   -6.5664   23.8222 C   0  0  0  0  0  0
  -21.3650   -5.6805   24.9174 C   0  0  0  0  0  0
  -21.6034   -4.3068   24.7218 C   0  0  0  0  0  0
  -21.8814   -3.8171   23.4335 C   0  0  0  0  0  0
  -21.9192   -4.6995   22.3400 C   0  0  0  0  0  0
  -22.7782  -13.5247   21.1894 C   0  0  0  0  0  0
  -22.1661   -4.2194   21.0972 F   0  0  0  0  0  0
  -21.5620   -3.4538   25.7721 F   0  0  0  0  0  0
  -29.9523  -13.6237   20.3511 N   0  0  0  0  0  0
  -26.2863  -12.9478   20.3201 N   0  0  0  0  0  0
  -25.9305  -11.6602   20.5717 N   0  0  0  0  0  0
  -22.0423  -12.8252   22.0441 N   0  0  0  0  0  0
  -25.4179  -15.1972   20.4203 N   0  0  0  0  0  0
  -31.8491  -14.7933   20.2080 O   0  0  0  0  0  0
  -21.6644   -6.8917   21.4259 O   0  0  0  0  0  0
  -22.3466  -14.5550   20.6729 O   0  0  0  0  0  0
  -24.6379  -31.8520   23.1942 C   0  0  0  0  0  0
  -25.9202  -32.4718   23.8282 C   0  0  1  0  0  0
  -27.2063  -27.2006   20.1536 C   0  0  0  0  0  0
  -25.6001  -33.8522   24.2224 N   0  0  0  0  0  0
  -23.4325  -30.4746   21.5404 C   0  0  2  0  0  0
  -24.8772  -28.9049   20.1128 C   0  0  0  0  0  0
  -22.7526  -29.4613   22.4914 C   0  0  0  0  0  0
  -18.0311  -28.1370   22.8520 C   0  0  0  0  0  0
  -24.1493  -36.7252   23.2639 C   0  0  0  0  0  0
  -25.9824  -30.7452   21.3813 C   0  0  0  0  0  0
  -26.0519  -29.3616   20.7245 C   0  0  0  0  0  0
  -27.2213  -28.5253   20.7256 C   0  0  0  0  0  0
  -26.0122  -26.8214   19.5089 C   0  0  0  0  0  0
  -24.8676  -27.6455   19.4900 C   0  0  0  0  0  0
  -23.6524  -29.8034   20.1587 C   0  0  0  0  0  0
  -25.4119  -36.3029   24.0318 C   0  0  1  0  0  0
  -20.5920  -28.3702   23.1270 C   0  0  2  0  0  0
  -20.6800  -26.9422   22.5412 C   0  0  0  0  0  0
  -19.5749  -26.6382   21.5238 C   0  0  0  0  0  0
  -18.1932  -26.7924   22.1648 C   0  0  0  0  0  0
  -19.1566  -28.8850   23.2886 C   0  0  0  0  0  0
  -18.9476  -30.1459   23.8886 C   0  0  0  0  0  0
  -17.6465  -30.6573   24.0566 C   0  0  0  0  0  0
  -25.9081  -34.9415   23.5067 C   0  0  0  0  0  0
  -16.5363  -29.9056   23.6336 C   0  0  0  0  0  0
  -16.7297  -28.6473   23.0376 C   0  0  0  0  0  0
  -26.4559  -31.6550   25.0687 C   0  0  0  0  0  0
  -25.3787  -31.3731   26.1412 C   0  0  0  0  0  0
  -27.0418  -30.2948   24.6219 C   0  0  0  0  0  0
  -27.6075  -32.4328   25.7488 C   0  0  0  0  0  0
  -27.5570  -37.1780   24.8470 C   0  0  0  0  0  0
  -21.4235  -29.3043   22.3632 N   0  0  0  0  0  0
  -26.4276  -37.3735   23.9422 N   0  0  0  0  0  0
  -24.7029  -31.0439   22.0937 N   0  0  0  0  0  0
  -23.4208  -28.8187   23.3057 O   0  0  0  0  0  0
  -28.2869  -26.2759   20.1564 O   0  0  0  0  0  0
  -26.5613  -34.8906   22.4615 O   0  0  0  0  0  0
  -23.5531  -32.1376   23.7219 O   0  0  0  0  0  0
  -29.6020  -22.2590   21.7834 C   0  0  0  0  0  0
  -31.0138  -22.1892   21.7058 C   0  0  0  0  0  0
  -28.9290  -22.0342   20.5680 C   0  0  0  0  0  0
  -31.5880  -21.8099   20.4645 C   0  0  0  0  0  0
  -29.5819  -20.9375   19.8303 C   0  0  0  0  0  0
  -31.8872  -22.6171   22.8749 C   0  0  0  0  0  0
  -33.0859  -21.9108   20.2191 C   0  0  0  0  0  0
  -33.9681  -21.0815   21.1826 C   0  0  0  0  0  0
  -33.2731  -20.4646   22.4118 C   0  0  0  0  0  0
  -28.8517  -18.4218   21.0665 C   0  0  0  0  0  0
  -29.8841  -18.4031   18.9145 C   0  0  0  0  0  0
  -29.4511  -16.9393   21.3587 C   0  0  0  0  0  0
  -30.5332  -16.9828   19.1811 C   0  0  0  0  0  0
  -29.7446  -19.3313   20.1568 C   0  0  0  0  0  0
  -32.7388  -21.4644   23.4588 C   0  0  2  0  0  0
  -31.9525  -20.6774   24.5207 C   0  0  0  0  0  0
  -28.5734  -23.4600   19.8541 C   0  0  0  0  0  0
  -28.1130  -24.8382   20.6521 C   0  0  0  0  0  0
  -30.8346  -21.2875   19.4634 N   0  0  0  0  0  0
  -29.9620  -16.0689   20.2317 N   0  0  0  0  0  0
  -31.4573  -12.5981   19.1918 H   0  0  0  0  0  0
  -30.3386  -11.5576   20.0257 H   0  0  0  0  0  0
  -29.8118  -11.7057   17.5548 H   0  0  0  0  0  0
  -29.6287  -13.4353   17.6953 H   0  0  0  0  0  0
  -27.9062  -11.2750   18.9417 H   0  0  0  0  0  0
  -27.3808  -12.4804   17.7948 H   0  0  0  0  0  0
  -27.5924  -14.2551   19.3997 H   0  0  0  0  0  0
  -28.7222  -12.3137   21.4758 H   0  0  0  0  0  0
  -28.3899  -14.0177   21.7116 H   0  0  0  0  0  0
  -25.2795   -9.5704   22.4759 H   0  0  0  0  0  0
  -24.0038   -7.4655   22.7470 H   0  0  0  0  0  0
  -21.0858   -8.8801   19.8967 H   0  0  0  0  0  0
  -22.3723  -10.9705   19.6177 H   0  0  0  0  0  0
  -21.2022   -7.6171   23.9745 H   0  0  0  0  0  0
  -21.1471   -6.0525   25.9079 H   0  0  0  0  0  0
  -22.0597   -2.7643   23.2807 H   0  0  0  0  0  0
  -22.4055  -11.9926   22.4849 H   0  0  0  0  0  0
  -21.1040  -13.1286   22.2659 H   0  0  0  0  0  0
  -24.6614  -15.8558   20.5614 H   0  0  0  0  0  0
  -26.2787  -15.6404   20.1260 H   0  0  0  0  0  0
  -26.7268  -32.5343   23.1011 H   0  0  0  0  0  0
  -25.0217  -33.9628   25.0419 H   0  0  0  0  0  0
  -22.7305  -31.2984   21.3942 H   0  0  0  0  0  0
  -23.3746  -35.9596   23.3295 H   0  0  0  0  0  0
  -24.3588  -36.8877   22.2057 H   0  0  0  0  0  0
  -23.7258  -37.6458   23.6666 H   0  0  0  0  0  0
  -26.1307  -31.5001   20.6078 H   0  0  0  0  0  0
  -26.8548  -30.7915   22.0211 H   0  0  0  0  0  0
  -28.1207  -28.8743   21.2117 H   0  0  0  0  0  0
  -25.9576  -25.8572   19.0248 H   0  0  0  0  0  0
  -23.9712  -27.2896   19.0020 H   0  0  0  0  0  0
  -23.7831  -30.5780   19.4034 H   0  0  0  0  0  0
  -22.7637  -29.2479   19.8553 H   0  0  0  0  0  0
  -25.1306  -36.1849   25.0806 H   0  0  0  0  0  0
  -21.0043  -28.3296   24.1380 H   0  0  0  0  0  0
  -20.5738  -26.2320   23.3623 H   0  0  0  0  0  0
  -21.6653  -26.7456   22.1172 H   0  0  0  0  0  0
  -19.6901  -25.6300   21.1232 H   0  0  0  0  0  0
  -19.6647  -27.3220   20.6787 H   0  0  0  0  0  0
  -17.4224  -26.6743   21.4023 H   0  0  0  0  0  0
  -18.0280  -26.0035   22.8999 H   0  0  0  0  0  0
  -19.7949  -30.7299   24.2233 H   0  0  0  0  0  0
  -17.5009  -31.6254   24.5168 H   0  0  0  0  0  0
  -15.5355  -30.2938   23.7649 H   0  0  0  0  0  0
  -15.8718  -28.0761   22.7097 H   0  0  0  0  0  0
  -24.5948  -30.7084   25.7761 H   0  0  0  0  0  0
  -24.9006  -32.2921   26.4817 H   0  0  0  0  0  0
  -25.8114  -30.8930   27.0196 H   0  0  0  0  0  0
  -26.3019  -29.6665   24.1238 H   0  0  0  0  0  0
  -27.4077  -29.7236   25.4761 H   0  0  0  0  0  0
  -27.8908  -30.4186   23.9488 H   0  0  0  0  0  0
  -27.2633  -33.3631   26.2021 H   0  0  0  0  0  0
  -28.3916  -32.6892   25.0352 H   0  0  0  0  0  0
  -28.0712  -31.8495   26.5453 H   0  0  0  0  0  0
  -28.2578  -38.0078   24.7499 H   0  0  0  0  0  0
  -28.1062  -36.2605   24.6306 H   0  0  0  0  0  0
  -27.2289  -37.1457   25.8869 H   0  0  0  0  0  0
  -20.9429  -29.8705   21.6776 H   0  0  0  0  0  0
  -26.0139  -38.2803   24.1402 H   0  0  0  0  0  0
  -29.1510  -22.8175   22.5908 H   0  0  0  0  0  0
  -31.2837  -23.0822   23.6556 H   0  0  0  0  0  0
  -32.5509  -23.4071   22.5196 H   0  0  0  0  0  0
  -33.3657  -22.9620   20.2772 H   0  0  0  0  0  0
  -33.3087  -21.6134   19.1924 H   0  0  0  0  0  0
  -34.8180  -21.6839   21.5000 H   0  0  0  0  0  0
  -34.3958  -20.2562   20.6123 H   0  0  0  0  0  0
  -33.9878  -19.8058   22.9075 H   0  0  0  0  0  0
  -32.4679  -19.8079   22.0836 H   0  0  0  0  0  0
  -28.7018  -18.9245   22.0216 H   0  0  0  0  0  0
  -27.8570  -18.3346   20.6267 H   0  0  0  0  0  0
  -28.9086  -18.2814   18.4379 H   0  0  0  0  0  0
  -30.5049  -18.9087   18.1724 H   0  0  0  0  0  0
  -28.7107  -16.3661   21.9161 H   0  0  0  0  0  0
  -30.2902  -17.0634   22.0459 H   0  0  0  0  0  0
  -30.5522  -16.4422   18.2315 H   0  0  0  0  0  0
  -31.5818  -17.1634   19.4294 H   0  0  0  0  0  0
  -30.7078  -19.2671   20.6638 H   0  0  0  0  0  0
  -33.5918  -21.9172   23.9698 H   0  0  0  0  0  0
  -31.0830  -20.1890   24.0785 H   0  0  0  0  0  0
  -31.6020  -21.3131   25.3336 H   0  0  0  0  0  0
  -32.5736  -19.8936   24.9563 H   0  0  0  0  0  0
  -27.8246  -23.2555   19.0893 H   0  0  0  0  0  0
  -29.4718  -23.7253   19.2936 H   0  0  0  0  0  0
  -28.6851  -24.8539   21.5781 H   0  0  0  0  0  0
  -27.0844  -24.7006   20.9854 H   0  0  0  0  0  0
  1 25  1  0  0  0
  1 30  2  0  0  0
  1 90  1  0  0  0
  2  3  1  0  0  0
  2 25  1  0  0  0
  2 91  1  0  0  0
  2 92  1  0  0  0
  3  4  1  0  0  0
  3 93  1  0  0  0
  3 94  1  0  0  0
  4  5  1  0  0  0
  4 95  1  0  0  0
  4 96  1  0  0  0
  5  6  1  0  0  0
  5 26  1  0  0  0
  5 97  1  0  0  0
  6 25  1  0  0  0
  6 98  1  0  0  0
  6 99  1  0  0  0
  7  8  2  0  0  0
  7 26  1  0  0  0
  7 29  1  0  0  0
  8  9  1  0  0  0
  8 22  1  0  0  0
  9 10  1  0  0  0
  9 27  2  0  0  0
 10 11  2  0  0  0
 10 15  1  0  0  0
 11 12  1  0  0  0
 11100  1  0  0  0
 12 13  2  0  0  0
 12101  1  0  0  0
 13 14  1  0  0  0
 13 31  1  0  0  0
 14 15  2  0  0  0
 14102  1  0  0  0
 15103  1  0  0  0
 16 17  2  0  0  0
 16 21  1  0  0  0
 16 31  1  0  0  0
 17 18  1  0  0  0
 17104  1  0  0  0
 18 19  2  0  0  0
 18105  1  0  0  0
 19 20  1  0  0  0
 19 24  1  0  0  0
 20 21  2  0  0  0
 20106  1  0  0  0
 21 23  1  0  0  0
 22 28  1  0  0  0
 22 32  2  0  0  0
 26 27  1  0  0  0
 28107  1  0  0  0
 28108  1  0  0  0
 29109  1  0  0  0
 29110  1  0  0  0
 33 34  1  0  0  0
 33 66  1  0  0  0
 33 70  2  0  0  0
 34 36  1  0  0  0
 34 59  1  0  0  0
 34111  1  0  0  0
 35 44  2  0  0  0
 35 45  1  0  0  0
 35 68  1  0  0  0
 36 56  1  0  0  0
 36112  1  0  0  0
 37 39  1  0  0  0
 37 47  1  0  0  0
 37 66  1  0  0  0
 37113  1  0  0  0
 38 43  2  0  0  0
 38 46  1  0  0  0
 38 47  1  0  0  0
 39 64  1  0  0  0
 39 67  2  0  0  0
 40 52  1  0  0  0
 40 53  2  0  0  0
 40 58  1  0  0  0
 41114  1  0  0  0
 41115  1  0  0  0
 41116  1  0  0  0
 41 48  1  0  0  0
 42 43  1  0  0  0
 42 66  1  0  0  0
 42117  1  0  0  0
 42118  1  0  0  0
 43 44  1  0  0  0
 44119  1  0  0  0
 45 46  2  0  0  0
 45120  1  0  0  0
 46121  1  0  0  0
 47122  1  0  0  0
 47123  1  0  0  0
 48 56  1  0  0  0
 48 65  1  0  0  0
 48124  1  0  0  0
 49 50  1  0  0  0
 49 53  1  0  0  0
 49 64  1  0  0  0
 49125  1  0  0  0
 50 51  1  0  0  0
 50126  1  0  0  0
 50127  1  0  0  0
 51 52  1  0  0  0
 51128  1  0  0  0
 51129  1  0  0  0
 52130  1  0  0  0
 52131  1  0  0  0
 53 54  1  0  0  0
 54 55  2  0  0  0
 54132  1  0  0  0
 55 57  1  0  0  0
 55133  1  0  0  0
 56 69  2  0  0  0
 57 58  2  0  0  0
 57134  1  0  0  0
 58135  1  0  0  0
 59 60  1  0  0  0
 59 61  1  0  0  0
 59 62  1  0  0  0
 60136  1  0  0  0
 60137  1  0  0  0
 60138  1  0  0  0
 61139  1  0  0  0
 61140  1  0  0  0
 61141  1  0  0  0
 62142  1  0  0  0
 62143  1  0  0  0
 62144  1  0  0  0
 63 65  1  0  0  0
 63145  1  0  0  0
 63146  1  0  0  0
 63147  1  0  0  0
 64148  1  0  0  0
 65149  1  0  0  0
 68 88  1  0  0  0
 71 72  2  0  0  0
 71 73  1  0  0  0
 71150  1  0  0  0
 72 74  1  0  0  0
 72 76  1  0  0  0
 73 75  2  0  0  0
 73 87  1  0  0  0
 74 77  1  0  0  0
 74 89  2  0  0  0
 75 89  1  0  0  0
 75 84  1  0  0  0
 76 85  1  0  0  0
 76151  1  0  0  0
 76152  1  0  0  0
 77 78  1  0  0  0
 77153  1  0  0  0
 77154  1  0  0  0
 78 79  1  0  0  0
 78155  1  0  0  0
 78156  1  0  0  0
 79 85  1  0  0  0
 79157  1  0  0  0
 79158  1  0  0  0
 80 82  1  0  0  0
 80 84  1  0  0  0
 80159  1  0  0  0
 80160  1  0  0  0
 81 83  1  0  0  0
 81 84  1  0  0  0
 81161  1  0  0  0
 81162  1  0  0  0
 82 90  1  0  0  0
 82163  1  0  0  0
 82164  1  0  0  0
 83 90  1  0  0  0
 83165  1  0  0  0
 83166  1  0  0  0
 84167  1  0  0  0
 85 86  1  0  0  0
 85168  1  0  0  0
 86169  1  0  0  0
 86170  1  0  0  0
 86171  1  0  0  0
 87 88  1  0  0  0
 87172  1  0  0  0
 87173  1  0  0  0
 88174  1  0  0  0
 88175  1  0  0  0
M  ISO  4   1 100  68 101  88 101  90 100
M  END
> <chiral flag>
0

> <version>
0

> <s_m_source_file>
/data/baiqing/PycharmProjects/Reinvent-master-3.2/result/LINK_invent/BTK/process_docking_weight1_custom_sum_contain_oxygen_bond_distance_aromatic_linkinvent_7_9_3/rearranged_h_0035.sdf

> <i_m_source_file_index>
30

> <r_mmod_Potential_Energy-OPLS-2005>
735.895935058594

> <r_mmod_Stretch_Energy-OPLS-2005>
187.766006469727

> <r_mmod_Bend_Energy-OPLS-2005>
313.067657470703

> <r_mmod_Torsional_Energy-OPLS-2005>
555.130676269531

> <r_mmod_Improper_Torsional_Energy-OPLS-2005>
57.230598449707

> <r_mmod_Van_der_Waal_Energy-OPLS-2005>
159.905776977539

> <r_mmod_Electrostatic_Energy-OPLS-2005>
-464.894775390625

> <r_mmod_Solvation_Energy-OPLS-2005>
-202.009063720703

> <b_mmod_Minimization_Converged-OPLS-2005>
0

> <r_mmod_RMS_Derivative-OPLS-2005>
3.32254099845886

$$$$
30
                    3D
 Structure written by MMmdl.
156164  0  0  1  0            999 V2000
  -30.7169  -14.4585   20.5298 C   0  0  0  0  0  0
  -30.4175  -12.2847   19.4309 C   0  0  0  0  0  0
  -29.4954  -12.4795   18.2094 C   0  0  0  0  0  0
  -28.0154  -12.3557   18.6195 C   0  0  0  0  0  0
  -27.6614  -13.2051   19.8696 C   0  0  2  0  0  0
  -28.7041  -13.0106   20.9962 C   0  0  0  0  0  0
  -25.2603  -13.8158   20.5662 C   0  0  0  0  0  0
  -24.1841  -13.0453   20.9162 C   0  0  0  0  0  0
  -24.6381  -11.6908   20.8734 C   0  0  0  0  0  0
  -23.9040  -10.4305   21.0414 C   0  0  0  0  0  0
  -24.3593   -9.4221   21.9187 C   0  0  0  0  0  0
  -23.6279   -8.2253   22.0749 C   0  0  0  0  0  0
  -22.4270   -8.0287   21.3535 C   0  0  0  0  0  0
  -21.9902   -9.0259   20.4642 C   0  0  0  0  0  0
  -22.7218  -10.2142   20.3062 C   0  0  0  0  0  0
  -21.6856   -6.0739   22.5272 C   0  0  0  0  0  0
  -21.4015   -6.5632   23.8207 C   0  0  0  0  0  0
  -21.3663   -5.6779   24.9160 C   0  0  0  0  0  0
  -21.6053   -4.3049   24.7212 C   0  0  0  0  0  0
  -21.8819   -3.8145   23.4333 C   0  0  0  0  0  0
  -21.9193   -4.6966   22.3392 C   0  0  0  0  0  0
  -22.7869  -13.5267   21.1821 C   0  0  0  0  0  0
  -22.1663   -4.2155   21.0972 F   0  0  0  0  0  0
  -21.5632   -3.4530   25.7726 F   0  0  0  0  0  0
  -30.0352  -13.2876   20.4361 N   0  0  0  0  0  0
  -26.3025  -12.9310   20.3337 N   0  0  0  0  0  0
  -25.9306  -11.6478   20.5757 N   0  0  0  0  0  0
  -22.0490  -12.8285   22.0378 N   0  0  0  0  0  0
  -25.4365  -15.1873   20.4060 N   0  0  0  0  0  0
  -31.8645  -14.6053   20.1027 O   0  0  0  0  0  0
  -21.6634   -6.8889   21.4238 O   0  0  0  0  0  0
  -22.3565  -14.5573   20.6676 O   0  0  0  0  0  0
  -24.6146  -31.8699   23.2136 C   0  0  0  0  0  0
  -25.9044  -32.4836   23.8421 C   0  0  1  0  0  0
  -27.2249  -27.4429   20.0800 C   0  0  0  0  0  0
  -25.5913  -33.8631   24.2345 N   0  0  0  0  0  0
  -23.4009  -30.4977   21.5556 C   0  0  2  0  0  0
  -24.8444  -28.9735   20.1105 C   0  0  0  0  0  0
  -22.7403  -29.4672   22.5004 C   0  0  0  0  0  0
  -18.0262  -28.1374   22.8495 C   0  0  0  0  0  0
  -24.1484  -36.7317   23.2636 C   0  0  0  0  0  0
  -25.9320  -30.8389   21.3667 C   0  0  0  0  0  0
  -26.0079  -29.4788   20.7043 C   0  0  0  0  0  0
  -27.2031  -28.7220   20.6842 C   0  0  0  0  0  0
  -26.0427  -26.9663   19.4638 C   0  0  0  0  0  0
  -24.8565  -27.7171   19.4867 C   0  0  0  0  0  0
  -23.6066  -29.8385   20.1668 C   0  0  0  0  0  0
  -25.4107  -36.3118   24.0338 C   0  0  1  0  0  0
  -20.5852  -28.3659   23.1321 C   0  0  2  0  0  0
  -20.6752  -26.9397   22.5418 C   0  0  0  0  0  0
  -19.5731  -26.6389   21.5210 C   0  0  0  0  0  0
  -18.1910  -26.7925   22.1621 C   0  0  0  0  0  0
  -19.1511  -28.8833   23.2906 C   0  0  0  0  0  0
  -18.9441  -30.1441   23.8914 C   0  0  0  0  0  0
  -17.6445  -30.6583   24.0564 C   0  0  0  0  0  0
  -25.9036  -34.9484   23.5136 C   0  0  0  0  0  0
  -16.5336  -29.9085   23.6328 C   0  0  0  0  0  0
  -16.7254  -28.6501   23.0354 C   0  0  0  0  0  0
  -26.4475  -31.6610   25.0742 C   0  0  0  0  0  0
  -25.3752  -31.3711   26.1500 C   0  0  0  0  0  0
  -27.0295  -30.3053   24.6106 C   0  0  0  0  0  0
  -27.6052  -32.4331   25.7505 C   0  0  0  0  0  0
  -27.5579  -37.1817   24.8467 C   0  0  0  0  0  0
  -21.4132  -29.3030   22.3735 N   0  0  0  0  0  0
  -26.4292  -37.3804   23.9407 N   0  0  0  0  0  0
  -24.6677  -31.0812   22.1037 N   0  0  0  0  0  0
  -23.4190  -28.8198   23.3021 O   0  0  0  0  0  0
  -28.3777  -26.6804   20.1150 O   0  0  0  0  0  0
  -26.5585  -34.8929   22.4689 O   0  0  0  0  0  0
  -23.5344  -32.1440   23.7545 O   0  0  0  0  0  0
  -29.5126  -21.9222   20.7053 C   0  0  0  0  0  0
  -28.0572  -20.4615   22.0108 C   0  0  0  0  0  0
  -27.8288  -22.8826   22.1844 C   0  0  0  0  0  0
  -29.1221  -20.6145   21.0923 C   0  0  0  0  0  0
  -28.8695  -23.0623   21.2459 C   0  0  0  0  0  0
  -27.4187  -21.5899   22.5563 C   0  0  0  0  0  0
  -29.8753  -19.4068   20.5253 C   0  0  0  0  0  0
  -29.2888  -24.4845   20.8596 C   0  0  0  0  0  0
  -29.4536  -18.0066   21.0500 C   0  0  0  0  0  0
  -30.4316  -16.9036   20.5962 C   0  0  0  0  0  0
  -28.1727  -25.2563   20.1294 C   0  0  0  0  0  0
  -29.9978  -15.5316   20.9020 N   0  0  0  0  0  0
  -26.1364  -21.3881   23.6935 Cl  0  0  0  0  0  0
  -31.4643  -12.3649   19.1333 H   0  0  0  0  0  0
  -30.3017  -11.2819   19.8444 H   0  0  0  0  0  0
  -29.7299  -11.7410   17.4412 H   0  0  0  0  0  0
  -29.6721  -13.4579   17.7592 H   0  0  0  0  0  0
  -27.8198  -11.3022   18.8224 H   0  0  0  0  0  0
  -27.3687  -12.6260   17.7848 H   0  0  0  0  0  0
  -27.7017  -14.2489   19.5567 H   0  0  0  0  0  0
  -28.6724  -11.9873   21.3731 H   0  0  0  0  0  0
  -28.4800  -13.6485   21.8520 H   0  0  0  0  0  0
  -25.2741   -9.5700   22.4748 H   0  0  0  0  0  0
  -24.0001   -7.4646   22.7468 H   0  0  0  0  0  0
  -21.0838   -8.8778   19.8937 H   0  0  0  0  0  0
  -22.3693  -10.9675   19.6168 H   0  0  0  0  0  0
  -21.2010   -7.6141   23.9718 H   0  0  0  0  0  0
  -21.1481   -6.0502   25.9063 H   0  0  0  0  0  0
  -22.0600   -2.7612   23.2819 H   0  0  0  0  0  0
  -22.4081  -11.9941   22.4783 H   0  0  0  0  0  0
  -21.1106  -13.1323   22.2554 H   0  0  0  0  0  0
  -24.6761  -15.8475   20.5188 H   0  0  0  0  0  0
  -26.2902  -15.6184   20.0747 H   0  0  0  0  0  0
  -26.7117  -32.5546   23.1189 H   0  0  0  0  0  0
  -25.0105  -33.9811   25.0518 H   0  0  0  0  0  0
  -22.6884  -31.3142   21.4229 H   0  0  0  0  0  0
  -23.3748  -35.9650   23.3315 H   0  0  0  0  0  0
  -24.3580  -36.8911   22.2047 H   0  0  0  0  0  0
  -23.7236  -37.6528   23.6637 H   0  0  0  0  0  0
  -26.0466  -31.6113   20.6046 H   0  0  0  0  0  0
  -26.8194  -30.8849   21.9863 H   0  0  0  0  0  0
  -28.1003  -29.1080   21.1476 H   0  0  0  0  0  0
  -26.0154  -26.0111   18.9597 H   0  0  0  0  0  0
  -23.9634  -27.3263   19.0182 H   0  0  0  0  0  0
  -23.7163  -30.6199   19.4139 H   0  0  0  0  0  0
  -22.7290  -29.2627   19.8680 H   0  0  0  0  0  0
  -25.1281  -36.1993   25.0833 H   0  0  0  0  0  0
  -20.9941  -28.3218   24.1439 H   0  0  0  0  0  0
  -20.5648  -26.2262   23.3599 H   0  0  0  0  0  0
  -21.6625  -26.7442   22.1206 H   0  0  0  0  0  0
  -19.6890  -25.6303   21.1223 H   0  0  0  0  0  0
  -19.6670  -27.3210   20.6748 H   0  0  0  0  0  0
  -17.4180  -26.6674   21.4023 H   0  0  0  0  0  0
  -18.0314  -26.0060   22.9008 H   0  0  0  0  0  0
  -19.7921  -30.7249   24.2293 H   0  0  0  0  0  0
  -17.5004  -31.6267   24.5152 H   0  0  0  0  0  0
  -15.5337  -30.2992   23.7645 H   0  0  0  0  0  0
  -15.8655  -28.0826   22.7063 H   0  0  0  0  0  0
  -24.5930  -30.7045   25.7853 H   0  0  0  0  0  0
  -24.8939  -32.2861   26.4962 H   0  0  0  0  0  0
  -25.8124  -30.8887   27.0251 H   0  0  0  0  0  0
  -26.2829  -29.6830   24.1157 H   0  0  0  0  0  0
  -27.4061  -29.7276   25.4558 H   0  0  0  0  0  0
  -27.8673  -30.4372   23.9252 H   0  0  0  0  0  0
  -27.2670  -33.3624   26.2104 H   0  0  0  0  0  0
  -28.3854  -32.6904   25.0327 H   0  0  0  0  0  0
  -28.0729  -31.8444   26.5408 H   0  0  0  0  0  0
  -28.2612  -38.0100   24.7511 H   0  0  0  0  0  0
  -28.1059  -36.2636   24.6299 H   0  0  0  0  0  0
  -27.2299  -37.1476   25.8871 H   0  0  0  0  0  0
  -20.9281  -29.8779   21.6991 H   0  0  0  0  0  0
  -26.0185  -38.2882   24.1413 H   0  0  0  0  0  0
  -30.3205  -22.0493   19.9952 H   0  0  0  0  0  0
  -27.7204  -19.4848   22.3226 H   0  0  0  0  0  0
  -27.3351  -23.7360   22.6265 H   0  0  0  0  0  0
  -30.9363  -19.5625   20.7260 H   0  0  0  0  0  0
  -29.7729  -19.4218   19.4383 H   0  0  0  0  0  0
  -30.1911  -24.4700   20.2474 H   0  0  0  0  0  0
  -29.5496  -25.0110   21.7776 H   0  0  0  0  0  0
  -28.4428  -17.7815   20.7072 H   0  0  0  0  0  0
  -29.4286  -18.0095   22.1405 H   0  0  0  0  0  0
  -31.4112  -17.0844   21.0467 H   0  0  0  0  0  0
  -30.5712  -16.9775   19.5160 H   0  0  0  0  0  0
  -27.2435  -25.0377   20.6563 H   0  0  0  0  0  0
  -28.0563  -24.8785   19.1126 H   0  0  0  0  0  0
  -29.0522  -15.3785   21.2186 H   0  0  0  0  0  0
  1 25  1  0  0  0
  1 30  2  0  0  0
  1 82  1  0  0  0
  2  3  1  0  0  0
  2 25  1  0  0  0
  2 84  1  0  0  0
  2 85  1  0  0  0
  3  4  1  0  0  0
  3 86  1  0  0  0
  3 87  1  0  0  0
  4  5  1  0  0  0
  4 88  1  0  0  0
  4 89  1  0  0  0
  5  6  1  0  0  0
  5 26  1  0  0  0
  5 90  1  0  0  0
  6 25  1  0  0  0
  6 91  1  0  0  0
  6 92  1  0  0  0
  7  8  2  0  0  0
  7 26  1  0  0  0
  7 29  1  0  0  0
  8  9  1  0  0  0
  8 22  1  0  0  0
  9 10  1  0  0  0
  9 27  2  0  0  0
 10 11  2  0  0  0
 10 15  1  0  0  0
 11 12  1  0  0  0
 11 93  1  0  0  0
 12 13  2  0  0  0
 12 94  1  0  0  0
 13 14  1  0  0  0
 13 31  1  0  0  0
 14 15  2  0  0  0
 14 95  1  0  0  0
 15 96  1  0  0  0
 16 17  2  0  0  0
 16 21  1  0  0  0
 16 31  1  0  0  0
 17 18  1  0  0  0
 17 97  1  0  0  0
 18 19  2  0  0  0
 18 98  1  0  0  0
 19 20  1  0  0  0
 19 24  1  0  0  0
 20 21  2  0  0  0
 20 99  1  0  0  0
 21 23  1  0  0  0
 22 28  1  0  0  0
 22 32  2  0  0  0
 26 27  1  0  0  0
 28100  1  0  0  0
 28101  1  0  0  0
 29102  1  0  0  0
 29103  1  0  0  0
 33 34  1  0  0  0
 33 66  1  0  0  0
 33 70  2  0  0  0
 34 36  1  0  0  0
 34 59  1  0  0  0
 34104  1  0  0  0
 35 44  2  0  0  0
 35 45  1  0  0  0
 35 68  1  0  0  0
 36 56  1  0  0  0
 36105  1  0  0  0
 37 39  1  0  0  0
 37 47  1  0  0  0
 37 66  1  0  0  0
 37106  1  0  0  0
 38 43  2  0  0  0
 38 46  1  0  0  0
 38 47  1  0  0  0
 39 64  1  0  0  0
 39 67  2  0  0  0
 40 52  1  0  0  0
 40 53  2  0  0  0
 40 58  1  0  0  0
 41107  1  0  0  0
 41108  1  0  0  0
 41109  1  0  0  0
 41 48  1  0  0  0
 42 43  1  0  0  0
 42 66  1  0  0  0
 42110  1  0  0  0
 42111  1  0  0  0
 43 44  1  0  0  0
 44112  1  0  0  0
 45 46  2  0  0  0
 45113  1  0  0  0
 46114  1  0  0  0
 47115  1  0  0  0
 47116  1  0  0  0
 48 56  1  0  0  0
 48 65  1  0  0  0
 48117  1  0  0  0
 49 50  1  0  0  0
 49 53  1  0  0  0
 49 64  1  0  0  0
 49118  1  0  0  0
 50 51  1  0  0  0
 50119  1  0  0  0
 50120  1  0  0  0
 51 52  1  0  0  0
 51121  1  0  0  0
 51122  1  0  0  0
 52123  1  0  0  0
 52124  1  0  0  0
 53 54  1  0  0  0
 54 55  2  0  0  0
 54125  1  0  0  0
 55 57  1  0  0  0
 55126  1  0  0  0
 56 69  2  0  0  0
 57 58  2  0  0  0
 57127  1  0  0  0
 58128  1  0  0  0
 59 60  1  0  0  0
 59 61  1  0  0  0
 59 62  1  0  0  0
 60129  1  0  0  0
 60130  1  0  0  0
 60131  1  0  0  0
 61132  1  0  0  0
 61133  1  0  0  0
 61134  1  0  0  0
 62135  1  0  0  0
 62136  1  0  0  0
 62137  1  0  0  0
 63 65  1  0  0  0
 63138  1  0  0  0
 63139  1  0  0  0
 63140  1  0  0  0
 64141  1  0  0  0
 65142  1  0  0  0
 68 81  1  0  0  0
 71 74  2  0  0  0
 71 75  1  0  0  0
 71143  1  0  0  0
 72 74  1  0  0  0
 72 76  2  0  0  0
 72144  1  0  0  0
 73 75  2  0  0  0
 73 76  1  0  0  0
 73145  1  0  0  0
 74 77  1  0  0  0
 75 78  1  0  0  0
 76 83  1  0  0  0
 77 79  1  0  0  0
 77146  1  0  0  0
 77147  1  0  0  0
 78 81  1  0  0  0
 78148  1  0  0  0
 78149  1  0  0  0
 79 80  1  0  0  0
 79150  1  0  0  0
 79151  1  0  0  0
 80 82  1  0  0  0
 80152  1  0  0  0
 80153  1  0  0  0
 81154  1  0  0  0
 81155  1  0  0  0
 82156  1  0  0  0
M  ISO  4   1 100  68 101  81 101  82 100
M  END
> <chiral flag>
0

> <version>
0

> <s_m_source_file>
/data/baiqing/PycharmProjects/Reinvent-master-3.2/result/LINK_invent/BTK/process_docking_weight1_custom_sum_contain_oxygen_bond_distance_aromatic_linkinvent_7_9_3/rearranged_h_0035.sdf

> <i_m_source_file_index>
31

> <r_mmod_Potential_Energy-OPLS-2005>
-52.989315032959

> <r_mmod_Stretch_Energy-OPLS-2005>
35.6294441223145

> <r_mmod_Bend_Energy-OPLS-2005>
88.1769866943359

> <r_mmod_Torsional_Energy-OPLS-2005>
204.200668334961

> <r_mmod_Improper_Torsional_Energy-OPLS-2005>
5.60239410400391

> <r_mmod_Van_der_Waal_Energy-OPLS-2005>
159.083389282227

> <r_mmod_Electrostatic_Energy-OPLS-2005>
-355.991577148438

> <r_mmod_Solvation_Energy-OPLS-2005>
-204.855117797852

> <b_mmod_Minimization_Converged-OPLS-2005>
0

> <r_mmod_RMS_Derivative-OPLS-2005>
2.04398775100708

$$$$
31
                    3D
 Structure written by MMmdl.
158166  0  0  1  0            999 V2000
  -30.7403  -14.4192   20.6033 C   0  0  0  0  0  0
  -30.4170  -12.2667   19.4348 C   0  0  0  0  0  0
  -29.5026  -12.4778   18.2123 C   0  0  0  0  0  0
  -28.0216  -12.3495   18.6189 C   0  0  0  0  0  0
  -27.6643  -13.2048   19.8661 C   0  0  2  0  0  0
  -28.7019  -12.9973   20.9931 C   0  0  0  0  0  0
  -25.2587  -13.8164   20.5655 C   0  0  0  0  0  0
  -24.1826  -13.0427   20.9135 C   0  0  0  0  0  0
  -24.6383  -11.6896   20.8684 C   0  0  0  0  0  0
  -23.9045  -10.4280   21.0377 C   0  0  0  0  0  0
  -24.3595   -9.4199   21.9160 C   0  0  0  0  0  0
  -23.6259   -8.2243   22.0755 C   0  0  0  0  0  0
  -22.4238   -8.0274   21.3553 C   0  0  0  0  0  0
  -21.9872   -9.0248   20.4656 C   0  0  0  0  0  0
  -22.7212  -10.2118   20.3042 C   0  0  0  0  0  0
  -21.6850   -6.0714   22.5274 C   0  0  0  0  0  0
  -21.4034   -6.5629   23.8203 C   0  0  0  0  0  0
  -21.3661   -5.6782   24.9169 C   0  0  0  0  0  0
  -21.6038   -4.3040   24.7227 C   0  0  0  0  0  0
  -21.8816   -3.8127   23.4349 C   0  0  0  0  0  0
  -21.9192   -4.6945   22.3400 C   0  0  0  0  0  0
  -22.7849  -13.5242   21.1775 C   0  0  0  0  0  0
  -22.1653   -4.2123   21.0979 F   0  0  0  0  0  0
  -21.5620   -3.4528   25.7742 F   0  0  0  0  0  0
  -30.0407  -13.2636   20.4467 N   0  0  0  0  0  0
  -26.3023  -12.9343   20.3287 N   0  0  0  0  0  0
  -25.9312  -11.6493   20.5683 N   0  0  0  0  0  0
  -22.0484  -12.8275   22.0363 N   0  0  0  0  0  0
  -25.4236  -15.1880   20.4167 N   0  0  0  0  0  0
  -31.8508  -14.5782   20.0883 O   0  0  0  0  0  0
  -21.6627   -6.8855   21.4231 O   0  0  0  0  0  0
  -22.3535  -14.5518   20.6580 O   0  0  0  0  0  0
  -24.6128  -31.8678   23.2097 C   0  0  0  0  0  0
  -25.9049  -32.4823   23.8347 C   0  0  1  0  0  0
  -27.2304  -27.4394   20.0879 C   0  0  0  0  0  0
  -25.5929  -33.8614   24.2271 N   0  0  0  0  0  0
  -23.3977  -30.4886   21.5528 C   0  0  2  0  0  0
  -24.8430  -28.9530   20.1220 C   0  0  0  0  0  0
  -22.7400  -29.4608   22.5016 C   0  0  0  0  0  0
  -18.0258  -28.1347   22.8498 C   0  0  0  0  0  0
  -24.1496  -36.7282   23.2630 C   0  0  0  0  0  0
  -25.9275  -30.8363   21.3612 C   0  0  0  0  0  0
  -26.0061  -29.4721   20.7036 C   0  0  0  0  0  0
  -27.2026  -28.7248   20.6776 C   0  0  0  0  0  0
  -26.0443  -26.9245   19.5167 C   0  0  0  0  0  0
  -24.8541  -27.6755   19.5346 C   0  0  0  0  0  0
  -23.6090  -29.8231   20.1667 C   0  0  0  0  0  0
  -25.4133  -36.3087   24.0304 C   0  0  1  0  0  0
  -20.5843  -28.3605   23.1359 C   0  0  2  0  0  0
  -20.6757  -26.9350   22.5433 C   0  0  0  0  0  0
  -19.5736  -26.6357   21.5235 C   0  0  0  0  0  0
  -18.1914  -26.7893   22.1635 C   0  0  0  0  0  0
  -19.1508  -28.8795   23.2926 C   0  0  0  0  0  0
  -18.9436  -30.1414   23.8920 C   0  0  0  0  0  0
  -17.6438  -30.6567   24.0546 C   0  0  0  0  0  0
  -25.9061  -34.9467   23.5073 C   0  0  0  0  0  0
  -16.5329  -29.9066   23.6308 C   0  0  0  0  0  0
  -16.7248  -28.6471   23.0352 C   0  0  0  0  0  0
  -26.4489  -31.6615   25.0677 C   0  0  0  0  0  0
  -25.3737  -31.3761   26.1408 C   0  0  0  0  0  0
  -27.0337  -30.3058   24.6063 C   0  0  0  0  0  0
  -27.6031  -32.4368   25.7460 C   0  0  0  0  0  0
  -27.5584  -37.1793   24.8464 C   0  0  0  0  0  0
  -21.4123  -29.2976   22.3785 N   0  0  0  0  0  0
  -26.4308  -37.3776   23.9389 N   0  0  0  0  0  0
  -24.6641  -31.0771   22.1001 N   0  0  0  0  0  0
  -23.4193  -28.8148   23.3035 O   0  0  0  0  0  0
  -28.4172  -26.7408   20.0772 O   0  0  0  0  0  0
  -26.5608  -34.8917   22.4629 O   0  0  0  0  0  0
  -23.5345  -32.1443   23.7514 O   0  0  0  0  0  0
  -30.8973  -21.1813   19.9230 C   0  0  0  0  0  0
  -30.5148  -22.4905   19.5660 C   0  0  0  0  0  0
  -30.6895  -20.7649   21.2507 C   0  0  0  0  0  0
  -29.9731  -23.3146   20.5838 C   0  0  0  0  0  0
  -30.7281  -22.9716   18.1437 C   0  0  0  0  0  0
  -31.2250  -19.4154   21.7269 C   0  0  0  0  0  0
  -29.7806  -24.8234   20.4044 C   0  0  0  0  0  0
  -30.1018  -15.6220   21.3333 C   0  0  0  0  0  0
  -30.2436  -18.2269   21.6015 C   0  0  0  0  0  0
  -30.9869  -16.8984   21.3259 C   0  0  0  0  0  0
  -28.3827  -25.3100   19.9871 C   0  0  0  0  0  0
  -30.0789  -21.5685   22.1594 N   0  0  0  0  0  0
  -29.7364  -22.8248   21.8316 N   0  0  0  0  0  0
  -31.4667  -12.3289   19.1454 H   0  0  0  0  0  0
  -30.2883  -11.2618   19.8422 H   0  0  0  0  0  0
  -29.7435  -11.7496   17.4366 H   0  0  0  0  0  0
  -29.6860  -13.4608   17.7764 H   0  0  0  0  0  0
  -27.8280  -11.2966   18.8286 H   0  0  0  0  0  0
  -27.3788  -12.6130   17.7779 H   0  0  0  0  0  0
  -27.7111  -14.2482   19.5537 H   0  0  0  0  0  0
  -28.6587  -11.9724   21.3631 H   0  0  0  0  0  0
  -28.4630  -13.6261   21.8500 H   0  0  0  0  0  0
  -25.2749   -9.5673   22.4719 H   0  0  0  0  0  0
  -23.9963   -7.4649   22.7490 H   0  0  0  0  0  0
  -21.0794   -8.8770   19.8980 H   0  0  0  0  0  0
  -22.3665  -10.9646   19.6136 H   0  0  0  0  0  0
  -21.2048   -7.6139   23.9702 H   0  0  0  0  0  0
  -21.1480   -6.0514   25.9066 H   0  0  0  0  0  0
  -22.0594   -2.7588   23.2855 H   0  0  0  0  0  0
  -22.4109  -12.0000   22.4854 H   0  0  0  0  0  0
  -21.1092  -13.1308   22.2511 H   0  0  0  0  0  0
  -24.6487  -15.8293   20.5471 H   0  0  0  0  0  0
  -26.2759  -15.6505   20.1265 H   0  0  0  0  0  0
  -26.7102  -32.5541   23.1090 H   0  0  0  0  0  0
  -25.0121  -33.9778   25.0439 H   0  0  0  0  0  0
  -22.6847  -31.3037   21.4138 H   0  0  0  0  0  0
  -23.3754  -35.9626   23.3329 H   0  0  0  0  0  0
  -24.3574  -36.8878   22.2038 H   0  0  0  0  0  0
  -23.7265  -37.6491   23.6643 H   0  0  0  0  0  0
  -26.0418  -31.6114   20.6020 H   0  0  0  0  0  0
  -26.8131  -30.8836   21.9814 H   0  0  0  0  0  0
  -28.1050  -29.1251   21.1192 H   0  0  0  0  0  0
  -26.0239  -25.9505   19.0479 H   0  0  0  0  0  0
  -23.9536  -27.2620   19.1005 H   0  0  0  0  0  0
  -23.7356  -30.6008   19.4129 H   0  0  0  0  0  0
  -22.7320  -29.2508   19.8585 H   0  0  0  0  0  0
  -25.1340  -36.1938   25.0804 H   0  0  0  0  0  0
  -20.9907  -28.3157   24.1487 H   0  0  0  0  0  0
  -20.5685  -26.2202   23.3594 H   0  0  0  0  0  0
  -21.6632  -26.7423   22.1209 H   0  0  0  0  0  0
  -19.6879  -25.6277   21.1246 H   0  0  0  0  0  0
  -19.6685  -27.3180   20.6776 H   0  0  0  0  0  0
  -17.4179  -26.6645   21.4026 H   0  0  0  0  0  0
  -18.0285  -26.0051   22.9040 H   0  0  0  0  0  0
  -19.7923  -30.7219   24.2312 H   0  0  0  0  0  0
  -17.4996  -31.6252   24.5137 H   0  0  0  0  0  0
  -15.5328  -30.2963   23.7616 H   0  0  0  0  0  0
  -15.8656  -28.0785   22.7056 H   0  0  0  0  0  0
  -24.5888  -30.7141   25.7729 H   0  0  0  0  0  0
  -24.8950  -32.2950   26.4795 H   0  0  0  0  0  0
  -25.8050  -30.8942   27.0185 H   0  0  0  0  0  0
  -26.2878  -29.6832   24.1097 H   0  0  0  0  0  0
  -27.4130  -29.7303   25.4520 H   0  0  0  0  0  0
  -27.8711  -30.4384   23.9208 H   0  0  0  0  0  0
  -27.2595  -33.3651   26.2039 H   0  0  0  0  0  0
  -28.3834  -32.6985   25.0297 H   0  0  0  0  0  0
  -28.0693  -31.8503   26.5387 H   0  0  0  0  0  0
  -28.2606  -38.0089   24.7529 H   0  0  0  0  0  0
  -28.1075  -36.2615   24.6288 H   0  0  0  0  0  0
  -27.2288  -37.1435   25.8866 H   0  0  0  0  0  0
  -20.9274  -29.8732   21.7045 H   0  0  0  0  0  0
  -26.0182  -38.2845   24.1414 H   0  0  0  0  0  0
  -31.3779  -20.5232   19.2132 H   0  0  0  0  0  0
  -30.6611  -22.1315   17.4525 H   0  0  0  0  0  0
  -31.7102  -23.4302   18.0350 H   0  0  0  0  0  0
  -29.9683  -23.6944   17.8489 H   0  0  0  0  0  0
  -31.5654  -19.5014   22.7599 H   0  0  0  0  0  0
  -32.1288  -19.2075   21.1520 H   0  0  0  0  0  0
  -30.5148  -25.1984   19.6905 H   0  0  0  0  0  0
  -30.0364  -25.3060   21.3473 H   0  0  0  0  0  0
  -29.1553  -15.8348   20.8345 H   0  0  0  0  0  0
  -29.8745  -15.3482   22.3633 H   0  0  0  0  0  0
  -29.5535  -18.4085   20.7759 H   0  0  0  0  0  0
  -29.6288  -18.1592   22.5001 H   0  0  0  0  0  0
  -31.4759  -17.0085   20.3551 H   0  0  0  0  0  0
  -31.7897  -16.7611   22.0542 H   0  0  0  0  0  0
  -28.1510  -24.9881   18.9705 H   0  0  0  0  0  0
  -27.6256  -24.8972   20.6550 H   0  0  0  0  0  0
  1 25  1  0  0  0
  1 30  2  0  0  0
  1 78  1  0  0  0
  2  3  1  0  0  0
  2 25  1  0  0  0
  2 84  1  0  0  0
  2 85  1  0  0  0
  3  4  1  0  0  0
  3 86  1  0  0  0
  3 87  1  0  0  0
  4  5  1  0  0  0
  4 88  1  0  0  0
  4 89  1  0  0  0
  5  6  1  0  0  0
  5 26  1  0  0  0
  5 90  1  0  0  0
  6 25  1  0  0  0
  6 91  1  0  0  0
  6 92  1  0  0  0
  7  8  2  0  0  0
  7 26  1  0  0  0
  7 29  1  0  0  0
  8  9  1  0  0  0
  8 22  1  0  0  0
  9 10  1  0  0  0
  9 27  2  0  0  0
 10 11  2  0  0  0
 10 15  1  0  0  0
 11 12  1  0  0  0
 11 93  1  0  0  0
 12 13  2  0  0  0
 12 94  1  0  0  0
 13 14  1  0  0  0
 13 31  1  0  0  0
 14 15  2  0  0  0
 14 95  1  0  0  0
 15 96  1  0  0  0
 16 17  2  0  0  0
 16 21  1  0  0  0
 16 31  1  0  0  0
 17 18  1  0  0  0
 17 97  1  0  0  0
 18 19  2  0  0  0
 18 98  1  0  0  0
 19 20  1  0  0  0
 19 24  1  0  0  0
 20 21  2  0  0  0
 20 99  1  0  0  0
 21 23  1  0  0  0
 22 28  1  0  0  0
 22 32  2  0  0  0
 26 27  1  0  0  0
 28100  1  0  0  0
 28101  1  0  0  0
 29102  1  0  0  0
 29103  1  0  0  0
 33 34  1  0  0  0
 33 66  1  0  0  0
 33 70  2  0  0  0
 34 36  1  0  0  0
 34 59  1  0  0  0
 34104  1  0  0  0
 35 44  2  0  0  0
 35 45  1  0  0  0
 35 68  1  0  0  0
 36 56  1  0  0  0
 36105  1  0  0  0
 37 39  1  0  0  0
 37 47  1  0  0  0
 37 66  1  0  0  0
 37106  1  0  0  0
 38 43  2  0  0  0
 38 46  1  0  0  0
 38 47  1  0  0  0
 39 64  1  0  0  0
 39 67  2  0  0  0
 40 52  1  0  0  0
 40 53  2  0  0  0
 40 58  1  0  0  0
 41107  1  0  0  0
 41108  1  0  0  0
 41109  1  0  0  0
 41 48  1  0  0  0
 42 43  1  0  0  0
 42 66  1  0  0  0
 42110  1  0  0  0
 42111  1  0  0  0
 43 44  1  0  0  0
 44112  1  0  0  0
 45 46  2  0  0  0
 45113  1  0  0  0
 46114  1  0  0  0
 47115  1  0  0  0
 47116  1  0  0  0
 48 56  1  0  0  0
 48 65  1  0  0  0
 48117  1  0  0  0
 49 50  1  0  0  0
 49 53  1  0  0  0
 49 64  1  0  0  0
 49118  1  0  0  0
 50 51  1  0  0  0
 50119  1  0  0  0
 50120  1  0  0  0
 51 52  1  0  0  0
 51121  1  0  0  0
 51122  1  0  0  0
 52123  1  0  0  0
 52124  1  0  0  0
 53 54  1  0  0  0
 54 55  2  0  0  0
 54125  1  0  0  0
 55 57  1  0  0  0
 55126  1  0  0  0
 56 69  2  0  0  0
 57 58  2  0  0  0
 57127  1  0  0  0
 58128  1  0  0  0
 59 60  1  0  0  0
 59 61  1  0  0  0
 59 62  1  0  0  0
 60129  1  0  0  0
 60130  1  0  0  0
 60131  1  0  0  0
 61132  1  0  0  0
 61133  1  0  0  0
 61134  1  0  0  0
 62135  1  0  0  0
 62136  1  0  0  0
 62137  1  0  0  0
 63 65  1  0  0  0
 63138  1  0  0  0
 63139  1  0  0  0
 63140  1  0  0  0
 64141  1  0  0  0
 65142  1  0  0  0
 68 81  1  0  0  0
 71 72  2  0  0  0
 71 73  1  0  0  0
 71143  1  0  0  0
 72 74  1  0  0  0
 72 75  1  0  0  0
 73 76  1  0  0  0
 73 82  2  0  0  0
 74 77  1  0  0  0
 74 83  2  0  0  0
 75144  1  0  0  0
 75145  1  0  0  0
 75146  1  0  0  0
 76 79  1  0  0  0
 76147  1  0  0  0
 76148  1  0  0  0
 77 81  1  0  0  0
 77149  1  0  0  0
 77150  1  0  0  0
 78 80  1  0  0  0
 78151  1  0  0  0
 78152  1  0  0  0
 79 80  1  0  0  0
 79153  1  0  0  0
 79154  1  0  0  0
 80155  1  0  0  0
 80156  1  0  0  0
 81157  1  0  0  0
 81158  1  0  0  0
 82 83  1  0  0  0
M  ISO  4   1 100  68 101  78 100  81 101
M  END
> <chiral flag>
0

> <version>
0

> <s_m_source_file>
/data/baiqing/PycharmProjects/Reinvent-master-3.2/result/LINK_invent/BTK/process_docking_weight1_custom_sum_contain_oxygen_bond_distance_aromatic_linkinvent_7_9_3/rearranged_h_0035.sdf

> <i_m_source_file_index>
32

> <r_mmod_Potential_Energy-OPLS-2005>
-45.162166595459

> <r_mmod_Stretch_Energy-OPLS-2005>
37.1030502319336

> <r_mmod_Bend_Energy-OPLS-2005>
98.9146499633789

> <r_mmod_Torsional_Energy-OPLS-2005>
165.595153808594

> <r_mmod_Improper_Torsional_Energy-OPLS-2005>
3.11423492431641

> <r_mmod_Van_der_Waal_Energy-OPLS-2005>
155.049606323242

> <r_mmod_Electrostatic_Energy-OPLS-2005>
-299.153106689453

> <r_mmod_Solvation_Energy-OPLS-2005>
-217.33186340332

> <b_mmod_Minimization_Converged-OPLS-2005>
0

> <r_mmod_RMS_Derivative-OPLS-2005>
3.56163692474365

$$$$
32
                    3D
 Structure written by MMmdl.
150158  0  0  1  0            999 V2000
  -30.5334  -15.0995   20.3933 C   0  0  0  0  0  0
  -30.4222  -12.6850   19.5439 C   0  0  0  0  0  0
  -29.5406  -12.5614   18.2802 C   0  0  0  0  0  0
  -28.0689  -12.3349   18.6708 C   0  0  0  0  0  0
  -27.6104  -13.2837   19.8097 C   0  0  2  0  0  0
  -28.6355  -13.4012   20.9543 C   0  0  0  0  0  0
  -25.2325  -13.8292   20.5606 C   0  0  0  0  0  0
  -24.1735  -13.0462   20.9274 C   0  0  0  0  0  0
  -24.6413  -11.6964   20.8742 C   0  0  0  0  0  0
  -23.9107  -10.4318   21.0384 C   0  0  0  0  0  0
  -24.3649   -9.4224   21.9149 C   0  0  0  0  0  0
  -23.6331   -8.2253   22.0718 C   0  0  0  0  0  0
  -22.4311   -8.0283   21.3508 C   0  0  0  0  0  0
  -21.9942   -9.0263   20.4627 C   0  0  0  0  0  0
  -22.7278  -10.2152   20.3035 C   0  0  0  0  0  0
  -21.6863   -6.0733   22.5261 C   0  0  0  0  0  0
  -21.4052   -6.5626   23.8207 C   0  0  0  0  0  0
  -21.3695   -5.6772   24.9160 C   0  0  0  0  0  0
  -21.6046   -4.3034   24.7193 C   0  0  0  0  0  0
  -21.8821   -3.8130   23.4315 C   0  0  0  0  0  0
  -21.9206   -4.6962   22.3378 C   0  0  0  0  0  0
  -22.7736  -13.5187   21.1917 C   0  0  0  0  0  0
  -22.1638   -4.2155   21.0956 F   0  0  0  0  0  0
  -21.5643   -3.4506   25.7700 F   0  0  0  0  0  0
  -29.9046  -13.8364   20.3621 N   0  0  0  0  0  0
  -26.2764  -12.9604   20.3029 N   0  0  0  0  0  0
  -25.9342  -11.6696   20.5628 N   0  0  0  0  0  0
  -22.0388  -12.8189   22.0487 N   0  0  0  0  0  0
  -25.3880  -15.2013   20.3935 N   0  0  0  0  0  0
  -31.7483  -15.0311   20.1707 O   0  0  0  0  0  0
  -21.6656   -6.8885   21.4224 O   0  0  0  0  0  0
  -22.3389  -14.5463   20.6716 O   0  0  0  0  0  0
  -24.6540  -31.8329   23.1808 C   0  0  0  0  0  0
  -25.9253  -32.4640   23.8241 C   0  0  1  0  0  0
  -27.1988  -26.9991   20.1755 C   0  0  0  0  0  0
  -25.5974  -33.8464   24.2156 N   0  0  0  0  0  0
  -23.4637  -30.4498   21.5254 C   0  0  2  0  0  0
  -24.9138  -28.8534   20.1084 C   0  0  0  0  0  0
  -22.7656  -29.4472   22.4791 C   0  0  0  0  0  0
  -18.0326  -28.1385   22.8488 C   0  0  0  0  0  0
  -24.1489  -36.7227   23.2637 C   0  0  0  0  0  0
  -26.0297  -30.6578   21.4049 C   0  0  0  0  0  0
  -26.0933  -29.2571   20.7465 C   0  0  0  0  0  0
  -27.2311  -28.3451   20.7632 C   0  0  0  0  0  0
  -25.9980  -26.7341   19.4773 C   0  0  0  0  0  0
  -24.8861  -27.6109   19.4570 C   0  0  0  0  0  0
  -23.7011  -29.7775   20.1454 C   0  0  0  0  0  0
  -25.4127  -36.3003   24.0306 C   0  0  1  0  0  0
  -20.5962  -28.3731   23.1214 C   0  0  2  0  0  0
  -20.6812  -26.9414   22.5413 C   0  0  0  0  0  0
  -19.5789  -26.6357   21.5235 C   0  0  0  0  0  0
  -18.1966  -26.7921   22.1627 C   0  0  0  0  0  0
  -19.1589  -28.8888   23.2840 C   0  0  0  0  0  0
  -18.9483  -30.1479   23.8871 C   0  0  0  0  0  0
  -17.6475  -30.6589   24.0561 C   0  0  0  0  0  0
  -25.9101  -34.9374   23.5040 C   0  0  0  0  0  0
  -16.5370  -29.9081   23.6314 C   0  0  0  0  0  0
  -16.7311  -28.6486   23.0363 C   0  0  0  0  0  0
  -26.4536  -31.6556   25.0746 C   0  0  0  0  0  0
  -25.3672  -31.3818   26.1413 C   0  0  0  0  0  0
  -27.0412  -30.2926   24.6422 C   0  0  0  0  0  0
  -27.6038  -32.4364   25.7538 C   0  0  0  0  0  0
  -27.5585  -37.1780   24.8459 C   0  0  0  0  0  0
  -21.4335  -29.3043   22.3580 N   0  0  0  0  0  0
  -26.4291  -37.3720   23.9418 N   0  0  0  0  0  0
  -24.7357  -31.0060   22.0912 N   0  0  0  0  0  0
  -23.4248  -28.8002   23.2978 O   0  0  0  0  0  0
  -28.2007  -25.9268   20.2893 O   0  0  0  0  0  0
  -26.5680  -34.8877   22.4617 O   0  0  0  0  0  0
  -23.5628  -32.1240   23.6975 O   0  0  0  0  0  0
  -28.6337  -17.1247   20.8650 C   0  0  0  0  0  0
  -30.6680  -17.8089   20.0190 C   0  0  0  0  0  0
  -29.9192  -16.6342   20.4259 C   0  0  0  0  0  0
  -28.2038  -18.5400   20.8179 C   0  0  0  0  0  0
  -29.0316  -19.6492   20.3507 C   0  0  0  0  0  0
  -26.7673  -18.7996   21.2607 C   0  0  0  0  0  0
  -28.5089  -21.2285   19.9184 C   0  0  0  0  0  0
  -28.7037  -22.8537   20.5423 C   0  0  0  0  0  0
  -27.9905  -24.3576   19.9572 C   0  0  0  0  0  0
  -30.2708  -19.1666   19.9692 N   0  0  0  0  0  0
  -31.4653  -12.8134   19.2487 H   0  0  0  0  0  0
  -30.3949  -11.7600   20.1237 H   0  0  0  0  0  0
  -29.8977  -11.7458   17.6482 H   0  0  0  0  0  0
  -29.6295  -13.4720   17.6868 H   0  0  0  0  0  0
  -27.9679  -11.2997   18.9880 H   0  0  0  0  0  0
  -27.4259  -12.4519   17.7956 H   0  0  0  0  0  0
  -27.5481  -14.2696   19.3479 H   0  0  0  0  0  0
  -28.7449  -12.4541   21.4865 H   0  0  0  0  0  0
  -28.3035  -14.1332   21.6903 H   0  0  0  0  0  0
  -25.2797   -9.5696   22.4720 H   0  0  0  0  0  0
  -24.0051   -7.4642   22.7415 H   0  0  0  0  0  0
  -21.0868   -8.8793   19.8932 H   0  0  0  0  0  0
  -22.3722  -10.9683   19.6148 H   0  0  0  0  0  0
  -21.2041   -7.6132   23.9714 H   0  0  0  0  0  0
  -21.1526   -6.0482   25.9069 H   0  0  0  0  0  0
  -22.0577   -2.7592   23.2783 H   0  0  0  0  0  0
  -22.4065  -11.9930   22.5014 H   0  0  0  0  0  0
  -21.0971  -13.1150   22.2616 H   0  0  0  0  0  0
  -24.5765  -15.8088   20.4322 H   0  0  0  0  0  0
  -26.1408  -15.5948   19.8437 H   0  0  0  0  0  0
  -26.7317  -32.5187   23.0961 H   0  0  0  0  0  0
  -25.0169  -33.9552   25.0344 H   0  0  0  0  0  0
  -22.7733  -31.2801   21.3672 H   0  0  0  0  0  0
  -23.3757  -35.9551   23.3274 H   0  0  0  0  0  0
  -24.3570  -36.8889   22.2054 H   0  0  0  0  0  0
  -23.7231  -37.6407   23.6699 H   0  0  0  0  0  0
  -26.2108  -31.4026   20.6285 H   0  0  0  0  0  0
  -26.8899  -30.7088   22.0594 H   0  0  0  0  0  0
  -28.1223  -28.6386   21.2996 H   0  0  0  0  0  0
  -25.8785  -25.7907   18.9660 H   0  0  0  0  0  0
  -23.9876  -27.3050   18.9392 H   0  0  0  0  0  0
  -23.8672  -30.5507   19.3953 H   0  0  0  0  0  0
  -22.8121  -29.2382   19.8162 H   0  0  0  0  0  0
  -25.1326  -36.1806   25.0801 H   0  0  0  0  0  0
  -21.0056  -28.3297   24.1340 H   0  0  0  0  0  0
  -20.5710  -26.2344   23.3643 H   0  0  0  0  0  0
  -21.6673  -26.7418   22.1218 H   0  0  0  0  0  0
  -19.6939  -25.6253   21.1310 H   0  0  0  0  0  0
  -19.6709  -27.3125   20.6729 H   0  0  0  0  0  0
  -17.4245  -26.6691   21.4008 H   0  0  0  0  0  0
  -18.0329  -26.0062   22.9016 H   0  0  0  0  0  0
  -19.7961  -30.7318   24.2214 H   0  0  0  0  0  0
  -17.5020  -31.6254   24.5182 H   0  0  0  0  0  0
  -15.5368  -30.2982   23.7641 H   0  0  0  0  0  0
  -15.8707  -28.0795   22.7105 H   0  0  0  0  0  0
  -24.5826  -30.7207   25.7720 H   0  0  0  0  0  0
  -24.8898  -32.3043   26.4743 H   0  0  0  0  0  0
  -25.7898  -30.9029   27.0257 H   0  0  0  0  0  0
  -26.3050  -29.6632   24.1417 H   0  0  0  0  0  0
  -27.3952  -29.7263   25.5048 H   0  0  0  0  0  0
  -27.9006  -30.4132   23.9823 H   0  0  0  0  0  0
  -27.2595  -33.3676   26.2054 H   0  0  0  0  0  0
  -28.3881  -32.6912   25.0400 H   0  0  0  0  0  0
  -28.0673  -31.8540   26.5509 H   0  0  0  0  0  0
  -28.2574  -38.0104   24.7529 H   0  0  0  0  0  0
  -28.1116  -36.2637   24.6267 H   0  0  0  0  0  0
  -27.2321  -37.1406   25.8864 H   0  0  0  0  0  0
  -20.9554  -29.8770   21.6768 H   0  0  0  0  0  0
  -26.0139  -38.2786   24.1406 H   0  0  0  0  0  0
  -27.9225  -16.3994   21.2316 H   0  0  0  0  0  0
  -31.6878  -17.6635   19.6826 H   0  0  0  0  0  0
  -26.5343  -18.2358   22.1671 H   0  0  0  0  0  0
  -26.0664  -18.4808   20.4899 H   0  0  0  0  0  0
  -26.5786  -19.8495   21.4820 H   0  0  0  0  0  0
  -27.4320  -21.1181   19.7894 H   0  0  0  0  0  0
  -28.8664  -21.3079   18.8903 H   0  0  0  0  0  0
  -29.7781  -23.0227   20.5784 H   0  0  0  0  0  0
  -28.4074  -22.7820   21.5903 H   0  0  0  0  0  0
  -26.9224  -24.1876   20.0751 H   0  0  0  0  0  0
  -28.1496  -24.3232   18.8775 H   0  0  0  0  0  0
  1 25  1  0  0  0
  1 30  2  0  0  0
  1 73  1  0  0  0
  2  3  1  0  0  0
  2 25  1  0  0  0
  2 81  1  0  0  0
  2 82  1  0  0  0
  3  4  1  0  0  0
  3 83  1  0  0  0
  3 84  1  0  0  0
  4  5  1  0  0  0
  4 85  1  0  0  0
  4 86  1  0  0  0
  5  6  1  0  0  0
  5 26  1  0  0  0
  5 87  1  0  0  0
  6 25  1  0  0  0
  6 88  1  0  0  0
  6 89  1  0  0  0
  7  8  2  0  0  0
  7 26  1  0  0  0
  7 29  1  0  0  0
  8  9  1  0  0  0
  8 22  1  0  0  0
  9 10  1  0  0  0
  9 27  2  0  0  0
 10 11  2  0  0  0
 10 15  1  0  0  0
 11 12  1  0  0  0
 11 90  1  0  0  0
 12 13  2  0  0  0
 12 91  1  0  0  0
 13 14  1  0  0  0
 13 31  1  0  0  0
 14 15  2  0  0  0
 14 92  1  0  0  0
 15 93  1  0  0  0
 16 17  2  0  0  0
 16 21  1  0  0  0
 16 31  1  0  0  0
 17 18  1  0  0  0
 17 94  1  0  0  0
 18 19  2  0  0  0
 18 95  1  0  0  0
 19 20  1  0  0  0
 19 24  1  0  0  0
 20 21  2  0  0  0
 20 96  1  0  0  0
 21 23  1  0  0  0
 22 28  1  0  0  0
 22 32  2  0  0  0
 26 27  1  0  0  0
 28 97  1  0  0  0
 28 98  1  0  0  0
 29 99  1  0  0  0
 29100  1  0  0  0
 33 34  1  0  0  0
 33 66  1  0  0  0
 33 70  2  0  0  0
 34 36  1  0  0  0
 34 59  1  0  0  0
 34101  1  0  0  0
 35 44  2  0  0  0
 35 45  1  0  0  0
 35 68  1  0  0  0
 36 56  1  0  0  0
 36102  1  0  0  0
 37 39  1  0  0  0
 37 47  1  0  0  0
 37 66  1  0  0  0
 37103  1  0  0  0
 38 43  2  0  0  0
 38 46  1  0  0  0
 38 47  1  0  0  0
 39 64  1  0  0  0
 39 67  2  0  0  0
 40 52  1  0  0  0
 40 53  2  0  0  0
 40 58  1  0  0  0
 41104  1  0  0  0
 41105  1  0  0  0
 41106  1  0  0  0
 41 48  1  0  0  0
 42 43  1  0  0  0
 42 66  1  0  0  0
 42107  1  0  0  0
 42108  1  0  0  0
 43 44  1  0  0  0
 44109  1  0  0  0
 45 46  2  0  0  0
 45110  1  0  0  0
 46111  1  0  0  0
 47112  1  0  0  0
 47113  1  0  0  0
 48 56  1  0  0  0
 48 65  1  0  0  0
 48114  1  0  0  0
 49 50  1  0  0  0
 49 53  1  0  0  0
 49 64  1  0  0  0
 49115  1  0  0  0
 50 51  1  0  0  0
 50116  1  0  0  0
 50117  1  0  0  0
 51 52  1  0  0  0
 51118  1  0  0  0
 51119  1  0  0  0
 52120  1  0  0  0
 52121  1  0  0  0
 53 54  1  0  0  0
 54 55  2  0  0  0
 54122  1  0  0  0
 55 57  1  0  0  0
 55123  1  0  0  0
 56 69  2  0  0  0
 57 58  2  0  0  0
 57124  1  0  0  0
 58125  1  0  0  0
 59 60  1  0  0  0
 59 61  1  0  0  0
 59 62  1  0  0  0
 60126  1  0  0  0
 60127  1  0  0  0
 60128  1  0  0  0
 61129  1  0  0  0
 61130  1  0  0  0
 61131  1  0  0  0
 62132  1  0  0  0
 62133  1  0  0  0
 62134  1  0  0  0
 63 65  1  0  0  0
 63135  1  0  0  0
 63136  1  0  0  0
 63137  1  0  0  0
 64138  1  0  0  0
 65139  1  0  0  0
 68 79  1  0  0  0
 71 73  2  0  0  0
 71 74  1  0  0  0
 71140  1  0  0  0
 72 73  1  0  0  0
 72 80  2  0  0  0
 72141  1  0  0  0
 74 75  2  0  0  0
 74 76  1  0  0  0
 75 77  1  0  0  0
 75 80  1  0  0  0
 76142  1  0  0  0
 76143  1  0  0  0
 76144  1  0  0  0
 77 78  1  0  0  0
 77145  1  0  0  0
 77146  1  0  0  0
 78 79  1  0  0  0
 78147  1  0  0  0
 78148  1  0  0  0
 79149  1  0  0  0
 79150  1  0  0  0
M  ISO  4   1 100  68 101  73 100  79 101
M  END
> <chiral flag>
0

> <version>
0

> <s_m_source_file>
/data/baiqing/PycharmProjects/Reinvent-master-3.2/result/LINK_invent/BTK/process_docking_weight1_custom_sum_contain_oxygen_bond_distance_aromatic_linkinvent_7_9_3/rearranged_h_0035.sdf

> <i_m_source_file_index>
33

> <r_mmod_Potential_Energy-OPLS-2005>
772.513610839844

> <r_mmod_Stretch_Energy-OPLS-2005>
411.232788085938

> <r_mmod_Bend_Energy-OPLS-2005>
382.428131103516

> <r_mmod_Torsional_Energy-OPLS-2005>
191.737274169922

> <r_mmod_Improper_Torsional_Energy-OPLS-2005>
9.03452491760254

> <r_mmod_Van_der_Waal_Energy-OPLS-2005>
129.251815795898

> <r_mmod_Electrostatic_Energy-OPLS-2005>
-469.330017089844

> <r_mmod_Solvation_Energy-OPLS-2005>
-208.414520263672

> <b_mmod_Minimization_Converged-OPLS-2005>
0

> <r_mmod_RMS_Derivative-OPLS-2005>
4.7179799079895

$$$$
33
                    3D
 Structure written by MMmdl.
165173  0  0  1  0            999 V2000
  -30.7864  -14.3517   20.6383 C   0  0  0  0  0  0
  -30.4089  -12.2616   19.4032 C   0  0  0  0  0  0
  -29.4861  -12.5092   18.1965 C   0  0  0  0  0  0
  -28.0093  -12.3831   18.6116 C   0  0  0  0  0  0
  -27.6721  -13.2052   19.8843 C   0  0  2  0  0  0
  -28.7117  -12.9577   21.0036 C   0  0  0  0  0  0
  -25.2637  -13.8164   20.5697 C   0  0  0  0  0  0
  -24.1873  -13.0443   20.9174 C   0  0  0  0  0  0
  -24.6419  -11.6905   20.8733 C   0  0  0  0  0  0
  -23.9062  -10.4298   21.0408 C   0  0  0  0  0  0
  -24.3610   -9.4212   21.9176 C   0  0  0  0  0  0
  -23.6292   -8.2244   22.0751 C   0  0  0  0  0  0
  -22.4273   -8.0277   21.3539 C   0  0  0  0  0  0
  -21.9904   -9.0253   20.4643 C   0  0  0  0  0  0
  -22.7229  -10.2139   20.3055 C   0  0  0  0  0  0
  -21.6853   -6.0739   22.5274 C   0  0  0  0  0  0
  -21.4012   -6.5648   23.8215 C   0  0  0  0  0  0
  -21.3663   -5.6792   24.9167 C   0  0  0  0  0  0
  -21.6058   -4.3060   24.7206 C   0  0  0  0  0  0
  -21.8826   -3.8150   23.4331 C   0  0  0  0  0  0
  -21.9201   -4.6970   22.3395 C   0  0  0  0  0  0
  -22.7880  -13.5252   21.1823 C   0  0  0  0  0  0
  -22.1665   -4.2163   21.0966 F   0  0  0  0  0  0
  -21.5630   -3.4544   25.7720 F   0  0  0  0  0  0
  -30.0558  -13.2226   20.4587 N   0  0  0  0  0  0
  -26.3082  -12.9339   20.3411 N   0  0  0  0  0  0
  -25.9356  -11.6490   20.5780 N   0  0  0  0  0  0
  -22.0502  -12.8258   22.0379 N   0  0  0  0  0  0
  -25.4419  -15.1872   20.4097 N   0  0  0  0  0  0
  -31.8190  -14.5937   20.0062 O   0  0  0  0  0  0
  -21.6642   -6.8881   21.4233 O   0  0  0  0  0  0
  -22.3576  -14.5554   20.6660 O   0  0  0  0  0  0
  -24.6101  -31.8680   23.2115 C   0  0  0  0  0  0
  -25.9004  -32.4831   23.8383 C   0  0  1  0  0  0
  -27.2439  -27.4789   20.0946 C   0  0  0  0  0  0
  -25.5882  -33.8624   24.2332 N   0  0  0  0  0  0
  -23.3950  -30.4904   21.5518 C   0  0  2  0  0  0
  -24.8423  -28.9552   20.1189 C   0  0  0  0  0  0
  -22.7383  -29.4654   22.5025 C   0  0  0  0  0  0
  -18.0255  -28.1394   22.8478 C   0  0  0  0  0  0
  -24.1477  -36.7326   23.2650 C   0  0  0  0  0  0
  -25.9153  -30.8528   21.3480 C   0  0  0  0  0  0
  -25.9967  -29.4848   20.7070 C   0  0  0  0  0  0
  -27.2009  -28.7543   20.6890 C   0  0  0  0  0  0
  -26.0728  -26.9447   19.5105 C   0  0  0  0  0  0
  -24.8710  -27.6809   19.5207 C   0  0  0  0  0  0
  -23.5996  -29.8150   20.1673 C   0  0  0  0  0  0
  -25.4102  -36.3122   24.0345 C   0  0  1  0  0  0
  -20.5841  -28.3653   23.1353 C   0  0  2  0  0  0
  -20.6753  -26.9396   22.5445 C   0  0  0  0  0  0
  -19.5743  -26.6395   21.5220 C   0  0  0  0  0  0
  -18.1906  -26.7944   22.1601 C   0  0  0  0  0  0
  -19.1505  -28.8839   23.2913 C   0  0  0  0  0  0
  -18.9437  -30.1442   23.8926 C   0  0  0  0  0  0
  -17.6444  -30.6596   24.0571 C   0  0  0  0  0  0
  -25.9022  -34.9481   23.5135 C   0  0  0  0  0  0
  -16.5334  -29.9102   23.6332 C   0  0  0  0  0  0
  -16.7247  -28.6527   23.0340 C   0  0  0  0  0  0
  -26.4483  -31.6587   25.0669 C   0  0  0  0  0  0
  -25.3797  -31.3654   26.1446 C   0  0  0  0  0  0
  -27.0315  -30.3056   24.5977 C   0  0  0  0  0  0
  -27.6082  -32.4298   25.7399 C   0  0  0  0  0  0
  -27.5580  -37.1812   24.8460 C   0  0  0  0  0  0
  -21.4119  -29.3019   22.3767 N   0  0  0  0  0  0
  -26.4288  -37.3804   23.9407 N   0  0  0  0  0  0
  -24.6600  -31.0823   22.0981 N   0  0  0  0  0  0
  -23.4171  -28.8194   23.3052 O   0  0  0  0  0  0
  -28.4439  -26.8164   20.0589 O   0  0  0  0  0  0
  -26.5591  -34.8944   22.4701 O   0  0  0  0  0  0
  -23.5313  -32.1380   23.7560 O   0  0  0  0  0  0
  -30.5871  -26.0678   21.7275 C   0  0  0  0  0  0
  -31.5581  -25.7884   22.7081 C   0  0  0  0  0  0
  -29.4119  -24.0238   22.3194 C   0  0  0  0  0  0
  -29.5012  -25.1874   21.5314 C   0  0  0  0  0  0
  -31.4667  -24.6242   23.4995 C   0  0  0  0  0  0
  -30.3837  -23.7325   23.2989 C   0  0  0  0  0  0
  -32.5438  -24.3566   24.5389 C   0  0  0  0  0  0
  -30.2547  -22.4187   24.0535 C   0  0  0  0  0  0
  -28.4473  -25.4527   20.4673 C   0  0  0  0  0  0
  -30.8343  -21.2713   23.2170 C   0  0  0  0  0  0
  -30.3250  -19.8781   23.6051 C   0  0  0  0  0  0
  -30.9057  -18.8387   22.6414 C   0  0  0  0  0  0
  -30.2962  -17.4355   22.7414 C   0  0  0  0  0  0
  -30.8997  -16.5679   21.6329 C   0  0  0  0  0  0
  -30.3189  -15.2339   21.5272 N   0  0  0  0  0  0
  -31.4556  -12.3346   19.0996 H   0  0  0  0  0  0
  -30.2792  -11.2429   19.7712 H   0  0  0  0  0  0
  -29.7130  -11.7972   17.4017 H   0  0  0  0  0  0
  -29.6713  -13.5007   17.7809 H   0  0  0  0  0  0
  -27.8032  -11.3273   18.7897 H   0  0  0  0  0  0
  -27.3620  -12.6860   17.7872 H   0  0  0  0  0  0
  -27.7328  -14.2585   19.6079 H   0  0  0  0  0  0
  -28.6616  -11.9206   21.3426 H   0  0  0  0  0  0
  -28.4793  -13.5607   21.8812 H   0  0  0  0  0  0
  -25.2756   -9.5719   22.4739 H   0  0  0  0  0  0
  -24.0041   -7.4647   22.7458 H   0  0  0  0  0  0
  -21.0846   -8.8737   19.8931 H   0  0  0  0  0  0
  -22.3661  -10.9672   19.6175 H   0  0  0  0  0  0
  -21.1992   -7.6148   23.9724 H   0  0  0  0  0  0
  -21.1483   -6.0509   25.9080 H   0  0  0  0  0  0
  -22.0610   -2.7611   23.2813 H   0  0  0  0  0  0
  -22.4084  -11.9936   22.4811 H   0  0  0  0  0  0
  -21.1102  -13.1274   22.2548 H   0  0  0  0  0  0
  -24.6852  -15.8551   20.5194 H   0  0  0  0  0  0
  -26.3061  -15.6187   20.1055 H   0  0  0  0  0  0
  -26.7076  -32.5578   23.1156 H   0  0  0  0  0  0
  -25.0021  -33.9765   25.0469 H   0  0  0  0  0  0
  -22.6805  -31.3041   21.4128 H   0  0  0  0  0  0
  -23.3733  -35.9664   23.3327 H   0  0  0  0  0  0
  -24.3565  -36.8935   22.2064 H   0  0  0  0  0  0
  -23.7234  -37.6540   23.6655 H   0  0  0  0  0  0
  -25.9989  -31.6118   20.5696 H   0  0  0  0  0  0
  -26.8144  -30.9279   21.9473 H   0  0  0  0  0  0
  -28.0970  -29.1628   21.1352 H   0  0  0  0  0  0
  -26.0913  -25.9736   19.0381 H   0  0  0  0  0  0
  -23.9815  -27.2656   19.0675 H   0  0  0  0  0  0
  -23.7000  -30.5836   19.3998 H   0  0  0  0  0  0
  -22.7268  -29.2273   19.8774 H   0  0  0  0  0  0
  -25.1282  -36.1994   25.0842 H   0  0  0  0  0  0
  -20.9920  -28.3219   24.1475 H   0  0  0  0  0  0
  -20.5662  -26.2252   23.3618 H   0  0  0  0  0  0
  -21.6628  -26.7460   22.1231 H   0  0  0  0  0  0
  -19.6913  -25.6313   21.1226 H   0  0  0  0  0  0
  -19.6714  -27.3233   20.6777 H   0  0  0  0  0  0
  -17.4197  -26.6702   21.3985 H   0  0  0  0  0  0
  -18.0288  -26.0087   22.8996 H   0  0  0  0  0  0
  -19.7916  -30.7246   24.2319 H   0  0  0  0  0  0
  -17.5004  -31.6277   24.5175 H   0  0  0  0  0  0
  -15.5336  -30.3020   23.7658 H   0  0  0  0  0  0
  -15.8633  -28.0869   22.7041 H   0  0  0  0  0  0
  -24.5953  -30.7029   25.7769 H   0  0  0  0  0  0
  -24.9011  -32.2800   26.4962 H   0  0  0  0  0  0
  -25.8182  -30.8760   27.0148 H   0  0  0  0  0  0
  -26.2796  -29.6742   24.1233 H   0  0  0  0  0  0
  -27.4356  -29.7363   25.4353 H   0  0  0  0  0  0
  -27.8508  -30.4415   23.8913 H   0  0  0  0  0  0
  -27.2712  -33.3569   26.2047 H   0  0  0  0  0  0
  -28.3837  -32.6915   25.0186 H   0  0  0  0  0  0
  -28.0818  -31.8386   26.5245 H   0  0  0  0  0  0
  -28.2611  -38.0100   24.7509 H   0  0  0  0  0  0
  -28.1073  -36.2637   24.6285 H   0  0  0  0  0  0
  -27.2300  -37.1466   25.8865 H   0  0  0  0  0  0
  -20.9290  -29.8719   21.6968 H   0  0  0  0  0  0
  -26.0188  -38.2881   24.1432 H   0  0  0  0  0  0
  -30.6850  -26.9601   21.1247 H   0  0  0  0  0  0
  -32.3837  -26.4736   22.8441 H   0  0  0  0  0  0
  -28.5957  -23.3344   22.1513 H   0  0  0  0  0  0
  -33.3815  -25.0457   24.4273 H   0  0  0  0  0  0
  -32.9370  -23.3433   24.4528 H   0  0  0  0  0  0
  -32.1416  -24.4900   25.5428 H   0  0  0  0  0  0
  -29.1964  -22.2442   24.2530 H   0  0  0  0  0  0
  -30.7345  -22.4614   25.0312 H   0  0  0  0  0  0
  -27.4793  -25.1320   20.8582 H   0  0  0  0  0  0
  -28.6649  -24.8257   19.6021 H   0  0  0  0  0  0
  -31.9238  -21.3029   23.2503 H   0  0  0  0  0  0
  -30.5649  -21.4365   22.1725 H   0  0  0  0  0  0
  -29.2351  -19.8571   23.5564 H   0  0  0  0  0  0
  -30.5995  -19.6432   24.6339 H   0  0  0  0  0  0
  -31.9860  -18.7809   22.7836 H   0  0  0  0  0  0
  -30.7622  -19.1965   21.6204 H   0  0  0  0  0  0
  -29.2131  -17.4907   22.6293 H   0  0  0  0  0  0
  -30.4994  -17.0007   23.7214 H   0  0  0  0  0  0
  -31.9787  -16.4893   21.7852 H   0  0  0  0  0  0
  -30.7582  -17.0618   20.6690 H   0  0  0  0  0  0
  -29.4805  -15.0087   22.0431 H   0  0  0  0  0  0
  1 25  1  0  0  0
  1 30  2  0  0  0
  1 85  1  0  0  0
  2  3  1  0  0  0
  2 25  1  0  0  0
  2 86  1  0  0  0
  2 87  1  0  0  0
  3  4  1  0  0  0
  3 88  1  0  0  0
  3 89  1  0  0  0
  4  5  1  0  0  0
  4 90  1  0  0  0
  4 91  1  0  0  0
  5  6  1  0  0  0
  5 26  1  0  0  0
  5 92  1  0  0  0
  6 25  1  0  0  0
  6 93  1  0  0  0
  6 94  1  0  0  0
  7  8  2  0  0  0
  7 26  1  0  0  0
  7 29  1  0  0  0
  8  9  1  0  0  0
  8 22  1  0  0  0
  9 10  1  0  0  0
  9 27  2  0  0  0
 10 11  2  0  0  0
 10 15  1  0  0  0
 11 12  1  0  0  0
 11 95  1  0  0  0
 12 13  2  0  0  0
 12 96  1  0  0  0
 13 14  1  0  0  0
 13 31  1  0  0  0
 14 15  2  0  0  0
 14 97  1  0  0  0
 15 98  1  0  0  0
 16 17  2  0  0  0
 16 21  1  0  0  0
 16 31  1  0  0  0
 17 18  1  0  0  0
 17 99  1  0  0  0
 18 19  2  0  0  0
 18100  1  0  0  0
 19 20  1  0  0  0
 19 24  1  0  0  0
 20 21  2  0  0  0
 20101  1  0  0  0
 21 23  1  0  0  0
 22 28  1  0  0  0
 22 32  2  0  0  0
 26 27  1  0  0  0
 28102  1  0  0  0
 28103  1  0  0  0
 29104  1  0  0  0
 29105  1  0  0  0
 33 34  1  0  0  0
 33 66  1  0  0  0
 33 70  2  0  0  0
 34 36  1  0  0  0
 34 59  1  0  0  0
 34106  1  0  0  0
 35 44  2  0  0  0
 35 45  1  0  0  0
 35 68  1  0  0  0
 36 56  1  0  0  0
 36107  1  0  0  0
 37 39  1  0  0  0
 37 47  1  0  0  0
 37 66  1  0  0  0
 37108  1  0  0  0
 38 43  2  0  0  0
 38 46  1  0  0  0
 38 47  1  0  0  0
 39 64  1  0  0  0
 39 67  2  0  0  0
 40 52  1  0  0  0
 40 53  2  0  0  0
 40 58  1  0  0  0
 41109  1  0  0  0
 41110  1  0  0  0
 41111  1  0  0  0
 41 48  1  0  0  0
 42 43  1  0  0  0
 42 66  1  0  0  0
 42112  1  0  0  0
 42113  1  0  0  0
 43 44  1  0  0  0
 44114  1  0  0  0
 45 46  2  0  0  0
 45115  1  0  0  0
 46116  1  0  0  0
 47117  1  0  0  0
 47118  1  0  0  0
 48 56  1  0  0  0
 48 65  1  0  0  0
 48119  1  0  0  0
 49 50  1  0  0  0
 49 53  1  0  0  0
 49 64  1  0  0  0
 49120  1  0  0  0
 50 51  1  0  0  0
 50121  1  0  0  0
 50122  1  0  0  0
 51 52  1  0  0  0
 51123  1  0  0  0
 51124  1  0  0  0
 52125  1  0  0  0
 52126  1  0  0  0
 53 54  1  0  0  0
 54 55  2  0  0  0
 54127  1  0  0  0
 55 57  1  0  0  0
 55128  1  0  0  0
 56 69  2  0  0  0
 57 58  2  0  0  0
 57129  1  0  0  0
 58130  1  0  0  0
 59 60  1  0  0  0
 59 61  1  0  0  0
 59 62  1  0  0  0
 60131  1  0  0  0
 60132  1  0  0  0
 60133  1  0  0  0
 61134  1  0  0  0
 61135  1  0  0  0
 61136  1  0  0  0
 62137  1  0  0  0
 62138  1  0  0  0
 62139  1  0  0  0
 63 65  1  0  0  0
 63140  1  0  0  0
 63141  1  0  0  0
 63142  1  0  0  0
 64143  1  0  0  0
 65144  1  0  0  0
 68 79  1  0  0  0
 71 72  2  0  0  0
 71 74  1  0  0  0
 71145  1  0  0  0
 72 75  1  0  0  0
 72146  1  0  0  0
 73 74  2  0  0  0
 73 76  1  0  0  0
 73147  1  0  0  0
 74 79  1  0  0  0
 75 76  2  0  0  0
 75 77  1  0  0  0
 76 78  1  0  0  0
 77148  1  0  0  0
 77149  1  0  0  0
 77150  1  0  0  0
 78 80  1  0  0  0
 78151  1  0  0  0
 78152  1  0  0  0
 79153  1  0  0  0
 79154  1  0  0  0
 80 81  1  0  0  0
 80155  1  0  0  0
 80156  1  0  0  0
 81 82  1  0  0  0
 81157  1  0  0  0
 81158  1  0  0  0
 82 83  1  0  0  0
 82159  1  0  0  0
 82160  1  0  0  0
 83 84  1  0  0  0
 83161  1  0  0  0
 83162  1  0  0  0
 84 85  1  0  0  0
 84163  1  0  0  0
 84164  1  0  0  0
 85165  1  0  0  0
M  ISO  4   1 100  68 101  79 101  85 100
M  END
> <chiral flag>
0

> <version>
0

> <s_m_source_file>
/data/baiqing/PycharmProjects/Reinvent-master-3.2/result/LINK_invent/BTK/process_docking_weight1_custom_sum_contain_oxygen_bond_distance_aromatic_linkinvent_7_9_3/rearranged_h_0035.sdf

> <i_m_source_file_index>
34

> <r_mmod_Potential_Energy-OPLS-2005>
-59.2799758911133

> <r_mmod_Stretch_Energy-OPLS-2005>
31.0197582244873

> <r_mmod_Bend_Energy-OPLS-2005>
92.8015747070312

> <r_mmod_Torsional_Energy-OPLS-2005>
217.880294799805

> <r_mmod_Improper_Torsional_Energy-OPLS-2005>
2.17454409599304

> <r_mmod_Van_der_Waal_Energy-OPLS-2005>
158.825775146484

> <r_mmod_Electrostatic_Energy-OPLS-2005>
-369.965789794922

> <r_mmod_Solvation_Energy-OPLS-2005>
-199.864776611328

> <b_mmod_Minimization_Converged-OPLS-2005>
0

> <r_mmod_RMS_Derivative-OPLS-2005>
2.50032663345337

$$$$
34
                    3D
 Structure written by MMmdl.
177185  0  0  1  0            999 V2000
  -30.6929  -14.5700   20.5157 C   0  0  0  0  0  0
  -30.4314  -12.3565   19.4339 C   0  0  0  0  0  0
  -29.5038  -12.4963   18.2085 C   0  0  0  0  0  0
  -28.0274  -12.3491   18.6260 C   0  0  0  0  0  0
  -27.6588  -13.2170   19.8595 C   0  0  2  0  0  0
  -28.7068  -13.0663   20.9856 C   0  0  0  0  0  0
  -25.2581  -13.8179   20.5625 C   0  0  0  0  0  0
  -24.1840  -13.0450   20.9149 C   0  0  0  0  0  0
  -24.6423  -11.6926   20.8723 C   0  0  0  0  0  0
  -23.9087  -10.4304   21.0396 C   0  0  0  0  0  0
  -24.3636   -9.4218   21.9185 C   0  0  0  0  0  0
  -23.6286   -8.2277   22.0781 C   0  0  0  0  0  0
  -22.4262   -8.0322   21.3578 C   0  0  0  0  0  0
  -21.9903   -9.0292   20.4675 C   0  0  0  0  0  0
  -22.7253  -10.2154   20.3062 C   0  0  0  0  0  0
  -21.6861   -6.0751   22.5282 C   0  0  0  0  0  0
  -21.4015   -6.5647   23.8217 C   0  0  0  0  0  0
  -21.3645   -5.6793   24.9173 C   0  0  0  0  0  0
  -21.6054   -4.3066   24.7215 C   0  0  0  0  0  0
  -21.8817   -3.8157   23.4330 C   0  0  0  0  0  0
  -21.9179   -4.6974   22.3389 C   0  0  0  0  0  0
  -22.7855  -13.5261   21.1785 C   0  0  0  0  0  0
  -22.1659   -4.2167   21.0967 F   0  0  0  0  0  0
  -21.5617   -3.4553   25.7725 F   0  0  0  0  0  0
  -30.0243  -13.3814   20.4123 N   0  0  0  0  0  0
  -26.3022  -12.9374   20.3290 N   0  0  0  0  0  0
  -25.9364  -11.6530   20.5764 N   0  0  0  0  0  0
  -22.0470  -12.8299   22.0346 N   0  0  0  0  0  0
  -25.4312  -15.1908   20.4015 N   0  0  0  0  0  0
  -31.8548  -14.6972   20.1278 O   0  0  0  0  0  0
  -21.6645   -6.8907   21.4255 O   0  0  0  0  0  0
  -22.3547  -14.5553   20.6602 O   0  0  0  0  0  0
  -24.6297  -31.8652   23.2068 C   0  0  0  0  0  0
  -25.9153  -32.4799   23.8373 C   0  0  1  0  0  0
  -27.2151  -27.3312   20.1001 C   0  0  0  0  0  0
  -25.5970  -33.8597   24.2298 N   0  0  0  0  0  0
  -23.4188  -30.4967   21.5505 C   0  0  2  0  0  0
  -24.8603  -28.9613   20.1168 C   0  0  0  0  0  0
  -22.7474  -29.4686   22.4949 C   0  0  0  0  0  0
  -18.0289  -28.1421   22.8503 C   0  0  0  0  0  0
  -24.1486  -36.7286   23.2632 C   0  0  0  0  0  0
  -25.9653  -30.7992   21.3788 C   0  0  0  0  0  0
  -26.0369  -29.4311   20.7145 C   0  0  0  0  0  0
  -27.2178  -28.6285   20.6985 C   0  0  0  0  0  0
  -26.0006  -26.9190   19.4913 C   0  0  0  0  0  0
  -24.8437  -27.7076   19.4996 C   0  0  0  0  0  0
  -23.6321  -29.8421   20.1643 C   0  0  0  0  0  0
  -25.4112  -36.3082   24.0330 C   0  0  1  0  0  0
  -20.5894  -28.3733   23.1277 C   0  0  2  0  0  0
  -20.6790  -26.9458   22.5414 C   0  0  0  0  0  0
  -19.5749  -26.6418   21.5229 C   0  0  0  0  0  0
  -18.1928  -26.7976   22.1642 C   0  0  0  0  0  0
  -19.1546  -28.8892   23.2894 C   0  0  0  0  0  0
  -18.9479  -30.1494   23.8914 C   0  0  0  0  0  0
  -17.6475  -30.6622   24.0578 C   0  0  0  0  0  0
  -25.9069  -34.9463   23.5108 C   0  0  0  0  0  0
  -16.5362  -29.9125   23.6339 C   0  0  0  0  0  0
  -16.7275  -28.6543   23.0365 C   0  0  0  0  0  0
  -26.4526  -31.6600   25.0744 C   0  0  0  0  0  0
  -25.3745  -31.3778   26.1465 C   0  0  0  0  0  0
  -27.0358  -30.3000   24.6239 C   0  0  0  0  0  0
  -27.6093  -32.4325   25.7512 C   0  0  0  0  0  0
  -27.5579  -37.1785   24.8466 C   0  0  0  0  0  0
  -21.4206  -29.3090   22.3661 N   0  0  0  0  0  0
  -26.4281  -37.3782   23.9421 N   0  0  0  0  0  0
  -24.6903  -31.0681   22.1007 N   0  0  0  0  0  0
  -23.4216  -28.8223   23.3021 O   0  0  0  0  0  0
  -28.3263  -26.4647   20.1303 O   0  0  0  0  0  0
  -26.5617  -34.8925   22.4663 O   0  0  0  0  0  0
  -23.5460  -32.1462   23.7385 O   0  0  0  0  0  0
  -29.7244  -23.3939   21.1918 C   0  0  0  0  0  0
  -28.2858  -22.5360   19.4473 C   0  0  0  0  0  0
  -30.7263  -22.2052   21.0052 C   0  0  0  0  0  0
  -29.1820  -21.3178   19.1223 C   0  0  0  0  0  0
  -29.0406  -23.8261   19.8787 C   0  0  1  0  0  0
  -30.3403  -20.9508   20.1111 C   0  0  1  0  0  0
  -37.8058  -19.2931   18.8089 C   0  0  0  0  0  0
  -28.0198  -25.0354   19.9150 C   0  0  0  0  0  0
  -31.5659  -20.6488   19.1982 C   0  0  0  0  0  0
  -30.0286  -19.6654   20.9981 C   0  0  0  0  0  0
  -36.5541  -20.1238   18.5098 C   0  0  0  0  0  0
  -32.8682  -20.1718   19.8687 C   0  0  0  0  0  0
  -29.8726  -18.2210   20.3535 C   0  0  0  0  0  0
  -35.3668  -19.7390   19.4059 C   0  0  0  0  0  0
  -34.0540  -20.3502   18.9047 C   0  0  0  0  0  0
  -30.4717  -17.0316   21.2002 C   0  0  0  0  0  0
  -29.9715  -15.6502   20.9141 N   0  0  0  0  0  0
  -31.4765  -12.4487   19.1327 H   0  0  0  0  0  0
  -30.3430  -11.3624   19.8730 H   0  0  0  0  0  0
  -29.7561  -11.7475   17.4570 H   0  0  0  0  0  0
  -29.6606  -13.4658   17.7302 H   0  0  0  0  0  0
  -27.8539  -11.2957   18.8521 H   0  0  0  0  0  0
  -27.3738  -12.5937   17.7884 H   0  0  0  0  0  0
  -27.6830  -14.2538   19.5246 H   0  0  0  0  0  0
  -28.7049  -12.0481   21.3761 H   0  0  0  0  0  0
  -28.4698  -13.7090   21.8346 H   0  0  0  0  0  0
  -25.2801   -9.5687   22.4735 H   0  0  0  0  0  0
  -24.0002   -7.4663   22.7493 H   0  0  0  0  0  0
  -21.0846   -8.8816   19.8962 H   0  0  0  0  0  0
  -22.3747  -10.9691   19.6147 H   0  0  0  0  0  0
  -21.2055   -7.6161   23.9726 H   0  0  0  0  0  0
  -21.1452   -6.0529   25.9075 H   0  0  0  0  0  0
  -22.0607   -2.7623   23.2822 H   0  0  0  0  0  0
  -22.4065  -12.0014   22.4845 H   0  0  0  0  0  0
  -21.1076  -13.1379   22.2460 H   0  0  0  0  0  0
  -24.6699  -15.8508   20.5188 H   0  0  0  0  0  0
  -26.2870  -15.6263   20.0830 H   0  0  0  0  0  0
  -26.7240  -32.5479   23.1136 H   0  0  0  0  0  0
  -25.0107  -33.9739   25.0435 H   0  0  0  0  0  0
  -22.7128  -31.3187   21.4123 H   0  0  0  0  0  0
  -23.3747  -35.9616   23.3296 H   0  0  0  0  0  0
  -24.3572  -36.8907   22.2045 H   0  0  0  0  0  0
  -23.7242  -37.6490   23.6655 H   0  0  0  0  0  0
  -26.1050  -31.5625   20.6118 H   0  0  0  0  0  0
  -26.8441  -30.8398   22.0128 H   0  0  0  0  0  0
  -28.1182  -28.9868   21.1777 H   0  0  0  0  0  0
  -25.8737  -25.9650   19.0088 H   0  0  0  0  0  0
  -23.9414  -27.3322   19.0376 H   0  0  0  0  0  0
  -23.7608  -30.6250   19.4159 H   0  0  0  0  0  0
  -22.7496  -29.2802   19.8526 H   0  0  0  0  0  0
  -25.1275  -36.1919   25.0817 H   0  0  0  0  0  0
  -20.9997  -28.3335   24.1392 H   0  0  0  0  0  0
  -20.5727  -26.2346   23.3623 H   0  0  0  0  0  0
  -21.6654  -26.7514   22.1177 H   0  0  0  0  0  0
  -19.6906  -25.6330   21.1255 H   0  0  0  0  0  0
  -19.6674  -27.3237   20.6765 H   0  0  0  0  0  0
  -17.4194  -26.6745   21.4045 H   0  0  0  0  0  0
  -18.0311  -26.0119   22.9035 H   0  0  0  0  0  0
  -19.7951  -30.7316   24.2288 H   0  0  0  0  0  0
  -17.5028  -31.6293   24.5201 H   0  0  0  0  0  0
  -15.5369  -30.3029   23.7674 H   0  0  0  0  0  0
  -15.8672  -28.0860   22.7087 H   0  0  0  0  0  0
  -24.5908  -30.7140   25.7802 H   0  0  0  0  0  0
  -24.8960  -32.2973   26.4851 H   0  0  0  0  0  0
  -25.8050  -30.8979   27.0263 H   0  0  0  0  0  0
  -26.2948  -29.6739   24.1256 H   0  0  0  0  0  0
  -27.4013  -29.7276   25.4776 H   0  0  0  0  0  0
  -27.8836  -30.4237   23.9496 H   0  0  0  0  0  0
  -27.2713  -33.3629   26.2084 H   0  0  0  0  0  0
  -28.3905  -32.6879   25.0342 H   0  0  0  0  0  0
  -28.0758  -31.8453   26.5432 H   0  0  0  0  0  0
  -28.2588  -38.0088   24.7506 H   0  0  0  0  0  0
  -28.1071  -36.2614   24.6272 H   0  0  0  0  0  0
  -27.2296  -37.1421   25.8869 H   0  0  0  0  0  0
  -20.9382  -29.8783   21.6844 H   0  0  0  0  0  0
  -26.0153  -38.2847   24.1443 H   0  0  0  0  0  0
  -30.2571  -24.2459   21.6187 H   0  0  0  0  0  0
  -28.9693  -23.1207   21.9306 H   0  0  0  0  0  0
  -27.5782  -22.2502   20.2280 H   0  0  0  0  0  0
  -27.6741  -22.7391   18.5670 H   0  0  0  0  0  0
  -31.0276  -21.8598   21.9949 H   0  0  0  0  0  0
  -31.6325  -22.6598   20.6034 H   0  0  0  0  0  0
  -29.5913  -21.5244   18.1310 H   0  0  0  0  0  0
  -28.5494  -20.4434   18.9677 H   0  0  0  0  0  0
  -29.8041  -24.0608   19.1340 H   0  0  0  0  0  0
  -38.6399  -19.6004   18.1768 H   0  0  0  0  0  0
  -37.6216  -18.2349   18.6165 H   0  0  0  0  0  0
  -38.1194  -19.3951   19.8493 H   0  0  0  0  0  0
  -27.2081  -24.7550   20.5886 H   0  0  0  0  0  0
  -27.6262  -24.9898   18.9013 H   0  0  0  0  0  0
  -31.7957  -21.5560   18.6371 H   0  0  0  0  0  0
  -31.2983  -19.9238   18.4288 H   0  0  0  0  0  0
  -29.1362  -19.8659   21.5930 H   0  0  0  0  0  0
  -30.8235  -19.5878   21.7401 H   0  0  0  0  0  0
  -36.2874  -19.9892   17.4592 H   0  0  0  0  0  0
  -36.7760  -21.1857   18.6321 H   0  0  0  0  0  0
  -32.7725  -19.1233   20.1540 H   0  0  0  0  0  0
  -33.0617  -20.7258   20.7885 H   0  0  0  0  0  0
  -30.3353  -18.1867   19.3700 H   0  0  0  0  0  0
  -28.8128  -18.0384   20.1759 H   0  0  0  0  0  0
  -35.5643  -20.0599   20.4299 H   0  0  0  0  0  0
  -35.2623  -18.6537   19.4351 H   0  0  0  0  0  0
  -34.1984  -21.4158   18.7174 H   0  0  0  0  0  0
  -33.8066  -19.9045   17.9396 H   0  0  0  0  0  0
  -30.2723  -17.2105   22.2568 H   0  0  0  0  0  0
  -31.5586  -17.0562   21.1070 H   0  0  0  0  0  0
  -29.0092  -15.4641   21.1478 H   0  0  0  0  0  0
  1 25  1  0  0  0
  1 30  2  0  0  0
  1 87  1  0  0  0
  2  3  1  0  0  0
  2 25  1  0  0  0
  2 88  1  0  0  0
  2 89  1  0  0  0
  3  4  1  0  0  0
  3 90  1  0  0  0
  3 91  1  0  0  0
  4  5  1  0  0  0
  4 92  1  0  0  0
  4 93  1  0  0  0
  5  6  1  0  0  0
  5 26  1  0  0  0
  5 94  1  0  0  0
  6 25  1  0  0  0
  6 95  1  0  0  0
  6 96  1  0  0  0
  7  8  2  0  0  0
  7 26  1  0  0  0
  7 29  1  0  0  0
  8  9  1  0  0  0
  8 22  1  0  0  0
  9 10  1  0  0  0
  9 27  2  0  0  0
 10 11  2  0  0  0
 10 15  1  0  0  0
 11 12  1  0  0  0
 11 97  1  0  0  0
 12 13  2  0  0  0
 12 98  1  0  0  0
 13 14  1  0  0  0
 13 31  1  0  0  0
 14 15  2  0  0  0
 14 99  1  0  0  0
 15100  1  0  0  0
 16 17  2  0  0  0
 16 21  1  0  0  0
 16 31  1  0  0  0
 17 18  1  0  0  0
 17101  1  0  0  0
 18 19  2  0  0  0
 18102  1  0  0  0
 19 20  1  0  0  0
 19 24  1  0  0  0
 20 21  2  0  0  0
 20103  1  0  0  0
 21 23  1  0  0  0
 22 28  1  0  0  0
 22 32  2  0  0  0
 26 27  1  0  0  0
 28104  1  0  0  0
 28105  1  0  0  0
 29106  1  0  0  0
 29107  1  0  0  0
 33 34  1  0  0  0
 33 66  1  0  0  0
 33 70  2  0  0  0
 34 36  1  0  0  0
 34 59  1  0  0  0
 34108  1  0  0  0
 35 44  2  0  0  0
 35 45  1  0  0  0
 35 68  1  0  0  0
 36 56  1  0  0  0
 36109  1  0  0  0
 37 39  1  0  0  0
 37 47  1  0  0  0
 37 66  1  0  0  0
 37110  1  0  0  0
 38 43  2  0  0  0
 38 46  1  0  0  0
 38 47  1  0  0  0
 39 64  1  0  0  0
 39 67  2  0  0  0
 40 52  1  0  0  0
 40 53  2  0  0  0
 40 58  1  0  0  0
 41111  1  0  0  0
 41112  1  0  0  0
 41113  1  0  0  0
 41 48  1  0  0  0
 42 43  1  0  0  0
 42 66  1  0  0  0
 42114  1  0  0  0
 42115  1  0  0  0
 43 44  1  0  0  0
 44116  1  0  0  0
 45 46  2  0  0  0
 45117  1  0  0  0
 46118  1  0  0  0
 47119  1  0  0  0
 47120  1  0  0  0
 48 56  1  0  0  0
 48 65  1  0  0  0
 48121  1  0  0  0
 49 50  1  0  0  0
 49 53  1  0  0  0
 49 64  1  0  0  0
 49122  1  0  0  0
 50 51  1  0  0  0
 50123  1  0  0  0
 50124  1  0  0  0
 51 52  1  0  0  0
 51125  1  0  0  0
 51126  1  0  0  0
 52127  1  0  0  0
 52128  1  0  0  0
 53 54  1  0  0  0
 54 55  2  0  0  0
 54129  1  0  0  0
 55 57  1  0  0  0
 55130  1  0  0  0
 56 69  2  0  0  0
 57 58  2  0  0  0
 57131  1  0  0  0
 58132  1  0  0  0
 59 60  1  0  0  0
 59 61  1  0  0  0
 59 62  1  0  0  0
 60133  1  0  0  0
 60134  1  0  0  0
 60135  1  0  0  0
 61136  1  0  0  0
 61137  1  0  0  0
 61138  1  0  0  0
 62139  1  0  0  0
 62140  1  0  0  0
 62141  1  0  0  0
 63 65  1  0  0  0
 63142  1  0  0  0
 63143  1  0  0  0
 63144  1  0  0  0
 64145  1  0  0  0
 65146  1  0  0  0
 68 78  1  0  0  0
 71 73  1  0  0  0
 71 75  1  0  0  0
 71147  1  0  0  0
 71148  1  0  0  0
 72 74  1  0  0  0
 72 75  1  0  0  0
 72149  1  0  0  0
 72150  1  0  0  0
 73 76  1  0  0  0
 73151  1  0  0  0
 73152  1  0  0  0
 74 76  1  0  0  0
 74153  1  0  0  0
 74154  1  0  0  0
 75 78  1  0  0  0
 75155  1  0  0  0
 76 79  1  0  0  0
 76 80  1  0  0  0
 77 81  1  0  0  0
 77156  1  0  0  0
 77157  1  0  0  0
 77158  1  0  0  0
 78159  1  0  0  0
 78160  1  0  0  0
 79 82  1  0  0  0
 79161  1  0  0  0
 79162  1  0  0  0
 80 83  1  0  0  0
 80163  1  0  0  0
 80164  1  0  0  0
 81 84  1  0  0  0
 81165  1  0  0  0
 81166  1  0  0  0
 82 85  1  0  0  0
 82167  1  0  0  0
 82168  1  0  0  0
 83 86  1  0  0  0
 83169  1  0  0  0
 83170  1  0  0  0
 84 85  1  0  0  0
 84171  1  0  0  0
 84172  1  0  0  0
 85173  1  0  0  0
 85174  1  0  0  0
 86 87  1  0  0  0
 86175  1  0  0  0
 86176  1  0  0  0
 87177  1  0  0  0
M  ISO  4   1 100  68 101  78 101  87 100
M  END
> <chiral flag>
0

> <version>
0

> <s_m_source_file>
/data/baiqing/PycharmProjects/Reinvent-master-3.2/result/LINK_invent/BTK/process_docking_weight1_custom_sum_contain_oxygen_bond_distance_aromatic_linkinvent_7_9_3/rearranged_h_0035.sdf

> <i_m_source_file_index>
35

> <r_mmod_Potential_Energy-OPLS-2005>
146.542175292969

> <r_mmod_Stretch_Energy-OPLS-2005>
72.5748901367188

> <r_mmod_Bend_Energy-OPLS-2005>
174.065383911133

> <r_mmod_Torsional_Energy-OPLS-2005>
271.010711669922

> <r_mmod_Improper_Torsional_Energy-OPLS-2005>
3.51106190681458

> <r_mmod_Van_der_Waal_Energy-OPLS-2005>
146.906539916992

> <r_mmod_Electrostatic_Energy-OPLS-2005>
-369.683624267578

> <r_mmod_Solvation_Energy-OPLS-2005>
-190.804306030273

> <b_mmod_Minimization_Converged-OPLS-2005>
0

> <r_mmod_RMS_Derivative-OPLS-2005>
3.36204361915588

$$$$
35
                    3D
 Structure written by MMmdl.
155163  0  0  1  0            999 V2000
  -30.7266  -14.5786   20.4231 C   0  0  0  0  0  0
  -30.4060  -12.3420   19.4475 C   0  0  0  0  0  0
  -29.4864  -12.4758   18.2154 C   0  0  0  0  0  0
  -28.0123  -12.3354   18.6452 C   0  0  0  0  0  0
  -27.6490  -13.2285   19.8596 C   0  0  2  0  0  0
  -28.7052  -13.1447   20.9873 C   0  0  0  0  0  0
  -25.2546  -13.8238   20.5689 C   0  0  0  0  0  0
  -24.1785  -13.0490   20.9197 C   0  0  0  0  0  0
  -24.6362  -11.6970   20.8776 C   0  0  0  0  0  0
  -23.9041  -10.4316   21.0424 C   0  0  0  0  0  0
  -24.3593   -9.4238   21.9194 C   0  0  0  0  0  0
  -23.6287   -8.2266   22.0754 C   0  0  0  0  0  0
  -22.4276   -8.0284   21.3536 C   0  0  0  0  0  0
  -21.9899   -9.0265   20.4651 C   0  0  0  0  0  0
  -22.7215  -10.2165   20.3070 C   0  0  0  0  0  0
  -21.6869   -6.0719   22.5272 C   0  0  0  0  0  0
  -21.4017   -6.5625   23.8203 C   0  0  0  0  0  0
  -21.3663   -5.6788   24.9162 C   0  0  0  0  0  0
  -21.6047   -4.3052   24.7235 C   0  0  0  0  0  0
  -21.8826   -3.8136   23.4364 C   0  0  0  0  0  0
  -21.9199   -4.6939   22.3408 C   0  0  0  0  0  0
  -22.7816  -13.5266   21.1875 C   0  0  0  0  0  0
  -22.1671   -4.2136   21.0981 F   0  0  0  0  0  0
  -21.5653   -3.4535   25.7742 F   0  0  0  0  0  0
  -30.0179  -13.4129   20.3870 N   0  0  0  0  0  0
  -26.2982  -12.9437   20.3381 N   0  0  0  0  0  0
  -25.9303  -11.6600   20.5852 N   0  0  0  0  0  0
  -22.0483  -12.8194   22.0420 N   0  0  0  0  0  0
  -25.4310  -15.1936   20.3993 N   0  0  0  0  0  0
  -31.9282  -14.5932   20.1616 O   0  0  0  0  0  0
  -21.6661   -6.8862   21.4220 O   0  0  0  0  0  0
  -22.3464  -14.5555   20.6762 O   0  0  0  0  0  0
  -24.6282  -31.8623   23.2021 C   0  0  0  0  0  0
  -25.9147  -32.4787   23.8340 C   0  0  1  0  0  0
  -27.2139  -27.3297   20.0951 C   0  0  0  0  0  0
  -25.5967  -33.8590   24.2269 N   0  0  0  0  0  0
  -23.4226  -30.4934   21.5403 C   0  0  2  0  0  0
  -24.8604  -28.9590   20.1066 C   0  0  0  0  0  0
  -22.7491  -29.4694   22.4830 C   0  0  0  0  0  0
  -18.0330  -28.1427   22.8482 C   0  0  0  0  0  0
  -24.1490  -36.7274   23.2627 C   0  0  0  0  0  0
  -25.9686  -30.7937   21.3757 C   0  0  0  0  0  0
  -26.0348  -29.4267   20.7095 C   0  0  0  0  0  0
  -27.2162  -28.6262   20.6962 C   0  0  0  0  0  0
  -26.0049  -26.9156   19.4802 C   0  0  0  0  0  0
  -24.8447  -27.7027   19.4903 C   0  0  0  0  0  0
  -23.6357  -29.8420   20.1540 C   0  0  0  0  0  0
  -25.4113  -36.3075   24.0313 C   0  0  1  0  0  0
  -20.5928  -28.3755   23.1215 C   0  0  2  0  0  0
  -20.6824  -26.9463   22.5387 C   0  0  0  0  0  0
  -19.5792  -26.6416   21.5200 C   0  0  0  0  0  0
  -18.1963  -26.7974   22.1611 C   0  0  0  0  0  0
  -19.1579  -28.8904   23.2854 C   0  0  0  0  0  0
  -18.9490  -30.1495   23.8894 C   0  0  0  0  0  0
  -17.6489  -30.6605   24.0599 C   0  0  0  0  0  0
  -25.9072  -34.9456   23.5068 C   0  0  0  0  0  0
  -16.5382  -29.9121   23.6346 C   0  0  0  0  0  0
  -16.7310  -28.6547   23.0336 C   0  0  0  0  0  0
  -26.4526  -31.6608   25.0730 C   0  0  0  0  0  0
  -25.3734  -31.3755   26.1425 C   0  0  0  0  0  0
  -27.0394  -30.3041   24.6221 C   0  0  0  0  0  0
  -27.6078  -32.4343   25.7486 C   0  0  0  0  0  0
  -27.5559  -37.1793   24.8459 C   0  0  0  0  0  0
  -21.4200  -29.3088   22.3568 N   0  0  0  0  0  0
  -26.4294  -37.3764   23.9378 N   0  0  0  0  0  0
  -24.6907  -31.0668   22.0948 N   0  0  0  0  0  0
  -23.4215  -28.8190   23.2884 O   0  0  0  0  0  0
  -28.3223  -26.4671   20.1364 O   0  0  0  0  0  0
  -26.5619  -34.8946   22.4636 O   0  0  0  0  0  0
  -23.5436  -32.1401   23.7347 O   0  0  0  0  0  0
  -30.9766  -19.4835   19.5218 C   0  0  0  0  0  0
  -28.7777  -18.8325   20.1959 C   0  0  0  0  0  0
  -30.0910  -18.4314   19.8593 C   0  0  0  0  0  0
  -30.5426  -20.8320   19.4764 C   0  0  0  0  0  0
  -29.1982  -21.1333   19.7898 C   0  0  0  0  0  0
  -31.5101  -21.9122   19.0189 C   0  0  0  0  0  0
  -30.5966  -16.9590   19.6874 C   0  0  0  0  0  0
  -28.5433  -22.5160   19.4886 C   0  0  0  0  0  0
  -29.0554  -23.8746   20.1226 C   0  0  0  0  0  0
  -28.0535  -25.0516   19.8216 C   0  0  0  0  0  0
  -28.3547  -20.1309   20.1676 N   0  0  0  0  0  0
  -30.0383  -15.7589   20.4022 N   0  0  0  0  0  0
  -31.4510  -12.4090   19.1397 H   0  0  0  0  0  0
  -30.2927  -11.3629   19.9201 H   0  0  0  0  0  0
  -29.7283  -11.7155   17.4694 H   0  0  0  0  0  0
  -29.6351  -13.4463   17.7326 H   0  0  0  0  0  0
  -27.8405  -11.2862   18.8914 H   0  0  0  0  0  0
  -27.3481  -12.5642   17.8119 H   0  0  0  0  0  0
  -27.6526  -14.2504   19.4828 H   0  0  0  0  0  0
  -28.7068  -12.1623   21.4616 H   0  0  0  0  0  0
  -28.4840  -13.8668   21.7762 H   0  0  0  0  0  0
  -25.2765   -9.5735   22.4723 H   0  0  0  0  0  0
  -24.0045   -7.4649   22.7451 H   0  0  0  0  0  0
  -21.0852   -8.8770   19.8931 H   0  0  0  0  0  0
  -22.3683  -10.9684   19.6157 H   0  0  0  0  0  0
  -21.2003   -7.6136   23.9686 H   0  0  0  0  0  0
  -21.1475   -6.0522   25.9055 H   0  0  0  0  0  0
  -22.0598   -2.7602   23.2864 H   0  0  0  0  0  0
  -22.4149  -11.9844   22.4758 H   0  0  0  0  0  0
  -21.1097  -13.1214   22.2714 H   0  0  0  0  0  0
  -24.6792  -15.8649   20.5013 H   0  0  0  0  0  0
  -26.2940  -15.6125   20.0770 H   0  0  0  0  0  0
  -26.7233  -32.5473   23.1089 H   0  0  0  0  0  0
  -25.0207  -33.9746   25.0475 H   0  0  0  0  0  0
  -22.7191  -31.3153   21.3991 H   0  0  0  0  0  0
  -23.3757  -35.9601   23.3314 H   0  0  0  0  0  0
  -24.3579  -36.8871   22.2036 H   0  0  0  0  0  0
  -23.7282  -37.6496   23.6660 H   0  0  0  0  0  0
  -26.1185  -31.5593   20.6119 H   0  0  0  0  0  0
  -26.8447  -30.8268   22.0139 H   0  0  0  0  0  0
  -28.1169  -28.9835   21.1745 H   0  0  0  0  0  0
  -25.8974  -25.9599   18.9907 H   0  0  0  0  0  0
  -23.9449  -27.3277   19.0199 H   0  0  0  0  0  0
  -23.7670  -30.6235   19.4036 H   0  0  0  0  0  0
  -22.7547  -29.2809   19.8402 H   0  0  0  0  0  0
  -25.1309  -36.1884   25.0809 H   0  0  0  0  0  0
  -21.0082  -28.3358   24.1309 H   0  0  0  0  0  0
  -20.5751  -26.2355   23.3597 H   0  0  0  0  0  0
  -21.6678  -26.7501   22.1145 H   0  0  0  0  0  0
  -19.6954  -25.6322   21.1246 H   0  0  0  0  0  0
  -19.6738  -27.3211   20.6713 H   0  0  0  0  0  0
  -17.4235  -26.6719   21.4016 H   0  0  0  0  0  0
  -18.0369  -26.0157   22.9046 H   0  0  0  0  0  0
  -19.7967  -30.7320   24.2236 H   0  0  0  0  0  0
  -17.5052  -31.6291   24.5196 H   0  0  0  0  0  0
  -15.5388  -30.3020   23.7685 H   0  0  0  0  0  0
  -15.8716  -28.0894   22.7002 H   0  0  0  0  0  0
  -24.5874  -30.7184   25.7693 H   0  0  0  0  0  0
  -24.9010  -32.2950   26.4889 H   0  0  0  0  0  0
  -25.8012  -30.8880   27.0188 H   0  0  0  0  0  0
  -26.3002  -29.6761   24.1271 H   0  0  0  0  0  0
  -27.4083  -29.7316   25.4730 H   0  0  0  0  0  0
  -27.8856  -30.4308   23.9470 H   0  0  0  0  0  0
  -27.2697  -33.3599   26.2135 H   0  0  0  0  0  0
  -28.3865  -32.6955   25.0319 H   0  0  0  0  0  0
  -28.0830  -31.8472   26.5355 H   0  0  0  0  0  0
  -28.2586  -38.0080   24.7494 H   0  0  0  0  0  0
  -28.1075  -36.2625   24.6311 H   0  0  0  0  0  0
  -27.2293  -37.1429   25.8874 H   0  0  0  0  0  0
  -20.9335  -29.8823   21.6818 H   0  0  0  0  0  0
  -26.0161  -38.2828   24.1416 H   0  0  0  0  0  0
  -31.9888  -19.2464   19.2258 H   0  0  0  0  0  0
  -28.0334  -18.0848   20.4353 H   0  0  0  0  0  0
  -32.3941  -21.4800   18.5454 H   0  0  0  0  0  0
  -31.8350  -22.5184   19.8670 H   0  0  0  0  0  0
  -31.0475  -22.5787   18.2917 H   0  0  0  0  0  0
  -31.6770  -17.0013   19.8610 H   0  0  0  0  0  0
  -30.5040  -16.7437   18.6178 H   0  0  0  0  0  0
  -27.4802  -22.4159   19.7196 H   0  0  0  0  0  0
  -28.5796  -22.6294   18.4028 H   0  0  0  0  0  0
  -30.0328  -24.1282   19.7240 H   0  0  0  0  0  0
  -29.1831  -23.7535   21.1986 H   0  0  0  0  0  0
  -27.1490  -24.7564   20.3555 H   0  0  0  0  0  0
  -27.8367  -24.9978   18.7534 H   0  0  0  0  0  0
  -29.0478  -15.7146   20.5761 H   0  0  0  0  0  0
  1 25  1  0  0  0
  1 30  2  0  0  0
  1 82  1  0  0  0
  2  3  1  0  0  0
  2 25  1  0  0  0
  2 83  1  0  0  0
  2 84  1  0  0  0
  3  4  1  0  0  0
  3 85  1  0  0  0
  3 86  1  0  0  0
  4  5  1  0  0  0
  4 87  1  0  0  0
  4 88  1  0  0  0
  5  6  1  0  0  0
  5 26  1  0  0  0
  5 89  1  0  0  0
  6 25  1  0  0  0
  6 90  1  0  0  0
  6 91  1  0  0  0
  7  8  2  0  0  0
  7 26  1  0  0  0
  7 29  1  0  0  0
  8  9  1  0  0  0
  8 22  1  0  0  0
  9 10  1  0  0  0
  9 27  2  0  0  0
 10 11  2  0  0  0
 10 15  1  0  0  0
 11 12  1  0  0  0
 11 92  1  0  0  0
 12 13  2  0  0  0
 12 93  1  0  0  0
 13 14  1  0  0  0
 13 31  1  0  0  0
 14 15  2  0  0  0
 14 94  1  0  0  0
 15 95  1  0  0  0
 16 17  2  0  0  0
 16 21  1  0  0  0
 16 31  1  0  0  0
 17 18  1  0  0  0
 17 96  1  0  0  0
 18 19  2  0  0  0
 18 97  1  0  0  0
 19 20  1  0  0  0
 19 24  1  0  0  0
 20 21  2  0  0  0
 20 98  1  0  0  0
 21 23  1  0  0  0
 22 28  1  0  0  0
 22 32  2  0  0  0
 26 27  1  0  0  0
 28 99  1  0  0  0
 28100  1  0  0  0
 29101  1  0  0  0
 29102  1  0  0  0
 33 34  1  0  0  0
 33 66  1  0  0  0
 33 70  2  0  0  0
 34 36  1  0  0  0
 34 59  1  0  0  0
 34103  1  0  0  0
 35 44  2  0  0  0
 35 45  1  0  0  0
 35 68  1  0  0  0
 36 56  1  0  0  0
 36104  1  0  0  0
 37 39  1  0  0  0
 37 47  1  0  0  0
 37 66  1  0  0  0
 37105  1  0  0  0
 38 43  2  0  0  0
 38 46  1  0  0  0
 38 47  1  0  0  0
 39 64  1  0  0  0
 39 67  2  0  0  0
 40 52  1  0  0  0
 40 53  2  0  0  0
 40 58  1  0  0  0
 41106  1  0  0  0
 41107  1  0  0  0
 41108  1  0  0  0
 41 48  1  0  0  0
 42 43  1  0  0  0
 42 66  1  0  0  0
 42109  1  0  0  0
 42110  1  0  0  0
 43 44  1  0  0  0
 44111  1  0  0  0
 45 46  2  0  0  0
 45112  1  0  0  0
 46113  1  0  0  0
 47114  1  0  0  0
 47115  1  0  0  0
 48 56  1  0  0  0
 48 65  1  0  0  0
 48116  1  0  0  0
 49 50  1  0  0  0
 49 53  1  0  0  0
 49 64  1  0  0  0
 49117  1  0  0  0
 50 51  1  0  0  0
 50118  1  0  0  0
 50119  1  0  0  0
 51 52  1  0  0  0
 51120  1  0  0  0
 51121  1  0  0  0
 52122  1  0  0  0
 52123  1  0  0  0
 53 54  1  0  0  0
 54 55  2  0  0  0
 54124  1  0  0  0
 55 57  1  0  0  0
 55125  1  0  0  0
 56 69  2  0  0  0
 57 58  2  0  0  0
 57126  1  0  0  0
 58127  1  0  0  0
 59 60  1  0  0  0
 59 61  1  0  0  0
 59 62  1  0  0  0
 60128  1  0  0  0
 60129  1  0  0  0
 60130  1  0  0  0
 61131  1  0  0  0
 61132  1  0  0  0
 61133  1  0  0  0
 62134  1  0  0  0
 62135  1  0  0  0
 62136  1  0  0  0
 63 65  1  0  0  0
 63137  1  0  0  0
 63138  1  0  0  0
 63139  1  0  0  0
 64140  1  0  0  0
 65141  1  0  0  0
 68 80  1  0  0  0
 71 73  2  0  0  0
 71 74  1  0  0  0
 71142  1  0  0  0
 72 73  1  0  0  0
 72 81  2  0  0  0
 72143  1  0  0  0
 73 77  1  0  0  0
 74 75  2  0  0  0
 74 76  1  0  0  0
 75 78  1  0  0  0
 75 81  1  0  0  0
 76144  1  0  0  0
 76145  1  0  0  0
 76146  1  0  0  0
 77 82  1  0  0  0
 77147  1  0  0  0
 77148  1  0  0  0
 78 79  1  0  0  0
 78149  1  0  0  0
 78150  1  0  0  0
 79 80  1  0  0  0
 79151  1  0  0  0
 79152  1  0  0  0
 80153  1  0  0  0
 80154  1  0  0  0
 82155  1  0  0  0
M  ISO  4   1 100  68 101  80 101  82 100
M  END
> <chiral flag>
0

> <version>
0

> <s_m_source_file>
/data/baiqing/PycharmProjects/Reinvent-master-3.2/result/LINK_invent/BTK/process_docking_weight1_custom_sum_contain_oxygen_bond_distance_aromatic_linkinvent_7_9_3/rearranged_h_0035.sdf

> <i_m_source_file_index>
36

> <r_mmod_Potential_Energy-OPLS-2005>
-87.8080825805664

> <r_mmod_Stretch_Energy-OPLS-2005>
66.3736953735352

> <r_mmod_Bend_Energy-OPLS-2005>
151.308837890625

> <r_mmod_Torsional_Energy-OPLS-2005>
212.784439086914

> <r_mmod_Improper_Torsional_Energy-OPLS-2005>
11.8090171813965

> <r_mmod_Van_der_Waal_Energy-OPLS-2005>
161.136352539062

> <r_mmod_Electrostatic_Energy-OPLS-2005>
-515.808959960938

> <r_mmod_Solvation_Energy-OPLS-2005>
-225.695816040039

> <b_mmod_Minimization_Converged-OPLS-2005>
0

> <r_mmod_RMS_Derivative-OPLS-2005>
5.21828413009644

$$$$
36
                    3D
 Structure written by MMmdl.
153161  0  0  1  0            999 V2000
  -30.6500  -14.6071   20.5200 C   0  0  0  0  0  0
  -30.4314  -12.3707   19.4564 C   0  0  0  0  0  0
  -29.5074  -12.5016   18.2259 C   0  0  0  0  0  0
  -28.0297  -12.3410   18.6345 C   0  0  0  0  0  0
  -27.6530  -13.2156   19.8598 C   0  0  2  0  0  0
  -28.6962  -13.0809   20.9921 C   0  0  0  0  0  0
  -25.2564  -13.8165   20.5682 C   0  0  0  0  0  0
  -24.1832  -13.0433   20.9188 C   0  0  0  0  0  0
  -24.6399  -11.6903   20.8738 C   0  0  0  0  0  0
  -23.9066  -10.4289   21.0405 C   0  0  0  0  0  0
  -24.3616   -9.4203   21.9185 C   0  0  0  0  0  0
  -23.6291   -8.2237   22.0756 C   0  0  0  0  0  0
  -22.4272   -8.0276   21.3544 C   0  0  0  0  0  0
  -21.9910   -9.0250   20.4642 C   0  0  0  0  0  0
  -22.7239  -10.2130   20.3053 C   0  0  0  0  0  0
  -21.6851   -6.0735   22.5280 C   0  0  0  0  0  0
  -21.4013   -6.5639   23.8214 C   0  0  0  0  0  0
  -21.3657   -5.6792   24.9177 C   0  0  0  0  0  0
  -21.6043   -4.3056   24.7227 C   0  0  0  0  0  0
  -21.8820   -3.8146   23.4349 C   0  0  0  0  0  0
  -21.9193   -4.6962   22.3404 C   0  0  0  0  0  0
  -22.7855  -13.5226   21.1853 C   0  0  0  0  0  0
  -22.1662   -4.2148   21.0981 F   0  0  0  0  0  0
  -21.5625   -3.4538   25.7739 F   0  0  0  0  0  0
  -30.0173  -13.3957   20.4342 N   0  0  0  0  0  0
  -26.2990  -12.9348   20.3303 N   0  0  0  0  0  0
  -25.9327  -11.6504   20.5748 N   0  0  0  0  0  0
  -22.0497  -12.8215   22.0405 N   0  0  0  0  0  0
  -25.4284  -15.1886   20.4100 N   0  0  0  0  0  0
  -31.8036  -14.7369   20.1007 O   0  0  0  0  0  0
  -21.6634   -6.8876   21.4241 O   0  0  0  0  0  0
  -22.3543  -14.5537   20.6707 O   0  0  0  0  0  0
  -24.6231  -31.8617   23.2052 C   0  0  0  0  0  0
  -25.9091  -32.4790   23.8376 C   0  0  1  0  0  0
  -27.2278  -27.3577   20.1170 C   0  0  0  0  0  0
  -25.5919  -33.8590   24.2302 N   0  0  0  0  0  0
  -23.4163  -30.4846   21.5464 C   0  0  2  0  0  0
  -24.8660  -28.9438   20.1113 C   0  0  0  0  0  0
  -22.7461  -29.4630   22.4951 C   0  0  0  0  0  0
  -18.0279  -28.1390   22.8489 C   0  0  0  0  0  0
  -24.1486  -36.7295   23.2641 C   0  0  0  0  0  0
  -25.9538  -30.8048   21.3713 C   0  0  0  0  0  0
  -26.0322  -29.4349   20.7142 C   0  0  0  0  0  0
  -27.2210  -28.6526   20.7085 C   0  0  0  0  0  0
  -26.0471  -26.9074   19.4911 C   0  0  0  0  0  0
  -24.8728  -27.6833   19.4913 C   0  0  0  0  0  0
  -23.6305  -29.8180   20.1618 C   0  0  0  0  0  0
  -25.4111  -36.3090   24.0335 C   0  0  1  0  0  0
  -20.5877  -28.3691   23.1291 C   0  0  2  0  0  0
  -20.6767  -26.9415   22.5416 C   0  0  0  0  0  0
  -19.5747  -26.6388   21.5214 C   0  0  0  0  0  0
  -18.1923  -26.7937   22.1618 C   0  0  0  0  0  0
  -19.1532  -28.8857   23.2885 C   0  0  0  0  0  0
  -18.9456  -30.1458   23.8902 C   0  0  0  0  0  0
  -17.6456  -30.6594   24.0566 C   0  0  0  0  0  0
  -25.9045  -34.9457   23.5116 C   0  0  0  0  0  0
  -16.5347  -29.9091   23.6333 C   0  0  0  0  0  0
  -16.7267  -28.6508   23.0357 C   0  0  0  0  0  0
  -26.4495  -31.6591   25.0732 C   0  0  0  0  0  0
  -25.3742  -31.3702   26.1461 C   0  0  0  0  0  0
  -27.0349  -30.3026   24.6166 C   0  0  0  0  0  0
  -27.6056  -32.4327   25.7497 C   0  0  0  0  0  0
  -27.5582  -37.1796   24.8464 C   0  0  0  0  0  0
  -21.4177  -29.3043   22.3689 N   0  0  0  0  0  0
  -26.4291  -37.3781   23.9414 N   0  0  0  0  0  0
  -24.6829  -31.0659   22.0984 N   0  0  0  0  0  0
  -23.4196  -28.8170   23.3021 O   0  0  0  0  0  0
  -28.3218  -26.4968   20.1481 O   0  0  0  0  0  0
  -26.5609  -34.8918   22.4680 O   0  0  0  0  0  0
  -23.5402  -32.1397   23.7400 O   0  0  0  0  0  0
  -28.0238  -23.0637   19.7064 C   0  0  0  0  0  0
  -30.1677  -22.1573   21.1440 C   0  0  0  0  0  0
  -29.5486  -21.2169   20.2861 C   0  0  0  0  0  0
  -28.4534  -21.7208   19.5454 C   0  0  0  0  0  0
  -28.6960  -23.9229   20.6041 C   0  0  0  0  0  0
  -30.1720  -19.8005   20.0162 C   0  0  0  0  0  0
  -28.1211  -25.3230   21.0063 C   0  0  0  0  0  0
  -29.8992  -15.9099   21.0004 C   0  0  0  0  0  0
  -30.4006  -17.2773   20.3607 C   0  0  0  0  0  0
  -29.7600  -23.4500   21.3065 N   0  0  0  0  0  0
  -29.6632  -18.5582   20.7163 N   0  3  0  0  0  0
  -27.8099  -20.9154   18.6669 F   0  0  0  0  0  0
  -31.4755  -12.4750   19.1566 H   0  0  0  0  0  0
  -30.3468  -11.3760   19.8971 H   0  0  0  0  0  0
  -29.7704  -11.7549   17.4758 H   0  0  0  0  0  0
  -29.6560  -13.4748   17.7557 H   0  0  0  0  0  0
  -27.8650  -11.2886   18.8683 H   0  0  0  0  0  0
  -27.3773  -12.5699   17.7909 H   0  0  0  0  0  0
  -27.6684  -14.2472   19.5105 H   0  0  0  0  0  0
  -28.6944  -12.0676   21.3965 H   0  0  0  0  0  0
  -28.4495  -13.7365   21.8285 H   0  0  0  0  0  0
  -25.2761   -9.5674   22.4758 H   0  0  0  0  0  0
  -23.9997   -7.4629   22.7477 H   0  0  0  0  0  0
  -21.0842   -8.8768   19.8946 H   0  0  0  0  0  0
  -22.3700  -10.9667   19.6158 H   0  0  0  0  0  0
  -21.2008   -7.6148   23.9715 H   0  0  0  0  0  0
  -21.1477   -6.0524   25.9077 H   0  0  0  0  0  0
  -22.0602   -2.7608   23.2850 H   0  0  0  0  0  0
  -22.4116  -11.9869   22.4778 H   0  0  0  0  0  0
  -21.1117  -13.1240   22.2618 H   0  0  0  0  0  0
  -24.6613  -15.8440   20.5141 H   0  0  0  0  0  0
  -26.2774  -15.6230   20.0730 H   0  0  0  0  0  0
  -26.7165  -32.5480   23.1136 H   0  0  0  0  0  0
  -25.0085  -33.9747   25.0457 H   0  0  0  0  0  0
  -22.7087  -31.3038   21.4036 H   0  0  0  0  0  0
  -23.3757  -35.9619   23.3298 H   0  0  0  0  0  0
  -24.3577  -36.8925   22.2057 H   0  0  0  0  0  0
  -23.7228  -37.6489   23.6670 H   0  0  0  0  0  0
  -26.0800  -31.5698   20.6039 H   0  0  0  0  0  0
  -26.8357  -30.8545   21.9983 H   0  0  0  0  0  0
  -28.1176  -29.0223   21.1867 H   0  0  0  0  0  0
  -26.0284  -25.9351   19.0191 H   0  0  0  0  0  0
  -23.9787  -27.3010   19.0181 H   0  0  0  0  0  0
  -23.7449  -30.5937   19.4038 H   0  0  0  0  0  0
  -22.7527  -29.2426   19.8625 H   0  0  0  0  0  0
  -25.1287  -36.1946   25.0827 H   0  0  0  0  0  0
  -20.9968  -28.3266   24.1410 H   0  0  0  0  0  0
  -20.5671  -26.2299   23.3612 H   0  0  0  0  0  0
  -21.6635  -26.7448   22.1210 H   0  0  0  0  0  0
  -19.6908  -25.6300   21.1241 H   0  0  0  0  0  0
  -19.6688  -27.3196   20.6744 H   0  0  0  0  0  0
  -17.4199  -26.6701   21.4011 H   0  0  0  0  0  0
  -18.0305  -26.0073   22.9004 H   0  0  0  0  0  0
  -19.7932  -30.7269   24.2275 H   0  0  0  0  0  0
  -17.5014  -31.6274   24.5171 H   0  0  0  0  0  0
  -15.5347  -30.2995   23.7661 H   0  0  0  0  0  0
  -15.8666  -28.0826   22.7076 H   0  0  0  0  0  0
  -24.5943  -30.7017   25.7795 H   0  0  0  0  0  0
  -24.8898  -32.2851   26.4882 H   0  0  0  0  0  0
  -25.8086  -30.8899   27.0238 H   0  0  0  0  0  0
  -26.2917  -29.6758   24.1223 H   0  0  0  0  0  0
  -27.4098  -29.7295   25.4657 H   0  0  0  0  0  0
  -27.8761  -30.4329   23.9354 H   0  0  0  0  0  0
  -27.2673  -33.3631   26.2071 H   0  0  0  0  0  0
  -28.3865  -32.6880   25.0322 H   0  0  0  0  0  0
  -28.0729  -31.8458   26.5416 H   0  0  0  0  0  0
  -28.2588  -38.0106   24.7540 H   0  0  0  0  0  0
  -28.1091  -36.2639   24.6258 H   0  0  0  0  0  0
  -27.2305  -37.1412   25.8868 H   0  0  0  0  0  0
  -20.9354  -29.8764   21.6898 H   0  0  0  0  0  0
  -26.0175  -38.2854   24.1435 H   0  0  0  0  0  0
  -27.1587  -23.4177   19.1644 H   0  0  0  0  0  0
  -31.0429  -21.8742   21.7104 H   0  0  0  0  0  0
  -31.2410  -19.8767   20.2219 H   0  0  0  0  0  0
  -30.1053  -19.6228   18.9418 H   0  0  0  0  0  0
  -28.5395  -25.5853   21.9790 H   0  0  0  0  0  0
  -27.0604  -25.1618   21.2054 H   0  0  0  0  0  0
  -28.8376  -15.8057   20.7849 H   0  0  0  0  0  0
  -29.9867  -15.9593   22.0855 H   0  0  0  0  0  0
  -30.3803  -17.1719   19.2750 H   0  0  0  0  0  0
  -31.4506  -17.4150   20.6232 H   0  0  0  0  0  0
  -28.6889  -18.4425   20.4894 H   0  0  0  0  0  0
  -29.7300  -18.6979   21.7117 H   0  0  0  0  0  0
  1 25  1  0  0  0
  1 30  2  0  0  0
  1 78  1  0  0  0
  2  3  1  0  0  0
  2 25  1  0  0  0
  2 83  1  0  0  0
  2 84  1  0  0  0
  3  4  1  0  0  0
  3 85  1  0  0  0
  3 86  1  0  0  0
  4  5  1  0  0  0
  4 87  1  0  0  0
  4 88  1  0  0  0
  5  6  1  0  0  0
  5 26  1  0  0  0
  5 89  1  0  0  0
  6 25  1  0  0  0
  6 90  1  0  0  0
  6 91  1  0  0  0
  7  8  2  0  0  0
  7 26  1  0  0  0
  7 29  1  0  0  0
  8  9  1  0  0  0
  8 22  1  0  0  0
  9 10  1  0  0  0
  9 27  2  0  0  0
 10 11  2  0  0  0
 10 15  1  0  0  0
 11 12  1  0  0  0
 11 92  1  0  0  0
 12 13  2  0  0  0
 12 93  1  0  0  0
 13 14  1  0  0  0
 13 31  1  0  0  0
 14 15  2  0  0  0
 14 94  1  0  0  0
 15 95  1  0  0  0
 16 17  2  0  0  0
 16 21  1  0  0  0
 16 31  1  0  0  0
 17 18  1  0  0  0
 17 96  1  0  0  0
 18 19  2  0  0  0
 18 97  1  0  0  0
 19 20  1  0  0  0
 19 24  1  0  0  0
 20 21  2  0  0  0
 20 98  1  0  0  0
 21 23  1  0  0  0
 22 28  1  0  0  0
 22 32  2  0  0  0
 26 27  1  0  0  0
 28 99  1  0  0  0
 28100  1  0  0  0
 29101  1  0  0  0
 29102  1  0  0  0
 33 34  1  0  0  0
 33 66  1  0  0  0
 33 70  2  0  0  0
 34 36  1  0  0  0
 34 59  1  0  0  0
 34103  1  0  0  0
 35 44  2  0  0  0
 35 45  1  0  0  0
 35 68  1  0  0  0
 36 56  1  0  0  0
 36104  1  0  0  0
 37 39  1  0  0  0
 37 47  1  0  0  0
 37 66  1  0  0  0
 37105  1  0  0  0
 38 43  2  0  0  0
 38 46  1  0  0  0
 38 47  1  0  0  0
 39 64  1  0  0  0
 39 67  2  0  0  0
 40 52  1  0  0  0
 40 53  2  0  0  0
 40 58  1  0  0  0
 41106  1  0  0  0
 41107  1  0  0  0
 41108  1  0  0  0
 41 48  1  0  0  0
 42 43  1  0  0  0
 42 66  1  0  0  0
 42109  1  0  0  0
 42110  1  0  0  0
 43 44  1  0  0  0
 44111  1  0  0  0
 45 46  2  0  0  0
 45112  1  0  0  0
 46113  1  0  0  0
 47114  1  0  0  0
 47115  1  0  0  0
 48 56  1  0  0  0
 48 65  1  0  0  0
 48116  1  0  0  0
 49 50  1  0  0  0
 49 53  1  0  0  0
 49 64  1  0  0  0
 49117  1  0  0  0
 50 51  1  0  0  0
 50118  1  0  0  0
 50119  1  0  0  0
 51 52  1  0  0  0
 51120  1  0  0  0
 51121  1  0  0  0
 52122  1  0  0  0
 52123  1  0  0  0
 53 54  1  0  0  0
 54 55  2  0  0  0
 54124  1  0  0  0
 55 57  1  0  0  0
 55125  1  0  0  0
 56 69  2  0  0  0
 57 58  2  0  0  0
 57126  1  0  0  0
 58127  1  0  0  0
 59 60  1  0  0  0
 59 61  1  0  0  0
 59 62  1  0  0  0
 60128  1  0  0  0
 60129  1  0  0  0
 60130  1  0  0  0
 61131  1  0  0  0
 61132  1  0  0  0
 61133  1  0  0  0
 62134  1  0  0  0
 62135  1  0  0  0
 62136  1  0  0  0
 63 65  1  0  0  0
 63137  1  0  0  0
 63138  1  0  0  0
 63139  1  0  0  0
 64140  1  0  0  0
 65141  1  0  0  0
 68 77  1  0  0  0
 71 74  2  0  0  0
 71 75  1  0  0  0
 71142  1  0  0  0
 72 73  2  0  0  0
 72 80  1  0  0  0
 72143  1  0  0  0
 73 74  1  0  0  0
 73 76  1  0  0  0
 74 82  1  0  0  0
 75 77  1  0  0  0
 75 80  2  0  0  0
 76 81  1  0  0  0
 76144  1  0  0  0
 76145  1  0  0  0
 77146  1  0  0  0
 77147  1  0  0  0
 78 79  1  0  0  0
 78148  1  0  0  0
 78149  1  0  0  0
 79 81  1  0  0  0
 79150  1  0  0  0
 79151  1  0  0  0
 81152  1  0  0  0
 81153  1  0  0  0
M  CHG  1  81   1
M  ISO  4   1 100  68 101  77 101  78 100
M  END
> <chiral flag>
0

> <version>
0

> <s_m_source_file>
/data/baiqing/PycharmProjects/Reinvent-master-3.2/result/LINK_invent/BTK/process_docking_weight1_custom_sum_contain_oxygen_bond_distance_aromatic_linkinvent_7_9_3/rearranged_h_0035.sdf

> <i_m_source_file_index>
37

> <r_mmod_Potential_Energy-OPLS-2005>
-311.447875976562

> <r_mmod_Stretch_Energy-OPLS-2005>
66.8237686157227

> <r_mmod_Bend_Energy-OPLS-2005>
121.197067260742

> <r_mmod_Torsional_Energy-OPLS-2005>
198.458251953125

> <r_mmod_Improper_Torsional_Energy-OPLS-2005>
5.21445894241333

> <r_mmod_Van_der_Waal_Energy-OPLS-2005>
141.626129150391

> <r_mmod_Electrostatic_Energy-OPLS-2005>
-408.566070556641

> <r_mmod_Solvation_Energy-OPLS-2005>
-474.299652099609

> <b_mmod_Minimization_Converged-OPLS-2005>
0

> <r_mmod_RMS_Derivative-OPLS-2005>
0.520959615707397

$$$$
37
                    3D
 Structure written by MMmdl.
172180  0  0  1  0            999 V2000
  -30.7213  -14.4353   20.5601 C   0  0  0  0  0  0
  -30.4205  -12.2752   19.4288 C   0  0  0  0  0  0
  -29.5045  -12.5058   18.2112 C   0  0  0  0  0  0
  -28.0242  -12.3744   18.6197 C   0  0  0  0  0  0
  -27.6711  -13.2076   19.8815 C   0  0  2  0  0  0
  -28.7102  -12.9828   21.0065 C   0  0  0  0  0  0
  -25.2628  -13.8169   20.5677 C   0  0  0  0  0  0
  -24.1876  -13.0453   20.9168 C   0  0  0  0  0  0
  -24.6425  -11.6920   20.8745 C   0  0  0  0  0  0
  -23.9086  -10.4298   21.0410 C   0  0  0  0  0  0
  -24.3626   -9.4210   21.9193 C   0  0  0  0  0  0
  -23.6291   -8.2249   22.0759 C   0  0  0  0  0  0
  -22.4271   -8.0287   21.3536 C   0  0  0  0  0  0
  -21.9906   -9.0277   20.4644 C   0  0  0  0  0  0
  -22.7256  -10.2149   20.3062 C   0  0  0  0  0  0
  -21.6851   -6.0742   22.5275 C   0  0  0  0  0  0
  -21.4019   -6.5634   23.8213 C   0  0  0  0  0  0
  -21.3665   -5.6779   24.9174 C   0  0  0  0  0  0
  -21.6049   -4.3044   24.7214 C   0  0  0  0  0  0
  -21.8819   -3.8143   23.4336 C   0  0  0  0  0  0
  -21.9183   -4.6971   22.3397 C   0  0  0  0  0  0
  -22.7891  -13.5258   21.1800 C   0  0  0  0  0  0
  -22.1657   -4.2164   21.0973 F   0  0  0  0  0  0
  -21.5623   -3.4515   25.7722 F   0  0  0  0  0  0
  -30.0484  -13.2595   20.4553 N   0  0  0  0  0  0
  -26.3083  -12.9352   20.3369 N   0  0  0  0  0  0
  -25.9351  -11.6507   20.5772 N   0  0  0  0  0  0
  -22.0486  -12.8301   22.0369 N   0  0  0  0  0  0
  -25.4297  -15.1894   20.4133 N   0  0  0  0  0  0
  -31.8430  -14.6159   20.0821 O   0  0  0  0  0  0
  -21.6632   -6.8887   21.4237 O   0  0  0  0  0  0
  -22.3601  -14.5560   20.6626 O   0  0  0  0  0  0
  -24.6119  -31.8701   23.2091 C   0  0  0  0  0  0
  -25.9026  -32.4824   23.8396 C   0  0  1  0  0  0
  -27.2507  -27.4793   20.0915 C   0  0  0  0  0  0
  -25.5893  -33.8622   24.2329 N   0  0  0  0  0  0
  -23.3989  -30.4918   21.5489 C   0  0  2  0  0  0
  -24.8501  -28.9581   20.1177 C   0  0  0  0  0  0
  -22.7397  -29.4683   22.4998 C   0  0  0  0  0  0
  -18.0271  -28.1375   22.8490 C   0  0  0  0  0  0
  -24.1482  -36.7345   23.2645 C   0  0  0  0  0  0
  -25.9226  -30.8505   21.3535 C   0  0  0  0  0  0
  -26.0061  -29.4858   20.7076 C   0  0  0  0  0  0
  -27.2115  -28.7540   20.6950 C   0  0  0  0  0  0
  -26.0796  -26.9450   19.5196 C   0  0  0  0  0  0
  -24.8792  -27.6830   19.5220 C   0  0  0  0  0  0
  -23.6064  -29.8181   20.1650 C   0  0  0  0  0  0
  -25.4101  -36.3119   24.0337 C   0  0  1  0  0  0
  -20.5859  -28.3664   23.1317 C   0  0  2  0  0  0
  -20.6757  -26.9399   22.5420 C   0  0  0  0  0  0
  -19.5741  -26.6386   21.5209 C   0  0  0  0  0  0
  -18.1920  -26.7924   22.1623 C   0  0  0  0  0  0
  -19.1524  -28.8837   23.2904 C   0  0  0  0  0  0
  -18.9454  -30.1441   23.8912 C   0  0  0  0  0  0
  -17.6459  -30.6584   24.0568 C   0  0  0  0  0  0
  -25.9031  -34.9484   23.5140 C   0  0  0  0  0  0
  -16.5346  -29.9089   23.6321 C   0  0  0  0  0  0
  -16.7263  -28.6508   23.0337 C   0  0  0  0  0  0
  -26.4435  -31.6579   25.0726 C   0  0  0  0  0  0
  -25.3678  -31.3689   26.1452 C   0  0  0  0  0  0
  -27.0274  -30.3030   24.6089 C   0  0  0  0  0  0
  -27.5980  -32.4288   25.7529 C   0  0  0  0  0  0
  -27.5584  -37.1819   24.8461 C   0  0  0  0  0  0
  -21.4135  -29.3034   22.3726 N   0  0  0  0  0  0
  -26.4295  -37.3796   23.9405 N   0  0  0  0  0  0
  -24.6623  -31.0845   22.0964 N   0  0  0  0  0  0
  -23.4180  -28.8241   23.3054 O   0  0  0  0  0  0
  -28.3958  -26.7254   20.0650 O   0  0  0  0  0  0
  -26.5598  -34.8922   22.4693 O   0  0  0  0  0  0
  -23.5323  -32.1430   23.7513 O   0  0  0  0  0  0
  -30.7763  -25.0812   24.1630 C   0  0  0  0  0  0
  -31.1679  -26.8139   22.6834 C   0  0  0  0  0  0
  -30.8612  -24.1407   23.1007 C   0  0  0  0  0  0
  -31.2782  -25.8795   21.6189 C   0  0  0  0  0  0
  -30.6202  -24.6622   25.6145 C   0  0  0  0  0  0
  -31.4031  -28.3048   22.5053 C   0  0  0  0  0  0
  -30.8266  -22.6330   23.3612 C   0  0  0  0  0  0
  -31.6879  -26.2780   20.2044 C   0  0  0  0  0  0
  -30.2734  -21.7538   22.2200 C   0  0  0  0  0  0
  -30.5663  -26.2275   19.1478 C   0  0  0  0  0  0
  -30.2467  -20.2647   22.6184 C   0  0  0  0  0  0
  -30.1053  -19.3016   21.4298 C   0  0  0  0  0  0
  -30.0502  -17.8237   21.8657 C   0  0  0  0  0  0
  -30.2189  -16.8642   20.6767 C   0  0  0  0  0  0
  -29.4590  -27.2832   19.3087 C   0  0  0  0  0  0
  -30.9069  -26.4129   23.9503 N   0  0  0  0  0  0
  -31.1280  -24.5475   21.8330 N   0  0  0  0  0  0
  -29.9951  -15.4595   21.0319 N   0  0  0  0  0  0
  -31.4694  -12.3480   19.1354 H   0  0  0  0  0  0
  -30.2900  -11.2638   19.8160 H   0  0  0  0  0  0
  -29.7392  -11.7909   17.4216 H   0  0  0  0  0  0
  -29.6849  -13.4970   17.7905 H   0  0  0  0  0  0
  -27.8246  -11.3201   18.8071 H   0  0  0  0  0  0
  -27.3823  -12.6621   17.7868 H   0  0  0  0  0  0
  -27.7196  -14.2578   19.5919 H   0  0  0  0  0  0
  -28.6720  -11.9539   21.3692 H   0  0  0  0  0  0
  -28.4804  -13.6010   21.8743 H   0  0  0  0  0  0
  -25.2777   -9.5676   22.4781 H   0  0  0  0  0  0
  -23.9981   -7.4639   22.7500 H   0  0  0  0  0  0
  -21.0818   -8.8835   19.8965 H   0  0  0  0  0  0
  -22.3730  -10.9706   19.6185 H   0  0  0  0  0  0
  -21.2029   -7.6147   23.9729 H   0  0  0  0  0  0
  -21.1480   -6.0503   25.9075 H   0  0  0  0  0  0
  -22.0591   -2.7610   23.2821 H   0  0  0  0  0  0
  -22.4043  -11.9980   22.4830 H   0  0  0  0  0  0
  -21.1119  -13.1409   22.2527 H   0  0  0  0  0  0
  -24.6519  -15.8337   20.5089 H   0  0  0  0  0  0
  -26.2811  -15.6378   20.0958 H   0  0  0  0  0  0
  -26.7125  -32.5559   23.1197 H   0  0  0  0  0  0
  -24.9993  -33.9771   25.0437 H   0  0  0  0  0  0
  -22.6867  -31.3080   21.4084 H   0  0  0  0  0  0
  -23.3724  -35.9700   23.3323 H   0  0  0  0  0  0
  -24.3577  -36.8953   22.2061 H   0  0  0  0  0  0
  -23.7260  -37.6560   23.6660 H   0  0  0  0  0  0
  -26.0251  -31.6142   20.5805 H   0  0  0  0  0  0
  -26.8127  -30.9111   21.9672 H   0  0  0  0  0  0
  -28.1016  -29.1619   21.1524 H   0  0  0  0  0  0
  -26.1047  -25.9634   19.0676 H   0  0  0  0  0  0
  -23.9905  -27.2638   19.0698 H   0  0  0  0  0  0
  -23.7058  -30.5887   19.4001 H   0  0  0  0  0  0
  -22.7329  -29.2317   19.8750 H   0  0  0  0  0  0
  -25.1278  -36.1989   25.0834 H   0  0  0  0  0  0
  -20.9964  -28.3232   24.1434 H   0  0  0  0  0  0
  -20.5643  -26.2276   23.3609 H   0  0  0  0  0  0
  -21.6629  -26.7432   22.1225 H   0  0  0  0  0  0
  -19.6899  -25.6302   21.1229 H   0  0  0  0  0  0
  -19.6678  -27.3205   20.6748 H   0  0  0  0  0  0
  -17.4187  -26.6671   21.4024 H   0  0  0  0  0  0
  -18.0324  -26.0058   22.9018 H   0  0  0  0  0  0
  -19.7933  -30.7247   24.2288 H   0  0  0  0  0  0
  -17.5019  -31.6261   24.5173 H   0  0  0  0  0  0
  -15.5353  -30.3002   23.7630 H   0  0  0  0  0  0
  -15.8663  -28.0841   22.7030 H   0  0  0  0  0  0
  -24.5802  -30.7108   25.7759 H   0  0  0  0  0  0
  -24.8916  -32.2857   26.4940 H   0  0  0  0  0  0
  -25.7997  -30.8789   27.0178 H   0  0  0  0  0  0
  -26.2781  -29.6754   24.1246 H   0  0  0  0  0  0
  -27.4152  -29.7313   25.4532 H   0  0  0  0  0  0
  -27.8576  -30.4365   23.9147 H   0  0  0  0  0  0
  -27.2555  -33.3528   26.2188 H   0  0  0  0  0  0
  -28.3786  -32.6939   25.0388 H   0  0  0  0  0  0
  -28.0670  -31.8370   26.5399 H   0  0  0  0  0  0
  -28.2601  -38.0119   24.7500 H   0  0  0  0  0  0
  -28.1076  -36.2646   24.6281 H   0  0  0  0  0  0
  -27.2303  -37.1468   25.8865 H   0  0  0  0  0  0
  -20.9293  -29.8750   21.6939 H   0  0  0  0  0  0
  -26.0197  -38.2887   24.1358 H   0  0  0  0  0  0
  -29.6119  -24.2947   25.8040 H   0  0  0  0  0  0
  -30.8136  -25.4904   26.2983 H   0  0  0  0  0  0
  -31.3282  -23.8688   25.8577 H   0  0  0  0  0  0
  -32.4230  -28.4913   22.1681 H   0  0  0  0  0  0
  -31.2595  -28.8513   23.4381 H   0  0  0  0  0  0
  -30.7162  -28.7249   21.7734 H   0  0  0  0  0  0
  -30.2230  -22.4390   24.2481 H   0  0  0  0  0  0
  -31.8408  -22.3167   23.6107 H   0  0  0  0  0  0
  -32.4828  -25.5988   19.8939 H   0  0  0  0  0  0
  -32.1514  -27.2631   20.1959 H   0  0  0  0  0  0
  -30.9055  -21.8789   21.3406 H   0  0  0  0  0  0
  -29.2742  -22.0827   21.9297 H   0  0  0  0  0  0
  -30.1312  -25.2273   19.1009 H   0  0  0  0  0  0
  -31.0362  -26.3864   18.1768 H   0  0  0  0  0  0
  -29.4467  -20.0939   23.3397 H   0  0  0  0  0  0
  -31.1769  -20.0197   23.1313 H   0  0  0  0  0  0
  -30.9563  -19.4554   20.7628 H   0  0  0  0  0  0
  -29.2127  -19.5428   20.8494 H   0  0  0  0  0  0
  -29.1059  -17.6360   22.3772 H   0  0  0  0  0  0
  -30.8418  -17.6273   22.5890 H   0  0  0  0  0  0
  -31.2108  -17.0122   20.2442 H   0  0  0  0  0  0
  -29.5045  -17.1161   19.8916 H   0  0  0  0  0  0
  -29.0797  -27.5543   18.3217 H   0  0  0  0  0  0
  -29.8426  -28.2002   19.7567 H   0  0  0  0  0  0
  -29.0865  -15.2200   21.4012 H   0  0  0  0  0  0
  1 25  1  0  0  0
  1 30  2  0  0  0
  1 88  1  0  0  0
  2  3  1  0  0  0
  2 25  1  0  0  0
  2 89  1  0  0  0
  2 90  1  0  0  0
  3  4  1  0  0  0
  3 91  1  0  0  0
  3 92  1  0  0  0
  4  5  1  0  0  0
  4 93  1  0  0  0
  4 94  1  0  0  0
  5  6  1  0  0  0
  5 26  1  0  0  0
  5 95  1  0  0  0
  6 25  1  0  0  0
  6 96  1  0  0  0
  6 97  1  0  0  0
  7  8  2  0  0  0
  7 26  1  0  0  0
  7 29  1  0  0  0
  8  9  1  0  0  0
  8 22  1  0  0  0
  9 10  1  0  0  0
  9 27  2  0  0  0
 10 11  2  0  0  0
 10 15  1  0  0  0
 11 12  1  0  0  0
 11 98  1  0  0  0
 12 13  2  0  0  0
 12 99  1  0  0  0
 13 14  1  0  0  0
 13 31  1  0  0  0
 14 15  2  0  0  0
 14100  1  0  0  0
 15101  1  0  0  0
 16 17  2  0  0  0
 16 21  1  0  0  0
 16 31  1  0  0  0
 17 18  1  0  0  0
 17102  1  0  0  0
 18 19  2  0  0  0
 18103  1  0  0  0
 19 20  1  0  0  0
 19 24  1  0  0  0
 20 21  2  0  0  0
 20104  1  0  0  0
 21 23  1  0  0  0
 22 28  1  0  0  0
 22 32  2  0  0  0
 26 27  1  0  0  0
 28105  1  0  0  0
 28106  1  0  0  0
 29107  1  0  0  0
 29108  1  0  0  0
 33 34  1  0  0  0
 33 66  1  0  0  0
 33 70  2  0  0  0
 34 36  1  0  0  0
 34 59  1  0  0  0
 34109  1  0  0  0
 35 44  2  0  0  0
 35 45  1  0  0  0
 35 68  1  0  0  0
 36 56  1  0  0  0
 36110  1  0  0  0
 37 39  1  0  0  0
 37 47  1  0  0  0
 37 66  1  0  0  0
 37111  1  0  0  0
 38 43  2  0  0  0
 38 46  1  0  0  0
 38 47  1  0  0  0
 39 64  1  0  0  0
 39 67  2  0  0  0
 40 52  1  0  0  0
 40 53  2  0  0  0
 40 58  1  0  0  0
 41112  1  0  0  0
 41113  1  0  0  0
 41114  1  0  0  0
 41 48  1  0  0  0
 42 43  1  0  0  0
 42 66  1  0  0  0
 42115  1  0  0  0
 42116  1  0  0  0
 43 44  1  0  0  0
 44117  1  0  0  0
 45 46  2  0  0  0
 45118  1  0  0  0
 46119  1  0  0  0
 47120  1  0  0  0
 47121  1  0  0  0
 48 56  1  0  0  0
 48 65  1  0  0  0
 48122  1  0  0  0
 49 50  1  0  0  0
 49 53  1  0  0  0
 49 64  1  0  0  0
 49123  1  0  0  0
 50 51  1  0  0  0
 50124  1  0  0  0
 50125  1  0  0  0
 51 52  1  0  0  0
 51126  1  0  0  0
 51127  1  0  0  0
 52128  1  0  0  0
 52129  1  0  0  0
 53 54  1  0  0  0
 54 55  2  0  0  0
 54130  1  0  0  0
 55 57  1  0  0  0
 55131  1  0  0  0
 56 69  2  0  0  0
 57 58  2  0  0  0
 57132  1  0  0  0
 58133  1  0  0  0
 59 60  1  0  0  0
 59 61  1  0  0  0
 59 62  1  0  0  0
 60134  1  0  0  0
 60135  1  0  0  0
 60136  1  0  0  0
 61137  1  0  0  0
 61138  1  0  0  0
 61139  1  0  0  0
 62140  1  0  0  0
 62141  1  0  0  0
 62142  1  0  0  0
 63 65  1  0  0  0
 63143  1  0  0  0
 63144  1  0  0  0
 63145  1  0  0  0
 64146  1  0  0  0
 65147  1  0  0  0
 68 85  1  0  0  0
 71 73  2  0  0  0
 71 75  1  0  0  0
 71 86  1  0  0  0
 72 74  1  0  0  0
 72 76  1  0  0  0
 72 86  2  0  0  0
 73 77  1  0  0  0
 73 87  1  0  0  0
 74 78  1  0  0  0
 74 87  2  0  0  0
 75148  1  0  0  0
 75149  1  0  0  0
 75150  1  0  0  0
 76151  1  0  0  0
 76152  1  0  0  0
 76153  1  0  0  0
 77 79  1  0  0  0
 77154  1  0  0  0
 77155  1  0  0  0
 78 80  1  0  0  0
 78156  1  0  0  0
 78157  1  0  0  0
 79 81  1  0  0  0
 79158  1  0  0  0
 79159  1  0  0  0
 80 85  1  0  0  0
 80160  1  0  0  0
 80161  1  0  0  0
 81 82  1  0  0  0
 81162  1  0  0  0
 81163  1  0  0  0
 82 83  1  0  0  0
 82164  1  0  0  0
 82165  1  0  0  0
 83 84  1  0  0  0
 83166  1  0  0  0
 83167  1  0  0  0
 84 88  1  0  0  0
 84168  1  0  0  0
 84169  1  0  0  0
 85170  1  0  0  0
 85171  1  0  0  0
 88172  1  0  0  0
M  ISO  4   1 100  68 101  85 101  88 100
M  END
> <chiral flag>
0

> <version>
0

> <s_m_source_file>
/data/baiqing/PycharmProjects/Reinvent-master-3.2/result/LINK_invent/BTK/process_docking_weight1_custom_sum_contain_oxygen_bond_distance_aromatic_linkinvent_7_9_3/rearranged_h_0035.sdf

> <i_m_source_file_index>
38

> <r_mmod_Potential_Energy-OPLS-2005>
-68.9223480224609

> <r_mmod_Stretch_Energy-OPLS-2005>
35.6747817993164

> <r_mmod_Bend_Energy-OPLS-2005>
95.3630752563477

> <r_mmod_Torsional_Energy-OPLS-2005>
227.199172973633

> <r_mmod_Improper_Torsional_Energy-OPLS-2005>
6.89584445953369

> <r_mmod_Van_der_Waal_Energy-OPLS-2005>
151.525253295898

> <r_mmod_Electrostatic_Energy-OPLS-2005>
-369.139251708984

> <r_mmod_Solvation_Energy-OPLS-2005>
-225.724136352539

> <b_mmod_Minimization_Converged-OPLS-2005>
0

> <r_mmod_RMS_Derivative-OPLS-2005>
2.92638993263245

$$$$
38
                    3D
 Structure written by MMmdl.
168176  0  0  1  0            999 V2000
  -30.7822  -14.3610   20.6819 C   0  0  0  0  0  0
  -30.4176  -12.2944   19.3895 C   0  0  0  0  0  0
  -29.4834  -12.5227   18.1874 C   0  0  0  0  0  0
  -28.0081  -12.3750   18.6074 C   0  0  0  0  0  0
  -27.6666  -13.1939   19.8799 C   0  0  2  0  0  0
  -28.7114  -12.9241   20.9893 C   0  0  0  0  0  0
  -25.2606  -13.8134   20.5697 C   0  0  0  0  0  0
  -24.1825  -13.0437   20.9178 C   0  0  0  0  0  0
  -24.6348  -11.6909   20.8743 C   0  0  0  0  0  0
  -23.8990  -10.4303   21.0419 C   0  0  0  0  0  0
  -24.3583   -9.4200   21.9160 C   0  0  0  0  0  0
  -23.6271   -8.2219   22.0711 C   0  0  0  0  0  0
  -22.4241   -8.0269   21.3538 C   0  0  0  0  0  0
  -21.9835   -9.0249   20.4664 C   0  0  0  0  0  0
  -22.7146  -10.2143   20.3096 C   0  0  0  0  0  0
  -21.6852   -6.0743   22.5304 C   0  0  0  0  0  0
  -21.4029   -6.5650   23.8237 C   0  0  0  0  0  0
  -21.3649   -5.6790   24.9193 C   0  0  0  0  0  0
  -21.6025   -4.3052   24.7238 C   0  0  0  0  0  0
  -21.8822   -3.8159   23.4371 C   0  0  0  0  0  0
  -21.9192   -4.6969   22.3428 C   0  0  0  0  0  0
  -22.7858  -13.5241   21.1886 C   0  0  0  0  0  0
  -22.1651   -4.2173   21.1002 F   0  0  0  0  0  0
  -21.5588   -3.4519   25.7740 F   0  0  0  0  0  0
  -30.0492  -13.2370   20.4543 N   0  0  0  0  0  0
  -26.3038  -12.9285   20.3405 N   0  0  0  0  0  0
  -25.9267  -11.6460   20.5754 N   0  0  0  0  0  0
  -22.0487  -12.8283   22.0462 N   0  0  0  0  0  0
  -25.4367  -15.1851   20.4166 N   0  0  0  0  0  0
  -31.8119  -14.6329   20.0604 O   0  0  0  0  0  0
  -21.6606   -6.8876   21.4262 O   0  0  0  0  0  0
  -22.3539  -14.5552   20.6742 O   0  0  0  0  0  0
  -24.6120  -31.8691   23.2110 C   0  0  0  0  0  0
  -25.9016  -32.4822   23.8407 C   0  0  1  0  0  0
  -27.2367  -27.4686   20.1033 C   0  0  0  0  0  0
  -25.5907  -33.8627   24.2358 N   0  0  0  0  0  0
  -23.3989  -30.4946   21.5459 C   0  0  2  0  0  0
  -24.8480  -28.9647   20.1082 C   0  0  0  0  0  0
  -22.7391  -29.4684   22.4940 C   0  0  0  0  0  0
  -18.0278  -28.1383   22.8490 C   0  0  0  0  0  0
  -24.1484  -36.7317   23.2646 C   0  0  0  0  0  0
  -25.9224  -30.8493   21.3544 C   0  0  0  0  0  0
  -26.0012  -29.4852   20.7094 C   0  0  0  0  0  0
  -27.2011  -28.7435   20.7030 C   0  0  0  0  0  0
  -26.0713  -26.9564   19.4916 C   0  0  0  0  0  0
  -24.8751  -27.6996   19.4952 C   0  0  0  0  0  0
  -23.6073  -29.8276   20.1582 C   0  0  0  0  0  0
  -25.4095  -36.3116   24.0353 C   0  0  1  0  0  0
  -20.5874  -28.3682   23.1303 C   0  0  2  0  0  0
  -20.6769  -26.9409   22.5414 C   0  0  0  0  0  0
  -19.5751  -26.6393   21.5208 C   0  0  0  0  0  0
  -18.1929  -26.7929   22.1615 C   0  0  0  0  0  0
  -19.1529  -28.8837   23.2907 C   0  0  0  0  0  0
  -18.9455  -30.1443   23.8923 C   0  0  0  0  0  0
  -17.6457  -30.6579   24.0571 C   0  0  0  0  0  0
  -25.9015  -34.9481   23.5146 C   0  0  0  0  0  0
  -16.5348  -29.9096   23.6311 C   0  0  0  0  0  0
  -16.7270  -28.6516   23.0329 C   0  0  0  0  0  0
  -26.4473  -31.6579   25.0704 C   0  0  0  0  0  0
  -25.3793  -31.3634   26.1484 C   0  0  0  0  0  0
  -27.0287  -30.3043   24.6001 C   0  0  0  0  0  0
  -27.6060  -32.4275   25.7471 C   0  0  0  0  0  0
  -27.5567  -37.1813   24.8463 C   0  0  0  0  0  0
  -21.4113  -29.3063   22.3695 N   0  0  0  0  0  0
  -26.4285  -37.3790   23.9412 N   0  0  0  0  0  0
  -24.6631  -31.0853   22.0973 N   0  0  0  0  0  0
  -23.4173  -28.8224   23.2965 O   0  0  0  0  0  0
  -28.3951  -26.7329   20.1431 O   0  0  0  0  0  0
  -26.5545  -34.8930   22.4682 O   0  0  0  0  0  0
  -23.5324  -32.1412   23.7543 O   0  0  0  0  0  0
  -26.3644  -21.0316   22.2487 C   0  0  0  0  0  0
  -25.8687  -19.7019   22.2525 C   0  0  0  0  0  0
  -26.1344  -21.4732   20.9780 C   0  0  0  0  0  0
  -24.9676  -20.4272   18.9540 C   0  0  0  0  0  0
  -26.0945  -18.6417   23.2926 C   0  0  0  0  0  0
  -26.5480  -22.7574   20.3398 C   0  0  0  0  0  0
  -27.5827  -18.2359   23.3971 C   0  0  0  0  0  0
  -28.0805  -22.9431   20.3190 C   0  0  0  0  0  0
  -28.3480  -18.2585   22.0529 C   0  0  0  0  0  0
  -29.6090  -17.3882   22.0308 C   0  0  0  0  0  0
  -28.5171  -24.3206   19.7855 C   0  0  0  0  0  0
  -29.2575  -15.9089   21.8340 C   0  0  0  0  0  0
  -28.2475  -25.4620   20.7786 C   0  0  0  0  0  0
  -25.2867  -19.3824   21.1055 N   0  0  0  0  0  0
  -25.4500  -20.4673   20.3203 N   0  0  0  0  0  0
  -30.4606  -15.0910   21.7541 N   0  0  0  0  0  0
  -31.4595  -12.3982   19.0809 H   0  0  0  0  0  0
  -30.3210  -11.2705   19.7549 H   0  0  0  0  0  0
  -29.7209  -11.8140   17.3936 H   0  0  0  0  0  0
  -29.6528  -13.5168   17.7692 H   0  0  0  0  0  0
  -27.8157  -11.3152   18.7847 H   0  0  0  0  0  0
  -27.3526  -12.6651   17.7862 H   0  0  0  0  0  0
  -27.7232  -14.2458   19.5998 H   0  0  0  0  0  0
  -28.6863  -11.8738   21.2816 H   0  0  0  0  0  0
  -28.4710  -13.4588   21.9038 H   0  0  0  0  0  0
  -25.2740   -9.5648   22.4708 H   0  0  0  0  0  0
  -24.0014   -7.4575   22.7387 H   0  0  0  0  0  0
  -21.0752   -8.8735   19.8969 H   0  0  0  0  0  0
  -22.3561  -10.9675   19.6227 H   0  0  0  0  0  0
  -21.2036   -7.6159   23.9764 H   0  0  0  0  0  0
  -21.1469   -6.0509   25.9103 H   0  0  0  0  0  0
  -22.0601   -2.7622   23.2858 H   0  0  0  0  0  0
  -22.4066  -11.9935   22.4848 H   0  0  0  0  0  0
  -21.1168  -13.1429   22.2774 H   0  0  0  0  0  0
  -24.6823  -15.8483   20.5570 H   0  0  0  0  0  0
  -26.3077  -15.6295   20.1582 H   0  0  0  0  0  0
  -26.7097  -32.5553   23.1190 H   0  0  0  0  0  0
  -25.0158  -33.9799   25.0576 H   0  0  0  0  0  0
  -22.6908  -31.3129   21.4071 H   0  0  0  0  0  0
  -23.3737  -35.9656   23.3318 H   0  0  0  0  0  0
  -24.3591  -36.8909   22.2060 H   0  0  0  0  0  0
  -23.7240  -37.6536   23.6632 H   0  0  0  0  0  0
  -26.0213  -31.6111   20.5794 H   0  0  0  0  0  0
  -26.8177  -30.9148   21.9608 H   0  0  0  0  0  0
  -28.0898  -29.1351   21.1772 H   0  0  0  0  0  0
  -26.0848  -25.9836   19.0204 H   0  0  0  0  0  0
  -23.9889  -27.2942   19.0289 H   0  0  0  0  0  0
  -23.7193  -30.6040   19.4004 H   0  0  0  0  0  0
  -22.7340  -29.2470   19.8547 H   0  0  0  0  0  0
  -25.1274  -36.1983   25.0842 H   0  0  0  0  0  0
  -20.9995  -28.3249   24.1413 H   0  0  0  0  0  0
  -20.5670  -26.2283   23.3607 H   0  0  0  0  0  0
  -21.6637  -26.7443   22.1204 H   0  0  0  0  0  0
  -19.6906  -25.6316   21.1220 H   0  0  0  0  0  0
  -19.6692  -27.3221   20.6756 H   0  0  0  0  0  0
  -17.4200  -26.6691   21.4013 H   0  0  0  0  0  0
  -18.0320  -26.0069   22.9010 H   0  0  0  0  0  0
  -19.7935  -30.7247   24.2303 H   0  0  0  0  0  0
  -17.5018  -31.6253   24.5186 H   0  0  0  0  0  0
  -15.5357  -30.3008   23.7616 H   0  0  0  0  0  0
  -15.8671  -28.0850   22.7015 H   0  0  0  0  0  0
  -24.5995  -30.6925   25.7845 H   0  0  0  0  0  0
  -24.8956  -32.2775   26.4944 H   0  0  0  0  0  0
  -25.8233  -30.8829   27.0219 H   0  0  0  0  0  0
  -26.2780  -29.6796   24.1142 H   0  0  0  0  0  0
  -27.4209  -29.7257   25.4375 H   0  0  0  0  0  0
  -27.8549  -30.4399   23.9015 H   0  0  0  0  0  0
  -27.2680  -33.3574   26.2057 H   0  0  0  0  0  0
  -28.3879  -32.6819   25.0300 H   0  0  0  0  0  0
  -28.0707  -31.8376   26.5390 H   0  0  0  0  0  0
  -28.2591  -38.0105   24.7498 H   0  0  0  0  0  0
  -28.1066  -36.2640   24.6301 H   0  0  0  0  0  0
  -27.2298  -37.1471   25.8873 H   0  0  0  0  0  0
  -20.9243  -29.8827   21.6980 H   0  0  0  0  0  0
  -26.0178  -38.2866   24.1417 H   0  0  0  0  0  0
  -26.9044  -21.5486   23.0293 H   0  0  0  0  0  0
  -25.8117  -20.2922   18.2779 H   0  0  0  0  0  0
  -24.4627  -21.3615   18.7108 H   0  0  0  0  0  0
  -24.2638  -19.6045   18.8150 H   0  0  0  0  0  0
  -25.5150  -17.7543   23.0370 H   0  0  0  0  0  0
  -25.7214  -18.9673   24.2640 H   0  0  0  0  0  0
  -26.0665  -23.5658   20.8878 H   0  0  0  0  0  0
  -26.1662  -22.8234   19.3212 H   0  0  0  0  0  0
  -27.6439  -17.2613   23.8794 H   0  0  0  0  0  0
  -28.0871  -18.9291   24.0738 H   0  0  0  0  0  0
  -28.5231  -22.1600   19.6981 H   0  0  0  0  0  0
  -28.4881  -22.7954   21.3207 H   0  0  0  0  0  0
  -28.6208  -19.2890   21.8173 H   0  0  0  0  0  0
  -27.6934  -17.9412   21.2387 H   0  0  0  0  0  0
  -30.1875  -17.5377   22.9433 H   0  0  0  0  0  0
  -30.2492  -17.7132   21.2097 H   0  0  0  0  0  0
  -28.0222  -24.5163   18.8355 H   0  0  0  0  0  0
  -29.5865  -24.2995   19.5712 H   0  0  0  0  0  0
  -28.6594  -15.8073   20.9280 H   0  0  0  0  0  0
  -28.6454  -15.5532   22.6613 H   0  0  0  0  0  0
  -28.9521  -25.3971   21.6080 H   0  0  0  0  0  0
  -27.2635  -25.3568   21.2387 H   0  0  0  0  0  0
  -31.2634  -15.5859   22.1155 H   0  0  0  0  0  0
  1 25  1  0  0  0
  1 30  2  0  0  0
  1 86  1  0  0  0
  2  3  1  0  0  0
  2 25  1  0  0  0
  2 87  1  0  0  0
  2 88  1  0  0  0
  3  4  1  0  0  0
  3 89  1  0  0  0
  3 90  1  0  0  0
  4  5  1  0  0  0
  4 91  1  0  0  0
  4 92  1  0  0  0
  5  6  1  0  0  0
  5 26  1  0  0  0
  5 93  1  0  0  0
  6 25  1  0  0  0
  6 94  1  0  0  0
  6 95  1  0  0  0
  7  8  2  0  0  0
  7 26  1  0  0  0
  7 29  1  0  0  0
  8  9  1  0  0  0
  8 22  1  0  0  0
  9 10  1  0  0  0
  9 27  2  0  0  0
 10 11  2  0  0  0
 10 15  1  0  0  0
 11 12  1  0  0  0
 11 96  1  0  0  0
 12 13  2  0  0  0
 12 97  1  0  0  0
 13 14  1  0  0  0
 13 31  1  0  0  0
 14 15  2  0  0  0
 14 98  1  0  0  0
 15 99  1  0  0  0
 16 17  2  0  0  0
 16 21  1  0  0  0
 16 31  1  0  0  0
 17 18  1  0  0  0
 17100  1  0  0  0
 18 19  2  0  0  0
 18101  1  0  0  0
 19 20  1  0  0  0
 19 24  1  0  0  0
 20 21  2  0  0  0
 20102  1  0  0  0
 21 23  1  0  0  0
 22 28  1  0  0  0
 22 32  2  0  0  0
 26 27  1  0  0  0
 28103  1  0  0  0
 28104  1  0  0  0
 29105  1  0  0  0
 29106  1  0  0  0
 33 34  1  0  0  0
 33 66  1  0  0  0
 33 70  2  0  0  0
 34 36  1  0  0  0
 34 59  1  0  0  0
 34107  1  0  0  0
 35 44  2  0  0  0
 35 45  1  0  0  0
 35 68  1  0  0  0
 36 56  1  0  0  0
 36108  1  0  0  0
 37 39  1  0  0  0
 37 47  1  0  0  0
 37 66  1  0  0  0
 37109  1  0  0  0
 38 43  2  0  0  0
 38 46  1  0  0  0
 38 47  1  0  0  0
 39 64  1  0  0  0
 39 67  2  0  0  0
 40 52  1  0  0  0
 40 53  2  0  0  0
 40 58  1  0  0  0
 41110  1  0  0  0
 41111  1  0  0  0
 41112  1  0  0  0
 41 48  1  0  0  0
 42 43  1  0  0  0
 42 66  1  0  0  0
 42113  1  0  0  0
 42114  1  0  0  0
 43 44  1  0  0  0
 44115  1  0  0  0
 45 46  2  0  0  0
 45116  1  0  0  0
 46117  1  0  0  0
 47118  1  0  0  0
 47119  1  0  0  0
 48 56  1  0  0  0
 48 65  1  0  0  0
 48120  1  0  0  0
 49 50  1  0  0  0
 49 53  1  0  0  0
 49 64  1  0  0  0
 49121  1  0  0  0
 50 51  1  0  0  0
 50122  1  0  0  0
 50123  1  0  0  0
 51 52  1  0  0  0
 51124  1  0  0  0
 51125  1  0  0  0
 52126  1  0  0  0
 52127  1  0  0  0
 53 54  1  0  0  0
 54 55  2  0  0  0
 54128  1  0  0  0
 55 57  1  0  0  0
 55129  1  0  0  0
 56 69  2  0  0  0
 57 58  2  0  0  0
 57130  1  0  0  0
 58131  1  0  0  0
 59 60  1  0  0  0
 59 61  1  0  0  0
 59 62  1  0  0  0
 60132  1  0  0  0
 60133  1  0  0  0
 60134  1  0  0  0
 61135  1  0  0  0
 61136  1  0  0  0
 61137  1  0  0  0
 62138  1  0  0  0
 62139  1  0  0  0
 62140  1  0  0  0
 63 65  1  0  0  0
 63141  1  0  0  0
 63142  1  0  0  0
 63143  1  0  0  0
 64144  1  0  0  0
 65145  1  0  0  0
 68 83  1  0  0  0
 71 72  1  0  0  0
 71 73  2  0  0  0
 71146  1  0  0  0
 72 75  1  0  0  0
 72 84  2  0  0  0
 73 76  1  0  0  0
 73 85  1  0  0  0
 74 85  1  0  0  0
 74147  1  0  0  0
 74148  1  0  0  0
 74149  1  0  0  0
 75 77  1  0  0  0
 75150  1  0  0  0
 75151  1  0  0  0
 76 78  1  0  0  0
 76152  1  0  0  0
 76153  1  0  0  0
 77 79  1  0  0  0
 77154  1  0  0  0
 77155  1  0  0  0
 78 81  1  0  0  0
 78156  1  0  0  0
 78157  1  0  0  0
 79 80  1  0  0  0
 79158  1  0  0  0
 79159  1  0  0  0
 80 82  1  0  0  0
 80160  1  0  0  0
 80161  1  0  0  0
 81 83  1  0  0  0
 81162  1  0  0  0
 81163  1  0  0  0
 82 86  1  0  0  0
 82164  1  0  0  0
 82165  1  0  0  0
 83166  1  0  0  0
 83167  1  0  0  0
 84 85  1  0  0  0
 86168  1  0  0  0
M  ISO  4   1 100  68 101  83 101  86 100
M  END
> <chiral flag>
0

> <version>
0

> <s_m_source_file>
/data/baiqing/PycharmProjects/Reinvent-master-3.2/result/LINK_invent/BTK/process_docking_weight1_custom_sum_contain_oxygen_bond_distance_aromatic_linkinvent_7_9_3/rearranged_h_0035.sdf

> <i_m_source_file_index>
39

> <r_mmod_Potential_Energy-OPLS-2005>
-62.5792274475098

> <r_mmod_Stretch_Energy-OPLS-2005>
30.6624374389648

> <r_mmod_Bend_Energy-OPLS-2005>
96.3275833129883

> <r_mmod_Torsional_Energy-OPLS-2005>
281.404968261719

> <r_mmod_Improper_Torsional_Energy-OPLS-2005>
8.60118770599365

> <r_mmod_Van_der_Waal_Energy-OPLS-2005>
126.299728393555

> <r_mmod_Electrostatic_Energy-OPLS-2005>
-407.087951660156

> <r_mmod_Solvation_Energy-OPLS-2005>
-207.259506225586

> <b_mmod_Minimization_Converged-OPLS-2005>
0

> <r_mmod_RMS_Derivative-OPLS-2005>
3.33860445022583

$$$$
39
                    3D
 Structure written by MMmdl.
163171  0  0  1  0            999 V2000
  -30.6934  -14.4766   20.5225 C   0  0  0  0  0  0
  -30.4198  -12.2965   19.4229 C   0  0  0  0  0  0
  -29.4970  -12.4888   18.2024 C   0  0  0  0  0  0
  -28.0156  -12.3584   18.6108 C   0  0  0  0  0  0
  -27.6577  -13.2055   19.8619 C   0  0  2  0  0  0
  -28.6996  -13.0058   20.9860 C   0  0  0  0  0  0
  -25.2600  -13.8178   20.5657 C   0  0  0  0  0  0
  -24.1859  -13.0455   20.9187 C   0  0  0  0  0  0
  -24.6395  -11.6911   20.8705 C   0  0  0  0  0  0
  -23.9054  -10.4306   21.0374 C   0  0  0  0  0  0
  -24.3613   -9.4228   21.9144 C   0  0  0  0  0  0
  -23.6315   -8.2249   22.0717 C   0  0  0  0  0  0
  -22.4281   -8.0294   21.3530 C   0  0  0  0  0  0
  -21.9899   -9.0255   20.4628 C   0  0  0  0  0  0
  -22.7221  -10.2136   20.3035 C   0  0  0  0  0  0
  -21.6877   -6.0748   22.5279 C   0  0  0  0  0  0
  -21.4023   -6.5639   23.8215 C   0  0  0  0  0  0
  -21.3652   -5.6773   24.9165 C   0  0  0  0  0  0
  -21.6051   -4.3043   24.7204 C   0  0  0  0  0  0
  -21.8834   -3.8152   23.4329 C   0  0  0  0  0  0
  -21.9208   -4.6973   22.3394 C   0  0  0  0  0  0
  -22.7886  -13.5233   21.1875 C   0  0  0  0  0  0
  -22.1682   -4.2164   21.0966 F   0  0  0  0  0  0
  -21.5610   -3.4523   25.7718 F   0  0  0  0  0  0
  -30.0284  -13.2956   20.4271 N   0  0  0  0  0  0
  -26.3014  -12.9322   20.3292 N   0  0  0  0  0  0
  -25.9319  -11.6482   20.5720 N   0  0  0  0  0  0
  -22.0548  -12.8200   22.0428 N   0  0  0  0  0  0
  -25.4309  -15.1903   20.4047 N   0  0  0  0  0  0
  -31.8496  -14.6249   20.1201 O   0  0  0  0  0  0
  -21.6666   -6.8885   21.4241 O   0  0  0  0  0  0
  -22.3546  -14.5519   20.6719 O   0  0  0  0  0  0
  -24.6100  -31.8684   23.2121 C   0  0  0  0  0  0
  -25.9017  -32.4824   23.8382 C   0  0  1  0  0  0
  -27.2369  -27.4545   20.1028 C   0  0  0  0  0  0
  -25.5911  -33.8631   24.2311 N   0  0  0  0  0  0
  -23.3976  -30.4951   21.5499 C   0  0  2  0  0  0
  -24.8449  -28.9619   20.1173 C   0  0  0  0  0  0
  -22.7373  -29.4683   22.4979 C   0  0  0  0  0  0
  -18.0263  -28.1389   22.8476 C   0  0  0  0  0  0
  -24.1510  -36.7295   23.2635 C   0  0  0  0  0  0
  -25.9246  -30.8415   21.3672 C   0  0  0  0  0  0
  -26.0022  -29.4804   20.7095 C   0  0  0  0  0  0
  -27.1988  -28.7326   20.6967 C   0  0  0  0  0  0
  -26.0599  -26.9465   19.5006 C   0  0  0  0  0  0
  -24.8662  -27.6928   19.5134 C   0  0  0  0  0  0
  -23.6065  -29.8249   20.1660 C   0  0  0  0  0  0
  -25.4134  -36.3099   24.0320 C   0  0  1  0  0  0
  -20.5855  -28.3668   23.1306 C   0  0  2  0  0  0
  -20.6757  -26.9401   22.5424 C   0  0  0  0  0  0
  -19.5762  -26.6390   21.5196 C   0  0  0  0  0  0
  -18.1932  -26.7941   22.1582 C   0  0  0  0  0  0
  -19.1514  -28.8834   23.2901 C   0  0  0  0  0  0
  -18.9448  -30.1434   23.8929 C   0  0  0  0  0  0
  -17.6459  -30.6599   24.0568 C   0  0  0  0  0  0
  -25.9050  -34.9473   23.5096 C   0  0  0  0  0  0
  -16.5349  -29.9111   23.6331 C   0  0  0  0  0  0
  -16.7251  -28.6524   23.0353 C   0  0  0  0  0  0
  -26.4456  -31.6624   25.0716 C   0  0  0  0  0  0
  -25.3712  -31.3781   26.1457 C   0  0  0  0  0  0
  -27.0279  -30.3048   24.6139 C   0  0  0  0  0  0
  -27.6023  -32.4351   25.7482 C   0  0  0  0  0  0
  -27.5591  -37.1808   24.8447 C   0  0  0  0  0  0
  -21.4104  -29.3036   22.3695 N   0  0  0  0  0  0
  -26.4310  -37.3788   23.9397 N   0  0  0  0  0  0
  -24.6608  -31.0816   22.1015 N   0  0  0  0  0  0
  -23.4138  -28.8206   23.3009 O   0  0  0  0  0  0
  -28.4251  -26.7573   20.1386 O   0  0  0  0  0  0
  -26.5605  -34.8906   22.4656 O   0  0  0  0  0  0
  -23.5301  -32.1426   23.7546 O   0  0  0  0  0  0
  -28.9909  -21.4175   17.3991 C   0  0  0  0  0  0
  -29.9935  -23.3114   18.0019 C   0  0  0  0  0  0
  -29.6001  -22.6022   16.9047 C   0  0  0  0  0  0
  -29.0245  -21.4303   18.7677 C   0  0  0  0  0  0
  -29.7832  -23.0007   15.4665 C   0  0  0  0  0  0
  -28.5713  -20.3417   19.7112 C   0  0  0  0  0  0
  -29.6920  -19.3219   20.0300 C   0  0  0  0  0  0
  -29.2034  -17.9151   20.4553 C   0  0  0  0  0  0
  -29.6371  -24.7156   20.6206 C   0  0  0  0  0  0
  -29.7571  -23.1720   20.5051 C   0  0  0  0  0  0
  -30.3755  -16.9370   20.7037 C   0  0  0  0  0  0
  -28.3807  -25.3402   19.9761 C   0  0  0  0  0  0
  -29.5763  -22.6544   19.1499 N   0  0  0  0  0  0
  -29.9489  -15.5398   20.8775 N   0  0  0  0  0  0
  -31.4650  -12.3877   19.1227 H   0  0  0  0  0  0
  -30.3139  -11.2906   19.8332 H   0  0  0  0  0  0
  -29.7321  -11.7515   17.4343 H   0  0  0  0  0  0
  -29.6770  -13.4677   17.7525 H   0  0  0  0  0  0
  -27.8203  -11.3032   18.8096 H   0  0  0  0  0  0
  -27.3709  -12.6297   17.7733 H   0  0  0  0  0  0
  -27.6916  -14.2485   19.5487 H   0  0  0  0  0  0
  -28.6711  -11.9786   21.3506 H   0  0  0  0  0  0
  -28.4688  -13.6319   21.8488 H   0  0  0  0  0  0
  -25.2761   -9.5730   22.4693 H   0  0  0  0  0  0
  -24.0075   -7.4628   22.7403 H   0  0  0  0  0  0
  -21.0838   -8.8749   19.8926 H   0  0  0  0  0  0
  -22.3664  -10.9662   19.6142 H   0  0  0  0  0  0
  -21.2017   -7.6144   23.9714 H   0  0  0  0  0  0
  -21.1455   -6.0502   25.9060 H   0  0  0  0  0  0
  -22.0624   -2.7623   23.2819 H   0  0  0  0  0  0
  -22.4220  -11.9900   22.4851 H   0  0  0  0  0  0
  -21.1139  -13.1164   22.2600 H   0  0  0  0  0  0
  -24.6564  -15.8395   20.4954 H   0  0  0  0  0  0
  -26.2768  -15.6300   20.0648 H   0  0  0  0  0  0
  -26.7083  -32.5536   23.1144 H   0  0  0  0  0  0
  -25.0098  -33.9815   25.0474 H   0  0  0  0  0  0
  -22.6859  -31.3116   21.4096 H   0  0  0  0  0  0
  -23.3776  -35.9623   23.3308 H   0  0  0  0  0  0
  -24.3591  -36.8906   22.2042 H   0  0  0  0  0  0
  -23.7257  -37.6498   23.6650 H   0  0  0  0  0  0
  -26.0433  -31.6154   20.6080 H   0  0  0  0  0  0
  -26.8087  -30.8823   21.9925 H   0  0  0  0  0  0
  -28.0922  -29.1304   21.1578 H   0  0  0  0  0  0
  -26.0466  -25.9803   19.0193 H   0  0  0  0  0  0
  -23.9720  -27.2855   19.0623 H   0  0  0  0  0  0
  -23.7160  -30.5965   19.4029 H   0  0  0  0  0  0
  -22.7313  -29.2438   19.8694 H   0  0  0  0  0  0
  -25.1334  -36.1946   25.0815 H   0  0  0  0  0  0
  -20.9958  -28.3247   24.1413 H   0  0  0  0  0  0
  -20.5644  -26.2277   23.3614 H   0  0  0  0  0  0
  -21.6639  -26.7449   22.1226 H   0  0  0  0  0  0
  -19.6936  -25.6293   21.1244 H   0  0  0  0  0  0
  -19.6739  -27.3180   20.6711 H   0  0  0  0  0  0
  -17.4214  -26.6704   21.3967 H   0  0  0  0  0  0
  -18.0313  -26.0076   22.8960 H   0  0  0  0  0  0
  -19.7931  -30.7237   24.2332 H   0  0  0  0  0  0
  -17.5025  -31.6285   24.5156 H   0  0  0  0  0  0
  -15.5356  -30.3032   23.7652 H   0  0  0  0  0  0
  -15.8644  -28.0862   22.7064 H   0  0  0  0  0  0
  -24.5866  -30.7150   25.7798 H   0  0  0  0  0  0
  -24.8930  -32.2975   26.4852 H   0  0  0  0  0  0
  -25.8032  -30.8972   27.0244 H   0  0  0  0  0  0
  -26.2849  -29.6841   24.1116 H   0  0  0  0  0  0
  -27.3927  -29.7260   25.4639 H   0  0  0  0  0  0
  -27.8740  -30.4334   23.9382 H   0  0  0  0  0  0
  -27.2597  -33.3574   26.2194 H   0  0  0  0  0  0
  -28.3761  -32.7064   25.0284 H   0  0  0  0  0  0
  -28.0794  -31.8423   26.5298 H   0  0  0  0  0  0
  -28.2611  -38.0104   24.7497 H   0  0  0  0  0  0
  -28.1093  -36.2634   24.6288 H   0  0  0  0  0  0
  -27.2303  -37.1467   25.8849 H   0  0  0  0  0  0
  -20.9255  -29.8697   21.6877 H   0  0  0  0  0  0
  -26.0187  -38.2860   24.1427 H   0  0  0  0  0  0
  -28.5779  -20.6156   16.8030 H   0  0  0  0  0  0
  -30.5027  -24.2641   18.0644 H   0  0  0  0  0  0
  -29.6025  -22.1536   14.8046 H   0  0  0  0  0  0
  -30.7985  -23.3559   15.2879 H   0  0  0  0  0  0
  -29.0864  -23.7958   15.2019 H   0  0  0  0  0  0
  -27.7384  -19.8178   19.2405 H   0  0  0  0  0  0
  -28.1509  -20.7519   20.6303 H   0  0  0  0  0  0
  -30.3608  -19.7434   20.7808 H   0  0  0  0  0  0
  -30.2988  -19.1926   19.1308 H   0  0  0  0  0  0
  -28.5631  -17.5146   19.6670 H   0  0  0  0  0  0
  -28.5861  -17.9871   21.3524 H   0  0  0  0  0  0
  -30.5279  -25.1802   20.1989 H   0  0  0  0  0  0
  -29.6541  -24.9779   21.6778 H   0  0  0  0  0  0
  -29.0118  -22.7209   21.1579 H   0  0  0  0  0  0
  -30.7309  -22.8444   20.8719 H   0  0  0  0  0  0
  -30.9493  -17.2491   21.5785 H   0  0  0  0  0  0
  -31.0590  -17.0048   19.8539 H   0  0  0  0  0  0
  -27.4961  -24.9085   20.4456 H   0  0  0  0  0  0
  -28.3248  -25.1281   18.9092 H   0  0  0  0  0  0
  -28.9986  -15.3635   21.1742 H   0  0  0  0  0  0
  1 25  1  0  0  0
  1 30  2  0  0  0
  1 84  1  0  0  0
  2  3  1  0  0  0
  2 25  1  0  0  0
  2 85  1  0  0  0
  2 86  1  0  0  0
  3  4  1  0  0  0
  3 87  1  0  0  0
  3 88  1  0  0  0
  4  5  1  0  0  0
  4 89  1  0  0  0
  4 90  1  0  0  0
  5  6  1  0  0  0
  5 26  1  0  0  0
  5 91  1  0  0  0
  6 25  1  0  0  0
  6 92  1  0  0  0
  6 93  1  0  0  0
  7  8  2  0  0  0
  7 26  1  0  0  0
  7 29  1  0  0  0
  8  9  1  0  0  0
  8 22  1  0  0  0
  9 10  1  0  0  0
  9 27  2  0  0  0
 10 11  2  0  0  0
 10 15  1  0  0  0
 11 12  1  0  0  0
 11 94  1  0  0  0
 12 13  2  0  0  0
 12 95  1  0  0  0
 13 14  1  0  0  0
 13 31  1  0  0  0
 14 15  2  0  0  0
 14 96  1  0  0  0
 15 97  1  0  0  0
 16 17  2  0  0  0
 16 21  1  0  0  0
 16 31  1  0  0  0
 17 18  1  0  0  0
 17 98  1  0  0  0
 18 19  2  0  0  0
 18 99  1  0  0  0
 19 20  1  0  0  0
 19 24  1  0  0  0
 20 21  2  0  0  0
 20100  1  0  0  0
 21 23  1  0  0  0
 22 28  1  0  0  0
 22 32  2  0  0  0
 26 27  1  0  0  0
 28101  1  0  0  0
 28102  1  0  0  0
 29103  1  0  0  0
 29104  1  0  0  0
 33 34  1  0  0  0
 33 66  1  0  0  0
 33 70  2  0  0  0
 34 36  1  0  0  0
 34 59  1  0  0  0
 34105  1  0  0  0
 35 44  2  0  0  0
 35 45  1  0  0  0
 35 68  1  0  0  0
 36 56  1  0  0  0
 36106  1  0  0  0
 37 39  1  0  0  0
 37 47  1  0  0  0
 37 66  1  0  0  0
 37107  1  0  0  0
 38 43  2  0  0  0
 38 46  1  0  0  0
 38 47  1  0  0  0
 39 64  1  0  0  0
 39 67  2  0  0  0
 40 52  1  0  0  0
 40 53  2  0  0  0
 40 58  1  0  0  0
 41108  1  0  0  0
 41109  1  0  0  0
 41110  1  0  0  0
 41 48  1  0  0  0
 42 43  1  0  0  0
 42 66  1  0  0  0
 42111  1  0  0  0
 42112  1  0  0  0
 43 44  1  0  0  0
 44113  1  0  0  0
 45 46  2  0  0  0
 45114  1  0  0  0
 46115  1  0  0  0
 47116  1  0  0  0
 47117  1  0  0  0
 48 56  1  0  0  0
 48 65  1  0  0  0
 48118  1  0  0  0
 49 50  1  0  0  0
 49 53  1  0  0  0
 49 64  1  0  0  0
 49119  1  0  0  0
 50 51  1  0  0  0
 50120  1  0  0  0
 50121  1  0  0  0
 51 52  1  0  0  0
 51122  1  0  0  0
 51123  1  0  0  0
 52124  1  0  0  0
 52125  1  0  0  0
 53 54  1  0  0  0
 54 55  2  0  0  0
 54126  1  0  0  0
 55 57  1  0  0  0
 55127  1  0  0  0
 56 69  2  0  0  0
 57 58  2  0  0  0
 57128  1  0  0  0
 58129  1  0  0  0
 59 60  1  0  0  0
 59 61  1  0  0  0
 59 62  1  0  0  0
 60130  1  0  0  0
 60131  1  0  0  0
 60132  1  0  0  0
 61133  1  0  0  0
 61134  1  0  0  0
 61135  1  0  0  0
 62136  1  0  0  0
 62137  1  0  0  0
 62138  1  0  0  0
 63 65  1  0  0  0
 63139  1  0  0  0
 63140  1  0  0  0
 63141  1  0  0  0
 64142  1  0  0  0
 65143  1  0  0  0
 68 82  1  0  0  0
 71 73  1  0  0  0
 71 74  2  0  0  0
 71144  1  0  0  0
 72 73  2  0  0  0
 72 83  1  0  0  0
 72145  1  0  0  0
 73 75  1  0  0  0
 74 76  1  0  0  0
 74 83  1  0  0  0
 75146  1  0  0  0
 75147  1  0  0  0
 75148  1  0  0  0
 76 77  1  0  0  0
 76149  1  0  0  0
 76150  1  0  0  0
 77 78  1  0  0  0
 77151  1  0  0  0
 77152  1  0  0  0
 78 81  1  0  0  0
 78153  1  0  0  0
 78154  1  0  0  0
 79 80  1  0  0  0
 79 82  1  0  0  0
 79155  1  0  0  0
 79156  1  0  0  0
 80 83  1  0  0  0
 80157  1  0  0  0
 80158  1  0  0  0
 81 84  1  0  0  0
 81159  1  0  0  0
 81160  1  0  0  0
 82161  1  0  0  0
 82162  1  0  0  0
 84163  1  0  0  0
M  ISO  4   1 100  68 101  82 101  84 100
M  END
> <chiral flag>
0

> <version>
0

> <s_m_source_file>
/data/baiqing/PycharmProjects/Reinvent-master-3.2/result/LINK_invent/BTK/process_docking_weight1_custom_sum_contain_oxygen_bond_distance_aromatic_linkinvent_7_9_3/rearranged_h_0035.sdf

> <i_m_source_file_index>
40

> <r_mmod_Potential_Energy-OPLS-2005>
-108.156120300293

> <r_mmod_Stretch_Energy-OPLS-2005>
33.2473449707031

> <r_mmod_Bend_Energy-OPLS-2005>
97.8090438842773

> <r_mmod_Torsional_Energy-OPLS-2005>
216.135040283203

> <r_mmod_Improper_Torsional_Energy-OPLS-2005>
5.22701597213745

> <r_mmod_Van_der_Waal_Energy-OPLS-2005>
132.835861206055

> <r_mmod_Electrostatic_Energy-OPLS-2005>
-398.055053710938

> <r_mmod_Solvation_Energy-OPLS-2005>
-210.399932861328

> <b_mmod_Minimization_Converged-OPLS-2005>
0

> <r_mmod_RMS_Derivative-OPLS-2005>
3.1669716835022

$$$$
40
                    3D
 Structure written by MMmdl.
162170  0  0  1  0            999 V2000
  -30.6198  -14.4187   20.6103 C   0  0  0  0  0  0
  -30.4322  -12.2917   19.3485 C   0  0  0  0  0  0
  -29.4824  -12.4980   18.1534 C   0  0  0  0  0  0
  -28.0051  -12.3570   18.5781 C   0  0  0  0  0  0
  -27.6598  -13.1675   19.8572 C   0  0  2  0  0  0
  -28.6892  -12.8718   20.9601 C   0  0  0  0  0  0
  -25.2654  -13.8099   20.5611 C   0  0  0  0  0  0
  -24.1889  -13.0424   20.9083 C   0  0  0  0  0  0
  -24.6399  -11.6876   20.8717 C   0  0  0  0  0  0
  -23.9104  -10.4290   21.0430 C   0  0  0  0  0  0
  -24.3647   -9.4196   21.9220 C   0  0  0  0  0  0
  -23.6300   -8.2234   22.0795 C   0  0  0  0  0  0
  -22.4290   -8.0278   21.3550 C   0  0  0  0  0  0
  -21.9901   -9.0282   20.4671 C   0  0  0  0  0  0
  -22.7255  -10.2150   20.3080 C   0  0  0  0  0  0
  -21.6879   -6.0715   22.5284 C   0  0  0  0  0  0
  -21.4036   -6.5608   23.8219 C   0  0  0  0  0  0
  -21.3654   -5.6772   24.9151 C   0  0  0  0  0  0
  -21.6044   -4.3060   24.7216 C   0  0  0  0  0  0
  -21.8838   -3.8117   23.4366 C   0  0  0  0  0  0
  -21.9214   -4.6931   22.3398 C   0  0  0  0  0  0
  -22.7960  -13.5270   21.1766 C   0  0  0  0  0  0
  -22.1689   -4.2131   21.0972 F   0  0  0  0  0  0
  -21.5607   -3.4509   25.7728 F   0  0  0  0  0  0
  -30.0162  -13.2229   20.4152 N   0  0  0  0  0  0
  -26.3058  -12.9187   20.3197 N   0  0  0  0  0  0
  -25.9306  -11.6423   20.5658 N   0  0  0  0  0  0
  -22.0553  -12.8342   22.0334 N   0  0  0  0  0  0
  -25.4411  -15.1810   20.4032 N   0  0  0  0  0  0
  -31.7149  -14.7367   20.1265 O   0  0  0  0  0  0
  -21.6645   -6.8866   21.4262 O   0  0  0  0  0  0
  -22.3689  -14.5595   20.6584 O   0  0  0  0  0  0
  -24.6093  -31.8728   23.2104 C   0  0  0  0  0  0
  -25.8996  -32.4844   23.8403 C   0  0  1  0  0  0
  -27.2502  -27.4780   20.1053 C   0  0  0  0  0  0
  -25.5887  -33.8642   24.2366 N   0  0  0  0  0  0
  -23.3979  -30.4939   21.5479 C   0  0  2  0  0  0
  -24.8484  -28.9501   20.1239 C   0  0  0  0  0  0
  -22.7389  -29.4683   22.4989 C   0  0  0  0  0  0
  -18.0277  -28.1372   22.8487 C   0  0  0  0  0  0
  -24.1483  -36.7336   23.2647 C   0  0  0  0  0  0
  -25.9199  -30.8474   21.3565 C   0  0  0  0  0  0
  -25.9983  -29.4788   20.7233 C   0  0  0  0  0  0
  -27.2030  -28.7452   20.7163 C   0  0  0  0  0  0
  -26.0940  -26.9586   19.4928 C   0  0  0  0  0  0
  -24.8837  -27.6836   19.5097 C   0  0  0  0  0  0
  -23.6078  -29.8164   20.1661 C   0  0  0  0  0  0
  -25.4093  -36.3127   24.0357 C   0  0  1  0  0  0
  -20.5862  -28.3662   23.1325 C   0  0  2  0  0  0
  -20.6747  -26.9395   22.5409 C   0  0  0  0  0  0
  -19.5739  -26.6369   21.5178 C   0  0  0  0  0  0
  -18.1924  -26.7925   22.1610 C   0  0  0  0  0  0
  -19.1520  -28.8810   23.2917 C   0  0  0  0  0  0
  -18.9489  -30.1420   23.8928 C   0  0  0  0  0  0
  -17.6499  -30.6580   24.0579 C   0  0  0  0  0  0
  -25.9015  -34.9499   23.5154 C   0  0  0  0  0  0
  -16.5375  -29.9109   23.6331 C   0  0  0  0  0  0
  -16.7273  -28.6534   23.0316 C   0  0  0  0  0  0
  -26.4468  -31.6581   25.0698 C   0  0  0  0  0  0
  -25.3766  -31.3662   26.1457 C   0  0  0  0  0  0
  -27.0256  -30.3015   24.5999 C   0  0  0  0  0  0
  -27.6049  -32.4256   25.7448 C   0  0  0  0  0  0
  -27.5576  -37.1826   24.8463 C   0  0  0  0  0  0
  -21.4110  -29.3022   22.3716 N   0  0  0  0  0  0
  -26.4298  -37.3797   23.9418 N   0  0  0  0  0  0
  -24.6586  -31.0866   22.0983 N   0  0  0  0  0  0
  -23.4167  -28.8211   23.3013 O   0  0  0  0  0  0
  -28.4195  -26.7651   20.0805 O   0  0  0  0  0  0
  -26.5571  -34.8966   22.4702 O   0  0  0  0  0  0
  -23.5301  -32.1382   23.7547 O   0  0  0  0  0  0
  -26.7657  -19.6935   21.9082 C   0  0  0  0  0  0
  -26.5657  -22.1097   21.6436 C   0  0  0  0  0  0
  -28.6343  -21.1469   22.4911 C   0  0  0  0  0  0
  -26.0073  -20.8233   21.5349 C   0  0  0  0  0  0
  -28.0908  -19.8509   22.3663 C   0  0  0  0  0  0
  -27.8810  -22.2839   22.1274 C   0  0  0  0  0  0
  -24.6035  -20.6716   20.9851 C   0  0  0  0  0  0
  -28.9462  -18.6443   22.7041 C   0  0  0  0  0  0
  -28.5050  -23.6703   22.2577 C   0  0  0  0  0  0
  -28.9804  -17.5752   21.5951 C   0  0  0  0  0  0
  -27.9677  -24.7059   21.2461 C   0  0  0  0  0  0
  -30.1305  -16.5794   21.8554 C   0  0  0  0  0  0
  -28.7023  -26.0516   21.2791 C   0  0  0  0  0  0
  -29.8494  -15.2617   21.3147 N   0  0  0  0  0  0
  -31.4643  -12.4463   19.0402 H   0  0  0  0  0  0
  -30.3847  -11.2635   19.7088 H   0  0  0  0  0  0
  -29.7070  -11.7807   17.3651 H   0  0  0  0  0  0
  -29.6484  -13.4922   17.7249 H   0  0  0  0  0  0
  -27.8142  -11.2988   18.7557 H   0  0  0  0  0  0
  -27.3451  -12.6632   17.7624 H   0  0  0  0  0  0
  -27.7333  -14.2250   19.6008 H   0  0  0  0  0  0
  -28.6745  -11.8179   21.2398 H   0  0  0  0  0  0
  -28.4333  -13.3816   21.8900 H   0  0  0  0  0  0
  -25.2799   -9.5666   22.4788 H   0  0  0  0  0  0
  -24.0030   -7.4609   22.7542 H   0  0  0  0  0  0
  -21.0787   -8.8805   19.8998 H   0  0  0  0  0  0
  -22.3738  -10.9686   19.6173 H   0  0  0  0  0  0
  -21.2072   -7.6134   23.9706 H   0  0  0  0  0  0
  -21.1435   -6.0487   25.9056 H   0  0  0  0  0  0
  -22.0638   -2.7588   23.2841 H   0  0  0  0  0  0
  -22.4142  -11.9996   22.4766 H   0  0  0  0  0  0
  -21.1191  -13.1456   22.2471 H   0  0  0  0  0  0
  -24.6715  -15.8257   20.5391 H   0  0  0  0  0  0
  -26.2783  -15.6351   20.0713 H   0  0  0  0  0  0
  -26.7052  -32.5588   23.1179 H   0  0  0  0  0  0
  -25.0034  -33.9754   25.0499 H   0  0  0  0  0  0
  -22.6800  -31.3062   21.4046 H   0  0  0  0  0  0
  -23.3734  -35.9677   23.3298 H   0  0  0  0  0  0
  -24.3601  -36.8925   22.2060 H   0  0  0  0  0  0
  -23.7209  -37.6559   23.6616 H   0  0  0  0  0  0
  -26.0122  -31.6068   20.5776 H   0  0  0  0  0  0
  -26.8120  -30.9164   21.9665 H   0  0  0  0  0  0
  -28.0945  -29.1528   21.1721 H   0  0  0  0  0  0
  -26.1294  -25.9877   19.0198 H   0  0  0  0  0  0
  -24.0009  -27.2648   19.0509 H   0  0  0  0  0  0
  -23.7270  -30.5826   19.4016 H   0  0  0  0  0  0
  -22.7334  -29.2396   19.8658 H   0  0  0  0  0  0
  -25.1259  -36.2036   25.0849 H   0  0  0  0  0  0
  -20.9958  -28.3234   24.1459 H   0  0  0  0  0  0
  -20.5584  -26.2313   23.3614 H   0  0  0  0  0  0
  -21.6639  -26.7374   22.1276 H   0  0  0  0  0  0
  -19.6901  -25.6281   21.1208 H   0  0  0  0  0  0
  -19.6700  -27.3198   20.6720 H   0  0  0  0  0  0
  -17.4200  -26.6621   21.4031 H   0  0  0  0  0  0
  -18.0385  -26.0064   22.9004 H   0  0  0  0  0  0
  -19.7972  -30.7221   24.2309 H   0  0  0  0  0  0
  -17.5077  -31.6250   24.5236 H   0  0  0  0  0  0
  -15.5380  -30.3049   23.7660 H   0  0  0  0  0  0
  -15.8657  -28.0890   22.7007 H   0  0  0  0  0  0
  -24.5958  -30.6966   25.7825 H   0  0  0  0  0  0
  -24.8959  -32.2822   26.4907 H   0  0  0  0  0  0
  -25.8195  -30.8862   27.0193 H   0  0  0  0  0  0
  -26.2763  -29.6791   24.1092 H   0  0  0  0  0  0
  -27.4066  -29.7230   25.4429 H   0  0  0  0  0  0
  -27.8593  -30.4307   23.9082 H   0  0  0  0  0  0
  -27.2670  -33.3539   26.2055 H   0  0  0  0  0  0
  -28.3876  -32.6804   25.0289 H   0  0  0  0  0  0
  -28.0677  -31.8331   26.5343 H   0  0  0  0  0  0
  -28.2629  -38.0100   24.7534 H   0  0  0  0  0  0
  -28.1070  -36.2659   24.6284 H   0  0  0  0  0  0
  -27.2341  -37.1455   25.8882 H   0  0  0  0  0  0
  -20.9240  -29.8916   21.7080 H   0  0  0  0  0  0
  -26.0222  -38.2910   24.1369 H   0  0  0  0  0  0
  -26.3371  -18.7052   21.8294 H   0  0  0  0  0  0
  -25.9652  -22.9564   21.3443 H   0  0  0  0  0  0
  -29.6481  -21.2741   22.8458 H   0  0  0  0  0  0
  -24.4209  -19.6585   20.6147 H   0  0  0  0  0  0
  -24.4560  -21.3638   20.1552 H   0  0  0  0  0  0
  -23.8607  -20.9007   21.7508 H   0  0  0  0  0  0
  -28.5777  -18.1932   23.6230 H   0  0  0  0  0  0
  -29.9635  -18.9770   22.9108 H   0  0  0  0  0  0
  -29.5811  -23.5592   22.1240 H   0  0  0  0  0  0
  -28.3734  -24.0198   23.2836 H   0  0  0  0  0  0
  -29.1405  -18.0421   20.6196 H   0  0  0  0  0  0
  -28.0180  -17.0619   21.5624 H   0  0  0  0  0  0
  -26.9091  -24.8939   21.4228 H   0  0  0  0  0  0
  -28.0540  -24.2882   20.2424 H   0  0  0  0  0  0
  -30.2366  -16.4587   22.9340 H   0  0  0  0  0  0
  -31.0841  -16.9703   21.5041 H   0  0  0  0  0  0
  -29.7804  -25.9029   21.3289 H   0  0  0  0  0  0
  -28.4235  -26.6280   22.1594 H   0  0  0  0  0  0
  -28.9501  -14.8554   21.5487 H   0  0  0  0  0  0
  1 25  1  0  0  0
  1 30  2  0  0  0
  1 84  1  0  0  0
  2  3  1  0  0  0
  2 25  1  0  0  0
  2 85  1  0  0  0
  2 86  1  0  0  0
  3  4  1  0  0  0
  3 87  1  0  0  0
  3 88  1  0  0  0
  4  5  1  0  0  0
  4 89  1  0  0  0
  4 90  1  0  0  0
  5  6  1  0  0  0
  5 26  1  0  0  0
  5 91  1  0  0  0
  6 25  1  0  0  0
  6 92  1  0  0  0
  6 93  1  0  0  0
  7  8  2  0  0  0
  7 26  1  0  0  0
  7 29  1  0  0  0
  8  9  1  0  0  0
  8 22  1  0  0  0
  9 10  1  0  0  0
  9 27  2  0  0  0
 10 11  2  0  0  0
 10 15  1  0  0  0
 11 12  1  0  0  0
 11 94  1  0  0  0
 12 13  2  0  0  0
 12 95  1  0  0  0
 13 14  1  0  0  0
 13 31  1  0  0  0
 14 15  2  0  0  0
 14 96  1  0  0  0
 15 97  1  0  0  0
 16 17  2  0  0  0
 16 21  1  0  0  0
 16 31  1  0  0  0
 17 18  1  0  0  0
 17 98  1  0  0  0
 18 19  2  0  0  0
 18 99  1  0  0  0
 19 20  1  0  0  0
 19 24  1  0  0  0
 20 21  2  0  0  0
 20100  1  0  0  0
 21 23  1  0  0  0
 22 28  1  0  0  0
 22 32  2  0  0  0
 26 27  1  0  0  0
 28101  1  0  0  0
 28102  1  0  0  0
 29103  1  0  0  0
 29104  1  0  0  0
 33 34  1  0  0  0
 33 66  1  0  0  0
 33 70  2  0  0  0
 34 36  1  0  0  0
 34 59  1  0  0  0
 34105  1  0  0  0
 35 44  2  0  0  0
 35 45  1  0  0  0
 35 68  1  0  0  0
 36 56  1  0  0  0
 36106  1  0  0  0
 37 39  1  0  0  0
 37 47  1  0  0  0
 37 66  1  0  0  0
 37107  1  0  0  0
 38 43  2  0  0  0
 38 46  1  0  0  0
 38 47  1  0  0  0
 39 64  1  0  0  0
 39 67  2  0  0  0
 40 52  1  0  0  0
 40 53  2  0  0  0
 40 58  1  0  0  0
 41108  1  0  0  0
 41109  1  0  0  0
 41110  1  0  0  0
 41 48  1  0  0  0
 42 43  1  0  0  0
 42 66  1  0  0  0
 42111  1  0  0  0
 42112  1  0  0  0
 43 44  1  0  0  0
 44113  1  0  0  0
 45 46  2  0  0  0
 45114  1  0  0  0
 46115  1  0  0  0
 47116  1  0  0  0
 47117  1  0  0  0
 48 56  1  0  0  0
 48 65  1  0  0  0
 48118  1  0  0  0
 49 50  1  0  0  0
 49 53  1  0  0  0
 49 64  1  0  0  0
 49119  1  0  0  0
 50 51  1  0  0  0
 50120  1  0  0  0
 50121  1  0  0  0
 51 52  1  0  0  0
 51122  1  0  0  0
 51123  1  0  0  0
 52124  1  0  0  0
 52125  1  0  0  0
 53 54  1  0  0  0
 54 55  2  0  0  0
 54126  1  0  0  0
 55 57  1  0  0  0
 55127  1  0  0  0
 56 69  2  0  0  0
 57 58  2  0  0  0
 57128  1  0  0  0
 58129  1  0  0  0
 59 60  1  0  0  0
 59 61  1  0  0  0
 59 62  1  0  0  0
 60130  1  0  0  0
 60131  1  0  0  0
 60132  1  0  0  0
 61133  1  0  0  0
 61134  1  0  0  0
 61135  1  0  0  0
 62136  1  0  0  0
 62137  1  0  0  0
 62138  1  0  0  0
 63 65  1  0  0  0
 63139  1  0  0  0
 63140  1  0  0  0
 63141  1  0  0  0
 64142  1  0  0  0
 65143  1  0  0  0
 68 83  1  0  0  0
 71 74  2  0  0  0
 71 75  1  0  0  0
 71144  1  0  0  0
 72 74  1  0  0  0
 72 76  2  0  0  0
 72145  1  0  0  0
 73 75  2  0  0  0
 73 76  1  0  0  0
 73146  1  0  0  0
 74 77  1  0  0  0
 75 78  1  0  0  0
 76 79  1  0  0  0
 77147  1  0  0  0
 77148  1  0  0  0
 77149  1  0  0  0
 78 80  1  0  0  0
 78150  1  0  0  0
 78151  1  0  0  0
 79 81  1  0  0  0
 79152  1  0  0  0
 79153  1  0  0  0
 80 82  1  0  0  0
 80154  1  0  0  0
 80155  1  0  0  0
 81 83  1  0  0  0
 81156  1  0  0  0
 81157  1  0  0  0
 82 84  1  0  0  0
 82158  1  0  0  0
 82159  1  0  0  0
 83160  1  0  0  0
 83161  1  0  0  0
 84162  1  0  0  0
M  ISO  4   1 100  68 101  83 101  84 100
M  END
> <chiral flag>
0

> <version>
0

> <s_m_source_file>
/data/baiqing/PycharmProjects/Reinvent-master-3.2/result/LINK_invent/BTK/process_docking_weight1_custom_sum_contain_oxygen_bond_distance_aromatic_linkinvent_7_9_3/rearranged_h_0035.sdf

> <i_m_source_file_index>
41

> <r_mmod_Potential_Energy-OPLS-2005>
-71.0256500244141

> <r_mmod_Stretch_Energy-OPLS-2005>
31.1354885101318

> <r_mmod_Bend_Energy-OPLS-2005>
91.9840240478516

> <r_mmod_Torsional_Energy-OPLS-2005>
222.883666992188

> <r_mmod_Improper_Torsional_Energy-OPLS-2005>
2.54316687583923

> <r_mmod_Van_der_Waal_Energy-OPLS-2005>
154.333648681641

> <r_mmod_Electrostatic_Energy-OPLS-2005>
-383.790466308594

> <r_mmod_Solvation_Energy-OPLS-2005>
-202.580078125

> <b_mmod_Minimization_Converged-OPLS-2005>
0

> <r_mmod_RMS_Derivative-OPLS-2005>
11.6739568710327

$$$$
41
                    3D
 Structure written by MMmdl.
167175  0  0  1  0            999 V2000
  -30.7059  -14.4159   20.5728 C   0  0  0  0  0  0
  -30.4401  -12.2807   19.3836 C   0  0  0  0  0  0
  -29.4949  -12.4976   18.1842 C   0  0  0  0  0  0
  -28.0121  -12.3843   18.5977 C   0  0  0  0  0  0
  -27.6719  -13.1978   19.8755 C   0  0  2  0  0  0
  -28.7190  -12.9236   20.9792 C   0  0  0  0  0  0
  -25.2643  -13.8134   20.5655 C   0  0  0  0  0  0
  -24.1871  -13.0432   20.9160 C   0  0  0  0  0  0
  -24.6410  -11.6893   20.8708 C   0  0  0  0  0  0
  -23.9067  -10.4288   21.0387 C   0  0  0  0  0  0
  -24.3615   -9.4197   21.9166 C   0  0  0  0  0  0
  -23.6284   -8.2236   22.0748 C   0  0  0  0  0  0
  -22.4264   -8.0276   21.3541 C   0  0  0  0  0  0
  -21.9902   -9.0249   20.4642 C   0  0  0  0  0  0
  -22.7238  -10.2130   20.3043 C   0  0  0  0  0  0
  -21.6854   -6.0720   22.5269 C   0  0  0  0  0  0
  -21.4006   -6.5628   23.8201 C   0  0  0  0  0  0
  -21.3655   -5.6789   24.9163 C   0  0  0  0  0  0
  -21.6043   -4.3050   24.7224 C   0  0  0  0  0  0
  -21.8824   -3.8137   23.4347 C   0  0  0  0  0  0
  -21.9191   -4.6945   22.3398 C   0  0  0  0  0  0
  -22.7882  -13.5226   21.1811 C   0  0  0  0  0  0
  -22.1657   -4.2123   21.0978 F   0  0  0  0  0  0
  -21.5635   -3.4539   25.7741 F   0  0  0  0  0  0
  -30.0509  -13.2361   20.4289 N   0  0  0  0  0  0
  -26.3088  -12.9294   20.3375 N   0  0  0  0  0  0
  -25.9343  -11.6460   20.5753 N   0  0  0  0  0  0
  -22.0516  -12.8237   22.0376 N   0  0  0  0  0  0
  -25.4360  -15.1851   20.4036 N   0  0  0  0  0  0
  -31.8246  -14.6432   20.1075 O   0  0  0  0  0  0
  -21.6634   -6.8861   21.4235 O   0  0  0  0  0  0
  -22.3563  -14.5514   20.6629 O   0  0  0  0  0  0
  -24.6123  -31.8708   23.2114 C   0  0  0  0  0  0
  -25.9020  -32.4834   23.8383 C   0  0  1  0  0  0
  -27.2191  -27.4667   20.0722 C   0  0  0  0  0  0
  -25.5889  -33.8631   24.2308 N   0  0  0  0  0  0
  -23.3951  -30.4990   21.5515 C   0  0  2  0  0  0
  -24.8366  -28.9726   20.1088 C   0  0  0  0  0  0
  -22.7384  -29.4679   22.4978 C   0  0  0  0  0  0
  -18.0272  -28.1365   22.8497 C   0  0  0  0  0  0
  -24.1482  -36.7313   23.2645 C   0  0  0  0  0  0
  -25.9243  -30.8478   21.3570 C   0  0  0  0  0  0
  -25.9994  -29.4878   20.6963 C   0  0  0  0  0  0
  -27.1981  -28.7414   20.6730 C   0  0  0  0  0  0
  -26.0422  -26.9638   19.4748 C   0  0  0  0  0  0
  -24.8499  -27.7083   19.4988 C   0  0  0  0  0  0
  -23.5974  -29.8367   20.1635 C   0  0  0  0  0  0
  -25.4104  -36.3108   24.0337 C   0  0  1  0  0  0
  -20.5864  -28.3642   23.1313 C   0  0  2  0  0  0
  -20.6761  -26.9376   22.5413 C   0  0  0  0  0  0
  -19.5741  -26.6366   21.5213 C   0  0  0  0  0  0
  -18.1916  -26.7926   22.1612 C   0  0  0  0  0  0
  -19.1527  -28.8821   23.2913 C   0  0  0  0  0  0
  -18.9468  -30.1434   23.8904 C   0  0  0  0  0  0
  -17.6472  -30.6574   24.0576 C   0  0  0  0  0  0
  -25.9029  -34.9479   23.5115 C   0  0  0  0  0  0
  -16.5355  -29.9082   23.6341 C   0  0  0  0  0  0
  -16.7268  -28.6504   23.0349 C   0  0  0  0  0  0
  -26.4441  -31.6613   25.0714 C   0  0  0  0  0  0
  -25.3717  -31.3749   26.1485 C   0  0  0  0  0  0
  -27.0272  -30.3060   24.6075 C   0  0  0  0  0  0
  -27.6009  -32.4332   25.7492 C   0  0  0  0  0  0
  -27.5571  -37.1811   24.8471 C   0  0  0  0  0  0
  -21.4118  -29.3030   22.3732 N   0  0  0  0  0  0
  -26.4287  -37.3789   23.9413 N   0  0  0  0  0  0
  -24.6618  -31.0841   22.0990 N   0  0  0  0  0  0
  -23.4191  -28.8205   23.2985 O   0  0  0  0  0  0
  -28.3691  -26.7161   20.0929 O   0  0  0  0  0  0
  -26.5603  -34.8936   22.4685 O   0  0  0  0  0  0
  -23.5320  -32.1433   23.7526 O   0  0  0  0  0  0
  -29.3048  -23.7138   23.2436 C   0  0  0  0  0  0
  -28.8780  -22.2532   21.3374 C   0  0  0  0  0  0
  -28.6409  -21.4006   23.6157 C   0  0  0  0  0  0
  -29.2328  -23.5191   21.8502 C   0  0  0  0  0  0
  -29.0263  -22.6546   24.1314 C   0  0  0  0  0  0
  -28.5693  -21.1990   22.2230 C   0  0  0  0  0  0
  -27.9346  -23.6926   26.1421 C   0  0  0  0  0  0
  -30.4744  -23.4604   26.0468 C   0  0  0  0  0  0
  -29.4776  -24.6986   20.9273 C   0  0  0  0  0  0
  -29.0657  -17.6645   21.3404 C   0  0  0  0  0  0
  -29.3906  -19.1631   21.3862 C   0  0  0  0  0  0
  -30.3245  -16.7989   21.1915 C   0  0  0  0  0  0
  -28.1570  -25.3947   20.5908 C   0  0  0  0  0  0
  -29.1201  -22.8595   25.6343 C   0  0  0  0  0  0
  -28.2126  -19.9421   21.7379 N   0  0  0  0  0  0
  -29.9688  -15.3852   21.1290 N   0  0  0  0  0  0
  -31.4765  -12.4104   19.0627 H   0  0  0  0  0  0
  -30.3747  -11.2580   19.7574 H   0  0  0  0  0  0
  -29.7165  -11.7767   17.3954 H   0  0  0  0  0  0
  -29.6798  -13.4825   17.7520 H   0  0  0  0  0  0
  -27.7899  -11.3296   18.7614 H   0  0  0  0  0  0
  -27.3750  -12.7023   17.7714 H   0  0  0  0  0  0
  -27.7316  -14.2530   19.6095 H   0  0  0  0  0  0
  -28.6913  -11.8726   21.2708 H   0  0  0  0  0  0
  -28.4972  -13.4790   21.8903 H   0  0  0  0  0  0
  -25.2765   -9.5656   22.4728 H   0  0  0  0  0  0
  -23.9980   -7.4626   22.7477 H   0  0  0  0  0  0
  -21.0824   -8.8763   19.8957 H   0  0  0  0  0  0
  -22.3691  -10.9651   19.6137 H   0  0  0  0  0  0
  -21.1993   -7.6136   23.9687 H   0  0  0  0  0  0
  -21.1472   -6.0524   25.9064 H   0  0  0  0  0  0
  -22.0608   -2.7594   23.2861 H   0  0  0  0  0  0
  -22.4145  -11.9945   22.4833 H   0  0  0  0  0  0
  -21.1101  -13.1227   22.2494 H   0  0  0  0  0  0
  -24.6750  -15.8446   20.5251 H   0  0  0  0  0  0
  -26.2865  -15.6205   20.0695 H   0  0  0  0  0  0
  -26.7103  -32.5530   23.1153 H   0  0  0  0  0  0
  -25.0070  -33.9809   25.0471 H   0  0  0  0  0  0
  -22.6831  -31.3174   21.4166 H   0  0  0  0  0  0
  -23.3749  -35.9644   23.3327 H   0  0  0  0  0  0
  -24.3579  -36.8900   22.2056 H   0  0  0  0  0  0
  -23.7223  -37.6518   23.6649 H   0  0  0  0  0  0
  -26.0333  -31.6216   20.5948 H   0  0  0  0  0  0
  -26.8135  -30.8915   21.9745 H   0  0  0  0  0  0
  -28.0961  -29.1321   21.1280 H   0  0  0  0  0  0
  -26.0351  -25.9991   18.9873 H   0  0  0  0  0  0
  -23.9546  -27.3072   19.0439 H   0  0  0  0  0  0
  -23.6978  -30.6170   19.4083 H   0  0  0  0  0  0
  -22.7207  -29.2589   19.8661 H   0  0  0  0  0  0
  -25.1268  -36.1984   25.0825 H   0  0  0  0  0  0
  -20.9974  -28.3215   24.1422 H   0  0  0  0  0  0
  -20.5669  -26.2248   23.3594 H   0  0  0  0  0  0
  -21.6633  -26.7418   22.1197 H   0  0  0  0  0  0
  -19.6910  -25.6289   21.1222 H   0  0  0  0  0  0
  -19.6696  -27.3207   20.6779 H   0  0  0  0  0  0
  -17.4194  -26.6700   21.4006 H   0  0  0  0  0  0
  -18.0295  -26.0039   22.8980 H   0  0  0  0  0  0
  -19.7961  -30.7254   24.2246 H   0  0  0  0  0  0
  -17.5042  -31.6261   24.5168 H   0  0  0  0  0  0
  -15.5368  -30.2993   23.7665 H   0  0  0  0  0  0
  -15.8665  -28.0847   22.7038 H   0  0  0  0  0  0
  -24.5885  -30.7072   25.7873 H   0  0  0  0  0  0
  -24.8921  -32.2922   26.4915 H   0  0  0  0  0  0
  -25.8084  -30.8966   27.0266 H   0  0  0  0  0  0
  -26.2815  -29.6837   24.1115 H   0  0  0  0  0  0
  -27.4045  -29.7268   25.4514 H   0  0  0  0  0  0
  -27.8633  -30.4382   23.9203 H   0  0  0  0  0  0
  -27.2614  -33.3644   26.2049 H   0  0  0  0  0  0
  -28.3844  -32.6887   25.0339 H   0  0  0  0  0  0
  -28.0638  -31.8469   26.5436 H   0  0  0  0  0  0
  -28.2606  -38.0095   24.7503 H   0  0  0  0  0  0
  -28.1034  -36.2622   24.6300 H   0  0  0  0  0  0
  -27.2294  -37.1472   25.8878 H   0  0  0  0  0  0
  -20.9247  -29.8786   21.6997 H   0  0  0  0  0  0
  -26.0182  -38.2872   24.1421 H   0  0  0  0  0  0
  -29.5598  -24.6913   23.6302 H   0  0  0  0  0  0
  -28.8167  -22.1017   20.2682 H   0  0  0  0  0  0
  -28.4190  -20.5900   24.2951 H   0  0  0  0  0  0
  -26.9923  -23.1841   25.9332 H   0  0  0  0  0  0
  -27.8943  -24.6710   25.6622 H   0  0  0  0  0  0
  -27.9894  -23.8510   27.2195 H   0  0  0  0  0  0
  -31.2976  -22.8454   25.6814 H   0  0  0  0  0  0
  -30.5688  -23.5096   27.1310 H   0  0  0  0  0  0
  -30.6153  -24.4703   25.6612 H   0  0  0  0  0  0
  -29.9786  -24.3694   20.0165 H   0  0  0  0  0  0
  -30.1538  -25.3995   21.4183 H   0  0  0  0  0  0
  -28.3742  -17.4744   20.5173 H   0  0  0  0  0  0
  -28.5504  -17.3693   22.2563 H   0  0  0  0  0  0
  -29.7781  -19.4971   20.4224 H   0  0  0  0  0  0
  -30.1830  -19.3410   22.1169 H   0  0  0  0  0  0
  -30.9858  -16.9612   22.0430 H   0  0  0  0  0  0
  -30.8770  -17.0980   20.2978 H   0  0  0  0  0  0
  -27.5509  -25.4567   21.4988 H   0  0  0  0  0  0
  -27.6023  -24.7784   19.8828 H   0  0  0  0  0  0
  -29.0546  -21.8793   26.1093 H   0  0  0  0  0  0
  -27.6328  -19.4361   22.4033 H   0  0  0  0  0  0
  -29.0430  -15.1183   21.4273 H   0  0  0  0  0  0
  1 25  1  0  0  0
  1 30  2  0  0  0
  1 86  1  0  0  0
  2  3  1  0  0  0
  2 25  1  0  0  0
  2 87  1  0  0  0
  2 88  1  0  0  0
  3  4  1  0  0  0
  3 89  1  0  0  0
  3 90  1  0  0  0
  4  5  1  0  0  0
  4 91  1  0  0  0
  4 92  1  0  0  0
  5  6  1  0  0  0
  5 26  1  0  0  0
  5 93  1  0  0  0
  6 25  1  0  0  0
  6 94  1  0  0  0
  6 95  1  0  0  0
  7  8  2  0  0  0
  7 26  1  0  0  0
  7 29  1  0  0  0
  8  9  1  0  0  0
  8 22  1  0  0  0
  9 10  1  0  0  0
  9 27  2  0  0  0
 10 11  2  0  0  0
 10 15  1  0  0  0
 11 12  1  0  0  0
 11 96  1  0  0  0
 12 13  2  0  0  0
 12 97  1  0  0  0
 13 14  1  0  0  0
 13 31  1  0  0  0
 14 15  2  0  0  0
 14 98  1  0  0  0
 15 99  1  0  0  0
 16 17  2  0  0  0
 16 21  1  0  0  0
 16 31  1  0  0  0
 17 18  1  0  0  0
 17100  1  0  0  0
 18 19  2  0  0  0
 18101  1  0  0  0
 19 20  1  0  0  0
 19 24  1  0  0  0
 20 21  2  0  0  0
 20102  1  0  0  0
 21 23  1  0  0  0
 22 28  1  0  0  0
 22 32  2  0  0  0
 26 27  1  0  0  0
 28103  1  0  0  0
 28104  1  0  0  0
 29105  1  0  0  0
 29106  1  0  0  0
 33 34  1  0  0  0
 33 66  1  0  0  0
 33 70  2  0  0  0
 34 36  1  0  0  0
 34 59  1  0  0  0
 34107  1  0  0  0
 35 44  2  0  0  0
 35 45  1  0  0  0
 35 68  1  0  0  0
 36 56  1  0  0  0
 36108  1  0  0  0
 37 39  1  0  0  0
 37 47  1  0  0  0
 37 66  1  0  0  0
 37109  1  0  0  0
 38 43  2  0  0  0
 38 46  1  0  0  0
 38 47  1  0  0  0
 39 64  1  0  0  0
 39 67  2  0  0  0
 40 52  1  0  0  0
 40 53  2  0  0  0
 40 58  1  0  0  0
 41110  1  0  0  0
 41111  1  0  0  0
 41112  1  0  0  0
 41 48  1  0  0  0
 42 43  1  0  0  0
 42 66  1  0  0  0
 42113  1  0  0  0
 42114  1  0  0  0
 43 44  1  0  0  0
 44115  1  0  0  0
 45 46  2  0  0  0
 45116  1  0  0  0
 46117  1  0  0  0
 47118  1  0  0  0
 47119  1  0  0  0
 48 56  1  0  0  0
 48 65  1  0  0  0
 48120  1  0  0  0
 49 50  1  0  0  0
 49 53  1  0  0  0
 49 64  1  0  0  0
 49121  1  0  0  0
 50 51  1  0  0  0
 50122  1  0  0  0
 50123  1  0  0  0
 51 52  1  0  0  0
 51124  1  0  0  0
 51125  1  0  0  0
 52126  1  0  0  0
 52127  1  0  0  0
 53 54  1  0  0  0
 54 55  2  0  0  0
 54128  1  0  0  0
 55 57  1  0  0  0
 55129  1  0  0  0
 56 69  2  0  0  0
 57 58  2  0  0  0
 57130  1  0  0  0
 58131  1  0  0  0
 59 60  1  0  0  0
 59 61  1  0  0  0
 59 62  1  0  0  0
 60132  1  0  0  0
 60133  1  0  0  0
 60134  1  0  0  0
 61135  1  0  0  0
 61136  1  0  0  0
 61137  1  0  0  0
 62138  1  0  0  0
 62139  1  0  0  0
 62140  1  0  0  0
 63 65  1  0  0  0
 63141  1  0  0  0
 63142  1  0  0  0
 63143  1  0  0  0
 64144  1  0  0  0
 65145  1  0  0  0
 68 83  1  0  0  0
 71 74  2  0  0  0
 71 75  1  0  0  0
 71146  1  0  0  0
 72 74  1  0  0  0
 72 76  2  0  0  0
 72147  1  0  0  0
 73 75  2  0  0  0
 73 76  1  0  0  0
 73148  1  0  0  0
 74 79  1  0  0  0
 75 84  1  0  0  0
 76 85  1  0  0  0
 77149  1  0  0  0
 77150  1  0  0  0
 77151  1  0  0  0
 77 84  1  0  0  0
 78 84  1  0  0  0
 78152  1  0  0  0
 78153  1  0  0  0
 78154  1  0  0  0
 79 83  1  0  0  0
 79155  1  0  0  0
 79156  1  0  0  0
 80 81  1  0  0  0
 80 82  1  0  0  0
 80157  1  0  0  0
 80158  1  0  0  0
 81 85  1  0  0  0
 81159  1  0  0  0
 81160  1  0  0  0
 82 86  1  0  0  0
 82161  1  0  0  0
 82162  1  0  0  0
 83163  1  0  0  0
 83164  1  0  0  0
 84165  1  0  0  0
 85166  1  0  0  0
 86167  1  0  0  0
M  ISO  4   1 100  68 101  83 101  86 100
M  END
> <chiral flag>
0

> <version>
0

> <s_m_source_file>
/data/baiqing/PycharmProjects/Reinvent-master-3.2/result/LINK_invent/BTK/process_docking_weight1_custom_sum_contain_oxygen_bond_distance_aromatic_linkinvent_7_9_3/rearranged_h_0035.sdf

> <i_m_source_file_index>
42

> <r_mmod_Potential_Energy-OPLS-2005>
-80.7189712524414

> <r_mmod_Stretch_Energy-OPLS-2005>
30.9906597137451

> <r_mmod_Bend_Energy-OPLS-2005>
81.9830856323242

> <r_mmod_Torsional_Energy-OPLS-2005>
228.05842590332

> <r_mmod_Improper_Torsional_Energy-OPLS-2005>
9.53537178039551

> <r_mmod_Van_der_Waal_Energy-OPLS-2005>
154.193252563477

> <r_mmod_Electrostatic_Energy-OPLS-2005>
-382.602142333984

> <r_mmod_Solvation_Energy-OPLS-2005>
-213.466781616211

> <b_mmod_Minimization_Converged-OPLS-2005>
0

> <r_mmod_RMS_Derivative-OPLS-2005>
2.90858769416809

$$$$
42
                    3D
 Structure written by MMmdl.
170178  0  0  1  0            999 V2000
  -30.7311  -14.3486   20.5529 C   0  0  0  0  0  0
  -30.4045  -12.2144   19.4021 C   0  0  0  0  0  0
  -29.4759  -12.4729   18.1941 C   0  0  0  0  0  0
  -27.9962  -12.3456   18.6128 C   0  0  0  0  0  0
  -27.6732  -13.1713   19.8856 C   0  0  2  0  0  0
  -28.7249  -12.8989   20.9977 C   0  0  0  0  0  0
  -25.2670  -13.8151   20.5708 C   0  0  0  0  0  0
  -24.1827  -13.0505   20.9159 C   0  0  0  0  0  0
  -24.6345  -11.6965   20.8766 C   0  0  0  0  0  0
  -23.9014  -10.4337   21.0429 C   0  0  0  0  0  0
  -24.3595   -9.4245   21.9176 C   0  0  0  0  0  0
  -23.6279   -8.2277   22.0745 C   0  0  0  0  0  0
  -22.4256   -8.0302   21.3562 C   0  0  0  0  0  0
  -21.9915   -9.0268   20.4653 C   0  0  0  0  0  0
  -22.7223  -10.2147   20.3052 C   0  0  0  0  0  0
  -21.6847   -6.0754   22.5275 C   0  0  0  0  0  0
  -21.4031   -6.5646   23.8215 C   0  0  0  0  0  0
  -21.3657   -5.6786   24.9173 C   0  0  0  0  0  0
  -21.6064   -4.3050   24.7220 C   0  0  0  0  0  0
  -21.8804   -3.8155   23.4323 C   0  0  0  0  0  0
  -21.9206   -4.6991   22.3391 C   0  0  0  0  0  0
  -22.7856  -13.5298   21.1828 C   0  0  0  0  0  0
  -22.1661   -4.2151   21.0971 F   0  0  0  0  0  0
  -21.5632   -3.4544   25.7737 F   0  0  0  0  0  0
  -30.0604  -13.1740   20.4547 N   0  0  0  0  0  0
  -26.3050  -12.9167   20.3515 N   0  0  0  0  0  0
  -25.9270  -11.6428   20.5962 N   0  0  0  0  0  0
  -22.0519  -12.8244   22.0407 N   0  0  0  0  0  0
  -25.4620  -15.1792   20.3689 N   0  0  0  0  0  0
  -31.8468  -14.5506   20.0663 O   0  0  0  0  0  0
  -21.6630   -6.8884   21.4234 O   0  0  0  0  0  0
  -22.3490  -14.5592   20.6680 O   0  0  0  0  0  0
  -24.6071  -31.8786   23.2244 C   0  0  0  0  0  0
  -25.9009  -32.4889   23.8433 C   0  0  1  0  0  0
  -27.2587  -27.4923   20.0866 C   0  0  0  0  0  0
  -25.5799  -33.8672   24.2341 N   0  0  0  0  0  0
  -23.3978  -30.4989   21.5646 C   0  0  2  0  0  0
  -24.8550  -28.9622   20.1494 C   0  0  0  0  0  0
  -22.7338  -29.4742   22.5127 C   0  0  0  0  0  0
  -18.0095  -28.1567   22.8416 C   0  0  0  0  0  0
  -24.1481  -36.7257   23.2634 C   0  0  0  0  0  0
  -25.9191  -30.8546   21.3751 C   0  0  0  0  0  0
  -26.0157  -29.5037   20.7082 C   0  0  0  0  0  0
  -27.2318  -28.7871   20.6517 C   0  0  0  0  0  0
  -26.0931  -27.0022   19.4495 C   0  0  0  0  0  0
  -24.8817  -27.7055   19.5287 C   0  0  0  0  0  0
  -23.6092  -29.8064   20.1963 C   0  0  0  0  0  0
  -25.4115  -36.3131   24.0366 C   0  0  1  0  0  0
  -20.5905  -28.3455   23.1378 C   0  0  2  0  0  0
  -20.6566  -26.9212   22.5724 C   0  0  0  0  0  0
  -19.5831  -26.6711   21.5276 C   0  0  0  0  0  0
  -18.1729  -26.8276   22.1156 C   0  0  0  0  0  0
  -19.1493  -28.8719   23.2957 C   0  0  0  0  0  0
  -18.9656  -30.1252   23.9098 C   0  0  0  0  0  0
  -17.6839  -30.6816   24.0597 C   0  0  0  0  0  0
  -25.9072  -34.9486   23.5165 C   0  0  0  0  0  0
  -16.5562  -29.9480   23.6528 C   0  0  0  0  0  0
  -16.7176  -28.6750   23.0764 C   0  0  0  0  0  0
  -26.4474  -31.6662   25.0729 C   0  0  0  0  0  0
  -25.3748  -31.3607   26.1407 C   0  0  0  0  0  0
  -27.0188  -30.3043   24.6167 C   0  0  0  0  0  0
  -27.6056  -32.4342   25.7499 C   0  0  0  0  0  0
  -27.5609  -37.1733   24.8465 C   0  0  0  0  0  0
  -21.4120  -29.2761   22.3578 N   0  0  0  0  0  0
  -26.4328  -37.3758   23.9425 N   0  0  0  0  0  0
  -24.6585  -31.0907   22.1115 N   0  0  0  0  0  0
  -23.4031  -28.8493   23.3379 O   0  0  0  0  0  0
  -28.3888  -26.7112   20.2180 O   0  0  0  0  0  0
  -26.5620  -34.8895   22.4760 O   0  0  0  0  0  0
  -23.5277  -32.1623   23.7648 O   0  0  0  0  0  0
  -25.5555  -19.8004   21.1197 C   0  0  0  0  0  0
  -24.6969  -20.7336   21.7401 C   0  0  0  0  0  0
  -24.7375  -22.0292   21.2030 C   0  0  0  0  0  0
  -26.1692  -20.1890   19.9158 C   0  0  0  0  0  0
  -24.9727  -22.1498   19.8114 C   0  0  0  0  0  0
  -23.7808  -20.3413   22.8953 C   0  0  0  0  0  0
  -24.5108  -23.3619   19.0282 C   0  0  0  0  0  0
  -25.2244  -23.1981   22.0744 C   0  0  0  0  0  0
  -27.5129  -19.5897   19.5301 C   0  0  0  0  0  0
  -26.7655  -23.4841   21.8353 C   0  0  0  0  0  0
  -27.5555  -18.0515   19.5005 C   0  0  0  0  0  0
  -28.7086  -17.4487   20.3480 C   0  0  0  0  0  0
  -27.0582  -24.9718   21.5221 C   0  0  0  0  0  0
  -29.8884  -16.5179   20.0098 C   0  0  0  0  0  0
  -28.1957  -25.3027   20.4922 C   0  0  0  0  0  0
  -25.7414  -21.2398   19.1750 N   0  0  0  0  0  0
  -29.9604  -15.3640   20.9111 N   0  0  0  0  0  0
  -31.4505  -12.2932   19.1091 H   0  0  0  0  0  0
  -30.2585  -11.1969   19.7705 H   0  0  0  0  0  0
  -29.6947  -11.7670   17.3903 H   0  0  0  0  0  0
  -29.6415  -13.4691   17.7861 H   0  0  0  0  0  0
  -27.8028  -11.2883   18.8117 H   0  0  0  0  0  0
  -27.3293  -12.6468   17.8000 H   0  0  0  0  0  0
  -27.7277  -14.2199   19.6025 H   0  0  0  0  0  0
  -28.6882  -11.8479   21.2892 H   0  0  0  0  0  0
  -28.5237  -13.4599   21.9136 H   0  0  0  0  0  0
  -25.2785   -9.5689   22.4726 H   0  0  0  0  0  0
  -24.0003   -7.4649   22.7454 H   0  0  0  0  0  0
  -21.0860   -8.8783   19.8930 H   0  0  0  0  0  0
  -22.3724  -10.9666   19.6114 H   0  0  0  0  0  0
  -21.2012   -7.6154   23.9704 H   0  0  0  0  0  0
  -21.1501   -6.0532   25.9065 H   0  0  0  0  0  0
  -22.0588   -2.7622   23.2830 H   0  0  0  0  0  0
  -22.4075  -11.9843   22.4709 H   0  0  0  0  0  0
  -21.1099  -13.1202   22.2688 H   0  0  0  0  0  0
  -24.7293  -15.8737   20.4467 H   0  0  0  0  0  0
  -26.3156  -15.5477   19.9814 H   0  0  0  0  0  0
  -26.7100  -32.5680   23.1198 H   0  0  0  0  0  0
  -24.9772  -33.9810   25.0335 H   0  0  0  0  0  0
  -22.6963  -31.3197   21.4053 H   0  0  0  0  0  0
  -23.3826  -35.9510   23.3344 H   0  0  0  0  0  0
  -24.3523  -36.8832   22.2039 H   0  0  0  0  0  0
  -23.7175  -37.6431   23.6643 H   0  0  0  0  0  0
  -26.0328  -31.6453   20.6306 H   0  0  0  0  0  0
  -26.7944  -30.8974   22.0177 H   0  0  0  0  0  0
  -28.1423  -29.2111   21.0547 H   0  0  0  0  0  0
  -26.1291  -26.0323   18.9818 H   0  0  0  0  0  0
  -23.9794  -27.2684   19.1252 H   0  0  0  0  0  0
  -23.6960  -30.5565   19.4116 H   0  0  0  0  0  0
  -22.7584  -29.1781   19.9292 H   0  0  0  0  0  0
  -25.1337  -36.1997   25.0865 H   0  0  0  0  0  0
  -21.0486  -28.3139   24.1351 H   0  0  0  0  0  0
  -20.4677  -26.2065   23.3722 H   0  0  0  0  0  0
  -21.6561  -26.6646   22.2196 H   0  0  0  0  0  0
  -19.6874  -25.6695   21.1192 H   0  0  0  0  0  0
  -19.7330  -27.3544   20.6975 H   0  0  0  0  0  0
  -17.4332  -26.7197   21.3203 H   0  0  0  0  0  0
  -17.9860  -26.0199   22.8311 H   0  0  0  0  0  0
  -19.8466  -30.6482   24.2504 H   0  0  0  0  0  0
  -17.5791  -31.6614   24.5019 H   0  0  0  0  0  0
  -15.5663  -30.3621   23.7889 H   0  0  0  0  0  0
  -15.8375  -28.1084   22.8061 H   0  0  0  0  0  0
  -24.6003  -30.6939   25.7580 H   0  0  0  0  0  0
  -24.8850  -32.2674   26.4958 H   0  0  0  0  0  0
  -25.8085  -30.8601   27.0092 H   0  0  0  0  0  0
  -26.2667  -29.6889   24.1200 H   0  0  0  0  0  0
  -27.3767  -29.7236   25.4701 H   0  0  0  0  0  0
  -27.8654  -30.4198   23.9402 H   0  0  0  0  0  0
  -27.2698  -33.3656   26.2081 H   0  0  0  0  0  0
  -28.3844  -32.6902   25.0298 H   0  0  0  0  0  0
  -28.0767  -31.8468   26.5399 H   0  0  0  0  0  0
  -28.2649  -37.9994   24.7575 H   0  0  0  0  0  0
  -28.1086  -36.2570   24.6296 H   0  0  0  0  0  0
  -27.2280  -37.1334   25.8819 H   0  0  0  0  0  0
  -20.9341  -29.8166   21.6456 H   0  0  0  0  0  0
  -26.0297  -38.2887   24.1271 H   0  0  0  0  0  0
  -25.8116  -18.8689   21.6094 H   0  0  0  0  0  0
  -22.8170  -20.8734   22.8340 H   0  0  0  0  0  0
  -24.1898  -20.5703   23.8827 H   0  0  0  0  0  0
  -23.5417  -19.2737   22.8327 H   0  0  0  0  0  0
  -23.9819  -24.0872   19.6568 H   0  0  0  0  0  0
  -23.8106  -23.0848   18.2355 H   0  0  0  0  0  0
  -25.3517  -23.8628   18.5534 H   0  0  0  0  0  0
  -25.0260  -23.0425   23.1410 H   0  0  0  0  0  0
  -24.6146  -24.0575   21.8161 H   0  0  0  0  0  0
  -28.1840  -19.9649   20.3152 H   0  0  0  0  0  0
  -27.9154  -20.0031   18.6120 H   0  0  0  0  0  0
  -27.1662  -22.9208   20.9861 H   0  0  0  0  0  0
  -27.3698  -23.1302   22.6732 H   0  0  0  0  0  0
  -26.6370  -17.7018   19.9674 H   0  0  0  0  0  0
  -27.5196  -17.6882   18.4639 H   0  0  0  0  0  0
  -29.3067  -18.1129   19.7045 H   0  0  0  0  0  0
  -28.1384  -16.5345   20.1530 H   0  0  0  0  0  0
  -27.1822  -25.5773   22.4168 H   0  0  0  0  0  0
  -26.1206  -25.3009   21.1152 H   0  0  0  0  0  0
  -30.8521  -17.0276   20.0989 H   0  0  0  0  0  0
  -29.8387  -16.1852   18.9650 H   0  0  0  0  0  0
  -28.0226  -24.8124   19.5374 H   0  0  0  0  0  0
  -29.1390  -24.9247   20.8859 H   0  0  0  0  0  0
  -29.1079  -15.1311   21.4012 H   0  0  0  0  0  0
  1 25  1  0  0  0
  1 30  2  0  0  0
  1 87  1  0  0  0
  2  3  1  0  0  0
  2 25  1  0  0  0
  2 88  1  0  0  0
  2 89  1  0  0  0
  3  4  1  0  0  0
  3 90  1  0  0  0
  3 91  1  0  0  0
  4  5  1  0  0  0
  4 92  1  0  0  0
  4 93  1  0  0  0
  5  6  1  0  0  0
  5 26  1  0  0  0
  5 94  1  0  0  0
  6 25  1  0  0  0
  6 95  1  0  0  0
  6 96  1  0  0  0
  7  8  2  0  0  0
  7 26  1  0  0  0
  7 29  1  0  0  0
  8  9  1  0  0  0
  8 22  1  0  0  0
  9 10  1  0  0  0
  9 27  2  0  0  0
 10 11  2  0  0  0
 10 15  1  0  0  0
 11 12  1  0  0  0
 11 97  1  0  0  0
 12 13  2  0  0  0
 12 98  1  0  0  0
 13 14  1  0  0  0
 13 31  1  0  0  0
 14 15  2  0  0  0
 14 99  1  0  0  0
 15100  1  0  0  0
 16 17  2  0  0  0
 16 21  1  0  0  0
 16 31  1  0  0  0
 17 18  1  0  0  0
 17101  1  0  0  0
 18 19  2  0  0  0
 18102  1  0  0  0
 19 20  1  0  0  0
 19 24  1  0  0  0
 20 21  2  0  0  0
 20103  1  0  0  0
 21 23  1  0  0  0
 22 28  1  0  0  0
 22 32  2  0  0  0
 26 27  1  0  0  0
 28104  1  0  0  0
 28105  1  0  0  0
 29106  1  0  0  0
 29107  1  0  0  0
 33 34  1  0  0  0
 33 66  1  0  0  0
 33 70  2  0  0  0
 34 36  1  0  0  0
 34 59  1  0  0  0
 34108  1  0  0  0
 35 44  2  0  0  0
 35 45  1  0  0  0
 35 68  1  0  0  0
 36 56  1  0  0  0
 36109  1  0  0  0
 37 39  1  0  0  0
 37 47  1  0  0  0
 37 66  1  0  0  0
 37110  1  0  0  0
 38 43  2  0  0  0
 38 46  1  0  0  0
 38 47  1  0  0  0
 39 64  1  0  0  0
 39 67  2  0  0  0
 40 52  1  0  0  0
 40 53  2  0  0  0
 40 58  1  0  0  0
 41111  1  0  0  0
 41112  1  0  0  0
 41113  1  0  0  0
 41 48  1  0  0  0
 42 43  1  0  0  0
 42 66  1  0  0  0
 42114  1  0  0  0
 42115  1  0  0  0
 43 44  1  0  0  0
 44116  1  0  0  0
 45 46  2  0  0  0
 45117  1  0  0  0
 46118  1  0  0  0
 47119  1  0  0  0
 47120  1  0  0  0
 48 56  1  0  0  0
 48 65  1  0  0  0
 48121  1  0  0  0
 49 50  1  0  0  0
 49 53  1  0  0  0
 49 64  1  0  0  0
 49122  1  0  0  0
 50 51  1  0  0  0
 50123  1  0  0  0
 50124  1  0  0  0
 51 52  1  0  0  0
 51125  1  0  0  0
 51126  1  0  0  0
 52127  1  0  0  0
 52128  1  0  0  0
 53 54  1  0  0  0
 54 55  2  0  0  0
 54129  1  0  0  0
 55 57  1  0  0  0
 55130  1  0  0  0
 56 69  2  0  0  0
 57 58  2  0  0  0
 57131  1  0  0  0
 58132  1  0  0  0
 59 60  1  0  0  0
 59 61  1  0  0  0
 59 62  1  0  0  0
 60133  1  0  0  0
 60134  1  0  0  0
 60135  1  0  0  0
 61136  1  0  0  0
 61137  1  0  0  0
 61138  1  0  0  0
 62139  1  0  0  0
 62140  1  0  0  0
 62141  1  0  0  0
 63 65  1  0  0  0
 63142  1  0  0  0
 63143  1  0  0  0
 63144  1  0  0  0
 64145  1  0  0  0
 65146  1  0  0  0
 68 85  1  0  0  0
 71 72  2  0  0  0
 71 74  1  0  0  0
 71147  1  0  0  0
 72 73  1  0  0  0
 72 76  1  0  0  0
 73 75  2  0  0  0
 73 78  1  0  0  0
 74 79  1  0  0  0
 74 86  2  0  0  0
 75 77  1  0  0  0
 75 86  1  0  0  0
 76148  1  0  0  0
 76149  1  0  0  0
 76150  1  0  0  0
 77151  1  0  0  0
 77152  1  0  0  0
 77153  1  0  0  0
 78 80  1  0  0  0
 78154  1  0  0  0
 78155  1  0  0  0
 79 81  1  0  0  0
 79156  1  0  0  0
 79157  1  0  0  0
 80 83  1  0  0  0
 80158  1  0  0  0
 80159  1  0  0  0
 81 82  1  0  0  0
 81160  1  0  0  0
 81161  1  0  0  0
 82 84  1  0  0  0
 82162  1  0  0  0
 82163  1  0  0  0
 83 85  1  0  0  0
 83164  1  0  0  0
 83165  1  0  0  0
 84 87  1  0  0  0
 84166  1  0  0  0
 84167  1  0  0  0
 85168  1  0  0  0
 85169  1  0  0  0
 87170  1  0  0  0
M  ISO  4   1 100  68 101  85 101  87 100
M  END
> <chiral flag>
0

> <version>
0

> <s_m_source_file>
/data/baiqing/PycharmProjects/Reinvent-master-3.2/result/LINK_invent/BTK/process_docking_weight1_custom_sum_contain_oxygen_bond_distance_aromatic_linkinvent_7_9_3/rearranged_h_0035.sdf

> <i_m_source_file_index>
43

> <r_mmod_Potential_Energy-OPLS-2005>
294.712097167969

> <r_mmod_Stretch_Energy-OPLS-2005>
42.6883277893066

> <r_mmod_Bend_Energy-OPLS-2005>
342.915649414062

> <r_mmod_Torsional_Energy-OPLS-2005>
430.462310791016

> <r_mmod_Improper_Torsional_Energy-OPLS-2005>
22.3781547546387

> <r_mmod_Van_der_Waal_Energy-OPLS-2005>
198.596130371094

> <r_mmod_Electrostatic_Energy-OPLS-2005>
-542.405151367188

> <r_mmod_Solvation_Energy-OPLS-2005>
-218.8486328125

> <b_mmod_Minimization_Converged-OPLS-2005>
0

> <r_mmod_RMS_Derivative-OPLS-2005>
19.7537326812744

$$$$
43
                    3D
 Structure written by MMmdl.
171179  0  0  1  0            999 V2000
  -30.8645  -14.2600   20.7949 C   0  0  0  0  0  0
  -30.4044  -12.2986   19.3757 C   0  0  0  0  0  0
  -29.4665  -12.5259   18.1816 C   0  0  0  0  0  0
  -27.9998  -12.3639   18.6130 C   0  0  0  0  0  0
  -27.6586  -13.2021   19.8702 C   0  0  2  0  0  0
  -28.6980  -12.9811   20.9896 C   0  0  0  0  0  0
  -25.2568  -13.8148   20.5660 C   0  0  0  0  0  0
  -24.1795  -13.0444   20.9115 C   0  0  0  0  0  0
  -24.6327  -11.6907   20.8662 C   0  0  0  0  0  0
  -23.8974  -10.4294   21.0332 C   0  0  0  0  0  0
  -24.3539   -9.4240   21.9128 C   0  0  0  0  0  0
  -23.6239   -8.2272   22.0751 C   0  0  0  0  0  0
  -22.4229   -8.0283   21.3546 C   0  0  0  0  0  0
  -21.9825   -9.0225   20.4629 C   0  0  0  0  0  0
  -22.7131  -10.2112   20.3010 C   0  0  0  0  0  0
  -21.6856   -6.0714   22.5268 C   0  0  0  0  0  0
  -21.4015   -6.5626   23.8202 C   0  0  0  0  0  0
  -21.3653   -5.6778   24.9162 C   0  0  0  0  0  0
  -21.6047   -4.3042   24.7217 C   0  0  0  0  0  0
  -21.8821   -3.8121   23.4338 C   0  0  0  0  0  0
  -21.9189   -4.6941   22.3390 C   0  0  0  0  0  0
  -22.7826  -13.5266   21.1804 C   0  0  0  0  0  0
  -22.1664   -4.2125   21.0968 F   0  0  0  0  0  0
  -21.5617   -3.4529   25.7729 F   0  0  0  0  0  0
  -30.0458  -13.2357   20.4476 N   0  0  0  0  0  0
  -26.2994  -12.9297   20.3353 N   0  0  0  0  0  0
  -25.9255  -11.6465   20.5724 N   0  0  0  0  0  0
  -22.0468  -12.8272   22.0373 N   0  0  0  0  0  0
  -25.4351  -15.1879   20.4108 N   0  0  0  0  0  0
  -31.8028  -14.6480   20.0950 O   0  0  0  0  0  0
  -21.6637   -6.8854   21.4233 O   0  0  0  0  0  0
  -22.3536  -14.5593   20.6693 O   0  0  0  0  0  0
  -24.6109  -31.8714   23.2146 C   0  0  0  0  0  0
  -25.9029  -32.4834   23.8415 C   0  0  1  0  0  0
  -27.2291  -27.4790   20.0811 C   0  0  0  0  0  0
  -25.5915  -33.8637   24.2355 N   0  0  0  0  0  0
  -23.3955  -30.4963   21.5554 C   0  0  2  0  0  0
  -24.8397  -28.9673   20.1163 C   0  0  0  0  0  0
  -22.7380  -29.4676   22.5023 C   0  0  0  0  0  0
  -18.0260  -28.1379   22.8498 C   0  0  0  0  0  0
  -24.1483  -36.7304   23.2633 C   0  0  0  0  0  0
  -25.9197  -30.8500   21.3593 C   0  0  0  0  0  0
  -25.9994  -29.4879   20.7073 C   0  0  0  0  0  0
  -27.2008  -28.7506   20.6879 C   0  0  0  0  0  0
  -26.0568  -26.9611   19.4918 C   0  0  0  0  0  0
  -24.8599  -27.6993   19.5097 C   0  0  0  0  0  0
  -23.6004  -29.8294   20.1689 C   0  0  0  0  0  0
  -25.4100  -36.3120   24.0350 C   0  0  1  0  0  0
  -20.5856  -28.3656   23.1336 C   0  0  2  0  0  0
  -20.6765  -26.9397   22.5423 C   0  0  0  0  0  0
  -19.5741  -26.6389   21.5223 C   0  0  0  0  0  0
  -18.1913  -26.7932   22.1618 C   0  0  0  0  0  0
  -19.1513  -28.8833   23.2917 C   0  0  0  0  0  0
  -18.9439  -30.1445   23.8917 C   0  0  0  0  0  0
  -17.6441  -30.6585   24.0572 C   0  0  0  0  0  0
  -25.9041  -34.9488   23.5145 C   0  0  0  0  0  0
  -16.5330  -29.9089   23.6336 C   0  0  0  0  0  0
  -16.7254  -28.6509   23.0352 C   0  0  0  0  0  0
  -26.4478  -31.6595   25.0717 C   0  0  0  0  0  0
  -25.3757  -31.3678   26.1468 C   0  0  0  0  0  0
  -27.0291  -30.3045   24.6050 C   0  0  0  0  0  0
  -27.6064  -32.4300   25.7475 C   0  0  0  0  0  0
  -27.5604  -37.1780   24.8449 C   0  0  0  0  0  0
  -21.4117  -29.3027   22.3750 N   0  0  0  0  0  0
  -26.4277  -37.3822   23.9452 N   0  0  0  0  0  0
  -24.6608  -31.0849   22.1028 N   0  0  0  0  0  0
  -23.4169  -28.8226   23.3066 O   0  0  0  0  0  0
  -28.3877  -26.7495   20.0530 O   0  0  0  0  0  0
  -26.5583  -34.8935   22.4697 O   0  0  0  0  0  0
  -23.5309  -32.1457   23.7565 O   0  0  0  0  0  0
  -31.5227  -23.4974   21.1091 C   0  0  0  0  0  0
  -30.5584  -24.4867   21.3710 C   0  0  0  0  0  0
  -30.2071  -22.7171   19.2125 C   0  0  0  0  0  0
  -31.3396  -22.5975   20.0408 C   0  0  0  0  0  0
  -29.4055  -24.5906   20.5653 C   0  0  0  0  0  0
  -29.2371  -23.7091   19.4676 C   0  0  0  0  0  0
  -28.0164  -23.7955   18.5682 C   0  0  0  0  0  0
  -32.3201  -21.4601   19.8351 C   0  0  0  0  0  0
  -28.3477  -25.6220   20.9189 C   0  0  0  0  0  0
  -31.8778  -20.2222   20.6285 C   0  0  0  0  0  0
  -32.9608  -19.1398   20.7139 C   0  0  0  0  0  0
  -32.6067  -18.0257   21.7120 C   0  0  0  0  0  0
  -33.7852  -17.0663   21.9149 C   0  0  0  0  0  0
  -33.6647  -16.1640   23.1556 C   0  0  0  0  0  0
  -33.1844  -14.7235   22.8858 C   0  0  0  0  0  0
  -31.6873  -14.4465   23.1609 C   0  0  0  0  0  0
  -30.7133  -14.6337   22.0741 N   0  0  0  0  0  0
  -31.4446  -12.4040   19.0639 H   0  0  0  0  0  0
  -30.3114  -11.2757   19.7464 H   0  0  0  0  0  0
  -29.6997  -11.8232   17.3780 H   0  0  0  0  0  0
  -29.6226  -13.5241   17.7715 H   0  0  0  0  0  0
  -27.8247  -11.3065   18.8155 H   0  0  0  0  0  0
  -27.3352  -12.6353   17.7905 H   0  0  0  0  0  0
  -27.7063  -14.2499   19.5744 H   0  0  0  0  0  0
  -28.6474  -11.9587   21.3679 H   0  0  0  0  0  0
  -28.4450  -13.6260   21.8308 H   0  0  0  0  0  0
  -25.2679   -9.5784   22.4680 H   0  0  0  0  0  0
  -23.9962   -7.4708   22.7511 H   0  0  0  0  0  0
  -21.0747   -8.8693   19.8953 H   0  0  0  0  0  0
  -22.3531  -10.9628   19.6125 H   0  0  0  0  0  0
  -21.2018   -7.6137   23.9697 H   0  0  0  0  0  0
  -21.1460   -6.0510   25.9068 H   0  0  0  0  0  0
  -22.0593   -2.7584   23.2837 H   0  0  0  0  0  0
  -22.4046  -11.9901   22.4697 H   0  0  0  0  0  0
  -21.1137  -13.1412   22.2649 H   0  0  0  0  0  0
  -24.6797  -15.8555   20.5196 H   0  0  0  0  0  0
  -26.3011  -15.6176   20.1100 H   0  0  0  0  0  0
  -26.7098  -32.5557   23.1181 H   0  0  0  0  0  0
  -25.0122  -33.9816   25.0537 H   0  0  0  0  0  0
  -22.6829  -31.3116   21.4187 H   0  0  0  0  0  0
  -23.3787  -35.9587   23.3223 H   0  0  0  0  0  0
  -24.3613  -36.8993   22.2066 H   0  0  0  0  0  0
  -23.7157  -37.6459   23.6681 H   0  0  0  0  0  0
  -26.0232  -31.6174   20.5907 H   0  0  0  0  0  0
  -26.8103  -30.9038   21.9733 H   0  0  0  0  0  0
  -28.1015  -29.1499   21.1366 H   0  0  0  0  0  0
  -26.0691  -25.9939   19.0123 H   0  0  0  0  0  0
  -23.9689  -27.2926   19.0522 H   0  0  0  0  0  0
  -23.7022  -30.6043   19.4086 H   0  0  0  0  0  0
  -22.7251  -29.2466   19.8767 H   0  0  0  0  0  0
  -25.1264  -36.1977   25.0841 H   0  0  0  0  0  0
  -20.9938  -28.3205   24.1466 H   0  0  0  0  0  0
  -20.5681  -26.2260   23.3607 H   0  0  0  0  0  0
  -21.6631  -26.7461   22.1190 H   0  0  0  0  0  0
  -19.6894  -25.6304   21.1247 H   0  0  0  0  0  0
  -19.6691  -27.3213   20.6767 H   0  0  0  0  0  0
  -17.4198  -26.6710   21.4004 H   0  0  0  0  0  0
  -18.0276  -26.0050   22.8983 H   0  0  0  0  0  0
  -19.7922  -30.7260   24.2284 H   0  0  0  0  0  0
  -17.5000  -31.6273   24.5160 H   0  0  0  0  0  0
  -15.5333  -30.2997   23.7665 H   0  0  0  0  0  0
  -15.8654  -28.0839   22.7050 H   0  0  0  0  0  0
  -24.5946  -30.7015   25.7803 H   0  0  0  0  0  0
  -24.8932  -32.2816   26.4942 H   0  0  0  0  0  0
  -25.8120  -30.8831   27.0207 H   0  0  0  0  0  0
  -26.2809  -29.6800   24.1154 H   0  0  0  0  0  0
  -27.4139  -29.7290   25.4479 H   0  0  0  0  0  0
  -27.8614  -30.4381   23.9135 H   0  0  0  0  0  0
  -27.2699  -33.3598   26.2068 H   0  0  0  0  0  0
  -28.3873  -32.6851   25.0302 H   0  0  0  0  0  0
  -28.0717  -31.8399   26.5377 H   0  0  0  0  0  0
  -28.2531  -38.0171   24.7666 H   0  0  0  0  0  0
  -28.1198  -36.2727   24.6053 H   0  0  0  0  0  0
  -27.2352  -37.1142   25.8848 H   0  0  0  0  0  0
  -20.9268  -29.8742   21.6972 H   0  0  0  0  0  0
  -26.0161  -38.2877   24.1560 H   0  0  0  0  0  0
  -32.3864  -23.4091   21.7521 H   0  0  0  0  0  0
  -30.6950  -25.1524   22.2124 H   0  0  0  0  0  0
  -30.0696  -22.0200   18.3964 H   0  0  0  0  0  0
  -28.0804  -23.0900   17.7393 H   0  0  0  0  0  0
  -27.9251  -24.7950   18.1437 H   0  0  0  0  0  0
  -27.1075  -23.5690   19.1256 H   0  0  0  0  0  0
  -33.3097  -21.7889   20.1625 H   0  0  0  0  0  0
  -32.4114  -21.2297   18.7730 H   0  0  0  0  0  0
  -28.5022  -25.9705   21.9413 H   0  0  0  0  0  0
  -27.3740  -25.1311   20.9189 H   0  0  0  0  0  0
  -30.9624  -19.8089   20.2014 H   0  0  0  0  0  0
  -31.6204  -20.5334   21.6438 H   0  0  0  0  0  0
  -33.8974  -19.6077   21.0258 H   0  0  0  0  0  0
  -33.1469  -18.7134   19.7267 H   0  0  0  0  0  0
  -31.7260  -17.4737   21.3766 H   0  0  0  0  0  0
  -32.3427  -18.4811   22.6681 H   0  0  0  0  0  0
  -34.6897  -17.6625   22.0426 H   0  0  0  0  0  0
  -33.9588  -16.4787   21.0143 H   0  0  0  0  0  0
  -33.0843  -16.6398   23.9492 H   0  0  0  0  0  0
  -34.6738  -16.0804   23.5642 H   0  0  0  0  0  0
  -33.7273  -14.0917   23.5909 H   0  0  0  0  0  0
  -33.5217  -14.3601   21.9146 H   0  0  0  0  0  0
  -31.3521  -15.0039   24.0381 H   0  0  0  0  0  0
  -31.5994  -13.3967   23.4503 H   0  0  0  0  0  0
  -29.7727  -14.4540   22.3948 H   0  0  0  0  0  0
  1 25  1  0  0  0
  1 30  2  0  0  0
  1 87  1  0  0  0
  2  3  1  0  0  0
  2 25  1  0  0  0
  2 88  1  0  0  0
  2 89  1  0  0  0
  3  4  1  0  0  0
  3 90  1  0  0  0
  3 91  1  0  0  0
  4  5  1  0  0  0
  4 92  1  0  0  0
  4 93  1  0  0  0
  5  6  1  0  0  0
  5 26  1  0  0  0
  5 94  1  0  0  0
  6 25  1  0  0  0
  6 95  1  0  0  0
  6 96  1  0  0  0
  7  8  2  0  0  0
  7 26  1  0  0  0
  7 29  1  0  0  0
  8  9  1  0  0  0
  8 22  1  0  0  0
  9 10  1  0  0  0
  9 27  2  0  0  0
 10 11  2  0  0  0
 10 15  1  0  0  0
 11 12  1  0  0  0
 11 97  1  0  0  0
 12 13  2  0  0  0
 12 98  1  0  0  0
 13 14  1  0  0  0
 13 31  1  0  0  0
 14 15  2  0  0  0
 14 99  1  0  0  0
 15100  1  0  0  0
 16 17  2  0  0  0
 16 21  1  0  0  0
 16 31  1  0  0  0
 17 18  1  0  0  0
 17101  1  0  0  0
 18 19  2  0  0  0
 18102  1  0  0  0
 19 20  1  0  0  0
 19 24  1  0  0  0
 20 21  2  0  0  0
 20103  1  0  0  0
 21 23  1  0  0  0
 22 28  1  0  0  0
 22 32  2  0  0  0
 26 27  1  0  0  0
 28104  1  0  0  0
 28105  1  0  0  0
 29106  1  0  0  0
 29107  1  0  0  0
 33 34  1  0  0  0
 33 66  1  0  0  0
 33 70  2  0  0  0
 34 36  1  0  0  0
 34 59  1  0  0  0
 34108  1  0  0  0
 35 44  2  0  0  0
 35 45  1  0  0  0
 35 68  1  0  0  0
 36 56  1  0  0  0
 36109  1  0  0  0
 37 39  1  0  0  0
 37 47  1  0  0  0
 37 66  1  0  0  0
 37110  1  0  0  0
 38 43  2  0  0  0
 38 46  1  0  0  0
 38 47  1  0  0  0
 39 64  1  0  0  0
 39 67  2  0  0  0
 40 52  1  0  0  0
 40 53  2  0  0  0
 40 58  1  0  0  0
 41111  1  0  0  0
 41112  1  0  0  0
 41113  1  0  0  0
 41 48  1  0  0  0
 42 43  1  0  0  0
 42 66  1  0  0  0
 42114  1  0  0  0
 42115  1  0  0  0
 43 44  1  0  0  0
 44116  1  0  0  0
 45 46  2  0  0  0
 45117  1  0  0  0
 46118  1  0  0  0
 47119  1  0  0  0
 47120  1  0  0  0
 48 56  1  0  0  0
 48 65  1  0  0  0
 48121  1  0  0  0
 49 50  1  0  0  0
 49 53  1  0  0  0
 49 64  1  0  0  0
 49122  1  0  0  0
 50 51  1  0  0  0
 50123  1  0  0  0
 50124  1  0  0  0
 51 52  1  0  0  0
 51125  1  0  0  0
 51126  1  0  0  0
 52127  1  0  0  0
 52128  1  0  0  0
 53 54  1  0  0  0
 54 55  2  0  0  0
 54129  1  0  0  0
 55 57  1  0  0  0
 55130  1  0  0  0
 56 69  2  0  0  0
 57 58  2  0  0  0
 57131  1  0  0  0
 58132  1  0  0  0
 59 60  1  0  0  0
 59 61  1  0  0  0
 59 62  1  0  0  0
 60133  1  0  0  0
 60134  1  0  0  0
 60135  1  0  0  0
 61136  1  0  0  0
 61137  1  0  0  0
 61138  1  0  0  0
 62139  1  0  0  0
 62140  1  0  0  0
 62141  1  0  0  0
 63 65  1  0  0  0
 63142  1  0  0  0
 63143  1  0  0  0
 63144  1  0  0  0
 64145  1  0  0  0
 65146  1  0  0  0
 68 79  1  0  0  0
 71 72  2  0  0  0
 71 74  1  0  0  0
 71147  1  0  0  0
 72 75  1  0  0  0
 72148  1  0  0  0
 73 74  2  0  0  0
 73 76  1  0  0  0
 73149  1  0  0  0
 74 78  1  0  0  0
 75 76  2  0  0  0
 75 79  1  0  0  0
 76 77  1  0  0  0
 77150  1  0  0  0
 77151  1  0  0  0
 77152  1  0  0  0
 78 80  1  0  0  0
 78153  1  0  0  0
 78154  1  0  0  0
 79155  1  0  0  0
 79156  1  0  0  0
 80 81  1  0  0  0
 80157  1  0  0  0
 80158  1  0  0  0
 81 82  1  0  0  0
 81159  1  0  0  0
 81160  1  0  0  0
 82 83  1  0  0  0
 82161  1  0  0  0
 82162  1  0  0  0
 83 84  1  0  0  0
 83163  1  0  0  0
 83164  1  0  0  0
 84 85  1  0  0  0
 84165  1  0  0  0
 84166  1  0  0  0
 85 86  1  0  0  0
 85167  1  0  0  0
 85168  1  0  0  0
 86 87  1  0  0  0
 86169  1  0  0  0
 86170  1  0  0  0
 87171  1  0  0  0
M  ISO  4   1 100  68 101  79 101  87 100
M  END
> <chiral flag>
0

> <version>
0

> <s_m_source_file>
/data/baiqing/PycharmProjects/Reinvent-master-3.2/result/LINK_invent/BTK/process_docking_weight1_custom_sum_contain_oxygen_bond_distance_aromatic_linkinvent_7_9_3/rearranged_h_0035.sdf

> <i_m_source_file_index>
44

> <r_mmod_Potential_Energy-OPLS-2005>
43.449161529541

> <r_mmod_Stretch_Energy-OPLS-2005>
31.0473079681396

> <r_mmod_Bend_Energy-OPLS-2005>
101.117149353027

> <r_mmod_Torsional_Energy-OPLS-2005>
294.130584716797

> <r_mmod_Improper_Torsional_Energy-OPLS-2005>
8.61034774780273

> <r_mmod_Van_der_Waal_Energy-OPLS-2005>
145.497695922852

> <r_mmod_Electrostatic_Energy-OPLS-2005>
-350.968536376953

> <r_mmod_Solvation_Energy-OPLS-2005>
-196.951461791992

> <b_mmod_Minimization_Converged-OPLS-2005>
0

> <r_mmod_RMS_Derivative-OPLS-2005>
2.91935610771179

$$$$
44
                    3D
 Structure written by MMmdl.
162170  0  0  1  0            999 V2000
  -30.7041  -14.4922   20.5244 C   0  0  0  0  0  0
  -30.4158  -12.3085   19.4312 C   0  0  0  0  0  0
  -29.4911  -12.4852   18.2097 C   0  0  0  0  0  0
  -28.0121  -12.3504   18.6232 C   0  0  0  0  0  0
  -27.6556  -13.2052   19.8699 C   0  0  2  0  0  0
  -28.7023  -13.0139   20.9921 C   0  0  0  0  0  0
  -25.2566  -13.8152   20.5639 C   0  0  0  0  0  0
  -24.1831  -13.0442   20.9191 C   0  0  0  0  0  0
  -24.6378  -11.6906   20.8762 C   0  0  0  0  0  0
  -23.9049  -10.4295   21.0426 C   0  0  0  0  0  0
  -24.3608   -9.4209   21.9197 C   0  0  0  0  0  0
  -23.6285   -8.2244   22.0754 C   0  0  0  0  0  0
  -22.4263   -8.0286   21.3550 C   0  0  0  0  0  0
  -21.9905   -9.0260   20.4650 C   0  0  0  0  0  0
  -22.7231  -10.2141   20.3069 C   0  0  0  0  0  0
  -21.6848   -6.0738   22.5282 C   0  0  0  0  0  0
  -21.4009   -6.5640   23.8215 C   0  0  0  0  0  0
  -21.3661   -5.6794   24.9177 C   0  0  0  0  0  0
  -21.6044   -4.3056   24.7227 C   0  0  0  0  0  0
  -21.8821   -3.8150   23.4347 C   0  0  0  0  0  0
  -21.9187   -4.6966   22.3402 C   0  0  0  0  0  0
  -22.7859  -13.5249   21.1853 C   0  0  0  0  0  0
  -22.1658   -4.2151   21.0981 F   0  0  0  0  0  0
  -21.5627   -3.4540   25.7740 F   0  0  0  0  0  0
  -30.0180  -13.3221   20.4207 N   0  0  0  0  0  0
  -26.2998  -12.9318   20.3365 N   0  0  0  0  0  0
  -25.9301  -11.6483   20.5798 N   0  0  0  0  0  0
  -22.0497  -12.8238   22.0409 N   0  0  0  0  0  0
  -25.4268  -15.1849   20.3920 N   0  0  0  0  0  0
  -31.8814  -14.5945   20.1805 O   0  0  0  0  0  0
  -21.6632   -6.8880   21.4241 O   0  0  0  0  0  0
  -22.3555  -14.5561   20.6703 O   0  0  0  0  0  0
  -24.6145  -31.8682   23.2091 C   0  0  0  0  0  0
  -25.9033  -32.4823   23.8399 C   0  0  1  0  0  0
  -27.2345  -27.4320   20.1024 C   0  0  0  0  0  0
  -25.5883  -33.8622   24.2328 N   0  0  0  0  0  0
  -23.4030  -30.4920   21.5486 C   0  0  2  0  0  0
  -24.8490  -28.9517   20.1190 C   0  0  0  0  0  0
  -22.7410  -29.4673   22.4977 C   0  0  0  0  0  0
  -18.0283  -28.1377   22.8495 C   0  0  0  0  0  0
  -24.1486  -36.7320   23.2640 C   0  0  0  0  0  0
  -25.9314  -30.8346   21.3597 C   0  0  0  0  0  0
  -26.0098  -29.4675   20.7094 C   0  0  0  0  0  0
  -27.2072  -28.7169   20.6912 C   0  0  0  0  0  0
  -26.0557  -26.9270   19.5132 C   0  0  0  0  0  0
  -24.8669  -27.6808   19.5176 C   0  0  0  0  0  0
  -23.6124  -29.8201   20.1654 C   0  0  0  0  0  0
  -25.4105  -36.3110   24.0337 C   0  0  1  0  0  0
  -20.5869  -28.3672   23.1322 C   0  0  2  0  0  0
  -20.6776  -26.9405   22.5435 C   0  0  0  0  0  0
  -19.5762  -26.6382   21.5231 C   0  0  0  0  0  0
  -18.1935  -26.7925   22.1618 C   0  0  0  0  0  0
  -19.1526  -28.8835   23.2909 C   0  0  0  0  0  0
  -18.9448  -30.1438   23.8920 C   0  0  0  0  0  0
  -17.6450  -30.6578   24.0574 C   0  0  0  0  0  0
  -25.9035  -34.9475   23.5134 C   0  0  0  0  0  0
  -16.5345  -29.9079   23.6324 C   0  0  0  0  0  0
  -16.7267  -28.6500   23.0340 C   0  0  0  0  0  0
  -26.4466  -31.6597   25.0718 C   0  0  0  0  0  0
  -25.3740  -31.3698   26.1469 C   0  0  0  0  0  0
  -27.0296  -30.3047   24.6079 C   0  0  0  0  0  0
  -27.6048  -32.4307   25.7477 C   0  0  0  0  0  0
  -27.5582  -37.1810   24.8467 C   0  0  0  0  0  0
  -21.4132  -29.3050   22.3723 N   0  0  0  0  0  0
  -26.4293  -37.3788   23.9413 N   0  0  0  0  0  0
  -24.6681  -31.0793   22.0983 N   0  0  0  0  0  0
  -23.4173  -28.8214   23.3019 O   0  0  0  0  0  0
  -28.4089  -26.7118   20.0795 O   0  0  0  0  0  0
  -26.5603  -34.8922   22.4697 O   0  0  0  0  0  0
  -23.5336  -32.1423   23.7484 O   0  0  0  0  0  0
  -27.4299  -19.7372   21.6920 C   0  0  0  0  0  0
  -29.5986  -20.0540   20.6928 C   0  0  0  0  0  0
  -28.3596  -20.6007   21.0826 C   0  0  0  0  0  0
  -27.6968  -18.3589   21.8853 C   0  0  0  0  0  0
  -28.9110  -17.7801   21.3970 C   0  0  0  0  0  0
  -29.8781  -18.6767   20.8430 C   0  0  0  0  0  0
  -26.3663  -18.1102   24.0538 C   0  0  0  0  0  0
  -28.0033  -22.0871   20.8961 C   0  0  0  0  0  0
  -26.6301  -17.5629   22.6433 C   0  0  0  0  0  0
  -29.1416  -16.2433   21.5050 C   0  0  0  0  0  0
  -28.8941  -22.8856   19.9119 C   0  0  0  0  0  0
  -28.3701  -24.2854   19.4874 C   0  0  0  0  0  0
  -28.3736  -25.3682   20.5920 C   0  0  0  0  0  0
  -29.9777  -15.6232   20.4729 N   0  0  0  0  0  0
  -31.4589  -18.1707   20.3547 Cl  0  0  0  0  0  0
  -31.4610  -12.3974   19.1302 H   0  0  0  0  0  0
  -30.3159  -11.3063   19.8508 H   0  0  0  0  0  0
  -29.7331  -11.7481   17.4432 H   0  0  0  0  0  0
  -29.6576  -13.4640   17.7568 H   0  0  0  0  0  0
  -27.8244  -11.2964   18.8316 H   0  0  0  0  0  0
  -27.3598  -12.6125   17.7893 H   0  0  0  0  0  0
  -27.6885  -14.2458   19.5480 H   0  0  0  0  0  0
  -28.6891  -11.9835   21.3508 H   0  0  0  0  0  0
  -28.4836  -13.6269   21.8653 H   0  0  0  0  0  0
  -25.2760   -9.5676   22.4763 H   0  0  0  0  0  0
  -24.0000   -7.4628   22.7458 H   0  0  0  0  0  0
  -21.0849   -8.8779   19.8941 H   0  0  0  0  0  0
  -22.3708  -10.9677   19.6171 H   0  0  0  0  0  0
  -21.2002   -7.6150   23.9719 H   0  0  0  0  0  0
  -21.1480   -6.0525   25.9080 H   0  0  0  0  0  0
  -22.0596   -2.7609   23.2849 H   0  0  0  0  0  0
  -22.4109  -11.9895   22.4794 H   0  0  0  0  0  0
  -21.1111  -13.1258   22.2603 H   0  0  0  0  0  0
  -24.6498  -15.8312   20.4663 H   0  0  0  0  0  0
  -26.2649  -15.6101   20.0180 H   0  0  0  0  0  0
  -26.7100  -32.5544   23.1165 H   0  0  0  0  0  0
  -25.0015  -33.9791   25.0460 H   0  0  0  0  0  0
  -22.6919  -31.3086   21.4078 H   0  0  0  0  0  0
  -23.3738  -35.9666   23.3312 H   0  0  0  0  0  0
  -24.3586  -36.8924   22.2054 H   0  0  0  0  0  0
  -23.7248  -37.6530   23.6652 H   0  0  0  0  0  0
  -26.0415  -31.5978   20.5881 H   0  0  0  0  0  0
  -26.8210  -30.8921   21.9755 H   0  0  0  0  0  0
  -28.1058  -29.1155   21.1402 H   0  0  0  0  0  0
  -26.0518  -25.9599   19.0364 H   0  0  0  0  0  0
  -23.9741  -27.2789   19.0582 H   0  0  0  0  0  0
  -23.7223  -30.5920   19.4038 H   0  0  0  0  0  0
  -22.7365  -29.2398   19.8703 H   0  0  0  0  0  0
  -25.1279  -36.1982   25.0829 H   0  0  0  0  0  0
  -20.9959  -28.3238   24.1443 H   0  0  0  0  0  0
  -20.5686  -26.2267   23.3613 H   0  0  0  0  0  0
  -21.6657  -26.7470   22.1236 H   0  0  0  0  0  0
  -19.6919  -25.6299   21.1248 H   0  0  0  0  0  0
  -19.6711  -27.3218   20.6780 H   0  0  0  0  0  0
  -17.4228  -26.6687   21.4003 H   0  0  0  0  0  0
  -18.0329  -26.0060   22.9005 H   0  0  0  0  0  0
  -19.7915  -30.7256   24.2303 H   0  0  0  0  0  0
  -17.5004  -31.6266   24.5161 H   0  0  0  0  0  0
  -15.5345  -30.2983   23.7639 H   0  0  0  0  0  0
  -15.8673  -28.0831   22.7024 H   0  0  0  0  0  0
  -24.5902  -30.7059   25.7807 H   0  0  0  0  0  0
  -24.8947  -32.2851   26.4949 H   0  0  0  0  0  0
  -25.8091  -30.8844   27.0213 H   0  0  0  0  0  0
  -26.2837  -29.6807   24.1141 H   0  0  0  0  0  0
  -27.4087  -29.7278   25.4526 H   0  0  0  0  0  0
  -27.8660  -30.4381   23.9215 H   0  0  0  0  0  0
  -27.2673  -33.3584   26.2109 H   0  0  0  0  0  0
  -28.3827  -32.6896   25.0282 H   0  0  0  0  0  0
  -28.0754  -31.8400   26.5346 H   0  0  0  0  0  0
  -28.2600  -38.0104   24.7496 H   0  0  0  0  0  0
  -28.1068  -36.2633   24.6303 H   0  0  0  0  0  0
  -27.2306  -37.1476   25.8870 H   0  0  0  0  0  0
  -20.9295  -29.8779   21.6956 H   0  0  0  0  0  0
  -26.0185  -38.2871   24.1394 H   0  0  0  0  0  0
  -26.4875  -20.1469   22.0310 H   0  0  0  0  0  0
  -30.3631  -20.6884   20.2684 H   0  0  0  0  0  0
  -25.9753  -19.1272   24.0363 H   0  0  0  0  0  0
  -27.2778  -18.1098   24.6522 H   0  0  0  0  0  0
  -25.6318  -17.4938   24.5724 H   0  0  0  0  0  0
  -28.0120  -22.5720   21.8734 H   0  0  0  0  0  0
  -26.9688  -22.1336   20.5512 H   0  0  0  0  0  0
  -26.8757  -16.5130   22.7632 H   0  0  0  0  0  0
  -25.7068  -17.5835   22.0644 H   0  0  0  0  0  0
  -28.1832  -15.7504   21.3800 H   0  0  0  0  0  0
  -29.5148  -15.9999   22.5009 H   0  0  0  0  0  0
  -28.9945  -22.2980   18.9980 H   0  0  0  0  0  0
  -29.9012  -22.9818   20.3192 H   0  0  0  0  0  0
  -27.3759  -24.1873   19.0530 H   0  0  0  0  0  0
  -29.0098  -24.6363   18.6764 H   0  0  0  0  0  0
  -29.2807  -25.2520   21.1862 H   0  0  0  0  0  0
  -27.5438  -25.2203   21.2854 H   0  0  0  0  0  0
  -30.5137  -16.3369   19.9992 H   0  0  0  0  0  0
  1 25  1  0  0  0
  1 30  2  0  0  0
  1 84  1  0  0  0
  2  3  1  0  0  0
  2 25  1  0  0  0
  2 86  1  0  0  0
  2 87  1  0  0  0
  3  4  1  0  0  0
  3 88  1  0  0  0
  3 89  1  0  0  0
  4  5  1  0  0  0
  4 90  1  0  0  0
  4 91  1  0  0  0
  5  6  1  0  0  0
  5 26  1  0  0  0
  5 92  1  0  0  0
  6 25  1  0  0  0
  6 93  1  0  0  0
  6 94  1  0  0  0
  7  8  2  0  0  0
  7 26  1  0  0  0
  7 29  1  0  0  0
  8  9  1  0  0  0
  8 22  1  0  0  0
  9 10  1  0  0  0
  9 27  2  0  0  0
 10 11  2  0  0  0
 10 15  1  0  0  0
 11 12  1  0  0  0
 11 95  1  0  0  0
 12 13  2  0  0  0
 12 96  1  0  0  0
 13 14  1  0  0  0
 13 31  1  0  0  0
 14 15  2  0  0  0
 14 97  1  0  0  0
 15 98  1  0  0  0
 16 17  2  0  0  0
 16 21  1  0  0  0
 16 31  1  0  0  0
 17 18  1  0  0  0
 17 99  1  0  0  0
 18 19  2  0  0  0
 18100  1  0  0  0
 19 20  1  0  0  0
 19 24  1  0  0  0
 20 21  2  0  0  0
 20101  1  0  0  0
 21 23  1  0  0  0
 22 28  1  0  0  0
 22 32  2  0  0  0
 26 27  1  0  0  0
 28102  1  0  0  0
 28103  1  0  0  0
 29104  1  0  0  0
 29105  1  0  0  0
 33 34  1  0  0  0
 33 66  1  0  0  0
 33 70  2  0  0  0
 34 36  1  0  0  0
 34 59  1  0  0  0
 34106  1  0  0  0
 35 44  2  0  0  0
 35 45  1  0  0  0
 35 68  1  0  0  0
 36 56  1  0  0  0
 36107  1  0  0  0
 37 39  1  0  0  0
 37 47  1  0  0  0
 37 66  1  0  0  0
 37108  1  0  0  0
 38 43  2  0  0  0
 38 46  1  0  0  0
 38 47  1  0  0  0
 39 64  1  0  0  0
 39 67  2  0  0  0
 40 52  1  0  0  0
 40 53  2  0  0  0
 40 58  1  0  0  0
 41109  1  0  0  0
 41110  1  0  0  0
 41111  1  0  0  0
 41 48  1  0  0  0
 42 43  1  0  0  0
 42 66  1  0  0  0
 42112  1  0  0  0
 42113  1  0  0  0
 43 44  1  0  0  0
 44114  1  0  0  0
 45 46  2  0  0  0
 45115  1  0  0  0
 46116  1  0  0  0
 47117  1  0  0  0
 47118  1  0  0  0
 48 56  1  0  0  0
 48 65  1  0  0  0
 48119  1  0  0  0
 49 50  1  0  0  0
 49 53  1  0  0  0
 49 64  1  0  0  0
 49120  1  0  0  0
 50 51  1  0  0  0
 50121  1  0  0  0
 50122  1  0  0  0
 51 52  1  0  0  0
 51123  1  0  0  0
 51124  1  0  0  0
 52125  1  0  0  0
 52126  1  0  0  0
 53 54  1  0  0  0
 54 55  2  0  0  0
 54127  1  0  0  0
 55 57  1  0  0  0
 55128  1  0  0  0
 56 69  2  0  0  0
 57 58  2  0  0  0
 57129  1  0  0  0
 58130  1  0  0  0
 59 60  1  0  0  0
 59 61  1  0  0  0
 59 62  1  0  0  0
 60131  1  0  0  0
 60132  1  0  0  0
 60133  1  0  0  0
 61134  1  0  0  0
 61135  1  0  0  0
 61136  1  0  0  0
 62137  1  0  0  0
 62138  1  0  0  0
 62139  1  0  0  0
 63 65  1  0  0  0
 63140  1  0  0  0
 63141  1  0  0  0
 63142  1  0  0  0
 64143  1  0  0  0
 65144  1  0  0  0
 68 83  1  0  0  0
 71 73  2  0  0  0
 71 74  1  0  0  0
 71145  1  0  0  0
 72 73  1  0  0  0
 72 76  2  0  0  0
 72146  1  0  0  0
 73 78  1  0  0  0
 74 75  2  0  0  0
 74 79  1  0  0  0
 75 76  1  0  0  0
 75 80  1  0  0  0
 76 85  1  0  0  0
 77 79  1  0  0  0
 77147  1  0  0  0
 77148  1  0  0  0
 77149  1  0  0  0
 78 81  1  0  0  0
 78150  1  0  0  0
 78151  1  0  0  0
 79152  1  0  0  0
 79153  1  0  0  0
 80 84  1  0  0  0
 80154  1  0  0  0
 80155  1  0  0  0
 81 82  1  0  0  0
 81156  1  0  0  0
 81157  1  0  0  0
 82 83  1  0  0  0
 82158  1  0  0  0
 82159  1  0  0  0
 83160  1  0  0  0
 83161  1  0  0  0
 84162  1  0  0  0
M  ISO  4   1 100  68 101  83 101  84 100
M  END
> <chiral flag>
0

> <version>
0

> <s_m_source_file>
/data/baiqing/PycharmProjects/Reinvent-master-3.2/result/LINK_invent/BTK/process_docking_weight1_custom_sum_contain_oxygen_bond_distance_aromatic_linkinvent_7_9_3/rearranged_h_0035.sdf

> <i_m_source_file_index>
45

> <r_mmod_Potential_Energy-OPLS-2005>
39.0289535522461

> <r_mmod_Stretch_Energy-OPLS-2005>
41.9180717468262

> <r_mmod_Bend_Energy-OPLS-2005>
123.932731628418

> <r_mmod_Torsional_Energy-OPLS-2005>
271.773010253906

> <r_mmod_Improper_Torsional_Energy-OPLS-2005>
21.8038120269775

> <r_mmod_Van_der_Waal_Energy-OPLS-2005>
148.064193725586

> <r_mmod_Electrostatic_Energy-OPLS-2005>
-397.337677001953

> <r_mmod_Solvation_Energy-OPLS-2005>
-188.887008666992

> <b_mmod_Minimization_Converged-OPLS-2005>
0

> <r_mmod_RMS_Derivative-OPLS-2005>
1.45731031894684

$$$$
45
                    3D
 Structure written by MMmdl.
159167  0  0  1  0            999 V2000
  -30.6960  -14.5840   20.5194 C   0  0  0  0  0  0
  -30.4190  -12.3675   19.4447 C   0  0  0  0  0  0
  -29.4984  -12.5019   18.2155 C   0  0  0  0  0  0
  -28.0215  -12.3554   18.6283 C   0  0  0  0  0  0
  -27.6504  -13.2254   19.8602 C   0  0  2  0  0  0
  -28.6970  -13.0935   20.9891 C   0  0  0  0  0  0
  -25.2530  -13.8180   20.5670 C   0  0  0  0  0  0
  -24.1818  -13.0435   20.9213 C   0  0  0  0  0  0
  -24.6405  -11.6918   20.8761 C   0  0  0  0  0  0
  -23.9080  -10.4294   21.0415 C   0  0  0  0  0  0
  -24.3627   -9.4208   21.9191 C   0  0  0  0  0  0
  -23.6299   -8.2246   22.0756 C   0  0  0  0  0  0
  -22.4283   -8.0286   21.3541 C   0  0  0  0  0  0
  -21.9923   -9.0262   20.4646 C   0  0  0  0  0  0
  -22.7254  -10.2138   20.3060 C   0  0  0  0  0  0
  -21.6850   -6.0743   22.5278 C   0  0  0  0  0  0
  -21.4012   -6.5643   23.8217 C   0  0  0  0  0  0
  -21.3659   -5.6793   24.9176 C   0  0  0  0  0  0
  -21.6045   -4.3058   24.7224 C   0  0  0  0  0  0
  -21.8820   -3.8151   23.4343 C   0  0  0  0  0  0
  -21.9192   -4.6973   22.3404 C   0  0  0  0  0  0
  -22.7839  -13.5228   21.1868 C   0  0  0  0  0  0
  -22.1661   -4.2160   21.0980 F   0  0  0  0  0  0
  -21.5628   -3.4541   25.7734 F   0  0  0  0  0  0
  -30.0132  -13.4035   20.4136 N   0  0  0  0  0  0
  -26.2981  -12.9391   20.3322 N   0  0  0  0  0  0
  -25.9339  -11.6538   20.5776 N   0  0  0  0  0  0
  -22.0471  -12.8215   22.0413 N   0  0  0  0  0  0
  -25.4181  -15.1887   20.3988 N   0  0  0  0  0  0
  -31.8633  -14.6814   20.1353 O   0  0  0  0  0  0
  -21.6639   -6.8890   21.4243 O   0  0  0  0  0  0
  -22.3528  -14.5535   20.6718 O   0  0  0  0  0  0
  -24.6242  -31.8631   23.2082 C   0  0  0  0  0  0
  -25.9105  -32.4788   23.8397 C   0  0  1  0  0  0
  -27.2171  -27.3378   20.0973 C   0  0  0  0  0  0
  -25.5951  -33.8592   24.2325 N   0  0  0  0  0  0
  -23.4169  -30.4908   21.5496 C   0  0  2  0  0  0
  -24.8628  -28.9605   20.1050 C   0  0  0  0  0  0
  -22.7478  -29.4632   22.4927 C   0  0  0  0  0  0
  -18.0290  -28.1356   22.8471 C   0  0  0  0  0  0
  -24.1496  -36.7286   23.2644 C   0  0  0  0  0  0
  -25.9609  -30.7929   21.3864 C   0  0  0  0  0  0
  -26.0300  -29.4259   20.7222 C   0  0  0  0  0  0
  -27.2069  -28.6217   20.7208 C   0  0  0  0  0  0
  -26.0321  -26.9444   19.4258 C   0  0  0  0  0  0
  -24.8654  -27.7240   19.4480 C   0  0  0  0  0  0
  -23.6301  -29.8371   20.1610 C   0  0  0  0  0  0
  -25.4115  -36.3090   24.0352 C   0  0  1  0  0  0
  -20.5897  -28.3663   23.1280 C   0  0  2  0  0  0
  -20.6782  -26.9380   22.5411 C   0  0  0  0  0  0
  -19.5765  -26.6368   21.5203 C   0  0  0  0  0  0
  -18.1929  -26.7900   22.1604 C   0  0  0  0  0  0
  -19.1546  -28.8824   23.2866 C   0  0  0  0  0  0
  -18.9474  -30.1426   23.8879 C   0  0  0  0  0  0
  -17.6473  -30.6565   24.0547 C   0  0  0  0  0  0
  -25.9058  -34.9458   23.5131 C   0  0  0  0  0  0
  -16.5360  -29.9067   23.6323 C   0  0  0  0  0  0
  -16.7279  -28.6481   23.0339 C   0  0  0  0  0  0
  -26.4495  -31.6588   25.0756 C   0  0  0  0  0  0
  -25.3737  -31.3721   26.1484 C   0  0  0  0  0  0
  -27.0336  -30.3013   24.6199 C   0  0  0  0  0  0
  -27.6067  -32.4317   25.7511 C   0  0  0  0  0  0
  -27.5583  -37.1802   24.8470 C   0  0  0  0  0  0
  -21.4198  -29.3023   22.3673 N   0  0  0  0  0  0
  -26.4292  -37.3783   23.9422 N   0  0  0  0  0  0
  -24.6854  -31.0651   22.1040 N   0  0  0  0  0  0
  -23.4212  -28.8156   23.2977 O   0  0  0  0  0  0
  -28.3248  -26.4768   20.1680 O   0  0  0  0  0  0
  -26.5603  -34.8917   22.4681 O   0  0  0  0  0  0
  -23.5410  -32.1446   23.7401 O   0  0  0  0  0  0
  -28.2585  -20.1247   20.7823 C   0  0  0  0  0  0
  -30.8703  -19.3621   20.2262 C   0  0  0  0  0  0
  -28.6886  -18.7978   21.0863 C   0  0  0  0  0  0
  -30.4403  -20.6852   19.9189 C   0  0  0  0  0  0
  -29.1128  -21.1018   20.2013 C   0  0  0  0  0  0
  -30.0190  -18.3850   20.8072 C   0  0  0  0  0  0
  -27.7033  -17.8397   21.7290 C   0  0  0  0  0  0
  -31.4273  -21.6389   19.2706 C   0  0  0  0  0  0
  -28.5232  -22.4808   19.7446 C   0  0  0  0  0  0
  -30.6380  -17.0140   21.2485 C   0  0  0  0  0  0
  -29.0000  -23.8749   20.3324 C   0  0  0  0  0  0
  -28.1041  -25.0646   19.8010 C   0  0  0  0  0  0
  -30.0133  -15.6921   20.9254 N   0  0  0  0  0  0
  -31.4637  -12.4598   19.1424 H   0  0  0  0  0  0
  -30.3249  -11.3753   19.8902 H   0  0  0  0  0  0
  -29.7538  -11.7479   17.4705 H   0  0  0  0  0  0
  -29.6554  -13.4706   17.7381 H   0  0  0  0  0  0
  -27.8470  -11.3021   18.8528 H   0  0  0  0  0  0
  -27.3709  -12.5989   17.7872 H   0  0  0  0  0  0
  -27.6677  -14.2617   19.5217 H   0  0  0  0  0  0
  -28.6977  -12.0824   21.3997 H   0  0  0  0  0  0
  -28.4551  -13.7563   21.8215 H   0  0  0  0  0  0
  -25.2775   -9.5682   22.4767 H   0  0  0  0  0  0
  -24.0006   -7.4639   22.7474 H   0  0  0  0  0  0
  -21.0858   -8.8793   19.8947 H   0  0  0  0  0  0
  -22.3727  -10.9684   19.6169 H   0  0  0  0  0  0
  -21.2001   -7.6148   23.9725 H   0  0  0  0  0  0
  -21.1479   -6.0520   25.9081 H   0  0  0  0  0  0
  -22.0597   -2.7616   23.2840 H   0  0  0  0  0  0
  -22.4080  -11.9877   22.4804 H   0  0  0  0  0  0
  -21.1086  -13.1245   22.2606 H   0  0  0  0  0  0
  -24.6404  -15.8342   20.4869 H   0  0  0  0  0  0
  -26.2454  -15.6163   20.0048 H   0  0  0  0  0  0
  -26.7171  -32.5454   23.1150 H   0  0  0  0  0  0
  -25.0141  -33.9751   25.0499 H   0  0  0  0  0  0
  -22.7097  -31.3117   21.4121 H   0  0  0  0  0  0
  -23.3764  -35.9612   23.3312 H   0  0  0  0  0  0
  -24.3588  -36.8882   22.2054 H   0  0  0  0  0  0
  -23.7237  -37.6496   23.6646 H   0  0  0  0  0  0
  -26.1041  -31.5624   20.6263 H   0  0  0  0  0  0
  -26.8386  -30.8304   22.0203 H   0  0  0  0  0  0
  -28.0961  -28.9652   21.2301 H   0  0  0  0  0  0
  -25.9668  -26.0225   18.8679 H   0  0  0  0  0  0
  -23.9789  -27.3735   18.9384 H   0  0  0  0  0  0
  -23.7475  -30.6205   19.4112 H   0  0  0  0  0  0
  -22.7513  -29.2681   19.8535 H   0  0  0  0  0  0
  -25.1283  -36.1963   25.0846 H   0  0  0  0  0  0
  -20.9978  -28.3231   24.1408 H   0  0  0  0  0  0
  -20.5672  -26.2269   23.3613 H   0  0  0  0  0  0
  -21.6653  -26.7407   22.1198 H   0  0  0  0  0  0
  -19.6942  -25.6288   21.1219 H   0  0  0  0  0  0
  -19.6712  -27.3188   20.6740 H   0  0  0  0  0  0
  -17.4212  -26.6661   21.3987 H   0  0  0  0  0  0
  -18.0303  -26.0030   22.8988 H   0  0  0  0  0  0
  -19.7957  -30.7227   24.2247 H   0  0  0  0  0  0
  -17.5039  -31.6249   24.5146 H   0  0  0  0  0  0
  -15.5358  -30.2955   23.7670 H   0  0  0  0  0  0
  -15.8678  -28.0805   22.7056 H   0  0  0  0  0  0
  -24.5954  -30.7009   25.7840 H   0  0  0  0  0  0
  -24.8868  -32.2875   26.4860 H   0  0  0  0  0  0
  -25.8075  -30.8971   27.0290 H   0  0  0  0  0  0
  -26.2906  -29.6769   24.1227 H   0  0  0  0  0  0
  -27.4051  -29.7261   25.4687 H   0  0  0  0  0  0
  -27.8781  -30.4313   23.9422 H   0  0  0  0  0  0
  -27.2700  -33.3640   26.2060 H   0  0  0  0  0  0
  -28.3886  -32.6833   25.0332 H   0  0  0  0  0  0
  -28.0728  -31.8458   26.5444 H   0  0  0  0  0  0
  -28.2598  -38.0095   24.7493 H   0  0  0  0  0  0
  -28.1072  -36.2626   24.6312 H   0  0  0  0  0  0
  -27.2298  -37.1457   25.8869 H   0  0  0  0  0  0
  -20.9375  -29.8777   21.6911 H   0  0  0  0  0  0
  -26.0182  -38.2865   24.1413 H   0  0  0  0  0  0
  -27.2305  -20.3929   20.9853 H   0  0  0  0  0  0
  -31.8976  -19.0927   20.0188 H   0  0  0  0  0  0
  -26.8129  -18.3564   22.0880 H   0  0  0  0  0  0
  -28.1531  -17.3281   22.5794 H   0  0  0  0  0  0
  -27.3855  -17.0926   21.0037 H   0  0  0  0  0  0
  -32.2935  -21.1081   18.8742 H   0  0  0  0  0  0
  -31.7867  -22.3633   20.0022 H   0  0  0  0  0  0
  -30.9724  -22.1820   18.4425 H   0  0  0  0  0  0
  -27.4456  -22.4229   19.9041 H   0  0  0  0  0  0
  -28.6288  -22.5220   18.6598 H   0  0  0  0  0  0
  -30.7131  -17.0525   22.3363 H   0  0  0  0  0  0
  -31.6753  -17.0095   20.9105 H   0  0  0  0  0  0
  -30.0444  -24.0585   20.0817 H   0  0  0  0  0  0
  -28.9403  -23.8460   21.4207 H   0  0  0  0  0  0
  -27.1059  -24.7728   20.1268 H   0  0  0  0  0  0
  -28.1050  -25.0229   18.7111 H   0  0  0  0  0  0
  -29.0421  -15.5681   21.1627 H   0  0  0  0  0  0
  1 25  1  0  0  0
  1 30  2  0  0  0
  1 83  1  0  0  0
  2  3  1  0  0  0
  2 25  1  0  0  0
  2 84  1  0  0  0
  2 85  1  0  0  0
  3  4  1  0  0  0
  3 86  1  0  0  0
  3 87  1  0  0  0
  4  5  1  0  0  0
  4 88  1  0  0  0
  4 89  1  0  0  0
  5  6  1  0  0  0
  5 26  1  0  0  0
  5 90  1  0  0  0
  6 25  1  0  0  0
  6 91  1  0  0  0
  6 92  1  0  0  0
  7  8  2  0  0  0
  7 26  1  0  0  0
  7 29  1  0  0  0
  8  9  1  0  0  0
  8 22  1  0  0  0
  9 10  1  0  0  0
  9 27  2  0  0  0
 10 11  2  0  0  0
 10 15  1  0  0  0
 11 12  1  0  0  0
 11 93  1  0  0  0
 12 13  2  0  0  0
 12 94  1  0  0  0
 13 14  1  0  0  0
 13 31  1  0  0  0
 14 15  2  0  0  0
 14 95  1  0  0  0
 15 96  1  0  0  0
 16 17  2  0  0  0
 16 21  1  0  0  0
 16 31  1  0  0  0
 17 18  1  0  0  0
 17 97  1  0  0  0
 18 19  2  0  0  0
 18 98  1  0  0  0
 19 20  1  0  0  0
 19 24  1  0  0  0
 20 21  2  0  0  0
 20 99  1  0  0  0
 21 23  1  0  0  0
 22 28  1  0  0  0
 22 32  2  0  0  0
 26 27  1  0  0  0
 28100  1  0  0  0
 28101  1  0  0  0
 29102  1  0  0  0
 29103  1  0  0  0
 33 34  1  0  0  0
 33 66  1  0  0  0
 33 70  2  0  0  0
 34 36  1  0  0  0
 34 59  1  0  0  0
 34104  1  0  0  0
 35 44  2  0  0  0
 35 45  1  0  0  0
 35 68  1  0  0  0
 36 56  1  0  0  0
 36105  1  0  0  0
 37 39  1  0  0  0
 37 47  1  0  0  0
 37 66  1  0  0  0
 37106  1  0  0  0
 38 43  2  0  0  0
 38 46  1  0  0  0
 38 47  1  0  0  0
 39 64  1  0  0  0
 39 67  2  0  0  0
 40 52  1  0  0  0
 40 53  2  0  0  0
 40 58  1  0  0  0
 41107  1  0  0  0
 41108  1  0  0  0
 41109  1  0  0  0
 41 48  1  0  0  0
 42 43  1  0  0  0
 42 66  1  0  0  0
 42110  1  0  0  0
 42111  1  0  0  0
 43 44  1  0  0  0
 44112  1  0  0  0
 45 46  2  0  0  0
 45113  1  0  0  0
 46114  1  0  0  0
 47115  1  0  0  0
 47116  1  0  0  0
 48 56  1  0  0  0
 48 65  1  0  0  0
 48117  1  0  0  0
 49 50  1  0  0  0
 49 53  1  0  0  0
 49 64  1  0  0  0
 49118  1  0  0  0
 50 51  1  0  0  0
 50119  1  0  0  0
 50120  1  0  0  0
 51 52  1  0  0  0
 51121  1  0  0  0
 51122  1  0  0  0
 52123  1  0  0  0
 52124  1  0  0  0
 53 54  1  0  0  0
 54 55  2  0  0  0
 54125  1  0  0  0
 55 57  1  0  0  0
 55126  1  0  0  0
 56 69  2  0  0  0
 57 58  2  0  0  0
 57127  1  0  0  0
 58128  1  0  0  0
 59 60  1  0  0  0
 59 61  1  0  0  0
 59 62  1  0  0  0
 60129  1  0  0  0
 60130  1  0  0  0
 60131  1  0  0  0
 61132  1  0  0  0
 61133  1  0  0  0
 61134  1  0  0  0
 62135  1  0  0  0
 62136  1  0  0  0
 62137  1  0  0  0
 63 65  1  0  0  0
 63138  1  0  0  0
 63139  1  0  0  0
 63140  1  0  0  0
 64141  1  0  0  0
 65142  1  0  0  0
 68 82  1  0  0  0
 71 73  2  0  0  0
 71 75  1  0  0  0
 71143  1  0  0  0
 72 74  1  0  0  0
 72 76  2  0  0  0
 72144  1  0  0  0
 73 76  1  0  0  0
 73 77  1  0  0  0
 74 75  2  0  0  0
 74 78  1  0  0  0
 75 79  1  0  0  0
 76 80  1  0  0  0
 77145  1  0  0  0
 77146  1  0  0  0
 77147  1  0  0  0
 78148  1  0  0  0
 78149  1  0  0  0
 78150  1  0  0  0
 79 81  1  0  0  0
 79151  1  0  0  0
 79152  1  0  0  0
 80 83  1  0  0  0
 80153  1  0  0  0
 80154  1  0  0  0
 81 82  1  0  0  0
 81155  1  0  0  0
 81156  1  0  0  0
 82157  1  0  0  0
 82158  1  0  0  0
 83159  1  0  0  0
M  ISO  4   1 100  68 101  82 101  83 100
M  END
> <chiral flag>
0

> <version>
0

> <s_m_source_file>
/data/baiqing/PycharmProjects/Reinvent-master-3.2/result/LINK_invent/BTK/process_docking_weight1_custom_sum_contain_oxygen_bond_distance_aromatic_linkinvent_7_9_3/rearranged_h_0035.sdf

> <i_m_source_file_index>
46

> <r_mmod_Potential_Energy-OPLS-2005>
-19.866720199585

> <r_mmod_Stretch_Energy-OPLS-2005>
68.5753402709961

> <r_mmod_Bend_Energy-OPLS-2005>
141.191711425781

> <r_mmod_Torsional_Energy-OPLS-2005>
200.321411132812

> <r_mmod_Improper_Torsional_Energy-OPLS-2005>
4.85907554626465

> <r_mmod_Van_der_Waal_Energy-OPLS-2005>
153.650787353516

> <r_mmod_Electrostatic_Energy-OPLS-2005>
-424.625213623047

> <r_mmod_Solvation_Energy-OPLS-2005>
-205.722549438477

> <b_mmod_Minimization_Converged-OPLS-2005>
0

> <r_mmod_RMS_Derivative-OPLS-2005>
1.7969605922699

$$$$
46
                    3D
 Structure written by MMmdl.
166174  0  0  1  0            999 V2000
  -29.4542  -15.9038   20.4904 C   0  0  0  0  0  0
  -30.2658  -13.3700   19.6613 C   0  0  0  0  0  0
  -29.5248  -12.7641   18.4169 C   0  0  0  0  0  0
  -28.1160  -12.2822   18.7928 C   0  0  0  0  0  0
  -27.4998  -13.2597   19.8123 C   0  0  2  0  0  0
  -28.3874  -13.5594   21.0154 C   0  0  0  0  0  0
  -25.1850  -13.8111   20.5635 C   0  0  0  0  0  0
  -24.1327  -13.0320   20.9329 C   0  0  0  0  0  0
  -24.6003  -11.6814   20.8807 C   0  0  0  0  0  0
  -23.8823  -10.4204   21.0471 C   0  0  0  0  0  0
  -24.3483   -9.4151   21.9214 C   0  0  0  0  0  0
  -23.6221   -8.2155   22.0749 C   0  0  0  0  0  0
  -22.4198   -8.0194   21.3540 C   0  0  0  0  0  0
  -21.9787   -9.0134   20.4635 C   0  0  0  0  0  0
  -22.7044  -10.2040   20.3073 C   0  0  0  0  0  0
  -21.6830   -6.0682   22.5281 C   0  0  0  0  0  0
  -21.4001   -6.5607   23.8208 C   0  0  0  0  0  0
  -21.3653   -5.6769   24.9176 C   0  0  0  0  0  0
  -21.6051   -4.3033   24.7235 C   0  0  0  0  0  0
  -21.8820   -3.8113   23.4359 C   0  0  0  0  0  0
  -21.9189   -4.6918   22.3411 C   0  0  0  0  0  0
  -22.7429  -13.5136   21.2043 C   0  0  0  0  0  0
  -22.1659   -4.2105   21.0989 F   0  0  0  0  0  0
  -21.5638   -3.4526   25.7756 F   0  0  0  0  0  0
  -29.3972  -14.4182   20.4386 N   0  0  0  0  0  0
  -26.1972  -12.9219   20.2781 N   0  0  0  0  0  0
  -25.8813  -11.6388   20.5506 N   0  0  0  0  0  0
  -22.0132  -12.8120   22.0617 N   0  0  0  0  0  0
  -25.3637  -15.1861   20.4107 N   0  0  0  0  0  0
  -30.6791  -16.0781   20.1991 O   0  0  0  0  0  0
  -21.6594   -6.8786   21.4225 O   0  0  0  0  0  0
  -22.3165  -14.5466   20.6900 O   0  0  0  0  0  0
  -24.7222  -32.0214   23.0316 C   0  0  0  0  0  0
  -25.9805  -32.5490   23.7925 C   0  0  1  0  0  0
  -26.8792  -27.3889   20.6609 C   0  0  0  0  0  0
  -25.6446  -33.9026   24.2262 N   0  0  0  0  0  0
  -23.6953  -30.4322   21.3434 C   0  0  2  0  0  0
  -25.0686  -29.1760   19.7403 C   0  0  0  0  0  0
  -23.9272  -29.1655   22.1656 C   0  0  0  0  0  0
  -18.0557  -27.7939   22.7714 C   0  0  0  0  0  0
  -24.1483  -36.7426   23.2611 C   0  0  0  0  0  0
  -26.0990  -31.0307   21.1555 C   0  0  0  0  0  0
  -26.1808  -29.6554   20.4710 C   0  0  0  0  0  0
  -27.1783  -28.7477   20.8438 C   0  0  0  0  0  0
  -26.0213  -26.9623   19.6338 C   0  0  0  0  0  0
  -25.0250  -27.8615   19.2363 C   0  0  0  0  0  0
  -23.8195  -30.0082   19.8729 C   0  0  0  0  0  0
  -25.4126  -36.3350   24.0325 C   0  0  1  0  0  0
  -20.8578  -26.8741   23.0424 C   0  0  2  0  0  0
  -20.0768  -25.7156   22.5010 C   0  0  0  0  0  0
  -19.0952  -26.0761   21.3850 C   0  0  0  0  0  0
  -17.8294  -26.5714   21.9749 C   0  0  0  0  0  0
  -19.3553  -28.0074   23.3630 C   0  0  0  0  0  0
  -19.1497  -29.2266   24.1891 C   0  0  0  0  0  0
  -18.0242  -30.1349   24.2271 C   0  0  0  0  0  0
  -25.9187  -34.9869   23.5006 C   0  0  0  0  0  0
  -16.8359  -29.7994   23.5855 C   0  0  0  0  0  0
  -16.8679  -28.5890   22.8984 C   0  0  0  0  0  0
  -26.4605  -31.7038   25.0473 C   0  0  0  0  0  0
  -25.3442  -31.3664   26.0660 C   0  0  0  0  0  0
  -27.1164  -30.3970   24.5800 C   0  0  0  0  0  0
  -27.5774  -32.4629   25.8002 C   0  0  0  0  0  0
  -27.5613  -37.1901   24.8479 C   0  0  0  0  0  0
  -23.3004  -27.9118   21.9860 N   0  0  0  0  0  0
  -26.4283  -37.4045   23.9495 N   0  0  0  0  0  0
  -24.8140  -31.3055   21.8422 N   0  0  0  0  0  0
  -24.3222  -29.3838   23.2867 O   0  0  0  0  0  0
  -26.8044  -26.6069   21.8031 O   0  0  0  0  0  0
  -26.5554  -34.9382   22.4454 O   0  0  0  0  0  0
  -23.6418  -32.2460   23.5886 O   0  0  0  0  0  0
  -23.0661  -25.9054   23.2796 C   0  0  0  0  0  0
  -21.2088  -28.4824   21.5402 C   0  0  0  0  0  0
  -22.7916  -25.5135   21.7033 C   0  0  0  0  0  0
  -22.8926  -27.3743   24.1370 C   0  0  0  0  0  0
  -21.7496  -26.7637   20.8280 C   0  0  0  0  0  0
  -21.8112  -28.8347   23.4026 C   0  0  0  0  0  0
  -21.4999  -26.4782   19.3589 C   0  0  0  0  0  0
  -20.9856  -31.1285   23.2840 C   0  0  0  0  0  0
  -24.0494  -24.0005   21.1545 C   0  0  0  0  0  0
  -24.6211  -27.1544   24.3175 C   0  0  0  0  0  0
  -24.7432  -21.9697   21.1936 C   0  0  0  0  0  0
  -26.2577  -20.4255   21.2706 C   0  0  0  0  0  0
  -27.3951  -18.7782   20.4869 C   0  0  0  0  0  0
  -26.0531  -27.1454   23.1633 C   0  0  0  0  0  0
  -28.2527  -17.0465   20.7329 N   0  0  0  0  0  0
  -21.7765  -30.1158   23.9503 O   0  0  0  0  0  0
  -31.1897  -13.8376   19.3163 H   0  0  0  0  0  0
  -30.6003  -12.5705   20.3254 H   0  0  0  0  0  0
  -30.1014  -11.9536   17.9689 H   0  0  0  0  0  0
  -29.4387  -13.5399   17.6545 H   0  0  0  0  0  0
  -28.1912  -11.2889   19.2357 H   0  0  0  0  0  0
  -27.4845  -12.1794   17.9098 H   0  0  0  0  0  0
  -27.3632  -14.1778   19.2382 H   0  0  0  0  0  0
  -28.7600  -12.6546   21.4974 H   0  0  0  0  0  0
  -27.8452  -14.1192   21.7802 H   0  0  0  0  0  0
  -25.2629   -9.5679   22.4769 H   0  0  0  0  0  0
  -23.9975   -7.4531   22.7436 H   0  0  0  0  0  0
  -21.0736   -8.8594   19.8923 H   0  0  0  0  0  0
  -22.3475  -10.9575   19.6191 H   0  0  0  0  0  0
  -21.1978   -7.6116   23.9695 H   0  0  0  0  0  0
  -21.1489   -6.0509   25.9080 H   0  0  0  0  0  0
  -22.0612   -2.7574   23.2869 H   0  0  0  0  0  0
  -22.3802  -11.9779   22.4963 H   0  0  0  0  0  0
  -21.0754  -13.1110   22.2903 H   0  0  0  0  0  0
  -24.5629  -15.8027   20.4975 H   0  0  0  0  0  0
  -26.0687  -15.5526   19.7860 H   0  0  0  0  0  0
  -26.8349  -32.6311   23.1266 H   0  0  0  0  0  0
  -25.0739  -33.9953   25.0536 H   0  0  0  0  0  0
  -22.7306  -30.8882   21.4758 H   0  0  0  0  0  0
  -23.3855  -35.9641   23.3195 H   0  0  0  0  0  0
  -24.3602  -36.9124   22.2045 H   0  0  0  0  0  0
  -23.7092  -37.6536   23.6673 H   0  0  0  0  0  0
  -26.2357  -31.7965   20.3910 H   0  0  0  0  0  0
  -26.9658  -31.1016   21.8027 H   0  0  0  0  0  0
  -27.8769  -29.0401   21.6160 H   0  0  0  0  0  0
  -25.8586  -25.9117   19.4446 H   0  0  0  0  0  0
  -24.1826  -27.5158   18.6572 H   0  0  0  0  0  0
  -23.8970  -30.8846   19.2272 H   0  0  0  0  0  0
  -22.9441  -29.4457   19.5473 H   0  0  0  0  0  0
  -25.1295  -36.2107   25.0802 H   0  0  0  0  0  0
  -20.8610  -26.4954   24.0762 H   0  0  0  0  0  0
  -20.6241  -24.8132   22.2469 H   0  0  0  0  0  0
  -19.4737  -25.3125   23.3189 H   0  0  0  0  0  0
  -18.8690  -25.1728   20.8177 H   0  0  0  0  0  0
  -19.3760  -26.8245   20.6568 H   0  0  0  0  0  0
  -17.1270  -26.7746   21.1639 H   0  0  0  0  0  0
  -17.3539  -25.8153   22.6018 H   0  0  0  0  0  0
  -19.8997  -29.4627   24.9234 H   0  0  0  0  0  0
  -18.0549  -31.0170   24.8534 H   0  0  0  0  0  0
  -15.9471  -30.4132   23.6442 H   0  0  0  0  0  0
  -15.9532  -28.2739   22.4129 H   0  0  0  0  0  0
  -24.5815  -30.7175   25.6343 H   0  0  0  0  0  0
  -24.8399  -32.2636   26.4237 H   0  0  0  0  0  0
  -25.7397  -30.8481   26.9402 H   0  0  0  0  0  0
  -26.5622  -30.0172   23.7462 H   0  0  0  0  0  0
  -27.1564  -29.6339   25.3579 H   0  0  0  0  0  0
  -28.1332  -30.5511   24.2152 H   0  0  0  0  0  0
  -27.2052  -33.3606   26.2941 H   0  0  0  0  0  0
  -28.3759  -32.7721   25.1249 H   0  0  0  0  0  0
  -28.0300  -31.8422   26.5751 H   0  0  0  0  0  0
  -28.2581  -38.0259   24.7723 H   0  0  0  0  0  0
  -28.1171  -36.2826   24.6064 H   0  0  0  0  0  0
  -27.2368  -37.1256   25.8881 H   0  0  0  0  0  0
  -23.3427  -27.6324   21.0177 H   0  0  0  0  0  0
  -26.0171  -38.3092   24.1621 H   0  0  0  0  0  0
  -23.6892  -25.1345   23.7112 H   0  0  0  0  0  0
  -20.6893  -29.2117   20.9360 H   0  0  0  0  0  0
  -22.4331  -26.2734   18.8376 H   0  0  0  0  0  0
  -20.9938  -27.3135   18.8735 H   0  0  0  0  0  0
  -20.8823  -25.5869   19.2526 H   0  0  0  0  0  0
  -20.4218  -31.6666   24.0466 H   0  0  0  0  0  0
  -20.2696  -30.7378   22.5640 H   0  0  0  0  0  0
  -21.5192  -31.9038   22.7502 H   0  0  0  0  0  0
  -24.9632  -24.4819   21.5031 H   0  0  0  0  0  0
  -24.0578  -24.1953   20.0826 H   0  0  0  0  0  0
  -24.7626  -26.2889   24.9697 H   0  0  0  0  0  0
  -24.8867  -27.9155   25.0535 H   0  0  0  0  0  0
  -23.9895  -21.4898   20.5676 H   0  0  0  0  0  0
  -24.3720  -21.7810   22.2007 H   0  0  0  0  0  0
  -25.7754  -19.8510   22.0603 H   0  0  0  0  0  0
  -27.0472  -20.9578   21.7998 H   0  0  0  0  0  0
  -28.2108  -19.3114   19.9996 H   0  0  0  0  0  0
  -26.7599  -18.5013   19.6431 H   0  0  0  0  0  0
  -26.7880  -26.7499   23.8624 H   0  0  0  0  0  0
  -26.3588  -28.1670   23.1333 H   0  0  0  0  0  0
  -27.5077  -16.4716   21.1058 H   0  0  0  0  0  0
  1 25  1  0  0  0
  1 30  2  0  0  0
  1 85  1  0  0  0
  2  3  1  0  0  0
  2 25  1  0  0  0
  2 87  1  0  0  0
  2 88  1  0  0  0
  3  4  1  0  0  0
  3 89  1  0  0  0
  3 90  1  0  0  0
  4  5  1  0  0  0
  4 91  1  0  0  0
  4 92  1  0  0  0
  5  6  1  0  0  0
  5 26  1  0  0  0
  5 93  1  0  0  0
  6 25  1  0  0  0
  6 94  1  0  0  0
  6 95  1  0  0  0
  7  8  2  0  0  0
  7 26  1  0  0  0
  7 29  1  0  0  0
  8  9  1  0  0  0
  8 22  1  0  0  0
  9 10  1  0  0  0
  9 27  2  0  0  0
 10 11  2  0  0  0
 10 15  1  0  0  0
 11 12  1  0  0  0
 11 96  1  0  0  0
 12 13  2  0  0  0
 12 97  1  0  0  0
 13 14  1  0  0  0
 13 31  1  0  0  0
 14 15  2  0  0  0
 14 98  1  0  0  0
 15 99  1  0  0  0
 16 17  2  0  0  0
 16 21  1  0  0  0
 16 31  1  0  0  0
 17 18  1  0  0  0
 17100  1  0  0  0
 18 19  2  0  0  0
 18101  1  0  0  0
 19 20  1  0  0  0
 19 24  1  0  0  0
 20 21  2  0  0  0
 20102  1  0  0  0
 21 23  1  0  0  0
 22 28  1  0  0  0
 22 32  2  0  0  0
 26 27  1  0  0  0
 28103  1  0  0  0
 28104  1  0  0  0
 29105  1  0  0  0
 29106  1  0  0  0
 33 34  1  0  0  0
 33 66  1  0  0  0
 33 70  2  0  0  0
 34 36  1  0  0  0
 34 59  1  0  0  0
 34107  1  0  0  0
 35 44  2  0  0  0
 35 45  1  0  0  0
 35 68  1  0  0  0
 36 56  1  0  0  0
 36108  1  0  0  0
 37 39  1  0  0  0
 37 47  1  0  0  0
 37 66  1  0  0  0
 37109  1  0  0  0
 38 43  2  0  0  0
 38 46  1  0  0  0
 38 47  1  0  0  0
 39 64  1  0  0  0
 39 67  2  0  0  0
 40 52  1  0  0  0
 40 53  2  0  0  0
 40 58  1  0  0  0
 41110  1  0  0  0
 41111  1  0  0  0
 41112  1  0  0  0
 41 48  1  0  0  0
 42 43  1  0  0  0
 42 66  1  0  0  0
 42113  1  0  0  0
 42114  1  0  0  0
 43 44  1  0  0  0
 44115  1  0  0  0
 45 46  2  0  0  0
 45116  1  0  0  0
 46117  1  0  0  0
 47118  1  0  0  0
 47119  1  0  0  0
 48 56  1  0  0  0
 48 65  1  0  0  0
 48120  1  0  0  0
 49 50  1  0  0  0
 49 53  1  0  0  0
 49 64  1  0  0  0
 49121  1  0  0  0
 50 51  1  0  0  0
 50122  1  0  0  0
 50123  1  0  0  0
 51 52  1  0  0  0
 51124  1  0  0  0
 51125  1  0  0  0
 52126  1  0  0  0
 52127  1  0  0  0
 53 54  1  0  0  0
 54 55  2  0  0  0
 54128  1  0  0  0
 55 57  1  0  0  0
 55129  1  0  0  0
 56 69  2  0  0  0
 57 58  2  0  0  0
 57130  1  0  0  0
 58131  1  0  0  0
 59 60  1  0  0  0
 59 61  1  0  0  0
 59 62  1  0  0  0
 60132  1  0  0  0
 60133  1  0  0  0
 60134  1  0  0  0
 61135  1  0  0  0
 61136  1  0  0  0
 61137  1  0  0  0
 62138  1  0  0  0
 62139  1  0  0  0
 62140  1  0  0  0
 63 65  1  0  0  0
 63141  1  0  0  0
 63142  1  0  0  0
 63143  1  0  0  0
 64144  1  0  0  0
 65145  1  0  0  0
 68 84  1  0  0  0
 71 73  2  0  0  0
 71 74  1  0  0  0
 71146  1  0  0  0
 72 75  2  0  0  0
 72 76  1  0  0  0
 72147  1  0  0  0
 73 75  1  0  0  0
 73 79  1  0  0  0
 74 76  2  0  0  0
 74 80  1  0  0  0
 75 77  1  0  0  0
 76 86  1  0  0  0
 77148  1  0  0  0
 77149  1  0  0  0
 77150  1  0  0  0
 78 86  1  0  0  0
 78151  1  0  0  0
 78152  1  0  0  0
 78153  1  0  0  0
 79 81  1  0  0  0
 79154  1  0  0  0
 79155  1  0  0  0
 80 84  1  0  0  0
 80156  1  0  0  0
 80157  1  0  0  0
 81 82  1  0  0  0
 81158  1  0  0  0
 81159  1  0  0  0
 82 83  1  0  0  0
 82160  1  0  0  0
 82161  1  0  0  0
 83 85  1  0  0  0
 83162  1  0  0  0
 83163  1  0  0  0
 84164  1  0  0  0
 84165  1  0  0  0
 85166  1  0  0  0
M  ISO  4   1 100  68 101  84 101  85 100
M  END
> <chiral flag>
0

> <version>
0

> <s_m_source_file>
/data/baiqing/PycharmProjects/Reinvent-master-3.2/result/LINK_invent/BTK/process_docking_weight1_custom_sum_contain_oxygen_bond_distance_aromatic_linkinvent_7_9_3/rearranged_h_0035.sdf

> <i_m_source_file_index>
47

> <r_mmod_Potential_Energy-OPLS-2005>
16278.857421875

> <r_mmod_Stretch_Energy-OPLS-2005>
8256.212890625

> <r_mmod_Bend_Energy-OPLS-2005>
1633.97131347656

> <r_mmod_Torsional_Energy-OPLS-2005>
579.47900390625

> <r_mmod_Improper_Torsional_Energy-OPLS-2005>
76.3036422729492

> <r_mmod_Van_der_Waal_Energy-OPLS-2005>
2832.91870117188

> <r_mmod_Electrostatic_Energy-OPLS-2005>
-373.989532470703

> <r_mmod_Solvation_Energy-OPLS-2005>
-200.834274291992

> <b_mmod_Minimization_Converged-OPLS-2005>
0

> <r_mmod_RMS_Derivative-OPLS-2005>
4.56890439987183

$$$$
47
                    3D
 Structure written by MMmdl.
165173  0  0  1  0            999 V2000
  -30.8113  -14.2920   20.7639 C   0  0  0  0  0  0
  -30.4082  -12.2977   19.3644 C   0  0  0  0  0  0
  -29.4709  -12.5525   18.1739 C   0  0  0  0  0  0
  -27.9996  -12.3929   18.5967 C   0  0  0  0  0  0
  -27.6622  -13.2034   19.8743 C   0  0  2  0  0  0
  -28.6988  -12.9350   20.9843 C   0  0  0  0  0  0
  -25.2583  -13.8149   20.5663 C   0  0  0  0  0  0
  -24.1828  -13.0427   20.9149 C   0  0  0  0  0  0
  -24.6370  -11.6893   20.8692 C   0  0  0  0  0  0
  -23.9032  -10.4287   21.0376 C   0  0  0  0  0  0
  -24.3592   -9.4215   21.9163 C   0  0  0  0  0  0
  -23.6278   -8.2246   22.0749 C   0  0  0  0  0  0
  -22.4262   -8.0266   21.3542 C   0  0  0  0  0  0
  -21.9882   -9.0232   20.4645 C   0  0  0  0  0  0
  -22.7197  -10.2117   20.3041 C   0  0  0  0  0  0
  -21.6856   -6.0722   22.5281 C   0  0  0  0  0  0
  -21.4014   -6.5633   23.8208 C   0  0  0  0  0  0
  -21.3662   -5.6789   24.9176 C   0  0  0  0  0  0
  -21.6045   -4.3051   24.7230 C   0  0  0  0  0  0
  -21.8818   -3.8136   23.4356 C   0  0  0  0  0  0
  -21.9192   -4.6950   22.3406 C   0  0  0  0  0  0
  -22.7856  -13.5235   21.1838 C   0  0  0  0  0  0
  -22.1663   -4.2132   21.0985 F   0  0  0  0  0  0
  -21.5630   -3.4537   25.7745 F   0  0  0  0  0  0
  -30.0459  -13.2169   20.4521 N   0  0  0  0  0  0
  -26.3016  -12.9316   20.3338 N   0  0  0  0  0  0
  -25.9290  -11.6474   20.5710 N   0  0  0  0  0  0
  -22.0498  -12.8229   22.0401 N   0  0  0  0  0  0
  -25.4311  -15.1868   20.4095 N   0  0  0  0  0  0
  -31.7759  -14.6634   20.0867 O   0  0  0  0  0  0
  -21.6640   -6.8860   21.4239 O   0  0  0  0  0  0
  -22.3542  -14.5547   20.6696 O   0  0  0  0  0  0
  -24.6098  -31.8705   23.2141 C   0  0  0  0  0  0
  -25.8999  -32.4845   23.8419 C   0  0  1  0  0  0
  -27.2349  -27.4628   20.0889 C   0  0  0  0  0  0
  -25.5875  -33.8644   24.2346 N   0  0  0  0  0  0
  -23.3963  -30.4954   21.5524 C   0  0  2  0  0  0
  -24.8401  -28.9632   20.1204 C   0  0  0  0  0  0
  -22.7388  -29.4659   22.5001 C   0  0  0  0  0  0
  -18.0270  -28.1374   22.8506 C   0  0  0  0  0  0
  -24.1483  -36.7327   23.2641 C   0  0  0  0  0  0
  -25.9213  -30.8447   21.3616 C   0  0  0  0  0  0
  -25.9960  -29.4791   20.7143 C   0  0  0  0  0  0
  -27.1928  -28.7356   20.6971 C   0  0  0  0  0  0
  -26.0549  -26.9502   19.4992 C   0  0  0  0  0  0
  -24.8613  -27.6965   19.5137 C   0  0  0  0  0  0
  -23.6038  -29.8299   20.1661 C   0  0  0  0  0  0
  -25.4109  -36.3139   24.0339 C   0  0  1  0  0  0
  -20.5863  -28.3649   23.1345 C   0  0  2  0  0  0
  -20.6775  -26.9396   22.5424 C   0  0  0  0  0  0
  -19.5747  -26.6388   21.5226 C   0  0  0  0  0  0
  -18.1922  -26.7925   22.1630 C   0  0  0  0  0  0
  -19.1521  -28.8828   23.2927 C   0  0  0  0  0  0
  -18.9448  -30.1443   23.8925 C   0  0  0  0  0  0
  -17.6453  -30.6589   24.0572 C   0  0  0  0  0  0
  -25.9025  -34.9497   23.5143 C   0  0  0  0  0  0
  -16.5346  -29.9093   23.6322 C   0  0  0  0  0  0
  -16.7261  -28.6508   23.0349 C   0  0  0  0  0  0
  -26.4440  -31.6616   25.0730 C   0  0  0  0  0  0
  -25.3715  -31.3715   26.1490 C   0  0  0  0  0  0
  -27.0247  -30.3070   24.6051 C   0  0  0  0  0  0
  -27.6029  -32.4321   25.7493 C   0  0  0  0  0  0
  -27.5584  -37.1833   24.8472 C   0  0  0  0  0  0
  -21.4126  -29.3031   22.3751 N   0  0  0  0  0  0
  -26.4300  -37.3821   23.9406 N   0  0  0  0  0  0
  -24.6605  -31.0836   22.1020 N   0  0  0  0  0  0
  -23.4190  -28.8201   23.3021 O   0  0  0  0  0  0
  -28.4489  -26.8118   20.0706 O   0  0  0  0  0  0
  -26.5608  -34.8944   22.4718 O   0  0  0  0  0  0
  -23.5298  -32.1431   23.7560 O   0  0  0  0  0  0
  -28.3853  -23.1970   23.6785 C   0  0  0  0  0  0
  -27.4784  -24.9397   22.2274 C   0  0  0  0  0  0
  -29.3821  -23.6110   21.4931 C   0  0  0  0  0  0
  -27.4482  -24.2250   23.4435 C   0  0  0  0  0  0
  -29.3578  -22.8921   22.7045 C   0  0  0  0  0  0
  -28.4513  -24.6419   21.2474 C   0  0  0  0  0  0
  -26.4125  -24.5671   24.4972 C   0  0  0  0  0  0
  -30.3936  -21.8110   22.9536 C   0  0  0  0  0  0
  -28.5170  -25.3945   19.9250 C   0  0  0  0  0  0
  -29.8736  -20.3949   22.6560 C   0  0  0  0  0  0
  -31.0248  -19.3784   22.6069 C   0  0  0  0  0  0
  -30.5764  -17.9083   22.5442 C   0  0  0  0  0  0
  -31.7842  -16.9615   22.4277 C   0  0  0  0  0  0
  -31.5062  -15.5043   22.8357 C   0  0  0  0  0  0
  -30.5590  -14.7939   21.9799 N   0  0  0  0  0  0
  -31.4492  -12.4077   19.0549 H   0  0  0  0  0  0
  -30.3098  -11.2668   19.7076 H   0  0  0  0  0  0
  -29.7016  -11.8707   17.3542 H   0  0  0  0  0  0
  -29.6347  -13.5600   17.7882 H   0  0  0  0  0  0
  -27.8101  -11.3324   18.7659 H   0  0  0  0  0  0
  -27.3407  -12.6917   17.7801 H   0  0  0  0  0  0
  -27.7230  -14.2599   19.6115 H   0  0  0  0  0  0
  -28.6553  -11.8907   21.2967 H   0  0  0  0  0  0
  -28.4386  -13.5162   21.8685 H   0  0  0  0  0  0
  -25.2736   -9.5706   22.4733 H   0  0  0  0  0  0
  -23.9992   -7.4646   22.7478 H   0  0  0  0  0  0
  -21.0810   -8.8727   19.8963 H   0  0  0  0  0  0
  -22.3628  -10.9642   19.6148 H   0  0  0  0  0  0
  -21.2006   -7.6140   23.9706 H   0  0  0  0  0  0
  -21.1487   -6.0525   25.9079 H   0  0  0  0  0  0
  -22.0595   -2.7595   23.2861 H   0  0  0  0  0  0
  -22.4113  -11.9885   22.4775 H   0  0  0  0  0  0
  -21.1122  -13.1264   22.2616 H   0  0  0  0  0  0
  -24.6679  -15.8451   20.5247 H   0  0  0  0  0  0
  -26.2941  -15.6267   20.1144 H   0  0  0  0  0  0
  -26.7063  -32.5559   23.1183 H   0  0  0  0  0  0
  -25.0043  -33.9830   25.0502 H   0  0  0  0  0  0
  -22.6831  -31.3104   21.4138 H   0  0  0  0  0  0
  -23.3751  -35.9657   23.3331 H   0  0  0  0  0  0
  -24.3576  -36.8916   22.2053 H   0  0  0  0  0  0
  -23.7231  -37.6538   23.6629 H   0  0  0  0  0  0
  -26.0273  -31.6082   20.5898 H   0  0  0  0  0  0
  -26.8120  -30.9027   21.9744 H   0  0  0  0  0  0
  -28.0886  -29.1348   21.1513 H   0  0  0  0  0  0
  -26.0292  -25.9937   19.0022 H   0  0  0  0  0  0
  -23.9708  -27.2978   19.0478 H   0  0  0  0  0  0
  -23.7162  -30.6035   19.4048 H   0  0  0  0  0  0
  -22.7288  -29.2510   19.8671 H   0  0  0  0  0  0
  -25.1290  -36.2017   25.0832 H   0  0  0  0  0  0
  -20.9949  -28.3194   24.1468 H   0  0  0  0  0  0
  -20.5696  -26.2249   23.3593 H   0  0  0  0  0  0
  -21.6644  -26.7465   22.1202 H   0  0  0  0  0  0
  -19.6908  -25.6307   21.1235 H   0  0  0  0  0  0
  -19.6682  -27.3216   20.6769 H   0  0  0  0  0  0
  -17.4200  -26.6683   21.4024 H   0  0  0  0  0  0
  -18.0317  -26.0050   22.9007 H   0  0  0  0  0  0
  -19.7920  -30.7259   24.2290 H   0  0  0  0  0  0
  -17.5009  -31.6269   24.5177 H   0  0  0  0  0  0
  -15.5349  -30.3021   23.7622 H   0  0  0  0  0  0
  -15.8657  -28.0845   22.7053 H   0  0  0  0  0  0
  -24.5901  -30.7031   25.7850 H   0  0  0  0  0  0
  -24.8885  -32.2863   26.4927 H   0  0  0  0  0  0
  -25.8089  -30.8911   27.0252 H   0  0  0  0  0  0
  -26.2766  -29.6882   24.1075 H   0  0  0  0  0  0
  -27.4020  -29.7247   25.4467 H   0  0  0  0  0  0
  -27.8599  -30.4425   23.9178 H   0  0  0  0  0  0
  -27.2664  -33.3633   26.2066 H   0  0  0  0  0  0
  -28.3848  -32.6859   25.0320 H   0  0  0  0  0  0
  -28.0667  -31.8427   26.5413 H   0  0  0  0  0  0
  -28.2634  -38.0105   24.7527 H   0  0  0  0  0  0
  -28.1050  -36.2645   24.6293 H   0  0  0  0  0  0
  -27.2303  -37.1500   25.8877 H   0  0  0  0  0  0
  -20.9254  -29.8754   21.6994 H   0  0  0  0  0  0
  -26.0193  -38.2901   24.1399 H   0  0  0  0  0  0
  -28.3626  -22.6440   24.6091 H   0  0  0  0  0  0
  -26.7544  -25.7234   22.0550 H   0  0  0  0  0  0
  -30.1283  -23.3762   20.7456 H   0  0  0  0  0  0
  -26.7340  -24.2503   25.4899 H   0  0  0  0  0  0
  -25.4661  -24.0746   24.2741 H   0  0  0  0  0  0
  -26.2368  -25.6426   24.5331 H   0  0  0  0  0  0
  -30.7382  -21.8719   23.9869 H   0  0  0  0  0  0
  -31.2693  -22.0205   22.3366 H   0  0  0  0  0  0
  -27.8072  -24.9772   19.2153 H   0  0  0  0  0  0
  -29.4925  -25.2009   19.4773 H   0  0  0  0  0  0
  -29.3543  -20.3867   21.6969 H   0  0  0  0  0  0
  -29.1380  -20.1087   23.4094 H   0  0  0  0  0  0
  -31.6519  -19.5150   23.4898 H   0  0  0  0  0  0
  -31.6582  -19.6018   21.7472 H   0  0  0  0  0  0
  -29.9014  -17.7476   21.7024 H   0  0  0  0  0  0
  -30.0080  -17.6747   23.4457 H   0  0  0  0  0  0
  -32.5813  -17.3250   23.0778 H   0  0  0  0  0  0
  -32.1943  -17.0022   21.4181 H   0  0  0  0  0  0
  -31.1198  -15.4816   23.8559 H   0  0  0  0  0  0
  -32.4441  -14.9455   22.8630 H   0  0  0  0  0  0
  -29.7525  -14.4005   22.4431 H   0  0  0  0  0  0
  1 25  1  0  0  0
  1 30  2  0  0  0
  1 85  1  0  0  0
  2  3  1  0  0  0
  2 25  1  0  0  0
  2 86  1  0  0  0
  2 87  1  0  0  0
  3  4  1  0  0  0
  3 88  1  0  0  0
  3 89  1  0  0  0
  4  5  1  0  0  0
  4 90  1  0  0  0
  4 91  1  0  0  0
  5  6  1  0  0  0
  5 26  1  0  0  0
  5 92  1  0  0  0
  6 25  1  0  0  0
  6 93  1  0  0  0
  6 94  1  0  0  0
  7  8  2  0  0  0
  7 26  1  0  0  0
  7 29  1  0  0  0
  8  9  1  0  0  0
  8 22  1  0  0  0
  9 10  1  0  0  0
  9 27  2  0  0  0
 10 11  2  0  0  0
 10 15  1  0  0  0
 11 12  1  0  0  0
 11 95  1  0  0  0
 12 13  2  0  0  0
 12 96  1  0  0  0
 13 14  1  0  0  0
 13 31  1  0  0  0
 14 15  2  0  0  0
 14 97  1  0  0  0
 15 98  1  0  0  0
 16 17  2  0  0  0
 16 21  1  0  0  0
 16 31  1  0  0  0
 17 18  1  0  0  0
 17 99  1  0  0  0
 18 19  2  0  0  0
 18100  1  0  0  0
 19 20  1  0  0  0
 19 24  1  0  0  0
 20 21  2  0  0  0
 20101  1  0  0  0
 21 23  1  0  0  0
 22 28  1  0  0  0
 22 32  2  0  0  0
 26 27  1  0  0  0
 28102  1  0  0  0
 28103  1  0  0  0
 29104  1  0  0  0
 29105  1  0  0  0
 33 34  1  0  0  0
 33 66  1  0  0  0
 33 70  2  0  0  0
 34 36  1  0  0  0
 34 59  1  0  0  0
 34106  1  0  0  0
 35 44  2  0  0  0
 35 45  1  0  0  0
 35 68  1  0  0  0
 36 56  1  0  0  0
 36107  1  0  0  0
 37 39  1  0  0  0
 37 47  1  0  0  0
 37 66  1  0  0  0
 37108  1  0  0  0
 38 43  2  0  0  0
 38 46  1  0  0  0
 38 47  1  0  0  0
 39 64  1  0  0  0
 39 67  2  0  0  0
 40 52  1  0  0  0
 40 53  2  0  0  0
 40 58  1  0  0  0
 41109  1  0  0  0
 41110  1  0  0  0
 41111  1  0  0  0
 41 48  1  0  0  0
 42 43  1  0  0  0
 42 66  1  0  0  0
 42112  1  0  0  0
 42113  1  0  0  0
 43 44  1  0  0  0
 44114  1  0  0  0
 45 46  2  0  0  0
 45115  1  0  0  0
 46116  1  0  0  0
 47117  1  0  0  0
 47118  1  0  0  0
 48 56  1  0  0  0
 48 65  1  0  0  0
 48119  1  0  0  0
 49 50  1  0  0  0
 49 53  1  0  0  0
 49 64  1  0  0  0
 49120  1  0  0  0
 50 51  1  0  0  0
 50121  1  0  0  0
 50122  1  0  0  0
 51 52  1  0  0  0
 51123  1  0  0  0
 51124  1  0  0  0
 52125  1  0  0  0
 52126  1  0  0  0
 53 54  1  0  0  0
 54 55  2  0  0  0
 54127  1  0  0  0
 55 57  1  0  0  0
 55128  1  0  0  0
 56 69  2  0  0  0
 57 58  2  0  0  0
 57129  1  0  0  0
 58130  1  0  0  0
 59 60  1  0  0  0
 59 61  1  0  0  0
 59 62  1  0  0  0
 60131  1  0  0  0
 60132  1  0  0  0
 60133  1  0  0  0
 61134  1  0  0  0
 61135  1  0  0  0
 61136  1  0  0  0
 62137  1  0  0  0
 62138  1  0  0  0
 62139  1  0  0  0
 63 65  1  0  0  0
 63140  1  0  0  0
 63141  1  0  0  0
 63142  1  0  0  0
 64143  1  0  0  0
 65144  1  0  0  0
 68 79  1  0  0  0
 71 74  2  0  0  0
 71 75  1  0  0  0
 71145  1  0  0  0
 72 74  1  0  0  0
 72 76  2  0  0  0
 72146  1  0  0  0
 73 75  2  0  0  0
 73 76  1  0  0  0
 73147  1  0  0  0
 74 77  1  0  0  0
 75 78  1  0  0  0
 76 79  1  0  0  0
 77148  1  0  0  0
 77149  1  0  0  0
 77150  1  0  0  0
 78 80  1  0  0  0
 78151  1  0  0  0
 78152  1  0  0  0
 79153  1  0  0  0
 79154  1  0  0  0
 80 81  1  0  0  0
 80155  1  0  0  0
 80156  1  0  0  0
 81 82  1  0  0  0
 81157  1  0  0  0
 81158  1  0  0  0
 82 83  1  0  0  0
 82159  1  0  0  0
 82160  1  0  0  0
 83 84  1  0  0  0
 83161  1  0  0  0
 83162  1  0  0  0
 84 85  1  0  0  0
 84163  1  0  0  0
 84164  1  0  0  0
 85165  1  0  0  0
M  ISO  4   1 100  68 101  79 101  85 100
M  END
> <chiral flag>
0

> <version>
0

> <s_m_source_file>
/data/baiqing/PycharmProjects/Reinvent-master-3.2/result/LINK_invent/BTK/process_docking_weight1_custom_sum_contain_oxygen_bond_distance_aromatic_linkinvent_7_9_3/rearranged_h_0035.sdf

> <i_m_source_file_index>
48

> <r_mmod_Potential_Energy-OPLS-2005>
-56.1055374145508

> <r_mmod_Stretch_Energy-OPLS-2005>
31.0556507110596

> <r_mmod_Bend_Energy-OPLS-2005>
97.6243286132812

> <r_mmod_Torsional_Energy-OPLS-2005>
210.489349365234

> <r_mmod_Improper_Torsional_Energy-OPLS-2005>
4.82160377502441

> <r_mmod_Van_der_Waal_Energy-OPLS-2005>
148.940948486328

> <r_mmod_Electrostatic_Energy-OPLS-2005>
-362.300262451172

> <r_mmod_Solvation_Energy-OPLS-2005>
-196.292907714844

> <b_mmod_Minimization_Converged-OPLS-2005>
0

> <r_mmod_RMS_Derivative-OPLS-2005>
1.79678332805634

$$$$
48
                    3D
 Structure written by MMmdl.
163171  0  0  1  0            999 V2000
  -30.7503  -14.3801   20.6608 C   0  0  0  0  0  0
  -30.4136  -12.2924   19.3958 C   0  0  0  0  0  0
  -29.4827  -12.5270   18.1896 C   0  0  0  0  0  0
  -28.0072  -12.3838   18.6011 C   0  0  0  0  0  0
  -27.6624  -13.2028   19.8756 C   0  0  2  0  0  0
  -28.7002  -12.9420   20.9915 C   0  0  0  0  0  0
  -25.2572  -13.8186   20.5633 C   0  0  0  0  0  0
  -24.1830  -13.0464   20.9134 C   0  0  0  0  0  0
  -24.6388  -11.6931   20.8737 C   0  0  0  0  0  0
  -23.9076  -10.4323   21.0410 C   0  0  0  0  0  0
  -24.3653   -9.4241   21.9174 C   0  0  0  0  0  0
  -23.6334   -8.2268   22.0740 C   0  0  0  0  0  0
  -22.4329   -8.0299   21.3532 C   0  0  0  0  0  0
  -21.9962   -9.0256   20.4628 C   0  0  0  0  0  0
  -22.7256  -10.2149   20.3055 C   0  0  0  0  0  0
  -21.6857   -6.0779   22.5284 C   0  0  0  0  0  0
  -21.4005   -6.5666   23.8229 C   0  0  0  0  0  0
  -21.3643   -5.6801   24.9166 C   0  0  0  0  0  0
  -21.6029   -4.3069   24.7203 C   0  0  0  0  0  0
  -21.8817   -3.8175   23.4323 C   0  0  0  0  0  0
  -21.9200   -4.7007   22.3404 C   0  0  0  0  0  0
  -22.7849  -13.5223   21.1801 C   0  0  0  0  0  0
  -22.1655   -4.2208   21.0974 F   0  0  0  0  0  0
  -21.5627   -3.4533   25.7699 F   0  0  0  0  0  0
  -30.0408  -13.2405   20.4530 N   0  0  0  0  0  0
  -26.3019  -12.9341   20.3350 N   0  0  0  0  0  0
  -25.9305  -11.6507   20.5738 N   0  0  0  0  0  0
  -22.0505  -12.8240   22.0370 N   0  0  0  0  0  0
  -25.4294  -15.1903   20.4006 N   0  0  0  0  0  0
  -31.8003  -14.6439   20.0656 O   0  0  0  0  0  0
  -21.6657   -6.8912   21.4247 O   0  0  0  0  0  0
  -22.3517  -14.5513   20.6641 O   0  0  0  0  0  0
  -24.6101  -31.8697   23.2111 C   0  0  0  0  0  0
  -25.9011  -32.4835   23.8401 C   0  0  1  0  0  0
  -27.2475  -27.4675   20.0874 C   0  0  0  0  0  0
  -25.5885  -33.8632   24.2331 N   0  0  0  0  0  0
  -23.3982  -30.4895   21.5501 C   0  0  2  0  0  0
  -24.8501  -28.9573   20.1147 C   0  0  0  0  0  0
  -22.7402  -29.4643   22.4997 C   0  0  0  0  0  0
  -18.0271  -28.1371   22.8495 C   0  0  0  0  0  0
  -24.1484  -36.7317   23.2638 C   0  0  0  0  0  0
  -25.9229  -30.8414   21.3637 C   0  0  0  0  0  0
  -26.0036  -29.4753   20.7168 C   0  0  0  0  0  0
  -27.2013  -28.7287   20.7163 C   0  0  0  0  0  0
  -26.0806  -26.9520   19.4853 C   0  0  0  0  0  0
  -24.8810  -27.6916   19.4998 C   0  0  0  0  0  0
  -23.6076  -29.8192   20.1648 C   0  0  0  0  0  0
  -25.4109  -36.3113   24.0336 C   0  0  1  0  0  0
  -20.5857  -28.3654   23.1342 C   0  0  2  0  0  0
  -20.6759  -26.9395   22.5434 C   0  0  0  0  0  0
  -19.5736  -26.6380   21.5229 C   0  0  0  0  0  0
  -18.1911  -26.7916   22.1627 C   0  0  0  0  0  0
  -19.1518  -28.8833   23.2910 C   0  0  0  0  0  0
  -18.9442  -30.1441   23.8921 C   0  0  0  0  0  0
  -17.6446  -30.6585   24.0568 C   0  0  0  0  0  0
  -25.9035  -34.9480   23.5131 C   0  0  0  0  0  0
  -16.5338  -29.9091   23.6322 C   0  0  0  0  0  0
  -16.7262  -28.6503   23.0347 C   0  0  0  0  0  0
  -26.4467  -31.6604   25.0713 C   0  0  0  0  0  0
  -25.3755  -31.3702   26.1478 C   0  0  0  0  0  0
  -27.0290  -30.3048   24.6059 C   0  0  0  0  0  0
  -27.6042  -32.4330   25.7471 C   0  0  0  0  0  0
  -27.5575  -37.1817   24.8470 C   0  0  0  0  0  0
  -21.4127  -29.3020   22.3760 N   0  0  0  0  0  0
  -26.4301  -37.3793   23.9393 N   0  0  0  0  0  0
  -24.6611  -31.0811   22.1004 N   0  0  0  0  0  0
  -23.4178  -28.8200   23.3049 O   0  0  0  0  0  0
  -28.4138  -26.7437   20.1011 O   0  0  0  0  0  0
  -26.5597  -34.8923   22.4690 O   0  0  0  0  0  0
  -23.5308  -32.1437   23.7535 O   0  0  0  0  0  0
  -30.6494  -22.2880   18.1228 C   0  0  0  0  0  0
  -30.7191  -21.6602   19.3767 C   0  0  0  0  0  0
  -30.5927  -22.5014   20.4996 C   0  0  0  0  0  0
  -30.4213  -24.3337   19.1236 C   0  0  0  0  0  0
  -30.6247  -21.9814   21.9256 C   0  0  0  0  0  0
  -30.9805  -20.1599   19.4807 C   0  0  0  0  0  0
  -30.3824  -25.8511   18.9642 C   0  0  0  0  0  0
  -29.7036  -19.2988   19.5002 C   0  0  0  0  0  0
  -29.9802  -17.8524   19.9579 C   0  0  0  0  0  0
  -30.0415  -17.7183   21.4917 C   0  0  0  0  0  0
  -30.8085  -16.4842   22.0014 C   0  0  0  0  0  0
  -28.9777  -26.4691   18.8210 C   0  0  0  0  0  0
  -30.4965  -23.6196   18.0041 N   0  0  0  0  0  0
  -30.4444  -23.8338   20.3573 N   0  0  0  0  0  0
  -30.2241  -15.2184   21.5625 N   0  0  0  0  0  0
  -31.4560  -12.3985   19.0942 H   0  0  0  0  0  0
  -30.3170  -11.2709   19.7699 H   0  0  0  0  0  0
  -29.7118  -11.8231   17.3889 H   0  0  0  0  0  0
  -29.6484  -13.5227   17.7768 H   0  0  0  0  0  0
  -27.8177  -11.3235   18.7754 H   0  0  0  0  0  0
  -27.3592  -12.6725   17.7726 H   0  0  0  0  0  0
  -27.7213  -14.2556   19.6019 H   0  0  0  0  0  0
  -28.6622  -11.8970   21.3029 H   0  0  0  0  0  0
  -28.4500  -13.5115   21.8873 H   0  0  0  0  0  0
  -25.2792   -9.5756   22.4736 H   0  0  0  0  0  0
  -24.0058   -7.4654   22.7453 H   0  0  0  0  0  0
  -21.0894   -8.8768   19.8931 H   0  0  0  0  0  0
  -22.3702  -10.9686   19.6186 H   0  0  0  0  0  0
  -21.2011   -7.6169   23.9753 H   0  0  0  0  0  0
  -21.1442   -6.0520   25.9074 H   0  0  0  0  0  0
  -22.0633   -2.7647   23.2783 H   0  0  0  0  0  0
  -22.4163  -11.9915   22.4769 H   0  0  0  0  0  0
  -21.1130  -13.1292   22.2575 H   0  0  0  0  0  0
  -24.6650  -15.8539   20.4828 H   0  0  0  0  0  0
  -26.2884  -15.6164   20.0746 H   0  0  0  0  0  0
  -26.7091  -32.5564   23.1185 H   0  0  0  0  0  0
  -25.0043  -33.9808   25.0477 H   0  0  0  0  0  0
  -22.6838  -31.3040   21.4125 H   0  0  0  0  0  0
  -23.3727  -35.9671   23.3348 H   0  0  0  0  0  0
  -24.3573  -36.8883   22.2042 H   0  0  0  0  0  0
  -23.7273  -37.6550   23.6629 H   0  0  0  0  0  0
  -26.0299  -31.6060   20.5925 H   0  0  0  0  0  0
  -26.8124  -30.9009   21.9783 H   0  0  0  0  0  0
  -28.0906  -29.1197   21.1898 H   0  0  0  0  0  0
  -26.0941  -25.9769   19.0201 H   0  0  0  0  0  0
  -23.9924  -27.2834   19.0379 H   0  0  0  0  0  0
  -23.7108  -30.5938   19.4043 H   0  0  0  0  0  0
  -22.7335  -29.2355   19.8716 H   0  0  0  0  0  0
  -25.1291  -36.1980   25.0835 H   0  0  0  0  0  0
  -20.9942  -28.3207   24.1459 H   0  0  0  0  0  0
  -20.5672  -26.2252   23.3604 H   0  0  0  0  0  0
  -21.6624  -26.7446   22.1213 H   0  0  0  0  0  0
  -19.6894  -25.6298   21.1230 H   0  0  0  0  0  0
  -19.6672  -27.3213   20.6771 H   0  0  0  0  0  0
  -17.4182  -26.6680   21.4025 H   0  0  0  0  0  0
  -18.0302  -26.0065   22.9024 H   0  0  0  0  0  0
  -19.7926  -30.7252   24.2287 H   0  0  0  0  0  0
  -17.5009  -31.6264   24.5164 H   0  0  0  0  0  0
  -15.5342  -30.3000   23.7637 H   0  0  0  0  0  0
  -15.8653  -28.0836   22.7044 H   0  0  0  0  0  0
  -24.5903  -30.7083   25.7811 H   0  0  0  0  0  0
  -24.8988  -32.2867   26.4966 H   0  0  0  0  0  0
  -25.8128  -30.8830   27.0203 H   0  0  0  0  0  0
  -26.2809  -29.6813   24.1144 H   0  0  0  0  0  0
  -27.4108  -29.7279   25.4493 H   0  0  0  0  0  0
  -27.8629  -30.4368   23.9159 H   0  0  0  0  0  0
  -27.2643  -33.3610   26.2086 H   0  0  0  0  0  0
  -28.3826  -32.6934   25.0284 H   0  0  0  0  0  0
  -28.0742  -31.8440   26.5358 H   0  0  0  0  0  0
  -28.2625  -38.0080   24.7479 H   0  0  0  0  0  0
  -28.1038  -36.2615   24.6348 H   0  0  0  0  0  0
  -27.2290  -37.1535   25.8876 H   0  0  0  0  0  0
  -20.9284  -29.8736   21.6981 H   0  0  0  0  0  0
  -26.0185  -38.2873   24.1381 H   0  0  0  0  0  0
  -30.7461  -21.7299   17.2037 H   0  0  0  0  0  0
  -29.6999  -21.4522   22.1553 H   0  0  0  0  0  0
  -30.7331  -22.7949   22.6451 H   0  0  0  0  0  0
  -31.4607  -21.3047   22.0939 H   0  0  0  0  0  0
  -31.5939  -19.9600   20.3579 H   0  0  0  0  0  0
  -31.6019  -19.8562   18.6368 H   0  0  0  0  0  0
  -30.9674  -26.1055   18.0795 H   0  0  0  0  0  0
  -30.9067  -26.3185   19.7976 H   0  0  0  0  0  0
  -29.2635  -19.2855   18.5017 H   0  0  0  0  0  0
  -28.9540  -19.7407   20.1581 H   0  0  0  0  0  0
  -29.1978  -17.1925   19.5825 H   0  0  0  0  0  0
  -30.9088  -17.5020   19.5033 H   0  0  0  0  0  0
  -29.0300  -17.7252   21.8997 H   0  0  0  0  0  0
  -30.5307  -18.5965   21.9127 H   0  0  0  0  0  0
  -30.8047  -16.4900   23.0902 H   0  0  0  0  0  0
  -31.8586  -16.5578   21.7096 H   0  0  0  0  0  0
  -28.3338  -25.8371   18.2068 H   0  0  0  0  0  0
  -29.0800  -27.4218   18.2982 H   0  0  0  0  0  0
  -29.3709  -14.9196   22.0125 H   0  0  0  0  0  0
  1 25  1  0  0  0
  1 30  2  0  0  0
  1 85  1  0  0  0
  2  3  1  0  0  0
  2 25  1  0  0  0
  2 86  1  0  0  0
  2 87  1  0  0  0
  3  4  1  0  0  0
  3 88  1  0  0  0
  3 89  1  0  0  0
  4  5  1  0  0  0
  4 90  1  0  0  0
  4 91  1  0  0  0
  5  6  1  0  0  0
  5 26  1  0  0  0
  5 92  1  0  0  0
  6 25  1  0  0  0
  6 93  1  0  0  0
  6 94  1  0  0  0
  7  8  2  0  0  0
  7 26  1  0  0  0
  7 29  1  0  0  0
  8  9  1  0  0  0
  8 22  1  0  0  0
  9 10  1  0  0  0
  9 27  2  0  0  0
 10 11  2  0  0  0
 10 15  1  0  0  0
 11 12  1  0  0  0
 11 95  1  0  0  0
 12 13  2  0  0  0
 12 96  1  0  0  0
 13 14  1  0  0  0
 13 31  1  0  0  0
 14 15  2  0  0  0
 14 97  1  0  0  0
 15 98  1  0  0  0
 16 17  2  0  0  0
 16 21  1  0  0  0
 16 31  1  0  0  0
 17 18  1  0  0  0
 17 99  1  0  0  0
 18 19  2  0  0  0
 18100  1  0  0  0
 19 20  1  0  0  0
 19 24  1  0  0  0
 20 21  2  0  0  0
 20101  1  0  0  0
 21 23  1  0  0  0
 22 28  1  0  0  0
 22 32  2  0  0  0
 26 27  1  0  0  0
 28102  1  0  0  0
 28103  1  0  0  0
 29104  1  0  0  0
 29105  1  0  0  0
 33 34  1  0  0  0
 33 66  1  0  0  0
 33 70  2  0  0  0
 34 36  1  0  0  0
 34 59  1  0  0  0
 34106  1  0  0  0
 35 44  2  0  0  0
 35 45  1  0  0  0
 35 68  1  0  0  0
 36 56  1  0  0  0
 36107  1  0  0  0
 37 39  1  0  0  0
 37 47  1  0  0  0
 37 66  1  0  0  0
 37108  1  0  0  0
 38 43  2  0  0  0
 38 46  1  0  0  0
 38 47  1  0  0  0
 39 64  1  0  0  0
 39 67  2  0  0  0
 40 52  1  0  0  0
 40 53  2  0  0  0
 40 58  1  0  0  0
 41109  1  0  0  0
 41110  1  0  0  0
 41111  1  0  0  0
 41 48  1  0  0  0
 42 43  1  0  0  0
 42 66  1  0  0  0
 42112  1  0  0  0
 42113  1  0  0  0
 43 44  1  0  0  0
 44114  1  0  0  0
 45 46  2  0  0  0
 45115  1  0  0  0
 46116  1  0  0  0
 47117  1  0  0  0
 47118  1  0  0  0
 48 56  1  0  0  0
 48 65  1  0  0  0
 48119  1  0  0  0
 49 50  1  0  0  0
 49 53  1  0  0  0
 49 64  1  0  0  0
 49120  1  0  0  0
 50 51  1  0  0  0
 50121  1  0  0  0
 50122  1  0  0  0
 51 52  1  0  0  0
 51123  1  0  0  0
 51124  1  0  0  0
 52125  1  0  0  0
 52126  1  0  0  0
 53 54  1  0  0  0
 54 55  2  0  0  0
 54127  1  0  0  0
 55 57  1  0  0  0
 55128  1  0  0  0
 56 69  2  0  0  0
 57 58  2  0  0  0
 57129  1  0  0  0
 58130  1  0  0  0
 59 60  1  0  0  0
 59 61  1  0  0  0
 59 62  1  0  0  0
 60131  1  0  0  0
 60132  1  0  0  0
 60133  1  0  0  0
 61134  1  0  0  0
 61135  1  0  0  0
 61136  1  0  0  0
 62137  1  0  0  0
 62138  1  0  0  0
 62139  1  0  0  0
 63 65  1  0  0  0
 63140  1  0  0  0
 63141  1  0  0  0
 63142  1  0  0  0
 64143  1  0  0  0
 65144  1  0  0  0
 68 82  1  0  0  0
 71 72  2  0  0  0
 71 83  1  0  0  0
 71145  1  0  0  0
 72 73  1  0  0  0
 72 76  1  0  0  0
 73 75  1  0  0  0
 73 84  2  0  0  0
 74 77  1  0  0  0
 74 83  2  0  0  0
 74 84  1  0  0  0
 75146  1  0  0  0
 75147  1  0  0  0
 75148  1  0  0  0
 76 78  1  0  0  0
 76149  1  0  0  0
 76150  1  0  0  0
 77 82  1  0  0  0
 77151  1  0  0  0
 77152  1  0  0  0
 78 79  1  0  0  0
 78153  1  0  0  0
 78154  1  0  0  0
 79 80  1  0  0  0
 79155  1  0  0  0
 79156  1  0  0  0
 80 81  1  0  0  0
 80157  1  0  0  0
 80158  1  0  0  0
 81 85  1  0  0  0
 81159  1  0  0  0
 81160  1  0  0  0
 82161  1  0  0  0
 82162  1  0  0  0
 85163  1  0  0  0
M  ISO  4   1 100  68 101  82 101  85 100
M  END
> <chiral flag>
0

> <version>
0

> <s_m_source_file>
/data/baiqing/PycharmProjects/Reinvent-master-3.2/result/LINK_invent/BTK/process_docking_weight1_custom_sum_contain_oxygen_bond_distance_aromatic_linkinvent_7_9_3/rearranged_h_0035.sdf

> <i_m_source_file_index>
49

> <r_mmod_Potential_Energy-OPLS-2005>
-466.380401611328

> <r_mmod_Stretch_Energy-OPLS-2005>
31.3053340911865

> <r_mmod_Bend_Energy-OPLS-2005>
93.2431640625

> <r_mmod_Torsional_Energy-OPLS-2005>
214.314437866211

> <r_mmod_Improper_Torsional_Energy-OPLS-2005>
2.05264902114868

> <r_mmod_Van_der_Waal_Energy-OPLS-2005>
155.316177368164

> <r_mmod_Electrostatic_Energy-OPLS-2005>
-736.903869628906

> <r_mmod_Solvation_Energy-OPLS-2005>
-232.840362548828

> <b_mmod_Minimization_Converged-OPLS-2005>
0

> <r_mmod_RMS_Derivative-OPLS-2005>
3.26952219009399

$$$$
49
                    3D
 Structure written by MMmdl.
159167  0  0  1  0            999 V2000
  -30.7121  -14.4812   20.5537 C   0  0  0  0  0  0
  -30.4259  -12.2955   19.4492 C   0  0  0  0  0  0
  -29.5080  -12.4564   18.2191 C   0  0  0  0  0  0
  -28.0273  -12.3298   18.6317 C   0  0  0  0  0  0
  -27.6618  -13.2030   19.8612 C   0  0  2  0  0  0
  -28.6985  -13.0269   20.9923 C   0  0  0  0  0  0
  -25.2615  -13.8186   20.5659 C   0  0  0  0  0  0
  -24.1861  -13.0479   20.9187 C   0  0  0  0  0  0
  -24.6401  -11.6944   20.8760 C   0  0  0  0  0  0
  -23.9053  -10.4341   21.0425 C   0  0  0  0  0  0
  -24.3640   -9.4249   21.9189 C   0  0  0  0  0  0
  -23.6340   -8.2270   22.0749 C   0  0  0  0  0  0
  -22.4300   -8.0312   21.3539 C   0  0  0  0  0  0
  -21.9912   -9.0276   20.4646 C   0  0  0  0  0  0
  -22.7233  -10.2170   20.3075 C   0  0  0  0  0  0
  -21.6878   -6.0758   22.5274 C   0  0  0  0  0  0
  -21.4037   -6.5652   23.8202 C   0  0  0  0  0  0
  -21.3677   -5.6784   24.9151 C   0  0  0  0  0  0
  -21.6063   -4.3045   24.7196 C   0  0  0  0  0  0
  -21.8823   -3.8162   23.4304 C   0  0  0  0  0  0
  -21.9208   -4.6990   22.3379 C   0  0  0  0  0  0
  -22.7863  -13.5285   21.1808 C   0  0  0  0  0  0
  -22.1648   -4.2175   21.0948 F   0  0  0  0  0  0
  -21.5627   -3.4533   25.7706 F   0  0  0  0  0  0
  -30.0310  -13.3091   20.4380 N   0  0  0  0  0  0
  -26.3018  -12.9334   20.3271 N   0  0  0  0  0  0
  -25.9322  -11.6506   20.5765 N   0  0  0  0  0  0
  -22.0455  -12.8324   22.0370 N   0  0  0  0  0  0
  -25.4336  -15.1907   20.4092 N   0  0  0  0  0  0
  -31.8574  -14.6288   20.1191 O   0  0  0  0  0  0
  -21.6667   -6.8912   21.4243 O   0  0  0  0  0  0
  -22.3568  -14.5566   20.6612 O   0  0  0  0  0  0
  -24.6123  -31.8687   23.2102 C   0  0  0  0  0  0
  -25.9010  -32.4828   23.8412 C   0  0  1  0  0  0
  -27.2477  -27.4437   20.0806 C   0  0  0  0  0  0
  -25.5896  -33.8630   24.2344 N   0  0  0  0  0  0
  -23.3997  -30.4933   21.5496 C   0  0  2  0  0  0
  -24.8447  -28.9557   20.1149 C   0  0  0  0  0  0
  -22.7398  -29.4659   22.4972 C   0  0  0  0  0  0
  -18.0282  -28.1375   22.8478 C   0  0  0  0  0  0
  -24.1490  -36.7329   23.2632 C   0  0  0  0  0  0
  -25.9279  -30.8344   21.3619 C   0  0  0  0  0  0
  -26.0037  -29.4698   20.7068 C   0  0  0  0  0  0
  -27.2008  -28.7226   20.6846 C   0  0  0  0  0  0
  -26.0580  -26.9284   19.5128 C   0  0  0  0  0  0
  -24.8666  -27.6822   19.5210 C   0  0  0  0  0  0
  -23.6081  -29.8261   20.1638 C   0  0  0  0  0  0
  -25.4104  -36.3117   24.0344 C   0  0  1  0  0  0
  -20.5864  -28.3654   23.1301 C   0  0  2  0  0  0
  -20.6764  -26.9392   22.5381 C   0  0  0  0  0  0
  -19.5734  -26.6379   21.5188 C   0  0  0  0  0  0
  -18.1929  -26.7916   22.1615 C   0  0  0  0  0  0
  -19.1529  -28.8834   23.2887 C   0  0  0  0  0  0
  -18.9455  -30.1444   23.8893 C   0  0  0  0  0  0
  -17.6456  -30.6581   24.0552 C   0  0  0  0  0  0
  -25.9037  -34.9478   23.5140 C   0  0  0  0  0  0
  -16.5344  -29.9079   23.6321 C   0  0  0  0  0  0
  -16.7274  -28.6500   23.0327 C   0  0  0  0  0  0
  -26.4441  -31.6606   25.0737 C   0  0  0  0  0  0
  -25.3729  -31.3711   26.1512 C   0  0  0  0  0  0
  -27.0268  -30.3058   24.6098 C   0  0  0  0  0  0
  -27.6043  -32.4314   25.7483 C   0  0  0  0  0  0
  -27.5587  -37.1813   24.8461 C   0  0  0  0  0  0
  -21.4131  -29.3026   22.3712 N   0  0  0  0  0  0
  -26.4294  -37.3795   23.9412 N   0  0  0  0  0  0
  -24.6650  -31.0796   22.0993 N   0  0  0  0  0  0
  -23.4189  -28.8202   23.2997 O   0  0  0  0  0  0
  -28.4649  -26.7848   20.0816 O   0  0  0  0  0  0
  -26.5584  -34.8924   22.4694 O   0  0  0  0  0  0
  -23.5322  -32.1446   23.7509 O   0  0  0  0  0  0
  -28.8617  -20.2040   18.7364 C   0  0  0  0  0  0
  -29.0927  -18.9584   18.1312 C   0  0  0  0  0  0
  -29.5890  -19.2781   20.8569 C   0  0  0  0  0  0
  -29.1051  -20.3858   20.1141 C   0  0  0  0  0  0
  -29.5783  -17.8617   18.8702 C   0  0  0  0  0  0
  -29.8406  -18.0122   20.2622 C   0  0  0  0  0  0
  -29.8261  -16.5725   18.1052 C   0  0  0  0  0  0
  -28.8615  -21.7453   20.7976 C   0  0  0  0  0  0
  -30.4847  -16.9139   21.1390 C   0  0  0  0  0  0
  -28.7509  -22.9596   19.8325 C   0  0  0  0  0  0
  -28.6135  -24.3513   20.4974 C   0  0  0  0  0  0
  -28.6350  -25.5026   19.4646 C   0  0  0  0  0  0
  -30.0010  -15.5286   21.0128 N   0  0  0  0  0  0
  -31.4754  -12.3749   19.1616 H   0  0  0  0  0  0
  -30.3158  -11.2986   19.8820 H   0  0  0  0  0  0
  -29.7428  -11.6908   17.4769 H   0  0  0  0  0  0
  -29.6827  -13.4170   17.7330 H   0  0  0  0  0  0
  -27.8509  -11.2794   18.8656 H   0  0  0  0  0  0
  -27.3757  -12.5624   17.7890 H   0  0  0  0  0  0
  -27.6956  -14.2410   19.5300 H   0  0  0  0  0  0
  -28.6690  -12.0065   21.3785 H   0  0  0  0  0  0
  -28.4555  -13.6700   21.8391 H   0  0  0  0  0  0
  -25.2808   -9.5739   22.4720 H   0  0  0  0  0  0
  -24.0065   -7.4685   22.7479 H   0  0  0  0  0  0
  -21.0810   -8.8810   19.8994 H   0  0  0  0  0  0
  -22.3680  -10.9702   19.6177 H   0  0  0  0  0  0
  -21.2018   -7.6156   23.9706 H   0  0  0  0  0  0
  -21.1486   -6.0501   25.9043 H   0  0  0  0  0  0
  -22.0592   -2.7634   23.2775 H   0  0  0  0  0  0
  -22.4066  -12.0024   22.4842 H   0  0  0  0  0  0
  -21.1071  -13.1352   22.2545 H   0  0  0  0  0  0
  -24.6743  -15.8473   20.5568 H   0  0  0  0  0  0
  -26.2876  -15.6343   20.0940 H   0  0  0  0  0  0
  -26.7069  -32.5536   23.1168 H   0  0  0  0  0  0
  -25.0039  -33.9794   25.0486 H   0  0  0  0  0  0
  -22.6872  -31.3094   21.4118 H   0  0  0  0  0  0
  -23.3753  -35.9662   23.3279 H   0  0  0  0  0  0
  -24.3589  -36.8953   22.2049 H   0  0  0  0  0  0
  -23.7244  -37.6535   23.6649 H   0  0  0  0  0  0
  -26.0411  -31.6024   20.5959 H   0  0  0  0  0  0
  -26.8152  -30.8817   21.9825 H   0  0  0  0  0  0
  -28.0993  -29.1293   21.1272 H   0  0  0  0  0  0
  -26.0138  -25.9510   19.0587 H   0  0  0  0  0  0
  -23.9712  -27.2715   19.0753 H   0  0  0  0  0  0
  -23.7208  -30.6042   19.4075 H   0  0  0  0  0  0
  -22.7310  -29.2494   19.8635 H   0  0  0  0  0  0
  -25.1267  -36.1985   25.0838 H   0  0  0  0  0  0
  -20.9963  -28.3202   24.1417 H   0  0  0  0  0  0
  -20.5649  -26.2263   23.3564 H   0  0  0  0  0  0
  -21.6628  -26.7418   22.1183 H   0  0  0  0  0  0
  -19.6876  -25.6284   21.1220 H   0  0  0  0  0  0
  -19.6677  -27.3177   20.6705 H   0  0  0  0  0  0
  -17.4180  -26.6639   21.4038 H   0  0  0  0  0  0
  -18.0361  -26.0072   22.9040 H   0  0  0  0  0  0
  -19.7941  -30.7248   24.2263 H   0  0  0  0  0  0
  -17.5019  -31.6265   24.5143 H   0  0  0  0  0  0
  -15.5341  -30.2964   23.7655 H   0  0  0  0  0  0
  -15.8685  -28.0824   22.7008 H   0  0  0  0  0  0
  -24.5868  -30.7087   25.7853 H   0  0  0  0  0  0
  -24.8964  -32.2870   26.5023 H   0  0  0  0  0  0
  -25.8099  -30.8834   27.0238 H   0  0  0  0  0  0
  -26.2806  -29.6835   24.1140 H   0  0  0  0  0  0
  -27.4028  -29.7266   25.4542 H   0  0  0  0  0  0
  -27.8644  -30.4385   23.9247 H   0  0  0  0  0  0
  -27.2674  -33.3584   26.2134 H   0  0  0  0  0  0
  -28.3805  -32.6922   25.0273 H   0  0  0  0  0  0
  -28.0768  -31.8402   26.5338 H   0  0  0  0  0  0
  -28.2591  -38.0117   24.7512 H   0  0  0  0  0  0
  -28.1089  -36.2653   24.6268 H   0  0  0  0  0  0
  -27.2317  -37.1442   25.8865 H   0  0  0  0  0  0
  -20.9285  -29.8778   21.6959 H   0  0  0  0  0  0
  -26.0190  -38.2878   24.1412 H   0  0  0  0  0  0
  -28.5042  -21.0080   18.1105 H   0  0  0  0  0  0
  -28.9004  -18.8584   17.0722 H   0  0  0  0  0  0
  -29.7931  -19.4140   21.9112 H   0  0  0  0  0  0
  -29.5500  -16.6728   17.0542 H   0  0  0  0  0  0
  -29.2157  -15.7667   18.5058 H   0  0  0  0  0  0
  -30.8797  -16.2952   18.1404 H   0  0  0  0  0  0
  -29.6668  -21.9293   21.5126 H   0  0  0  0  0  0
  -27.9464  -21.6671   21.3856 H   0  0  0  0  0  0
  -30.3597  -17.1862   22.1886 H   0  0  0  0  0  0
  -31.5606  -16.9583   20.9630 H   0  0  0  0  0  0
  -27.8838  -22.8196   19.1867 H   0  0  0  0  0  0
  -29.6276  -22.9726   19.1833 H   0  0  0  0  0  0
  -29.4303  -24.4978   21.2058 H   0  0  0  0  0  0
  -27.6908  -24.3998   21.0763 H   0  0  0  0  0  0
  -27.9531  -25.3218   18.6374 H   0  0  0  0  0  0
  -29.6207  -25.5200   18.9954 H   0  0  0  0  0  0
  -29.0591  -15.3452   21.3220 H   0  0  0  0  0  0
  1 25  1  0  0  0
  1 30  2  0  0  0
  1 83  1  0  0  0
  2  3  1  0  0  0
  2 25  1  0  0  0
  2 84  1  0  0  0
  2 85  1  0  0  0
  3  4  1  0  0  0
  3 86  1  0  0  0
  3 87  1  0  0  0
  4  5  1  0  0  0
  4 88  1  0  0  0
  4 89  1  0  0  0
  5  6  1  0  0  0
  5 26  1  0  0  0
  5 90  1  0  0  0
  6 25  1  0  0  0
  6 91  1  0  0  0
  6 92  1  0  0  0
  7  8  2  0  0  0
  7 26  1  0  0  0
  7 29  1  0  0  0
  8  9  1  0  0  0
  8 22  1  0  0  0
  9 10  1  0  0  0
  9 27  2  0  0  0
 10 11  2  0  0  0
 10 15  1  0  0  0
 11 12  1  0  0  0
 11 93  1  0  0  0
 12 13  2  0  0  0
 12 94  1  0  0  0
 13 14  1  0  0  0
 13 31  1  0  0  0
 14 15  2  0  0  0
 14 95  1  0  0  0
 15 96  1  0  0  0
 16 17  2  0  0  0
 16 21  1  0  0  0
 16 31  1  0  0  0
 17 18  1  0  0  0
 17 97  1  0  0  0
 18 19  2  0  0  0
 18 98  1  0  0  0
 19 20  1  0  0  0
 19 24  1  0  0  0
 20 21  2  0  0  0
 20 99  1  0  0  0
 21 23  1  0  0  0
 22 28  1  0  0  0
 22 32  2  0  0  0
 26 27  1  0  0  0
 28100  1  0  0  0
 28101  1  0  0  0
 29102  1  0  0  0
 29103  1  0  0  0
 33 34  1  0  0  0
 33 66  1  0  0  0
 33 70  2  0  0  0
 34 36  1  0  0  0
 34 59  1  0  0  0
 34104  1  0  0  0
 35 44  2  0  0  0
 35 45  1  0  0  0
 35 68  1  0  0  0
 36 56  1  0  0  0
 36105  1  0  0  0
 37 39  1  0  0  0
 37 47  1  0  0  0
 37 66  1  0  0  0
 37106  1  0  0  0
 38 43  2  0  0  0
 38 46  1  0  0  0
 38 47  1  0  0  0
 39 64  1  0  0  0
 39 67  2  0  0  0
 40 52  1  0  0  0
 40 53  2  0  0  0
 40 58  1  0  0  0
 41107  1  0  0  0
 41108  1  0  0  0
 41109  1  0  0  0
 41 48  1  0  0  0
 42 43  1  0  0  0
 42 66  1  0  0  0
 42110  1  0  0  0
 42111  1  0  0  0
 43 44  1  0  0  0
 44112  1  0  0  0
 45 46  2  0  0  0
 45113  1  0  0  0
 46114  1  0  0  0
 47115  1  0  0  0
 47116  1  0  0  0
 48 56  1  0  0  0
 48 65  1  0  0  0
 48117  1  0  0  0
 49 50  1  0  0  0
 49 53  1  0  0  0
 49 64  1  0  0  0
 49118  1  0  0  0
 50 51  1  0  0  0
 50119  1  0  0  0
 50120  1  0  0  0
 51 52  1  0  0  0
 51121  1  0  0  0
 51122  1  0  0  0
 52123  1  0  0  0
 52124  1  0  0  0
 53 54  1  0  0  0
 54 55  2  0  0  0
 54125  1  0  0  0
 55 57  1  0  0  0
 55126  1  0  0  0
 56 69  2  0  0  0
 57 58  2  0  0  0
 57127  1  0  0  0
 58128  1  0  0  0
 59 60  1  0  0  0
 59 61  1  0  0  0
 59 62  1  0  0  0
 60129  1  0  0  0
 60130  1  0  0  0
 60131  1  0  0  0
 61132  1  0  0  0
 61133  1  0  0  0
 61134  1  0  0  0
 62135  1  0  0  0
 62136  1  0  0  0
 62137  1  0  0  0
 63 65  1  0  0  0
 63138  1  0  0  0
 63139  1  0  0  0
 63140  1  0  0  0
 64141  1  0  0  0
 65142  1  0  0  0
 68 82  1  0  0  0
 71 72  2  0  0  0
 71 74  1  0  0  0
 71143  1  0  0  0
 72 75  1  0  0  0
 72144  1  0  0  0
 73 74  2  0  0  0
 73 76  1  0  0  0
 73145  1  0  0  0
 74 78  1  0  0  0
 75 76  2  0  0  0
 75 77  1  0  0  0
 76 79  1  0  0  0
 77146  1  0  0  0
 77147  1  0  0  0
 77148  1  0  0  0
 78 80  1  0  0  0
 78149  1  0  0  0
 78150  1  0  0  0
 79 83  1  0  0  0
 79151  1  0  0  0
 79152  1  0  0  0
 80 81  1  0  0  0
 80153  1  0  0  0
 80154  1  0  0  0
 81 82  1  0  0  0
 81155  1  0  0  0
 81156  1  0  0  0
 82157  1  0  0  0
 82158  1  0  0  0
 83159  1  0  0  0
M  ISO  4   1 100  68 101  82 101  83 100
M  END
> <chiral flag>
0

> <version>
0

> <s_m_source_file>
/data/baiqing/PycharmProjects/Reinvent-master-3.2/result/LINK_invent/BTK/process_docking_weight1_custom_sum_contain_oxygen_bond_distance_aromatic_linkinvent_7_9_3/rearranged_h_0035.sdf

> <i_m_source_file_index>
50

> <r_mmod_Potential_Energy-OPLS-2005>
-103.931747436523

> <r_mmod_Stretch_Energy-OPLS-2005>
39.6461982727051

> <r_mmod_Bend_Energy-OPLS-2005>
111.790267944336

> <r_mmod_Torsional_Energy-OPLS-2005>
185.883163452148

> <r_mmod_Improper_Torsional_Energy-OPLS-2005>
3.9009473323822

> <r_mmod_Van_der_Waal_Energy-OPLS-2005>
153.001129150391

> <r_mmod_Electrostatic_Energy-OPLS-2005>
-412.251770019531

> <r_mmod_Solvation_Energy-OPLS-2005>
-201.808410644531

> <b_mmod_Minimization_Converged-OPLS-2005>
0

> <r_mmod_RMS_Derivative-OPLS-2005>
3.92318177223206

$$$$
50
                    3D
 Structure written by MMmdl.
163171  0  0  1  0            999 V2000
  -30.7359  -14.3703   20.6855 C   0  0  0  0  0  0
  -30.4145  -12.2889   19.3879 C   0  0  0  0  0  0
  -29.4766  -12.5127   18.1849 C   0  0  0  0  0  0
  -28.0028  -12.3570   18.6058 C   0  0  0  0  0  0
  -27.6589  -13.1912   19.8666 C   0  0  2  0  0  0
  -28.6937  -12.9250   20.9811 C   0  0  0  0  0  0
  -25.2585  -13.8132   20.5639 C   0  0  0  0  0  0
  -24.1826  -13.0431   20.9169 C   0  0  0  0  0  0
  -24.6353  -11.6885   20.8720 C   0  0  0  0  0  0
  -23.9017  -10.4284   21.0409 C   0  0  0  0  0  0
  -24.3575   -9.4219   21.9203 C   0  0  0  0  0  0
  -23.6259   -8.2247   22.0774 C   0  0  0  0  0  0
  -22.4255   -8.0268   21.3553 C   0  0  0  0  0  0
  -21.9889   -9.0224   20.4645 C   0  0  0  0  0  0
  -22.7199  -10.2114   20.3047 C   0  0  0  0  0  0
  -21.6841   -6.0726   22.5285 C   0  0  0  0  0  0
  -21.4010   -6.5633   23.8221 C   0  0  0  0  0  0
  -21.3660   -5.6790   24.9184 C   0  0  0  0  0  0
  -21.6043   -4.3046   24.7239 C   0  0  0  0  0  0
  -21.8816   -3.8138   23.4357 C   0  0  0  0  0  0
  -21.9186   -4.6954   22.3414 C   0  0  0  0  0  0
  -22.7857  -13.5239   21.1829 C   0  0  0  0  0  0
  -22.1652   -4.2137   21.0991 F   0  0  0  0  0  0
  -21.5638   -3.4533   25.7755 F   0  0  0  0  0  0
  -30.0339  -13.2345   20.4475 N   0  0  0  0  0  0
  -26.2988  -12.9265   20.3298 N   0  0  0  0  0  0
  -25.9258  -11.6434   20.5704 N   0  0  0  0  0  0
  -22.0473  -12.8224   22.0360 N   0  0  0  0  0  0
  -25.4335  -15.1852   20.4053 N   0  0  0  0  0  0
  -31.7809  -14.6622   20.0916 O   0  0  0  0  0  0
  -21.6628   -6.8858   21.4243 O   0  0  0  0  0  0
  -22.3548  -14.5552   20.6687 O   0  0  0  0  0  0
  -24.6092  -31.8692   23.2126 C   0  0  0  0  0  0
  -25.8996  -32.4842   23.8411 C   0  0  1  0  0  0
  -27.2414  -27.4521   20.0853 C   0  0  0  0  0  0
  -25.5879  -33.8648   24.2320 N   0  0  0  0  0  0
  -23.3963  -30.4860   21.5574 C   0  0  2  0  0  0
  -24.8429  -28.9511   20.1236 C   0  0  0  0  0  0
  -22.7370  -29.4627   22.5089 C   0  0  0  0  0  0
  -18.0256  -28.1382   22.8520 C   0  0  0  0  0  0
  -24.1470  -36.7294   23.2644 C   0  0  0  0  0  0
  -25.9208  -30.8396   21.3606 C   0  0  0  0  0  0
  -26.0007  -29.4713   20.7141 C   0  0  0  0  0  0
  -27.1989  -28.7237   20.6991 C   0  0  0  0  0  0
  -26.0571  -26.9320   19.5121 C   0  0  0  0  0  0
  -24.8631  -27.6773   19.5290 C   0  0  0  0  0  0
  -23.5994  -29.8076   20.1766 C   0  0  0  0  0  0
  -25.4114  -36.3114   24.0316 C   0  0  1  0  0  0
  -20.5842  -28.3619   23.1403 C   0  0  2  0  0  0
  -20.6730  -26.9366   22.5458 C   0  0  0  0  0  0
  -19.5723  -26.6389   21.5224 C   0  0  0  0  0  0
  -18.1882  -26.7956   22.1597 C   0  0  0  0  0  0
  -19.1509  -28.8828   23.2951 C   0  0  0  0  0  0
  -18.9428  -30.1465   23.8903 C   0  0  0  0  0  0
  -17.6422  -30.6584   24.0584 C   0  0  0  0  0  0
  -25.9033  -34.9489   23.5106 C   0  0  0  0  0  0
  -16.5312  -29.9069   23.6361 C   0  0  0  0  0  0
  -16.7243  -28.6501   23.0364 C   0  0  0  0  0  0
  -26.4475  -31.6657   25.0744 C   0  0  0  0  0  0
  -25.3741  -31.3620   26.1452 C   0  0  0  0  0  0
  -27.0430  -30.3170   24.6099 C   0  0  0  0  0  0
  -27.5999  -32.4446   25.7540 C   0  0  0  0  0  0
  -27.5594  -37.1791   24.8459 C   0  0  0  0  0  0
  -21.4108  -29.2977   22.3811 N   0  0  0  0  0  0
  -26.4295  -37.3809   23.9420 N   0  0  0  0  0  0
  -24.6608  -31.0780   22.1032 N   0  0  0  0  0  0
  -23.4156  -28.8194   23.3132 O   0  0  0  0  0  0
  -28.4424  -26.7761   20.0747 O   0  0  0  0  0  0
  -26.5589  -34.8923   22.4661 O   0  0  0  0  0  0
  -23.5280  -32.1434   23.7505 O   0  0  0  0  0  0
  -28.0041  -22.8281   21.3342 C   0  0  0  0  0  0
  -28.2541  -23.2314   18.6737 C   0  0  0  0  0  0
  -27.9211  -21.7487   20.4125 C   0  0  0  0  0  0
  -28.3216  -24.3153   19.5887 C   0  0  0  0  0  0
  -27.9594  -22.6195   22.8365 C   0  0  0  0  0  0
  -28.4915  -23.4115   17.1872 C   0  0  0  0  0  0
  -27.7908  -20.2846   20.8349 C   0  0  0  0  0  0
  -28.6523  -25.7351   19.1137 C   0  0  0  0  0  0
  -29.1471  -19.5524   20.7510 C   0  0  0  0  0  0
  -29.1990  -18.1424   21.3805 C   0  0  0  0  0  0
  -30.6516  -17.6225   21.4504 C   0  0  0  0  0  0
  -30.8520  -16.3231   22.2531 C   0  0  0  0  0  0
  -28.0300  -21.9598   19.0803 N   0  0  0  0  0  0
  -28.1875  -24.1074   20.9229 N   0  0  0  0  0  0
  -30.2248  -15.1520   21.6468 N   0  0  0  0  0  0
  -31.4568  -12.3979   19.0821 H   0  0  0  0  0  0
  -30.3200  -11.2659   19.7568 H   0  0  0  0  0  0
  -29.7142  -11.8079   17.3869 H   0  0  0  0  0  0
  -29.6377  -13.5094   17.7704 H   0  0  0  0  0  0
  -27.8235  -11.2988   18.8010 H   0  0  0  0  0  0
  -27.3415  -12.6218   17.7795 H   0  0  0  0  0  0
  -27.7192  -14.2430   19.5862 H   0  0  0  0  0  0
  -28.6635  -11.8745   21.2757 H   0  0  0  0  0  0
  -28.4309  -13.4780   21.8823 H   0  0  0  0  0  0
  -25.2700   -9.5726   22.4802 H   0  0  0  0  0  0
  -23.9975   -7.4657   22.7506 H   0  0  0  0  0  0
  -21.0836   -8.8706   19.8940 H   0  0  0  0  0  0
  -22.3634  -10.9640   19.6153 H   0  0  0  0  0  0
  -21.2001   -7.6145   23.9727 H   0  0  0  0  0  0
  -21.1487   -6.0518   25.9095 H   0  0  0  0  0  0
  -22.0599   -2.7596   23.2860 H   0  0  0  0  0  0
  -22.4048  -11.9839   22.4694 H   0  0  0  0  0  0
  -21.1084  -13.1256   22.2527 H   0  0  0  0  0  0
  -24.6749  -15.8463   20.5311 H   0  0  0  0  0  0
  -26.2940  -15.6226   20.1004 H   0  0  0  0  0  0
  -26.7047  -32.5593   23.1174 H   0  0  0  0  0  0
  -25.0061  -33.9861   25.0486 H   0  0  0  0  0  0
  -22.6811  -31.3008   21.4175 H   0  0  0  0  0  0
  -23.3805  -35.9547   23.3215 H   0  0  0  0  0  0
  -24.3550  -36.9039   22.2080 H   0  0  0  0  0  0
  -23.7111  -37.6404   23.6755 H   0  0  0  0  0  0
  -26.0164  -31.6005   20.5850 H   0  0  0  0  0  0
  -26.8132  -30.9037   21.9702 H   0  0  0  0  0  0
  -28.0983  -29.1263   21.1461 H   0  0  0  0  0  0
  -26.0342  -25.9511   19.0606 H   0  0  0  0  0  0
  -23.9661  -27.2630   19.0919 H   0  0  0  0  0  0
  -23.6887  -30.5706   19.4031 H   0  0  0  0  0  0
  -22.7275  -29.2100   19.9043 H   0  0  0  0  0  0
  -25.1273  -36.1978   25.0804 H   0  0  0  0  0  0
  -20.9915  -28.3153   24.1537 H   0  0  0  0  0  0
  -20.5651  -26.2176   23.3597 H   0  0  0  0  0  0
  -21.6607  -26.7437   22.1258 H   0  0  0  0  0  0
  -19.6857  -25.6313   21.1216 H   0  0  0  0  0  0
  -19.6690  -27.3227   20.6781 H   0  0  0  0  0  0
  -17.4190  -26.6825   21.3934 H   0  0  0  0  0  0
  -18.0168  -26.0065   22.8937 H   0  0  0  0  0  0
  -19.7893  -30.7316   24.2212 H   0  0  0  0  0  0
  -17.4964  -31.6260   24.5214 H   0  0  0  0  0  0
  -15.5304  -30.2943   23.7729 H   0  0  0  0  0  0
  -15.8654  -28.0828   22.7035 H   0  0  0  0  0  0
  -24.6025  -30.6873   25.7729 H   0  0  0  0  0  0
  -24.8782  -32.2688   26.4902 H   0  0  0  0  0  0
  -25.8118  -30.8810   27.0208 H   0  0  0  0  0  0
  -26.3008  -29.6814   24.1257 H   0  0  0  0  0  0
  -27.4412  -29.7505   25.4530 H   0  0  0  0  0  0
  -27.8690  -30.4625   23.9136 H   0  0  0  0  0  0
  -27.2587  -33.3759   26.2076 H   0  0  0  0  0  0
  -28.3818  -32.7006   25.0383 H   0  0  0  0  0  0
  -28.0664  -31.8627   26.5499 H   0  0  0  0  0  0
  -28.2540  -38.0168   24.7649 H   0  0  0  0  0  0
  -28.1170  -36.2694   24.6151 H   0  0  0  0  0  0
  -27.2303  -37.1272   25.8855 H   0  0  0  0  0  0
  -20.9232  -29.8694   21.7063 H   0  0  0  0  0  0
  -26.0180  -38.2864   24.1523 H   0  0  0  0  0  0
  -27.0225  -22.1510   23.1356 H   0  0  0  0  0  0
  -28.0459  -23.5631   23.3753 H   0  0  0  0  0  0
  -28.7875  -21.9798   23.1429 H   0  0  0  0  0  0
  -29.4235  -23.9500   17.0134 H   0  0  0  0  0  0
  -27.6749  -23.9705   16.7312 H   0  0  0  0  0  0
  -28.5690  -22.4489   16.6815 H   0  0  0  0  0  0
  -27.0597  -19.7929   20.1895 H   0  0  0  0  0  0
  -27.3844  -20.2202   21.8435 H   0  0  0  0  0  0
  -28.1399  -25.9558   18.1772 H   0  0  0  0  0  0
  -29.7137  -25.7481   18.8631 H   0  0  0  0  0  0
  -29.8892  -20.1744   21.2500 H   0  0  0  0  0  0
  -29.4582  -19.4950   19.7077 H   0  0  0  0  0  0
  -28.5813  -17.4495   20.8075 H   0  0  0  0  0  0
  -28.7771  -18.1740   22.3858 H   0  0  0  0  0  0
  -31.2660  -18.3878   21.9281 H   0  0  0  0  0  0
  -31.0529  -17.5062   20.4427 H   0  0  0  0  0  0
  -30.4447  -16.4486   23.2580 H   0  0  0  0  0  0
  -31.9190  -16.1336   22.3858 H   0  0  0  0  0  0
  -29.3641  -14.8296   22.0660 H   0  0  0  0  0  0
  1 25  1  0  0  0
  1 30  2  0  0  0
  1 85  1  0  0  0
  2  3  1  0  0  0
  2 25  1  0  0  0
  2 86  1  0  0  0
  2 87  1  0  0  0
  3  4  1  0  0  0
  3 88  1  0  0  0
  3 89  1  0  0  0
  4  5  1  0  0  0
  4 90  1  0  0  0
  4 91  1  0  0  0
  5  6  1  0  0  0
  5 26  1  0  0  0
  5 92  1  0  0  0
  6 25  1  0  0  0
  6 93  1  0  0  0
  6 94  1  0  0  0
  7  8  2  0  0  0
  7 26  1  0  0  0
  7 29  1  0  0  0
  8  9  1  0  0  0
  8 22  1  0  0  0
  9 10  1  0  0  0
  9 27  2  0  0  0
 10 11  2  0  0  0
 10 15  1  0  0  0
 11 12  1  0  0  0
 11 95  1  0  0  0
 12 13  2  0  0  0
 12 96  1  0  0  0
 13 14  1  0  0  0
 13 31  1  0  0  0
 14 15  2  0  0  0
 14 97  1  0  0  0
 15 98  1  0  0  0
 16 17  2  0  0  0
 16 21  1  0  0  0
 16 31  1  0  0  0
 17 18  1  0  0  0
 17 99  1  0  0  0
 18 19  2  0  0  0
 18100  1  0  0  0
 19 20  1  0  0  0
 19 24  1  0  0  0
 20 21  2  0  0  0
 20101  1  0  0  0
 21 23  1  0  0  0
 22 28  1  0  0  0
 22 32  2  0  0  0
 26 27  1  0  0  0
 28102  1  0  0  0
 28103  1  0  0  0
 29104  1  0  0  0
 29105  1  0  0  0
 33 34  1  0  0  0
 33 66  1  0  0  0
 33 70  2  0  0  0
 34 36  1  0  0  0
 34 59  1  0  0  0
 34106  1  0  0  0
 35 44  2  0  0  0
 35 45  1  0  0  0
 35 68  1  0  0  0
 36 56  1  0  0  0
 36107  1  0  0  0
 37 39  1  0  0  0
 37 47  1  0  0  0
 37 66  1  0  0  0
 37108  1  0  0  0
 38 43  2  0  0  0
 38 46  1  0  0  0
 38 47  1  0  0  0
 39 64  1  0  0  0
 39 67  2  0  0  0
 40 52  1  0  0  0
 40 53  2  0  0  0
 40 58  1  0  0  0
 41109  1  0  0  0
 41110  1  0  0  0
 41111  1  0  0  0
 41 48  1  0  0  0
 42 43  1  0  0  0
 42 66  1  0  0  0
 42112  1  0  0  0
 42113  1  0  0  0
 43 44  1  0  0  0
 44114  1  0  0  0
 45 46  2  0  0  0
 45115  1  0  0  0
 46116  1  0  0  0
 47117  1  0  0  0
 47118  1  0  0  0
 48 56  1  0  0  0
 48 65  1  0  0  0
 48119  1  0  0  0
 49 50  1  0  0  0
 49 53  1  0  0  0
 49 64  1  0  0  0
 49120  1  0  0  0
 50 51  1  0  0  0
 50121  1  0  0  0
 50122  1  0  0  0
 51 52  1  0  0  0
 51123  1  0  0  0
 51124  1  0  0  0
 52125  1  0  0  0
 52126  1  0  0  0
 53 54  1  0  0  0
 54 55  2  0  0  0
 54127  1  0  0  0
 55 57  1  0  0  0
 55128  1  0  0  0
 56 69  2  0  0  0
 57 58  2  0  0  0
 57129  1  0  0  0
 58130  1  0  0  0
 59 60  1  0  0  0
 59 61  1  0  0  0
 59 62  1  0  0  0
 60131  1  0  0  0
 60132  1  0  0  0
 60133  1  0  0  0
 61134  1  0  0  0
 61135  1  0  0  0
 61136  1  0  0  0
 62137  1  0  0  0
 62138  1  0  0  0
 62139  1  0  0  0
 63 65  1  0  0  0
 63140  1  0  0  0
 63141  1  0  0  0
 63142  1  0  0  0
 64143  1  0  0  0
 65144  1  0  0  0
 68 78  1  0  0  0
 71 73  2  0  0  0
 71 75  1  0  0  0
 71 84  1  0  0  0
 72 74  1  0  0  0
 72 76  1  0  0  0
 72 83  2  0  0  0
 73 77  1  0  0  0
 73 83  1  0  0  0
 74 78  1  0  0  0
 74 84  2  0  0  0
 75145  1  0  0  0
 75146  1  0  0  0
 75147  1  0  0  0
 76148  1  0  0  0
 76149  1  0  0  0
 76150  1  0  0  0
 77 79  1  0  0  0
 77151  1  0  0  0
 77152  1  0  0  0
 78153  1  0  0  0
 78154  1  0  0  0
 79 80  1  0  0  0
 79155  1  0  0  0
 79156  1  0  0  0
 80 81  1  0  0  0
 80157  1  0  0  0
 80158  1  0  0  0
 81 82  1  0  0  0
 81159  1  0  0  0
 81160  1  0  0  0
 82 85  1  0  0  0
 82161  1  0  0  0
 82162  1  0  0  0
 85163  1  0  0  0
M  ISO  4   1 100  68 101  78 101  85 100
M  END
> <chiral flag>
0

> <version>
0

> <s_m_source_file>
/data/baiqing/PycharmProjects/Reinvent-master-3.2/result/LINK_invent/BTK/process_docking_weight1_custom_sum_contain_oxygen_bond_distance_aromatic_linkinvent_7_9_3/rearranged_h_0035.sdf

> <i_m_source_file_index>
51

> <r_mmod_Potential_Energy-OPLS-2005>
-52.003719329834

> <r_mmod_Stretch_Energy-OPLS-2005>
35.9637298583984

> <r_mmod_Bend_Energy-OPLS-2005>
100.310852050781

> <r_mmod_Torsional_Energy-OPLS-2005>
186.886978149414

> <r_mmod_Improper_Torsional_Energy-OPLS-2005>
2.27816724777222

> <r_mmod_Van_der_Waal_Energy-OPLS-2005>
156.635040283203

> <r_mmod_Electrostatic_Energy-OPLS-2005>
-317.445404052734

> <r_mmod_Solvation_Energy-OPLS-2005>
-224.786087036133

> <b_mmod_Minimization_Converged-OPLS-2005>
0

> <r_mmod_RMS_Derivative-OPLS-2005>
3.25513863563538

$$$$
51
                    3D
 Structure written by MMmdl.
165173  0  0  1  0            999 V2000
  -30.4889  -14.9989   20.3883 C   0  0  0  0  0  0
  -30.4471  -12.6262   19.4617 C   0  0  0  0  0  0
  -29.5147  -12.5201   18.2329 C   0  0  0  0  0  0
  -28.0494  -12.3003   18.6637 C   0  0  0  0  0  0
  -27.6204  -13.2416   19.8203 C   0  0  2  0  0  0
  -28.6726  -13.2908   20.9440 C   0  0  0  0  0  0
  -25.2442  -13.8182   20.5704 C   0  0  0  0  0  0
  -24.1764  -13.0425   20.9226 C   0  0  0  0  0  0
  -24.6370  -11.6906   20.8752 C   0  0  0  0  0  0
  -23.9059  -10.4282   21.0411 C   0  0  0  0  0  0
  -24.3617   -9.4196   21.9189 C   0  0  0  0  0  0
  -23.6286   -8.2233   22.0752 C   0  0  0  0  0  0
  -22.4271   -8.0271   21.3538 C   0  0  0  0  0  0
  -21.9907   -9.0244   20.4644 C   0  0  0  0  0  0
  -22.7233  -10.2119   20.3057 C   0  0  0  0  0  0
  -21.6855   -6.0729   22.5275 C   0  0  0  0  0  0
  -21.4019   -6.5637   23.8208 C   0  0  0  0  0  0
  -21.3654   -5.6788   24.9171 C   0  0  0  0  0  0
  -21.6042   -4.3052   24.7221 C   0  0  0  0  0  0
  -21.8820   -3.8143   23.4346 C   0  0  0  0  0  0
  -21.9191   -4.6956   22.3402 C   0  0  0  0  0  0
  -22.7790  -13.5195   21.1892 C   0  0  0  0  0  0
  -22.1663   -4.2142   21.0980 F   0  0  0  0  0  0
  -21.5621   -3.4539   25.7735 F   0  0  0  0  0  0
  -29.9238  -13.7279   20.3112 N   0  0  0  0  0  0
  -26.2848  -12.9402   20.3199 N   0  0  0  0  0  0
  -25.9296  -11.6546   20.5729 N   0  0  0  0  0  0
  -22.0447  -12.8184   22.0442 N   0  0  0  0  0  0
  -25.4104  -15.1918   20.4122 N   0  0  0  0  0  0
  -31.7197  -15.0756   20.3134 O   0  0  0  0  0  0
  -21.6635   -6.8874   21.4239 O   0  0  0  0  0  0
  -22.3481  -14.5503   20.6727 O   0  0  0  0  0  0
  -24.6455  -31.8407   23.1816 C   0  0  0  0  0  0
  -25.9210  -32.4683   23.8238 C   0  0  1  0  0  0
  -27.2190  -27.1008   20.1684 C   0  0  0  0  0  0
  -25.5940  -33.8490   24.2168 N   0  0  0  0  0  0
  -23.4519  -30.4568   21.5272 C   0  0  2  0  0  0
  -24.9002  -28.8623   20.1214 C   0  0  0  0  0  0
  -22.7587  -29.4542   22.4841 C   0  0  0  0  0  0
  -18.0335  -28.1400   22.8498 C   0  0  0  0  0  0
  -24.1482  -36.7250   23.2645 C   0  0  0  0  0  0
  -26.0072  -30.7028   21.3841 C   0  0  0  0  0  0
  -26.0791  -29.3069   20.7332 C   0  0  0  0  0  0
  -27.2430  -28.4462   20.7271 C   0  0  0  0  0  0
  -26.0117  -26.7506   19.5349 C   0  0  0  0  0  0
  -24.8800  -27.5996   19.5051 C   0  0  0  0  0  0
  -23.6811  -29.7741   20.1518 C   0  0  0  0  0  0
  -25.4117  -36.3040   24.0326 C   0  0  1  0  0  0
  -20.5935  -28.3737   23.1235 C   0  0  2  0  0  0
  -20.6799  -26.9437   22.5401 C   0  0  0  0  0  0
  -19.5757  -26.6391   21.5216 C   0  0  0  0  0  0
  -18.1957  -26.7950   22.1642 C   0  0  0  0  0  0
  -19.1586  -28.8892   23.2865 C   0  0  0  0  0  0
  -18.9489  -30.1493   23.8883 C   0  0  0  0  0  0
  -17.6473  -30.6593   24.0569 C   0  0  0  0  0  0
  -25.9065  -34.9408   23.5062 C   0  0  0  0  0  0
  -16.5369  -29.9079   23.6338 C   0  0  0  0  0  0
  -16.7317  -28.6501   23.0364 C   0  0  0  0  0  0
  -26.4507  -31.6564   25.0691 C   0  0  0  0  0  0
  -25.3685  -31.3751   26.1386 C   0  0  0  0  0  0
  -27.0380  -30.2967   24.6286 C   0  0  0  0  0  0
  -27.6046  -32.4324   25.7475 C   0  0  0  0  0  0
  -27.5580  -37.1787   24.8473 C   0  0  0  0  0  0
  -21.4280  -29.3055   22.3592 N   0  0  0  0  0  0
  -26.4289  -37.3749   23.9421 N   0  0  0  0  0  0
  -24.7218  -31.0237   22.0858 N   0  0  0  0  0  0
  -23.4216  -28.8125   23.3032 O   0  0  0  0  0  0
  -28.3016  -26.1461   20.1260 O   0  0  0  0  0  0
  -26.5653  -34.8918   22.4646 O   0  0  0  0  0  0
  -23.5578  -32.1289   23.7023 O   0  0  0  0  0  0
  -30.5543  -21.9631   20.4546 C   0  0  0  0  0  0
  -31.0484  -19.5428   20.6180 C   0  0  0  0  0  0
  -31.4703  -20.8936   20.6103 C   0  0  0  0  0  0
  -29.1774  -21.7707   20.2243 C   0  0  0  0  0  0
  -29.7022  -19.1580   20.4634 C   0  0  0  0  0  0
  -28.7753  -20.3191   20.2162 C   0  0  0  0  0  0
  -33.5295  -22.1545   19.7528 C   0  0  0  0  0  0
  -26.2491  -19.2875   22.0644 C   0  0  0  0  0  0
  -32.9511  -21.1937   20.8034 C   0  0  0  0  0  0
  -28.3435  -23.1655   19.8187 C   0  0  0  0  0  0
  -27.3335  -19.9970   19.8373 C   0  0  0  0  0  0
  -29.3971  -17.5721   20.8810 C   0  0  0  0  0  0
  -26.2866  -20.3083   20.9207 C   0  0  0  0  0  0
  -28.2746  -24.6598   20.6372 C   0  0  0  0  0  0
  -29.6558  -16.1489   20.2173 N   0  0  0  0  0  0
  -31.4724  -12.8206   19.1419 H   0  0  0  0  0  0
  -30.4719  -11.6878   20.0174 H   0  0  0  0  0  0
  -29.8390  -11.7075   17.5807 H   0  0  0  0  0  0
  -29.5850  -13.4359   17.6437 H   0  0  0  0  0  0
  -27.9549  -11.2623   18.9855 H   0  0  0  0  0  0
  -27.3797  -12.4163   17.8102 H   0  0  0  0  0  0
  -27.5689  -14.2360   19.3771 H   0  0  0  0  0  0
  -28.7856  -12.3184   21.4251 H   0  0  0  0  0  0
  -28.3708  -13.9933   21.7236 H   0  0  0  0  0  0
  -25.2769   -9.5670   22.4767 H   0  0  0  0  0  0
  -23.9994   -7.4626   22.7476 H   0  0  0  0  0  0
  -21.0839   -8.8756   19.8958 H   0  0  0  0  0  0
  -22.3694  -10.9655   19.6167 H   0  0  0  0  0  0
  -21.2025   -7.6148   23.9708 H   0  0  0  0  0  0
  -21.1474   -6.0526   25.9073 H   0  0  0  0  0  0
  -22.0607   -2.7606   23.2845 H   0  0  0  0  0  0
  -22.4079  -11.9854   22.4839 H   0  0  0  0  0  0
  -21.1061  -13.1197   22.2653 H   0  0  0  0  0  0
  -24.6370  -15.8394   20.5197 H   0  0  0  0  0  0
  -26.2467  -15.6336   20.0580 H   0  0  0  0  0  0
  -26.7271  -32.5290   23.0962 H   0  0  0  0  0  0
  -25.0073  -33.9576   25.0314 H   0  0  0  0  0  0
  -22.7567  -31.2839   21.3653 H   0  0  0  0  0  0
  -23.3754  -35.9564   23.3295 H   0  0  0  0  0  0
  -24.3561  -36.8888   22.2058 H   0  0  0  0  0  0
  -23.7212  -37.6438   23.6681 H   0  0  0  0  0  0
  -26.1621  -31.4531   20.6070 H   0  0  0  0  0  0
  -26.8765  -30.7598   22.0282 H   0  0  0  0  0  0
  -28.1534  -28.7912   21.1968 H   0  0  0  0  0  0
  -25.9402  -25.7838   19.0573 H   0  0  0  0  0  0
  -23.9819  -27.2531   19.0132 H   0  0  0  0  0  0
  -23.8255  -30.5402   19.3894 H   0  0  0  0  0  0
  -22.7959  -29.2182   19.8418 H   0  0  0  0  0  0
  -25.1299  -36.1870   25.0815 H   0  0  0  0  0  0
  -21.0054  -28.3327   24.1346 H   0  0  0  0  0  0
  -20.5670  -26.2357   23.3624 H   0  0  0  0  0  0
  -21.6665  -26.7417   22.1200 H   0  0  0  0  0  0
  -19.6887  -25.6290   21.1276 H   0  0  0  0  0  0
  -19.6678  -27.3182   20.6725 H   0  0  0  0  0  0
  -17.4215  -26.6738   21.4051 H   0  0  0  0  0  0
  -18.0343  -26.0080   22.9026 H   0  0  0  0  0  0
  -19.7959  -30.7343   24.2222 H   0  0  0  0  0  0
  -17.5015  -31.6267   24.5183 H   0  0  0  0  0  0
  -15.5367  -30.2960   23.7649 H   0  0  0  0  0  0
  -15.8743  -28.0804   22.7051 H   0  0  0  0  0  0
  -24.5865  -30.7095   25.7704 H   0  0  0  0  0  0
  -24.8851  -32.2921   26.4779 H   0  0  0  0  0  0
  -25.7963  -30.8946   27.0196 H   0  0  0  0  0  0
  -26.2996  -29.6684   24.1282 H   0  0  0  0  0  0
  -27.3988  -29.7286   25.4874 H   0  0  0  0  0  0
  -27.8913  -30.4216   23.9607 H   0  0  0  0  0  0
  -27.2654  -33.3653   26.2003 H   0  0  0  0  0  0
  -28.3881  -32.6842   25.0309 H   0  0  0  0  0  0
  -28.0679  -31.8463   26.5426 H   0  0  0  0  0  0
  -28.2598  -38.0084   24.7518 H   0  0  0  0  0  0
  -28.1085  -36.2619   24.6308 H   0  0  0  0  0  0
  -27.2306  -37.1435   25.8877 H   0  0  0  0  0  0
  -20.9496  -29.8759   21.6757 H   0  0  0  0  0  0
  -26.0168  -38.2827   24.1407 H   0  0  0  0  0  0
  -30.9307  -22.9768   20.4570 H   0  0  0  0  0  0
  -31.7828  -18.7740   20.8169 H   0  0  0  0  0  0
  -34.6022  -22.2807   19.8992 H   0  0  0  0  0  0
  -33.0818  -23.1456   19.8154 H   0  0  0  0  0  0
  -33.3754  -21.7780   18.7411 H   0  0  0  0  0  0
  -25.4534  -19.5291   22.7709 H   0  0  0  0  0  0
  -27.1886  -19.2709   22.6153 H   0  0  0  0  0  0
  -26.0586  -18.2809   21.6877 H   0  0  0  0  0  0
  -33.5214  -20.2638   20.7612 H   0  0  0  0  0  0
  -33.1043  -21.6009   21.8040 H   0  0  0  0  0  0
  -27.3146  -22.8776   19.6101 H   0  0  0  0  0  0
  -28.7430  -23.4122   18.8355 H   0  0  0  0  0  0
  -27.2498  -18.9572   19.5218 H   0  0  0  0  0  0
  -27.0950  -20.5735   18.9424 H   0  0  0  0  0  0
  -28.3316  -17.5533   21.1033 H   0  0  0  0  0  0
  -29.8558  -17.4747   21.8661 H   0  0  0  0  0  0
  -26.4316  -21.3152   21.3144 H   0  0  0  0  0  0
  -25.3033  -20.3127   20.4471 H   0  0  0  0  0  0
  -29.1641  -24.6409   21.2657 H   0  0  0  0  0  0
  -27.4628  -24.5930   21.3627 H   0  0  0  0  0  0
  -28.7863  -15.8314   19.8172 H   0  0  0  0  0  0
  1 25  1  0  0  0
  1 30  2  0  0  0
  1 85  1  0  0  0
  2  3  1  0  0  0
  2 25  1  0  0  0
  2 86  1  0  0  0
  2 87  1  0  0  0
  3  4  1  0  0  0
  3 88  1  0  0  0
  3 89  1  0  0  0
  4  5  1  0  0  0
  4 90  1  0  0  0
  4 91  1  0  0  0
  5  6  1  0  0  0
  5 26  1  0  0  0
  5 92  1  0  0  0
  6 25  1  0  0  0
  6 93  1  0  0  0
  6 94  1  0  0  0
  7  8  2  0  0  0
  7 26  1  0  0  0
  7 29  1  0  0  0
  8  9  1  0  0  0
  8 22  1  0  0  0
  9 10  1  0  0  0
  9 27  2  0  0  0
 10 11  2  0  0  0
 10 15  1  0  0  0
 11 12  1  0  0  0
 11 95  1  0  0  0
 12 13  2  0  0  0
 12 96  1  0  0  0
 13 14  1  0  0  0
 13 31  1  0  0  0
 14 15  2  0  0  0
 14 97  1  0  0  0
 15 98  1  0  0  0
 16 17  2  0  0  0
 16 21  1  0  0  0
 16 31  1  0  0  0
 17 18  1  0  0  0
 17 99  1  0  0  0
 18 19  2  0  0  0
 18100  1  0  0  0
 19 20  1  0  0  0
 19 24  1  0  0  0
 20 21  2  0  0  0
 20101  1  0  0  0
 21 23  1  0  0  0
 22 28  1  0  0  0
 22 32  2  0  0  0
 26 27  1  0  0  0
 28102  1  0  0  0
 28103  1  0  0  0
 29104  1  0  0  0
 29105  1  0  0  0
 33 34  1  0  0  0
 33 66  1  0  0  0
 33 70  2  0  0  0
 34 36  1  0  0  0
 34 59  1  0  0  0
 34106  1  0  0  0
 35 44  2  0  0  0
 35 45  1  0  0  0
 35 68  1  0  0  0
 36 56  1  0  0  0
 36107  1  0  0  0
 37 39  1  0  0  0
 37 47  1  0  0  0
 37 66  1  0  0  0
 37108  1  0  0  0
 38 43  2  0  0  0
 38 46  1  0  0  0
 38 47  1  0  0  0
 39 64  1  0  0  0
 39 67  2  0  0  0
 40 52  1  0  0  0
 40 53  2  0  0  0
 40 58  1  0  0  0
 41109  1  0  0  0
 41110  1  0  0  0
 41111  1  0  0  0
 41 48  1  0  0  0
 42 43  1  0  0  0
 42 66  1  0  0  0
 42112  1  0  0  0
 42113  1  0  0  0
 43 44  1  0  0  0
 44114  1  0  0  0
 45 46  2  0  0  0
 45115  1  0  0  0
 46116  1  0  0  0
 47117  1  0  0  0
 47118  1  0  0  0
 48 56  1  0  0  0
 48 65  1  0  0  0
 48119  1  0  0  0
 49 50  1  0  0  0
 49 53  1  0  0  0
 49 64  1  0  0  0
 49120  1  0  0  0
 50 51  1  0  0  0
 50121  1  0  0  0
 50122  1  0  0  0
 51 52  1  0  0  0
 51123  1  0  0  0
 51124  1  0  0  0
 52125  1  0  0  0
 52126  1  0  0  0
 53 54  1  0  0  0
 54 55  2  0  0  0
 54127  1  0  0  0
 55 57  1  0  0  0
 55128  1  0  0  0
 56 69  2  0  0  0
 57 58  2  0  0  0
 57129  1  0  0  0
 58130  1  0  0  0
 59 60  1  0  0  0
 59 61  1  0  0  0
 59 62  1  0  0  0
 60131  1  0  0  0
 60132  1  0  0  0
 60133  1  0  0  0
 61134  1  0  0  0
 61135  1  0  0  0
 61136  1  0  0  0
 62137  1  0  0  0
 62138  1  0  0  0
 62139  1  0  0  0
 63 65  1  0  0  0
 63140  1  0  0  0
 63141  1  0  0  0
 63142  1  0  0  0
 64143  1  0  0  0
 65144  1  0  0  0
 68 84  1  0  0  0
 71 73  2  0  0  0
 71 74  1  0  0  0
 71145  1  0  0  0
 72 73  1  0  0  0
 72 75  2  0  0  0
 72146  1  0  0  0
 73 79  1  0  0  0
 74 76  2  0  0  0
 74 80  1  0  0  0
 75 76  1  0  0  0
 75 82  1  0  0  0
 76 81  1  0  0  0
 77 79  1  0  0  0
 77147  1  0  0  0
 77148  1  0  0  0
 77149  1  0  0  0
 78 83  1  0  0  0
 78150  1  0  0  0
 78151  1  0  0  0
 78152  1  0  0  0
 79153  1  0  0  0
 79154  1  0  0  0
 80 84  1  0  0  0
 80155  1  0  0  0
 80156  1  0  0  0
 81 83  1  0  0  0
 81157  1  0  0  0
 81158  1  0  0  0
 82 85  1  0  0  0
 82159  1  0  0  0
 82160  1  0  0  0
 83161  1  0  0  0
 83162  1  0  0  0
 84163  1  0  0  0
 84164  1  0  0  0
 85165  1  0  0  0
M  ISO  4   1 100  68 101  84 101  85 100
M  END
> <chiral flag>
0

> <version>
0

> <s_m_source_file>
/data/baiqing/PycharmProjects/Reinvent-master-3.2/result/LINK_invent/BTK/process_docking_weight1_custom_sum_contain_oxygen_bond_distance_aromatic_linkinvent_7_9_3/rearranged_h_0035.sdf

> <i_m_source_file_index>
52

> <r_mmod_Potential_Energy-OPLS-2005>
668.863708496094

> <r_mmod_Stretch_Energy-OPLS-2005>
295.529083251953

> <r_mmod_Bend_Energy-OPLS-2005>
339.793884277344

> <r_mmod_Torsional_Energy-OPLS-2005>
286.601165771484

> <r_mmod_Improper_Torsional_Energy-OPLS-2005>
13.3649387359619

> <r_mmod_Van_der_Waal_Energy-OPLS-2005>
113.595184326172

> <r_mmod_Electrostatic_Energy-OPLS-2005>
-398.572998046875

> <r_mmod_Solvation_Energy-OPLS-2005>
-210.975296020508

> <b_mmod_Minimization_Converged-OPLS-2005>
0

> <r_mmod_RMS_Derivative-OPLS-2005>
2.24349975585938

$$$$
52
                    3D
 Structure written by MMmdl.
160168  0  0  1  0            999 V2000
  -30.6803  -14.5897   20.5188 C   0  0  0  0  0  0
  -30.4344  -12.3670   19.4453 C   0  0  0  0  0  0
  -29.5013  -12.4908   18.2221 C   0  0  0  0  0  0
  -28.0313  -12.3136   18.6531 C   0  0  0  0  0  0
  -27.6571  -13.2070   19.8657 C   0  0  2  0  0  0
  -28.7063  -13.0723   20.9941 C   0  0  0  0  0  0
  -25.2586  -13.8154   20.5687 C   0  0  0  0  0  0
  -24.1846  -13.0432   20.9201 C   0  0  0  0  0  0
  -24.6391  -11.6896   20.8747 C   0  0  0  0  0  0
  -23.9063  -10.4283   21.0421 C   0  0  0  0  0  0
  -24.3614   -9.4186   21.9193 C   0  0  0  0  0  0
  -23.6281   -8.2234   22.0763 C   0  0  0  0  0  0
  -22.4256   -8.0287   21.3563 C   0  0  0  0  0  0
  -21.9880   -9.0269   20.4675 C   0  0  0  0  0  0
  -22.7220  -10.2146   20.3080 C   0  0  0  0  0  0
  -21.6839   -6.0739   22.5293 C   0  0  0  0  0  0
  -21.4013   -6.5643   23.8226 C   0  0  0  0  0  0
  -21.3657   -5.6799   24.9185 C   0  0  0  0  0  0
  -21.6035   -4.3062   24.7239 C   0  0  0  0  0  0
  -21.8805   -3.8153   23.4359 C   0  0  0  0  0  0
  -21.9173   -4.6967   22.3414 C   0  0  0  0  0  0
  -22.7872  -13.5251   21.1845 C   0  0  0  0  0  0
  -22.1642   -4.2151   21.0990 F   0  0  0  0  0  0
  -21.5624   -3.4550   25.7754 F   0  0  0  0  0  0
  -30.0235  -13.3950   20.4211 N   0  0  0  0  0  0
  -26.3010  -12.9314   20.3351 N   0  0  0  0  0  0
  -25.9317  -11.6480   20.5802 N   0  0  0  0  0  0
  -22.0480  -12.8307   22.0433 N   0  0  0  0  0  0
  -25.4302  -15.1878   20.4079 N   0  0  0  0  0  0
  -31.8414  -14.7231   20.1261 O   0  0  0  0  0  0
  -21.6616   -6.8889   21.4259 O   0  0  0  0  0  0
  -22.3559  -14.5537   20.6644 O   0  0  0  0  0  0
  -24.6213  -31.8638   23.2038 C   0  0  0  0  0  0
  -25.9048  -32.4834   23.8376 C   0  0  1  0  0  0
  -27.2261  -27.3417   20.1130 C   0  0  0  0  0  0
  -25.5871  -33.8625   24.2322 N   0  0  0  0  0  0
  -23.4180  -30.4857   21.5460 C   0  0  2  0  0  0
  -24.8654  -28.9438   20.1145 C   0  0  0  0  0  0
  -22.7485  -29.4631   22.4955 C   0  0  0  0  0  0
  -18.0297  -28.1395   22.8496 C   0  0  0  0  0  0
  -24.1503  -36.7321   23.2632 C   0  0  0  0  0  0
  -25.9566  -30.8001   21.3726 C   0  0  0  0  0  0
  -26.0318  -29.4278   20.7163 C   0  0  0  0  0  0
  -27.2169  -28.6377   20.7048 C   0  0  0  0  0  0
  -26.0341  -26.9004   19.4907 C   0  0  0  0  0  0
  -24.8670  -27.6857   19.4914 C   0  0  0  0  0  0
  -23.6315  -29.8192   20.1628 C   0  0  0  0  0  0
  -25.4124  -36.3136   24.0344 C   0  0  1  0  0  0
  -20.5896  -28.3687   23.1306 C   0  0  2  0  0  0
  -20.6802  -26.9417   22.5419 C   0  0  0  0  0  0
  -19.5775  -26.6402   21.5224 C   0  0  0  0  0  0
  -18.1951  -26.7948   22.1623 C   0  0  0  0  0  0
  -19.1549  -28.8864   23.2900 C   0  0  0  0  0  0
  -18.9459  -30.1460   23.8930 C   0  0  0  0  0  0
  -17.6460  -30.6593   24.0567 C   0  0  0  0  0  0
  -25.9039  -34.9491   23.5148 C   0  0  0  0  0  0
  -16.5356  -29.9091   23.6328 C   0  0  0  0  0  0
  -16.7282  -28.6503   23.0367 C   0  0  0  0  0  0
  -26.4446  -31.6616   25.0713 C   0  0  0  0  0  0
  -25.3664  -31.3723   26.1426 C   0  0  0  0  0  0
  -27.0266  -30.3063   24.6095 C   0  0  0  0  0  0
  -27.6076  -32.4307   25.7419 C   0  0  0  0  0  0
  -27.5620  -37.1807   24.8454 C   0  0  0  0  0  0
  -21.4209  -29.3034   22.3689 N   0  0  0  0  0  0
  -26.4324  -37.3814   23.9404 N   0  0  0  0  0  0
  -24.6845  -31.0668   22.0982 N   0  0  0  0  0  0
  -23.4224  -28.8178   23.3017 O   0  0  0  0  0  0
  -28.3598  -26.5240   20.1508 O   0  0  0  0  0  0
  -26.5622  -34.8935   22.4718 O   0  0  0  0  0  0
  -23.5383  -32.1408   23.7378 O   0  0  0  0  0  0
  -29.5723  -17.7522   18.7511 C   0  0  0  0  0  0
  -29.6605  -19.5470   20.4045 C   0  0  0  0  0  0
  -29.8404  -18.1585   20.0716 C   0  0  0  0  0  0
  -29.1439  -18.6719   17.7758 C   0  0  0  0  0  0
  -28.9606  -20.0369   18.1128 C   0  0  0  0  0  0
  -29.2140  -20.5025   19.4283 C   0  0  0  0  0  0
  -28.9078  -18.1660   16.3603 C   0  0  0  0  0  0
  -28.5219  -21.0498   17.0561 C   0  0  0  0  0  0
  -30.3885  -17.0928   21.0676 C   0  0  0  0  0  0
  -29.4502  -24.2049   20.4333 C   0  0  0  0  0  0
  -28.1658  -25.0648   20.1319 C   0  0  0  0  0  0
  -29.3255  -22.6543   20.7422 C   0  0  0  0  0  0
  -29.9461  -15.6688   20.9089 N   0  0  0  0  0  0
  -28.9847  -21.8783   19.5845 O   0  0  0  0  0  0
  -31.4764  -12.4728   19.1372 H   0  0  0  0  0  0
  -30.3578  -11.3748   19.8943 H   0  0  0  0  0  0
  -29.7652  -11.7456   17.4706 H   0  0  0  0  0  0
  -29.6365  -13.4631   17.7464 H   0  0  0  0  0  0
  -27.8983  -11.2646   18.9238 H   0  0  0  0  0  0
  -27.3577  -12.4951   17.8159 H   0  0  0  0  0  0
  -27.6775  -14.2370   19.5122 H   0  0  0  0  0  0
  -28.7156  -12.0550   21.3882 H   0  0  0  0  0  0
  -28.4656  -13.7151   21.8431 H   0  0  0  0  0  0
  -25.2760   -9.5648   22.4773 H   0  0  0  0  0  0
  -23.9978   -7.4610   22.7462 H   0  0  0  0  0  0
  -21.0806   -8.8813   19.8996 H   0  0  0  0  0  0
  -22.3675  -10.9703   19.6220 H   0  0  0  0  0  0
  -21.2030   -7.6156   23.9742 H   0  0  0  0  0  0
  -21.1481   -6.0528   25.9093 H   0  0  0  0  0  0
  -22.0580   -2.7614   23.2861 H   0  0  0  0  0  0
  -22.4068  -12.0026   22.4946 H   0  0  0  0  0  0
  -21.1128  -13.1422   22.2612 H   0  0  0  0  0  0
  -24.6644  -15.8444   20.5222 H   0  0  0  0  0  0
  -26.2763  -15.6251   20.0654 H   0  0  0  0  0  0
  -26.7100  -32.5533   23.1113 H   0  0  0  0  0  0
  -24.9988  -33.9785   25.0453 H   0  0  0  0  0  0
  -22.7081  -31.3030   21.4032 H   0  0  0  0  0  0
  -23.3799  -35.9619   23.3284 H   0  0  0  0  0  0
  -24.3608  -36.8951   22.2050 H   0  0  0  0  0  0
  -23.7215  -37.6502   23.6651 H   0  0  0  0  0  0
  -26.0800  -31.5610   20.6012 H   0  0  0  0  0  0
  -26.8401  -30.8564   21.9974 H   0  0  0  0  0  0
  -28.1183  -29.0004   21.1784 H   0  0  0  0  0  0
  -25.9821  -25.9419   18.9981 H   0  0  0  0  0  0
  -23.9698  -27.3156   19.0148 H   0  0  0  0  0  0
  -23.7450  -30.5897   19.3992 H   0  0  0  0  0  0
  -22.7547  -29.2411   19.8692 H   0  0  0  0  0  0
  -25.1301  -36.2028   25.0844 H   0  0  0  0  0  0
  -20.9992  -28.3262   24.1424 H   0  0  0  0  0  0
  -20.5754  -26.2279   23.3603 H   0  0  0  0  0  0
  -21.6664  -26.7486   22.1177 H   0  0  0  0  0  0
  -19.6938  -25.6323   21.1237 H   0  0  0  0  0  0
  -19.6726  -27.3229   20.6771 H   0  0  0  0  0  0
  -17.4231  -26.6720   21.4014 H   0  0  0  0  0  0
  -18.0321  -26.0088   22.9011 H   0  0  0  0  0  0
  -19.7930  -30.7266   24.2342 H   0  0  0  0  0  0
  -17.5007  -31.6278   24.5150 H   0  0  0  0  0  0
  -15.5362  -30.2992   23.7650 H   0  0  0  0  0  0
  -15.8684  -28.0818   22.7097 H   0  0  0  0  0  0
  -24.5825  -30.7127   25.7687 H   0  0  0  0  0  0
  -24.8849  -32.2872   26.4890 H   0  0  0  0  0  0
  -25.7928  -30.8817   27.0179 H   0  0  0  0  0  0
  -26.2810  -29.6847   24.1129 H   0  0  0  0  0  0
  -27.4020  -29.7291   25.4548 H   0  0  0  0  0  0
  -27.8660  -30.4408   23.9271 H   0  0  0  0  0  0
  -27.2782  -33.3615   26.2043 H   0  0  0  0  0  0
  -28.3807  -32.6851   25.0155 H   0  0  0  0  0  0
  -28.0821  -31.8386   26.5250 H   0  0  0  0  0  0
  -28.2619  -38.0129   24.7567 H   0  0  0  0  0  0
  -28.1152  -36.2669   24.6223 H   0  0  0  0  0  0
  -27.2338  -37.1381   25.8855 H   0  0  0  0  0  0
  -20.9408  -29.8696   21.6843 H   0  0  0  0  0  0
  -26.0247  -38.2902   24.1425 H   0  0  0  0  0  0
  -29.7261  -16.7185   18.4737 H   0  0  0  0  0  0
  -29.8740  -19.8758   21.4128 H   0  0  0  0  0  0
  -29.0396  -17.0856   16.2902 H   0  0  0  0  0  0
  -29.6062  -18.6308   15.6629 H   0  0  0  0  0  0
  -27.8896  -18.3832   16.0403 H   0  0  0  0  0  0
  -28.0778  -20.5986   16.1712 H   0  0  0  0  0  0
  -29.3819  -21.6362   16.7330 H   0  0  0  0  0  0
  -27.7759  -21.7389   17.4556 H   0  0  0  0  0  0
  -30.1386  -17.4054   22.0813 H   0  0  0  0  0  0
  -31.4777  -17.1408   21.0183 H   0  0  0  0  0  0
  -29.9396  -24.6531   21.2979 H   0  0  0  0  0  0
  -30.1521  -24.3364   19.6091 H   0  0  0  0  0  0
  -27.3889  -24.8005   20.8522 H   0  0  0  0  0  0
  -27.7964  -24.7616   19.1525 H   0  0  0  0  0  0
  -28.6010  -22.4816   21.5395 H   0  0  0  0  0  0
  -30.2883  -22.3005   21.1150 H   0  0  0  0  0  0
  -28.9945  -15.4757   21.1810 H   0  0  0  0  0  0
  1 25  1  0  0  0
  1 30  2  0  0  0
  1 83  1  0  0  0
  2  3  1  0  0  0
  2 25  1  0  0  0
  2 85  1  0  0  0
  2 86  1  0  0  0
  3  4  1  0  0  0
  3 87  1  0  0  0
  3 88  1  0  0  0
  4  5  1  0  0  0
  4 89  1  0  0  0
  4 90  1  0  0  0
  5  6  1  0  0  0
  5 26  1  0  0  0
  5 91  1  0  0  0
  6 25  1  0  0  0
  6 92  1  0  0  0
  6 93  1  0  0  0
  7  8  2  0  0  0
  7 26  1  0  0  0
  7 29  1  0  0  0
  8  9  1  0  0  0
  8 22  1  0  0  0
  9 10  1  0  0  0
  9 27  2  0  0  0
 10 11  2  0  0  0
 10 15  1  0  0  0
 11 12  1  0  0  0
 11 94  1  0  0  0
 12 13  2  0  0  0
 12 95  1  0  0  0
 13 14  1  0  0  0
 13 31  1  0  0  0
 14 15  2  0  0  0
 14 96  1  0  0  0
 15 97  1  0  0  0
 16 17  2  0  0  0
 16 21  1  0  0  0
 16 31  1  0  0  0
 17 18  1  0  0  0
 17 98  1  0  0  0
 18 19  2  0  0  0
 18 99  1  0  0  0
 19 20  1  0  0  0
 19 24  1  0  0  0
 20 21  2  0  0  0
 20100  1  0  0  0
 21 23  1  0  0  0
 22 28  1  0  0  0
 22 32  2  0  0  0
 26 27  1  0  0  0
 28101  1  0  0  0
 28102  1  0  0  0
 29103  1  0  0  0
 29104  1  0  0  0
 33 34  1  0  0  0
 33 66  1  0  0  0
 33 70  2  0  0  0
 34 36  1  0  0  0
 34 59  1  0  0  0
 34105  1  0  0  0
 35 44  2  0  0  0
 35 45  1  0  0  0
 35 68  1  0  0  0
 36 56  1  0  0  0
 36106  1  0  0  0
 37 39  1  0  0  0
 37 47  1  0  0  0
 37 66  1  0  0  0
 37107  1  0  0  0
 38 43  2  0  0  0
 38 46  1  0  0  0
 38 47  1  0  0  0
 39 64  1  0  0  0
 39 67  2  0  0  0
 40 52  1  0  0  0
 40 53  2  0  0  0
 40 58  1  0  0  0
 41108  1  0  0  0
 41109  1  0  0  0
 41110  1  0  0  0
 41 48  1  0  0  0
 42 43  1  0  0  0
 42 66  1  0  0  0
 42111  1  0  0  0
 42112  1  0  0  0
 43 44  1  0  0  0
 44113  1  0  0  0
 45 46  2  0  0  0
 45114  1  0  0  0
 46115  1  0  0  0
 47116  1  0  0  0
 47117  1  0  0  0
 48 56  1  0  0  0
 48 65  1  0  0  0
 48118  1  0  0  0
 49 50  1  0  0  0
 49 53  1  0  0  0
 49 64  1  0  0  0
 49119  1  0  0  0
 50 51  1  0  0  0
 50120  1  0  0  0
 50121  1  0  0  0
 51 52  1  0  0  0
 51122  1  0  0  0
 51123  1  0  0  0
 52124  1  0  0  0
 52125  1  0  0  0
 53 54  1  0  0  0
 54 55  2  0  0  0
 54126  1  0  0  0
 55 57  1  0  0  0
 55127  1  0  0  0
 56 69  2  0  0  0
 57 58  2  0  0  0
 57128  1  0  0  0
 58129  1  0  0  0
 59 60  1  0  0  0
 59 61  1  0  0  0
 59 62  1  0  0  0
 60130  1  0  0  0
 60131  1  0  0  0
 60132  1  0  0  0
 61133  1  0  0  0
 61134  1  0  0  0
 61135  1  0  0  0
 62136  1  0  0  0
 62137  1  0  0  0
 62138  1  0  0  0
 63 65  1  0  0  0
 63139  1  0  0  0
 63140  1  0  0  0
 63141  1  0  0  0
 64142  1  0  0  0
 65143  1  0  0  0
 68 81  1  0  0  0
 71 73  2  0  0  0
 71 74  1  0  0  0
 71144  1  0  0  0
 72 73  1  0  0  0
 72 76  2  0  0  0
 72145  1  0  0  0
 73 79  1  0  0  0
 74 75  2  0  0  0
 74 77  1  0  0  0
 75 76  1  0  0  0
 75 78  1  0  0  0
 76 84  1  0  0  0
 77146  1  0  0  0
 77147  1  0  0  0
 77148  1  0  0  0
 78149  1  0  0  0
 78150  1  0  0  0
 78151  1  0  0  0
 79 83  1  0  0  0
 79152  1  0  0  0
 79153  1  0  0  0
 80 81  1  0  0  0
 80 82  1  0  0  0
 80154  1  0  0  0
 80155  1  0  0  0
 81156  1  0  0  0
 81157  1  0  0  0
 82 84  1  0  0  0
 82158  1  0  0  0
 82159  1  0  0  0
 83160  1  0  0  0
M  ISO  4   1 100  68 101  81 101  83 100
M  END
> <chiral flag>
0

> <version>
0

> <s_m_source_file>
/data/baiqing/PycharmProjects/Reinvent-master-3.2/result/LINK_invent/BTK/process_docking_weight1_custom_sum_contain_oxygen_bond_distance_aromatic_linkinvent_7_9_3/rearranged_h_0035.sdf

> <i_m_source_file_index>
53

> <r_mmod_Potential_Energy-OPLS-2005>
-59.8376159667969

> <r_mmod_Stretch_Energy-OPLS-2005>
66.0244750976562

> <r_mmod_Bend_Energy-OPLS-2005>
141.228317260742

> <r_mmod_Torsional_Energy-OPLS-2005>
197.14518737793

> <r_mmod_Improper_Torsional_Energy-OPLS-2005>
3.726646900177

> <r_mmod_Van_der_Waal_Energy-OPLS-2005>
147.903137207031

> <r_mmod_Electrostatic_Energy-OPLS-2005>
-440.367584228516

> <r_mmod_Solvation_Energy-OPLS-2005>
-212.687805175781

> <b_mmod_Minimization_Converged-OPLS-2005>
0

> <r_mmod_RMS_Derivative-OPLS-2005>
3.28813171386719

$$$$
53
                    3D
 Structure written by MMmdl.
156164  0  0  1  0            999 V2000
  -30.5519  -14.9763   20.4848 C   0  0  0  0  0  0
  -30.4434  -12.6057   19.5616 C   0  0  0  0  0  0
  -29.5509  -12.5548   18.2980 C   0  0  0  0  0  0
  -28.0787  -12.3367   18.6938 C   0  0  0  0  0  0
  -27.6357  -13.2631   19.8566 C   0  0  2  0  0  0
  -28.6627  -13.2993   21.0123 C   0  0  0  0  0  0
  -25.2452  -13.8220   20.5733 C   0  0  0  0  0  0
  -24.1755  -13.0434   20.9206 C   0  0  0  0  0  0
  -24.6415  -11.6927   20.8742 C   0  0  0  0  0  0
  -23.9134  -10.4300   21.0404 C   0  0  0  0  0  0
  -24.3674   -9.4192   21.9182 C   0  0  0  0  0  0
  -23.6277   -8.2275   22.0757 C   0  0  0  0  0  0
  -22.4242   -8.0345   21.3597 C   0  0  0  0  0  0
  -21.9932   -9.0314   20.4690 C   0  0  0  0  0  0
  -22.7295  -10.2160   20.3052 C   0  0  0  0  0  0
  -21.6833   -6.0755   22.5276 C   0  0  0  0  0  0
  -21.4034   -6.5638   23.8224 C   0  0  0  0  0  0
  -21.3660   -5.6787   24.9177 C   0  0  0  0  0  0
  -21.6041   -4.3051   24.7212 C   0  0  0  0  0  0
  -21.8807   -3.8157   23.4324 C   0  0  0  0  0  0
  -21.9174   -4.6986   22.3394 C   0  0  0  0  0  0
  -22.7779  -13.5213   21.1844 C   0  0  0  0  0  0
  -22.1652   -4.2205   21.0958 F   0  0  0  0  0  0
  -21.5615   -3.4511   25.7720 F   0  0  0  0  0  0
  -29.9522  -13.7105   20.4404 N   0  0  0  0  0  0
  -26.2909  -12.9499   20.3275 N   0  0  0  0  0  0
  -25.9360  -11.6606   20.5729 N   0  0  0  0  0  0
  -22.0431  -12.8243   22.0438 N   0  0  0  0  0  0
  -25.4062  -15.1959   20.4203 N   0  0  0  0  0  0
  -31.7318  -15.0336   20.1160 O   0  0  0  0  0  0
  -21.6626   -6.8919   21.4247 O   0  0  0  0  0  0
  -22.3461  -14.5517   20.6654 O   0  0  0  0  0  0
  -24.6412  -31.8433   23.1924 C   0  0  0  0  0  0
  -25.9188  -32.4712   23.8298 C   0  0  1  0  0  0
  -27.2131  -27.1189   20.1696 C   0  0  0  0  0  0
  -25.5947  -33.8510   24.2171 N   0  0  0  0  0  0
  -23.4449  -30.4643   21.5392 C   0  0  2  0  0  0
  -24.9010  -28.8921   20.1089 C   0  0  0  0  0  0
  -22.7578  -29.4521   22.4900 C   0  0  0  0  0  0
  -18.0308  -28.1400   22.8504 C   0  0  0  0  0  0
  -24.1510  -36.7244   23.2634 C   0  0  0  0  0  0
  -26.0053  -30.7130   21.3989 C   0  0  0  0  0  0
  -26.0761  -29.3228   20.7347 C   0  0  0  0  0  0
  -27.2353  -28.4559   20.7412 C   0  0  0  0  0  0
  -26.0152  -26.7921   19.4958 C   0  0  0  0  0  0
  -24.8867  -27.6430   19.4680 C   0  0  0  0  0  0
  -23.6749  -29.7969   20.1541 C   0  0  0  0  0  0
  -25.4148  -36.3039   24.0300 C   0  0  1  0  0  0
  -20.5929  -28.3714   23.1297 C   0  0  2  0  0  0
  -20.6806  -26.9418   22.5461 C   0  0  0  0  0  0
  -19.5793  -26.6374   21.5267 C   0  0  0  0  0  0
  -18.1953  -26.7966   22.1628 C   0  0  0  0  0  0
  -19.1558  -28.8887   23.2891 C   0  0  0  0  0  0
  -18.9472  -30.1485   23.8932 C   0  0  0  0  0  0
  -17.6458  -30.6599   24.0566 C   0  0  0  0  0  0
  -25.9082  -34.9420   23.5044 C   0  0  0  0  0  0
  -16.5355  -29.9096   23.6344 C   0  0  0  0  0  0
  -16.7282  -28.6504   23.0389 C   0  0  0  0  0  0
  -26.4512  -31.6582   25.0738 C   0  0  0  0  0  0
  -25.3665  -31.3815   26.1414 C   0  0  0  0  0  0
  -27.0345  -30.2974   24.6329 C   0  0  0  0  0  0
  -27.6081  -32.4333   25.7485 C   0  0  0  0  0  0
  -27.5598  -37.1764   24.8444 C   0  0  0  0  0  0
  -21.4271  -29.3024   22.3644 N   0  0  0  0  0  0
  -26.4298  -37.3762   23.9404 N   0  0  0  0  0  0
  -24.7172  -31.0293   22.0980 N   0  0  0  0  0  0
  -23.4220  -28.8073   23.3033 O   0  0  0  0  0  0
  -28.2707  -26.1262   20.1966 O   0  0  0  0  0  0
  -26.5674  -34.8916   22.4628 O   0  0  0  0  0  0
  -23.5536  -32.1322   23.7151 O   0  0  0  0  0  0
  -28.4371  -21.6313   22.1402 C   0  0  0  0  0  0
  -29.3939  -20.4178   20.2869 C   0  0  0  0  0  0
  -28.9036  -21.7236   20.8147 C   0  0  0  0  0  0
  -28.5189  -20.4412   22.9050 C   0  0  0  0  0  0
  -29.4827  -19.1189   21.0241 C   0  0  0  0  0  0
  -29.0714  -19.2263   22.3883 C   0  0  0  0  0  0
  -28.0317  -20.5301   24.3517 C   0  0  0  0  0  0
  -29.2659  -18.0406   23.3339 C   0  0  0  0  0  0
  -28.9363  -23.2331   20.1101 C   0  0  0  0  0  0
  -30.1636  -17.7057   20.4489 C   0  0  0  0  0  0
  -28.0223  -24.6106   20.5363 C   0  0  0  0  0  0
  -29.8239  -16.1764   20.7511 N   0  0  0  0  0  0
  -31.4928  -12.7342   19.2867 H   0  0  0  0  0  0
  -30.4068  -11.6530   20.0966 H   0  0  0  0  0  0
  -29.8815  -11.7638   17.6231 H   0  0  0  0  0  0
  -29.6596  -13.4889   17.7452 H   0  0  0  0  0  0
  -27.9747  -11.2938   18.9967 H   0  0  0  0  0  0
  -27.4302  -12.4778   17.8268 H   0  0  0  0  0  0
  -27.5987  -14.2673   19.4282 H   0  0  0  0  0  0
  -28.7371  -12.3299   21.5129 H   0  0  0  0  0  0
  -28.3451  -14.0147   21.7742 H   0  0  0  0  0  0
  -25.2817   -9.5619   22.4750 H   0  0  0  0  0  0
  -23.9992   -7.4616   22.7384 H   0  0  0  0  0  0
  -21.0898   -8.8824   19.8963 H   0  0  0  0  0  0
  -22.3770  -10.9698   19.6162 H   0  0  0  0  0  0
  -21.2079   -7.6158   23.9750 H   0  0  0  0  0  0
  -21.1479   -6.0510   25.9086 H   0  0  0  0  0  0
  -22.0586   -2.7624   23.2772 H   0  0  0  0  0  0
  -22.4019  -11.9974   22.4991 H   0  0  0  0  0  0
  -21.1047  -13.1297   22.2581 H   0  0  0  0  0  0
  -24.6352  -15.8418   20.5391 H   0  0  0  0  0  0
  -26.2484  -15.6517   20.0921 H   0  0  0  0  0  0
  -26.7246  -32.5307   23.0995 H   0  0  0  0  0  0
  -25.0092  -33.9666   25.0322 H   0  0  0  0  0  0
  -22.7457  -31.2895   21.3935 H   0  0  0  0  0  0
  -23.3805  -35.9533   23.3278 H   0  0  0  0  0  0
  -24.3574  -36.8903   22.2052 H   0  0  0  0  0  0
  -23.7236  -37.6417   23.6701 H   0  0  0  0  0  0
  -26.1707  -31.4725   20.6341 H   0  0  0  0  0  0
  -26.8697  -30.7579   22.0479 H   0  0  0  0  0  0
  -28.1363  -28.7899   21.2378 H   0  0  0  0  0  0
  -25.9316  -25.8430   18.9890 H   0  0  0  0  0  0
  -23.9939  -27.3169   18.9508 H   0  0  0  0  0  0
  -23.8153  -30.5807   19.4098 H   0  0  0  0  0  0
  -22.7876  -29.2485   19.8364 H   0  0  0  0  0  0
  -25.1327  -36.1873   25.0791 H   0  0  0  0  0  0
  -21.0000  -28.3330   24.1431 H   0  0  0  0  0  0
  -20.5813  -26.2283   23.3638 H   0  0  0  0  0  0
  -21.6663  -26.7499   22.1198 H   0  0  0  0  0  0
  -19.6941  -25.6286   21.1304 H   0  0  0  0  0  0
  -19.6769  -27.3195   20.6819 H   0  0  0  0  0  0
  -17.4237  -26.6765   21.4005 H   0  0  0  0  0  0
  -18.0307  -26.0094   22.9006 H   0  0  0  0  0  0
  -19.7921  -30.7314   24.2336 H   0  0  0  0  0  0
  -17.4991  -31.6302   24.5119 H   0  0  0  0  0  0
  -15.5366  -30.2993   23.7675 H   0  0  0  0  0  0
  -15.8660  -28.0805   22.7151 H   0  0  0  0  0  0
  -24.5827  -30.7189   25.7734 H   0  0  0  0  0  0
  -24.8862  -32.3017   26.4777 H   0  0  0  0  0  0
  -25.7898  -30.9009   27.0233 H   0  0  0  0  0  0
  -26.2949  -29.6727   24.1307 H   0  0  0  0  0  0
  -27.3923  -29.7295   25.4929 H   0  0  0  0  0  0
  -27.8905  -30.4238   23.9681 H   0  0  0  0  0  0
  -27.2700  -33.3629   26.2080 H   0  0  0  0  0  0
  -28.3855  -32.6866   25.0261 H   0  0  0  0  0  0
  -28.0765  -31.8416   26.5354 H   0  0  0  0  0  0
  -28.2582  -38.0103   24.7545 H   0  0  0  0  0  0
  -28.1123  -36.2624   24.6192 H   0  0  0  0  0  0
  -27.2299  -37.1334   25.8842 H   0  0  0  0  0  0
  -20.9479  -29.8619   21.6699 H   0  0  0  0  0  0
  -26.0160  -38.2808   24.1481 H   0  0  0  0  0  0
  -28.0387  -22.5204   22.6099 H   0  0  0  0  0  0
  -29.7529  -20.4172   19.2654 H   0  0  0  0  0  0
  -27.3893  -21.3996   24.5043 H   0  0  0  0  0  0
  -28.8769  -20.6318   25.0361 H   0  0  0  0  0  0
  -27.4501  -19.6541   24.6437 H   0  0  0  0  0  0
  -29.3834  -18.3289   24.3840 H   0  0  0  0  0  0
  -30.1778  -17.4896   23.1001 H   0  0  0  0  0  0
  -28.4059  -17.3722   23.2651 H   0  0  0  0  0  0
  -28.8062  -23.0750   19.0400 H   0  0  0  0  0  0
  -29.9793  -23.5322   20.2083 H   0  0  0  0  0  0
  -31.2199  -17.8031   20.7081 H   0  0  0  0  0  0
  -30.1526  -17.8026   19.3666 H   0  0  0  0  0  0
  -28.0505  -24.6281   21.6222 H   0  0  0  0  0  0
  -26.9847  -24.3712   20.2993 H   0  0  0  0  0  0
  -28.8871  -16.0214   21.0918 H   0  0  0  0  0  0
  1 25  1  0  0  0
  1 30  2  0  0  0
  1 82  1  0  0  0
  2  3  1  0  0  0
  2 25  1  0  0  0
  2 83  1  0  0  0
  2 84  1  0  0  0
  3  4  1  0  0  0
  3 85  1  0  0  0
  3 86  1  0  0  0
  4  5  1  0  0  0
  4 87  1  0  0  0
  4 88  1  0  0  0
  5  6  1  0  0  0
  5 26  1  0  0  0
  5 89  1  0  0  0
  6 25  1  0  0  0
  6 90  1  0  0  0
  6 91  1  0  0  0
  7  8  2  0  0  0
  7 26  1  0  0  0
  7 29  1  0  0  0
  8  9  1  0  0  0
  8 22  1  0  0  0
  9 10  1  0  0  0
  9 27  2  0  0  0
 10 11  2  0  0  0
 10 15  1  0  0  0
 11 12  1  0  0  0
 11 92  1  0  0  0
 12 13  2  0  0  0
 12 93  1  0  0  0
 13 14  1  0  0  0
 13 31  1  0  0  0
 14 15  2  0  0  0
 14 94  1  0  0  0
 15 95  1  0  0  0
 16 17  2  0  0  0
 16 21  1  0  0  0
 16 31  1  0  0  0
 17 18  1  0  0  0
 17 96  1  0  0  0
 18 19  2  0  0  0
 18 97  1  0  0  0
 19 20  1  0  0  0
 19 24  1  0  0  0
 20 21  2  0  0  0
 20 98  1  0  0  0
 21 23  1  0  0  0
 22 28  1  0  0  0
 22 32  2  0  0  0
 26 27  1  0  0  0
 28 99  1  0  0  0
 28100  1  0  0  0
 29101  1  0  0  0
 29102  1  0  0  0
 33 34  1  0  0  0
 33 66  1  0  0  0
 33 70  2  0  0  0
 34 36  1  0  0  0
 34 59  1  0  0  0
 34103  1  0  0  0
 35 44  2  0  0  0
 35 45  1  0  0  0
 35 68  1  0  0  0
 36 56  1  0  0  0
 36104  1  0  0  0
 37 39  1  0  0  0
 37 47  1  0  0  0
 37 66  1  0  0  0
 37105  1  0  0  0
 38 43  2  0  0  0
 38 46  1  0  0  0
 38 47  1  0  0  0
 39 64  1  0  0  0
 39 67  2  0  0  0
 40 52  1  0  0  0
 40 53  2  0  0  0
 40 58  1  0  0  0
 41106  1  0  0  0
 41107  1  0  0  0
 41108  1  0  0  0
 41 48  1  0  0  0
 42 43  1  0  0  0
 42 66  1  0  0  0
 42109  1  0  0  0
 42110  1  0  0  0
 43 44  1  0  0  0
 44111  1  0  0  0
 45 46  2  0  0  0
 45112  1  0  0  0
 46113  1  0  0  0
 47114  1  0  0  0
 47115  1  0  0  0
 48 56  1  0  0  0
 48 65  1  0  0  0
 48116  1  0  0  0
 49 50  1  0  0  0
 49 53  1  0  0  0
 49 64  1  0  0  0
 49117  1  0  0  0
 50 51  1  0  0  0
 50118  1  0  0  0
 50119  1  0  0  0
 51 52  1  0  0  0
 51120  1  0  0  0
 51121  1  0  0  0
 52122  1  0  0  0
 52123  1  0  0  0
 53 54  1  0  0  0
 54 55  2  0  0  0
 54124  1  0  0  0
 55 57  1  0  0  0
 55125  1  0  0  0
 56 69  2  0  0  0
 57 58  2  0  0  0
 57126  1  0  0  0
 58127  1  0  0  0
 59 60  1  0  0  0
 59 61  1  0  0  0
 59 62  1  0  0  0
 60128  1  0  0  0
 60129  1  0  0  0
 60130  1  0  0  0
 61131  1  0  0  0
 61132  1  0  0  0
 61133  1  0  0  0
 62134  1  0  0  0
 62135  1  0  0  0
 62136  1  0  0  0
 63 65  1  0  0  0
 63137  1  0  0  0
 63138  1  0  0  0
 63139  1  0  0  0
 64140  1  0  0  0
 65141  1  0  0  0
 68 81  1  0  0  0
 71 73  2  0  0  0
 71 74  1  0  0  0
 71142  1  0  0  0
 72 73  1  0  0  0
 72 75  2  0  0  0
 72143  1  0  0  0
 73 79  1  0  0  0
 74 76  2  0  0  0
 74 77  1  0  0  0
 75 76  1  0  0  0
 75 80  1  0  0  0
 76 78  1  0  0  0
 77144  1  0  0  0
 77145  1  0  0  0
 77146  1  0  0  0
 78147  1  0  0  0
 78148  1  0  0  0
 78149  1  0  0  0
 79 81  1  0  0  0
 79150  1  0  0  0
 79151  1  0  0  0
 80 82  1  0  0  0
 80152  1  0  0  0
 80153  1  0  0  0
 81154  1  0  0  0
 81155  1  0  0  0
 82156  1  0  0  0
M  ISO  4   1 100  68 101  81 101  82 100
M  END
> <chiral flag>
0

> <version>
0

> <s_m_source_file>
/data/baiqing/PycharmProjects/Reinvent-master-3.2/result/LINK_invent/BTK/process_docking_weight1_custom_sum_contain_oxygen_bond_distance_aromatic_linkinvent_7_9_3/rearranged_h_0035.sdf

> <i_m_source_file_index>
54

> <r_mmod_Potential_Energy-OPLS-2005>
499.949066162109

> <r_mmod_Stretch_Energy-OPLS-2005>
293.719177246094

> <r_mmod_Bend_Energy-OPLS-2005>
264.317138671875

> <r_mmod_Torsional_Energy-OPLS-2005>
217.618362426758

> <r_mmod_Improper_Torsional_Energy-OPLS-2005>
5.01045751571655

> <r_mmod_Van_der_Waal_Energy-OPLS-2005>
132.710266113281

> <r_mmod_Electrostatic_Energy-OPLS-2005>
-412.134552001953

> <r_mmod_Solvation_Energy-OPLS-2005>
-207.829696655273

> <b_mmod_Minimization_Converged-OPLS-2005>
0

> <r_mmod_RMS_Derivative-OPLS-2005>
6.97146034240723

$$$$
54
                    3D
 Structure written by MMmdl.
173181  0  0  1  0            999 V2000
  -30.7340  -14.3782   20.6660 C   0  0  0  0  0  0
  -30.4228  -12.2891   19.3905 C   0  0  0  0  0  0
  -29.4875  -12.5225   18.1904 C   0  0  0  0  0  0
  -28.0110  -12.3759   18.6057 C   0  0  0  0  0  0
  -27.6671  -13.1943   19.8811 C   0  0  2  0  0  0
  -28.7043  -12.9178   20.9903 C   0  0  0  0  0  0
  -25.2616  -13.8130   20.5696 C   0  0  0  0  0  0
  -24.1840  -13.0433   20.9162 C   0  0  0  0  0  0
  -24.6357  -11.6892   20.8665 C   0  0  0  0  0  0
  -23.8990  -10.4293   21.0353 C   0  0  0  0  0  0
  -24.3565   -9.4238   21.9139 C   0  0  0  0  0  0
  -23.6272   -8.2257   22.0727 C   0  0  0  0  0  0
  -22.4245   -8.0268   21.3540 C   0  0  0  0  0  0
  -21.9857   -9.0206   20.4614 C   0  0  0  0  0  0
  -22.7145  -10.2109   20.3022 C   0  0  0  0  0  0
  -21.6853   -6.0713   22.5273 C   0  0  0  0  0  0
  -21.3987   -6.5625   23.8196 C   0  0  0  0  0  0
  -21.3681   -5.6789   24.9174 C   0  0  0  0  0  0
  -21.6073   -4.3050   24.7218 C   0  0  0  0  0  0
  -21.8814   -3.8130   23.4340 C   0  0  0  0  0  0
  -21.9197   -4.6941   22.3395 C   0  0  0  0  0  0
  -22.7864  -13.5236   21.1844 C   0  0  0  0  0  0
  -22.1660   -4.2135   21.0973 F   0  0  0  0  0  0
  -21.5653   -3.4544   25.7739 F   0  0  0  0  0  0
  -30.0431  -13.2281   20.4539 N   0  0  0  0  0  0
  -26.3047  -12.9283   20.3380 N   0  0  0  0  0  0
  -25.9287  -11.6454   20.5719 N   0  0  0  0  0  0
  -22.0505  -12.8219   22.0410 N   0  0  0  0  0  0
  -25.4356  -15.1837   20.4112 N   0  0  0  0  0  0
  -31.7827  -14.6616   20.0810 O   0  0  0  0  0  0
  -21.6644   -6.8838   21.4228 O   0  0  0  0  0  0
  -22.3568  -14.5565   20.6736 O   0  0  0  0  0  0
  -24.6140  -31.8666   23.2133 C   0  0  0  0  0  0
  -25.9043  -32.4812   23.8387 C   0  0  1  0  0  0
  -27.2271  -27.4504   20.0749 C   0  0  0  0  0  0
  -25.5912  -33.8618   24.2337 N   0  0  0  0  0  0
  -23.3963  -30.4974   21.5538 C   0  0  2  0  0  0
  -24.8327  -28.9625   20.1201 C   0  0  0  0  0  0
  -22.7376  -29.4672   22.4989 C   0  0  0  0  0  0
  -18.0262  -28.1385   22.8496 C   0  0  0  0  0  0
  -24.1469  -36.7317   23.2640 C   0  0  0  0  0  0
  -25.9243  -30.8404   21.3578 C   0  0  0  0  0  0
  -25.9962  -29.4761   20.7059 C   0  0  0  0  0  0
  -27.1929  -28.7284   20.6768 C   0  0  0  0  0  0
  -26.0386  -26.9474   19.4993 C   0  0  0  0  0  0
  -24.8474  -27.6934   19.5228 C   0  0  0  0  0  0
  -23.5983  -29.8300   20.1688 C   0  0  0  0  0  0
  -25.4095  -36.3117   24.0338 C   0  0  1  0  0  0
  -20.5852  -28.3655   23.1328 C   0  0  2  0  0  0
  -20.6775  -26.9402   22.5411 C   0  0  0  0  0  0
  -19.5750  -26.6405   21.5216 C   0  0  0  0  0  0
  -18.1920  -26.7936   22.1621 C   0  0  0  0  0  0
  -19.1514  -28.8840   23.2914 C   0  0  0  0  0  0
  -18.9446  -30.1444   23.8914 C   0  0  0  0  0  0
  -17.6446  -30.6592   24.0565 C   0  0  0  0  0  0
  -25.9012  -34.9476   23.5133 C   0  0  0  0  0  0
  -16.5339  -29.9094   23.6350 C   0  0  0  0  0  0
  -16.7251  -28.6517   23.0351 C   0  0  0  0  0  0
  -26.4500  -31.6575   25.0699 C   0  0  0  0  0  0
  -25.3786  -31.3643   26.1455 C   0  0  0  0  0  0
  -27.0329  -30.3017   24.6055 C   0  0  0  0  0  0
  -27.6084  -32.4274   25.7464 C   0  0  0  0  0  0
  -27.5570  -37.1817   24.8473 C   0  0  0  0  0  0
  -21.4102  -29.3044   22.3741 N   0  0  0  0  0  0
  -26.4288  -37.3810   23.9411 N   0  0  0  0  0  0
  -24.6640  -31.0808   22.1005 N   0  0  0  0  0  0
  -23.4162  -28.8200   23.3008 O   0  0  0  0  0  0
  -28.4392  -26.7926   20.0430 O   0  0  0  0  0  0
  -26.5580  -34.8942   22.4692 O   0  0  0  0  0  0
  -23.5355  -32.1401   23.7567 O   0  0  0  0  0  0
  -26.6313  -24.0988   21.1865 C   0  0  0  0  0  0
  -28.6480  -24.5874   22.4095 C   0  0  0  0  0  0
  -27.9212  -24.6683   21.2101 C   0  0  0  0  0  0
  -26.1294  -23.4843   22.3516 C   0  0  0  0  0  0
  -26.9517  -23.4394   23.4996 C   0  0  0  0  0  0
  -24.7294  -22.8908   22.3502 C   0  0  0  0  0  0
  -28.2896  -24.7098   18.6301 C   0  0  0  0  0  0
  -26.5343  -22.7255   24.7834 C   0  0  0  0  0  0
  -26.8041  -21.2041   24.7796 C   0  0  0  0  0  0
  -28.2380  -20.8266   24.3754 C   0  0  0  0  0  0
  -28.5207  -19.3182   24.3916 C   0  0  0  0  0  0
  -29.9604  -19.0002   23.9443 C   0  0  0  0  0  0
  -30.1443  -18.9461   22.4130 C   0  0  0  0  0  0
  -29.6850  -17.6134   21.7939 C   0  0  0  0  0  0
  -30.6998  -16.4786   22.0264 C   0  0  0  0  0  0
  -28.5443  -25.3650   20.0026 C   0  0  1  0  0  0
  -28.1858  -23.9819   23.5231 N   0  0  0  0  0  0
  -30.1798  -15.1955   21.5693 N   0  0  0  0  0  0
  -31.4654  -12.4000   19.0885 H   0  0  0  0  0  0
  -30.3293  -11.2642   19.7524 H   0  0  0  0  0  0
  -29.7221  -11.8196   17.3909 H   0  0  0  0  0  0
  -29.6586  -13.5200   17.7850 H   0  0  0  0  0  0
  -27.8186  -11.3155   18.7772 H   0  0  0  0  0  0
  -27.3599  -12.6709   17.7822 H   0  0  0  0  0  0
  -27.7287  -14.2516   19.6248 H   0  0  0  0  0  0
  -28.6751  -11.8652   21.2764 H   0  0  0  0  0  0
  -28.4534  -13.4605   21.9016 H   0  0  0  0  0  0
  -25.2696   -9.5777   22.4716 H   0  0  0  0  0  0
  -24.0021   -7.4662   22.7447 H   0  0  0  0  0  0
  -21.0795   -8.8643   19.8920 H   0  0  0  0  0  0
  -22.3518  -10.9626   19.6137 H   0  0  0  0  0  0
  -21.1937   -7.6129   23.9691 H   0  0  0  0  0  0
  -21.1530   -6.0522   25.9081 H   0  0  0  0  0  0
  -22.0578   -2.7599   23.2834 H   0  0  0  0  0  0
  -22.4117  -11.9878   22.4799 H   0  0  0  0  0  0
  -21.1102  -13.1212   22.2575 H   0  0  0  0  0  0
  -24.6713  -15.8393   20.5295 H   0  0  0  0  0  0
  -26.2964  -15.6266   20.1121 H   0  0  0  0  0  0
  -26.7102  -32.5520   23.1135 H   0  0  0  0  0  0
  -25.0103  -33.9791   25.0515 H   0  0  0  0  0  0
  -22.6852  -31.3153   21.4186 H   0  0  0  0  0  0
  -23.3743  -35.9640   23.3316 H   0  0  0  0  0  0
  -24.3571  -36.8921   22.2057 H   0  0  0  0  0  0
  -23.7215  -37.6525   23.6632 H   0  0  0  0  0  0
  -26.0316  -31.6080   20.5900 H   0  0  0  0  0  0
  -26.8162  -30.8922   21.9694 H   0  0  0  0  0  0
  -28.0963  -29.1319   21.1132 H   0  0  0  0  0  0
  -25.9920  -25.9940   19.0108 H   0  0  0  0  0  0
  -23.9495  -27.2860   19.0757 H   0  0  0  0  0  0
  -23.7091  -30.6038   19.4089 H   0  0  0  0  0  0
  -22.7212  -29.2529   19.8689 H   0  0  0  0  0  0
  -25.1267  -36.1997   25.0834 H   0  0  0  0  0  0
  -20.9934  -28.3219   24.1444 H   0  0  0  0  0  0
  -20.5702  -26.2254   23.3589 H   0  0  0  0  0  0
  -21.6639  -26.7470   22.1164 H   0  0  0  0  0  0
  -19.6900  -25.6323   21.1230 H   0  0  0  0  0  0
  -19.6703  -27.3245   20.6771 H   0  0  0  0  0  0
  -17.4188  -26.6696   21.4017 H   0  0  0  0  0  0
  -18.0291  -26.0055   22.8996 H   0  0  0  0  0  0
  -19.7923  -30.7261   24.2269 H   0  0  0  0  0  0
  -17.5015  -31.6270   24.5168 H   0  0  0  0  0  0
  -15.5349  -30.3001   23.7688 H   0  0  0  0  0  0
  -15.8639  -28.0858   22.7047 H   0  0  0  0  0  0
  -24.5989  -30.6951   25.7803 H   0  0  0  0  0  0
  -24.8947  -32.2772   26.4918 H   0  0  0  0  0  0
  -25.8183  -30.8818   27.0196 H   0  0  0  0  0  0
  -26.2865  -29.6776   24.1120 H   0  0  0  0  0  0
  -27.4123  -29.7262   25.4517 H   0  0  0  0  0  0
  -27.8688  -30.4350   23.9185 H   0  0  0  0  0  0
  -27.2722  -33.3586   26.2045 H   0  0  0  0  0  0
  -28.3903  -32.6810   25.0286 H   0  0  0  0  0  0
  -28.0722  -31.8364   26.5377 H   0  0  0  0  0  0
  -28.2605  -38.0104   24.7524 H   0  0  0  0  0  0
  -28.1052  -36.2645   24.6282 H   0  0  0  0  0  0
  -27.2289  -37.1442   25.8879 H   0  0  0  0  0  0
  -20.9257  -29.8758   21.6964 H   0  0  0  0  0  0
  -26.0182  -38.2888   24.1426 H   0  0  0  0  0  0
  -26.0231  -24.1352   20.2946 H   0  0  0  0  0  0
  -29.6382  -25.0156   22.4805 H   0  0  0  0  0  0
  -24.2354  -23.0252   21.3868 H   0  0  0  0  0  0
  -24.1135  -23.3820   23.1035 H   0  0  0  0  0  0
  -24.7594  -21.8231   22.5644 H   0  0  0  0  0  0
  -28.7801  -23.7386   18.5866 H   0  0  0  0  0  0
  -28.7071  -25.3157   17.8258 H   0  0  0  0  0  0
  -27.2457  -24.5195   18.3934 H   0  0  0  0  0  0
  -25.4848  -22.9220   24.9999 H   0  0  0  0  0  0
  -27.0819  -23.1689   25.6167 H   0  0  0  0  0  0
  -26.1040  -20.7176   24.1018 H   0  0  0  0  0  0
  -26.5821  -20.8058   25.7697 H   0  0  0  0  0  0
  -28.9379  -21.3378   25.0379 H   0  0  0  0  0  0
  -28.4356  -21.2004   23.3716 H   0  0  0  0  0  0
  -27.8006  -18.7918   23.7626 H   0  0  0  0  0  0
  -28.3700  -18.9380   25.4040 H   0  0  0  0  0  0
  -30.2727  -18.0558   24.3853 H   0  0  0  0  0  0
  -30.6390  -19.7442   24.3653 H   0  0  0  0  0  0
  -31.1974  -19.0972   22.1670 H   0  0  0  0  0  0
  -29.6118  -19.7766   21.9443 H   0  0  0  0  0  0
  -29.5424  -17.7536   20.7204 H   0  0  0  0  0  0
  -28.7057  -17.3408   22.1890 H   0  0  0  0  0  0
  -30.9205  -16.3691   23.0882 H   0  0  0  0  0  0
  -31.6458  -16.7301   21.5463 H   0  0  0  0  0  0
  -29.6188  -25.2248   20.1391 H   0  0  0  0  0  0
  -29.3276  -14.8657   21.9991 H   0  0  0  0  0  0
  1 25  1  0  0  0
  1 30  2  0  0  0
  1 88  1  0  0  0
  2  3  1  0  0  0
  2 25  1  0  0  0
  2 89  1  0  0  0
  2 90  1  0  0  0
  3  4  1  0  0  0
  3 91  1  0  0  0
  3 92  1  0  0  0
  4  5  1  0  0  0
  4 93  1  0  0  0
  4 94  1  0  0  0
  5  6  1  0  0  0
  5 26  1  0  0  0
  5 95  1  0  0  0
  6 25  1  0  0  0
  6 96  1  0  0  0
  6 97  1  0  0  0
  7  8  2  0  0  0
  7 26  1  0  0  0
  7 29  1  0  0  0
  8  9  1  0  0  0
  8 22  1  0  0  0
  9 10  1  0  0  0
  9 27  2  0  0  0
 10 11  2  0  0  0
 10 15  1  0  0  0
 11 12  1  0  0  0
 11 98  1  0  0  0
 12 13  2  0  0  0
 12 99  1  0  0  0
 13 14  1  0  0  0
 13 31  1  0  0  0
 14 15  2  0  0  0
 14100  1  0  0  0
 15101  1  0  0  0
 16 17  2  0  0  0
 16 21  1  0  0  0
 16 31  1  0  0  0
 17 18  1  0  0  0
 17102  1  0  0  0
 18 19  2  0  0  0
 18103  1  0  0  0
 19 20  1  0  0  0
 19 24  1  0  0  0
 20 21  2  0  0  0
 20104  1  0  0  0
 21 23  1  0  0  0
 22 28  1  0  0  0
 22 32  2  0  0  0
 26 27  1  0  0  0
 28105  1  0  0  0
 28106  1  0  0  0
 29107  1  0  0  0
 29108  1  0  0  0
 33 34  1  0  0  0
 33 66  1  0  0  0
 33 70  2  0  0  0
 34 36  1  0  0  0
 34 59  1  0  0  0
 34109  1  0  0  0
 35 44  2  0  0  0
 35 45  1  0  0  0
 35 68  1  0  0  0
 36 56  1  0  0  0
 36110  1  0  0  0
 37 39  1  0  0  0
 37 47  1  0  0  0
 37 66  1  0  0  0
 37111  1  0  0  0
 38 43  2  0  0  0
 38 46  1  0  0  0
 38 47  1  0  0  0
 39 64  1  0  0  0
 39 67  2  0  0  0
 40 52  1  0  0  0
 40 53  2  0  0  0
 40 58  1  0  0  0
 41112  1  0  0  0
 41113  1  0  0  0
 41114  1  0  0  0
 41 48  1  0  0  0
 42 43  1  0  0  0
 42 66  1  0  0  0
 42115  1  0  0  0
 42116  1  0  0  0
 43 44  1  0  0  0
 44117  1  0  0  0
 45 46  2  0  0  0
 45118  1  0  0  0
 46119  1  0  0  0
 47120  1  0  0  0
 47121  1  0  0  0
 48 56  1  0  0  0
 48 65  1  0  0  0
 48122  1  0  0  0
 49 50  1  0  0  0
 49 53  1  0  0  0
 49 64  1  0  0  0
 49123  1  0  0  0
 50 51  1  0  0  0
 50124  1  0  0  0
 50125  1  0  0  0
 51 52  1  0  0  0
 51126  1  0  0  0
 51127  1  0  0  0
 52128  1  0  0  0
 52129  1  0  0  0
 53 54  1  0  0  0
 54 55  2  0  0  0
 54130  1  0  0  0
 55 57  1  0  0  0
 55131  1  0  0  0
 56 69  2  0  0  0
 57 58  2  0  0  0
 57132  1  0  0  0
 58133  1  0  0  0
 59 60  1  0  0  0
 59 61  1  0  0  0
 59 62  1  0  0  0
 60134  1  0  0  0
 60135  1  0  0  0
 60136  1  0  0  0
 61137  1  0  0  0
 61138  1  0  0  0
 61139  1  0  0  0
 62140  1  0  0  0
 62141  1  0  0  0
 62142  1  0  0  0
 63 65  1  0  0  0
 63143  1  0  0  0
 63144  1  0  0  0
 63145  1  0  0  0
 64146  1  0  0  0
 65147  1  0  0  0
 68 86  1  0  0  0
 71 73  2  0  0  0
 71 74  1  0  0  0
 71148  1  0  0  0
 72 73  1  0  0  0
 72 87  2  0  0  0
 72149  1  0  0  0
 73 86  1  0  0  0
 74 75  2  0  0  0
 74 76  1  0  0  0
 75 78  1  0  0  0
 75 87  1  0  0  0
 76150  1  0  0  0
 76151  1  0  0  0
 76152  1  0  0  0
 77153  1  0  0  0
 77154  1  0  0  0
 77155  1  0  0  0
 77 86  1  0  0  0
 78 79  1  0  0  0
 78156  1  0  0  0
 78157  1  0  0  0
 79 80  1  0  0  0
 79158  1  0  0  0
 79159  1  0  0  0
 80 81  1  0  0  0
 80160  1  0  0  0
 80161  1  0  0  0
 81 82  1  0  0  0
 81162  1  0  0  0
 81163  1  0  0  0
 82 83  1  0  0  0
 82164  1  0  0  0
 82165  1  0  0  0
 83 84  1  0  0  0
 83166  1  0  0  0
 83167  1  0  0  0
 84 85  1  0  0  0
 84168  1  0  0  0
 84169  1  0  0  0
 85 88  1  0  0  0
 85170  1  0  0  0
 85171  1  0  0  0
 86172  1  0  0  0
 88173  1  0  0  0
M  ISO  4   1 100  68 101  86 101  88 100
M  END
> <chiral flag>
0

> <version>
0

> <s_m_source_file>
/data/baiqing/PycharmProjects/Reinvent-master-3.2/result/LINK_invent/BTK/process_docking_weight1_custom_sum_contain_oxygen_bond_distance_aromatic_linkinvent_7_9_3/rearranged_h_0035.sdf

> <i_m_source_file_index>
55

> <r_mmod_Potential_Energy-OPLS-2005>
-186.642532348633

> <r_mmod_Stretch_Energy-OPLS-2005>
33.1239738464355

> <r_mmod_Bend_Energy-OPLS-2005>
116.041496276855

> <r_mmod_Torsional_Energy-OPLS-2005>
203.461578369141

> <r_mmod_Improper_Torsional_Energy-OPLS-2005>
1.88910317420959

> <r_mmod_Van_der_Waal_Energy-OPLS-2005>
155.50505065918

> <r_mmod_Electrostatic_Energy-OPLS-2005>
-491.659881591797

> <r_mmod_Solvation_Energy-OPLS-2005>
-213.203018188477

> <b_mmod_Minimization_Converged-OPLS-2005>
0

> <r_mmod_RMS_Derivative-OPLS-2005>
3.5442111492157

$$$$
55
                    3D
 Structure written by MMmdl.
149157  0  0  1  0            999 V2000
  -30.5077  -14.9949   20.3984 C   0  0  0  0  0  0
  -30.4400  -12.6092   19.5238 C   0  0  0  0  0  0
  -29.5294  -12.5401   18.2739 C   0  0  0  0  0  0
  -28.0618  -12.3201   18.6840 C   0  0  0  0  0  0
  -27.6308  -13.2527   19.8458 C   0  0  2  0  0  0
  -28.6674  -13.2901   20.9908 C   0  0  0  0  0  0
  -25.2455  -13.8223   20.5718 C   0  0  0  0  0  0
  -24.1773  -13.0440   20.9226 C   0  0  0  0  0  0
  -24.6395  -11.6927   20.8751 C   0  0  0  0  0  0
  -23.9082  -10.4294   21.0405 C   0  0  0  0  0  0
  -24.3629   -9.4208   21.9183 C   0  0  0  0  0  0
  -23.6300   -8.2245   22.0753 C   0  0  0  0  0  0
  -22.4281   -8.0283   21.3544 C   0  0  0  0  0  0
  -21.9920   -9.0257   20.4646 C   0  0  0  0  0  0
  -22.7252  -10.2135   20.3054 C   0  0  0  0  0  0
  -21.6856   -6.0737   22.5279 C   0  0  0  0  0  0
  -21.4016   -6.5641   23.8212 C   0  0  0  0  0  0
  -21.3660   -5.6793   24.9174 C   0  0  0  0  0  0
  -21.6044   -4.3056   24.7225 C   0  0  0  0  0  0
  -21.8819   -3.8147   23.4346 C   0  0  0  0  0  0
  -21.9193   -4.6964   22.3402 C   0  0  0  0  0  0
  -22.7793  -13.5208   21.1880 C   0  0  0  0  0  0
  -22.1662   -4.2150   21.0980 F   0  0  0  0  0  0
  -21.5628   -3.4539   25.7737 F   0  0  0  0  0  0
  -29.9453  -13.7133   20.4038 N   0  0  0  0  0  0
  -26.2886  -12.9464   20.3265 N   0  0  0  0  0  0
  -25.9331  -11.6588   20.5745 N   0  0  0  0  0  0
  -22.0447  -12.8193   22.0437 N   0  0  0  0  0  0
  -25.4118  -15.1953   20.4146 N   0  0  0  0  0  0
  -31.6867  -15.0726   20.0357 O   0  0  0  0  0  0
  -21.6643   -6.8881   21.4241 O   0  0  0  0  0  0
  -22.3474  -14.5511   20.6725 O   0  0  0  0  0  0
  -24.6446  -31.8386   23.1821 C   0  0  0  0  0  0
  -25.9205  -32.4663   23.8229 C   0  0  1  0  0  0
  -27.2272  -27.1046   20.1591 C   0  0  0  0  0  0
  -25.5941  -33.8472   24.2148 N   0  0  0  0  0  0
  -23.4508  -30.4525   21.5267 C   0  0  2  0  0  0
  -24.9031  -28.8663   20.1039 C   0  0  0  0  0  0
  -22.7574  -29.4509   22.4837 C   0  0  0  0  0  0
  -18.0304  -28.1397   22.8476 C   0  0  0  0  0  0
  -24.1491  -36.7244   23.2645 C   0  0  0  0  0  0
  -26.0052  -30.7013   21.3845 C   0  0  0  0  0  0
  -26.0753  -29.3080   20.7281 C   0  0  0  0  0  0
  -27.2312  -28.4404   20.7401 C   0  0  0  0  0  0
  -26.0333  -26.7635   19.4906 C   0  0  0  0  0  0
  -24.8966  -27.6101   19.4696 C   0  0  0  0  0  0
  -23.6788  -29.7716   20.1478 C   0  0  0  0  0  0
  -25.4126  -36.3015   24.0311 C   0  0  1  0  0  0
  -20.5917  -28.3722   23.1233 C   0  0  2  0  0  0
  -20.6784  -26.9421   22.5410 C   0  0  0  0  0  0
  -19.5761  -26.6379   21.5215 C   0  0  0  0  0  0
  -18.1942  -26.7935   22.1623 C   0  0  0  0  0  0
  -19.1561  -28.8878   23.2846 C   0  0  0  0  0  0
  -18.9478  -30.1474   23.8872 C   0  0  0  0  0  0
  -17.6475  -30.6593   24.0559 C   0  0  0  0  0  0
  -25.9077  -34.9392   23.5046 C   0  0  0  0  0  0
  -16.5365  -29.9085   23.6337 C   0  0  0  0  0  0
  -16.7289  -28.6504   23.0357 C   0  0  0  0  0  0
  -26.4524  -31.6555   25.0692 C   0  0  0  0  0  0
  -25.3702  -31.3754   26.1384 C   0  0  0  0  0  0
  -27.0401  -30.2949   24.6301 C   0  0  0  0  0  0
  -27.6043  -32.4336   25.7482 C   0  0  0  0  0  0
  -27.5574  -37.1778   24.8466 C   0  0  0  0  0  0
  -21.4262  -29.3036   22.3595 N   0  0  0  0  0  0
  -26.4285  -37.3733   23.9407 N   0  0  0  0  0  0
  -24.7199  -31.0208   22.0863 N   0  0  0  0  0  0
  -23.4202  -28.8078   23.3016 O   0  0  0  0  0  0
  -28.3005  -26.1452   20.2988 O   0  0  0  0  0  0
  -26.5677  -34.8901   22.4634 O   0  0  0  0  0  0
  -23.5560  -32.1278   23.7026 O   0  0  0  0  0  0
  -28.8559  -20.3541   20.1164 C   0  0  0  0  0  0
  -30.8288  -20.8645   21.8659 C   0  0  0  0  0  0
  -29.6669  -19.1615   20.5308 C   0  0  0  0  0  0
  -30.6701  -19.5158   21.4610 C   0  0  0  0  0  0
  -29.0696  -21.7604   20.5822 C   0  0  0  0  0  0
  -29.6634  -17.6117   19.9117 C   0  0  0  0  0  0
  -28.1239  -23.1369   20.4649 C   0  0  0  0  0  0
  -28.4536  -24.6646   19.7812 C   0  0  0  0  0  0
  -30.0855  -21.9274   21.4559 N   0  0  0  0  0  0
  -29.7109  -16.1671   20.5931 N   0  0  0  0  0  0
  -31.7640  -18.3307   22.0845 Cl  0  0  0  0  0  0
  -31.4761  -12.7624   19.2183 H   0  0  0  0  0  0
  -30.4312  -11.6591   20.0603 H   0  0  0  0  0  0
  -29.8571  -11.7403   17.6085 H   0  0  0  0  0  0
  -29.6165  -13.4675   17.7057 H   0  0  0  0  0  0
  -27.9603  -11.2789   18.9923 H   0  0  0  0  0  0
  -27.4020  -12.4494   17.8253 H   0  0  0  0  0  0
  -27.5925  -14.2538   19.4153 H   0  0  0  0  0  0
  -28.7578  -12.3157   21.4731 H   0  0  0  0  0  0
  -28.3561  -13.9904   21.7673 H   0  0  0  0  0  0
  -25.2772   -9.5685   22.4761 H   0  0  0  0  0  0
  -24.0007   -7.4637   22.7475 H   0  0  0  0  0  0
  -21.0850   -8.8779   19.8952 H   0  0  0  0  0  0
  -22.3710  -10.9675   19.6165 H   0  0  0  0  0  0
  -21.2010   -7.6149   23.9716 H   0  0  0  0  0  0
  -21.1482   -6.0523   25.9077 H   0  0  0  0  0  0
  -22.0597   -2.7610   23.2846 H   0  0  0  0  0  0
  -22.4074  -11.9860   22.4827 H   0  0  0  0  0  0
  -21.1061  -13.1207   22.2643 H   0  0  0  0  0  0
  -24.6406  -15.8450   20.5236 H   0  0  0  0  0  0
  -26.2520  -15.6361   20.0637 H   0  0  0  0  0  0
  -26.7268  -32.5257   23.0950 H   0  0  0  0  0  0
  -25.0050  -33.9577   25.0271 H   0  0  0  0  0  0
  -22.7550  -31.2787   21.3663 H   0  0  0  0  0  0
  -23.3759  -35.9570   23.3291 H   0  0  0  0  0  0
  -24.3572  -36.8899   22.2063 H   0  0  0  0  0  0
  -23.7242  -37.6431   23.6700 H   0  0  0  0  0  0
  -26.1638  -31.4528   20.6099 H   0  0  0  0  0  0
  -26.8742  -30.7539   22.0289 H   0  0  0  0  0  0
  -28.1214  -28.7697   21.2576 H   0  0  0  0  0  0
  -25.9514  -25.7941   19.0206 H   0  0  0  0  0  0
  -23.9996  -27.2668   18.9726 H   0  0  0  0  0  0
  -23.8143  -30.5419   19.3878 H   0  0  0  0  0  0
  -22.7937  -29.2118   19.8407 H   0  0  0  0  0  0
  -25.1318  -36.1833   25.0804 H   0  0  0  0  0  0
  -21.0010  -28.3318   24.1355 H   0  0  0  0  0  0
  -20.5670  -26.2336   23.3633 H   0  0  0  0  0  0
  -21.6651  -26.7418   22.1214 H   0  0  0  0  0  0
  -19.6921  -25.6283   21.1261 H   0  0  0  0  0  0
  -19.6702  -27.3175   20.6734 H   0  0  0  0  0  0
  -17.4212  -26.6681   21.4025 H   0  0  0  0  0  0
  -18.0338  -26.0083   22.9025 H   0  0  0  0  0  0
  -19.7954  -30.7297   24.2230 H   0  0  0  0  0  0
  -17.5028  -31.6270   24.5165 H   0  0  0  0  0  0
  -15.5365  -30.2980   23.7675 H   0  0  0  0  0  0
  -15.8689  -28.0815   22.7086 H   0  0  0  0  0  0
  -24.5889  -30.7093   25.7704 H   0  0  0  0  0  0
  -24.8882  -32.2939   26.4742 H   0  0  0  0  0  0
  -25.7979  -30.8972   27.0204 H   0  0  0  0  0  0
  -26.3027  -29.6655   24.1306 H   0  0  0  0  0  0
  -27.4002  -29.7268   25.4888 H   0  0  0  0  0  0
  -27.8936  -30.4179   23.9630 H   0  0  0  0  0  0
  -27.2625  -33.3659   26.1990 H   0  0  0  0  0  0
  -28.3889  -32.6862   25.0338 H   0  0  0  0  0  0
  -28.0672  -31.8510   26.5457 H   0  0  0  0  0  0
  -28.2582  -38.0083   24.7511 H   0  0  0  0  0  0
  -28.1079  -36.2610   24.6296 H   0  0  0  0  0  0
  -27.2290  -37.1427   25.8868 H   0  0  0  0  0  0
  -20.9482  -29.8730   21.6752 H   0  0  0  0  0  0
  -26.0147  -38.2799   24.1410 H   0  0  0  0  0  0
  -28.0433  -20.1825   19.4236 H   0  0  0  0  0  0
  -31.6147  -21.1100   22.5651 H   0  0  0  0  0  0
  -30.4950  -17.6090   19.2062 H   0  0  0  0  0  0
  -28.7809  -17.5780   19.2732 H   0  0  0  0  0  0
  -27.8474  -23.3492   21.4975 H   0  0  0  0  0  0
  -27.1867  -22.8019   20.0210 H   0  0  0  0  0  0
  -28.0481  -24.6493   18.7695 H   0  0  0  0  0  0
  -29.5288  -24.6197   19.6083 H   0  0  0  0  0  0
  -28.8291  -15.9423   21.0277 H   0  0  0  0  0  0
  1 25  1  0  0  0
  1 30  2  0  0  0
  1 80  1  0  0  0
  2  3  1  0  0  0
  2 25  1  0  0  0
  2 82  1  0  0  0
  2 83  1  0  0  0
  3  4  1  0  0  0
  3 84  1  0  0  0
  3 85  1  0  0  0
  4  5  1  0  0  0
  4 86  1  0  0  0
  4 87  1  0  0  0
  5  6  1  0  0  0
  5 26  1  0  0  0
  5 88  1  0  0  0
  6 25  1  0  0  0
  6 89  1  0  0  0
  6 90  1  0  0  0
  7  8  2  0  0  0
  7 26  1  0  0  0
  7 29  1  0  0  0
  8  9  1  0  0  0
  8 22  1  0  0  0
  9 10  1  0  0  0
  9 27  2  0  0  0
 10 11  2  0  0  0
 10 15  1  0  0  0
 11 12  1  0  0  0
 11 91  1  0  0  0
 12 13  2  0  0  0
 12 92  1  0  0  0
 13 14  1  0  0  0
 13 31  1  0  0  0
 14 15  2  0  0  0
 14 93  1  0  0  0
 15 94  1  0  0  0
 16 17  2  0  0  0
 16 21  1  0  0  0
 16 31  1  0  0  0
 17 18  1  0  0  0
 17 95  1  0  0  0
 18 19  2  0  0  0
 18 96  1  0  0  0
 19 20  1  0  0  0
 19 24  1  0  0  0
 20 21  2  0  0  0
 20 97  1  0  0  0
 21 23  1  0  0  0
 22 28  1  0  0  0
 22 32  2  0  0  0
 26 27  1  0  0  0
 28 98  1  0  0  0
 28 99  1  0  0  0
 29100  1  0  0  0
 29101  1  0  0  0
 33 34  1  0  0  0
 33 66  1  0  0  0
 33 70  2  0  0  0
 34 36  1  0  0  0
 34 59  1  0  0  0
 34102  1  0  0  0
 35 44  2  0  0  0
 35 45  1  0  0  0
 35 68  1  0  0  0
 36 56  1  0  0  0
 36103  1  0  0  0
 37 39  1  0  0  0
 37 47  1  0  0  0
 37 66  1  0  0  0
 37104  1  0  0  0
 38 43  2  0  0  0
 38 46  1  0  0  0
 38 47  1  0  0  0
 39 64  1  0  0  0
 39 67  2  0  0  0
 40 52  1  0  0  0
 40 53  2  0  0  0
 40 58  1  0  0  0
 41105  1  0  0  0
 41106  1  0  0  0
 41107  1  0  0  0
 41 48  1  0  0  0
 42 43  1  0  0  0
 42 66  1  0  0  0
 42108  1  0  0  0
 42109  1  0  0  0
 43 44  1  0  0  0
 44110  1  0  0  0
 45 46  2  0  0  0
 45111  1  0  0  0
 46112  1  0  0  0
 47113  1  0  0  0
 47114  1  0  0  0
 48 56  1  0  0  0
 48 65  1  0  0  0
 48115  1  0  0  0
 49 50  1  0  0  0
 49 53  1  0  0  0
 49 64  1  0  0  0
 49116  1  0  0  0
 50 51  1  0  0  0
 50117  1  0  0  0
 50118  1  0  0  0
 51 52  1  0  0  0
 51119  1  0  0  0
 51120  1  0  0  0
 52121  1  0  0  0
 52122  1  0  0  0
 53 54  1  0  0  0
 54 55  2  0  0  0
 54123  1  0  0  0
 55 57  1  0  0  0
 55124  1  0  0  0
 56 69  2  0  0  0
 57 58  2  0  0  0
 57125  1  0  0  0
 58126  1  0  0  0
 59 60  1  0  0  0
 59 61  1  0  0  0
 59 62  1  0  0  0
 60127  1  0  0  0
 60128  1  0  0  0
 60129  1  0  0  0
 61130  1  0  0  0
 61131  1  0  0  0
 61132  1  0  0  0
 62133  1  0  0  0
 62134  1  0  0  0
 62135  1  0  0  0
 63 65  1  0  0  0
 63136  1  0  0  0
 63137  1  0  0  0
 63138  1  0  0  0
 64139  1  0  0  0
 65140  1  0  0  0
 68 78  1  0  0  0
 71 73  2  0  0  0
 71 75  1  0  0  0
 71141  1  0  0  0
 72 74  2  0  0  0
 72 79  1  0  0  0
 72142  1  0  0  0
 73 74  1  0  0  0
 73 76  1  0  0  0
 74 81  1  0  0  0
 75 77  1  0  0  0
 75 79  2  0  0  0
 76 80  1  0  0  0
 76143  1  0  0  0
 76144  1  0  0  0
 77 78  1  0  0  0
 77145  1  0  0  0
 77146  1  0  0  0
 78147  1  0  0  0
 78148  1  0  0  0
 80149  1  0  0  0
M  ISO  4   1 100  68 101  78 101  80 100
M  END
> <chiral flag>
0

> <version>
0

> <s_m_source_file>
/data/baiqing/PycharmProjects/Reinvent-master-3.2/result/LINK_invent/BTK/process_docking_weight1_custom_sum_contain_oxygen_bond_distance_aromatic_linkinvent_7_9_3/rearranged_h_0035.sdf

> <i_m_source_file_index>
56

> <r_mmod_Potential_Energy-OPLS-2005>
477.233154296875

> <r_mmod_Stretch_Energy-OPLS-2005>
298.069366455078

> <r_mmod_Bend_Energy-OPLS-2005>
332.51123046875

> <r_mmod_Torsional_Energy-OPLS-2005>
220.286270141602

> <r_mmod_Improper_Torsional_Energy-OPLS-2005>
8.1037073135376

> <r_mmod_Van_der_Waal_Energy-OPLS-2005>
125.77214050293

> <r_mmod_Electrostatic_Energy-OPLS-2005>
-492.469635009766

> <r_mmod_Solvation_Energy-OPLS-2005>
-238.383636474609

> <b_mmod_Minimization_Converged-OPLS-2005>
1

> <r_mmod_RMS_Derivative-OPLS-2005>
0.0472378619015217

$$$$
56
                    3D
 Structure written by MMmdl.
156164  0  0  1  0            999 V2000
  -30.6317  -14.6821   20.4371 C   0  0  0  0  0  0
  -30.4298  -12.4042   19.4691 C   0  0  0  0  0  0
  -29.5128  -12.4961   18.2313 C   0  0  0  0  0  0
  -28.0335  -12.3458   18.6370 C   0  0  0  0  0  0
  -27.6500  -13.2309   19.8553 C   0  0  2  0  0  0
  -28.6962  -13.1256   20.9882 C   0  0  0  0  0  0
  -25.2525  -13.8204   20.5676 C   0  0  0  0  0  0
  -24.1805  -13.0450   20.9187 C   0  0  0  0  0  0
  -24.6407  -11.6934   20.8729 C   0  0  0  0  0  0
  -23.9074  -10.4311   21.0386 C   0  0  0  0  0  0
  -24.3626   -9.4218   21.9159 C   0  0  0  0  0  0
  -23.6302   -8.2251   22.0744 C   0  0  0  0  0  0
  -22.4282   -8.0283   21.3546 C   0  0  0  0  0  0
  -21.9915   -9.0256   20.4646 C   0  0  0  0  0  0
  -22.7244  -10.2137   20.3041 C   0  0  0  0  0  0
  -21.6867   -6.0720   22.5277 C   0  0  0  0  0  0
  -21.4022   -6.5621   23.8211 C   0  0  0  0  0  0
  -21.3668   -5.6781   24.9171 C   0  0  0  0  0  0
  -21.6053   -4.3045   24.7221 C   0  0  0  0  0  0
  -21.8827   -3.8129   23.4343 C   0  0  0  0  0  0
  -21.9195   -4.6943   22.3397 C   0  0  0  0  0  0
  -22.7824  -13.5213   21.1844 C   0  0  0  0  0  0
  -22.1656   -4.2127   21.0977 F   0  0  0  0  0  0
  -21.5634   -3.4533   25.7736 F   0  0  0  0  0  0
  -30.0088  -13.4586   20.4171 N   0  0  0  0  0  0
  -26.2980  -12.9423   20.3292 N   0  0  0  0  0  0
  -25.9338  -11.6559   20.5727 N   0  0  0  0  0  0
  -22.0476  -12.8211   22.0417 N   0  0  0  0  0  0
  -25.4202  -15.1929   20.4104 N   0  0  0  0  0  0
  -31.8021  -14.7960   20.0631 O   0  0  0  0  0  0
  -21.6655   -6.8870   21.4245 O   0  0  0  0  0  0
  -22.3478  -14.5502   20.6663 O   0  0  0  0  0  0
  -24.6262  -31.8592   23.2004 C   0  0  0  0  0  0
  -25.9086  -32.4781   23.8365 C   0  0  1  0  0  0
  -27.2248  -27.2936   20.1161 C   0  0  0  0  0  0
  -25.5892  -33.8586   24.2283 N   0  0  0  0  0  0
  -23.4230  -30.4817   21.5440 C   0  0  2  0  0  0
  -24.8717  -28.9370   20.1082 C   0  0  0  0  0  0
  -22.7481  -29.4611   22.4916 C   0  0  0  0  0  0
  -18.0289  -28.1370   22.8485 C   0  0  0  0  0  0
  -24.1489  -36.7305   23.2640 C   0  0  0  0  0  0
  -25.9677  -30.7795   21.3779 C   0  0  0  0  0  0
  -26.0414  -29.4053   20.7192 C   0  0  0  0  0  0
  -27.2202  -28.5948   20.7152 C   0  0  0  0  0  0
  -26.0320  -26.8940   19.4674 C   0  0  0  0  0  0
  -24.8706  -27.6869   19.4730 C   0  0  0  0  0  0
  -23.6403  -29.8194   20.1587 C   0  0  0  0  0  0
  -25.4106  -36.3091   24.0340 C   0  0  1  0  0  0
  -20.5893  -28.3677   23.1271 C   0  0  2  0  0  0
  -20.6780  -26.9394   22.5402 C   0  0  0  0  0  0
  -19.5758  -26.6366   21.5203 C   0  0  0  0  0  0
  -18.1940  -26.7919   22.1619 C   0  0  0  0  0  0
  -19.1542  -28.8845   23.2881 C   0  0  0  0  0  0
  -18.9463  -30.1448   23.8895 C   0  0  0  0  0  0
  -17.6460  -30.6577   24.0552 C   0  0  0  0  0  0
  -25.9040  -34.9460   23.5125 C   0  0  0  0  0  0
  -16.5351  -29.9075   23.6315 C   0  0  0  0  0  0
  -16.7279  -28.6493   23.0341 C   0  0  0  0  0  0
  -26.4448  -31.6594   25.0745 C   0  0  0  0  0  0
  -25.3683  -31.3758   26.1476 C   0  0  0  0  0  0
  -27.0273  -30.3013   24.6200 C   0  0  0  0  0  0
  -27.6017  -32.4325   25.7512 C   0  0  0  0  0  0
  -27.5586  -37.1796   24.8456 C   0  0  0  0  0  0
  -21.4198  -29.3032   22.3658 N   0  0  0  0  0  0
  -26.4286  -37.3779   23.9416 N   0  0  0  0  0  0
  -24.6915  -31.0578   22.0970 N   0  0  0  0  0  0
  -23.4190  -28.8148   23.3003 O   0  0  0  0  0  0
  -28.3293  -26.4149   20.1842 O   0  0  0  0  0  0
  -26.5620  -34.8940   22.4700 O   0  0  0  0  0  0
  -23.5408  -32.1410   23.7289 O   0  0  0  0  0  0
  -30.4812  -21.1638   21.5398 C   0  0  0  0  0  0
  -30.9442  -18.7400   21.5239 C   0  0  0  0  0  0
  -29.3153  -19.6935   19.9974 C   0  0  0  0  0  0
  -31.1860  -20.0380   22.0321 C   0  0  0  0  0  0
  -29.5260  -21.0308   20.5084 C   0  0  0  0  0  0
  -30.0130  -18.5254   20.4925 C   0  0  0  0  0  0
  -32.2553  -20.2276   23.0914 C   0  0  0  0  0  0
  -28.7460  -22.2968   19.9594 C   0  0  0  0  0  0
  -29.9094  -17.0953   19.8281 C   0  0  0  0  0  0
  -29.1017  -23.8061   20.4038 C   0  0  0  0  0  0
  -28.1099  -24.9638   19.9016 C   0  0  0  0  0  0
  -29.8450  -15.7956   20.6126 N   0  0  0  0  0  0
  -31.4762  -12.5036   19.1729 H   0  0  0  0  0  0
  -30.3475  -11.4219   19.9347 H   0  0  0  0  0  0
  -29.7779  -11.7244   17.5080 H   0  0  0  0  0  0
  -29.6643  -13.4544   17.7295 H   0  0  0  0  0  0
  -27.8699  -11.2948   18.8780 H   0  0  0  0  0  0
  -27.3855  -12.5664   17.7889 H   0  0  0  0  0  0
  -27.6548  -14.2599   19.4971 H   0  0  0  0  0  0
  -28.7087  -12.1183   21.4046 H   0  0  0  0  0  0
  -28.4457  -13.7947   21.8125 H   0  0  0  0  0  0
  -25.2778   -9.5686   22.4708 H   0  0  0  0  0  0
  -24.0013   -7.4650   22.7469 H   0  0  0  0  0  0
  -21.0840   -8.8784   19.8960 H   0  0  0  0  0  0
  -22.3710  -10.9659   19.6136 H   0  0  0  0  0  0
  -21.2014   -7.6132   23.9703 H   0  0  0  0  0  0
  -21.1483   -6.0507   25.9075 H   0  0  0  0  0  0
  -22.0592   -2.7588   23.2859 H   0  0  0  0  0  0
  -22.4121  -11.9909   22.4859 H   0  0  0  0  0  0
  -21.1081  -13.1220   22.2592 H   0  0  0  0  0  0
  -24.6536  -15.8456   20.5281 H   0  0  0  0  0  0
  -26.2617  -15.6381   20.0675 H   0  0  0  0  0  0
  -26.7164  -32.5430   23.1122 H   0  0  0  0  0  0
  -24.9988  -33.9724   25.0394 H   0  0  0  0  0  0
  -22.7176  -31.3025   21.3997 H   0  0  0  0  0  0
  -23.3753  -35.9635   23.3287 H   0  0  0  0  0  0
  -24.3586  -36.8936   22.2055 H   0  0  0  0  0  0
  -23.7242  -37.6508   23.6669 H   0  0  0  0  0  0
  -26.1037  -31.5404   20.6078 H   0  0  0  0  0  0
  -26.8457  -30.8263   22.0098 H   0  0  0  0  0  0
  -28.1152  -28.9501   21.2074 H   0  0  0  0  0  0
  -25.9620  -25.9453   18.9571 H   0  0  0  0  0  0
  -23.9771  -27.3231   18.9843 H   0  0  0  0  0  0
  -23.7620  -30.5982   19.4048 H   0  0  0  0  0  0
  -22.7607  -29.2511   19.8529 H   0  0  0  0  0  0
  -25.1282  -36.1949   25.0831 H   0  0  0  0  0  0
  -20.9997  -28.3254   24.1384 H   0  0  0  0  0  0
  -20.5661  -26.2294   23.3602 H   0  0  0  0  0  0
  -21.6653  -26.7411   22.1203 H   0  0  0  0  0  0
  -19.6915  -25.6275   21.1238 H   0  0  0  0  0  0
  -19.6699  -27.3171   20.6725 H   0  0  0  0  0  0
  -17.4205  -26.6654   21.4020 H   0  0  0  0  0  0
  -18.0352  -26.0054   22.9017 H   0  0  0  0  0  0
  -19.7943  -30.7262   24.2259 H   0  0  0  0  0  0
  -17.5019  -31.6257   24.5151 H   0  0  0  0  0  0
  -15.5361  -30.2971   23.7639 H   0  0  0  0  0  0
  -15.8683  -28.0811   22.7042 H   0  0  0  0  0  0
  -24.5843  -30.7112   25.7823 H   0  0  0  0  0  0
  -24.8884  -32.2934   26.4896 H   0  0  0  0  0  0
  -25.7998  -30.8944   27.0257 H   0  0  0  0  0  0
  -26.2850  -29.6804   24.1164 H   0  0  0  0  0  0
  -27.3890  -29.7226   25.4709 H   0  0  0  0  0  0
  -27.8771  -30.4303   23.9492 H   0  0  0  0  0  0
  -27.2621  -33.3618   26.2107 H   0  0  0  0  0  0
  -28.3815  -32.6883   25.0326 H   0  0  0  0  0  0
  -28.0699  -31.8441   26.5407 H   0  0  0  0  0  0
  -28.2570  -38.0119   24.7509 H   0  0  0  0  0  0
  -28.1109  -36.2642   24.6265 H   0  0  0  0  0  0
  -27.2312  -37.1447   25.8860 H   0  0  0  0  0  0
  -20.9359  -29.8806   21.6918 H   0  0  0  0  0  0
  -26.0173  -38.2860   24.1406 H   0  0  0  0  0  0
  -30.6930  -22.1424   21.9500 H   0  0  0  0  0  0
  -31.5230  -17.9042   21.8932 H   0  0  0  0  0  0
  -28.6150  -19.5681   19.1822 H   0  0  0  0  0  0
  -32.1355  -21.1758   23.6182 H   0  0  0  0  0  0
  -33.2454  -20.2160   22.6336 H   0  0  0  0  0  0
  -32.2154  -19.4254   23.8280 H   0  0  0  0  0  0
  -27.6939  -22.1220   20.1841 H   0  0  0  0  0  0
  -28.8132  -22.2524   18.8716 H   0  0  0  0  0  0
  -30.7486  -17.0242   19.1338 H   0  0  0  0  0  0
  -29.0305  -17.1083   19.1838 H   0  0  0  0  0  0
  -30.1132  -24.0348   20.0670 H   0  0  0  0  0  0
  -29.1304  -23.8572   21.4928 H   0  0  0  0  0  0
  -27.1403  -24.6807   20.3113 H   0  0  0  0  0  0
  -28.0218  -24.8697   18.8186 H   0  0  0  0  0  0
  -28.9327  -15.5890   20.9890 H   0  0  0  0  0  0
  1 25  1  0  0  0
  1 30  2  0  0  0
  1 82  1  0  0  0
  2  3  1  0  0  0
  2 25  1  0  0  0
  2 83  1  0  0  0
  2 84  1  0  0  0
  3  4  1  0  0  0
  3 85  1  0  0  0
  3 86  1  0  0  0
  4  5  1  0  0  0
  4 87  1  0  0  0
  4 88  1  0  0  0
  5  6  1  0  0  0
  5 26  1  0  0  0
  5 89  1  0  0  0
  6 25  1  0  0  0
  6 90  1  0  0  0
  6 91  1  0  0  0
  7  8  2  0  0  0
  7 26  1  0  0  0
  7 29  1  0  0  0
  8  9  1  0  0  0
  8 22  1  0  0  0
  9 10  1  0  0  0
  9 27  2  0  0  0
 10 11  2  0  0  0
 10 15  1  0  0  0
 11 12  1  0  0  0
 11 92  1  0  0  0
 12 13  2  0  0  0
 12 93  1  0  0  0
 13 14  1  0  0  0
 13 31  1  0  0  0
 14 15  2  0  0  0
 14 94  1  0  0  0
 15 95  1  0  0  0
 16 17  2  0  0  0
 16 21  1  0  0  0
 16 31  1  0  0  0
 17 18  1  0  0  0
 17 96  1  0  0  0
 18 19  2  0  0  0
 18 97  1  0  0  0
 19 20  1  0  0  0
 19 24  1  0  0  0
 20 21  2  0  0  0
 20 98  1  0  0  0
 21 23  1  0  0  0
 22 28  1  0  0  0
 22 32  2  0  0  0
 26 27  1  0  0  0
 28 99  1  0  0  0
 28100  1  0  0  0
 29101  1  0  0  0
 29102  1  0  0  0
 33 34  1  0  0  0
 33 66  1  0  0  0
 33 70  2  0  0  0
 34 36  1  0  0  0
 34 59  1  0  0  0
 34103  1  0  0  0
 35 44  2  0  0  0
 35 45  1  0  0  0
 35 68  1  0  0  0
 36 56  1  0  0  0
 36104  1  0  0  0
 37 39  1  0  0  0
 37 47  1  0  0  0
 37 66  1  0  0  0
 37105  1  0  0  0
 38 43  2  0  0  0
 38 46  1  0  0  0
 38 47  1  0  0  0
 39 64  1  0  0  0
 39 67  2  0  0  0
 40 52  1  0  0  0
 40 53  2  0  0  0
 40 58  1  0  0  0
 41106  1  0  0  0
 41107  1  0  0  0
 41108  1  0  0  0
 41 48  1  0  0  0
 42 43  1  0  0  0
 42 66  1  0  0  0
 42109  1  0  0  0
 42110  1  0  0  0
 43 44  1  0  0  0
 44111  1  0  0  0
 45 46  2  0  0  0
 45112  1  0  0  0
 46113  1  0  0  0
 47114  1  0  0  0
 47115  1  0  0  0
 48 56  1  0  0  0
 48 65  1  0  0  0
 48116  1  0  0  0
 49 50  1  0  0  0
 49 53  1  0  0  0
 49 64  1  0  0  0
 49117  1  0  0  0
 50 51  1  0  0  0
 50118  1  0  0  0
 50119  1  0  0  0
 51 52  1  0  0  0
 51120  1  0  0  0
 51121  1  0  0  0
 52122  1  0  0  0
 52123  1  0  0  0
 53 54  1  0  0  0
 54 55  2  0  0  0
 54124  1  0  0  0
 55 57  1  0  0  0
 55125  1  0  0  0
 56 69  2  0  0  0
 57 58  2  0  0  0
 57126  1  0  0  0
 58127  1  0  0  0
 59 60  1  0  0  0
 59 61  1  0  0  0
 59 62  1  0  0  0
 60128  1  0  0  0
 60129  1  0  0  0
 60130  1  0  0  0
 61131  1  0  0  0
 61132  1  0  0  0
 61133  1  0  0  0
 62134  1  0  0  0
 62135  1  0  0  0
 62136  1  0  0  0
 63 65  1  0  0  0
 63137  1  0  0  0
 63138  1  0  0  0
 63139  1  0  0  0
 64140  1  0  0  0
 65141  1  0  0  0
 68 81  1  0  0  0
 71 74  2  0  0  0
 71 75  1  0  0  0
 71142  1  0  0  0
 72 74  1  0  0  0
 72 76  2  0  0  0
 72143  1  0  0  0
 73 75  2  0  0  0
 73 76  1  0  0  0
 73144  1  0  0  0
 74 77  1  0  0  0
 75 78  1  0  0  0
 76 79  1  0  0  0
 77145  1  0  0  0
 77146  1  0  0  0
 77147  1  0  0  0
 78 80  1  0  0  0
 78148  1  0  0  0
 78149  1  0  0  0
 79 82  1  0  0  0
 79150  1  0  0  0
 79151  1  0  0  0
 80 81  1  0  0  0
 80152  1  0  0  0
 80153  1  0  0  0
 81154  1  0  0  0
 81155  1  0  0  0
 82156  1  0  0  0
M  ISO  4   1 100  68 101  81 101  82 100
M  END
> <chiral flag>
0

> <version>
0

> <s_m_source_file>
/data/baiqing/PycharmProjects/Reinvent-master-3.2/result/LINK_invent/BTK/process_docking_weight1_custom_sum_contain_oxygen_bond_distance_aromatic_linkinvent_7_9_3/rearranged_h_0035.sdf

> <i_m_source_file_index>
57

> <r_mmod_Potential_Energy-OPLS-2005>
52.2945861816406

> <r_mmod_Stretch_Energy-OPLS-2005>
99.1585388183594

> <r_mmod_Bend_Energy-OPLS-2005>
147.319000244141

> <r_mmod_Torsional_Energy-OPLS-2005>
213.933990478516

> <r_mmod_Improper_Torsional_Energy-OPLS-2005>
9.23031139373779

> <r_mmod_Van_der_Waal_Energy-OPLS-2005>
140.231353759766

> <r_mmod_Electrostatic_Energy-OPLS-2005>
-410.536773681641

> <r_mmod_Solvation_Energy-OPLS-2005>
-211.63671875

> <b_mmod_Minimization_Converged-OPLS-2005>
0

> <r_mmod_RMS_Derivative-OPLS-2005>
2.65606904029846

$$$$
57
                    3D
 Structure written by MMmdl.
168176  0  0  1  0            999 V2000
  -31.1734  -12.9980   19.5288 C   0  0  0  0  0  0
  -29.6881  -14.2059   19.7336 C   0  0  0  0  0  0
  -28.6975  -14.0263   18.5743 C   0  0  0  0  0  0
  -27.4975  -13.1892   18.7653 C   0  0  0  0  0  0
  -27.5273  -13.0347   20.2435 C   0  0  2  0  0  0
  -28.8389  -12.2668   20.7365 C   0  0  0  0  0  0
  -25.1703  -13.7244   20.7587 C   0  0  0  0  0  0
  -24.0980  -12.9953   21.0162 C   0  0  0  0  0  0
  -24.5640  -11.6407   21.0079 C   0  0  0  0  0  0
  -23.8538  -10.4020   21.0889 C   0  0  0  0  0  0
  -24.3278   -9.3890   21.9355 C   0  0  0  0  0  0
  -23.6220   -8.1817   22.0594 C   0  0  0  0  0  0
  -22.4173   -8.0047   21.3377 C   0  0  0  0  0  0
  -21.9909   -8.9982   20.4332 C   0  0  0  0  0  0
  -22.7066  -10.1864   20.2981 C   0  0  0  0  0  0
  -21.6922   -6.0702   22.5468 C   0  0  0  0  0  0
  -21.3955   -6.5649   23.8325 C   0  0  0  0  0  0
  -21.3584   -5.6820   24.9322 C   0  0  0  0  0  0
  -21.6017   -4.3110   24.7464 C   0  0  0  0  0  0
  -21.8816   -3.8188   23.4610 C   0  0  0  0  0  0
  -21.9237   -4.6910   22.3669 C   0  0  0  0  0  0
  -22.6788  -13.4715   21.1894 C   0  0  0  0  0  0
  -22.1720   -4.2062   21.1237 F   0  0  0  0  0  0
  -21.5634   -3.4613   25.7931 F   0  0  0  0  0  0
  -30.1102  -13.0309   20.3515 N   0  0  0  0  0  0
  -26.2140  -12.8058   20.6577 N   0  0  0  0  0  0
  -25.8604  -11.5497   20.8221 N   0  0  0  0  0  0
  -21.8998  -12.7396   21.9554 N   0  0  0  0  0  0
  -25.3004  -15.1186   20.6210 N   0  0  0  0  0  0
  -32.1015  -13.8451   19.6810 O   0  0  0  0  0  0
  -21.6656   -6.8596   21.4305 O   0  0  0  0  0  0
  -22.2840  -14.5073   20.6325 O   0  0  0  0  0  0
  -24.6736  -31.8456   23.1919 C   0  0  0  0  0  0
  -25.9518  -32.4626   23.8212 C   0  0  1  0  0  0
  -26.9896  -27.0769   19.8960 C   0  0  0  0  0  0
  -25.6284  -33.8468   24.2141 N   0  0  0  0  0  0
  -23.4364  -30.4952   21.5561 C   0  0  2  0  0  0
  -24.8097  -28.9294   20.0889 C   0  0  0  0  0  0
  -22.7554  -29.4656   22.5013 C   0  0  0  0  0  0
  -18.0351  -28.1367   22.8446 C   0  0  0  0  0  0
  -24.1540  -36.7137   23.2547 C   0  0  0  0  0  0
  -26.0033  -30.6669   21.3901 C   0  0  0  0  0  0
  -26.0195  -29.2869   20.6886 C   0  0  0  0  0  0
  -27.1345  -28.3601   20.5870 C   0  0  0  0  0  0
  -25.7234  -26.8074   19.3598 C   0  0  0  0  0  0
  -24.6675  -27.7118   19.4329 C   0  0  0  0  0  0
  -23.6270  -29.8677   20.1615 C   0  0  0  0  0  0
  -25.4127  -36.2952   24.0306 C   0  0  1  0  0  0
  -20.5914  -28.3672   23.1282 C   0  0  2  0  0  0
  -20.6754  -26.9415   22.5337 C   0  0  0  0  0  0
  -19.5750  -26.6359   21.5119 C   0  0  0  0  0  0
  -18.1939  -26.7880   22.1548 C   0  0  0  0  0  0
  -19.1575  -28.8849   23.2873 C   0  0  0  0  0  0
  -18.9492  -30.1435   23.8935 C   0  0  0  0  0  0
  -17.6484  -30.6584   24.0483 C   0  0  0  0  0  0
  -25.9211  -34.9359   23.5018 C   0  0  0  0  0  0
  -16.5401  -29.9017   23.6345 C   0  0  0  0  0  0
  -16.7301  -28.6411   23.0408 C   0  0  0  0  0  0
  -26.4711  -31.6487   25.0715 C   0  0  0  0  0  0
  -25.3842  -31.3780   26.1367 C   0  0  0  0  0  0
  -27.0341  -30.2756   24.6290 C   0  0  0  0  0  0
  -27.6213  -32.4090   25.7622 C   0  0  0  0  0  0
  -27.5552  -37.1759   24.8481 C   0  0  0  0  0  0
  -21.4286  -29.3106   22.3772 N   0  0  0  0  0  0
  -26.4228  -37.3710   23.9520 N   0  0  0  0  0  0
  -24.7267  -31.0140   22.1009 N   0  0  0  0  0  0
  -23.4236  -28.8254   23.3088 O   0  0  0  0  0  0
  -27.9005  -26.0077   19.6510 O   0  0  0  0  0  0
  -26.5559  -34.8905   22.4500 O   0  0  0  0  0  0
  -23.5865  -32.1422   23.7162 O   0  0  0  0  0  0
  -26.6607  -22.1338   18.5662 C   0  0  0  0  0  0
  -26.4366  -21.2940   17.3645 C   0  0  0  0  0  0
  -27.0663  -23.4874   18.4128 C   0  0  0  0  0  0
  -26.4757  -22.1140   16.2155 C   0  0  0  0  0  0
  -26.1003  -21.8816   14.7205 C   0  0  0  0  0  0
  -27.3769  -24.5142   19.6388 C   0  0  0  0  0  0
  -27.0699  -14.4726   15.7413 C   0  0  0  0  0  0
  -27.3543  -16.0276   15.9721 C   0  0  0  0  0  0
  -28.2570  -13.4184   15.4542 C   0  0  0  0  0  0
  -26.5328  -16.9757   16.9640 C   0  0  0  0  0  0
  -29.0937  -12.3190   16.2900 C   0  0  0  0  0  0
  -26.4960  -18.5515   16.5363 C   0  0  0  0  0  0
  -30.5725  -12.6334   16.9064 C   0  0  0  0  0  0
  -26.0993  -19.7475   17.5739 C   0  0  0  0  0  0
  -30.9503  -12.2184   18.3566 N   0  0  0  0  0  0
  -24.7779  -19.6194   17.7872 F   0  0  0  0  0  0
  -26.7046  -19.3548   18.6987 F   0  0  0  0  0  0
  -27.0847  -23.7639   16.6631 S   0  0  0  0  0  0
  -29.2801  -14.7266   20.5968 H   0  0  0  0  0  0
  -30.2305  -15.1515   19.5186 H   0  0  0  0  0  0
  -28.8924  -14.4126   17.5952 H   0  0  0  0  0  0
  -28.1460  -14.9439   18.8396 H   0  0  0  0  0  0
  -27.0816  -12.5408   18.0039 H   0  0  0  0  0  0
  -26.5857  -13.7818   18.5795 H   0  0  0  0  0  0
  -27.5419  -13.9924   20.7397 H   0  0  0  0  0  0
  -28.7717  -11.2856   20.2437 H   0  0  0  0  0  0
  -28.8122  -12.0656   21.8035 H   0  0  0  0  0  0
  -25.2055   -9.5838   22.5341 H   0  0  0  0  0  0
  -24.0267   -7.4320   22.7282 H   0  0  0  0  0  0
  -21.1100   -8.8555   19.8298 H   0  0  0  0  0  0
  -22.3922  -10.9505   19.5913 H   0  0  0  0  0  0
  -21.1824   -7.6148   23.9912 H   0  0  0  0  0  0
  -21.1382   -6.0484   25.9174 H   0  0  0  0  0  0
  -22.0574   -2.7689   23.3285 H   0  0  0  0  0  0
  -22.2910  -11.8915   22.3481 H   0  0  0  0  0  0
  -20.9359  -12.9904   22.1493 H   0  0  0  0  0  0
  -24.3902  -15.5165   20.3855 H   0  0  0  0  0  0
  -26.0503  -15.5378   20.1173 H   0  0  0  0  0  0
  -26.7568  -32.5062   23.0879 H   0  0  0  0  0  0
  -25.0747  -33.9600   25.0449 H   0  0  0  0  0  0
  -22.7353  -31.3271   21.4427 H   0  0  0  0  0  0
  -23.3918  -35.9423   23.3178 H   0  0  0  0  0  0
  -24.3575  -36.8741   22.1972 H   0  0  0  0  0  0
  -23.7222  -37.6307   23.6554 H   0  0  0  0  0  0
  -26.1720  -31.4303   20.6306 H   0  0  0  0  0  0
  -26.8673  -30.6844   22.0333 H   0  0  0  0  0  0
  -28.0790  -28.6131   21.0559 H   0  0  0  0  0  0
  -25.4710  -25.8909   18.8432 H   0  0  0  0  0  0
  -23.7300  -27.4630   18.9509 H   0  0  0  0  0  0
  -23.8070  -30.6572   19.4313 H   0  0  0  0  0  0
  -22.7172  -29.3709   19.8281 H   0  0  0  0  0  0
  -25.1381  -36.1688   25.0790 H   0  0  0  0  0  0
  -20.9903  -28.3073   24.1414 H   0  0  0  0  0  0
  -20.5575  -26.2305   23.3540 H   0  0  0  0  0  0
  -21.6651  -26.7397   22.1226 H   0  0  0  0  0  0
  -19.6920  -25.6276   21.1141 H   0  0  0  0  0  0
  -19.6624  -27.3142   20.6638 H   0  0  0  0  0  0
  -17.4190  -26.6726   21.3911 H   0  0  0  0  0  0
  -18.0390  -25.9956   22.8915 H   0  0  0  0  0  0
  -19.8037  -30.7193   24.2215 H   0  0  0  0  0  0
  -17.5134  -31.6274   24.5085 H   0  0  0  0  0  0
  -15.5439  -30.2946   23.7679 H   0  0  0  0  0  0
  -15.8696  -28.0705   22.7183 H   0  0  0  0  0  0
  -24.6324  -30.6658   25.7835 H   0  0  0  0  0  0
  -24.8747  -32.2983   26.4223 H   0  0  0  0  0  0
  -25.8211  -30.9516   27.0379 H   0  0  0  0  0  0
  -26.2906  -29.6692   24.1086 H   0  0  0  0  0  0
  -27.3524  -29.6826   25.4897 H   0  0  0  0  0  0
  -27.9063  -30.3762   23.9807 H   0  0  0  0  0  0
  -27.2849  -33.3466   26.1974 H   0  0  0  0  0  0
  -28.4291  -32.6334   25.0649 H   0  0  0  0  0  0
  -28.0533  -31.8222   26.5760 H   0  0  0  0  0  0
  -28.2577  -38.0017   24.7576 H   0  0  0  0  0  0
  -28.1005  -36.2603   24.6296 H   0  0  0  0  0  0
  -27.2263  -37.1363   25.8835 H   0  0  0  0  0  0
  -20.9526  -29.8794   21.6964 H   0  0  0  0  0  0
  -26.0100  -38.2767   24.1532 H   0  0  0  0  0  0
  -26.4610  -21.6448   19.5142 H   0  0  0  0  0  0
  -26.0781  -22.8804   14.2453 H   0  0  0  0  0  0
  -25.1263  -21.3585   14.5133 H   0  0  0  0  0  0
  -26.8744  -21.3344   14.1234 H   0  0  0  0  0  0
  -28.0761  -23.9540   20.2411 H   0  0  0  0  0  0
  -26.4689  -24.4725   20.2372 H   0  0  0  0  0  0
  -26.7767  -14.5587   14.6864 H   0  0  0  0  0  0
  -26.1256  -14.1084   16.1691 H   0  0  0  0  0  0
  -27.3441  -16.5363   14.9989 H   0  0  0  0  0  0
  -28.3998  -16.1041   16.2486 H   0  0  0  0  0  0
  -29.0584  -14.1152   15.1796 H   0  0  0  0  0  0
  -27.8321  -12.8129   14.6249 H   0  0  0  0  0  0
  -26.9941  -16.8248   17.9371 H   0  0  0  0  0  0
  -25.5503  -16.5428   17.1732 H   0  0  0  0  0  0
  -29.3305  -11.6500   15.4466 H   0  0  0  0  0  0
  -28.4937  -11.6539   16.8879 H   0  0  0  0  0  0
  -25.8063  -18.6156   15.6915 H   0  0  0  0  0  0
  -27.4653  -18.7569   16.0774 H   0  0  0  0  0  0
  -30.8739  -13.6874   16.7193 H   0  0  0  0  0  0
  -31.1662  -11.9890   16.2310 H   0  0  0  0  0  0
  -31.2375  -11.2334   18.4180 H   0  0  0  0  0  0
  1 25  1  0  0  0
  1 30  2  0  0  0
  1 85  1  0  0  0
  2  3  1  0  0  0
  2 25  1  0  0  0
  2 89  1  0  0  0
  2 90  1  0  0  0
  3  4  1  0  0  0
  3 91  1  0  0  0
  3 92  1  0  0  0
  4  5  1  0  0  0
  4 93  1  0  0  0
  4 94  1  0  0  0
  5  6  1  0  0  0
  5 26  1  0  0  0
  5 95  1  0  0  0
  6 25  1  0  0  0
  6 96  1  0  0  0
  6 97  1  0  0  0
  7  8  2  0  0  0
  7 26  1  0  0  0
  7 29  1  0  0  0
  8  9  1  0  0  0
  8 22  1  0  0  0
  9 10  1  0  0  0
  9 27  2  0  0  0
 10 11  2  0  0  0
 10 15  1  0  0  0
 11 12  1  0  0  0
 11 98  1  0  0  0
 12 13  2  0  0  0
 12 99  1  0  0  0
 13 14  1  0  0  0
 13 31  1  0  0  0
 14 15  2  0  0  0
 14100  1  0  0  0
 15101  1  0  0  0
 16 17  2  0  0  0
 16 21  1  0  0  0
 16 31  1  0  0  0
 17 18  1  0  0  0
 17102  1  0  0  0
 18 19  2  0  0  0
 18103  1  0  0  0
 19 20  1  0  0  0
 19 24  1  0  0  0
 20 21  2  0  0  0
 20104  1  0  0  0
 21 23  1  0  0  0
 22 28  1  0  0  0
 22 32  2  0  0  0
 26 27  1  0  0  0
 28105  1  0  0  0
 28106  1  0  0  0
 29107  1  0  0  0
 29108  1  0  0  0
 33 34  1  0  0  0
 33 66  1  0  0  0
 33 70  2  0  0  0
 34 36  1  0  0  0
 34 59  1  0  0  0
 34109  1  0  0  0
 35 44  2  0  0  0
 35 45  1  0  0  0
 35 68  1  0  0  0
 36 56  1  0  0  0
 36110  1  0  0  0
 37 39  1  0  0  0
 37 47  1  0  0  0
 37 66  1  0  0  0
 37111  1  0  0  0
 38 43  2  0  0  0
 38 46  1  0  0  0
 38 47  1  0  0  0
 39 64  1  0  0  0
 39 67  2  0  0  0
 40 52  1  0  0  0
 40 53  2  0  0  0
 40 58  1  0  0  0
 41112  1  0  0  0
 41113  1  0  0  0
 41114  1  0  0  0
 41 48  1  0  0  0
 42 43  1  0  0  0
 42 66  1  0  0  0
 42115  1  0  0  0
 42116  1  0  0  0
 43 44  1  0  0  0
 44117  1  0  0  0
 45 46  2  0  0  0
 45118  1  0  0  0
 46119  1  0  0  0
 47120  1  0  0  0
 47121  1  0  0  0
 48 56  1  0  0  0
 48 65  1  0  0  0
 48122  1  0  0  0
 49 50  1  0  0  0
 49 53  1  0  0  0
 49 64  1  0  0  0
 49123  1  0  0  0
 50 51  1  0  0  0
 50124  1  0  0  0
 50125  1  0  0  0
 51 52  1  0  0  0
 51126  1  0  0  0
 51127  1  0  0  0
 52128  1  0  0  0
 52129  1  0  0  0
 53 54  1  0  0  0
 54 55  2  0  0  0
 54130  1  0  0  0
 55 57  1  0  0  0
 55131  1  0  0  0
 56 69  2  0  0  0
 57 58  2  0  0  0
 57132  1  0  0  0
 58133  1  0  0  0
 59 60  1  0  0  0
 59 61  1  0  0  0
 59 62  1  0  0  0
 60134  1  0  0  0
 60135  1  0  0  0
 60136  1  0  0  0
 61137  1  0  0  0
 61138  1  0  0  0
 61139  1  0  0  0
 62140  1  0  0  0
 62141  1  0  0  0
 62142  1  0  0  0
 63 65  1  0  0  0
 63143  1  0  0  0
 63144  1  0  0  0
 63145  1  0  0  0
 64146  1  0  0  0
 65147  1  0  0  0
 68 76  1  0  0  0
 71 72  1  0  0  0
 71 73  2  0  0  0
 71148  1  0  0  0
 72 74  2  0  0  0
 72 84  1  0  0  0
 73 76  1  0  0  0
 73 88  1  0  0  0
 74 75  1  0  0  0
 74 88  1  0  0  0
 75149  1  0  0  0
 75150  1  0  0  0
 75151  1  0  0  0
 76152  1  0  0  0
 76153  1  0  0  0
 77 78  1  0  0  0
 77 79  1  0  0  0
 77154  1  0  0  0
 77155  1  0  0  0
 78 80  1  0  0  0
 78156  1  0  0  0
 78157  1  0  0  0
 79 81  1  0  0  0
 79158  1  0  0  0
 79159  1  0  0  0
 80 82  1  0  0  0
 80160  1  0  0  0
 80161  1  0  0  0
 81 83  1  0  0  0
 81162  1  0  0  0
 81163  1  0  0  0
 82 84  1  0  0  0
 82164  1  0  0  0
 82165  1  0  0  0
 83 85  1  0  0  0
 83166  1  0  0  0
 83167  1  0  0  0
 84 86  1  0  0  0
 84 87  1  0  0  0
 85168  1  0  0  0
M  ISO  4   1 100  68 101  76 101  85 100
M  END
> <chiral flag>
0

> <version>
0

> <s_m_source_file>
/data/baiqing/PycharmProjects/Reinvent-master-3.2/result/LINK_invent/BTK/process_docking_weight1_custom_sum_contain_oxygen_bond_distance_aromatic_linkinvent_7_9_3/rearranged_h_0035.sdf

> <i_m_source_file_index>
58

> <r_mmod_Potential_Energy-OPLS-2005>
2774.35327148438

> <r_mmod_Stretch_Energy-OPLS-2005>
300.342956542969

> <r_mmod_Bend_Energy-OPLS-2005>
764.80224609375

> <r_mmod_Torsional_Energy-OPLS-2005>
399.966430664062

> <r_mmod_Improper_Torsional_Energy-OPLS-2005>
20.512451171875

> <r_mmod_Van_der_Waal_Energy-OPLS-2005>
278.471893310547

> <r_mmod_Electrostatic_Energy-OPLS-2005>
-342.851501464844

> <r_mmod_Solvation_Energy-OPLS-2005>
-214.728302001953

> <b_mmod_Minimization_Converged-OPLS-2005>
0

> <r_mmod_RMS_Derivative-OPLS-2005>
42.6154174804688

$$$$
58
                    3D
 Structure written by MMmdl.
156164  0  0  1  0            999 V2000
  -30.7631  -14.4411   20.5586 C   0  0  0  0  0  0
  -30.4513  -12.3057   19.3827 C   0  0  0  0  0  0
  -29.5091  -12.5374   18.1911 C   0  0  0  0  0  0
  -28.0278  -12.3767   18.5940 C   0  0  0  0  0  0
  -27.6846  -13.1655   19.8806 C   0  0  2  0  0  0
  -28.7540  -12.9536   20.9851 C   0  0  0  0  0  0
  -25.2792  -13.7979   20.5901 C   0  0  0  0  0  0
  -24.1989  -13.0374   20.9273 C   0  0  0  0  0  0
  -24.6479  -11.6777   20.8766 C   0  0  0  0  0  0
  -23.9132  -10.4193   21.0451 C   0  0  0  0  0  0
  -24.3614   -9.4087   21.9259 C   0  0  0  0  0  0
  -23.6240   -8.2164   22.0802 C   0  0  0  0  0  0
  -22.4218   -8.0247   21.3578 C   0  0  0  0  0  0
  -21.9884   -9.0255   20.4703 C   0  0  0  0  0  0
  -22.7285  -10.2099   20.3127 C   0  0  0  0  0  0
  -21.6787   -6.0704   22.5280 C   0  0  0  0  0  0
  -21.3977   -6.5624   23.8213 C   0  0  0  0  0  0
  -21.3682   -5.6804   24.9180 C   0  0  0  0  0  0
  -21.6054   -4.3052   24.7220 C   0  0  0  0  0  0
  -21.8821   -3.8138   23.4326 C   0  0  0  0  0  0
  -21.9169   -4.6950   22.3381 C   0  0  0  0  0  0
  -22.8006  -13.5180   21.1900 C   0  0  0  0  0  0
  -22.1642   -4.2124   21.0962 F   0  0  0  0  0  0
  -21.5669   -3.4558   25.7735 F   0  0  0  0  0  0
  -30.0719  -13.2784   20.4174 N   0  0  0  0  0  0
  -26.3203  -12.9092   20.3467 N   0  0  0  0  0  0
  -25.9379  -11.6289   20.5787 N   0  0  0  0  0  0
  -22.0542  -12.8216   22.0360 N   0  0  0  0  0  0
  -25.4709  -15.1717   20.4510 N   0  0  0  0  0  0
  -31.9003  -14.6081   20.1180 O   0  0  0  0  0  0
  -21.6598   -6.8839   21.4233 O   0  0  0  0  0  0
  -22.3776  -14.5566   20.6792 O   0  0  0  0  0  0
  -24.5988  -31.8754   23.2167 C   0  0  0  0  0  0
  -25.8936  -32.4813   23.8355 C   0  0  1  0  0  0
  -27.2118  -27.4664   20.0482 C   0  0  0  0  0  0
  -25.5799  -33.8616   24.2276 N   0  0  0  0  0  0
  -23.3762  -30.5038   21.5732 C   0  0  2  0  0  0
  -24.8120  -28.9821   20.1170 C   0  0  0  0  0  0
  -22.7303  -29.4738   22.5224 C   0  0  0  0  0  0
  -18.0298  -28.1194   22.8834 C   0  0  0  0  0  0
  -24.1485  -36.7276   23.2640 C   0  0  0  0  0  0
  -25.8993  -30.8567   21.3552 C   0  0  0  0  0  0
  -25.9755  -29.4882   20.7053 C   0  0  0  0  0  0
  -27.1725  -28.7353   20.6702 C   0  0  0  0  0  0
  -26.0217  -26.9712   19.4623 C   0  0  0  0  0  0
  -24.8345  -27.7266   19.4889 C   0  0  0  0  0  0
  -23.5657  -29.8341   20.1873 C   0  0  0  0  0  0
  -25.4122  -36.3085   24.0335 C   0  0  1  0  0  0
  -20.5917  -28.3525   23.1560 C   0  0  2  0  0  0
  -20.6930  -26.9437   22.5237 C   0  0  0  0  0  0
  -19.5875  -26.7132   21.4883 C   0  0  0  0  0  0
  -18.2019  -26.8176   22.1365 C   0  0  0  0  0  0
  -19.1533  -28.8630   23.3239 C   0  0  0  0  0  0
  -18.9395  -30.1364   23.8997 C   0  0  0  0  0  0
  -17.6415  -30.6570   24.0293 C   0  0  0  0  0  0
  -25.9068  -34.9439   23.5156 C   0  0  0  0  0  0
  -16.5317  -29.9006   23.6140 C   0  0  0  0  0  0
  -16.7241  -28.6284   23.0538 C   0  0  0  0  0  0
  -26.4399  -31.6507   25.0584 C   0  0  0  0  0  0
  -25.3677  -31.3539   26.1301 C   0  0  0  0  0  0
  -27.0201  -30.2987   24.5794 C   0  0  0  0  0  0
  -27.6013  -32.4196   25.7286 C   0  0  0  0  0  0
  -27.5582  -37.1756   24.8473 C   0  0  0  0  0  0
  -21.4091  -29.2973   22.3935 N   0  0  0  0  0  0
  -26.4306  -37.3774   23.9407 N   0  0  0  0  0  0
  -24.6434  -31.0920   22.1046 N   0  0  0  0  0  0
  -23.4164  -28.8348   23.3309 O   0  0  0  0  0  0
  -28.4159  -26.7958   20.0064 O   0  0  0  0  0  0
  -26.5726  -34.8885   22.4763 O   0  0  0  0  0  0
  -23.5256  -32.1515   23.7640 O   0  0  0  0  0  0
  -27.6198  -19.7630   20.5938 C   0  0  0  0  0  0
  -27.8198  -18.3819   20.3855 C   0  0  0  0  0  0
  -29.9221  -19.9434   21.3492 C   0  0  0  0  0  0
  -28.6675  -20.5488   21.1078 C   0  0  0  0  0  0
  -29.0717  -17.7677   20.6349 C   0  0  0  0  0  0
  -30.1398  -18.5729   21.1068 C   0  0  0  0  0  0
  -28.4320  -22.0081   21.4682 C   0  0  0  0  0  0
  -29.1556  -16.2620   20.3809 C   0  0  0  0  0  0
  -28.4149  -22.9907   20.2822 C   0  0  0  0  0  0
  -28.3292  -24.4716   20.7402 C   0  0  0  0  0  0
  -28.4733  -25.4388   19.5580 C   0  0  0  0  0  0
  -30.1391  -15.4777   21.1279 N   0  0  0  0  0  0
  -31.7215  -17.9517   21.4431 Cl  0  0  0  0  0  0
  -31.4860  -12.4290   19.0557 H   0  0  0  0  0  0
  -30.3905  -11.2777   19.7558 H   0  0  0  0  0  0
  -29.7619  -11.8671   17.3693 H   0  0  0  0  0  0
  -29.6683  -13.5510   17.8173 H   0  0  0  0  0  0
  -27.8070  -11.3157   18.7142 H   0  0  0  0  0  0
  -27.3972  -12.7390   17.7783 H   0  0  0  0  0  0
  -27.7216  -14.1991   19.5632 H   0  0  0  0  0  0
  -28.7700  -11.9112   21.3105 H   0  0  0  0  0  0
  -28.5430  -13.5357   21.8782 H   0  0  0  0  0  0
  -25.2742   -9.5461   22.4864 H   0  0  0  0  0  0
  -23.9963   -7.4458   22.7392 H   0  0  0  0  0  0
  -21.0897   -8.8781   19.8882 H   0  0  0  0  0  0
  -22.3855  -10.9689   19.6233 H   0  0  0  0  0  0
  -21.1973   -7.6134   23.9725 H   0  0  0  0  0  0
  -21.1543   -6.0518   25.9098 H   0  0  0  0  0  0
  -22.0592   -2.7596   23.2852 H   0  0  0  0  0  0
  -22.3999  -11.9786   22.4692 H   0  0  0  0  0  0
  -21.1196  -13.1376   22.2552 H   0  0  0  0  0  0
  -24.7871  -15.8584   20.7482 H   0  0  0  0  0  0
  -26.3541  -15.5696   20.1740 H   0  0  0  0  0  0
  -26.6960  -32.5537   23.1074 H   0  0  0  0  0  0
  -24.9644  -33.9754   25.0189 H   0  0  0  0  0  0
  -22.6487  -31.3142   21.4538 H   0  0  0  0  0  0
  -23.3756  -35.9607   23.3363 H   0  0  0  0  0  0
  -24.3550  -36.8841   22.2046 H   0  0  0  0  0  0
  -23.7229  -37.6481   23.6653 H   0  0  0  0  0  0
  -25.9890  -31.6258   20.5860 H   0  0  0  0  0  0
  -26.7953  -30.9112   21.9616 H   0  0  0  0  0  0
  -28.0708  -29.1356   21.1181 H   0  0  0  0  0  0
  -25.9675  -26.0315   18.9437 H   0  0  0  0  0  0
  -23.9443  -27.3419   19.0057 H   0  0  0  0  0  0
  -23.6146  -30.6079   19.4252 H   0  0  0  0  0  0
  -22.6918  -29.2324   19.9319 H   0  0  0  0  0  0
  -25.1304  -36.1973   25.0853 H   0  0  0  0  0  0
  -21.0183  -28.2943   24.1596 H   0  0  0  0  0  0
  -20.6391  -26.1526   23.2767 H   0  0  0  0  0  0
  -21.6907  -26.8451   22.0896 H   0  0  0  0  0  0
  -19.7040  -25.7830   20.9259 H   0  0  0  0  0  0
  -19.6611  -27.5207   20.7607 H   0  0  0  0  0  0
  -17.4373  -26.7992   21.3615 H   0  0  0  0  0  0
  -18.0032  -25.9658   22.7853 H   0  0  0  0  0  0
  -19.7817  -30.7210   24.2323 H   0  0  0  0  0  0
  -17.4863  -31.6461   24.4344 H   0  0  0  0  0  0
  -15.5303  -30.3025   23.7173 H   0  0  0  0  0  0
  -15.8629  -28.0557   22.7374 H   0  0  0  0  0  0
  -24.5926  -30.6830   25.7570 H   0  0  0  0  0  0
  -24.8754  -32.2671   26.4687 H   0  0  0  0  0  0
  -25.7980  -30.8712   27.0086 H   0  0  0  0  0  0
  -26.2732  -29.6808   24.0817 H   0  0  0  0  0  0
  -27.4067  -29.7074   25.4109 H   0  0  0  0  0  0
  -27.8493  -30.4368   23.8845 H   0  0  0  0  0  0
  -27.2694  -33.3554   26.1796 H   0  0  0  0  0  0
  -28.3772  -32.6661   25.0015 H   0  0  0  0  0  0
  -28.0700  -31.8330   26.5185 H   0  0  0  0  0  0
  -28.2618  -38.0036   24.7536 H   0  0  0  0  0  0
  -28.1060  -36.2566   24.6334 H   0  0  0  0  0  0
  -27.2267  -37.1428   25.8861 H   0  0  0  0  0  0
  -20.9349  -29.8608   21.7035 H   0  0  0  0  0  0
  -26.0202  -38.2865   24.1419 H   0  0  0  0  0  0
  -26.6513  -20.2019   20.3775 H   0  0  0  0  0  0
  -26.9794  -17.7937   20.0438 H   0  0  0  0  0  0
  -30.7387  -20.5249   21.7510 H   0  0  0  0  0  0
  -29.2123  -22.3017   22.1679 H   0  0  0  0  0  0
  -27.4891  -22.0730   22.0111 H   0  0  0  0  0  0
  -28.1878  -15.8833   20.6897 H   0  0  0  0  0  0
  -29.2427  -16.0845   19.3027 H   0  0  0  0  0  0
  -29.3257  -22.8537   19.6869 H   0  0  0  0  0  0
  -27.5841  -22.7336   19.6237 H   0  0  0  0  0  0
  -29.1235  -24.6837   21.4592 H   0  0  0  0  0  0
  -27.3946  -24.6881   21.2685 H   0  0  0  0  0  0
  -27.7632  -25.1788   18.7731 H   0  0  0  0  0  0
  -29.4437  -25.2915   19.0872 H   0  0  0  0  0  0
  -30.8364  -16.1135   21.4942 H   0  0  0  0  0  0
  1 25  1  0  0  0
  1 30  2  0  0  0
  1 82  1  0  0  0
  2  3  1  0  0  0
  2 25  1  0  0  0
  2 84  1  0  0  0
  2 85  1  0  0  0
  3  4  1  0  0  0
  3 86  1  0  0  0
  3 87  1  0  0  0
  4  5  1  0  0  0
  4 88  1  0  0  0
  4 89  1  0  0  0
  5  6  1  0  0  0
  5 26  1  0  0  0
  5 90  1  0  0  0
  6 25  1  0  0  0
  6 91  1  0  0  0
  6 92  1  0  0  0
  7  8  2  0  0  0
  7 26  1  0  0  0
  7 29  1  0  0  0
  8  9  1  0  0  0
  8 22  1  0  0  0
  9 10  1  0  0  0
  9 27  2  0  0  0
 10 11  2  0  0  0
 10 15  1  0  0  0
 11 12  1  0  0  0
 11 93  1  0  0  0
 12 13  2  0  0  0
 12 94  1  0  0  0
 13 14  1  0  0  0
 13 31  1  0  0  0
 14 15  2  0  0  0
 14 95  1  0  0  0
 15 96  1  0  0  0
 16 17  2  0  0  0
 16 21  1  0  0  0
 16 31  1  0  0  0
 17 18  1  0  0  0
 17 97  1  0  0  0
 18 19  2  0  0  0
 18 98  1  0  0  0
 19 20  1  0  0  0
 19 24  1  0  0  0
 20 21  2  0  0  0
 20 99  1  0  0  0
 21 23  1  0  0  0
 22 28  1  0  0  0
 22 32  2  0  0  0
 26 27  1  0  0  0
 28100  1  0  0  0
 28101  1  0  0  0
 29102  1  0  0  0
 29103  1  0  0  0
 33 34  1  0  0  0
 33 66  1  0  0  0
 33 70  2  0  0  0
 34 36  1  0  0  0
 34 59  1  0  0  0
 34104  1  0  0  0
 35 44  2  0  0  0
 35 45  1  0  0  0
 35 68  1  0  0  0
 36 56  1  0  0  0
 36105  1  0  0  0
 37 39  1  0  0  0
 37 47  1  0  0  0
 37 66  1  0  0  0
 37106  1  0  0  0
 38 43  2  0  0  0
 38 46  1  0  0  0
 38 47  1  0  0  0
 39 64  1  0  0  0
 39 67  2  0  0  0
 40 52  1  0  0  0
 40 53  2  0  0  0
 40 58  1  0  0  0
 41107  1  0  0  0
 41108  1  0  0  0
 41109  1  0  0  0
 41 48  1  0  0  0
 42 43  1  0  0  0
 42 66  1  0  0  0
 42110  1  0  0  0
 42111  1  0  0  0
 43 44  1  0  0  0
 44112  1  0  0  0
 45 46  2  0  0  0
 45113  1  0  0  0
 46114  1  0  0  0
 47115  1  0  0  0
 47116  1  0  0  0
 48 56  1  0  0  0
 48 65  1  0  0  0
 48117  1  0  0  0
 49 50  1  0  0  0
 49 53  1  0  0  0
 49 64  1  0  0  0
 49118  1  0  0  0
 50 51  1  0  0  0
 50119  1  0  0  0
 50120  1  0  0  0
 51 52  1  0  0  0
 51121  1  0  0  0
 51122  1  0  0  0
 52123  1  0  0  0
 52124  1  0  0  0
 53 54  1  0  0  0
 54 55  2  0  0  0
 54125  1  0  0  0
 55 57  1  0  0  0
 55126  1  0  0  0
 56 69  2  0  0  0
 57 58  2  0  0  0
 57127  1  0  0  0
 58128  1  0  0  0
 59 60  1  0  0  0
 59 61  1  0  0  0
 59 62  1  0  0  0
 60129  1  0  0  0
 60130  1  0  0  0
 60131  1  0  0  0
 61132  1  0  0  0
 61133  1  0  0  0
 61134  1  0  0  0
 62135  1  0  0  0
 62136  1  0  0  0
 62137  1  0  0  0
 63 65  1  0  0  0
 63138  1  0  0  0
 63139  1  0  0  0
 63140  1  0  0  0
 64141  1  0  0  0
 65142  1  0  0  0
 68 81  1  0  0  0
 71 72  2  0  0  0
 71 74  1  0  0  0
 71143  1  0  0  0
 72 75  1  0  0  0
 72144  1  0  0  0
 73 74  2  0  0  0
 73 76  1  0  0  0
 73145  1  0  0  0
 74 77  1  0  0  0
 75 76  2  0  0  0
 75 78  1  0  0  0
 76 83  1  0  0  0
 77 79  1  0  0  0
 77146  1  0  0  0
 77147  1  0  0  0
 78 82  1  0  0  0
 78148  1  0  0  0
 78149  1  0  0  0
 79 80  1  0  0  0
 79150  1  0  0  0
 79151  1  0  0  0
 80 81  1  0  0  0
 80152  1  0  0  0
 80153  1  0  0  0
 81154  1  0  0  0
 81155  1  0  0  0
 82156  1  0  0  0
M  ISO  4   1 100  68 101  81 101  82 100
M  END
> <chiral flag>
0

> <version>
0

> <s_m_source_file>
/data/baiqing/PycharmProjects/Reinvent-master-3.2/result/LINK_invent/BTK/process_docking_weight1_custom_sum_contain_oxygen_bond_distance_aromatic_linkinvent_7_9_3/rearranged_h_0035.sdf

> <i_m_source_file_index>
59

> <r_mmod_Potential_Energy-OPLS-2005>
12.3281860351562

> <r_mmod_Stretch_Energy-OPLS-2005>
33.083610534668

> <r_mmod_Bend_Energy-OPLS-2005>
126.160469055176

> <r_mmod_Torsional_Energy-OPLS-2005>
247.176666259766

> <r_mmod_Improper_Torsional_Energy-OPLS-2005>
8.39169216156006

> <r_mmod_Van_der_Waal_Energy-OPLS-2005>
162.172576904297

> <r_mmod_Electrostatic_Energy-OPLS-2005>
-383.820709228516

> <r_mmod_Solvation_Energy-OPLS-2005>
-197.930770874023

> <b_mmod_Minimization_Converged-OPLS-2005>
0

> <r_mmod_RMS_Derivative-OPLS-2005>
11.9417724609375

$$$$
59
                    3D
 Structure written by MMmdl.
181190  0  0  1  0            999 V2000
  -30.7119  -14.3976   20.5814 C   0  0  0  0  0  0
  -30.4118  -12.2639   19.4052 C   0  0  0  0  0  0
  -29.4824  -12.5216   18.2029 C   0  0  0  0  0  0
  -28.0009  -12.4056   18.6120 C   0  0  0  0  0  0
  -27.6662  -13.2083   19.8970 C   0  0  2  0  0  0
  -28.7105  -12.9258   21.0034 C   0  0  0  0  0  0
  -25.2557  -13.8159   20.5724 C   0  0  0  0  0  0
  -24.1811  -13.0413   20.9181 C   0  0  0  0  0  0
  -24.6365  -11.6879   20.8741 C   0  0  0  0  0  0
  -23.9028  -10.4267   21.0366 C   0  0  0  0  0  0
  -24.3587   -9.4188   21.9155 C   0  0  0  0  0  0
  -23.6268   -8.2225   22.0724 C   0  0  0  0  0  0
  -22.4260   -8.0245   21.3502 C   0  0  0  0  0  0
  -21.9870   -9.0211   20.4609 C   0  0  0  0  0  0
  -22.7190  -10.2106   20.3015 C   0  0  0  0  0  0
  -21.6876   -6.0699   22.5262 C   0  0  0  0  0  0
  -21.4020   -6.5607   23.8184 C   0  0  0  0  0  0
  -21.3670   -5.6762   24.9154 C   0  0  0  0  0  0
  -21.6069   -4.3021   24.7202 C   0  0  0  0  0  0
  -21.8836   -3.8105   23.4323 C   0  0  0  0  0  0
  -21.9195   -4.6930   22.3384 C   0  0  0  0  0  0
  -22.7832  -13.5190   21.1806 C   0  0  0  0  0  0
  -22.1676   -4.2115   21.0964 F   0  0  0  0  0  0
  -21.5615   -3.4504   25.7709 F   0  0  0  0  0  0
  -30.0483  -13.2205   20.4583 N   0  0  0  0  0  0
  -26.3030  -12.9348   20.3505 N   0  0  0  0  0  0
  -25.9314  -11.6487   20.5851 N   0  0  0  0  0  0
  -22.0493  -12.8209   22.0402 N   0  0  0  0  0  0
  -25.4159  -15.1913   20.4123 N   0  0  0  0  0  0
  -31.8123  -14.6094   20.0625 O   0  0  0  0  0  0
  -21.6640   -6.8833   21.4208 O   0  0  0  0  0  0
  -22.3512  -14.5473   20.6619 O   0  0  0  0  0  0
  -24.6151  -31.8705   23.2174 C   0  0  0  0  0  0
  -25.9060  -32.4850   23.8422 C   0  0  1  0  0  0
  -27.2217  -27.4581   20.0906 C   0  0  0  0  0  0
  -25.5954  -33.8647   24.2379 N   0  0  0  0  0  0
  -23.3982  -30.5031   21.5526 C   0  0  2  0  0  0
  -24.8428  -28.9755   20.1146 C   0  0  0  0  0  0
  -22.7395  -29.4694   22.4943 C   0  0  0  0  0  0
  -18.0271  -28.1358   22.8494 C   0  0  0  0  0  0
  -24.1484  -36.7305   23.2633 C   0  0  0  0  0  0
  -25.9251  -30.8466   21.3635 C   0  0  0  0  0  0
  -25.9999  -29.4777   20.7200 C   0  0  0  0  0  0
  -27.1920  -28.7238   20.7147 C   0  0  0  0  0  0
  -26.0543  -26.9842   19.4505 C   0  0  0  0  0  0
  -24.8616  -27.7252   19.4775 C   0  0  0  0  0  0
  -23.6081  -29.8452   20.1629 C   0  0  0  0  0  0
  -25.4101  -36.3120   24.0349 C   0  0  1  0  0  0
  -20.5865  -28.3651   23.1299 C   0  0  2  0  0  0
  -20.6773  -26.9387   22.5401 C   0  0  0  0  0  0
  -19.5755  -26.6395   21.5195 C   0  0  0  0  0  0
  -18.1928  -26.7919   22.1605 C   0  0  0  0  0  0
  -19.1520  -28.8819   23.2909 C   0  0  0  0  0  0
  -18.9459  -30.1431   23.8924 C   0  0  0  0  0  0
  -17.6463  -30.6579   24.0568 C   0  0  0  0  0  0
  -25.9029  -34.9481   23.5138 C   0  0  0  0  0  0
  -16.5354  -29.9072   23.6339 C   0  0  0  0  0  0
  -16.7265  -28.6486   23.0360 C   0  0  0  0  0  0
  -26.4501  -31.6574   25.0703 C   0  0  0  0  0  0
  -25.3769  -31.3601   26.1439 C   0  0  0  0  0  0
  -27.0326  -30.3057   24.5953 C   0  0  0  0  0  0
  -27.6094  -32.4246   25.7481 C   0  0  0  0  0  0
  -27.5569  -37.1804   24.8469 C   0  0  0  0  0  0
  -21.4118  -29.3045   22.3705 N   0  0  0  0  0  0
  -26.4285  -37.3806   23.9418 N   0  0  0  0  0  0
  -24.6649  -31.0824   22.1063 N   0  0  0  0  0  0
  -23.4179  -28.8222   23.2967 O   0  0  0  0  0  0
  -28.3940  -26.7430   20.0572 O   0  0  0  0  0  0
  -26.5538  -34.8923   22.4673 O   0  0  0  0  0  0
  -23.5369  -32.1436   23.7623 O   0  0  0  0  0  0
  -33.3689  -18.8420   19.2019 C   0  0  0  0  0  0
  -33.6662  -18.9828   17.8373 C   0  0  0  0  0  0
  -31.0318  -19.3278   18.7295 C   0  0  0  0  0  0
  -31.3059  -19.4610   17.3451 C   0  0  0  0  0  0
  -32.0493  -19.0184   19.6554 C   0  0  0  0  0  0
  -32.6499  -19.2845   16.9051 C   0  0  0  0  0  0
  -28.8058  -19.1719   16.5996 C   0  0  0  0  0  0
  -30.0454  -21.3496   16.1514 C   0  0  0  0  0  0
  -27.9263  -19.8712   17.6638 C   0  0  0  0  0  0
  -28.8973  -22.0138   16.9491 C   0  0  0  0  0  0
  -30.1851  -19.8207   16.3471 C   0  0  1  0  0  0
  -33.0489  -19.4079   15.4424 C   0  0  0  0  0  0
  -31.7271  -18.8814   21.1384 C   0  0  0  0  0  0
  -31.4007  -17.4403   21.5800 C   0  0  0  0  0  0
  -28.2914  -22.9267   19.9436 C   0  0  0  0  0  0
  -27.7832  -24.3505   19.6745 C   0  0  0  0  0  0
  -30.2126  -16.8028   20.8258 C   0  0  0  0  0  0
  -27.5782  -21.8676   19.0706 C   0  0  0  0  0  0
  -28.3678  -25.4241   20.6152 C   0  0  0  0  0  0
  -30.0045  -15.3884   21.1375 N   0  0  0  0  0  0
  -28.4741  -21.1838   18.1026 N   0  3  1  0  0  0
  -31.4575  -12.3467   19.1023 H   0  0  0  0  0  0
  -30.2891  -11.2404   19.7639 H   0  0  0  0  0  0
  -29.6921  -11.8177   17.3983 H   0  0  0  0  0  0
  -29.6805  -13.5178   17.8043 H   0  0  0  0  0  0
  -27.7764  -11.3497   18.7580 H   0  0  0  0  0  0
  -27.3569  -12.7358   17.7954 H   0  0  0  0  0  0
  -27.7225  -14.2673   19.6408 H   0  0  0  0  0  0
  -28.6629  -11.8751   21.2956 H   0  0  0  0  0  0
  -28.4955  -13.4858   21.9136 H   0  0  0  0  0  0
  -25.2734   -9.5693   22.4723 H   0  0  0  0  0  0
  -23.9985   -7.4629   22.7465 H   0  0  0  0  0  0
  -21.0783   -8.8703   19.8939 H   0  0  0  0  0  0
  -22.3601  -10.9626   19.6120 H   0  0  0  0  0  0
  -21.2020   -7.6115   23.9673 H   0  0  0  0  0  0
  -21.1497   -6.0494   25.9060 H   0  0  0  0  0  0
  -22.0609   -2.7557   23.2837 H   0  0  0  0  0  0
  -22.4141  -11.9912   22.4853 H   0  0  0  0  0  0
  -21.1077  -13.1180   22.2531 H   0  0  0  0  0  0
  -24.6244  -15.8212   20.4918 H   0  0  0  0  0  0
  -26.2589  -15.6532   20.0958 H   0  0  0  0  0  0
  -26.7113  -32.5576   23.1170 H   0  0  0  0  0  0
  -25.0299  -33.9844   25.0652 H   0  0  0  0  0  0
  -22.6842  -31.3207   21.4163 H   0  0  0  0  0  0
  -23.3761  -35.9624   23.3331 H   0  0  0  0  0  0
  -24.3589  -36.8889   22.2044 H   0  0  0  0  0  0
  -23.7227  -37.6518   23.6620 H   0  0  0  0  0  0
  -26.0146  -31.6053   20.5842 H   0  0  0  0  0  0
  -26.8258  -30.9166   21.9590 H   0  0  0  0  0  0
  -28.0863  -29.1120   21.1822 H   0  0  0  0  0  0
  -26.0568  -26.0723   18.8824 H   0  0  0  0  0  0
  -23.9806  -27.3425   18.9826 H   0  0  0  0  0  0
  -23.7198  -30.6267   19.4091 H   0  0  0  0  0  0
  -22.7349  -29.2664   19.8627 H   0  0  0  0  0  0
  -25.1257  -36.2007   25.0843 H   0  0  0  0  0  0
  -20.9944  -28.3217   24.1424 H   0  0  0  0  0  0
  -20.5693  -26.2231   23.3571 H   0  0  0  0  0  0
  -21.6637  -26.7473   22.1164 H   0  0  0  0  0  0
  -19.6933  -25.6319   21.1196 H   0  0  0  0  0  0
  -19.6715  -27.3218   20.6737 H   0  0  0  0  0  0
  -17.4194  -26.6686   21.4004 H   0  0  0  0  0  0
  -18.0363  -26.0032   22.8975 H   0  0  0  0  0  0
  -19.7945  -30.7250   24.2290 H   0  0  0  0  0  0
  -17.5020  -31.6265   24.5159 H   0  0  0  0  0  0
  -15.5360  -30.2981   23.7656 H   0  0  0  0  0  0
  -15.8658  -28.0820   22.7052 H   0  0  0  0  0  0
  -24.6021  -30.6853   25.7760 H   0  0  0  0  0  0
  -24.8856  -32.2709   26.4873 H   0  0  0  0  0  0
  -25.8166  -30.8811   27.0195 H   0  0  0  0  0  0
  -26.2822  -29.6800   24.1104 H   0  0  0  0  0  0
  -27.4287  -29.7287   25.4306 H   0  0  0  0  0  0
  -27.8554  -30.4444   23.8935 H   0  0  0  0  0  0
  -27.2763  -33.3575   26.2040 H   0  0  0  0  0  0
  -28.3952  -32.6748   25.0326 H   0  0  0  0  0  0
  -28.0665  -31.8323   26.5411 H   0  0  0  0  0  0
  -28.2576  -38.0107   24.7554 H   0  0  0  0  0  0
  -28.1071  -36.2651   24.6260 H   0  0  0  0  0  0
  -27.2277  -37.1400   25.8863 H   0  0  0  0  0  0
  -20.9241  -29.8800   21.6971 H   0  0  0  0  0  0
  -26.0181  -38.2886   24.1448 H   0  0  0  0  0  0
  -34.1616  -18.5992   19.8964 H   0  0  0  0  0  0
  -34.6912  -18.8554   17.5122 H   0  0  0  0  0  0
  -30.0357  -19.4372   19.1197 H   0  0  0  0  0  0
  -28.2544  -19.2281   15.6585 H   0  0  0  0  0  0
  -28.8974  -18.1039   16.8037 H   0  0  0  0  0  0
  -30.9956  -21.8438   16.3629 H   0  0  0  0  0  0
  -29.8598  -21.5465   15.0951 H   0  0  0  0  0  0
  -27.8218  -19.2161   18.5304 H   0  0  0  0  0  0
  -26.9143  -20.0036   17.2745 H   0  0  0  0  0  0
  -28.0419  -22.1984   16.2956 H   0  0  0  0  0  0
  -29.2296  -22.9911   17.2956 H   0  0  0  0  0  0
  -30.4933  -19.4085   15.3885 H   0  0  0  0  0  0
  -34.1275  -19.3064   15.3058 H   0  0  0  0  0  0
  -32.7572  -20.3821   15.0514 H   0  0  0  0  0  0
  -32.5719  -18.6291   14.8470 H   0  0  0  0  0  0
  -30.9040  -19.5520   21.3958 H   0  0  0  0  0  0
  -32.5896  -19.2356   21.7044 H   0  0  0  0  0  0
  -31.1948  -17.4406   22.6505 H   0  0  0  0  0  0
  -32.2931  -16.8313   21.4427 H   0  0  0  0  0  0
  -28.1081  -22.6835   20.9908 H   0  0  0  0  0  0
  -29.3741  -22.8748   19.8190 H   0  0  0  0  0  0
  -26.7013  -24.3283   19.8020 H   0  0  0  0  0  0
  -27.9829  -24.6251   18.6376 H   0  0  0  0  0  0
  -30.3555  -16.8822   19.7463 H   0  0  0  0  0  0
  -29.2962  -17.3507   21.0454 H   0  0  0  0  0  0
  -26.7130  -22.2823   18.5506 H   0  0  0  0  0  0
  -27.1736  -21.1165   19.7492 H   0  0  0  0  0  0
  -29.4024  -25.1716   20.8483 H   0  0  0  0  0  0
  -27.8355  -25.4186   21.5689 H   0  0  0  0  0  0
  -29.1124  -15.1289   21.5339 H   0  0  0  0  0  0
  -29.3255  -20.9759   18.6027 H   0  0  0  0  0  0
  1 25  1  0  0  0
  1 30  2  0  0  0
  1 90  1  0  0  0
  2  3  1  0  0  0
  2 25  1  0  0  0
  2 92  1  0  0  0
  2 93  1  0  0  0
  3  4  1  0  0  0
  3 94  1  0  0  0
  3 95  1  0  0  0
  4  5  1  0  0  0
  4 96  1  0  0  0
  4 97  1  0  0  0
  5  6  1  0  0  0
  5 26  1  0  0  0
  5 98  1  0  0  0
  6 25  1  0  0  0
  6 99  1  0  0  0
  6100  1  0  0  0
  7  8  2  0  0  0
  7 26  1  0  0  0
  7 29  1  0  0  0
  8  9  1  0  0  0
  8 22  1  0  0  0
  9 10  1  0  0  0
  9 27  2  0  0  0
 10 11  2  0  0  0
 10 15  1  0  0  0
 11 12  1  0  0  0
 11101  1  0  0  0
 12 13  2  0  0  0
 12102  1  0  0  0
 13 14  1  0  0  0
 13 31  1  0  0  0
 14 15  2  0  0  0
 14103  1  0  0  0
 15104  1  0  0  0
 16 17  2  0  0  0
 16 21  1  0  0  0
 16 31  1  0  0  0
 17 18  1  0  0  0
 17105  1  0  0  0
 18 19  2  0  0  0
 18106  1  0  0  0
 19 20  1  0  0  0
 19 24  1  0  0  0
 20 21  2  0  0  0
 20107  1  0  0  0
 21 23  1  0  0  0
 22 28  1  0  0  0
 22 32  2  0  0  0
 26 27  1  0  0  0
 28108  1  0  0  0
 28109  1  0  0  0
 29110  1  0  0  0
 29111  1  0  0  0
 33 34  1  0  0  0
 33 66  1  0  0  0
 33 70  2  0  0  0
 34 36  1  0  0  0
 34 59  1  0  0  0
 34112  1  0  0  0
 35 44  2  0  0  0
 35 45  1  0  0  0
 35 68  1  0  0  0
 36 56  1  0  0  0
 36113  1  0  0  0
 37 39  1  0  0  0
 37 47  1  0  0  0
 37 66  1  0  0  0
 37114  1  0  0  0
 38 43  2  0  0  0
 38 46  1  0  0  0
 38 47  1  0  0  0
 39 64  1  0  0  0
 39 67  2  0  0  0
 40 52  1  0  0  0
 40 53  2  0  0  0
 40 58  1  0  0  0
 41115  1  0  0  0
 41116  1  0  0  0
 41117  1  0  0  0
 41 48  1  0  0  0
 42 43  1  0  0  0
 42 66  1  0  0  0
 42118  1  0  0  0
 42119  1  0  0  0
 43 44  1  0  0  0
 44120  1  0  0  0
 45 46  2  0  0  0
 45121  1  0  0  0
 46122  1  0  0  0
 47123  1  0  0  0
 47124  1  0  0  0
 48 56  1  0  0  0
 48 65  1  0  0  0
 48125  1  0  0  0
 49 50  1  0  0  0
 49 53  1  0  0  0
 49 64  1  0  0  0
 49126  1  0  0  0
 50 51  1  0  0  0
 50127  1  0  0  0
 50128  1  0  0  0
 51 52  1  0  0  0
 51129  1  0  0  0
 51130  1  0  0  0
 52131  1  0  0  0
 52132  1  0  0  0
 53 54  1  0  0  0
 54 55  2  0  0  0
 54133  1  0  0  0
 55 57  1  0  0  0
 55134  1  0  0  0
 56 69  2  0  0  0
 57 58  2  0  0  0
 57135  1  0  0  0
 58136  1  0  0  0
 59 60  1  0  0  0
 59 61  1  0  0  0
 59 62  1  0  0  0
 60137  1  0  0  0
 60138  1  0  0  0
 60139  1  0  0  0
 61140  1  0  0  0
 61141  1  0  0  0
 61142  1  0  0  0
 62143  1  0  0  0
 62144  1  0  0  0
 62145  1  0  0  0
 63 65  1  0  0  0
 63146  1  0  0  0
 63147  1  0  0  0
 63148  1  0  0  0
 64149  1  0  0  0
 65150  1  0  0  0
 68 89  1  0  0  0
 71 72  2  0  0  0
 71 75  1  0  0  0
 71151  1  0  0  0
 72 76  1  0  0  0
 72152  1  0  0  0
 73 74  1  0  0  0
 73 75  2  0  0  0
 73153  1  0  0  0
 74 76  2  0  0  0
 74 81  1  0  0  0
 75 83  1  0  0  0
 76 82  1  0  0  0
 77 79  1  0  0  0
 77 81  1  0  0  0
 77154  1  0  0  0
 77155  1  0  0  0
 78 80  1  0  0  0
 78 81  1  0  0  0
 78156  1  0  0  0
 78157  1  0  0  0
 79 91  1  0  0  0
 79158  1  0  0  0
 79159  1  0  0  0
 80 91  1  0  0  0
 80160  1  0  0  0
 80161  1  0  0  0
 81162  1  0  0  0
 82163  1  0  0  0
 82164  1  0  0  0
 82165  1  0  0  0
 83 84  1  0  0  0
 83166  1  0  0  0
 83167  1  0  0  0
 84 87  1  0  0  0
 84168  1  0  0  0
 84169  1  0  0  0
 85 86  1  0  0  0
 85 88  1  0  0  0
 85170  1  0  0  0
 85171  1  0  0  0
 86 89  1  0  0  0
 86172  1  0  0  0
 86173  1  0  0  0
 87 90  1  0  0  0
 87174  1  0  0  0
 87175  1  0  0  0
 88176  1  0  0  0
 88177  1  0  0  0
 88 91  1  0  0  0
 89178  1  0  0  0
 89179  1  0  0  0
 90180  1  0  0  0
 91181  1  0  0  0
M  CHG  1  91   1
M  ISO  4   1 100  68 101  89 101  90 100
M  END
> <chiral flag>
0

> <version>
0

> <s_m_source_file>
/data/baiqing/PycharmProjects/Reinvent-master-3.2/result/LINK_invent/BTK/process_docking_weight1_custom_sum_contain_oxygen_bond_distance_aromatic_linkinvent_7_9_3/rearranged_h_0035.sdf

> <i_m_source_file_index>
60

> <r_mmod_Potential_Energy-OPLS-2005>
-80.9943771362305

> <r_mmod_Stretch_Energy-OPLS-2005>
37.5459022521973

> <r_mmod_Bend_Energy-OPLS-2005>
104.974235534668

> <r_mmod_Torsional_Energy-OPLS-2005>
308.320434570312

> <r_mmod_Improper_Torsional_Energy-OPLS-2005>
5.8214750289917

> <r_mmod_Van_der_Waal_Energy-OPLS-2005>
165.131912231445

> <r_mmod_Electrostatic_Energy-OPLS-2005>
-271.190582275391

> <r_mmod_Solvation_Energy-OPLS-2005>
-440.5

> <b_mmod_Minimization_Converged-OPLS-2005>
0

> <r_mmod_RMS_Derivative-OPLS-2005>
4.82616186141968

$$$$
60
                    3D
 Structure written by MMmdl.
171180  0  0  1  0            999 V2000
  -30.6619  -14.6569   20.4066 C   0  0  0  0  0  0
  -30.4114  -12.3795   19.4537 C   0  0  0  0  0  0
  -29.4852  -12.4658   18.2201 C   0  0  0  0  0  0
  -28.0101  -12.3205   18.6400 C   0  0  0  0  0  0
  -27.6368  -13.2281   19.8419 C   0  0  2  0  0  0
  -28.6920  -13.1633   20.9716 C   0  0  0  0  0  0
  -25.2501  -13.8196   20.5736 C   0  0  0  0  0  0
  -24.1818  -13.0463   20.9260 C   0  0  0  0  0  0
  -24.6421  -11.6915   20.8819 C   0  0  0  0  0  0
  -23.9151  -10.4290   21.0447 C   0  0  0  0  0  0
  -24.3690   -9.4187   21.9217 C   0  0  0  0  0  0
  -23.6344   -8.2238   22.0767 C   0  0  0  0  0  0
  -22.4313   -8.0293   21.3572 C   0  0  0  0  0  0
  -21.9999   -9.0273   20.4651 C   0  0  0  0  0  0
  -22.7350  -10.2123   20.3062 C   0  0  0  0  0  0
  -21.6850   -6.0779   22.5309 C   0  0  0  0  0  0
  -21.4014   -6.5669   23.8233 C   0  0  0  0  0  0
  -21.3658   -5.6809   24.9189 C   0  0  0  0  0  0
  -21.6036   -4.3080   24.7235 C   0  0  0  0  0  0
  -21.8815   -3.8183   23.4353 C   0  0  0  0  0  0
  -21.9190   -4.7018   22.3402 C   0  0  0  0  0  0
  -22.7815  -13.5182   21.1901 C   0  0  0  0  0  0
  -22.1643   -4.2205   21.0987 F   0  0  0  0  0  0
  -21.5643   -3.4548   25.7740 F   0  0  0  0  0  0
  -30.0064  -13.4532   20.3835 N   0  0  0  0  0  0
  -26.2930  -12.9416   20.3314 N   0  0  0  0  0  0
  -25.9336  -11.6565   20.5842 N   0  0  0  0  0  0
  -22.0469  -12.8111   22.0396 N   0  0  0  0  0  0
  -25.4182  -15.1959   20.4149 N   0  0  0  0  0  0
  -31.8587  -14.7376   20.1249 O   0  0  0  0  0  0
  -21.6636   -6.8925   21.4263 O   0  0  0  0  0  0
  -22.3476  -14.5500   20.6757 O   0  0  0  0  0  0
  -24.6305  -31.8590   23.1891 C   0  0  0  0  0  0
  -25.9112  -32.4758   23.8278 C   0  0  1  0  0  0
  -27.2472  -27.2827   20.1119 C   0  0  0  0  0  0
  -25.5996  -33.8533   24.2378 N   0  0  0  0  0  0
  -23.4223  -30.4795   21.5317 C   0  0  2  0  0  0
  -24.8730  -28.9176   20.1157 C   0  0  0  0  0  0
  -22.7427  -29.4585   22.4817 C   0  0  0  0  0  0
  -18.0347  -28.1303   22.8600 C   0  0  0  0  0  0
  -24.1455  -36.7202   23.2646 C   0  0  0  0  0  0
  -25.9643  -30.7810   21.3492 C   0  0  0  0  0  0
  -26.0414  -29.3943   20.7179 C   0  0  0  0  0  0
  -27.2206  -28.5835   20.7157 C   0  0  0  0  0  0
  -26.0419  -26.8618   19.5034 C   0  0  0  0  0  0
  -24.8740  -27.6537   19.5080 C   0  0  0  0  0  0
  -23.6394  -29.7990   20.1570 C   0  0  0  0  0  0
  -25.4064  -36.3079   24.0430 C   0  0  1  0  0  0
  -20.5939  -28.3608   23.1328 C   0  0  2  0  0  0
  -20.6810  -26.9314   22.5456 C   0  0  0  0  0  0
  -19.5761  -26.6369   21.5277 C   0  0  0  0  0  0
  -18.1941  -26.7893   22.1692 C   0  0  0  0  0  0
  -19.1590  -28.8772   23.2992 C   0  0  0  0  0  0
  -18.9526  -30.1410   23.8935 C   0  0  0  0  0  0
  -17.6507  -30.6533   24.0557 C   0  0  0  0  0  0
  -25.9029  -34.9440   23.5215 C   0  0  0  0  0  0
  -16.5400  -29.8993   23.6376 C   0  0  0  0  0  0
  -16.7334  -28.6419   23.0408 C   0  0  0  0  0  0
  -26.4519  -31.6429   25.0580 C   0  0  0  0  0  0
  -25.3757  -31.3374   26.1281 C   0  0  0  0  0  0
  -27.0436  -30.2975   24.5812 C   0  0  0  0  0  0
  -27.6201  -32.3931   25.7386 C   0  0  0  0  0  0
  -27.5548  -37.1758   24.8534 C   0  0  0  0  0  0
  -21.4123  -29.2975   22.3616 N   0  0  0  0  0  0
  -26.4254  -37.3796   23.9505 N   0  0  0  0  0  0
  -24.6916  -31.0578   22.0820 N   0  0  0  0  0  0
  -23.4116  -28.8055   23.2859 O   0  0  0  0  0  0
  -28.3953  -26.4518   20.1534 O   0  0  0  0  0  0
  -26.5498  -34.8904   22.4713 O   0  0  0  0  0  0
  -23.5448  -32.1325   23.7235 O   0  0  0  0  0  0
  -29.8184  -19.7426   19.7321 C   0  0  0  0  0  0
  -30.5200  -21.1059   21.5667 C   0  0  0  0  0  0
  -29.8296  -21.0590   20.3382 C   0  0  0  0  0  0
  -30.2658  -18.5511   20.4113 C   0  0  0  0  0  0
  -30.8343  -18.7763   21.6867 C   0  0  0  0  0  0
  -26.7122  -21.4894   20.0400 C   0  0  0  0  0  0
  -27.7855  -21.9375   19.0378 C   0  0  0  0  0  0
  -26.2853  -22.5707   21.0475 C   0  0  0  0  0  0
  -28.3481  -23.7722   21.8556 C   0  0  0  0  0  0
  -29.1475  -22.3466   19.6719 C   0  0  1  0  0  0
  -29.0152  -23.7949   20.4418 C   0  0  1  0  0  0
  -29.9198  -17.3371   23.4834 C   0  0  0  0  0  0
  -30.1479  -17.1163   19.7373 C   0  0  0  0  0  0
  -31.1605  -17.6301   22.6251 C   0  0  0  0  0  0
  -28.4650  -25.0624   19.5817 C   0  0  0  0  0  0
  -30.9774  -20.0131   22.2205 N   0  0  0  0  0  0
  -29.8919  -15.7921   20.4488 N   0  0  0  0  0  0
  -27.3053  -22.7391   22.0996 N   0  3  0  0  0  0
  -31.4532  -12.4658   19.1442 H   0  0  0  0  0  0
  -30.3192  -11.4037   19.9336 H   0  0  0  0  0  0
  -29.7370  -11.6848   17.4991 H   0  0  0  0  0  0
  -29.6274  -13.4146   17.7042 H   0  0  0  0  0  0
  -27.8449  -11.2735   18.8990 H   0  0  0  0  0  0
  -27.3489  -12.5194   17.7938 H   0  0  0  0  0  0
  -27.6241  -14.2444   19.4498 H   0  0  0  0  0  0
  -28.6892  -12.1814   21.4482 H   0  0  0  0  0  0
  -28.4531  -13.8841   21.7546 H   0  0  0  0  0  0
  -25.2831   -9.5645   22.4822 H   0  0  0  0  0  0
  -24.0057   -7.4608   22.7437 H   0  0  0  0  0  0
  -21.0980   -8.8806   19.8904 H   0  0  0  0  0  0
  -22.3874  -10.9683   19.6162 H   0  0  0  0  0  0
  -21.1980   -7.6171   23.9777 H   0  0  0  0  0  0
  -21.1486   -6.0524   25.9102 H   0  0  0  0  0  0
  -22.0600   -2.7663   23.2828 H   0  0  0  0  0  0
  -22.4076  -11.9695   22.4690 H   0  0  0  0  0  0
  -21.1071  -13.1066   22.2608 H   0  0  0  0  0  0
  -24.6570  -15.8513   20.5483 H   0  0  0  0  0  0
  -26.2651  -15.6424   20.0920 H   0  0  0  0  0  0
  -26.7104  -32.5465   23.0936 H   0  0  0  0  0  0
  -25.0510  -33.9634   25.0784 H   0  0  0  0  0  0
  -22.7303  -31.3094   21.3729 H   0  0  0  0  0  0
  -23.3792  -35.9462   23.3326 H   0  0  0  0  0  0
  -24.3560  -36.8739   22.2046 H   0  0  0  0  0  0
  -23.7065  -37.6391   23.6563 H   0  0  0  0  0  0
  -26.0654  -31.5216   20.5524 H   0  0  0  0  0  0
  -26.8605  -30.8625   21.9535 H   0  0  0  0  0  0
  -28.1081  -28.9509   21.2128 H   0  0  0  0  0  0
  -25.9377  -25.9054   19.0198 H   0  0  0  0  0  0
  -23.9754  -27.2608   19.0563 H   0  0  0  0  0  0
  -23.7463  -30.5686   19.3933 H   0  0  0  0  0  0
  -22.7665  -29.2170   19.8589 H   0  0  0  0  0  0
  -25.1180  -36.2008   25.0929 H   0  0  0  0  0  0
  -21.0218  -28.3194   24.1366 H   0  0  0  0  0  0
  -20.5823  -26.2144   23.3620 H   0  0  0  0  0  0
  -21.6639  -26.7340   22.1134 H   0  0  0  0  0  0
  -19.6894  -25.6325   21.1177 H   0  0  0  0  0  0
  -19.6690  -27.3318   20.6917 H   0  0  0  0  0  0
  -17.4237  -26.6890   21.4015 H   0  0  0  0  0  0
  -18.0149  -25.9931   22.8957 H   0  0  0  0  0  0
  -19.7993  -30.7285   24.2220 H   0  0  0  0  0  0
  -17.5040  -31.6243   24.5067 H   0  0  0  0  0  0
  -15.5382  -30.2848   23.7679 H   0  0  0  0  0  0
  -15.8793  -28.0723   22.7032 H   0  0  0  0  0  0
  -24.6201  -30.6419   25.7571 H   0  0  0  0  0  0
  -24.8565  -32.2373   26.4605 H   0  0  0  0  0  0
  -25.8136  -30.8718   27.0118 H   0  0  0  0  0  0
  -26.3106  -29.6731   24.0716 H   0  0  0  0  0  0
  -27.4255  -29.7123   25.4190 H   0  0  0  0  0  0
  -27.8830  -30.4510   23.9018 H   0  0  0  0  0  0
  -27.3196  -33.3414   26.1816 H   0  0  0  0  0  0
  -28.4184  -32.6009   25.0249 H   0  0  0  0  0  0
  -28.0590  -31.7923   26.5376 H   0  0  0  0  0  0
  -28.2617  -38.0013   24.7628 H   0  0  0  0  0  0
  -28.1009  -36.2559   24.6356 H   0  0  0  0  0  0
  -27.2258  -37.1358   25.8937 H   0  0  0  0  0  0
  -20.9133  -29.8656   21.6892 H   0  0  0  0  0  0
  -26.0178  -38.2908   24.1501 H   0  0  0  0  0  0
  -29.4376  -19.6269   18.7290 H   0  0  0  0  0  0
  -30.6774  -22.0386   22.0865 H   0  0  0  0  0  0
  -27.0301  -20.5913   20.5700 H   0  0  0  0  0  0
  -25.8357  -21.1839   19.4706 H   0  0  0  0  0  0
  -27.3775  -22.7513   18.4422 H   0  0  0  0  0  0
  -27.9093  -21.1380   18.3048 H   0  0  0  0  0  0
  -25.3675  -22.2187   21.5273 H   0  0  0  0  0  0
  -26.0522  -23.5252   20.5716 H   0  0  0  0  0  0
  -27.9352  -24.7546   22.0847 H   0  0  0  0  0  0
  -29.1052  -23.6497   22.6279 H   0  0  0  0  0  0
  -29.7925  -22.5597   18.8166 H   0  0  0  0  0  0
  -30.0439  -24.0927   20.6581 H   0  0  0  0  0  0
  -30.0499  -16.4689   24.1278 H   0  0  0  0  0  0
  -29.0498  -17.1564   22.8454 H   0  0  0  0  0  0
  -29.6909  -18.1997   24.1141 H   0  0  0  0  0  0
  -30.9829  -16.9889   19.0447 H   0  0  0  0  0  0
  -29.2780  -17.2289   19.0942 H   0  0  0  0  0  0
  -32.0273  -17.8412   23.2514 H   0  0  0  0  0  0
  -31.4732  -16.7602   22.0608 H   0  0  0  0  0  0
  -27.5391  -24.7685   19.1080 H   0  0  0  0  0  0
  -29.1405  -25.1631   18.7288 H   0  0  0  0  0  0
  -28.9238  -15.5837   20.6387 H   0  0  0  0  0  0
  -27.7270  -21.8371   22.2767 H   0  0  0  0  0  0
  -26.8273  -22.9940   22.9511 H   0  0  0  0  0  0
  1 25  1  0  0  0
  1 30  2  0  0  0
  1 87  1  0  0  0
  2  3  1  0  0  0
  2 25  1  0  0  0
  2 89  1  0  0  0
  2 90  1  0  0  0
  3  4  1  0  0  0
  3 91  1  0  0  0
  3 92  1  0  0  0
  4  5  1  0  0  0
  4 93  1  0  0  0
  4 94  1  0  0  0
  5  6  1  0  0  0
  5 26  1  0  0  0
  5 95  1  0  0  0
  6 25  1  0  0  0
  6 96  1  0  0  0
  6 97  1  0  0  0
  7  8  2  0  0  0
  7 26  1  0  0  0
  7 29  1  0  0  0
  8  9  1  0  0  0
  8 22  1  0  0  0
  9 10  1  0  0  0
  9 27  2  0  0  0
 10 11  2  0  0  0
 10 15  1  0  0  0
 11 12  1  0  0  0
 11 98  1  0  0  0
 12 13  2  0  0  0
 12 99  1  0  0  0
 13 14  1  0  0  0
 13 31  1  0  0  0
 14 15  2  0  0  0
 14100  1  0  0  0
 15101  1  0  0  0
 16 17  2  0  0  0
 16 21  1  0  0  0
 16 31  1  0  0  0
 17 18  1  0  0  0
 17102  1  0  0  0
 18 19  2  0  0  0
 18103  1  0  0  0
 19 20  1  0  0  0
 19 24  1  0  0  0
 20 21  2  0  0  0
 20104  1  0  0  0
 21 23  1  0  0  0
 22 28  1  0  0  0
 22 32  2  0  0  0
 26 27  1  0  0  0
 28105  1  0  0  0
 28106  1  0  0  0
 29107  1  0  0  0
 29108  1  0  0  0
 33 34  1  0  0  0
 33 66  1  0  0  0
 33 70  2  0  0  0
 34 36  1  0  0  0
 34 59  1  0  0  0
 34109  1  0  0  0
 35 44  2  0  0  0
 35 45  1  0  0  0
 35 68  1  0  0  0
 36 56  1  0  0  0
 36110  1  0  0  0
 37 39  1  0  0  0
 37 47  1  0  0  0
 37 66  1  0  0  0
 37111  1  0  0  0
 38 43  2  0  0  0
 38 46  1  0  0  0
 38 47  1  0  0  0
 39 64  1  0  0  0
 39 67  2  0  0  0
 40 52  1  0  0  0
 40 53  2  0  0  0
 40 58  1  0  0  0
 41112  1  0  0  0
 41113  1  0  0  0
 41114  1  0  0  0
 41 48  1  0  0  0
 42 43  1  0  0  0
 42 66  1  0  0  0
 42115  1  0  0  0
 42116  1  0  0  0
 43 44  1  0  0  0
 44117  1  0  0  0
 45 46  2  0  0  0
 45118  1  0  0  0
 46119  1  0  0  0
 47120  1  0  0  0
 47121  1  0  0  0
 48 56  1  0  0  0
 48 65  1  0  0  0
 48122  1  0  0  0
 49 50  1  0  0  0
 49 53  1  0  0  0
 49 64  1  0  0  0
 49123  1  0  0  0
 50 51  1  0  0  0
 50124  1  0  0  0
 50125  1  0  0  0
 51 52  1  0  0  0
 51126  1  0  0  0
 51127  1  0  0  0
 52128  1  0  0  0
 52129  1  0  0  0
 53 54  1  0  0  0
 54 55  2  0  0  0
 54130  1  0  0  0
 55 57  1  0  0  0
 55131  1  0  0  0
 56 69  2  0  0  0
 57 58  2  0  0  0
 57132  1  0  0  0
 58133  1  0  0  0
 59 60  1  0  0  0
 59 61  1  0  0  0
 59 62  1  0  0  0
 60134  1  0  0  0
 60135  1  0  0  0
 60136  1  0  0  0
 61137  1  0  0  0
 61138  1  0  0  0
 61139  1  0  0  0
 62140  1  0  0  0
 62141  1  0  0  0
 62142  1  0  0  0
 63 65  1  0  0  0
 63143  1  0  0  0
 63144  1  0  0  0
 63145  1  0  0  0
 64146  1  0  0  0
 65147  1  0  0  0
 68 85  1  0  0  0
 71 73  2  0  0  0
 71 74  1  0  0  0
 71148  1  0  0  0
 72 73  1  0  0  0
 72 86  2  0  0  0
 72149  1  0  0  0
 73 80  1  0  0  0
 74 75  2  0  0  0
 74 83  1  0  0  0
 75 84  1  0  0  0
 75 86  1  0  0  0
 76 77  1  0  0  0
 76 78  1  0  0  0
 76150  1  0  0  0
 76151  1  0  0  0
 77 80  1  0  0  0
 77152  1  0  0  0
 77153  1  0  0  0
 78 88  1  0  0  0
 78154  1  0  0  0
 78155  1  0  0  0
 79 81  1  0  0  0
 79 88  1  0  0  0
 79156  1  0  0  0
 79157  1  0  0  0
 80 81  1  0  0  0
 80158  1  0  0  0
 81 85  1  0  0  0
 81159  1  0  0  0
 82 84  1  0  0  0
 82160  1  0  0  0
 82161  1  0  0  0
 82162  1  0  0  0
 83 87  1  0  0  0
 83163  1  0  0  0
 83164  1  0  0  0
 84165  1  0  0  0
 84166  1  0  0  0
 85167  1  0  0  0
 85168  1  0  0  0
 87169  1  0  0  0
 88170  1  0  0  0
 88171  1  0  0  0
M  CHG  1  88   1
M  ISO  4   1 100  68 101  85 101  87 100
M  END
> <chiral flag>
0

> <version>
0

> <s_m_source_file>
/data/baiqing/PycharmProjects/Reinvent-master-3.2/result/LINK_invent/BTK/process_docking_weight1_custom_sum_contain_oxygen_bond_distance_aromatic_linkinvent_7_9_3/rearranged_h_0035.sdf

> <i_m_source_file_index>
61

> <r_mmod_Potential_Energy-OPLS-2005>
-73.2076568603516

> <r_mmod_Stretch_Energy-OPLS-2005>
124.598030090332

> <r_mmod_Bend_Energy-OPLS-2005>
204.787521362305

> <r_mmod_Torsional_Energy-OPLS-2005>
267.751434326172

> <r_mmod_Improper_Torsional_Energy-OPLS-2005>
9.63153839111328

> <r_mmod_Van_der_Waal_Energy-OPLS-2005>
142.823745727539

> <r_mmod_Electrostatic_Energy-OPLS-2005>
-423.250061035156

> <r_mmod_Solvation_Energy-OPLS-2005>
-462.271545410156

> <b_mmod_Minimization_Converged-OPLS-2005>
0

> <r_mmod_RMS_Derivative-OPLS-2005>
9.09199810028076

$$$$
61
                    3D
 Structure written by MMmdl.
177185  0  0  1  0            999 V2000
  -30.8645  -14.1545   20.8231 C   0  0  0  0  0  0
  -30.3836  -12.2802   19.3232 C   0  0  0  0  0  0
  -29.4397  -12.5424   18.1440 C   0  0  0  0  0  0
  -27.9711  -12.3983   18.5799 C   0  0  0  0  0  0
  -27.6514  -13.1983   19.8664 C   0  0  2  0  0  0
  -28.6873  -12.9210   20.9713 C   0  0  0  0  0  0
  -25.2562  -13.8136   20.5629 C   0  0  0  0  0  0
  -24.1804  -13.0433   20.9141 C   0  0  0  0  0  0
  -24.6309  -11.6891   20.8669 C   0  0  0  0  0  0
  -23.8994  -10.4269   21.0318 C   0  0  0  0  0  0
  -24.3538   -9.4202   21.9135 C   0  0  0  0  0  0
  -23.6232   -8.2252   22.0783 C   0  0  0  0  0  0
  -22.4222   -8.0250   21.3573 C   0  0  0  0  0  0
  -21.9844   -9.0204   20.4671 C   0  0  0  0  0  0
  -22.7147  -10.2093   20.3020 C   0  0  0  0  0  0
  -21.6859   -6.0703   22.5282 C   0  0  0  0  0  0
  -21.4024   -6.5625   23.8215 C   0  0  0  0  0  0
  -21.3650   -5.6784   24.9177 C   0  0  0  0  0  0
  -21.6023   -4.3053   24.7218 C   0  0  0  0  0  0
  -21.8819   -3.8125   23.4354 C   0  0  0  0  0  0
  -21.9200   -4.6930   22.3408 C   0  0  0  0  0  0
  -22.7826  -13.5274   21.1774 C   0  0  0  0  0  0
  -22.1665   -4.2101   21.0992 F   0  0  0  0  0  0
  -21.5610   -3.4539   25.7745 F   0  0  0  0  0  0
  -30.0296  -13.1760   20.4263 N   0  0  0  0  0  0
  -26.2962  -12.9282   20.3318 N   0  0  0  0  0  0
  -25.9235  -11.6445   20.5695 N   0  0  0  0  0  0
  -22.0416  -12.8328   22.0318 N   0  0  0  0  0  0
  -25.4407  -15.1840   20.4034 N   0  0  0  0  0  0
  -31.7387  -14.6473   20.0996 O   0  0  0  0  0  0
  -21.6646   -6.8816   21.4240 O   0  0  0  0  0  0
  -22.3530  -14.5582   20.6610 O   0  0  0  0  0  0
  -24.6113  -31.8717   23.2134 C   0  0  0  0  0  0
  -25.9014  -32.4843   23.8405 C   0  0  1  0  0  0
  -27.2415  -27.4822   20.0668 C   0  0  0  0  0  0
  -25.5875  -33.8640   24.2339 N   0  0  0  0  0  0
  -23.3968  -30.4953   21.5519 C   0  0  2  0  0  0
  -24.8433  -28.9602   20.1197 C   0  0  0  0  0  0
  -22.7380  -29.4684   22.5021 C   0  0  0  0  0  0
  -18.0266  -28.1391   22.8491 C   0  0  0  0  0  0
  -24.1464  -36.7287   23.2642 C   0  0  0  0  0  0
  -25.9220  -30.8449   21.3634 C   0  0  0  0  0  0
  -26.0009  -29.4791   20.7152 C   0  0  0  0  0  0
  -27.2031  -28.7396   20.6994 C   0  0  0  0  0  0
  -26.0651  -26.9543   19.4935 C   0  0  0  0  0  0
  -24.8659  -27.6904   19.5143 C   0  0  0  0  0  0
  -23.6033  -29.8219   20.1682 C   0  0  0  0  0  0
  -25.4091  -36.3116   24.0348 C   0  0  1  0  0  0
  -20.5857  -28.3660   23.1318 C   0  0  2  0  0  0
  -20.6763  -26.9399   22.5418 C   0  0  0  0  0  0
  -19.5753  -26.6395   21.5209 C   0  0  0  0  0  0
  -18.1914  -26.7946   22.1601 C   0  0  0  0  0  0
  -19.1517  -28.8841   23.2912 C   0  0  0  0  0  0
  -18.9459  -30.1449   23.8921 C   0  0  0  0  0  0
  -17.6461  -30.6592   24.0579 C   0  0  0  0  0  0
  -25.9025  -34.9482   23.5137 C   0  0  0  0  0  0
  -16.5347  -29.9101   23.6341 C   0  0  0  0  0  0
  -16.7255  -28.6522   23.0350 C   0  0  0  0  0  0
  -26.4455  -31.6615   25.0720 C   0  0  0  0  0  0
  -25.3716  -31.3650   26.1443 C   0  0  0  0  0  0
  -27.0327  -30.3084   24.6065 C   0  0  0  0  0  0
  -27.5991  -32.4356   25.7539 C   0  0  0  0  0  0
  -27.5572  -37.1819   24.8464 C   0  0  0  0  0  0
  -21.4123  -29.3035   22.3725 N   0  0  0  0  0  0
  -26.4271  -37.3816   23.9419 N   0  0  0  0  0  0
  -24.6604  -31.0826   22.1017 N   0  0  0  0  0  0
  -23.4155  -28.8241   23.3060 O   0  0  0  0  0  0
  -28.4189  -26.7835   19.9905 O   0  0  0  0  0  0
  -26.5605  -34.8944   22.4716 O   0  0  0  0  0  0
  -23.5308  -32.1471   23.7533 O   0  0  0  0  0  0
  -31.0886  -23.6878   17.7374 C   0  0  0  0  0  0
  -30.0193  -24.5979   17.8213 C   0  0  0  0  0  0
  -32.4346  -25.1512   19.1442 C   0  0  0  0  0  0
  -32.2945  -23.9474   18.4246 C   0  0  0  0  0  0
  -30.1448  -25.7890   18.5682 C   0  0  0  0  0  0
  -31.3753  -26.0824   19.2037 C   0  0  0  0  0  0
  -31.5848  -27.3866   19.9540 C   0  0  0  0  0  0
  -33.4095  -22.9105   18.4496 C   0  0  0  0  0  0
  -28.9489  -26.7258   18.6657 C   0  0  0  0  0  0
  -34.3414  -17.3237   23.4502 C   0  0  0  0  0  0
  -33.4192  -18.3686   22.7934 C   0  0  0  0  0  0
  -33.5415  -16.1051   23.9162 C   0  0  0  0  0  0
  -34.1477  -19.2257   21.7573 C   0  0  0  0  0  0
  -33.1770  -15.1856   22.7395 C   0  0  0  0  0  0
  -33.1727  -19.9168   20.7981 C   0  0  0  0  0  0
  -32.0128  -14.2381   23.0764 C   0  0  0  0  0  0
  -33.8898  -20.9168   19.8807 C   0  0  0  0  0  0
  -30.8682  -14.2394   22.1609 N   0  0  0  0  0  0
  -32.9064  -21.6877   19.0995 N   0  3  0  0  0  0
  -31.4232  -12.3968   19.0123 H   0  0  0  0  0  0
  -30.2864  -11.2473   19.6584 H   0  0  0  0  0  0
  -29.6525  -11.8521   17.3286 H   0  0  0  0  0  0
  -29.6094  -13.5445   17.7477 H   0  0  0  0  0  0
  -27.7676  -11.3383   18.7358 H   0  0  0  0  0  0
  -27.3137  -12.7193   17.7722 H   0  0  0  0  0  0
  -27.7183  -14.2549   19.6078 H   0  0  0  0  0  0
  -28.6226  -11.8819   21.3001 H   0  0  0  0  0  0
  -28.4563  -13.5308   21.8437 H   0  0  0  0  0  0
  -25.2656   -9.5732   22.4730 H   0  0  0  0  0  0
  -23.9935   -7.4669   22.7558 H   0  0  0  0  0  0
  -21.0775   -8.8686   19.8980 H   0  0  0  0  0  0
  -22.3547  -10.9621   19.6141 H   0  0  0  0  0  0
  -21.2036   -7.6141   23.9695 H   0  0  0  0  0  0
  -21.1459   -6.0530   25.9077 H   0  0  0  0  0  0
  -22.0593   -2.7577   23.2889 H   0  0  0  0  0  0
  -22.3950  -11.9981   22.4737 H   0  0  0  0  0  0
  -21.1035  -13.1441   22.2442 H   0  0  0  0  0  0
  -24.6929  -15.8604   20.5199 H   0  0  0  0  0  0
  -26.3090  -15.6044   20.0933 H   0  0  0  0  0  0
  -26.7091  -32.5560   23.1182 H   0  0  0  0  0  0
  -25.0029  -33.9821   25.0479 H   0  0  0  0  0  0
  -22.6845  -31.3111   21.4095 H   0  0  0  0  0  0
  -23.3758  -35.9586   23.3310 H   0  0  0  0  0  0
  -24.3556  -36.8901   22.2052 H   0  0  0  0  0  0
  -23.7169  -37.6474   23.6655 H   0  0  0  0  0  0
  -26.0306  -31.6103   20.5926 H   0  0  0  0  0  0
  -26.8113  -30.9003   21.9802 H   0  0  0  0  0  0
  -28.1040  -29.1433   21.1426 H   0  0  0  0  0  0
  -26.0790  -25.9827   19.0203 H   0  0  0  0  0  0
  -23.9738  -27.2813   19.0600 H   0  0  0  0  0  0
  -23.7062  -30.5931   19.4043 H   0  0  0  0  0  0
  -22.7303  -29.2357   19.8757 H   0  0  0  0  0  0
  -25.1277  -36.1986   25.0848 H   0  0  0  0  0  0
  -20.9949  -28.3224   24.1436 H   0  0  0  0  0  0
  -20.5645  -26.2274   23.3605 H   0  0  0  0  0  0
  -21.6641  -26.7443   22.1200 H   0  0  0  0  0  0
  -19.6898  -25.6307   21.1231 H   0  0  0  0  0  0
  -19.6705  -27.3214   20.6750 H   0  0  0  0  0  0
  -17.4201  -26.6728   21.3985 H   0  0  0  0  0  0
  -18.0282  -26.0065   22.8959 H   0  0  0  0  0  0
  -19.7946  -30.7265   24.2279 H   0  0  0  0  0  0
  -17.5023  -31.6276   24.5171 H   0  0  0  0  0  0
  -15.5347  -30.3012   23.7672 H   0  0  0  0  0  0
  -15.8656  -28.0849   22.7051 H   0  0  0  0  0  0
  -24.5953  -30.6948   25.7744 H   0  0  0  0  0  0
  -24.8838  -32.2763   26.4909 H   0  0  0  0  0  0
  -25.8066  -30.8810   27.0197 H   0  0  0  0  0  0
  -26.2895  -29.6847   24.1085 H   0  0  0  0  0  0
  -27.4107  -29.7306   25.4511 H   0  0  0  0  0  0
  -27.8706  -30.4455   23.9229 H   0  0  0  0  0  0
  -27.2568  -33.3657   26.2104 H   0  0  0  0  0  0
  -28.3851  -32.6925   25.0418 H   0  0  0  0  0  0
  -28.0607  -31.8487   26.5499 H   0  0  0  0  0  0
  -28.2561  -38.0153   24.7582 H   0  0  0  0  0  0
  -28.1116  -36.2692   24.6212 H   0  0  0  0  0  0
  -27.2299  -37.1357   25.8872 H   0  0  0  0  0  0
  -20.9280  -29.8721   21.6929 H   0  0  0  0  0  0
  -26.0154  -38.2883   24.1478 H   0  0  0  0  0  0
  -30.9613  -22.7763   17.1683 H   0  0  0  0  0  0
  -29.0887  -24.3710   17.3200 H   0  0  0  0  0  0
  -33.3591  -25.3635   19.6639 H   0  0  0  0  0  0
  -32.5738  -27.4233   20.4130 H   0  0  0  0  0  0
  -30.8453  -27.5128   20.7454 H   0  0  0  0  0  0
  -31.5084  -28.2329   19.2700 H   0  0  0  0  0  0
  -34.2588  -23.3122   19.0068 H   0  0  0  0  0  0
  -33.7722  -22.6910   17.4460 H   0  0  0  0  0  0
  -28.1874  -26.3985   17.9550 H   0  0  0  0  0  0
  -29.2517  -27.7254   18.3477 H   0  0  0  0  0  0
  -34.8720  -17.7748   24.2891 H   0  0  0  0  0  0
  -35.1135  -16.9908   22.7524 H   0  0  0  0  0  0
  -32.9612  -18.9910   23.5640 H   0  0  0  0  0  0
  -32.5791  -17.8772   22.2989 H   0  0  0  0  0  0
  -32.6373  -16.4598   24.4135 H   0  0  0  0  0  0
  -34.0968  -15.5340   24.6627 H   0  0  0  0  0  0
  -34.8222  -18.6043   21.1682 H   0  0  0  0  0  0
  -34.7673  -19.9611   22.2752 H   0  0  0  0  0  0
  -34.0569  -14.5993   22.4585 H   0  0  0  0  0  0
  -32.9556  -15.7868   21.8622 H   0  0  0  0  0  0
  -32.4032  -20.4280   21.3810 H   0  0  0  0  0  0
  -32.6556  -19.1621   20.2012 H   0  0  0  0  0  0
  -31.6258  -14.4427   24.0743 H   0  0  0  0  0  0
  -32.3926  -13.2153   23.1328 H   0  0  0  0  0  0
  -34.5827  -20.3963   19.2154 H   0  0  0  0  0  0
  -34.4821  -21.5950   20.4992 H   0  0  0  0  0  0
  -30.0416  -13.8214   22.5681 H   0  0  0  0  0  0
  -32.4743  -21.0957   18.4076 H   0  0  0  0  0  0
  -32.1868  -21.9910   19.7341 H   0  0  0  0  0  0
  1 25  1  0  0  0
  1 30  2  0  0  0
  1 88  1  0  0  0
  2  3  1  0  0  0
  2 25  1  0  0  0
  2 90  1  0  0  0
  2 91  1  0  0  0
  3  4  1  0  0  0
  3 92  1  0  0  0
  3 93  1  0  0  0
  4  5  1  0  0  0
  4 94  1  0  0  0
  4 95  1  0  0  0
  5  6  1  0  0  0
  5 26  1  0  0  0
  5 96  1  0  0  0
  6 25  1  0  0  0
  6 97  1  0  0  0
  6 98  1  0  0  0
  7  8  2  0  0  0
  7 26  1  0  0  0
  7 29  1  0  0  0
  8  9  1  0  0  0
  8 22  1  0  0  0
  9 10  1  0  0  0
  9 27  2  0  0  0
 10 11  2  0  0  0
 10 15  1  0  0  0
 11 12  1  0  0  0
 11 99  1  0  0  0
 12 13  2  0  0  0
 12100  1  0  0  0
 13 14  1  0  0  0
 13 31  1  0  0  0
 14 15  2  0  0  0
 14101  1  0  0  0
 15102  1  0  0  0
 16 17  2  0  0  0
 16 21  1  0  0  0
 16 31  1  0  0  0
 17 18  1  0  0  0
 17103  1  0  0  0
 18 19  2  0  0  0
 18104  1  0  0  0
 19 20  1  0  0  0
 19 24  1  0  0  0
 20 21  2  0  0  0
 20105  1  0  0  0
 21 23  1  0  0  0
 22 28  1  0  0  0
 22 32  2  0  0  0
 26 27  1  0  0  0
 28106  1  0  0  0
 28107  1  0  0  0
 29108  1  0  0  0
 29109  1  0  0  0
 33 34  1  0  0  0
 33 66  1  0  0  0
 33 70  2  0  0  0
 34 36  1  0  0  0
 34 59  1  0  0  0
 34110  1  0  0  0
 35 44  2  0  0  0
 35 45  1  0  0  0
 35 68  1  0  0  0
 36 56  1  0  0  0
 36111  1  0  0  0
 37 39  1  0  0  0
 37 47  1  0  0  0
 37 66  1  0  0  0
 37112  1  0  0  0
 38 43  2  0  0  0
 38 46  1  0  0  0
 38 47  1  0  0  0
 39 64  1  0  0  0
 39 67  2  0  0  0
 40 52  1  0  0  0
 40 53  2  0  0  0
 40 58  1  0  0  0
 41113  1  0  0  0
 41114  1  0  0  0
 41115  1  0  0  0
 41 48  1  0  0  0
 42 43  1  0  0  0
 42 66  1  0  0  0
 42116  1  0  0  0
 42117  1  0  0  0
 43 44  1  0  0  0
 44118  1  0  0  0
 45 46  2  0  0  0
 45119  1  0  0  0
 46120  1  0  0  0
 47121  1  0  0  0
 47122  1  0  0  0
 48 56  1  0  0  0
 48 65  1  0  0  0
 48123  1  0  0  0
 49 50  1  0  0  0
 49 53  1  0  0  0
 49 64  1  0  0  0
 49124  1  0  0  0
 50 51  1  0  0  0
 50125  1  0  0  0
 50126  1  0  0  0
 51 52  1  0  0  0
 51127  1  0  0  0
 51128  1  0  0  0
 52129  1  0  0  0
 52130  1  0  0  0
 53 54  1  0  0  0
 54 55  2  0  0  0
 54131  1  0  0  0
 55 57  1  0  0  0
 55132  1  0  0  0
 56 69  2  0  0  0
 57 58  2  0  0  0
 57133  1  0  0  0
 58134  1  0  0  0
 59 60  1  0  0  0
 59 61  1  0  0  0
 59 62  1  0  0  0
 60135  1  0  0  0
 60136  1  0  0  0
 60137  1  0  0  0
 61138  1  0  0  0
 61139  1  0  0  0
 61140  1  0  0  0
 62141  1  0  0  0
 62142  1  0  0  0
 62143  1  0  0  0
 63 65  1  0  0  0
 63144  1  0  0  0
 63145  1  0  0  0
 63146  1  0  0  0
 64147  1  0  0  0
 65148  1  0  0  0
 68 79  1  0  0  0
 71 72  2  0  0  0
 71 74  1  0  0  0
 71149  1  0  0  0
 72 75  1  0  0  0
 72150  1  0  0  0
 73 74  2  0  0  0
 73 76  1  0  0  0
 73151  1  0  0  0
 74 78  1  0  0  0
 75 76  2  0  0  0
 75 79  1  0  0  0
 76 77  1  0  0  0
 77152  1  0  0  0
 77153  1  0  0  0
 77154  1  0  0  0
 78 89  1  0  0  0
 78155  1  0  0  0
 78156  1  0  0  0
 79157  1  0  0  0
 79158  1  0  0  0
 80 81  1  0  0  0
 80 82  1  0  0  0
 80159  1  0  0  0
 80160  1  0  0  0
 81 83  1  0  0  0
 81161  1  0  0  0
 81162  1  0  0  0
 82 84  1  0  0  0
 82163  1  0  0  0
 82164  1  0  0  0
 83 85  1  0  0  0
 83165  1  0  0  0
 83166  1  0  0  0
 84 86  1  0  0  0
 84167  1  0  0  0
 84168  1  0  0  0
 85 87  1  0  0  0
 85169  1  0  0  0
 85170  1  0  0  0
 86 88  1  0  0  0
 86171  1  0  0  0
 86172  1  0  0  0
 87 89  1  0  0  0
 87173  1  0  0  0
 87174  1  0  0  0
 88175  1  0  0  0
 89176  1  0  0  0
 89177  1  0  0  0
M  CHG  1  89   1
M  ISO  4   1 100  68 101  79 101  88 100
M  END
> <chiral flag>
0

> <version>
0

> <s_m_source_file>
/data/baiqing/PycharmProjects/Reinvent-master-3.2/result/LINK_invent/BTK/process_docking_weight1_custom_sum_contain_oxygen_bond_distance_aromatic_linkinvent_7_9_3/rearranged_h_0035.sdf

> <i_m_source_file_index>
62

> <r_mmod_Potential_Energy-OPLS-2005>
-160.811431884766

> <r_mmod_Stretch_Energy-OPLS-2005>
29.7925395965576

> <r_mmod_Bend_Energy-OPLS-2005>
92.2261047363281

> <r_mmod_Torsional_Energy-OPLS-2005>
280.589813232422

> <r_mmod_Improper_Torsional_Energy-OPLS-2005>
11.3168478012085

> <r_mmod_Van_der_Waal_Energy-OPLS-2005>
159.576583862305

> <r_mmod_Electrostatic_Energy-OPLS-2005>
-309.487731933594

> <r_mmod_Solvation_Energy-OPLS-2005>
-441.035461425781

> <b_mmod_Minimization_Converged-OPLS-2005>
0

> <r_mmod_RMS_Derivative-OPLS-2005>
4.41249084472656

$$$$
62
                    3D
 Structure written by MMmdl.
156164  0  0  1  0            999 V2000
  -30.7142  -14.4608   20.5690 C   0  0  0  0  0  0
  -30.4234  -12.2981   19.4201 C   0  0  0  0  0  0
  -29.4948  -12.4872   18.2036 C   0  0  0  0  0  0
  -28.0140  -12.3649   18.6170 C   0  0  0  0  0  0
  -27.6616  -13.2067   19.8735 C   0  0  2  0  0  0
  -28.7062  -12.9925   20.9913 C   0  0  0  0  0  0
  -25.2595  -13.8170   20.5693 C   0  0  0  0  0  0
  -24.1845  -13.0447   20.9187 C   0  0  0  0  0  0
  -24.6398  -11.6917   20.8747 C   0  0  0  0  0  0
  -23.9070  -10.4303   21.0405 C   0  0  0  0  0  0
  -24.3628   -9.4216   21.9186 C   0  0  0  0  0  0
  -23.6304   -8.2248   22.0745 C   0  0  0  0  0  0
  -22.4286   -8.0293   21.3536 C   0  0  0  0  0  0
  -21.9919   -9.0269   20.4644 C   0  0  0  0  0  0
  -22.7239  -10.2147   20.3053 C   0  0  0  0  0  0
  -21.6856   -6.0746   22.5278 C   0  0  0  0  0  0
  -21.4019   -6.5646   23.8214 C   0  0  0  0  0  0
  -21.3663   -5.6792   24.9177 C   0  0  0  0  0  0
  -21.6048   -4.3055   24.7223 C   0  0  0  0  0  0
  -21.8823   -3.8150   23.4344 C   0  0  0  0  0  0
  -21.9191   -4.6973   22.3402 C   0  0  0  0  0  0
  -22.7866  -13.5246   21.1842 C   0  0  0  0  0  0
  -22.1655   -4.2161   21.0977 F   0  0  0  0  0  0
  -21.5623   -3.4535   25.7734 F   0  0  0  0  0  0
  -30.0351  -13.2912   20.4328 N   0  0  0  0  0  0
  -26.3032  -12.9341   20.3374 N   0  0  0  0  0  0
  -25.9324  -11.6502   20.5781 N   0  0  0  0  0  0
  -22.0491  -12.8250   22.0400 N   0  0  0  0  0  0
  -25.4312  -15.1892   20.4097 N   0  0  0  0  0  0
  -31.8532  -14.6315   20.1276 O   0  0  0  0  0  0
  -21.6641   -6.8890   21.4242 O   0  0  0  0  0  0
  -22.3561  -14.5552   20.6683 O   0  0  0  0  0  0
  -24.6144  -31.8689   23.2122 C   0  0  0  0  0  0
  -25.9037  -32.4829   23.8407 C   0  0  1  0  0  0
  -27.2318  -27.4265   20.0918 C   0  0  0  0  0  0
  -25.5894  -33.8629   24.2331 N   0  0  0  0  0  0
  -23.4027  -30.4950   21.5526 C   0  0  2  0  0  0
  -24.8483  -28.9676   20.1129 C   0  0  0  0  0  0
  -22.7412  -29.4659   22.4977 C   0  0  0  0  0  0
  -18.0274  -28.1377   22.8495 C   0  0  0  0  0  0
  -24.1486  -36.7315   23.2638 C   0  0  0  0  0  0
  -25.9345  -30.8312   21.3700 C   0  0  0  0  0  0
  -26.0105  -29.4680   20.7116 C   0  0  0  0  0  0
  -27.2032  -28.7050   20.6994 C   0  0  0  0  0  0
  -26.0466  -26.9552   19.4725 C   0  0  0  0  0  0
  -24.8617  -27.7102   19.4912 C   0  0  0  0  0  0
  -23.6118  -29.8350   20.1651 C   0  0  0  0  0  0
  -25.4110  -36.3117   24.0335 C   0  0  1  0  0  0
  -20.5863  -28.3663   23.1313 C   0  0  2  0  0  0
  -20.6763  -26.9396   22.5416 C   0  0  0  0  0  0
  -19.5741  -26.6381   21.5214 C   0  0  0  0  0  0
  -18.1924  -26.7924   22.1626 C   0  0  0  0  0  0
  -19.1522  -28.8838   23.2904 C   0  0  0  0  0  0
  -18.9452  -30.1444   23.8914 C   0  0  0  0  0  0
  -17.6455  -30.6584   24.0563 C   0  0  0  0  0  0
  -25.9037  -34.9480   23.5129 C   0  0  0  0  0  0
  -16.5346  -29.9085   23.6326 C   0  0  0  0  0  0
  -16.7265  -28.6502   23.0348 C   0  0  0  0  0  0
  -26.4469  -31.6609   25.0734 C   0  0  0  0  0  0
  -25.3737  -31.3713   26.1481 C   0  0  0  0  0  0
  -27.0303  -30.3052   24.6118 C   0  0  0  0  0  0
  -27.6046  -32.4328   25.7493 C   0  0  0  0  0  0
  -27.5581  -37.1814   24.8466 C   0  0  0  0  0  0
  -21.4138  -29.3029   22.3716 N   0  0  0  0  0  0
  -26.4298  -37.3797   23.9403 N   0  0  0  0  0  0
  -24.6685  -31.0783   22.1034 N   0  0  0  0  0  0
  -23.4187  -28.8195   23.3012 O   0  0  0  0  0  0
  -28.3972  -26.6746   20.1310 O   0  0  0  0  0  0
  -26.5598  -34.8927   22.4690 O   0  0  0  0  0  0
  -23.5332  -32.1441   23.7506 O   0  0  0  0  0  0
  -29.5642  -20.2157   18.5831 C   0  0  0  0  0  0
  -29.3252  -18.9072   18.1370 C   0  0  0  0  0  0
  -30.3016  -19.3254   20.7184 C   0  0  0  0  0  0
  -30.0367  -20.4465   19.8903 C   0  0  0  0  0  0
  -30.0863  -17.9872   20.2797 C   0  0  0  0  0  0
  -29.5728  -17.7961   18.9623 C   0  0  0  0  0  0
  -30.2913  -21.8826   20.3781 C   0  0  0  0  0  0
  -30.4871  -16.8661   21.2693 C   0  0  0  0  0  0
  -29.1997  -22.9024   19.9566 C   0  0  0  0  0  0
  -29.4286  -24.3831   20.3597 C   0  0  0  0  0  0
  -28.2766  -25.2712   19.8355 C   0  0  0  0  0  0
  -30.0082  -15.4854   21.0813 N   0  0  0  0  0  0
  -29.2267  -16.2583   18.2579 Cl  0  0  0  0  0  0
  -31.4677  -12.3957   19.1179 H   0  0  0  0  0  0
  -30.3257  -11.2904   19.8272 H   0  0  0  0  0  0
  -29.7257  -11.7458   17.4373 H   0  0  0  0  0  0
  -29.6750  -13.4601   17.7461 H   0  0  0  0  0  0
  -27.8135  -11.3109   18.8112 H   0  0  0  0  0  0
  -27.3684  -12.6468   17.7840 H   0  0  0  0  0  0
  -27.7019  -14.2533   19.5758 H   0  0  0  0  0  0
  -28.6820  -11.9593   21.3410 H   0  0  0  0  0  0
  -28.4729  -13.6022   21.8650 H   0  0  0  0  0  0
  -25.2769   -9.5697   22.4761 H   0  0  0  0  0  0
  -24.0014   -7.4643   22.7468 H   0  0  0  0  0  0
  -21.0838   -8.8800   19.8960 H   0  0  0  0  0  0
  -22.3698  -10.9697   19.6170 H   0  0  0  0  0  0
  -21.2010   -7.6152   23.9729 H   0  0  0  0  0  0
  -21.1476   -6.0511   25.9080 H   0  0  0  0  0  0
  -22.0594   -2.7613   23.2833 H   0  0  0  0  0  0
  -22.4086  -11.9923   22.4830 H   0  0  0  0  0  0
  -21.1112  -13.1290   22.2584 H   0  0  0  0  0  0
  -24.6645  -15.8440   20.5180 H   0  0  0  0  0  0
  -26.2797  -15.6267   20.0733 H   0  0  0  0  0  0
  -26.7104  -32.5541   23.1167 H   0  0  0  0  0  0
  -25.0050  -33.9797   25.0478 H   0  0  0  0  0  0
  -22.6913  -31.3125   21.4168 H   0  0  0  0  0  0
  -23.3745  -35.9649   23.3318 H   0  0  0  0  0  0
  -24.3582  -36.8912   22.2049 H   0  0  0  0  0  0
  -23.7240  -37.6525   23.6644 H   0  0  0  0  0  0
  -26.0518  -31.6011   20.6063 H   0  0  0  0  0  0
  -26.8204  -30.8787   21.9918 H   0  0  0  0  0  0
  -28.0983  -29.0864   21.1704 H   0  0  0  0  0  0
  -26.0060  -26.0030   18.9653 H   0  0  0  0  0  0
  -23.9695  -27.3214   19.0193 H   0  0  0  0  0  0
  -23.7222  -30.6140   19.4093 H   0  0  0  0  0  0
  -22.7355  -29.2573   19.8657 H   0  0  0  0  0  0
  -25.1286  -36.1987   25.0828 H   0  0  0  0  0  0
  -20.9964  -28.3230   24.1429 H   0  0  0  0  0  0
  -20.5672  -26.2267   23.3605 H   0  0  0  0  0  0
  -21.6632  -26.7449   22.1203 H   0  0  0  0  0  0
  -19.6901  -25.6295   21.1235 H   0  0  0  0  0  0
  -19.6682  -27.3196   20.6748 H   0  0  0  0  0  0
  -17.4191  -26.6673   21.4029 H   0  0  0  0  0  0
  -18.0330  -26.0065   22.9026 H   0  0  0  0  0  0
  -19.7930  -30.7252   24.2293 H   0  0  0  0  0  0
  -17.5014  -31.6271   24.5152 H   0  0  0  0  0  0
  -15.5349  -30.2993   23.7641 H   0  0  0  0  0  0
  -15.8667  -28.0830   22.7049 H   0  0  0  0  0  0
  -24.5897  -30.7079   25.7809 H   0  0  0  0  0  0
  -24.8943  -32.2870   26.4951 H   0  0  0  0  0  0
  -25.8082  -30.8857   27.0227 H   0  0  0  0  0  0
  -26.2851  -29.6818   24.1161 H   0  0  0  0  0  0
  -27.4060  -29.7282   25.4578 H   0  0  0  0  0  0
  -27.8693  -30.4367   23.9281 H   0  0  0  0  0  0
  -27.2666  -33.3612   26.2106 H   0  0  0  0  0  0
  -28.3834  -32.6915   25.0307 H   0  0  0  0  0  0
  -28.0743  -31.8438   26.5378 H   0  0  0  0  0  0
  -28.2609  -38.0102   24.7509 H   0  0  0  0  0  0
  -28.1066  -36.2633   24.6300 H   0  0  0  0  0  0
  -27.2301  -37.1476   25.8871 H   0  0  0  0  0  0
  -20.9292  -29.8759   21.6951 H   0  0  0  0  0  0
  -26.0189  -38.2875   24.1407 H   0  0  0  0  0  0
  -29.3781  -21.0285   17.8987 H   0  0  0  0  0  0
  -28.9519  -18.7504   17.1349 H   0  0  0  0  0  0
  -30.6962  -19.4928   21.7116 H   0  0  0  0  0  0
  -31.2609  -22.2028   19.9933 H   0  0  0  0  0  0
  -30.3821  -21.8809   21.4651 H   0  0  0  0  0  0
  -30.1389  -17.1691   22.2573 H   0  0  0  0  0  0
  -31.5765  -16.8677   21.3393 H   0  0  0  0  0  0
  -28.2411  -22.5667   20.3544 H   0  0  0  0  0  0
  -29.0952  -22.8929   18.8736 H   0  0  0  0  0  0
  -30.3804  -24.7369   19.9621 H   0  0  0  0  0  0
  -29.4906  -24.4674   21.4451 H   0  0  0  0  0  0
  -27.3634  -24.8720   20.2796 H   0  0  0  0  0  0
  -28.1933  -25.1541   18.7540 H   0  0  0  0  0  0
  -29.0666  -15.2831   21.3792 H   0  0  0  0  0  0
  1 25  1  0  0  0
  1 30  2  0  0  0
  1 82  1  0  0  0
  2  3  1  0  0  0
  2 25  1  0  0  0
  2 84  1  0  0  0
  2 85  1  0  0  0
  3  4  1  0  0  0
  3 86  1  0  0  0
  3 87  1  0  0  0
  4  5  1  0  0  0
  4 88  1  0  0  0
  4 89  1  0  0  0
  5  6  1  0  0  0
  5 26  1  0  0  0
  5 90  1  0  0  0
  6 25  1  0  0  0
  6 91  1  0  0  0
  6 92  1  0  0  0
  7  8  2  0  0  0
  7 26  1  0  0  0
  7 29  1  0  0  0
  8  9  1  0  0  0
  8 22  1  0  0  0
  9 10  1  0  0  0
  9 27  2  0  0  0
 10 11  2  0  0  0
 10 15  1  0  0  0
 11 12  1  0  0  0
 11 93  1  0  0  0
 12 13  2  0  0  0
 12 94  1  0  0  0
 13 14  1  0  0  0
 13 31  1  0  0  0
 14 15  2  0  0  0
 14 95  1  0  0  0
 15 96  1  0  0  0
 16 17  2  0  0  0
 16 21  1  0  0  0
 16 31  1  0  0  0
 17 18  1  0  0  0
 17 97  1  0  0  0
 18 19  2  0  0  0
 18 98  1  0  0  0
 19 20  1  0  0  0
 19 24  1  0  0  0
 20 21  2  0  0  0
 20 99  1  0  0  0
 21 23  1  0  0  0
 22 28  1  0  0  0
 22 32  2  0  0  0
 26 27  1  0  0  0
 28100  1  0  0  0
 28101  1  0  0  0
 29102  1  0  0  0
 29103  1  0  0  0
 33 34  1  0  0  0
 33 66  1  0  0  0
 33 70  2  0  0  0
 34 36  1  0  0  0
 34 59  1  0  0  0
 34104  1  0  0  0
 35 44  2  0  0  0
 35 45  1  0  0  0
 35 68  1  0  0  0
 36 56  1  0  0  0
 36105  1  0  0  0
 37 39  1  0  0  0
 37 47  1  0  0  0
 37 66  1  0  0  0
 37106  1  0  0  0
 38 43  2  0  0  0
 38 46  1  0  0  0
 38 47  1  0  0  0
 39 64  1  0  0  0
 39 67  2  0  0  0
 40 52  1  0  0  0
 40 53  2  0  0  0
 40 58  1  0  0  0
 41107  1  0  0  0
 41108  1  0  0  0
 41109  1  0  0  0
 41 48  1  0  0  0
 42 43  1  0  0  0
 42 66  1  0  0  0
 42110  1  0  0  0
 42111  1  0  0  0
 43 44  1  0  0  0
 44112  1  0  0  0
 45 46  2  0  0  0
 45113  1  0  0  0
 46114  1  0  0  0
 47115  1  0  0  0
 47116  1  0  0  0
 48 56  1  0  0  0
 48 65  1  0  0  0
 48117  1  0  0  0
 49 50  1  0  0  0
 49 53  1  0  0  0
 49 64  1  0  0  0
 49118  1  0  0  0
 50 51  1  0  0  0
 50119  1  0  0  0
 50120  1  0  0  0
 51 52  1  0  0  0
 51121  1  0  0  0
 51122  1  0  0  0
 52123  1  0  0  0
 52124  1  0  0  0
 53 54  1  0  0  0
 54 55  2  0  0  0
 54125  1  0  0  0
 55 57  1  0  0  0
 55126  1  0  0  0
 56 69  2  0  0  0
 57 58  2  0  0  0
 57127  1  0  0  0
 58128  1  0  0  0
 59 60  1  0  0  0
 59 61  1  0  0  0
 59 62  1  0  0  0
 60129  1  0  0  0
 60130  1  0  0  0
 60131  1  0  0  0
 61132  1  0  0  0
 61133  1  0  0  0
 61134  1  0  0  0
 62135  1  0  0  0
 62136  1  0  0  0
 62137  1  0  0  0
 63 65  1  0  0  0
 63138  1  0  0  0
 63139  1  0  0  0
 63140  1  0  0  0
 64141  1  0  0  0
 65142  1  0  0  0
 68 81  1  0  0  0
 71 72  2  0  0  0
 71 74  1  0  0  0
 71143  1  0  0  0
 72 76  1  0  0  0
 72144  1  0  0  0
 73 74  2  0  0  0
 73 75  1  0  0  0
 73145  1  0  0  0
 74 77  1  0  0  0
 75 76  2  0  0  0
 75 78  1  0  0  0
 76 83  1  0  0  0
 77 79  1  0  0  0
 77146  1  0  0  0
 77147  1  0  0  0
 78 82  1  0  0  0
 78148  1  0  0  0
 78149  1  0  0  0
 79 80  1  0  0  0
 79150  1  0  0  0
 79151  1  0  0  0
 80 81  1  0  0  0
 80152  1  0  0  0
 80153  1  0  0  0
 81154  1  0  0  0
 81155  1  0  0  0
 82156  1  0  0  0
M  ISO  4   1 100  68 101  81 101  82 100
M  END
> <chiral flag>
0

> <version>
0

> <s_m_source_file>
/data/baiqing/PycharmProjects/Reinvent-master-3.2/result/LINK_invent/BTK/process_docking_weight1_custom_sum_contain_oxygen_bond_distance_aromatic_linkinvent_7_9_3/rearranged_h_0035.sdf

> <i_m_source_file_index>
63

> <r_mmod_Potential_Energy-OPLS-2005>
-76.76953125

> <r_mmod_Stretch_Energy-OPLS-2005>
40.4567451477051

> <r_mmod_Bend_Energy-OPLS-2005>
108.864440917969

> <r_mmod_Torsional_Energy-OPLS-2005>
185.084991455078

> <r_mmod_Improper_Torsional_Energy-OPLS-2005>
3.36757349967957

> <r_mmod_Van_der_Waal_Energy-OPLS-2005>
159.141510009766

> <r_mmod_Electrostatic_Energy-OPLS-2005>
-384.486358642578

> <r_mmod_Solvation_Energy-OPLS-2005>
-203.635803222656

> <b_mmod_Minimization_Converged-OPLS-2005>
0

> <r_mmod_RMS_Derivative-OPLS-2005>
1.2870352268219

$$$$
63
                    3D
 Structure written by MMmdl.
162170  0  0  1  0            999 V2000
  -30.7125  -14.4236   20.5335 C   0  0  0  0  0  0
  -30.4131  -12.2619   19.4262 C   0  0  0  0  0  0
  -29.4937  -12.4888   18.2086 C   0  0  0  0  0  0
  -28.0121  -12.3670   18.6175 C   0  0  0  0  0  0
  -27.6641  -13.2007   19.8806 C   0  0  2  0  0  0
  -28.7050  -12.9756   21.0039 C   0  0  0  0  0  0
  -25.2601  -13.8151   20.5681 C   0  0  0  0  0  0
  -24.1841  -13.0443   20.9168 C   0  0  0  0  0  0
  -24.6384  -11.6905   20.8735 C   0  0  0  0  0  0
  -23.9051  -10.4299   21.0403 C   0  0  0  0  0  0
  -24.3611   -9.4217   21.9176 C   0  0  0  0  0  0
  -23.6299   -8.2245   22.0752 C   0  0  0  0  0  0
  -22.4284   -8.0278   21.3544 C   0  0  0  0  0  0
  -21.9910   -9.0251   20.4648 C   0  0  0  0  0  0
  -22.7223  -10.2134   20.3061 C   0  0  0  0  0  0
  -21.6853   -6.0743   22.5287 C   0  0  0  0  0  0
  -21.4008   -6.5647   23.8222 C   0  0  0  0  0  0
  -21.3659   -5.6796   24.9181 C   0  0  0  0  0  0
  -21.6043   -4.3063   24.7222 C   0  0  0  0  0  0
  -21.8815   -3.8159   23.4344 C   0  0  0  0  0  0
  -21.9188   -4.6976   22.3405 C   0  0  0  0  0  0
  -22.7862  -13.5231   21.1837 C   0  0  0  0  0  0
  -22.1652   -4.2170   21.0977 F   0  0  0  0  0  0
  -21.5640   -3.4536   25.7726 F   0  0  0  0  0  0
  -30.0401  -13.2486   20.4496 N   0  0  0  0  0  0
  -26.3036  -12.9311   20.3395 N   0  0  0  0  0  0
  -25.9309  -11.6481   20.5777 N   0  0  0  0  0  0
  -22.0515  -12.8227   22.0399 N   0  0  0  0  0  0
  -25.4340  -15.1865   20.4061 N   0  0  0  0  0  0
  -31.8606  -14.5790   20.1100 O   0  0  0  0  0  0
  -21.6644   -6.8884   21.4248 O   0  0  0  0  0  0
  -22.3539  -14.5543   20.6696 O   0  0  0  0  0  0
  -24.6110  -31.8716   23.2133 C   0  0  0  0  0  0
  -25.9015  -32.4847   23.8419 C   0  0  1  0  0  0
  -27.2410  -27.4727   20.0890 C   0  0  0  0  0  0
  -25.5887  -33.8643   24.2355 N   0  0  0  0  0  0
  -23.3969  -30.4948   21.5548 C   0  0  2  0  0  0
  -24.8421  -28.9674   20.1128 C   0  0  0  0  0  0
  -22.7396  -29.4668   22.5026 C   0  0  0  0  0  0
  -18.0272  -28.1374   22.8500 C   0  0  0  0  0  0
  -24.1485  -36.7330   23.2641 C   0  0  0  0  0  0
  -25.9208  -30.8487   21.3590 C   0  0  0  0  0  0
  -25.9986  -29.4858   20.7071 C   0  0  0  0  0  0
  -27.1986  -28.7462   20.6914 C   0  0  0  0  0  0
  -26.0655  -26.9606   19.4881 C   0  0  0  0  0  0
  -24.8695  -27.7029   19.4991 C   0  0  0  0  0  0
  -23.6016  -29.8296   20.1667 C   0  0  0  0  0  0
  -25.4105  -36.3137   24.0349 C   0  0  1  0  0  0
  -20.5857  -28.3656   23.1338 C   0  0  2  0  0  0
  -20.6765  -26.9399   22.5423 C   0  0  0  0  0  0
  -19.5742  -26.6388   21.5222 C   0  0  0  0  0  0
  -18.1919  -26.7923   22.1630 C   0  0  0  0  0  0
  -19.1516  -28.8831   23.2918 C   0  0  0  0  0  0
  -18.9444  -30.1440   23.8925 C   0  0  0  0  0  0
  -17.6443  -30.6580   24.0566 C   0  0  0  0  0  0
  -25.9027  -34.9493   23.5150 C   0  0  0  0  0  0
  -16.5338  -29.9087   23.6316 C   0  0  0  0  0  0
  -16.7260  -28.6504   23.0340 C   0  0  0  0  0  0
  -26.4451  -31.6613   25.0728 C   0  0  0  0  0  0
  -25.3732  -31.3681   26.1484 C   0  0  0  0  0  0
  -27.0263  -30.3073   24.6043 C   0  0  0  0  0  0
  -27.6052  -32.4312   25.7467 C   0  0  0  0  0  0
  -27.5586  -37.1819   24.8466 C   0  0  0  0  0  0
  -21.4127  -29.3027   22.3750 N   0  0  0  0  0  0
  -26.4302  -37.3812   23.9407 N   0  0  0  0  0  0
  -24.6615  -31.0843   22.1021 N   0  0  0  0  0  0
  -23.4183  -28.8215   23.3056 O   0  0  0  0  0  0
  -28.4367  -26.7903   20.1083 O   0  0  0  0  0  0
  -26.5584  -34.8939   22.4707 O   0  0  0  0  0  0
  -23.5314  -32.1446   23.7556 O   0  0  0  0  0  0
  -28.9452  -21.0117   21.0695 C   0  0  0  0  0  0
  -29.8832  -21.2455   18.8395 C   0  0  0  0  0  0
  -29.3186  -20.4336   19.8420 C   0  0  0  0  0  0
  -29.1054  -22.3974   21.2837 C   0  0  0  0  0  0
  -30.0419  -22.6306   19.0308 C   0  0  0  0  0  0
  -29.6331  -23.2221   20.2532 C   0  0  0  0  0  0
  -28.6818  -22.9720   22.6260 C   0  0  0  0  0  0
  -30.6309  -23.4564   17.8954 C   0  0  0  0  0  0
  -29.0769  -18.9637   19.5405 C   0  0  0  0  0  0
  -29.6898  -24.7378   20.4216 C   0  0  0  0  0  0
  -29.3957  -17.9569   20.6697 C   0  0  0  0  0  0
  -30.1638  -16.7490   20.1035 C   0  0  0  0  0  0
  -28.3878  -25.3825   19.9229 C   0  0  0  0  0  0
  -29.9499  -15.4895   20.8173 N   0  0  0  0  0  0
  -31.4610  -12.3368   19.1302 H   0  0  0  0  0  0
  -30.2887  -11.2515   19.8161 H   0  0  0  0  0  0
  -29.7234  -11.7676   17.4230 H   0  0  0  0  0  0
  -29.6814  -13.4750   17.7812 H   0  0  0  0  0  0
  -27.8049  -11.3118   18.8005 H   0  0  0  0  0  0
  -27.3697  -12.6612   17.7864 H   0  0  0  0  0  0
  -27.7111  -14.2475   19.5840 H   0  0  0  0  0  0
  -28.6638  -11.9453   21.3618 H   0  0  0  0  0  0
  -28.4870  -13.5964   21.8742 H   0  0  0  0  0  0
  -25.2753   -9.5695   22.4752 H   0  0  0  0  0  0
  -24.0026   -7.4625   22.7451 H   0  0  0  0  0  0
  -21.0857   -8.8754   19.8925 H   0  0  0  0  0  0
  -22.3683  -10.9678   19.6180 H   0  0  0  0  0  0
  -21.2001   -7.6154   23.9735 H   0  0  0  0  0  0
  -21.1482   -6.0524   25.9088 H   0  0  0  0  0  0
  -22.0596   -2.7626   23.2835 H   0  0  0  0  0  0
  -22.4147  -11.9897   22.4788 H   0  0  0  0  0  0
  -21.1123  -13.1233   22.2587 H   0  0  0  0  0  0
  -24.6686  -15.8440   20.5103 H   0  0  0  0  0  0
  -26.2875  -15.6234   20.0829 H   0  0  0  0  0  0
  -26.7088  -32.5569   23.1192 H   0  0  0  0  0  0
  -25.0052  -33.9814   25.0508 H   0  0  0  0  0  0
  -22.6848  -31.3114   21.4205 H   0  0  0  0  0  0
  -23.3750  -35.9660   23.3320 H   0  0  0  0  0  0
  -24.3587  -36.8920   22.2052 H   0  0  0  0  0  0
  -23.7229  -37.6541   23.6631 H   0  0  0  0  0  0
  -26.0237  -31.6153   20.5894 H   0  0  0  0  0  0
  -26.8126  -30.9057   21.9706 H   0  0  0  0  0  0
  -28.0925  -29.1487   21.1474 H   0  0  0  0  0  0
  -26.0563  -25.9984   18.9970 H   0  0  0  0  0  0
  -23.9842  -27.2992   19.0272 H   0  0  0  0  0  0
  -23.7039  -30.6070   19.4090 H   0  0  0  0  0  0
  -22.7251  -29.2478   19.8744 H   0  0  0  0  0  0
  -25.1275  -36.2026   25.0844 H   0  0  0  0  0  0
  -20.9952  -28.3219   24.1457 H   0  0  0  0  0  0
  -20.5695  -26.2260   23.3606 H   0  0  0  0  0  0
  -21.6635  -26.7462   22.1196 H   0  0  0  0  0  0
  -19.6905  -25.6308   21.1233 H   0  0  0  0  0  0
  -19.6681  -27.3217   20.6768 H   0  0  0  0  0  0
  -17.4195  -26.6686   21.4024 H   0  0  0  0  0  0
  -18.0307  -26.0058   22.9018 H   0  0  0  0  0  0
  -19.7916  -30.7247   24.2317 H   0  0  0  0  0  0
  -17.4995  -31.6264   24.5160 H   0  0  0  0  0  0
  -15.5338  -30.2994   23.7619 H   0  0  0  0  0  0
  -15.8664  -28.0832   22.7031 H   0  0  0  0  0  0
  -24.5911  -30.7026   25.7810 H   0  0  0  0  0  0
  -24.8907  -32.2814   26.4975 H   0  0  0  0  0  0
  -25.8099  -30.8818   27.0217 H   0  0  0  0  0  0
  -26.2775  -29.6857   24.1119 H   0  0  0  0  0  0
  -27.4091  -29.7283   25.4457 H   0  0  0  0  0  0
  -27.8586  -30.4427   23.9133 H   0  0  0  0  0  0
  -27.2704  -33.3608   26.2084 H   0  0  0  0  0  0
  -28.3823  -32.6882   25.0255 H   0  0  0  0  0  0
  -28.0760  -31.8409   26.5337 H   0  0  0  0  0  0
  -28.2615  -38.0107   24.7518 H   0  0  0  0  0  0
  -28.1073  -36.2641   24.6289 H   0  0  0  0  0  0
  -27.2307  -37.1469   25.8872 H   0  0  0  0  0  0
  -20.9293  -29.8753   21.6970 H   0  0  0  0  0  0
  -26.0207  -38.2900   24.1397 H   0  0  0  0  0  0
  -28.5155  -20.3918   21.8457 H   0  0  0  0  0  0
  -30.1751  -20.8020   17.8970 H   0  0  0  0  0  0
  -28.2345  -22.2085   23.2622 H   0  0  0  0  0  0
  -27.9460  -23.7663   22.5044 H   0  0  0  0  0  0
  -29.5449  -23.3759   23.1562 H   0  0  0  0  0  0
  -30.8131  -22.8453   17.0104 H   0  0  0  0  0  0
  -31.5854  -23.8933   18.1912 H   0  0  0  0  0  0
  -29.9607  -24.2637   17.5995 H   0  0  0  0  0  0
  -29.6643  -18.7220   18.6533 H   0  0  0  0  0  0
  -28.0381  -18.8400   19.2325 H   0  0  0  0  0  0
  -30.5428  -25.1545   19.8867 H   0  0  0  0  0  0
  -29.8649  -25.0022   21.4634 H   0  0  0  0  0  0
  -28.4678  -17.6522   21.1551 H   0  0  0  0  0  0
  -30.0092  -18.4196   21.4445 H   0  0  0  0  0  0
  -31.2254  -17.0025   20.0578 H   0  0  0  0  0  0
  -29.8514  -16.5601   19.0743 H   0  0  0  0  0  0
  -27.5495  -24.9544   20.4748 H   0  0  0  0  0  0
  -28.2333  -25.1635   18.8663 H   0  0  0  0  0  0
  -29.0209  -15.3030   21.1641 H   0  0  0  0  0  0
  1 25  1  0  0  0
  1 30  2  0  0  0
  1 84  1  0  0  0
  2  3  1  0  0  0
  2 25  1  0  0  0
  2 85  1  0  0  0
  2 86  1  0  0  0
  3  4  1  0  0  0
  3 87  1  0  0  0
  3 88  1  0  0  0
  4  5  1  0  0  0
  4 89  1  0  0  0
  4 90  1  0  0  0
  5  6  1  0  0  0
  5 26  1  0  0  0
  5 91  1  0  0  0
  6 25  1  0  0  0
  6 92  1  0  0  0
  6 93  1  0  0  0
  7  8  2  0  0  0
  7 26  1  0  0  0
  7 29  1  0  0  0
  8  9  1  0  0  0
  8 22  1  0  0  0
  9 10  1  0  0  0
  9 27  2  0  0  0
 10 11  2  0  0  0
 10 15  1  0  0  0
 11 12  1  0  0  0
 11 94  1  0  0  0
 12 13  2  0  0  0
 12 95  1  0  0  0
 13 14  1  0  0  0
 13 31  1  0  0  0
 14 15  2  0  0  0
 14 96  1  0  0  0
 15 97  1  0  0  0
 16 17  2  0  0  0
 16 21  1  0  0  0
 16 31  1  0  0  0
 17 18  1  0  0  0
 17 98  1  0  0  0
 18 19  2  0  0  0
 18 99  1  0  0  0
 19 20  1  0  0  0
 19 24  1  0  0  0
 20 21  2  0  0  0
 20100  1  0  0  0
 21 23  1  0  0  0
 22 28  1  0  0  0
 22 32  2  0  0  0
 26 27  1  0  0  0
 28101  1  0  0  0
 28102  1  0  0  0
 29103  1  0  0  0
 29104  1  0  0  0
 33 34  1  0  0  0
 33 66  1  0  0  0
 33 70  2  0  0  0
 34 36  1  0  0  0
 34 59  1  0  0  0
 34105  1  0  0  0
 35 44  2  0  0  0
 35 45  1  0  0  0
 35 68  1  0  0  0
 36 56  1  0  0  0
 36106  1  0  0  0
 37 39  1  0  0  0
 37 47  1  0  0  0
 37 66  1  0  0  0
 37107  1  0  0  0
 38 43  2  0  0  0
 38 46  1  0  0  0
 38 47  1  0  0  0
 39 64  1  0  0  0
 39 67  2  0  0  0
 40 52  1  0  0  0
 40 53  2  0  0  0
 40 58  1  0  0  0
 41108  1  0  0  0
 41109  1  0  0  0
 41110  1  0  0  0
 41 48  1  0  0  0
 42 43  1  0  0  0
 42 66  1  0  0  0
 42111  1  0  0  0
 42112  1  0  0  0
 43 44  1  0  0  0
 44113  1  0  0  0
 45 46  2  0  0  0
 45114  1  0  0  0
 46115  1  0  0  0
 47116  1  0  0  0
 47117  1  0  0  0
 48 56  1  0  0  0
 48 65  1  0  0  0
 48118  1  0  0  0
 49 50  1  0  0  0
 49 53  1  0  0  0
 49 64  1  0  0  0
 49119  1  0  0  0
 50 51  1  0  0  0
 50120  1  0  0  0
 50121  1  0  0  0
 51 52  1  0  0  0
 51122  1  0  0  0
 51123  1  0  0  0
 52124  1  0  0  0
 52125  1  0  0  0
 53 54  1  0  0  0
 54 55  2  0  0  0
 54126  1  0  0  0
 55 57  1  0  0  0
 55127  1  0  0  0
 56 69  2  0  0  0
 57 58  2  0  0  0
 57128  1  0  0  0
 58129  1  0  0  0
 59 60  1  0  0  0
 59 61  1  0  0  0
 59 62  1  0  0  0
 60130  1  0  0  0
 60131  1  0  0  0
 60132  1  0  0  0
 61133  1  0  0  0
 61134  1  0  0  0
 61135  1  0  0  0
 62136  1  0  0  0
 62137  1  0  0  0
 62138  1  0  0  0
 63 65  1  0  0  0
 63139  1  0  0  0
 63140  1  0  0  0
 63141  1  0  0  0
 64142  1  0  0  0
 65143  1  0  0  0
 68 83  1  0  0  0
 71 73  2  0  0  0
 71 74  1  0  0  0
 71144  1  0  0  0
 72 73  1  0  0  0
 72 75  2  0  0  0
 72145  1  0  0  0
 73 79  1  0  0  0
 74 76  2  0  0  0
 74 77  1  0  0  0
 75 76  1  0  0  0
 75 78  1  0  0  0
 76 80  1  0  0  0
 77146  1  0  0  0
 77147  1  0  0  0
 77148  1  0  0  0
 78149  1  0  0  0
 78150  1  0  0  0
 78151  1  0  0  0
 79 81  1  0  0  0
 79152  1  0  0  0
 79153  1  0  0  0
 80 83  1  0  0  0
 80154  1  0  0  0
 80155  1  0  0  0
 81 82  1  0  0  0
 81156  1  0  0  0
 81157  1  0  0  0
 82 84  1  0  0  0
 82158  1  0  0  0
 82159  1  0  0  0
 83160  1  0  0  0
 83161  1  0  0  0
 84162  1  0  0  0
M  ISO  4   1 100  68 101  83 101  84 100
M  END
> <chiral flag>
0

> <version>
0

> <s_m_source_file>
/data/baiqing/PycharmProjects/Reinvent-master-3.2/result/LINK_invent/BTK/process_docking_weight1_custom_sum_contain_oxygen_bond_distance_aromatic_linkinvent_7_9_3/rearranged_h_0035.sdf

> <i_m_source_file_index>
64

> <r_mmod_Potential_Energy-OPLS-2005>
-56.833122253418

> <r_mmod_Stretch_Energy-OPLS-2005>
32.2016754150391

> <r_mmod_Bend_Energy-OPLS-2005>
92.4500961303711

> <r_mmod_Torsional_Energy-OPLS-2005>
225.564331054688

> <r_mmod_Improper_Torsional_Energy-OPLS-2005>
9.72853374481201

> <r_mmod_Van_der_Waal_Energy-OPLS-2005>
165.934539794922

> <r_mmod_Electrostatic_Energy-OPLS-2005>
-388.747253417969

> <r_mmod_Solvation_Energy-OPLS-2005>
-206.087783813477

> <b_mmod_Minimization_Converged-OPLS-2005>
0

> <r_mmod_RMS_Derivative-OPLS-2005>
1.52088272571564

$$$$
64
                    3D
 Structure written by MMmdl.
159167  0  0  1  0            999 V2000
  -30.6960  -14.5906   20.5188 C   0  0  0  0  0  0
  -30.4201  -12.3702   19.4499 C   0  0  0  0  0  0
  -29.4973  -12.4957   18.2202 C   0  0  0  0  0  0
  -28.0225  -12.3421   18.6365 C   0  0  0  0  0  0
  -27.6500  -13.2234   19.8593 C   0  0  2  0  0  0
  -28.6963  -13.1022   20.9902 C   0  0  0  0  0  0
  -25.2539  -13.8193   20.5694 C   0  0  0  0  0  0
  -24.1815  -13.0443   20.9194 C   0  0  0  0  0  0
  -24.6395  -11.6916   20.8746 C   0  0  0  0  0  0
  -23.9070  -10.4296   21.0406 C   0  0  0  0  0  0
  -24.3619   -9.4209   21.9184 C   0  0  0  0  0  0
  -23.6293   -8.2245   22.0752 C   0  0  0  0  0  0
  -22.4277   -8.0283   21.3542 C   0  0  0  0  0  0
  -21.9915   -9.0255   20.4643 C   0  0  0  0  0  0
  -22.7243  -10.2134   20.3055 C   0  0  0  0  0  0
  -21.6853   -6.0736   22.5279 C   0  0  0  0  0  0
  -21.4017   -6.5638   23.8212 C   0  0  0  0  0  0
  -21.3660   -5.6790   24.9174 C   0  0  0  0  0  0
  -21.6043   -4.3056   24.7226 C   0  0  0  0  0  0
  -21.8817   -3.8148   23.4346 C   0  0  0  0  0  0
  -21.9193   -4.6964   22.3403 C   0  0  0  0  0  0
  -22.7836  -13.5226   21.1863 C   0  0  0  0  0  0
  -22.1659   -4.2150   21.0981 F   0  0  0  0  0  0
  -21.5630   -3.4540   25.7738 F   0  0  0  0  0  0
  -30.0128  -13.4103   20.4157 N   0  0  0  0  0  0
  -26.2976  -12.9390   20.3328 N   0  0  0  0  0  0
  -25.9328  -11.6537   20.5772 N   0  0  0  0  0  0
  -22.0489  -12.8209   22.0421 N   0  0  0  0  0  0
  -25.4238  -15.1915   20.4110 N   0  0  0  0  0  0
  -31.8642  -14.6869   20.1380 O   0  0  0  0  0  0
  -21.6639   -6.8880   21.4240 O   0  0  0  0  0  0
  -22.3517  -14.5534   20.6718 O   0  0  0  0  0  0
  -24.6259  -31.8645   23.2092 C   0  0  0  0  0  0
  -25.9120  -32.4804   23.8398 C   0  0  1  0  0  0
  -27.2088  -27.3275   20.0970 C   0  0  0  0  0  0
  -25.5947  -33.8604   24.2311 N   0  0  0  0  0  0
  -23.4176  -30.4952   21.5527 C   0  0  2  0  0  0
  -24.8606  -28.9692   20.1093 C   0  0  0  0  0  0
  -22.7480  -29.4649   22.4945 C   0  0  0  0  0  0
  -18.0287  -28.1386   22.8487 C   0  0  0  0  0  0
  -24.1494  -36.7295   23.2637 C   0  0  0  0  0  0
  -25.9639  -30.7942   21.3872 C   0  0  0  0  0  0
  -26.0338  -29.4269   20.7224 C   0  0  0  0  0  0
  -27.2094  -28.6154   20.7180 C   0  0  0  0  0  0
  -26.0090  -26.9502   19.4353 C   0  0  0  0  0  0
  -24.8503  -27.7342   19.4591 C   0  0  0  0  0  0
  -23.6306  -29.8464   20.1636 C   0  0  0  0  0  0
  -25.4116  -36.3092   24.0330 C   0  0  1  0  0  0
  -20.5891  -28.3690   23.1280 C   0  0  2  0  0  0
  -20.6780  -26.9413   22.5399 C   0  0  0  0  0  0
  -19.5746  -26.6378   21.5214 C   0  0  0  0  0  0
  -18.1925  -26.7929   22.1623 C   0  0  0  0  0  0
  -19.1541  -28.8854   23.2879 C   0  0  0  0  0  0
  -18.9466  -30.1458   23.8892 C   0  0  0  0  0  0
  -17.6468  -30.6590   24.0561 C   0  0  0  0  0  0
  -25.9052  -34.9462   23.5110 C   0  0  0  0  0  0
  -16.5356  -29.9087   23.6338 C   0  0  0  0  0  0
  -16.7275  -28.6508   23.0355 C   0  0  0  0  0  0
  -26.4505  -31.6605   25.0758 C   0  0  0  0  0  0
  -25.3734  -31.3741   26.1477 C   0  0  0  0  0  0
  -27.0363  -30.3030   24.6220 C   0  0  0  0  0  0
  -27.6057  -32.4354   25.7525 C   0  0  0  0  0  0
  -27.5581  -37.1801   24.8466 C   0  0  0  0  0  0
  -21.4195  -29.3058   22.3691 N   0  0  0  0  0  0
  -26.4295  -37.3782   23.9409 N   0  0  0  0  0  0
  -24.6877  -31.0666   22.1054 N   0  0  0  0  0  0
  -23.4214  -28.8158   23.2993 O   0  0  0  0  0  0
  -28.2987  -26.4336   20.1642 O   0  0  0  0  0  0
  -26.5601  -34.8924   22.4665 O   0  0  0  0  0  0
  -23.5426  -32.1446   23.7413 O   0  0  0  0  0  0
  -29.4529  -21.4422   19.3949 C   0  0  0  0  0  0
  -29.7530  -22.1396   21.6755 C   0  0  0  0  0  0
  -29.8429  -21.1055   20.7065 C   0  0  0  0  0  0
  -28.9563  -22.7346   19.0654 C   0  0  0  0  0  0
  -29.2560  -23.4422   21.3648 C   0  0  0  0  0  0
  -28.8336  -23.7721   20.0472 C   0  0  0  0  0  0
  -28.5121  -22.9501   17.6258 C   0  0  0  0  0  0
  -29.1399  -24.4690   22.4780 C   0  0  0  0  0  0
  -30.4813  -19.7200   21.0442 C   0  0  0  0  0  0
  -27.9937  -25.0578   19.7197 C   0  0  0  0  0  0
  -29.7215  -18.3615   20.7546 C   0  0  0  0  0  0
  -30.6036  -17.0793   21.0553 C   0  0  0  0  0  0
  -30.0082  -15.7101   20.8933 N   0  0  0  0  0  0
  -31.4642  -12.4622   19.1472 H   0  0  0  0  0  0
  -30.3276  -11.3812   19.9014 H   0  0  0  0  0  0
  -29.7550  -11.7411   17.4758 H   0  0  0  0  0  0
  -29.6461  -13.4642   17.7400 H   0  0  0  0  0  0
  -27.8582  -11.2906   18.8761 H   0  0  0  0  0  0
  -27.3656  -12.5661   17.7950 H   0  0  0  0  0  0
  -27.6636  -14.2552   19.5074 H   0  0  0  0  0  0
  -28.6977  -12.0947   21.4086 H   0  0  0  0  0  0
  -28.4528  -13.7716   21.8166 H   0  0  0  0  0  0
  -25.2763   -9.5685   22.4758 H   0  0  0  0  0  0
  -24.0003   -7.4636   22.7473 H   0  0  0  0  0  0
  -21.0849   -8.8773   19.8948 H   0  0  0  0  0  0
  -22.3703  -10.9672   19.6164 H   0  0  0  0  0  0
  -21.2007   -7.6147   23.9717 H   0  0  0  0  0  0
  -21.1484   -6.0522   25.9076 H   0  0  0  0  0  0
  -22.0596   -2.7610   23.2847 H   0  0  0  0  0  0
  -22.4109  -11.9858   22.4786 H   0  0  0  0  0  0
  -21.1114  -13.1234   22.2654 H   0  0  0  0  0  0
  -24.6568  -15.8462   20.5209 H   0  0  0  0  0  0
  -26.2742  -15.6322   20.0834 H   0  0  0  0  0  0
  -26.7186  -32.5474   23.1143 H   0  0  0  0  0  0
  -25.0147  -33.9772   25.0493 H   0  0  0  0  0  0
  -22.7097  -31.3162   21.4170 H   0  0  0  0  0  0
  -23.3764  -35.9621   23.3304 H   0  0  0  0  0  0
  -24.3584  -36.8906   22.2048 H   0  0  0  0  0  0
  -23.7242  -37.6495   23.6660 H   0  0  0  0  0  0
  -26.1043  -31.5617   20.6247 H   0  0  0  0  0  0
  -26.8414  -30.8321   22.0206 H   0  0  0  0  0  0
  -28.1022  -28.9569   21.2227 H   0  0  0  0  0  0
  -25.8984  -26.0275   18.8881 H   0  0  0  0  0  0
  -23.9567  -27.3834   18.9620 H   0  0  0  0  0  0
  -23.7502  -30.6307   19.4150 H   0  0  0  0  0  0
  -22.7501  -29.2800   19.8547 H   0  0  0  0  0  0
  -25.1296  -36.1941   25.0822 H   0  0  0  0  0  0
  -20.9978  -28.3253   24.1404 H   0  0  0  0  0  0
  -20.5699  -26.2296   23.3598 H   0  0  0  0  0  0
  -21.6645  -26.7450   22.1177 H   0  0  0  0  0  0
  -19.6908  -25.6288   21.1247 H   0  0  0  0  0  0
  -19.6681  -27.3190   20.6746 H   0  0  0  0  0  0
  -17.4194  -26.6688   21.4025 H   0  0  0  0  0  0
  -18.0316  -26.0068   22.9017 H   0  0  0  0  0  0
  -19.7943  -30.7277   24.2251 H   0  0  0  0  0  0
  -17.5022  -31.6274   24.5156 H   0  0  0  0  0  0
  -15.5358  -30.2986   23.7673 H   0  0  0  0  0  0
  -15.8672  -28.0829   22.7069 H   0  0  0  0  0  0
  -24.5916  -30.7081   25.7803 H   0  0  0  0  0  0
  -24.8923  -32.2912   26.4890 H   0  0  0  0  0  0
  -25.8051  -30.8927   27.0259 H   0  0  0  0  0  0
  -26.2954  -29.6772   24.1230 H   0  0  0  0  0  0
  -27.4054  -29.7286   25.4724 H   0  0  0  0  0  0
  -27.8826  -30.4325   23.9469 H   0  0  0  0  0  0
  -27.2662  -33.3661   26.2083 H   0  0  0  0  0  0
  -28.3875  -32.6904   25.0358 H   0  0  0  0  0  0
  -28.0723  -31.8500   26.5456 H   0  0  0  0  0  0
  -28.2588  -38.0108   24.7524 H   0  0  0  0  0  0
  -28.1091  -36.2637   24.6286 H   0  0  0  0  0  0
  -27.2299  -37.1435   25.8869 H   0  0  0  0  0  0
  -20.9362  -29.8821   21.6942 H   0  0  0  0  0  0
  -26.0177  -38.2857   24.1417 H   0  0  0  0  0  0
  -29.5360  -20.6881   18.6241 H   0  0  0  0  0  0
  -30.0721  -21.9301   22.6875 H   0  0  0  0  0  0
  -28.7675  -22.1002   16.9925 H   0  0  0  0  0  0
  -28.9971  -23.8260   17.1933 H   0  0  0  0  0  0
  -27.4304  -23.0824   17.5738 H   0  0  0  0  0  0
  -29.4888  -24.0702   23.4308 H   0  0  0  0  0  0
  -28.1037  -24.7836   22.6064 H   0  0  0  0  0  0
  -29.7397  -25.3503   22.2473 H   0  0  0  0  0  0
  -30.7574  -19.7292   22.0991 H   0  0  0  0  0  0
  -31.4310  -19.6917   20.5084 H   0  0  0  0  0  0
  -27.0338  -24.7653   20.1480 H   0  0  0  0  0  0
  -27.8599  -25.1335   18.6436 H   0  0  0  0  0  0
  -29.4091  -18.3407   19.7098 H   0  0  0  0  0  0
  -28.8076  -18.3296   21.3487 H   0  0  0  0  0  0
  -30.9605  -17.1412   22.0844 H   0  0  0  0  0  0
  -31.5004  -17.1536   20.4375 H   0  0  0  0  0  0
  -29.0368  -15.5872   21.1393 H   0  0  0  0  0  0
  1 25  1  0  0  0
  1 30  2  0  0  0
  1 83  1  0  0  0
  2  3  1  0  0  0
  2 25  1  0  0  0
  2 84  1  0  0  0
  2 85  1  0  0  0
  3  4  1  0  0  0
  3 86  1  0  0  0
  3 87  1  0  0  0
  4  5  1  0  0  0
  4 88  1  0  0  0
  4 89  1  0  0  0
  5  6  1  0  0  0
  5 26  1  0  0  0
  5 90  1  0  0  0
  6 25  1  0  0  0
  6 91  1  0  0  0
  6 92  1  0  0  0
  7  8  2  0  0  0
  7 26  1  0  0  0
  7 29  1  0  0  0
  8  9  1  0  0  0
  8 22  1  0  0  0
  9 10  1  0  0  0
  9 27  2  0  0  0
 10 11  2  0  0  0
 10 15  1  0  0  0
 11 12  1  0  0  0
 11 93  1  0  0  0
 12 13  2  0  0  0
 12 94  1  0  0  0
 13 14  1  0  0  0
 13 31  1  0  0  0
 14 15  2  0  0  0
 14 95  1  0  0  0
 15 96  1  0  0  0
 16 17  2  0  0  0
 16 21  1  0  0  0
 16 31  1  0  0  0
 17 18  1  0  0  0
 17 97  1  0  0  0
 18 19  2  0  0  0
 18 98  1  0  0  0
 19 20  1  0  0  0
 19 24  1  0  0  0
 20 21  2  0  0  0
 20 99  1  0  0  0
 21 23  1  0  0  0
 22 28  1  0  0  0
 22 32  2  0  0  0
 26 27  1  0  0  0
 28100  1  0  0  0
 28101  1  0  0  0
 29102  1  0  0  0
 29103  1  0  0  0
 33 34  1  0  0  0
 33 66  1  0  0  0
 33 70  2  0  0  0
 34 36  1  0  0  0
 34 59  1  0  0  0
 34104  1  0  0  0
 35 44  2  0  0  0
 35 45  1  0  0  0
 35 68  1  0  0  0
 36 56  1  0  0  0
 36105  1  0  0  0
 37 39  1  0  0  0
 37 47  1  0  0  0
 37 66  1  0  0  0
 37106  1  0  0  0
 38 43  2  0  0  0
 38 46  1  0  0  0
 38 47  1  0  0  0
 39 64  1  0  0  0
 39 67  2  0  0  0
 40 52  1  0  0  0
 40 53  2  0  0  0
 40 58  1  0  0  0
 41107  1  0  0  0
 41108  1  0  0  0
 41109  1  0  0  0
 41 48  1  0  0  0
 42 43  1  0  0  0
 42 66  1  0  0  0
 42110  1  0  0  0
 42111  1  0  0  0
 43 44  1  0  0  0
 44112  1  0  0  0
 45 46  2  0  0  0
 45113  1  0  0  0
 46114  1  0  0  0
 47115  1  0  0  0
 47116  1  0  0  0
 48 56  1  0  0  0
 48 65  1  0  0  0
 48117  1  0  0  0
 49 50  1  0  0  0
 49 53  1  0  0  0
 49 64  1  0  0  0
 49118  1  0  0  0
 50 51  1  0  0  0
 50119  1  0  0  0
 50120  1  0  0  0
 51 52  1  0  0  0
 51121  1  0  0  0
 51122  1  0  0  0
 52123  1  0  0  0
 52124  1  0  0  0
 53 54  1  0  0  0
 54 55  2  0  0  0
 54125  1  0  0  0
 55 57  1  0  0  0
 55126  1  0  0  0
 56 69  2  0  0  0
 57 58  2  0  0  0
 57127  1  0  0  0
 58128  1  0  0  0
 59 60  1  0  0  0
 59 61  1  0  0  0
 59 62  1  0  0  0
 60129  1  0  0  0
 60130  1  0  0  0
 60131  1  0  0  0
 61132  1  0  0  0
 61133  1  0  0  0
 61134  1  0  0  0
 62135  1  0  0  0
 62136  1  0  0  0
 62137  1  0  0  0
 63 65  1  0  0  0
 63138  1  0  0  0
 63139  1  0  0  0
 63140  1  0  0  0
 64141  1  0  0  0
 65142  1  0  0  0
 68 80  1  0  0  0
 71 73  2  0  0  0
 71 74  1  0  0  0
 71143  1  0  0  0
 72 73  1  0  0  0
 72 75  2  0  0  0
 72144  1  0  0  0
 73 79  1  0  0  0
 74 76  2  0  0  0
 74 77  1  0  0  0
 75 76  1  0  0  0
 75 78  1  0  0  0
 76 80  1  0  0  0
 77145  1  0  0  0
 77146  1  0  0  0
 77147  1  0  0  0
 78148  1  0  0  0
 78149  1  0  0  0
 78150  1  0  0  0
 79 81  1  0  0  0
 79151  1  0  0  0
 79152  1  0  0  0
 80153  1  0  0  0
 80154  1  0  0  0
 81 82  1  0  0  0
 81155  1  0  0  0
 81156  1  0  0  0
 82 83  1  0  0  0
 82157  1  0  0  0
 82158  1  0  0  0
 83159  1  0  0  0
M  ISO  4   1 100  68 101  80 101  83 100
M  END
> <chiral flag>
0

> <version>
0

> <s_m_source_file>
/data/baiqing/PycharmProjects/Reinvent-master-3.2/result/LINK_invent/BTK/process_docking_weight1_custom_sum_contain_oxygen_bond_distance_aromatic_linkinvent_7_9_3/rearranged_h_0035.sdf

> <i_m_source_file_index>
65

> <r_mmod_Potential_Energy-OPLS-2005>
71.9763641357422

> <r_mmod_Stretch_Energy-OPLS-2005>
72.4519348144531

> <r_mmod_Bend_Energy-OPLS-2005>
142.08918762207

> <r_mmod_Torsional_Energy-OPLS-2005>
206.685028076172

> <r_mmod_Improper_Torsional_Energy-OPLS-2005>
5.89614343643188

> <r_mmod_Van_der_Waal_Energy-OPLS-2005>
163.062255859375

> <r_mmod_Electrostatic_Energy-OPLS-2005>
-360.298126220703

> <r_mmod_Solvation_Energy-OPLS-2005>
-204.725601196289

> <b_mmod_Minimization_Converged-OPLS-2005>
0

> <r_mmod_RMS_Derivative-OPLS-2005>
0.863979578018188

$$$$
65
                    3D
 Structure written by MMmdl.
158166  0  0  1  0            999 V2000
  -30.5183  -14.9797   20.4102 C   0  0  0  0  0  0
  -30.4423  -12.6064   19.5037 C   0  0  0  0  0  0
  -29.5234  -12.5320   18.2612 C   0  0  0  0  0  0
  -28.0574  -12.3117   18.6797 C   0  0  0  0  0  0
  -27.6285  -13.2486   19.8388 C   0  0  2  0  0  0
  -28.6699  -13.2855   20.9774 C   0  0  0  0  0  0
  -25.2453  -13.8215   20.5712 C   0  0  0  0  0  0
  -24.1773  -13.0437   20.9233 C   0  0  0  0  0  0
  -24.6391  -11.6924   20.8759 C   0  0  0  0  0  0
  -23.9078  -10.4292   21.0411 C   0  0  0  0  0  0
  -24.3626   -9.4205   21.9187 C   0  0  0  0  0  0
  -23.6298   -8.2241   22.0754 C   0  0  0  0  0  0
  -22.4280   -8.0281   21.3544 C   0  0  0  0  0  0
  -21.9918   -9.0256   20.4645 C   0  0  0  0  0  0
  -22.7251  -10.2134   20.3058 C   0  0  0  0  0  0
  -21.6854   -6.0737   22.5279 C   0  0  0  0  0  0
  -21.4015   -6.5640   23.8213 C   0  0  0  0  0  0
  -21.3659   -5.6793   24.9175 C   0  0  0  0  0  0
  -21.6043   -4.3056   24.7226 C   0  0  0  0  0  0
  -21.8819   -3.8148   23.4348 C   0  0  0  0  0  0
  -21.9192   -4.6964   22.3403 C   0  0  0  0  0  0
  -22.7792  -13.5206   21.1889 C   0  0  0  0  0  0
  -22.1661   -4.2149   21.0980 F   0  0  0  0  0  0
  -21.5627   -3.4540   25.7740 F   0  0  0  0  0  0
  -29.9429  -13.7075   20.3789 N   0  0  0  0  0  0
  -26.2878  -12.9448   20.3248 N   0  0  0  0  0  0
  -25.9324  -11.6578   20.5746 N   0  0  0  0  0  0
  -22.0446  -12.8189   22.0443 N   0  0  0  0  0  0
  -25.4103  -15.1945   20.4124 N   0  0  0  0  0  0
  -31.7201  -15.0538   20.1315 O   0  0  0  0  0  0
  -21.6640   -6.8880   21.4241 O   0  0  0  0  0  0
  -22.3472  -14.5510   20.6735 O   0  0  0  0  0  0
  -24.6457  -31.8406   23.1856 C   0  0  0  0  0  0
  -25.9216  -32.4673   23.8255 C   0  0  1  0  0  0
  -27.2171  -27.1075   20.1564 C   0  0  0  0  0  0
  -25.5954  -33.8482   24.2165 N   0  0  0  0  0  0
  -23.4509  -30.4582   21.5320 C   0  0  2  0  0  0
  -24.9012  -28.8793   20.1092 C   0  0  0  0  0  0
  -22.7580  -29.4521   22.4855 C   0  0  0  0  0  0
  -18.0306  -28.1389   22.8471 C   0  0  0  0  0  0
  -24.1491  -36.7247   23.2641 C   0  0  0  0  0  0
  -26.0083  -30.7043   21.3892 C   0  0  0  0  0  0
  -26.0786  -29.3130   20.7309 C   0  0  0  0  0  0
  -27.2364  -28.4435   20.7364 C   0  0  0  0  0  0
  -26.0154  -26.7832   19.4896 C   0  0  0  0  0  0
  -24.8840  -27.6292   19.4721 C   0  0  0  0  0  0
  -23.6789  -29.7848   20.1522 C   0  0  0  0  0  0
  -25.4124  -36.3018   24.0310 C   0  0  1  0  0  0
  -20.5919  -28.3716   23.1230 C   0  0  2  0  0  0
  -20.6787  -26.9416   22.5403 C   0  0  0  0  0  0
  -19.5761  -26.6373   21.5210 C   0  0  0  0  0  0
  -18.1942  -26.7925   22.1621 C   0  0  0  0  0  0
  -19.1563  -28.8873   23.2838 C   0  0  0  0  0  0
  -18.9479  -30.1470   23.8862 C   0  0  0  0  0  0
  -17.6475  -30.6585   24.0555 C   0  0  0  0  0  0
  -25.9078  -34.9395   23.5051 C   0  0  0  0  0  0
  -16.5367  -29.9074   23.6336 C   0  0  0  0  0  0
  -16.7291  -28.6495   23.0353 C   0  0  0  0  0  0
  -26.4534  -31.6557   25.0711 C   0  0  0  0  0  0
  -25.3709  -31.3753   26.1399 C   0  0  0  0  0  0
  -27.0409  -30.2949   24.6320 C   0  0  0  0  0  0
  -27.6053  -32.4339   25.7499 C   0  0  0  0  0  0
  -27.5574  -37.1776   24.8465 C   0  0  0  0  0  0
  -21.4271  -29.3038   22.3604 N   0  0  0  0  0  0
  -26.4284  -37.3735   23.9409 N   0  0  0  0  0  0
  -24.7215  -31.0233   22.0906 N   0  0  0  0  0  0
  -23.4209  -28.8070   23.3018 O   0  0  0  0  0  0
  -28.2617  -26.1063   20.2437 O   0  0  0  0  0  0
  -26.5672  -34.8900   22.4635 O   0  0  0  0  0  0
  -23.5568  -32.1299   23.7056 O   0  0  0  0  0  0
  -28.1930  -20.9033   22.3645 C   0  0  0  0  0  0
  -28.8648  -20.3714   21.2403 C   0  0  0  0  0  0
  -29.3263  -18.9096   21.3866 C   0  0  0  0  0  0
  -28.1011  -20.2312   23.5781 C   0  0  0  0  0  0
  -29.2939  -18.4395   22.7443 C   0  0  0  0  0  0
  -27.3743  -20.8322   24.7635 C   0  0  0  0  0  0
  -30.0049  -17.1858   23.2357 C   0  0  0  0  0  0
  -28.8606  -21.5765   20.1171 C   0  0  0  0  0  0
  -29.8980  -17.7354   20.3574 C   0  0  0  0  0  0
  -28.9806  -23.2535   20.5022 C   0  0  0  0  0  0
  -28.0165  -24.5699   20.0168 C   0  0  0  0  0  0
  -28.6895  -19.0550   23.7751 N   0  0  0  0  0  0
  -29.7112  -16.1526   20.5528 N   0  0  0  0  0  0
  -31.4745  -12.7715   19.1911 H   0  0  0  0  0  0
  -30.4441  -11.6578   20.0432 H   0  0  0  0  0  0
  -29.8480  -11.7308   17.5961 H   0  0  0  0  0  0
  -29.6053  -13.4581   17.6901 H   0  0  0  0  0  0
  -27.9593  -11.2719   18.9940 H   0  0  0  0  0  0
  -27.3937  -12.4346   17.8232 H   0  0  0  0  0  0
  -27.5887  -14.2479   19.4046 H   0  0  0  0  0  0
  -28.7631  -12.3107   21.4584 H   0  0  0  0  0  0
  -28.3642  -13.9860   21.7561 H   0  0  0  0  0  0
  -25.2768   -9.5680   22.4765 H   0  0  0  0  0  0
  -24.0005   -7.4631   22.7474 H   0  0  0  0  0  0
  -21.0850   -8.8782   19.8949 H   0  0  0  0  0  0
  -22.3714  -10.9675   19.6170 H   0  0  0  0  0  0
  -21.2009   -7.6148   23.9719 H   0  0  0  0  0  0
  -21.1480   -6.0521   25.9078 H   0  0  0  0  0  0
  -22.0598   -2.7610   23.2849 H   0  0  0  0  0  0
  -22.4074  -11.9853   22.4827 H   0  0  0  0  0  0
  -21.1063  -13.1203   22.2658 H   0  0  0  0  0  0
  -24.6369  -15.8416   20.5221 H   0  0  0  0  0  0
  -26.2450  -15.6379   20.0527 H   0  0  0  0  0  0
  -26.7279  -32.5273   23.0977 H   0  0  0  0  0  0
  -25.0080  -33.9594   25.0299 H   0  0  0  0  0  0
  -22.7547  -31.2847   21.3749 H   0  0  0  0  0  0
  -23.3761  -35.9573   23.3290 H   0  0  0  0  0  0
  -24.3572  -36.8899   22.2059 H   0  0  0  0  0  0
  -23.7245  -37.6434   23.6699 H   0  0  0  0  0  0
  -26.1678  -31.4567   20.6157 H   0  0  0  0  0  0
  -26.8774  -30.7547   22.0336 H   0  0  0  0  0  0
  -28.1314  -28.7690   21.2474 H   0  0  0  0  0  0
  -25.9177  -25.8278   18.9961 H   0  0  0  0  0  0
  -23.9858  -27.2936   18.9720 H   0  0  0  0  0  0
  -23.8173  -30.5585   19.3962 H   0  0  0  0  0  0
  -22.7932  -29.2280   19.8414 H   0  0  0  0  0  0
  -25.1311  -36.1838   25.0801 H   0  0  0  0  0  0
  -21.0007  -28.3307   24.1352 H   0  0  0  0  0  0
  -20.5674  -26.2329   23.3624 H   0  0  0  0  0  0
  -21.6653  -26.7410   22.1204 H   0  0  0  0  0  0
  -19.6924  -25.6278   21.1255 H   0  0  0  0  0  0
  -19.6701  -27.3170   20.6729 H   0  0  0  0  0  0
  -17.4211  -26.6671   21.4025 H   0  0  0  0  0  0
  -18.0340  -26.0068   22.9018 H   0  0  0  0  0  0
  -19.7957  -30.7296   24.2212 H   0  0  0  0  0  0
  -17.5027  -31.6262   24.5164 H   0  0  0  0  0  0
  -15.5364  -30.2962   23.7681 H   0  0  0  0  0  0
  -15.8692  -28.0806   22.7080 H   0  0  0  0  0  0
  -24.5898  -30.7090   25.7720 H   0  0  0  0  0  0
  -24.8887  -32.2935   26.4762 H   0  0  0  0  0  0
  -25.7978  -30.8968   27.0222 H   0  0  0  0  0  0
  -26.3036  -29.6658   24.1319 H   0  0  0  0  0  0
  -27.4004  -29.7260   25.4906 H   0  0  0  0  0  0
  -27.8951  -30.4178   23.9656 H   0  0  0  0  0  0
  -27.2639  -33.3670   26.1998 H   0  0  0  0  0  0
  -28.3902  -32.6857   25.0353 H   0  0  0  0  0  0
  -28.0684  -31.8521   26.5479 H   0  0  0  0  0  0
  -28.2573  -38.0087   24.7514 H   0  0  0  0  0  0
  -28.1087  -36.2616   24.6289 H   0  0  0  0  0  0
  -27.2293  -37.1416   25.8867 H   0  0  0  0  0  0
  -20.9492  -29.8754   21.6779 H   0  0  0  0  0  0
  -26.0146  -38.2799   24.1420 H   0  0  0  0  0  0
  -27.7176  -21.8719   22.3129 H   0  0  0  0  0  0
  -26.7212  -21.6491   24.4556 H   0  0  0  0  0  0
  -28.0887  -21.2242   25.4875 H   0  0  0  0  0  0
  -26.7580  -20.0826   25.2612 H   0  0  0  0  0  0
  -30.9527  -17.0293   22.7214 H   0  0  0  0  0  0
  -29.3713  -16.3070   23.1223 H   0  0  0  0  0  0
  -30.2516  -17.2609   24.2960 H   0  0  0  0  0  0
  -27.9390  -21.4461   19.5492 H   0  0  0  0  0  0
  -29.6507  -21.3392   19.4047 H   0  0  0  0  0  0
  -30.9706  -17.9094   20.2615 H   0  0  0  0  0  0
  -29.4905  -17.9686   19.3732 H   0  0  0  0  0  0
  -29.9837  -23.5216   20.1707 H   0  0  0  0  0  0
  -29.0744  -23.3423   21.5829 H   0  0  0  0  0  0
  -27.0295  -24.3639   20.4318 H   0  0  0  0  0  0
  -27.8915  -24.4645   18.9389 H   0  0  0  0  0  0
  -28.7497  -15.9054   20.7297 H   0  0  0  0  0  0
  1 25  1  0  0  0
  1 30  2  0  0  0
  1 83  1  0  0  0
  2  3  1  0  0  0
  2 25  1  0  0  0
  2 84  1  0  0  0
  2 85  1  0  0  0
  3  4  1  0  0  0
  3 86  1  0  0  0
  3 87  1  0  0  0
  4  5  1  0  0  0
  4 88  1  0  0  0
  4 89  1  0  0  0
  5  6  1  0  0  0
  5 26  1  0  0  0
  5 90  1  0  0  0
  6 25  1  0  0  0
  6 91  1  0  0  0
  6 92  1  0  0  0
  7  8  2  0  0  0
  7 26  1  0  0  0
  7 29  1  0  0  0
  8  9  1  0  0  0
  8 22  1  0  0  0
  9 10  1  0  0  0
  9 27  2  0  0  0
 10 11  2  0  0  0
 10 15  1  0  0  0
 11 12  1  0  0  0
 11 93  1  0  0  0
 12 13  2  0  0  0
 12 94  1  0  0  0
 13 14  1  0  0  0
 13 31  1  0  0  0
 14 15  2  0  0  0
 14 95  1  0  0  0
 15 96  1  0  0  0
 16 17  2  0  0  0
 16 21  1  0  0  0
 16 31  1  0  0  0
 17 18  1  0  0  0
 17 97  1  0  0  0
 18 19  2  0  0  0
 18 98  1  0  0  0
 19 20  1  0  0  0
 19 24  1  0  0  0
 20 21  2  0  0  0
 20 99  1  0  0  0
 21 23  1  0  0  0
 22 28  1  0  0  0
 22 32  2  0  0  0
 26 27  1  0  0  0
 28100  1  0  0  0
 28101  1  0  0  0
 29102  1  0  0  0
 29103  1  0  0  0
 33 34  1  0  0  0
 33 66  1  0  0  0
 33 70  2  0  0  0
 34 36  1  0  0  0
 34 59  1  0  0  0
 34104  1  0  0  0
 35 44  2  0  0  0
 35 45  1  0  0  0
 35 68  1  0  0  0
 36 56  1  0  0  0
 36105  1  0  0  0
 37 39  1  0  0  0
 37 47  1  0  0  0
 37 66  1  0  0  0
 37106  1  0  0  0
 38 43  2  0  0  0
 38 46  1  0  0  0
 38 47  1  0  0  0
 39 64  1  0  0  0
 39 67  2  0  0  0
 40 52  1  0  0  0
 40 53  2  0  0  0
 40 58  1  0  0  0
 41107  1  0  0  0
 41108  1  0  0  0
 41109  1  0  0  0
 41 48  1  0  0  0
 42 43  1  0  0  0
 42 66  1  0  0  0
 42110  1  0  0  0
 42111  1  0  0  0
 43 44  1  0  0  0
 44112  1  0  0  0
 45 46  2  0  0  0
 45113  1  0  0  0
 46114  1  0  0  0
 47115  1  0  0  0
 47116  1  0  0  0
 48 56  1  0  0  0
 48 65  1  0  0  0
 48117  1  0  0  0
 49 50  1  0  0  0
 49 53  1  0  0  0
 49 64  1  0  0  0
 49118  1  0  0  0
 50 51  1  0  0  0
 50119  1  0  0  0
 50120  1  0  0  0
 51 52  1  0  0  0
 51121  1  0  0  0
 51122  1  0  0  0
 52123  1  0  0  0
 52124  1  0  0  0
 53 54  1  0  0  0
 54 55  2  0  0  0
 54125  1  0  0  0
 55 57  1  0  0  0
 55126  1  0  0  0
 56 69  2  0  0  0
 57 58  2  0  0  0
 57127  1  0  0  0
 58128  1  0  0  0
 59 60  1  0  0  0
 59 61  1  0  0  0
 59 62  1  0  0  0
 60129  1  0  0  0
 60130  1  0  0  0
 60131  1  0  0  0
 61132  1  0  0  0
 61133  1  0  0  0
 61134  1  0  0  0
 62135  1  0  0  0
 62136  1  0  0  0
 62137  1  0  0  0
 63 65  1  0  0  0
 63138  1  0  0  0
 63139  1  0  0  0
 63140  1  0  0  0
 64141  1  0  0  0
 65142  1  0  0  0
 68 81  1  0  0  0
 71 72  2  0  0  0
 71 74  1  0  0  0
 71143  1  0  0  0
 72 73  1  0  0  0
 72 78  1  0  0  0
 73 75  2  0  0  0
 73 79  1  0  0  0
 74 76  1  0  0  0
 74 82  2  0  0  0
 75 77  1  0  0  0
 75 82  1  0  0  0
 76144  1  0  0  0
 76145  1  0  0  0
 76146  1  0  0  0
 77147  1  0  0  0
 77148  1  0  0  0
 77149  1  0  0  0
 78 80  1  0  0  0
 78150  1  0  0  0
 78151  1  0  0  0
 79 83  1  0  0  0
 79152  1  0  0  0
 79153  1  0  0  0
 80 81  1  0  0  0
 80154  1  0  0  0
 80155  1  0  0  0
 81156  1  0  0  0
 81157  1  0  0  0
 83158  1  0  0  0
M  ISO  4   1 100  68 101  81 101  83 100
M  END
> <chiral flag>
0

> <version>
0

> <s_m_source_file>
/data/baiqing/PycharmProjects/Reinvent-master-3.2/result/LINK_invent/BTK/process_docking_weight1_custom_sum_contain_oxygen_bond_distance_aromatic_linkinvent_7_9_3/rearranged_h_0035.sdf

> <i_m_source_file_index>
66

> <r_mmod_Potential_Energy-OPLS-2005>
501.782806396484

> <r_mmod_Stretch_Energy-OPLS-2005>
329.546112060547

> <r_mmod_Bend_Energy-OPLS-2005>
329.921203613281

> <r_mmod_Torsional_Energy-OPLS-2005>
226.036392211914

> <r_mmod_Improper_Torsional_Energy-OPLS-2005>
4.71389579772949

> <r_mmod_Van_der_Waal_Energy-OPLS-2005>
146.138671875

> <r_mmod_Electrostatic_Energy-OPLS-2005>
-528.947326660156

> <r_mmod_Solvation_Energy-OPLS-2005>
-224.032287597656

> <b_mmod_Minimization_Converged-OPLS-2005>
0

> <r_mmod_RMS_Derivative-OPLS-2005>
0.505819022655487

$$$$
66
                    3D
 Structure written by MMmdl.
173181  0  0  1  0            999 V2000
  -30.8406  -14.2786   20.7648 C   0  0  0  0  0  0
  -30.4066  -12.2914   19.3736 C   0  0  0  0  0  0
  -29.4708  -12.5472   18.1821 C   0  0  0  0  0  0
  -28.0029  -12.3830   18.6085 C   0  0  0  0  0  0
  -27.6655  -13.2059   19.8776 C   0  0  2  0  0  0
  -28.7043  -12.9666   20.9963 C   0  0  0  0  0  0
  -25.2602  -13.8165   20.5679 C   0  0  0  0  0  0
  -24.1848  -13.0444   20.9163 C   0  0  0  0  0  0
  -24.6400  -11.6913   20.8730 C   0  0  0  0  0  0
  -23.9069  -10.4298   21.0405 C   0  0  0  0  0  0
  -24.3622   -9.4215   21.9186 C   0  0  0  0  0  0
  -23.6297   -8.2247   22.0756 C   0  0  0  0  0  0
  -22.4280   -8.0286   21.3546 C   0  0  0  0  0  0
  -21.9915   -9.0258   20.4647 C   0  0  0  0  0  0
  -22.7243  -10.2138   20.3051 C   0  0  0  0  0  0
  -21.6854   -6.0742   22.5281 C   0  0  0  0  0  0
  -21.4019   -6.5645   23.8217 C   0  0  0  0  0  0
  -21.3657   -5.6797   24.9175 C   0  0  0  0  0  0
  -21.6040   -4.3058   24.7225 C   0  0  0  0  0  0
  -21.8820   -3.8154   23.4345 C   0  0  0  0  0  0
  -21.9197   -4.6968   22.3405 C   0  0  0  0  0  0
  -22.7872  -13.5246   21.1842 C   0  0  0  0  0  0
  -22.1664   -4.2156   21.0979 F   0  0  0  0  0  0
  -21.5628   -3.4538   25.7734 F   0  0  0  0  0  0
  -30.0552  -13.2162   20.4602 N   0  0  0  0  0  0
  -26.3048  -12.9340   20.3384 N   0  0  0  0  0  0
  -25.9329  -11.6498   20.5765 N   0  0  0  0  0  0
  -22.0512  -12.8233   22.0394 N   0  0  0  0  0  0
  -25.4333  -15.1878   20.4097 N   0  0  0  0  0  0
  -31.7549  -14.6843   20.0416 O   0  0  0  0  0  0
  -21.6642   -6.8884   21.4243 O   0  0  0  0  0  0
  -22.3556  -14.5557   20.6705 O   0  0  0  0  0  0
  -24.6091  -31.8709   23.2141 C   0  0  0  0  0  0
  -25.9005  -32.4837   23.8421 C   0  0  1  0  0  0
  -27.2477  -27.4902   20.0743 C   0  0  0  0  0  0
  -25.5901  -33.8641   24.2348 N   0  0  0  0  0  0
  -23.3947  -30.4952   21.5525 C   0  0  2  0  0  0
  -24.8423  -28.9647   20.1170 C   0  0  0  0  0  0
  -22.7378  -29.4670   22.5007 C   0  0  0  0  0  0
  -18.0268  -28.1359   22.8511 C   0  0  0  0  0  0
  -24.1487  -36.7310   23.2640 C   0  0  0  0  0  0
  -25.9191  -30.8496   21.3619 C   0  0  0  0  0  0
  -25.9967  -29.4866   20.7138 C   0  0  0  0  0  0
  -27.2007  -28.7564   20.6988 C   0  0  0  0  0  0
  -26.0812  -26.9745   19.4726 C   0  0  0  0  0  0
  -24.8762  -27.7006   19.4997 C   0  0  0  0  0  0
  -23.6005  -29.8246   20.1673 C   0  0  0  0  0  0
  -25.4111  -36.3118   24.0344 C   0  0  1  0  0  0
  -20.5856  -28.3635   23.1326 C   0  0  2  0  0  0
  -20.6761  -26.9371   22.5418 C   0  0  0  0  0  0
  -19.5741  -26.6358   21.5222 C   0  0  0  0  0  0
  -18.1912  -26.7912   22.1615 C   0  0  0  0  0  0
  -19.1515  -28.8815   23.2923 C   0  0  0  0  0  0
  -18.9445  -30.1433   23.8915 C   0  0  0  0  0  0
  -17.6446  -30.6568   24.0567 C   0  0  0  0  0  0
  -25.9035  -34.9488   23.5131 C   0  0  0  0  0  0
  -16.5339  -29.9071   23.6334 C   0  0  0  0  0  0
  -16.7255  -28.6487   23.0355 C   0  0  0  0  0  0
  -26.4457  -31.6607   25.0730 C   0  0  0  0  0  0
  -25.3739  -31.3717   26.1485 C   0  0  0  0  0  0
  -27.0287  -30.3065   24.6073 C   0  0  0  0  0  0
  -27.6022  -32.4338   25.7485 C   0  0  0  0  0  0
  -27.5586  -37.1812   24.8472 C   0  0  0  0  0  0
  -21.4109  -29.3019   22.3748 N   0  0  0  0  0  0
  -26.4301  -37.3795   23.9416 N   0  0  0  0  0  0
  -24.6589  -31.0863   22.1008 N   0  0  0  0  0  0
  -23.4176  -28.8197   23.3013 O   0  0  0  0  0  0
  -28.3970  -26.7448   19.9752 O   0  0  0  0  0  0
  -26.5570  -34.8938   22.4676 O   0  0  0  0  0  0
  -23.5301  -32.1413   23.7585 O   0  0  0  0  0  0
  -26.4153  -22.9759   21.9935 C   0  0  0  0  0  0
  -27.5663  -23.2406   24.1012 C   0  0  0  0  0  0
  -27.1614  -23.7841   22.8707 C   0  0  0  0  0  0
  -26.0935  -21.6650   22.3857 C   0  0  0  0  0  0
  -27.1939  -21.9207   24.4142 C   0  0  0  0  0  0
  -25.3296  -20.7388   21.4618 C   0  0  0  0  0  0
  -27.5429  -25.1958   22.4844 C   0  0  0  0  0  0
  -27.6824  -21.2750   25.6994 C   0  0  0  0  0  0
  -28.9084  -25.2465   21.7828 C   0  0  0  0  0  0
  -29.0268  -20.5481   25.5047 C   0  0  0  0  0  0
  -28.9136  -19.1814   24.8023 C   0  0  0  0  0  0
  -30.2457  -18.7261   24.1943 C   0  0  0  0  0  0
  -30.1808  -17.3092   23.6039 C   0  0  0  0  0  0
  -31.4774  -16.9374   22.8643 C   0  0  0  0  0  0
  -31.7353  -15.4254   22.7801 C   0  0  0  0  0  0
  -29.2104  -26.6030   21.1355 C   0  0  0  0  0  0
  -26.4607  -21.1515   23.5780 N   0  0  0  0  0  0
  -30.7129  -14.6971   22.0302 N   0  0  0  0  0  0
  -31.4486  -12.3935   19.0625 H   0  0  0  0  0  0
  -30.3025  -11.2627   19.7234 H   0  0  0  0  0  0
  -29.7038  -11.8652   17.3631 H   0  0  0  0  0  0
  -29.6314  -13.5565   17.7989 H   0  0  0  0  0  0
  -27.8239  -11.3230   18.7935 H   0  0  0  0  0  0
  -27.3394  -12.6678   17.7905 H   0  0  0  0  0  0
  -27.7202  -14.2584   19.5977 H   0  0  0  0  0  0
  -28.6474  -11.9391   21.3592 H   0  0  0  0  0  0
  -28.4579  -13.6004   21.8490 H   0  0  0  0  0  0
  -25.2765   -9.5691   22.4760 H   0  0  0  0  0  0
  -24.0011   -7.4637   22.7471 H   0  0  0  0  0  0
  -21.0849   -8.8777   19.8945 H   0  0  0  0  0  0
  -22.3709  -10.9677   19.6154 H   0  0  0  0  0  0
  -21.2010   -7.6154   23.9721 H   0  0  0  0  0  0
  -21.1476   -6.0526   25.9081 H   0  0  0  0  0  0
  -22.0600   -2.7614   23.2843 H   0  0  0  0  0  0
  -22.4121  -11.9872   22.4747 H   0  0  0  0  0  0
  -21.1130  -13.1259   22.2604 H   0  0  0  0  0  0
  -24.6712  -15.8484   20.5185 H   0  0  0  0  0  0
  -26.2998  -15.6273   20.1234 H   0  0  0  0  0  0
  -26.7076  -32.5553   23.1191 H   0  0  0  0  0  0
  -25.0158  -33.9833   25.0565 H   0  0  0  0  0  0
  -22.6822  -31.3112   21.4155 H   0  0  0  0  0  0
  -23.3756  -35.9633   23.3314 H   0  0  0  0  0  0
  -24.3604  -36.8898   22.2054 H   0  0  0  0  0  0
  -23.7222  -37.6517   23.6640 H   0  0  0  0  0  0
  -26.0320  -31.6181   20.5963 H   0  0  0  0  0  0
  -26.8084  -30.8991   21.9791 H   0  0  0  0  0  0
  -28.0896  -29.1869   21.1367 H   0  0  0  0  0  0
  -26.1106  -26.0101   18.9840 H   0  0  0  0  0  0
  -23.9908  -27.2904   19.0333 H   0  0  0  0  0  0
  -23.6988  -30.5986   19.4049 H   0  0  0  0  0  0
  -22.7274  -29.2371   19.8761 H   0  0  0  0  0  0
  -25.1288  -36.1991   25.0837 H   0  0  0  0  0  0
  -20.9967  -28.3167   24.1437 H   0  0  0  0  0  0
  -20.5672  -26.2225   23.3591 H   0  0  0  0  0  0
  -21.6628  -26.7417   22.1203 H   0  0  0  0  0  0
  -19.6898  -25.6275   21.1229 H   0  0  0  0  0  0
  -19.6689  -27.3196   20.6782 H   0  0  0  0  0  0
  -17.4195  -26.6691   21.3998 H   0  0  0  0  0  0
  -18.0284  -26.0056   22.8999 H   0  0  0  0  0  0
  -19.7929  -30.7257   24.2264 H   0  0  0  0  0  0
  -17.5004  -31.6260   24.5144 H   0  0  0  0  0  0
  -15.5339  -30.2969   23.7665 H   0  0  0  0  0  0
  -15.8653  -28.0819   22.7040 H   0  0  0  0  0  0
  -24.5894  -30.7079   25.7836 H   0  0  0  0  0  0
  -24.8963  -32.2887   26.4946 H   0  0  0  0  0  0
  -25.8102  -30.8875   27.0228 H   0  0  0  0  0  0
  -26.2823  -29.6833   24.1125 H   0  0  0  0  0  0
  -27.4095  -29.7289   25.4508 H   0  0  0  0  0  0
  -27.8645  -30.4427   23.9201 H   0  0  0  0  0  0
  -27.2622  -33.3626   26.2077 H   0  0  0  0  0  0
  -28.3814  -32.6908   25.0299 H   0  0  0  0  0  0
  -28.0711  -31.8462   26.5386 H   0  0  0  0  0  0
  -28.2597  -38.0117   24.7519 H   0  0  0  0  0  0
  -28.1063  -36.2638   24.6263 H   0  0  0  0  0  0
  -27.2307  -37.1432   25.8877 H   0  0  0  0  0  0
  -20.9219  -29.8754   21.7012 H   0  0  0  0  0  0
  -26.0178  -38.2866   24.1410 H   0  0  0  0  0  0
  -26.1008  -23.3544   21.0299 H   0  0  0  0  0  0
  -28.1676  -23.8205   24.7874 H   0  0  0  0  0  0
  -25.0643  -21.2432   20.5327 H   0  0  0  0  0  0
  -24.4109  -20.3935   21.9364 H   0  0  0  0  0  0
  -25.9374  -19.8697   21.2079 H   0  0  0  0  0  0
  -27.5533  -25.8365   23.3678 H   0  0  0  0  0  0
  -26.7551  -25.5800   21.8395 H   0  0  0  0  0  0
  -26.9235  -20.6000   26.0976 H   0  0  0  0  0  0
  -27.8056  -22.0605   26.4457 H   0  0  0  0  0  0
  -28.9579  -24.4713   21.0162 H   0  0  0  0  0  0
  -29.6875  -25.0058   22.5063 H   0  0  0  0  0  0
  -29.4936  -20.3948   26.4782 H   0  0  0  0  0  0
  -29.6990  -21.2066   24.9530 H   0  0  0  0  0  0
  -28.1774  -19.2250   24.0015 H   0  0  0  0  0  0
  -28.5411  -18.4397   25.5109 H   0  0  0  0  0  0
  -31.0261  -18.7628   24.9559 H   0  0  0  0  0  0
  -30.5416  -19.4323   23.4167 H   0  0  0  0  0  0
  -29.3336  -17.2193   22.9209 H   0  0  0  0  0  0
  -29.9976  -16.6018   24.4133 H   0  0  0  0  0  0
  -32.3285  -17.3847   23.3817 H   0  0  0  0  0  0
  -31.4719  -17.3778   21.8660 H   0  0  0  0  0  0
  -31.7765  -15.0058   23.7861 H   0  0  0  0  0  0
  -32.7249  -15.2477   22.3527 H   0  0  0  0  0  0
  -30.2482  -26.6173   20.8030 H   0  0  0  0  0  0
  -29.1121  -27.4079   21.8638 H   0  0  0  0  0  0
  -29.9677  -14.2726   22.5625 H   0  0  0  0  0  0
  1 25  1  0  0  0
  1 30  2  0  0  0
  1 88  1  0  0  0
  2  3  1  0  0  0
  2 25  1  0  0  0
  2 89  1  0  0  0
  2 90  1  0  0  0
  3  4  1  0  0  0
  3 91  1  0  0  0
  3 92  1  0  0  0
  4  5  1  0  0  0
  4 93  1  0  0  0
  4 94  1  0  0  0
  5  6  1  0  0  0
  5 26  1  0  0  0
  5 95  1  0  0  0
  6 25  1  0  0  0
  6 96  1  0  0  0
  6 97  1  0  0  0
  7  8  2  0  0  0
  7 26  1  0  0  0
  7 29  1  0  0  0
  8  9  1  0  0  0
  8 22  1  0  0  0
  9 10  1  0  0  0
  9 27  2  0  0  0
 10 11  2  0  0  0
 10 15  1  0  0  0
 11 12  1  0  0  0
 11 98  1  0  0  0
 12 13  2  0  0  0
 12 99  1  0  0  0
 13 14  1  0  0  0
 13 31  1  0  0  0
 14 15  2  0  0  0
 14100  1  0  0  0
 15101  1  0  0  0
 16 17  2  0  0  0
 16 21  1  0  0  0
 16 31  1  0  0  0
 17 18  1  0  0  0
 17102  1  0  0  0
 18 19  2  0  0  0
 18103  1  0  0  0
 19 20  1  0  0  0
 19 24  1  0  0  0
 20 21  2  0  0  0
 20104  1  0  0  0
 21 23  1  0  0  0
 22 28  1  0  0  0
 22 32  2  0  0  0
 26 27  1  0  0  0
 28105  1  0  0  0
 28106  1  0  0  0
 29107  1  0  0  0
 29108  1  0  0  0
 33 34  1  0  0  0
 33 66  1  0  0  0
 33 70  2  0  0  0
 34 36  1  0  0  0
 34 59  1  0  0  0
 34109  1  0  0  0
 35 44  2  0  0  0
 35 45  1  0  0  0
 35 68  1  0  0  0
 36 56  1  0  0  0
 36110  1  0  0  0
 37 39  1  0  0  0
 37 47  1  0  0  0
 37 66  1  0  0  0
 37111  1  0  0  0
 38 43  2  0  0  0
 38 46  1  0  0  0
 38 47  1  0  0  0
 39 64  1  0  0  0
 39 67  2  0  0  0
 40 52  1  0  0  0
 40 53  2  0  0  0
 40 58  1  0  0  0
 41112  1  0  0  0
 41113  1  0  0  0
 41114  1  0  0  0
 41 48  1  0  0  0
 42 43  1  0  0  0
 42 66  1  0  0  0
 42115  1  0  0  0
 42116  1  0  0  0
 43 44  1  0  0  0
 44117  1  0  0  0
 45 46  2  0  0  0
 45118  1  0  0  0
 46119  1  0  0  0
 47120  1  0  0  0
 47121  1  0  0  0
 48 56  1  0  0  0
 48 65  1  0  0  0
 48122  1  0  0  0
 49 50  1  0  0  0
 49 53  1  0  0  0
 49 64  1  0  0  0
 49123  1  0  0  0
 50 51  1  0  0  0
 50124  1  0  0  0
 50125  1  0  0  0
 51 52  1  0  0  0
 51126  1  0  0  0
 51127  1  0  0  0
 52128  1  0  0  0
 52129  1  0  0  0
 53 54  1  0  0  0
 54 55  2  0  0  0
 54130  1  0  0  0
 55 57  1  0  0  0
 55131  1  0  0  0
 56 69  2  0  0  0
 57 58  2  0  0  0
 57132  1  0  0  0
 58133  1  0  0  0
 59 60  1  0  0  0
 59 61  1  0  0  0
 59 62  1  0  0  0
 60134  1  0  0  0
 60135  1  0  0  0
 60136  1  0  0  0
 61137  1  0  0  0
 61138  1  0  0  0
 61139  1  0  0  0
 62140  1  0  0  0
 62141  1  0  0  0
 62142  1  0  0  0
 63 65  1  0  0  0
 63143  1  0  0  0
 63144  1  0  0  0
 63145  1  0  0  0
 64146  1  0  0  0
 65147  1  0  0  0
 68 86  1  0  0  0
 71 73  2  0  0  0
 71 74  1  0  0  0
 71148  1  0  0  0
 72 73  1  0  0  0
 72 75  2  0  0  0
 72149  1  0  0  0
 73 77  1  0  0  0
 74 76  1  0  0  0
 74 87  2  0  0  0
 75 78  1  0  0  0
 75 87  1  0  0  0
 76150  1  0  0  0
 76151  1  0  0  0
 76152  1  0  0  0
 77 79  1  0  0  0
 77153  1  0  0  0
 77154  1  0  0  0
 78 80  1  0  0  0
 78155  1  0  0  0
 78156  1  0  0  0
 79 86  1  0  0  0
 79157  1  0  0  0
 79158  1  0  0  0
 80 81  1  0  0  0
 80159  1  0  0  0
 80160  1  0  0  0
 81 82  1  0  0  0
 81161  1  0  0  0
 81162  1  0  0  0
 82 83  1  0  0  0
 82163  1  0  0  0
 82164  1  0  0  0
 83 84  1  0  0  0
 83165  1  0  0  0
 83166  1  0  0  0
 84 85  1  0  0  0
 84167  1  0  0  0
 84168  1  0  0  0
 85 88  1  0  0  0
 85169  1  0  0  0
 85170  1  0  0  0
 86171  1  0  0  0
 86172  1  0  0  0
 88173  1  0  0  0
M  ISO  4   1 100  68 101  86 101  88 100
M  END
> <chiral flag>
0

> <version>
0

> <s_m_source_file>
/data/baiqing/PycharmProjects/Reinvent-master-3.2/result/LINK_invent/BTK/process_docking_weight1_custom_sum_contain_oxygen_bond_distance_aromatic_linkinvent_7_9_3/rearranged_h_0035.sdf

> <i_m_source_file_index>
67

> <r_mmod_Potential_Energy-OPLS-2005>
-253.911239624023

> <r_mmod_Stretch_Energy-OPLS-2005>
29.9225368499756

> <r_mmod_Bend_Energy-OPLS-2005>
90.1185913085938

> <r_mmod_Torsional_Energy-OPLS-2005>
219.347503662109

> <r_mmod_Improper_Torsional_Energy-OPLS-2005>
5.90414905548096

> <r_mmod_Van_der_Waal_Energy-OPLS-2005>
147.856750488281

> <r_mmod_Electrostatic_Energy-OPLS-2005>
-546.813110351562

> <r_mmod_Solvation_Energy-OPLS-2005>
-208.618545532227

> <b_mmod_Minimization_Converged-OPLS-2005>
0

> <r_mmod_RMS_Derivative-OPLS-2005>
2.20137763023376

$$$$
67
                    3D
 Structure written by MMmdl.
178187  0  0  1  0            999 V2000
  -30.3763  -14.7711   20.6363 C   0  0  0  0  0  0
  -30.4088  -12.5093   19.4995 C   0  0  0  0  0  0
  -29.4991  -12.5124   18.2459 C   0  0  0  0  0  0
  -28.0262  -12.2836   18.6440 C   0  0  0  0  0  0
  -27.6071  -13.1789   19.8397 C   0  0  2  0  0  0
  -28.6027  -13.0560   21.0023 C   0  0  0  0  0  0
  -25.2302  -13.7978   20.5377 C   0  0  0  0  0  0
  -24.1647  -13.0314   20.9152 C   0  0  0  0  0  0
  -24.6212  -11.6811   20.8755 C   0  0  0  0  0  0
  -23.8909  -10.4242   21.0438 C   0  0  0  0  0  0
  -24.3526   -9.4194   21.9204 C   0  0  0  0  0  0
  -23.6249   -8.2217   22.0755 C   0  0  0  0  0  0
  -22.4247   -8.0236   21.3521 C   0  0  0  0  0  0
  -21.9831   -9.0194   20.4634 C   0  0  0  0  0  0
  -22.7111  -10.2101   20.3068 C   0  0  0  0  0  0
  -21.6846   -6.0713   22.5275 C   0  0  0  0  0  0
  -21.3994   -6.5624   23.8201 C   0  0  0  0  0  0
  -21.3656   -5.6781   24.9163 C   0  0  0  0  0  0
  -21.6049   -4.3045   24.7216 C   0  0  0  0  0  0
  -21.8829   -3.8136   23.4337 C   0  0  0  0  0  0
  -21.9195   -4.6947   22.3393 C   0  0  0  0  0  0
  -22.7766  -13.5236   21.1870 C   0  0  0  0  0  0
  -22.1673   -4.2139   21.0971 F   0  0  0  0  0  0
  -21.5636   -3.4533   25.7728 F   0  0  0  0  0  0
  -29.8728  -13.5051   20.4654 N   0  0  0  0  0  0
  -26.2622  -12.9091   20.2998 N   0  0  0  0  0  0
  -25.9068  -11.6307   20.5645 N   0  0  0  0  0  0
  -22.0385  -12.8259   22.0426 N   0  0  0  0  0  0
  -25.3818  -15.1586   20.3300 N   0  0  0  0  0  0
  -31.5540  -14.9609   20.2890 O   0  0  0  0  0  0
  -21.6629   -6.8832   21.4225 O   0  0  0  0  0  0
  -22.3520  -14.5578   20.6749 O   0  0  0  0  0  0
  -24.6412  -31.9029   23.2278 C   0  0  0  0  0  0
  -25.9261  -32.4995   23.8645 C   0  0  1  0  0  0
  -27.2243  -27.4568   20.0627 C   0  0  0  0  0  0
  -25.6155  -33.8793   24.2597 N   0  0  0  0  0  0
  -23.4591  -30.5305   21.5682 C   0  0  2  0  0  0
  -24.9158  -29.0848   20.0465 C   0  0  0  0  0  0
  -22.8985  -29.4664   22.5297 C   0  0  0  0  0  0
  -18.0339  -28.0896   22.4722 C   0  0  0  0  0  0
  -24.1512  -36.7362   23.2604 C   0  0  0  0  0  0
  -25.9895  -30.8422   21.4317 C   0  0  0  0  0  0
  -26.0499  -29.4893   20.7622 C   0  0  0  0  0  0
  -27.1968  -28.6543   20.8221 C   0  0  0  0  0  0
  -26.2526  -27.3226   19.0736 C   0  0  0  0  0  0
  -25.0324  -28.0165   19.1546 C   0  0  0  0  0  0
  -23.6693  -29.9338   20.1504 C   0  0  0  0  0  0
  -25.4113  -36.3176   24.0350 C   0  0  1  0  0  0
  -20.8394  -28.3457   23.3058 C   0  0  2  0  0  0
  -21.3618  -26.5588   23.2051 C   0  0  0  0  0  0
  -19.2740  -25.2181   22.1390 C   0  0  0  0  0  0
  -17.9289  -26.4648   21.8820 C   0  0  0  0  0  0
  -19.2405  -28.8594   23.0400 C   0  0  0  0  0  0
  -18.9885  -30.0993   23.6940 C   0  0  0  0  0  0
  -17.6937  -30.5967   23.9219 C   0  0  0  0  0  0
  -25.9104  -34.9529   23.5209 C   0  0  0  0  0  0
  -16.5850  -29.8499   23.4983 C   0  0  0  0  0  0
  -16.7656  -28.6428   22.7954 C   0  0  0  0  0  0
  -26.4542  -31.6650   25.0945 C   0  0  0  0  0  0
  -25.3681  -31.3765   26.1558 C   0  0  0  0  0  0
  -27.0373  -30.3051   24.6377 C   0  0  0  0  0  0
  -27.6137  -32.4310   25.7764 C   0  0  0  0  0  0
  -27.5612  -37.1859   24.8465 C   0  0  0  0  0  0
  -21.5948  -29.3090   22.5142 N   0  0  0  0  0  0
  -26.4317  -37.3847   23.9420 N   0  0  0  0  0  0
  -24.7104  -31.1187   22.1206 N   0  0  0  0  0  0
  -23.6162  -28.8243   23.2866 O   0  0  0  0  0  0
  -28.1284  -26.4278   20.2537 O   0  0  0  0  0  0
  -26.5465  -34.8939   22.4660 O   0  0  0  0  0  0
  -23.5553  -32.1813   23.7538 O   0  0  0  0  0  0
  -22.5190  -25.6214   20.0728 C   0  0  0  0  0  0
  -23.3821  -23.3446   20.4479 C   0  0  0  0  0  0
  -21.4599  -25.5066   21.0138 C   0  0  0  0  0  0
  -21.7122  -24.2554   21.9985 C   0  0  0  0  0  0
  -23.5326  -24.6179   19.9600 C   0  0  0  0  0  0
  -22.7119  -23.1831   21.6518 C   0  0  0  0  0  0
  -20.2835  -26.9872   21.3298 C   0  0  0  0  0  0
  -21.0264  -23.9923   23.5502 C   0  0  0  0  0  0
  -19.2740  -26.5227   23.9345 C   0  0  0  0  0  0
  -19.9388  -24.9861   24.5372 C   0  0  0  0  0  0
  -24.9593  -24.9481   19.5726 C   0  0  0  0  0  0
  -23.3690  -21.9214   22.4733 C   0  0  0  0  0  0
  -26.2841  -24.3950   20.2580 C   0  0  0  0  0  0
  -24.4757  -20.8615   21.7510 C   0  0  0  0  0  0
  -25.5863  -19.8075   22.3901 C   0  0  0  0  0  0
  -26.2390  -18.5608   21.4931 C   0  0  0  0  0  0
  -27.7845  -17.9382   21.5766 C   0  0  0  0  0  0
  -28.1983  -16.4237   21.0196 C   0  0  0  0  0  0
  -27.7115  -25.0482   19.8892 C   0  0  0  0  0  0
  -29.6065  -15.7987   21.2254 N   0  0  0  0  0  0
  -31.4435  -12.7203   19.2169 H   0  0  0  0  0  0
  -30.4228  -11.5167   19.9562 H   0  0  0  0  0  0
  -29.8261  -11.7449   17.5424 H   0  0  0  0  0  0
  -29.5948  -13.4656   17.7228 H   0  0  0  0  0  0
  -27.9163  -11.2317   18.9133 H   0  0  0  0  0  0
  -27.3723  -12.4395   17.7856 H   0  0  0  0  0  0
  -27.6209  -14.1997   19.4654 H   0  0  0  0  0  0
  -28.6708  -12.0247   21.3532 H   0  0  0  0  0  0
  -28.2867  -13.6441   21.8638 H   0  0  0  0  0  0
  -25.2666   -9.5733   22.4758 H   0  0  0  0  0  0
  -23.9985   -7.4621   22.7472 H   0  0  0  0  0  0
  -21.0769   -8.8684   19.8932 H   0  0  0  0  0  0
  -22.3542  -10.9642   19.6189 H   0  0  0  0  0  0
  -21.1969   -7.6133   23.9696 H   0  0  0  0  0  0
  -21.1474   -6.0510   25.9065 H   0  0  0  0  0  0
  -22.0613   -2.7602   23.2833 H   0  0  0  0  0  0
  -22.4009  -11.9930   22.4817 H   0  0  0  0  0  0
  -21.1023  -13.1362   22.2623 H   0  0  0  0  0  0
  -24.6204  -15.8196   20.4222 H   0  0  0  0  0  0
  -26.2248  -15.5696   19.9534 H   0  0  0  0  0  0
  -26.7455  -32.5752   23.1553 H   0  0  0  0  0  0
  -25.0546  -34.0055   25.0886 H   0  0  0  0  0  0
  -22.7213  -31.3285   21.4684 H   0  0  0  0  0  0
  -23.3785  -35.9699   23.3263 H   0  0  0  0  0  0
  -24.3629  -36.8979   22.2032 H   0  0  0  0  0  0
  -23.7274  -37.6587   23.6590 H   0  0  0  0  0  0
  -26.1540  -31.6297   20.6945 H   0  0  0  0  0  0
  -26.8658  -30.8727   22.0683 H   0  0  0  0  0  0
  -28.0177  -28.9152   21.4754 H   0  0  0  0  0  0
  -26.3917  -26.5755   18.3055 H   0  0  0  0  0  0
  -24.2349  -27.7817   18.4651 H   0  0  0  0  0  0
  -23.8157  -30.7667   19.4616 H   0  0  0  0  0  0
  -22.7818  -29.4112   19.7856 H   0  0  0  0  0  0
  -25.1275  -36.2083   25.0853 H   0  0  0  0  0  0
  -21.0622  -28.6429   24.3317 H   0  0  0  0  0  0
  -21.7546  -26.3215   24.2008 H   0  0  0  0  0  0
  -22.3644  -26.5819   22.7686 H   0  0  0  0  0  0
  -18.7809  -24.3942   22.6535 H   0  0  0  0  0  0
  -19.3342  -24.6969   21.1784 H   0  0  0  0  0  0
  -17.6701  -26.5341   20.8236 H   0  0  0  0  0  0
  -17.0023  -26.0340   22.2701 H   0  0  0  0  0  0
  -19.8311  -30.6638   24.0701 H   0  0  0  0  0  0
  -17.5680  -31.5364   24.4432 H   0  0  0  0  0  0
  -15.5870  -30.2183   23.7046 H   0  0  0  0  0  0
  -15.8742  -28.1001   22.4879 H   0  0  0  0  0  0
  -24.5841  -30.7231   25.7722 H   0  0  0  0  0  0
  -24.8888  -32.2940   26.4990 H   0  0  0  0  0  0
  -25.7889  -30.8827   27.0311 H   0  0  0  0  0  0
  -26.3030  -29.6931   24.1149 H   0  0  0  0  0  0
  -27.3794  -29.7186   25.4905 H   0  0  0  0  0  0
  -27.9013  -30.4322   23.9854 H   0  0  0  0  0  0
  -27.2777  -33.3591   26.2383 H   0  0  0  0  0  0
  -28.3940  -32.6913   25.0603 H   0  0  0  0  0  0
  -28.0777  -31.8372   26.5651 H   0  0  0  0  0  0
  -28.2602  -38.0179   24.7531 H   0  0  0  0  0  0
  -28.1150  -36.2726   24.6255 H   0  0  0  0  0  0
  -27.2327  -37.1442   25.8864 H   0  0  0  0  0  0
  -21.0595  -29.8939   21.8915 H   0  0  0  0  0  0
  -26.0221  -38.2953   24.1405 H   0  0  0  0  0  0
  -22.6486  -26.5744   19.5904 H   0  0  0  0  0  0
  -24.1003  -22.6400   20.0855 H   0  0  0  0  0  0
  -19.6444  -26.9422   20.4472 H   0  0  0  0  0  0
  -20.7296  -27.8989   20.9655 H   0  0  0  0  0  0
  -21.8654  -23.7555   24.2029 H   0  0  0  0  0  0
  -20.5385  -23.0189   23.4519 H   0  0  0  0  0  0
  -18.2071  -26.3908   24.1519 H   0  0  0  0  0  0
  -19.4717  -27.1865   24.7786 H   0  0  0  0  0  0
  -20.4308  -25.1864   25.4916 H   0  0  0  0  0  0
  -19.1170  -24.3481   24.8547 H   0  0  0  0  0  0
  -24.8738  -25.8567   20.1402 H   0  0  0  0  0  0
  -25.0230  -25.0495   18.4907 H   0  0  0  0  0  0
  -22.5601  -21.3283   22.9048 H   0  0  0  0  0  0
  -23.8628  -22.3670   23.3389 H   0  0  0  0  0  0
  -26.3549  -23.3263   20.0292 H   0  0  0  0  0  0
  -26.1825  -24.4228   21.3473 H   0  0  0  0  0  0
  -25.1863  -21.4830   21.2169 H   0  0  0  0  0  0
  -23.9190  -20.3002   21.0006 H   0  0  0  0  0  0
  -25.1610  -19.3664   23.2952 H   0  0  0  0  0  0
  -26.4177  -20.4065   22.7682 H   0  0  0  0  0  0
  -26.0863  -18.8340   20.4475 H   0  0  0  0  0  0
  -25.5600  -17.7192   21.6470 H   0  0  0  0  0  0
  -28.1367  -18.0528   22.6040 H   0  0  0  0  0  0
  -28.3997  -18.6344   20.9952 H   0  0  0  0  0  0
  -28.0136  -16.4021   19.9452 H   0  0  0  0  0  0
  -27.4935  -15.7244   21.4565 H   0  0  0  0  0  0
  -27.9594  -24.8688   18.8377 H   0  0  0  0  0  0
  -28.4430  -24.4010   20.4000 H   0  0  0  0  0  0
  -30.2190  -16.4794   21.6468 H   0  0  0  0  0  0
  1 25  1  0  0  0
  1 30  2  0  0  0
  1 90  1  0  0  0
  2  3  1  0  0  0
  2 25  1  0  0  0
  2 91  1  0  0  0
  2 92  1  0  0  0
  3  4  1  0  0  0
  3 93  1  0  0  0
  3 94  1  0  0  0
  4  5  1  0  0  0
  4 95  1  0  0  0
  4 96  1  0  0  0
  5  6  1  0  0  0
  5 26  1  0  0  0
  5 97  1  0  0  0
  6 25  1  0  0  0
  6 98  1  0  0  0
  6 99  1  0  0  0
  7  8  2  0  0  0
  7 26  1  0  0  0
  7 29  1  0  0  0
  8  9  1  0  0  0
  8 22  1  0  0  0
  9 10  1  0  0  0
  9 27  2  0  0  0
 10 11  2  0  0  0
 10 15  1  0  0  0
 11 12  1  0  0  0
 11100  1  0  0  0
 12 13  2  0  0  0
 12101  1  0  0  0
 13 14  1  0  0  0
 13 31  1  0  0  0
 14 15  2  0  0  0
 14102  1  0  0  0
 15103  1  0  0  0
 16 17  2  0  0  0
 16 21  1  0  0  0
 16 31  1  0  0  0
 17 18  1  0  0  0
 17104  1  0  0  0
 18 19  2  0  0  0
 18105  1  0  0  0
 19 20  1  0  0  0
 19 24  1  0  0  0
 20 21  2  0  0  0
 20106  1  0  0  0
 21 23  1  0  0  0
 22 28  1  0  0  0
 22 32  2  0  0  0
 26 27  1  0  0  0
 28107  1  0  0  0
 28108  1  0  0  0
 29109  1  0  0  0
 29110  1  0  0  0
 33 34  1  0  0  0
 33 66  1  0  0  0
 33 70  2  0  0  0
 34 36  1  0  0  0
 34 59  1  0  0  0
 34111  1  0  0  0
 35 44  2  0  0  0
 35 45  1  0  0  0
 35 68  1  0  0  0
 36 56  1  0  0  0
 36112  1  0  0  0
 37 39  1  0  0  0
 37 47  1  0  0  0
 37 66  1  0  0  0
 37113  1  0  0  0
 38 43  2  0  0  0
 38 46  1  0  0  0
 38 47  1  0  0  0
 39 64  1  0  0  0
 39 67  2  0  0  0
 40 52  1  0  0  0
 40 53  2  0  0  0
 40 58  1  0  0  0
 41114  1  0  0  0
 41115  1  0  0  0
 41116  1  0  0  0
 41 48  1  0  0  0
 42 43  1  0  0  0
 42 66  1  0  0  0
 42117  1  0  0  0
 42118  1  0  0  0
 43 44  1  0  0  0
 44119  1  0  0  0
 45 46  2  0  0  0
 45120  1  0  0  0
 46121  1  0  0  0
 47122  1  0  0  0
 47123  1  0  0  0
 48 56  1  0  0  0
 48 65  1  0  0  0
 48124  1  0  0  0
 49 50  1  0  0  0
 49 53  1  0  0  0
 49 64  1  0  0  0
 49125  1  0  0  0
 50 51  1  0  0  0
 50126  1  0  0  0
 50127  1  0  0  0
 51 52  1  0  0  0
 51128  1  0  0  0
 51129  1  0  0  0
 52130  1  0  0  0
 52131  1  0  0  0
 53 54  1  0  0  0
 54 55  2  0  0  0
 54132  1  0  0  0
 55 57  1  0  0  0
 55133  1  0  0  0
 56 69  2  0  0  0
 57 58  2  0  0  0
 57134  1  0  0  0
 58135  1  0  0  0
 59 60  1  0  0  0
 59 61  1  0  0  0
 59 62  1  0  0  0
 60136  1  0  0  0
 60137  1  0  0  0
 60138  1  0  0  0
 61139  1  0  0  0
 61140  1  0  0  0
 61141  1  0  0  0
 62142  1  0  0  0
 62143  1  0  0  0
 62144  1  0  0  0
 63 65  1  0  0  0
 63145  1  0  0  0
 63146  1  0  0  0
 63147  1  0  0  0
 64148  1  0  0  0
 65149  1  0  0  0
 68 89  1  0  0  0
 71 73  2  0  0  0
 71 75  1  0  0  0
 71150  1  0  0  0
 72 75  2  0  0  0
 72 76  1  0  0  0
 72151  1  0  0  0
 73 74  1  0  0  0
 73 77  1  0  0  0
 74 76  2  0  0  0
 74 78  1  0  0  0
 75 81  1  0  0  0
 76 82  1  0  0  0
 77 79  1  0  0  0
 77152  1  0  0  0
 77153  1  0  0  0
 78 80  1  0  0  0
 78154  1  0  0  0
 78155  1  0  0  0
 79 80  1  0  0  0
 79156  1  0  0  0
 79157  1  0  0  0
 80158  1  0  0  0
 80159  1  0  0  0
 81 83  1  0  0  0
 81160  1  0  0  0
 81161  1  0  0  0
 82 84  1  0  0  0
 82162  1  0  0  0
 82163  1  0  0  0
 83 89  1  0  0  0
 83164  1  0  0  0
 83165  1  0  0  0
 84 85  1  0  0  0
 84166  1  0  0  0
 84167  1  0  0  0
 85 86  1  0  0  0
 85168  1  0  0  0
 85169  1  0  0  0
 86 87  1  0  0  0
 86170  1  0  0  0
 86171  1  0  0  0
 87 88  1  0  0  0
 87172  1  0  0  0
 87173  1  0  0  0
 88 90  1  0  0  0
 88174  1  0  0  0
 88175  1  0  0  0
 89176  1  0  0  0
 89177  1  0  0  0
 90178  1  0  0  0
M  ISO  4   1 100  68 101  89 101  90 100
M  END
> <chiral flag>
0

> <version>
0

> <s_m_source_file>
/data/baiqing/PycharmProjects/Reinvent-master-3.2/result/LINK_invent/BTK/process_docking_weight1_custom_sum_contain_oxygen_bond_distance_aromatic_linkinvent_7_9_3/rearranged_h_0035.sdf

> <i_m_source_file_index>
68

> <r_mmod_Potential_Energy-OPLS-2005>
7937.50732421875

> <r_mmod_Stretch_Energy-OPLS-2005>
4581.99755859375

> <r_mmod_Bend_Energy-OPLS-2005>
622.912841796875

> <r_mmod_Torsional_Energy-OPLS-2005>
452.029663085938

> <r_mmod_Improper_Torsional_Energy-OPLS-2005>
16.9173927307129

> <r_mmod_Van_der_Waal_Energy-OPLS-2005>
2220.51440429688

> <r_mmod_Electrostatic_Energy-OPLS-2005>
-383.072875976562

> <r_mmod_Solvation_Energy-OPLS-2005>
-193.604690551758

> <b_mmod_Minimization_Converged-OPLS-2005>
0

> <r_mmod_RMS_Derivative-OPLS-2005>
15.7177333831787

$$$$
68
                    3D
 Structure written by MMmdl.
153161  0  0  1  0            999 V2000
  -30.6635  -14.6987   20.4534 C   0  0  0  0  0  0
  -30.4171  -12.4278   19.4656 C   0  0  0  0  0  0
  -29.5008  -12.4909   18.2272 C   0  0  0  0  0  0
  -28.0277  -12.3297   18.6461 C   0  0  0  0  0  0
  -27.6389  -13.2361   19.8462 C   0  0  2  0  0  0
  -28.6864  -13.1906   20.9791 C   0  0  0  0  0  0
  -25.2509  -13.8208   20.5717 C   0  0  0  0  0  0
  -24.1805  -13.0449   20.9215 C   0  0  0  0  0  0
  -24.6397  -11.6927   20.8756 C   0  0  0  0  0  0
  -23.9078  -10.4299   21.0410 C   0  0  0  0  0  0
  -24.3624   -9.4212   21.9187 C   0  0  0  0  0  0
  -23.6299   -8.2249   22.0757 C   0  0  0  0  0  0
  -22.4284   -8.0284   21.3544 C   0  0  0  0  0  0
  -21.9920   -9.0261   20.4649 C   0  0  0  0  0  0
  -22.7249  -10.2139   20.3059 C   0  0  0  0  0  0
  -21.6859   -6.0739   22.5279 C   0  0  0  0  0  0
  -21.4018   -6.5644   23.8210 C   0  0  0  0  0  0
  -21.3657   -5.6794   24.9172 C   0  0  0  0  0  0
  -21.6045   -4.3058   24.7222 C   0  0  0  0  0  0
  -21.8818   -3.8149   23.4344 C   0  0  0  0  0  0
  -21.9195   -4.6968   22.3400 C   0  0  0  0  0  0
  -22.7823  -13.5229   21.1866 C   0  0  0  0  0  0
  -22.1665   -4.2153   21.0979 F   0  0  0  0  0  0
  -21.5625   -3.4540   25.7735 F   0  0  0  0  0  0
  -29.9821  -13.5098   20.3758 N   0  0  0  0  0  0
  -26.2935  -12.9425   20.3296 N   0  0  0  0  0  0
  -25.9330  -11.6561   20.5767 N   0  0  0  0  0  0
  -22.0471  -12.8214   22.0415 N   0  0  0  0  0  0
  -25.4203  -15.1933   20.4140 N   0  0  0  0  0  0
  -31.8685  -14.7190   20.2086 O   0  0  0  0  0  0
  -21.6647   -6.8885   21.4240 O   0  0  0  0  0  0
  -22.3507  -14.5529   20.6710 O   0  0  0  0  0  0
  -24.6303  -31.8573   23.2012 C   0  0  0  0  0  0
  -25.9143  -32.4754   23.8340 C   0  0  1  0  0  0
  -27.2074  -27.2760   20.1211 C   0  0  0  0  0  0
  -25.5944  -33.8556   24.2259 N   0  0  0  0  0  0
  -23.4239  -30.4839   21.5453 C   0  0  2  0  0  0
  -24.8674  -28.9391   20.1079 C   0  0  0  0  0  0
  -22.7491  -29.4624   22.4925 C   0  0  0  0  0  0
  -18.0290  -28.1388   22.8482 C   0  0  0  0  0  0
  -24.1493  -36.7290   23.2638 C   0  0  0  0  0  0
  -25.9705  -30.7744   21.3804 C   0  0  0  0  0  0
  -26.0408  -29.4008   20.7183 C   0  0  0  0  0  0
  -27.2148  -28.5819   20.7150 C   0  0  0  0  0  0
  -26.0118  -26.8889   19.4709 C   0  0  0  0  0  0
  -24.8578  -27.6905   19.4733 C   0  0  0  0  0  0
  -23.6385  -29.8241   20.1593 C   0  0  0  0  0  0
  -25.4118  -36.3067   24.0322 C   0  0  1  0  0  0
  -20.5892  -28.3703   23.1266 C   0  0  2  0  0  0
  -20.6784  -26.9424   22.5404 C   0  0  0  0  0  0
  -19.5758  -26.6387   21.5212 C   0  0  0  0  0  0
  -18.1938  -26.7929   22.1624 C   0  0  0  0  0  0
  -19.1542  -28.8862   23.2870 C   0  0  0  0  0  0
  -18.9465  -30.1463   23.8888 C   0  0  0  0  0  0
  -17.6464  -30.6590   24.0563 C   0  0  0  0  0  0
  -25.9059  -34.9438   23.5092 C   0  0  0  0  0  0
  -16.5356  -29.9087   23.6333 C   0  0  0  0  0  0
  -16.7276  -28.6504   23.0354 C   0  0  0  0  0  0
  -26.4508  -31.6575   25.0725 C   0  0  0  0  0  0
  -25.3725  -31.3734   26.1439 C   0  0  0  0  0  0
  -27.0365  -30.2987   24.6230 C   0  0  0  0  0  0
  -27.6054  -32.4322   25.7506 C   0  0  0  0  0  0
  -27.5579  -37.1801   24.8462 C   0  0  0  0  0  0
  -21.4201  -29.3051   22.3656 N   0  0  0  0  0  0
  -26.4292  -37.3766   23.9402 N   0  0  0  0  0  0
  -24.6939  -31.0558   22.0980 N   0  0  0  0  0  0
  -23.4200  -28.8164   23.3019 O   0  0  0  0  0  0
  -28.2903  -26.3698   20.1930 O   0  0  0  0  0  0
  -26.5630  -34.8916   22.4661 O   0  0  0  0  0  0
  -23.5459  -32.1394   23.7321 O   0  0  0  0  0  0
  -30.7290  -21.1861   21.0549 C   0  0  0  0  0  0
  -31.5643  -20.1135   21.4256 C   0  0  0  0  0  0
  -28.9810  -19.5710   20.5550 C   0  0  0  0  0  0
  -29.4093  -20.9590   20.6191 C   0  0  0  0  0  0
  -29.8220  -18.4455   20.9272 C   0  0  0  0  0  0
  -31.1242  -18.7740   21.3812 C   0  0  0  0  0  0
  -28.4949  -22.2012   20.2448 C   0  0  0  0  0  0
  -29.3294  -16.9309   20.9955 C   0  0  0  0  0  0
  -28.9976  -23.7288   20.4361 C   0  0  0  0  0  0
  -27.9918  -24.9102   20.0167 C   0  0  0  0  0  0
  -29.9847  -15.8598   20.1546 N   0  0  0  0  0  0
  -32.2058  -17.5581   21.9592 Cl  0  0  0  0  0  0
  -31.4611  -12.5258   19.1629 H   0  0  0  0  0  0
  -30.3369  -11.4579   19.9589 H   0  0  0  0  0  0
  -29.7740  -11.7129   17.5132 H   0  0  0  0  0  0
  -29.6369  -13.4432   17.7124 H   0  0  0  0  0  0
  -27.8792  -11.2822   18.9113 H   0  0  0  0  0  0
  -27.3695  -12.5235   17.7985 H   0  0  0  0  0  0
  -27.6296  -14.2557   19.4594 H   0  0  0  0  0  0
  -28.7129  -12.2097   21.4557 H   0  0  0  0  0  0
  -28.4387  -13.9140   21.7580 H   0  0  0  0  0  0
  -25.2768   -9.5692   22.4765 H   0  0  0  0  0  0
  -24.0009   -7.4644   22.7481 H   0  0  0  0  0  0
  -21.0850   -8.8781   19.8957 H   0  0  0  0  0  0
  -22.3705  -10.9680   19.6172 H   0  0  0  0  0  0
  -21.2011   -7.6151   23.9715 H   0  0  0  0  0  0
  -21.1480   -6.0526   25.9075 H   0  0  0  0  0  0
  -22.0599   -2.7614   23.2842 H   0  0  0  0  0  0
  -22.4098  -11.9881   22.4806 H   0  0  0  0  0  0
  -21.1087  -13.1234   22.2619 H   0  0  0  0  0  0
  -24.6532  -15.8479   20.5229 H   0  0  0  0  0  0
  -26.2712  -15.6294   20.0826 H   0  0  0  0  0  0
  -26.7210  -32.5409   23.1083 H   0  0  0  0  0  0
  -25.0073  -33.9691   25.0390 H   0  0  0  0  0  0
  -22.7201  -31.3070   21.4046 H   0  0  0  0  0  0
  -23.3749  -35.9630   23.3297 H   0  0  0  0  0  0
  -24.3582  -36.8919   22.2054 H   0  0  0  0  0  0
  -23.7260  -37.6494   23.6669 H   0  0  0  0  0  0
  -26.1127  -31.5388   20.6150 H   0  0  0  0  0  0
  -26.8462  -30.8159   22.0162 H   0  0  0  0  0  0
  -28.1100  -28.9276   21.2126 H   0  0  0  0  0  0
  -25.9273  -25.9397   18.9646 H   0  0  0  0  0  0
  -23.9611  -27.3324   18.9859 H   0  0  0  0  0  0
  -23.7616  -30.6029   19.4058 H   0  0  0  0  0  0
  -22.7556  -29.2589   19.8542 H   0  0  0  0  0  0
  -25.1304  -36.1911   25.0814 H   0  0  0  0  0  0
  -20.9983  -28.3290   24.1388 H   0  0  0  0  0  0
  -20.5697  -26.2320   23.3611 H   0  0  0  0  0  0
  -21.6655  -26.7463   22.1195 H   0  0  0  0  0  0
  -19.6928  -25.6298   21.1247 H   0  0  0  0  0  0
  -19.6690  -27.3194   20.6739 H   0  0  0  0  0  0
  -17.4208  -26.6668   21.4028 H   0  0  0  0  0  0
  -18.0345  -26.0071   22.9022 H   0  0  0  0  0  0
  -19.7945  -30.7282   24.2251 H   0  0  0  0  0  0
  -17.5022  -31.6268   24.5171 H   0  0  0  0  0  0
  -15.5358  -30.2989   23.7663 H   0  0  0  0  0  0
  -15.8676  -28.0823   22.7073 H   0  0  0  0  0  0
  -24.5897  -30.7090   25.7764 H   0  0  0  0  0  0
  -24.8924  -32.2909   26.4849 H   0  0  0  0  0  0
  -25.8027  -30.8914   27.0227 H   0  0  0  0  0  0
  -26.2961  -29.6720   24.1241 H   0  0  0  0  0  0
  -27.4020  -29.7262   25.4769 H   0  0  0  0  0  0
  -27.8850  -30.4248   23.9501 H   0  0  0  0  0  0
  -27.2645  -33.3619   26.2080 H   0  0  0  0  0  0
  -28.3868  -32.6888   25.0340 H   0  0  0  0  0  0
  -28.0721  -31.8452   26.5429 H   0  0  0  0  0  0
  -28.2592  -38.0101   24.7501 H   0  0  0  0  0  0
  -28.1078  -36.2629   24.6295 H   0  0  0  0  0  0
  -27.2293  -37.1463   25.8864 H   0  0  0  0  0  0
  -20.9386  -29.8761   21.6850 H   0  0  0  0  0  0
  -26.0168  -38.2841   24.1390 H   0  0  0  0  0  0
  -31.1160  -22.1925   21.1262 H   0  0  0  0  0  0
  -32.5643  -20.3246   21.7767 H   0  0  0  0  0  0
  -27.9679  -19.3644   20.2381 H   0  0  0  0  0  0
  -27.5699  -22.0835   20.8105 H   0  0  0  0  0  0
  -28.2083  -22.0730   19.2005 H   0  0  0  0  0  0
  -28.2676  -16.9196   20.7490 H   0  0  0  0  0  0
  -29.3810  -16.6171   22.0395 H   0  0  0  0  0  0
  -29.2662  -23.8720   21.4826 H   0  0  0  0  0  0
  -29.9192  -23.8642   19.8704 H   0  0  0  0  0  0
  -27.0640  -24.7002   20.5511 H   0  0  0  0  0  0
  -27.7750  -24.7586   18.9585 H   0  0  0  0  0  0
  -30.4960  -16.3199   19.4167 H   0  0  0  0  0  0
  1 25  1  0  0  0
  1 30  2  0  0  0
  1 81  1  0  0  0
  2  3  1  0  0  0
  2 25  1  0  0  0
  2 83  1  0  0  0
  2 84  1  0  0  0
  3  4  1  0  0  0
  3 85  1  0  0  0
  3 86  1  0  0  0
  4  5  1  0  0  0
  4 87  1  0  0  0
  4 88  1  0  0  0
  5  6  1  0  0  0
  5 26  1  0  0  0
  5 89  1  0  0  0
  6 25  1  0  0  0
  6 90  1  0  0  0
  6 91  1  0  0  0
  7  8  2  0  0  0
  7 26  1  0  0  0
  7 29  1  0  0  0
  8  9  1  0  0  0
  8 22  1  0  0  0
  9 10  1  0  0  0
  9 27  2  0  0  0
 10 11  2  0  0  0
 10 15  1  0  0  0
 11 12  1  0  0  0
 11 92  1  0  0  0
 12 13  2  0  0  0
 12 93  1  0  0  0
 13 14  1  0  0  0
 13 31  1  0  0  0
 14 15  2  0  0  0
 14 94  1  0  0  0
 15 95  1  0  0  0
 16 17  2  0  0  0
 16 21  1  0  0  0
 16 31  1  0  0  0
 17 18  1  0  0  0
 17 96  1  0  0  0
 18 19  2  0  0  0
 18 97  1  0  0  0
 19 20  1  0  0  0
 19 24  1  0  0  0
 20 21  2  0  0  0
 20 98  1  0  0  0
 21 23  1  0  0  0
 22 28  1  0  0  0
 22 32  2  0  0  0
 26 27  1  0  0  0
 28 99  1  0  0  0
 28100  1  0  0  0
 29101  1  0  0  0
 29102  1  0  0  0
 33 34  1  0  0  0
 33 66  1  0  0  0
 33 70  2  0  0  0
 34 36  1  0  0  0
 34 59  1  0  0  0
 34103  1  0  0  0
 35 44  2  0  0  0
 35 45  1  0  0  0
 35 68  1  0  0  0
 36 56  1  0  0  0
 36104  1  0  0  0
 37 39  1  0  0  0
 37 47  1  0  0  0
 37 66  1  0  0  0
 37105  1  0  0  0
 38 43  2  0  0  0
 38 46  1  0  0  0
 38 47  1  0  0  0
 39 64  1  0  0  0
 39 67  2  0  0  0
 40 52  1  0  0  0
 40 53  2  0  0  0
 40 58  1  0  0  0
 41106  1  0  0  0
 41107  1  0  0  0
 41108  1  0  0  0
 41 48  1  0  0  0
 42 43  1  0  0  0
 42 66  1  0  0  0
 42109  1  0  0  0
 42110  1  0  0  0
 43 44  1  0  0  0
 44111  1  0  0  0
 45 46  2  0  0  0
 45112  1  0  0  0
 46113  1  0  0  0
 47114  1  0  0  0
 47115  1  0  0  0
 48 56  1  0  0  0
 48 65  1  0  0  0
 48116  1  0  0  0
 49 50  1  0  0  0
 49 53  1  0  0  0
 49 64  1  0  0  0
 49117  1  0  0  0
 50 51  1  0  0  0
 50118  1  0  0  0
 50119  1  0  0  0
 51 52  1  0  0  0
 51120  1  0  0  0
 51121  1  0  0  0
 52122  1  0  0  0
 52123  1  0  0  0
 53 54  1  0  0  0
 54 55  2  0  0  0
 54124  1  0  0  0
 55 57  1  0  0  0
 55125  1  0  0  0
 56 69  2  0  0  0
 57 58  2  0  0  0
 57126  1  0  0  0
 58127  1  0  0  0
 59 60  1  0  0  0
 59 61  1  0  0  0
 59 62  1  0  0  0
 60128  1  0  0  0
 60129  1  0  0  0
 60130  1  0  0  0
 61131  1  0  0  0
 61132  1  0  0  0
 61133  1  0  0  0
 62134  1  0  0  0
 62135  1  0  0  0
 62136  1  0  0  0
 63 65  1  0  0  0
 63137  1  0  0  0
 63138  1  0  0  0
 63139  1  0  0  0
 64140  1  0  0  0
 65141  1  0  0  0
 68 80  1  0  0  0
 71 72  2  0  0  0
 71 74  1  0  0  0
 71142  1  0  0  0
 72 76  1  0  0  0
 72143  1  0  0  0
 73 74  2  0  0  0
 73 75  1  0  0  0
 73144  1  0  0  0
 74 77  1  0  0  0
 75 76  2  0  0  0
 75 78  1  0  0  0
 76 82  1  0  0  0
 77 79  1  0  0  0
 77145  1  0  0  0
 77146  1  0  0  0
 78 81  1  0  0  0
 78147  1  0  0  0
 78148  1  0  0  0
 79 80  1  0  0  0
 79149  1  0  0  0
 79150  1  0  0  0
 80151  1  0  0  0
 80152  1  0  0  0
 81153  1  0  0  0
M  ISO  4   1 100  68 101  80 101  81 100
M  END
> <chiral flag>
0

> <version>
0

> <s_m_source_file>
/data/baiqing/PycharmProjects/Reinvent-master-3.2/result/LINK_invent/BTK/process_docking_weight1_custom_sum_contain_oxygen_bond_distance_aromatic_linkinvent_7_9_3/rearranged_h_0035.sdf

> <i_m_source_file_index>
69

> <r_mmod_Potential_Energy-OPLS-2005>
184.358581542969

> <r_mmod_Stretch_Energy-OPLS-2005>
106.321136474609

> <r_mmod_Bend_Energy-OPLS-2005>
167.580688476562

> <r_mmod_Torsional_Energy-OPLS-2005>
264.765563964844

> <r_mmod_Improper_Torsional_Energy-OPLS-2005>
27.8267097473145

> <r_mmod_Van_der_Waal_Energy-OPLS-2005>
136.178176879883

> <r_mmod_Electrostatic_Energy-OPLS-2005>
-392.558990478516

> <r_mmod_Solvation_Energy-OPLS-2005>
-205.01904296875

> <b_mmod_Minimization_Converged-OPLS-2005>
0

> <r_mmod_RMS_Derivative-OPLS-2005>
0.773998916149139

$$$$
69
                    3D
 Structure written by MMmdl.
162170  0  0  1  0            999 V2000
  -28.9685  -18.2670   20.5360 C   0  0  0  0  0  0
  -29.8701  -15.1123   19.6627 C   0  0  0  0  0  0
  -29.5046  -13.7960   18.6700 C   0  0  0  0  0  0
  -28.4111  -12.8485   19.1589 C   0  0  0  0  0  0
  -27.5277  -13.8028   19.9523 C   0  0  2  0  0  0
  -28.2049  -14.9923   20.9249 C   0  0  0  0  0  0
  -25.1459  -13.9234   20.6116 C   0  0  0  0  0  0
  -24.1424  -13.0668   20.9361 C   0  0  0  0  0  0
  -24.6877  -11.7445   20.8713 C   0  0  0  0  0  0
  -23.9697  -10.4500   21.0198 C   0  0  0  0  0  0
  -24.4009   -9.4385   21.9094 C   0  0  0  0  0  0
  -23.6537   -8.2467   22.0767 C   0  0  0  0  0  0
  -22.4516   -8.0481   21.3551 C   0  0  0  0  0  0
  -22.0264   -9.0479   20.4618 C   0  0  0  0  0  0
  -22.7767  -10.2278   20.2938 C   0  0  0  0  0  0
  -21.6970   -6.0867   22.5261 C   0  0  0  0  0  0
  -21.4109   -6.5722   23.8209 C   0  0  0  0  0  0
  -21.3681   -5.6845   24.9150 C   0  0  0  0  0  0
  -21.6036   -4.3105   24.7180 C   0  0  0  0  0  0
  -21.8815   -3.8222   23.4292 C   0  0  0  0  0  0
  -21.9219   -4.7069   22.3367 C   0  0  0  0  0  0
  -22.7284  -13.4902   21.1899 C   0  0  0  0  0  0
  -22.1676   -4.2247   21.0946 F   0  0  0  0  0  0
  -21.5591   -3.4572   25.7679 F   0  0  0  0  0  0
  -28.8441  -16.4062   20.2987 N   0  0  0  0  0  0
  -26.2734  -13.1741   20.4205 N   0  0  0  0  0  0
  -26.0067  -11.8244   20.5830 N   0  0  0  0  0  0
  -22.0167  -12.7748   22.0497 N   0  0  0  0  0  0
  -25.1945  -15.3028   20.4295 N   0  0  0  0  0  0
  -30.2311  -17.8220   20.4455 O   0  0  0  0  0  0
  -21.6814   -6.9087   21.4256 O   0  0  0  0  0  0
  -22.2710  -14.5110   20.6758 O   0  0  0  0  0  0
  -24.9214  -31.8483   23.0933 C   0  0  0  0  0  0
  -26.0946  -32.4691   23.8809 C   0  0  1  0  0  0
  -27.7937  -25.5605   19.3976 C   0  0  0  0  0  0
  -25.6634  -33.8498   24.1845 N   0  0  0  0  0  0
  -23.9345  -29.8029   20.6708 C   0  0  2  0  0  0
  -25.4683  -27.7263   19.9812 C   0  0  0  0  0  0
  -22.8591  -27.7262   22.0999 C   0  0  0  0  0  0
  -17.9932  -28.1007   22.7938 C   0  0  0  0  0  0
  -24.1450  -36.7117   23.2480 C   0  0  0  0  0  0
  -26.9440  -29.8891   22.5539 C   0  0  0  0  0  0
  -27.2331  -28.0270   21.4972 C   0  0  0  0  0  0
  -28.5041  -26.7061   21.0074 C   0  0  0  0  0  0
  -26.5860  -25.9702   18.3869 C   0  0  0  0  0  0
  -25.5207  -27.0934   18.5942 C   0  0  0  0  0  0
  -24.3408  -28.9020   19.4624 C   0  0  0  0  0  0
  -25.4098  -36.2873   24.0074 C   0  0  1  0  0  0
  -20.4814  -27.7768   23.4133 C   0  0  2  0  0  0
  -20.2246  -26.3670   22.9341 C   0  0  0  0  0  0
  -19.4065  -26.3465   21.6393 C   0  0  0  0  0  0
  -18.0094  -26.7912   22.0295 C   0  0  0  0  0  0
  -19.1799  -28.6645   23.3397 C   0  0  0  0  0  0
  -19.0658  -29.9500   23.9424 C   0  0  0  0  0  0
  -17.8068  -30.5940   24.0633 C   0  0  0  0  0  0
  -25.9403  -34.9424   23.4692 C   0  0  0  0  0  0
  -16.6379  -29.9636   23.5977 C   0  0  0  0  0  0
  -16.7406  -28.7204   22.9584 C   0  0  0  0  0  0
  -26.4940  -31.7796   25.2602 C   0  0  0  0  0  0
  -25.3012  -31.5404   26.2062 C   0  0  0  0  0  0
  -27.2229  -30.4322   25.2894 C   0  0  0  0  0  0
  -27.5557  -32.6909   25.9105 C   0  0  0  0  0  0
  -27.5503  -37.1638   24.8372 C   0  0  0  0  0  0
  -21.4847  -27.9797   22.4533 N   0  0  0  0  0  0
  -26.4104  -37.3727   23.9488 N   0  0  0  0  0  0
  -25.2079  -30.8804   22.1271 N   0  0  0  0  0  0
  -23.1938  -27.5030   23.2872 O   0  0  0  0  0  0
  -26.2076  -25.0118   19.1601 O   0  0  0  0  0  0
  -26.6162  -34.9106   22.4390 O   0  0  0  0  0  0
  -23.7995  -32.2867   23.4307 O   0  0  0  0  0  0
  -26.2690  -29.7956   20.4291 C   0  0  0  0  0  0
  -25.4060  -26.7725   22.1887 C   0  0  0  0  0  0
  -25.0939  -28.6087   22.0840 C   0  0  0  0  0  0
  -27.3031  -29.3344   19.4115 C   0  0  0  0  0  0
  -26.4687  -25.8534   21.1169 C   0  0  0  0  0  0
  -27.6161  -27.8196   19.3473 C   0  0  0  0  0  0
  -28.0341  -30.4128   18.5936 C   0  0  0  0  0  0
  -28.8613  -27.7259   18.3408 C   0  0  0  0  0  0
  -22.9458  -29.9322   22.5454 C   0  0  0  0  0  0
  -27.1814  -22.9839   21.0321 C   0  0  0  0  0  0
  -21.8768  -28.9185   20.3381 C   0  0  0  0  0  0
  -22.7240  -26.9154   19.6639 C   0  0  0  0  0  0
  -24.2864  -25.4084   19.7104 C   0  0  0  0  0  0
  -28.2234  -20.3986   20.7217 N   0  0  0  0  0  0
  -30.5794  -15.6737   19.0543 H   0  0  0  0  0  0
  -30.5391  -14.7671   20.4577 H   0  0  0  0  0  0
  -30.4101  -13.2291   18.4525 H   0  0  0  0  0  0
  -29.1866  -14.2075   17.7112 H   0  0  0  0  0  0
  -28.8211  -12.0817   19.8155 H   0  0  0  0  0  0
  -27.8850  -12.3588   18.3385 H   0  0  0  0  0  0
  -27.1614  -14.4167   19.1256 H   0  0  0  0  0  0
  -28.8483  -14.5306   21.6816 H   0  0  0  0  0  0
  -27.4199  -15.3737   21.5757 H   0  0  0  0  0  0
  -25.3091   -9.5854   22.4778 H   0  0  0  0  0  0
  -24.0186   -7.4908   22.7572 H   0  0  0  0  0  0
  -21.1184   -8.9070   19.8928 H   0  0  0  0  0  0
  -22.4214  -10.9802   19.6043 H   0  0  0  0  0  0
  -21.2175   -7.6238   23.9739 H   0  0  0  0  0  0
  -21.1480   -6.0570   25.9051 H   0  0  0  0  0  0
  -22.0555   -2.7685   23.2756 H   0  0  0  0  0  0
  -22.3965  -11.9500   22.4921 H   0  0  0  0  0  0
  -21.0739  -13.0564   22.2744 H   0  0  0  0  0  0
  -24.3772  -15.9021   20.5002 H   0  0  0  0  0  0
  -26.0314  -15.7931   20.1402 H   0  0  0  0  0  0
  -26.9836  -32.5136   23.2525 H   0  0  0  0  0  0
  -25.0011  -33.9361   24.9399 H   0  0  0  0  0  0
  -23.3946  -30.6670   20.2586 H   0  0  0  0  0  0
  -23.3872  -35.9250   23.2762 H   0  0  0  0  0  0
  -24.3642  -36.9219   22.1989 H   0  0  0  0  0  0
  -23.7045  -37.6051   23.6928 H   0  0  0  0  0  0
  -27.8286  -30.5210   22.4728 H   0  0  0  0  0  0
  -26.9333  -29.2683   23.4134 H   0  0  0  0  0  0
  -29.5107  -26.6748   21.4038 H   0  0  0  0  0  0
  -26.7195  -25.7068   17.3261 H   0  0  0  0  0  0
  -24.8676  -27.3016   17.7595 H   0  0  0  0  0  0
  -24.7939  -29.5494   18.6968 H   0  0  0  0  0  0
  -23.6242  -28.6862   18.6774 H   0  0  0  0  0  0
  -25.1265  -36.1442   25.0521 H   0  0  0  0  0  0
  -20.9021  -27.7895   24.4168 H   0  0  0  0  0  0
  -19.6375  -25.8707   23.7107 H   0  0  0  0  0  0
  -21.1116  -25.7326   22.8680 H   0  0  0  0  0  0
  -19.3778  -25.3407   21.2200 H   0  0  0  0  0  0
  -19.8043  -26.9821   20.8517 H   0  0  0  0  0  0
  -17.4043  -26.8950   21.1283 H   0  0  0  0  0  0
  -17.5290  -26.0264   22.6420 H   0  0  0  0  0  0
  -19.9413  -30.4153   24.3762 H   0  0  0  0  0  0
  -17.7386  -31.5572   24.5540 H   0  0  0  0  0  0
  -15.6748  -30.4423   23.7051 H   0  0  0  0  0  0
  -15.8524  -28.2487   22.5575 H   0  0  0  0  0  0
  -24.6248  -30.7735   25.8292 H   0  0  0  0  0  0
  -24.7193  -32.4469   26.3673 H   0  0  0  0  0  0
  -25.6461  -31.2078   27.1881 H   0  0  0  0  0  0
  -26.5456  -29.5778   25.2503 H   0  0  0  0  0  0
  -27.6419  -30.2537   26.2803 H   0  0  0  0  0  0
  -28.1223  -30.3786   24.6741 H   0  0  0  0  0  0
  -27.1736  -33.6883   26.1320 H   0  0  0  0  0  0
  -28.4198  -32.8203   25.2578 H   0  0  0  0  0  0
  -27.9289  -32.3207   26.8667 H   0  0  0  0  0  0
  -28.2202  -38.0238   24.7924 H   0  0  0  0  0  0
  -28.1344  -36.2846   24.5595 H   0  0  0  0  0  0
  -27.2332  -37.0440   25.8746 H   0  0  0  0  0  0
  -21.1082  -28.5953   21.7453 H   0  0  0  0  0  0
  -25.9847  -38.2664   24.1771 H   0  0  0  0  0  0
  -26.0818  -30.8229   20.1149 H   0  0  0  0  0  0
  -24.9226  -26.1418   22.9161 H   0  0  0  0  0  0
  -27.5213  -31.3755   18.6004 H   0  0  0  0  0  0
  -28.2082  -30.1520   17.5487 H   0  0  0  0  0  0
  -29.0117  -30.5884   19.0445 H   0  0  0  0  0  0
  -29.6520  -28.4066   18.6523 H   0  0  0  0  0  0
  -28.5734  -27.9722   17.3170 H   0  0  0  0  0  0
  -29.4044  -26.7868   18.2551 H   0  0  0  0  0  0
  -22.6192  -30.9307   22.2457 H   0  0  0  0  0  0
  -22.5264  -29.8443   23.5563 H   0  0  0  0  0  0
  -26.1653  -22.6773   20.7882 H   0  0  0  0  0  0
  -27.2402  -22.9348   22.1173 H   0  0  0  0  0  0
  -21.9000  -29.5874   19.4654 H   0  0  0  0  0  0
  -20.7806  -28.8980   20.3655 H   0  0  0  0  0  0
  -22.4272  -26.8675   18.6150 H   0  0  0  0  0  0
  -21.9620  -26.2619   20.0869 H   0  0  0  0  0  0
  -23.8527  -24.7224   18.9830 H   0  0  0  0  0  0
  -24.1260  -24.8396   20.6289 H   0  0  0  0  0  0
  -29.1799  -20.7293   20.7089 H   0  0  0  0  0  0
  1 25  1  0  0  0
  1 30  2  0  0  0
  1 84  1  0  0  0
  2  3  1  0  0  0
  2 25  1  0  0  0
  2 85  1  0  0  0
  2 86  1  0  0  0
  3  4  1  0  0  0
  3 87  1  0  0  0
  3 88  1  0  0  0
  4  5  1  0  0  0
  4 89  1  0  0  0
  4 90  1  0  0  0
  5  6  1  0  0  0
  5 26  1  0  0  0
  5 91  1  0  0  0
  6 25  1  0  0  0
  6 92  1  0  0  0
  6 93  1  0  0  0
  7  8  2  0  0  0
  7 26  1  0  0  0
  7 29  1  0  0  0
  8  9  1  0  0  0
  8 22  1  0  0  0
  9 10  1  0  0  0
  9 27  2  0  0  0
 10 11  2  0  0  0
 10 15  1  0  0  0
 11 12  1  0  0  0
 11 94  1  0  0  0
 12 13  2  0  0  0
 12 95  1  0  0  0
 13 14  1  0  0  0
 13 31  1  0  0  0
 14 15  2  0  0  0
 14 96  1  0  0  0
 15 97  1  0  0  0
 16 17  2  0  0  0
 16 21  1  0  0  0
 16 31  1  0  0  0
 17 18  1  0  0  0
 17 98  1  0  0  0
 18 19  2  0  0  0
 18 99  1  0  0  0
 19 20  1  0  0  0
 19 24  1  0  0  0
 20 21  2  0  0  0
 20100  1  0  0  0
 21 23  1  0  0  0
 22 28  1  0  0  0
 22 32  2  0  0  0
 26 27  1  0  0  0
 28101  1  0  0  0
 28102  1  0  0  0
 29103  1  0  0  0
 29104  1  0  0  0
 33 34  1  0  0  0
 33 66  1  0  0  0
 33 70  2  0  0  0
 34 36  1  0  0  0
 34 59  1  0  0  0
 34105  1  0  0  0
 35 44  2  0  0  0
 35 45  1  0  0  0
 35 68  1  0  0  0
 36 56  1  0  0  0
 36106  1  0  0  0
 37 39  1  0  0  0
 37 47  1  0  0  0
 37 66  1  0  0  0
 37107  1  0  0  0
 38 43  2  0  0  0
 38 46  1  0  0  0
 38 47  1  0  0  0
 39 64  1  0  0  0
 39 67  2  0  0  0
 40 52  1  0  0  0
 40 53  2  0  0  0
 40 58  1  0  0  0
 41108  1  0  0  0
 41109  1  0  0  0
 41110  1  0  0  0
 41 48  1  0  0  0
 42 43  1  0  0  0
 42 66  1  0  0  0
 42111  1  0  0  0
 42112  1  0  0  0
 43 44  1  0  0  0
 44113  1  0  0  0
 45 46  2  0  0  0
 45114  1  0  0  0
 46115  1  0  0  0
 47116  1  0  0  0
 47117  1  0  0  0
 48 56  1  0  0  0
 48 65  1  0  0  0
 48118  1  0  0  0
 49 50  1  0  0  0
 49 53  1  0  0  0
 49 64  1  0  0  0
 49119  1  0  0  0
 50 51  1  0  0  0
 50120  1  0  0  0
 50121  1  0  0  0
 51 52  1  0  0  0
 51122  1  0  0  0
 51123  1  0  0  0
 52124  1  0  0  0
 52125  1  0  0  0
 53 54  1  0  0  0
 54 55  2  0  0  0
 54126  1  0  0  0
 55 57  1  0  0  0
 55127  1  0  0  0
 56 69  2  0  0  0
 57 58  2  0  0  0
 57128  1  0  0  0
 58129  1  0  0  0
 59 60  1  0  0  0
 59 61  1  0  0  0
 59 62  1  0  0  0
 60130  1  0  0  0
 60131  1  0  0  0
 60132  1  0  0  0
 61133  1  0  0  0
 61134  1  0  0  0
 61135  1  0  0  0
 62136  1  0  0  0
 62137  1  0  0  0
 62138  1  0  0  0
 63 65  1  0  0  0
 63139  1  0  0  0
 63140  1  0  0  0
 63141  1  0  0  0
 64142  1  0  0  0
 65143  1  0  0  0
 68 83  1  0  0  0
 71 73  2  0  0  0
 71 74  1  0  0  0
 71144  1  0  0  0
 72 73  1  0  0  0
 72 75  2  0  0  0
 72145  1  0  0  0
 73 79  1  0  0  0
 74 76  2  0  0  0
 74 77  1  0  0  0
 75 76  1  0  0  0
 75 80  1  0  0  0
 76 78  1  0  0  0
 77146  1  0  0  0
 77147  1  0  0  0
 77148  1  0  0  0
 78149  1  0  0  0
 78150  1  0  0  0
 78151  1  0  0  0
 79 81  1  0  0  0
 79152  1  0  0  0
 79153  1  0  0  0
 80 84  1  0  0  0
 80154  1  0  0  0
 80155  1  0  0  0
 81 82  1  0  0  0
 81156  1  0  0  0
 81157  1  0  0  0
 82 83  1  0  0  0
 82158  1  0  0  0
 82159  1  0  0  0
 83160  1  0  0  0
 83161  1  0  0  0
 84162  1  0  0  0
M  ISO  4   1 100  68 101  83 101  84 100
M  END
> <chiral flag>
0

> <version>
0

> <s_m_source_file>
/data/baiqing/PycharmProjects/Reinvent-master-3.2/result/LINK_invent/BTK/process_docking_weight1_custom_sum_contain_oxygen_bond_distance_aromatic_linkinvent_7_9_3/rearranged_h_0035.sdf

> <i_m_source_file_index>
70

> <r_mmod_Potential_Energy-OPLS-2005>
48853.015625

> <r_mmod_Stretch_Energy-OPLS-2005>
27008.818359375

> <r_mmod_Bend_Energy-OPLS-2005>
3119.08666992188

> <r_mmod_Torsional_Energy-OPLS-2005>
482.776733398438

> <r_mmod_Improper_Torsional_Energy-OPLS-2005>
125.298355102539

> <r_mmod_Van_der_Waal_Energy-OPLS-2005>
8201.5595703125

> <r_mmod_Electrostatic_Energy-OPLS-2005>
-368.891967773438

> <r_mmod_Solvation_Energy-OPLS-2005>
-225.464874267578

> <b_mmod_Minimization_Converged-OPLS-2005>
0

> <r_mmod_RMS_Derivative-OPLS-2005>
13.0576505661011

$$$$
70
                    3D
 Structure written by MMmdl.
167175  0  0  1  0            999 V2000
  -30.7461  -14.3575   20.6740 C   0  0  0  0  0  0
  -30.4167  -12.2867   19.3745 C   0  0  0  0  0  0
  -29.4794  -12.5478   18.1798 C   0  0  0  0  0  0
  -28.0019  -12.4074   18.5977 C   0  0  0  0  0  0
  -27.6694  -13.2011   19.8895 C   0  0  2  0  0  0
  -28.7103  -12.9042   20.9900 C   0  0  0  0  0  0
  -25.2621  -13.8147   20.5655 C   0  0  0  0  0  0
  -24.1870  -13.0440   20.9148 C   0  0  0  0  0  0
  -24.6417  -11.6905   20.8735 C   0  0  0  0  0  0
  -23.9097  -10.4285   21.0402 C   0  0  0  0  0  0
  -24.3643   -9.4185   21.9169 C   0  0  0  0  0  0
  -23.6301   -8.2241   22.0744 C   0  0  0  0  0  0
  -22.4276   -8.0295   21.3550 C   0  0  0  0  0  0
  -21.9930   -9.0273   20.4651 C   0  0  0  0  0  0
  -22.7274  -10.2135   20.3052 C   0  0  0  0  0  0
  -21.6848   -6.0747   22.5279 C   0  0  0  0  0  0
  -21.4019   -6.5650   23.8214 C   0  0  0  0  0  0
  -21.3661   -5.6803   24.9169 C   0  0  0  0  0  0
  -21.6027   -4.3067   24.7223 C   0  0  0  0  0  0
  -21.8821   -3.8160   23.4345 C   0  0  0  0  0  0
  -21.9191   -4.6978   22.3395 C   0  0  0  0  0  0
  -22.7892  -13.5228   21.1840 C   0  0  0  0  0  0
  -22.1659   -4.2159   21.0976 F   0  0  0  0  0  0
  -21.5617   -3.4548   25.7732 F   0  0  0  0  0  0
  -30.0507  -13.2152   20.4507 N   0  0  0  0  0  0
  -26.3073  -12.9321   20.3434 N   0  0  0  0  0  0
  -25.9347  -11.6478   20.5785 N   0  0  0  0  0  0
  -22.0573  -12.8207   22.0406 N   0  0  0  0  0  0
  -25.4359  -15.1853   20.4041 N   0  0  0  0  0  0
  -31.7909  -14.6613   20.0869 O   0  0  0  0  0  0
  -21.6648   -6.8887   21.4237 O   0  0  0  0  0  0
  -22.3556  -14.5538   20.6697 O   0  0  0  0  0  0
  -24.6140  -31.8700   23.2118 C   0  0  0  0  0  0
  -25.9058  -32.4808   23.8417 C   0  0  1  0  0  0
  -27.2249  -27.4551   20.0733 C   0  0  0  0  0  0
  -25.5943  -33.8609   24.2341 N   0  0  0  0  0  0
  -23.3989  -30.4995   21.5553 C   0  0  2  0  0  0
  -24.8380  -28.9664   20.1246 C   0  0  0  0  0  0
  -22.7391  -29.4712   22.5019 C   0  0  0  0  0  0
  -18.0254  -28.1371   22.8484 C   0  0  0  0  0  0
  -24.1496  -36.7306   23.2638 C   0  0  0  0  0  0
  -25.9290  -30.8416   21.3601 C   0  0  0  0  0  0
  -26.0026  -29.4757   20.7126 C   0  0  0  0  0  0
  -27.1998  -28.7262   20.6878 C   0  0  0  0  0  0
  -26.0499  -26.9728   19.4617 C   0  0  0  0  0  0
  -24.8534  -27.7087   19.5037 C   0  0  0  0  0  0
  -23.6028  -29.8346   20.1702 C   0  0  0  0  0  0
  -25.4113  -36.3094   24.0333 C   0  0  1  0  0  0
  -20.5843  -28.3687   23.1309 C   0  0  2  0  0  0
  -20.6775  -26.9423   22.5429 C   0  0  0  0  0  0
  -19.5771  -26.6372   21.5228 C   0  0  0  0  0  0
  -18.1940  -26.7910   22.1631 C   0  0  0  0  0  0
  -19.1494  -28.8851   23.2900 C   0  0  0  0  0  0
  -18.9405  -30.1447   23.8915 C   0  0  0  0  0  0
  -17.6399  -30.6581   24.0557 C   0  0  0  0  0  0
  -25.9056  -34.9457   23.5118 C   0  0  0  0  0  0
  -16.5299  -29.9077   23.6310 C   0  0  0  0  0  0
  -16.7230  -28.6499   23.0319 C   0  0  0  0  0  0
  -26.4491  -31.6574   25.0733 C   0  0  0  0  0  0
  -25.3781  -31.3684   26.1505 C   0  0  0  0  0  0
  -27.0316  -30.3026   24.6066 C   0  0  0  0  0  0
  -27.6078  -32.4285   25.7501 C   0  0  0  0  0  0
  -27.5574  -37.1807   24.8471 C   0  0  0  0  0  0
  -21.4130  -29.3033   22.3703 N   0  0  0  0  0  0
  -26.4285  -37.3782   23.9422 N   0  0  0  0  0  0
  -24.6664  -31.0842   22.1001 N   0  0  0  0  0  0
  -23.4164  -28.8260   23.3081 O   0  0  0  0  0  0
  -28.3880  -26.7210   20.0434 O   0  0  0  0  0  0
  -26.5605  -34.8919   22.4677 O   0  0  0  0  0  0
  -23.5342  -32.1424   23.7562 O   0  0  0  0  0  0
  -26.5545  -21.1403   20.5830 C   0  0  0  0  0  0
  -26.5029  -22.8928   22.2455 C   0  0  0  0  0  0
  -26.5769  -22.5158   20.8918 C   0  0  0  0  0  0
  -26.4608  -20.2048   21.6292 C   0  0  0  0  0  0
  -26.4019  -20.6885   22.9567 C   0  0  0  0  0  0
  -26.5922  -23.5635   19.7886 C   0  0  0  0  0  0
  -26.2858  -19.7684   24.1657 C   0  0  0  0  0  0
  -27.9466  -24.2856   19.5682 C   0  0  0  0  0  0
  -27.5740  -19.6802   25.0142 C   0  0  0  0  0  0
  -28.4259  -18.4283   24.7471 C   0  0  0  0  0  0
  -29.2673  -18.4859   23.4552 C   0  0  0  0  0  0
  -29.4727  -17.0428   22.8962 C   0  0  0  0  0  0
  -30.6397  -16.4592   22.0379 C   0  0  0  0  0  0
  -28.3063  -25.3966   20.5894 C   0  0  0  0  0  0
  -26.4162  -22.0074   23.2554 N   0  0  0  0  0  0
  -30.1906  -15.1523   21.5899 N   0  0  0  0  0  0
  -26.4362  -18.5175   21.2510 Cl  0  0  0  0  0  0
  -31.4554  -12.4062   19.0636 H   0  0  0  0  0  0
  -30.3214  -11.2554   19.7184 H   0  0  0  0  0  0
  -29.7036  -11.8590   17.3645 H   0  0  0  0  0  0
  -29.6531  -13.5502   17.7854 H   0  0  0  0  0  0
  -27.7870  -11.3487   18.7407 H   0  0  0  0  0  0
  -27.3552  -12.7447   17.7855 H   0  0  0  0  0  0
  -27.7372  -14.2619   19.6502 H   0  0  0  0  0  0
  -28.6746  -11.8511   21.2716 H   0  0  0  0  0  0
  -28.4610  -13.4388   21.9064 H   0  0  0  0  0  0
  -25.2803   -9.5635   22.4730 H   0  0  0  0  0  0
  -24.0010   -7.4615   22.7456 H   0  0  0  0  0  0
  -21.0862   -8.8812   19.8952 H   0  0  0  0  0  0
  -22.3759  -10.9684   19.6167 H   0  0  0  0  0  0
  -21.2029   -7.6166   23.9708 H   0  0  0  0  0  0
  -21.1474   -6.0543   25.9065 H   0  0  0  0  0  0
  -22.0599   -2.7630   23.2844 H   0  0  0  0  0  0
  -22.4255  -11.9879   22.4774 H   0  0  0  0  0  0
  -21.1182  -13.1181   22.2639 H   0  0  0  0  0  0
  -24.6847  -15.8515   20.5393 H   0  0  0  0  0  0
  -26.3109  -15.6302   20.1562 H   0  0  0  0  0  0
  -26.7158  -32.5533   23.1223 H   0  0  0  0  0  0
  -25.0128  -33.9753   25.0502 H   0  0  0  0  0  0
  -22.6863  -31.3152   21.4207 H   0  0  0  0  0  0
  -23.3727  -35.9668   23.3305 H   0  0  0  0  0  0
  -24.3598  -36.8906   22.2052 H   0  0  0  0  0  0
  -23.7267  -37.6522   23.6642 H   0  0  0  0  0  0
  -26.0369  -31.5987   20.5802 H   0  0  0  0  0  0
  -26.8195  -30.8973   21.9758 H   0  0  0  0  0  0
  -28.1024  -29.1140   21.1386 H   0  0  0  0  0  0
  -26.0522  -26.0524   18.9050 H   0  0  0  0  0  0
  -23.9621  -27.3155   19.0360 H   0  0  0  0  0  0
  -23.7232  -30.6110   19.4137 H   0  0  0  0  0  0
  -22.7225  -29.2641   19.8667 H   0  0  0  0  0  0
  -25.1277  -36.1948   25.0815 H   0  0  0  0  0  0
  -20.9915  -28.3268   24.1435 H   0  0  0  0  0  0
  -20.5685  -26.2313   23.3635 H   0  0  0  0  0  0
  -21.6650  -26.7491   22.1221 H   0  0  0  0  0  0
  -19.6930  -25.6282   21.1277 H   0  0  0  0  0  0
  -19.6708  -27.3159   20.6749 H   0  0  0  0  0  0
  -17.4197  -26.6592   21.4045 H   0  0  0  0  0  0
  -18.0378  -26.0079   22.9081 H   0  0  0  0  0  0
  -19.7868  -30.7269   24.2284 H   0  0  0  0  0  0
  -17.4928  -31.6244   24.5168 H   0  0  0  0  0  0
  -15.5292  -30.2966   23.7627 H   0  0  0  0  0  0
  -15.8633  -28.0830   22.7001 H   0  0  0  0  0  0
  -24.5960  -30.7010   25.7867 H   0  0  0  0  0  0
  -24.8984  -32.2846   26.4966 H   0  0  0  0  0  0
  -25.8167  -30.8869   27.0262 H   0  0  0  0  0  0
  -26.2844  -29.6814   24.1124 H   0  0  0  0  0  0
  -27.4113  -29.7225   25.4490 H   0  0  0  0  0  0
  -27.8668  -30.4352   23.9187 H   0  0  0  0  0  0
  -27.2691  -33.3576   26.2118 H   0  0  0  0  0  0
  -28.3885  -32.6864   25.0321 H   0  0  0  0  0  0
  -28.0765  -31.8392   26.5399 H   0  0  0  0  0  0
  -28.2596  -38.0099   24.7497 H   0  0  0  0  0  0
  -28.1062  -36.2621   24.6312 H   0  0  0  0  0  0
  -27.2306  -37.1488   25.8882 H   0  0  0  0  0  0
  -20.9324  -29.8649   21.6809 H   0  0  0  0  0  0
  -26.0161  -38.2854   24.1419 H   0  0  0  0  0  0
  -26.5973  -20.7987   19.5578 H   0  0  0  0  0  0
  -26.4942  -23.9316   22.5364 H   0  0  0  0  0  0
  -25.7918  -24.2686   20.0079 H   0  0  0  0  0  0
  -26.3065  -23.0789   18.8556 H   0  0  0  0  0  0
  -25.9478  -18.7735   23.8771 H   0  0  0  0  0  0
  -25.4811  -20.1658   24.7861 H   0  0  0  0  0  0
  -28.7410  -23.5398   19.5347 H   0  0  0  0  0  0
  -27.9464  -24.7304   18.5729 H   0  0  0  0  0  0
  -27.2634  -19.6255   26.0576 H   0  0  0  0  0  0
  -28.1691  -20.5909   24.9315 H   0  0  0  0  0  0
  -27.7704  -17.5554   24.7380 H   0  0  0  0  0  0
  -29.0994  -18.2723   25.5922 H   0  0  0  0  0  0
  -28.7627  -19.1562   22.7559 H   0  0  0  0  0  0
  -30.2132  -19.0030   23.6520 H   0  0  0  0  0  0
  -29.2176  -17.5173   21.9481 H   0  0  0  0  0  0
  -30.2259  -17.0406   23.6843 H   0  0  0  0  0  0
  -30.9168  -17.0745   21.1738 H   0  0  0  0  0  0
  -31.5828  -16.3057   22.5744 H   0  0  0  0  0  0
  -29.2879  -25.1716   21.0098 H   0  0  0  0  0  0
  -27.6218  -25.4026   21.4374 H   0  0  0  0  0  0
  -29.3219  -14.8244   21.9832 H   0  0  0  0  0  0
  1 25  1  0  0  0
  1 30  2  0  0  0
  1 86  1  0  0  0
  2  3  1  0  0  0
  2 25  1  0  0  0
  2 88  1  0  0  0
  2 89  1  0  0  0
  3  4  1  0  0  0
  3 90  1  0  0  0
  3 91  1  0  0  0
  4  5  1  0  0  0
  4 92  1  0  0  0
  4 93  1  0  0  0
  5  6  1  0  0  0
  5 26  1  0  0  0
  5 94  1  0  0  0
  6 25  1  0  0  0
  6 95  1  0  0  0
  6 96  1  0  0  0
  7  8  2  0  0  0
  7 26  1  0  0  0
  7 29  1  0  0  0
  8  9  1  0  0  0
  8 22  1  0  0  0
  9 10  1  0  0  0
  9 27  2  0  0  0
 10 11  2  0  0  0
 10 15  1  0  0  0
 11 12  1  0  0  0
 11 97  1  0  0  0
 12 13  2  0  0  0
 12 98  1  0  0  0
 13 14  1  0  0  0
 13 31  1  0  0  0
 14 15  2  0  0  0
 14 99  1  0  0  0
 15100  1  0  0  0
 16 17  2  0  0  0
 16 21  1  0  0  0
 16 31  1  0  0  0
 17 18  1  0  0  0
 17101  1  0  0  0
 18 19  2  0  0  0
 18102  1  0  0  0
 19 20  1  0  0  0
 19 24  1  0  0  0
 20 21  2  0  0  0
 20103  1  0  0  0
 21 23  1  0  0  0
 22 28  1  0  0  0
 22 32  2  0  0  0
 26 27  1  0  0  0
 28104  1  0  0  0
 28105  1  0  0  0
 29106  1  0  0  0
 29107  1  0  0  0
 33 34  1  0  0  0
 33 66  1  0  0  0
 33 70  2  0  0  0
 34 36  1  0  0  0
 34 59  1  0  0  0
 34108  1  0  0  0
 35 44  2  0  0  0
 35 45  1  0  0  0
 35 68  1  0  0  0
 36 56  1  0  0  0
 36109  1  0  0  0
 37 39  1  0  0  0
 37 47  1  0  0  0
 37 66  1  0  0  0
 37110  1  0  0  0
 38 43  2  0  0  0
 38 46  1  0  0  0
 38 47  1  0  0  0
 39 64  1  0  0  0
 39 67  2  0  0  0
 40 52  1  0  0  0
 40 53  2  0  0  0
 40 58  1  0  0  0
 41111  1  0  0  0
 41112  1  0  0  0
 41113  1  0  0  0
 41 48  1  0  0  0
 42 43  1  0  0  0
 42 66  1  0  0  0
 42114  1  0  0  0
 42115  1  0  0  0
 43 44  1  0  0  0
 44116  1  0  0  0
 45 46  2  0  0  0
 45117  1  0  0  0
 46118  1  0  0  0
 47119  1  0  0  0
 47120  1  0  0  0
 48 56  1  0  0  0
 48 65  1  0  0  0
 48121  1  0  0  0
 49 50  1  0  0  0
 49 53  1  0  0  0
 49 64  1  0  0  0
 49122  1  0  0  0
 50 51  1  0  0  0
 50123  1  0  0  0
 50124  1  0  0  0
 51 52  1  0  0  0
 51125  1  0  0  0
 51126  1  0  0  0
 52127  1  0  0  0
 52128  1  0  0  0
 53 54  1  0  0  0
 54 55  2  0  0  0
 54129  1  0  0  0
 55 57  1  0  0  0
 55130  1  0  0  0
 56 69  2  0  0  0
 57 58  2  0  0  0
 57131  1  0  0  0
 58132  1  0  0  0
 59 60  1  0  0  0
 59 61  1  0  0  0
 59 62  1  0  0  0
 60133  1  0  0  0
 60134  1  0  0  0
 60135  1  0  0  0
 61136  1  0  0  0
 61137  1  0  0  0
 61138  1  0  0  0
 62139  1  0  0  0
 62140  1  0  0  0
 62141  1  0  0  0
 63 65  1  0  0  0
 63142  1  0  0  0
 63143  1  0  0  0
 63144  1  0  0  0
 64145  1  0  0  0
 65146  1  0  0  0
 68 84  1  0  0  0
 71 73  2  0  0  0
 71 74  1  0  0  0
 71147  1  0  0  0
 72 73  1  0  0  0
 72 85  2  0  0  0
 72148  1  0  0  0
 73 76  1  0  0  0
 74 75  2  0  0  0
 74 87  1  0  0  0
 75 77  1  0  0  0
 75 85  1  0  0  0
 76 78  1  0  0  0
 76149  1  0  0  0
 76150  1  0  0  0
 77 79  1  0  0  0
 77151  1  0  0  0
 77152  1  0  0  0
 78 84  1  0  0  0
 78153  1  0  0  0
 78154  1  0  0  0
 79 80  1  0  0  0
 79155  1  0  0  0
 79156  1  0  0  0
 80 81  1  0  0  0
 80157  1  0  0  0
 80158  1  0  0  0
 81 82  1  0  0  0
 81159  1  0  0  0
 81160  1  0  0  0
 82 83  1  0  0  0
 82161  1  0  0  0
 82162  1  0  0  0
 83 86  1  0  0  0
 83163  1  0  0  0
 83164  1  0  0  0
 84165  1  0  0  0
 84166  1  0  0  0
 86167  1  0  0  0
M  ISO  4   1 100  68 101  84 101  86 100
M  END
> <chiral flag>
0

> <version>
0

> <s_m_source_file>
/data/baiqing/PycharmProjects/Reinvent-master-3.2/result/LINK_invent/BTK/process_docking_weight1_custom_sum_contain_oxygen_bond_distance_aromatic_linkinvent_7_9_3/rearranged_h_0035.sdf

> <i_m_source_file_index>
71

> <r_mmod_Potential_Energy-OPLS-2005>
135.044998168945

> <r_mmod_Stretch_Energy-OPLS-2005>
35.1800308227539

> <r_mmod_Bend_Energy-OPLS-2005>
331.068267822266

> <r_mmod_Torsional_Energy-OPLS-2005>
244.679748535156

> <r_mmod_Improper_Torsional_Energy-OPLS-2005>
1.93501317501068

> <r_mmod_Van_der_Waal_Energy-OPLS-2005>
170.561233520508

> <r_mmod_Electrostatic_Energy-OPLS-2005>
-450.756072998047

> <r_mmod_Solvation_Energy-OPLS-2005>
-205.34651184082

> <b_mmod_Minimization_Converged-OPLS-2005>
0

> <r_mmod_RMS_Derivative-OPLS-2005>
4.46902084350586

$$$$
71
                    3D
 Structure written by MMmdl.
153161  0  0  1  0            999 V2000
  -30.5484  -14.9491   20.4289 C   0  0  0  0  0  0
  -30.4451  -12.5869   19.5084 C   0  0  0  0  0  0
  -29.5287  -12.5163   18.2644 C   0  0  0  0  0  0
  -28.0603  -12.3052   18.6798 C   0  0  0  0  0  0
  -27.6309  -13.2468   19.8354 C   0  0  2  0  0  0
  -28.6681  -13.2828   20.9762 C   0  0  0  0  0  0
  -25.2461  -13.8214   20.5708 C   0  0  0  0  0  0
  -24.1785  -13.0436   20.9223 C   0  0  0  0  0  0
  -24.6416  -11.6940   20.8774 C   0  0  0  0  0  0
  -23.9126  -10.4300   21.0424 C   0  0  0  0  0  0
  -24.3674   -9.4202   21.9190 C   0  0  0  0  0  0
  -23.6289   -8.2264   22.0767 C   0  0  0  0  0  0
  -22.4245   -8.0330   21.3591 C   0  0  0  0  0  0
  -21.9933   -9.0314   20.4682 C   0  0  0  0  0  0
  -22.7307  -10.2165   20.3067 C   0  0  0  0  0  0
  -21.6833   -6.0758   22.5280 C   0  0  0  0  0  0
  -21.4024   -6.5654   23.8227 C   0  0  0  0  0  0
  -21.3652   -5.6787   24.9186 C   0  0  0  0  0  0
  -21.6025   -4.3050   24.7213 C   0  0  0  0  0  0
  -21.8811   -3.8164   23.4325 C   0  0  0  0  0  0
  -21.9177   -4.6996   22.3397 C   0  0  0  0  0  0
  -22.7787  -13.5221   21.1844 C   0  0  0  0  0  0
  -22.1647   -4.2206   21.0951 F   0  0  0  0  0  0
  -21.5628   -3.4512   25.7725 F   0  0  0  0  0  0
  -29.9476  -13.6890   20.3811 N   0  0  0  0  0  0
  -26.2899  -12.9462   20.3200 N   0  0  0  0  0  0
  -25.9335  -11.6597   20.5723 N   0  0  0  0  0  0
  -22.0433  -12.8234   22.0431 N   0  0  0  0  0  0
  -25.4106  -15.1950   20.4162 N   0  0  0  0  0  0
  -31.7505  -15.0063   20.1591 O   0  0  0  0  0  0
  -21.6617   -6.8913   21.4244 O   0  0  0  0  0  0
  -22.3454  -14.5506   20.6652 O   0  0  0  0  0  0
  -24.6438  -31.8456   23.1891 C   0  0  0  0  0  0
  -25.9219  -32.4701   23.8261 C   0  0  1  0  0  0
  -27.2041  -27.1068   20.1689 C   0  0  0  0  0  0
  -25.5966  -33.8516   24.2171 N   0  0  0  0  0  0
  -23.4465  -30.4668   21.5373 C   0  0  2  0  0  0
  -24.8972  -28.8905   20.1101 C   0  0  0  0  0  0
  -22.7572  -29.4570   22.4885 C   0  0  0  0  0  0
  -18.0316  -28.1399   22.8511 C   0  0  0  0  0  0
  -24.1514  -36.7233   23.2633 C   0  0  0  0  0  0
  -26.0066  -30.7093   21.3964 C   0  0  0  0  0  0
  -26.0749  -29.3185   20.7363 C   0  0  0  0  0  0
  -27.2303  -28.4465   20.7447 C   0  0  0  0  0  0
  -26.0060  -26.7925   19.4923 C   0  0  0  0  0  0
  -24.8801  -27.6455   19.4682 C   0  0  0  0  0  0
  -23.6734  -29.7984   20.1547 C   0  0  0  0  0  0
  -25.4149  -36.3040   24.0304 C   0  0  1  0  0  0
  -20.5938  -28.3731   23.1283 C   0  0  2  0  0  0
  -20.6819  -26.9430   22.5439 C   0  0  0  0  0  0
  -19.5790  -26.6381   21.5257 C   0  0  0  0  0  0
  -18.1963  -26.7949   22.1639 C   0  0  0  0  0  0
  -19.1574  -28.8886   23.2891 C   0  0  0  0  0  0
  -18.9479  -30.1478   23.8919 C   0  0  0  0  0  0
  -17.6475  -30.6601   24.0563 C   0  0  0  0  0  0
  -25.9093  -34.9408   23.5045 C   0  0  0  0  0  0
  -16.5372  -29.9090   23.6340 C   0  0  0  0  0  0
  -16.7299  -28.6503   23.0387 C   0  0  0  0  0  0
  -26.4531  -31.6576   25.0704 C   0  0  0  0  0  0
  -25.3678  -31.3789   26.1372 C   0  0  0  0  0  0
  -27.0386  -30.2972   24.6291 C   0  0  0  0  0  0
  -27.6089  -32.4317   25.7460 C   0  0  0  0  0  0
  -27.5594  -37.1767   24.8452 C   0  0  0  0  0  0
  -21.4269  -29.3042   22.3620 N   0  0  0  0  0  0
  -26.4307  -37.3753   23.9404 N   0  0  0  0  0  0
  -24.7178  -31.0306   22.0931 N   0  0  0  0  0  0
  -23.4221  -28.8115   23.3035 O   0  0  0  0  0  0
  -28.2421  -26.0978   20.2186 O   0  0  0  0  0  0
  -26.5683  -34.8923   22.4628 O   0  0  0  0  0  0
  -23.5568  -32.1334   23.7127 O   0  0  0  0  0  0
  -27.5594  -21.3460   21.4111 C   0  0  0  0  0  0
  -27.3131  -20.0505   21.9241 C   0  0  0  0  0  0
  -29.4586  -20.4085   20.2514 C   0  0  0  0  0  0
  -28.6672  -21.6306   20.5900 C   0  0  0  0  0  0
  -28.1310  -18.9244   21.6449 C   0  0  0  0  0  0
  -29.2199  -19.0127   20.7363 C   0  0  0  0  0  0
  -27.8626  -17.6492   22.4325 C   0  0  0  0  0  0
  -28.9622  -23.2228   20.1887 C   0  0  0  0  0  0
  -30.1545  -17.6766   20.4172 C   0  0  0  0  0  0
  -27.9327  -24.5619   20.4073 C   0  0  0  0  0  0
  -29.7821  -16.1408   20.5659 N   0  0  0  0  0  0
  -31.4760  -12.7503   19.1913 H   0  0  0  0  0  0
  -30.4496  -11.6376   20.0508 H   0  0  0  0  0  0
  -29.8454  -11.7067   17.6029 H   0  0  0  0  0  0
  -29.6268  -13.4343   17.6841 H   0  0  0  0  0  0
  -27.9586  -11.2656   18.9980 H   0  0  0  0  0  0
  -27.4009  -12.4302   17.8197 H   0  0  0  0  0  0
  -27.5948  -14.2454   19.3950 H   0  0  0  0  0  0
  -28.7495  -12.3152   21.4767 H   0  0  0  0  0  0
  -28.3608  -14.0026   21.7361 H   0  0  0  0  0  0
  -25.2833   -9.5613   22.4758 H   0  0  0  0  0  0
  -24.0004   -7.4597   22.7416 H   0  0  0  0  0  0
  -21.0899   -8.8819   19.8949 H   0  0  0  0  0  0
  -22.3789  -10.9700   19.6159 H   0  0  0  0  0  0
  -21.2052   -7.6160   23.9749 H   0  0  0  0  0  0
  -21.1465   -6.0510   25.9077 H   0  0  0  0  0  0
  -22.0603   -2.7625   23.2775 H   0  0  0  0  0  0
  -22.4014  -11.9950   22.4947 H   0  0  0  0  0  0
  -21.1041  -13.1272   22.2574 H   0  0  0  0  0  0
  -24.6448  -15.8439   20.5530 H   0  0  0  0  0  0
  -26.2360  -15.6408   20.0375 H   0  0  0  0  0  0
  -26.7265  -32.5323   23.0962 H   0  0  0  0  0  0
  -25.0099  -33.9640   25.0308 H   0  0  0  0  0  0
  -22.7494  -31.2944   21.3899 H   0  0  0  0  0  0
  -23.3811  -35.9529   23.3285 H   0  0  0  0  0  0
  -24.3577  -36.8876   22.2046 H   0  0  0  0  0  0
  -23.7253  -37.6416   23.6686 H   0  0  0  0  0  0
  -26.1775  -31.4663   20.6298 H   0  0  0  0  0  0
  -26.8695  -30.7546   22.0457 H   0  0  0  0  0  0
  -28.1277  -28.7754   21.2513 H   0  0  0  0  0  0
  -25.9094  -25.8506   18.9778 H   0  0  0  0  0  0
  -23.9885  -27.3193   18.9517 H   0  0  0  0  0  0
  -23.8119  -30.5779   19.4045 H   0  0  0  0  0  0
  -22.7852  -29.2465   19.8423 H   0  0  0  0  0  0
  -25.1336  -36.1852   25.0794 H   0  0  0  0  0  0
  -21.0042  -28.3331   24.1402 H   0  0  0  0  0  0
  -20.5828  -26.2285   23.3625 H   0  0  0  0  0  0
  -21.6672  -26.7497   22.1166 H   0  0  0  0  0  0
  -19.6934  -25.6293   21.1284 H   0  0  0  0  0  0
  -19.6745  -27.3202   20.6806 H   0  0  0  0  0  0
  -17.4234  -26.6750   21.4027 H   0  0  0  0  0  0
  -18.0327  -26.0087   22.9023 H   0  0  0  0  0  0
  -19.7938  -30.7311   24.2312 H   0  0  0  0  0  0
  -17.5012  -31.6297   24.5121 H   0  0  0  0  0  0
  -15.5377  -30.2990   23.7675 H   0  0  0  0  0  0
  -15.8681  -28.0805   22.7142 H   0  0  0  0  0  0
  -24.5819  -30.7199   25.7653 H   0  0  0  0  0  0
  -24.8902  -32.2992   26.4768 H   0  0  0  0  0  0
  -25.7906  -30.8921   27.0162 H   0  0  0  0  0  0
  -26.2989  -29.6691   24.1302 H   0  0  0  0  0  0
  -27.4013  -29.7311   25.4882 H   0  0  0  0  0  0
  -27.8917  -30.4235   23.9612 H   0  0  0  0  0  0
  -27.2706  -33.3617   26.2050 H   0  0  0  0  0  0
  -28.3881  -32.6856   25.0249 H   0  0  0  0  0  0
  -28.0763  -31.8398   26.5338 H   0  0  0  0  0  0
  -28.2595  -38.0090   24.7554 H   0  0  0  0  0  0
  -28.1120  -36.2619   24.6222 H   0  0  0  0  0  0
  -27.2292  -37.1343   25.8850 H   0  0  0  0  0  0
  -20.9471  -29.8646   21.6693 H   0  0  0  0  0  0
  -26.0166  -38.2811   24.1452 H   0  0  0  0  0  0
  -26.9013  -22.1510   21.7117 H   0  0  0  0  0  0
  -26.4842  -19.9359   22.6132 H   0  0  0  0  0  0
  -30.3151  -20.5453   19.6054 H   0  0  0  0  0  0
  -27.0400  -17.7670   23.1402 H   0  0  0  0  0  0
  -28.7523  -17.3825   23.0089 H   0  0  0  0  0  0
  -27.5992  -16.8184   21.7832 H   0  0  0  0  0  0
  -29.2619  -23.2234   19.1420 H   0  0  0  0  0  0
  -29.8762  -23.4679   20.7283 H   0  0  0  0  0  0
  -31.0364  -17.8067   21.0466 H   0  0  0  0  0  0
  -30.5340  -17.8066   19.4027 H   0  0  0  0  0  0
  -27.6050  -24.5020   21.4446 H   0  0  0  0  0  0
  -27.0407  -24.3182   19.8334 H   0  0  0  0  0  0
  -28.7998  -15.9736   20.7163 H   0  0  0  0  0  0
  1 25  1  0  0  0
  1 30  2  0  0  0
  1 81  1  0  0  0
  2  3  1  0  0  0
  2 25  1  0  0  0
  2 82  1  0  0  0
  2 83  1  0  0  0
  3  4  1  0  0  0
  3 84  1  0  0  0
  3 85  1  0  0  0
  4  5  1  0  0  0
  4 86  1  0  0  0
  4 87  1  0  0  0
  5  6  1  0  0  0
  5 26  1  0  0  0
  5 88  1  0  0  0
  6 25  1  0  0  0
  6 89  1  0  0  0
  6 90  1  0  0  0
  7  8  2  0  0  0
  7 26  1  0  0  0
  7 29  1  0  0  0
  8  9  1  0  0  0
  8 22  1  0  0  0
  9 10  1  0  0  0
  9 27  2  0  0  0
 10 11  2  0  0  0
 10 15  1  0  0  0
 11 12  1  0  0  0
 11 91  1  0  0  0
 12 13  2  0  0  0
 12 92  1  0  0  0
 13 14  1  0  0  0
 13 31  1  0  0  0
 14 15  2  0  0  0
 14 93  1  0  0  0
 15 94  1  0  0  0
 16 17  2  0  0  0
 16 21  1  0  0  0
 16 31  1  0  0  0
 17 18  1  0  0  0
 17 95  1  0  0  0
 18 19  2  0  0  0
 18 96  1  0  0  0
 19 20  1  0  0  0
 19 24  1  0  0  0
 20 21  2  0  0  0
 20 97  1  0  0  0
 21 23  1  0  0  0
 22 28  1  0  0  0
 22 32  2  0  0  0
 26 27  1  0  0  0
 28 98  1  0  0  0
 28 99  1  0  0  0
 29100  1  0  0  0
 29101  1  0  0  0
 33 34  1  0  0  0
 33 66  1  0  0  0
 33 70  2  0  0  0
 34 36  1  0  0  0
 34 59  1  0  0  0
 34102  1  0  0  0
 35 44  2  0  0  0
 35 45  1  0  0  0
 35 68  1  0  0  0
 36 56  1  0  0  0
 36103  1  0  0  0
 37 39  1  0  0  0
 37 47  1  0  0  0
 37 66  1  0  0  0
 37104  1  0  0  0
 38 43  2  0  0  0
 38 46  1  0  0  0
 38 47  1  0  0  0
 39 64  1  0  0  0
 39 67  2  0  0  0
 40 52  1  0  0  0
 40 53  2  0  0  0
 40 58  1  0  0  0
 41105  1  0  0  0
 41106  1  0  0  0
 41107  1  0  0  0
 41 48  1  0  0  0
 42 43  1  0  0  0
 42 66  1  0  0  0
 42108  1  0  0  0
 42109  1  0  0  0
 43 44  1  0  0  0
 44110  1  0  0  0
 45 46  2  0  0  0
 45111  1  0  0  0
 46112  1  0  0  0
 47113  1  0  0  0
 47114  1  0  0  0
 48 56  1  0  0  0
 48 65  1  0  0  0
 48115  1  0  0  0
 49 50  1  0  0  0
 49 53  1  0  0  0
 49 64  1  0  0  0
 49116  1  0  0  0
 50 51  1  0  0  0
 50117  1  0  0  0
 50118  1  0  0  0
 51 52  1  0  0  0
 51119  1  0  0  0
 51120  1  0  0  0
 52121  1  0  0  0
 52122  1  0  0  0
 53 54  1  0  0  0
 54 55  2  0  0  0
 54123  1  0  0  0
 55 57  1  0  0  0
 55124  1  0  0  0
 56 69  2  0  0  0
 57 58  2  0  0  0
 57125  1  0  0  0
 58126  1  0  0  0
 59 60  1  0  0  0
 59 61  1  0  0  0
 59 62  1  0  0  0
 60127  1  0  0  0
 60128  1  0  0  0
 60129  1  0  0  0
 61130  1  0  0  0
 61131  1  0  0  0
 61132  1  0  0  0
 62133  1  0  0  0
 62134  1  0  0  0
 62135  1  0  0  0
 63 65  1  0  0  0
 63136  1  0  0  0
 63137  1  0  0  0
 63138  1  0  0  0
 64139  1  0  0  0
 65140  1  0  0  0
 68 80  1  0  0  0
 71 72  2  0  0  0
 71 74  1  0  0  0
 71141  1  0  0  0
 72 75  1  0  0  0
 72142  1  0  0  0
 73 74  2  0  0  0
 73 76  1  0  0  0
 73143  1  0  0  0
 74 78  1  0  0  0
 75 76  2  0  0  0
 75 77  1  0  0  0
 76 79  1  0  0  0
 77144  1  0  0  0
 77145  1  0  0  0
 77146  1  0  0  0
 78 80  1  0  0  0
 78147  1  0  0  0
 78148  1  0  0  0
 79 81  1  0  0  0
 79149  1  0  0  0
 79150  1  0  0  0
 80151  1  0  0  0
 80152  1  0  0  0
 81153  1  0  0  0
M  ISO  4   1 100  68 101  80 101  81 100
M  END
> <chiral flag>
0

> <version>
0

> <s_m_source_file>
/data/baiqing/PycharmProjects/Reinvent-master-3.2/result/LINK_invent/BTK/process_docking_weight1_custom_sum_contain_oxygen_bond_distance_aromatic_linkinvent_7_9_3/rearranged_h_0035.sdf

> <i_m_source_file_index>
72

> <r_mmod_Potential_Energy-OPLS-2005>
478.266296386719

> <r_mmod_Stretch_Energy-OPLS-2005>
282.642272949219

> <r_mmod_Bend_Energy-OPLS-2005>
246.597702026367

> <r_mmod_Torsional_Energy-OPLS-2005>
212.106399536133

> <r_mmod_Improper_Torsional_Energy-OPLS-2005>
5.26600313186646

> <r_mmod_Van_der_Waal_Energy-OPLS-2005>
129.724365234375

> <r_mmod_Electrostatic_Energy-OPLS-2005>
-395.491943359375

> <r_mmod_Solvation_Energy-OPLS-2005>
-207.856201171875

> <b_mmod_Minimization_Converged-OPLS-2005>
0

> <r_mmod_RMS_Derivative-OPLS-2005>
5.56630420684814

$$$$
72
                    3D
 Structure written by MMmdl.
163172  0  0  1  0            999 V2000
  -30.5247  -14.9200   20.4183 C   0  0  0  0  0  0
  -30.4242  -12.5655   19.4959 C   0  0  0  0  0  0
  -29.5128  -12.5203   18.2482 C   0  0  0  0  0  0
  -28.0423  -12.3152   18.6612 C   0  0  0  0  0  0
  -27.6211  -13.2416   19.8318 C   0  0  2  0  0  0
  -28.6574  -13.2548   20.9714 C   0  0  0  0  0  0
  -25.2417  -13.8189   20.5692 C   0  0  0  0  0  0
  -24.1744  -13.0427   20.9223 C   0  0  0  0  0  0
  -24.6353  -11.6903   20.8742 C   0  0  0  0  0  0
  -23.9044  -10.4275   21.0401 C   0  0  0  0  0  0
  -24.3605   -9.4191   21.9178 C   0  0  0  0  0  0
  -23.6283   -8.2235   22.0756 C   0  0  0  0  0  0
  -22.4267   -8.0267   21.3544 C   0  0  0  0  0  0
  -21.9896   -9.0244   20.4643 C   0  0  0  0  0  0
  -22.7218  -10.2122   20.3043 C   0  0  0  0  0  0
  -21.6860   -6.0726   22.5284 C   0  0  0  0  0  0
  -21.4011   -6.5636   23.8215 C   0  0  0  0  0  0
  -21.3671   -5.6792   24.9181 C   0  0  0  0  0  0
  -21.6033   -4.3055   24.7227 C   0  0  0  0  0  0
  -21.8819   -3.8147   23.4346 C   0  0  0  0  0  0
  -21.9186   -4.6959   22.3399 C   0  0  0  0  0  0
  -22.7769  -13.5204   21.1914 C   0  0  0  0  0  0
  -22.1657   -4.2137   21.0975 F   0  0  0  0  0  0
  -21.5631   -3.4536   25.7744 F   0  0  0  0  0  0
  -29.9312  -13.6632   20.3738 N   0  0  0  0  0  0
  -26.2816  -12.9418   20.3174 N   0  0  0  0  0  0
  -25.9266  -11.6552   20.5676 N   0  0  0  0  0  0
  -22.0410  -12.8202   22.0455 N   0  0  0  0  0  0
  -25.4079  -15.1920   20.4140 N   0  0  0  0  0  0
  -31.7342  -14.9781   20.1726 O   0  0  0  0  0  0
  -21.6634   -6.8868   21.4246 O   0  0  0  0  0  0
  -22.3465  -14.5522   20.6758 O   0  0  0  0  0  0
  -24.6422  -31.8404   23.1820 C   0  0  0  0  0  0
  -25.9183  -32.4676   23.8214 C   0  0  1  0  0  0
  -27.2182  -27.1280   20.1760 C   0  0  0  0  0  0
  -25.5937  -33.8480   24.2135 N   0  0  0  0  0  0
  -23.4456  -30.4543   21.5277 C   0  0  2  0  0  0
  -24.8919  -28.8643   20.1114 C   0  0  0  0  0  0
  -22.7543  -29.4526   22.4848 C   0  0  0  0  0  0
  -18.0295  -28.1394   22.8466 C   0  0  0  0  0  0
  -24.1497  -36.7253   23.2648 C   0  0  0  0  0  0
  -25.9949  -30.7133   21.3773 C   0  0  0  0  0  0
  -26.0625  -29.3212   20.7256 C   0  0  0  0  0  0
  -27.2230  -28.4688   20.7327 C   0  0  0  0  0  0
  -26.0270  -26.7557   19.5219 C   0  0  0  0  0  0
  -24.8854  -27.5973   19.4939 C   0  0  0  0  0  0
  -23.6707  -29.7701   20.1504 C   0  0  0  0  0  0
  -25.4126  -36.3026   24.0307 C   0  0  1  0  0  0
  -20.5908  -28.3704   23.1237 C   0  0  2  0  0  0
  -20.6777  -26.9403   22.5406 C   0  0  0  0  0  0
  -19.5768  -26.6368   21.5201 C   0  0  0  0  0  0
  -18.1943  -26.7924   22.1608 C   0  0  0  0  0  0
  -19.1552  -28.8862   23.2853 C   0  0  0  0  0  0
  -18.9477  -30.1457   23.8872 C   0  0  0  0  0  0
  -17.6480  -30.6596   24.0548 C   0  0  0  0  0  0
  -25.9075  -34.9403   23.5035 C   0  0  0  0  0  0
  -16.5366  -29.9085   23.6348 C   0  0  0  0  0  0
  -16.7275  -28.6509   23.0351 C   0  0  0  0  0  0
  -26.4507  -31.6565   25.0671 C   0  0  0  0  0  0
  -25.3698  -31.3757   26.1382 C   0  0  0  0  0  0
  -27.0392  -30.2970   24.6260 C   0  0  0  0  0  0
  -27.6033  -32.4333   25.7469 C   0  0  0  0  0  0
  -27.5572  -37.1787   24.8461 C   0  0  0  0  0  0
  -21.4236  -29.3044   22.3612 N   0  0  0  0  0  0
  -26.4286  -37.3741   23.9407 N   0  0  0  0  0  0
  -24.7143  -31.0258   22.0850 N   0  0  0  0  0  0
  -23.4166  -28.8096   23.3042 O   0  0  0  0  0  0
  -28.3371  -26.2391   20.2944 O   0  0  0  0  0  0
  -26.5675  -34.8909   22.4627 O   0  0  0  0  0  0
  -23.5550  -32.1283   23.7055 O   0  0  0  0  0  0
  -30.0554  -20.2900   20.8235 C   0  0  0  0  0  0
  -28.1001  -19.3340   19.9147 C   0  0  0  0  0  0
  -29.5009  -21.6444   20.7417 C   0  0  0  0  0  0
  -28.2155  -21.8854   20.1863 C   0  0  0  0  0  0
  -29.4087  -19.0587   20.4186 C   0  0  0  0  0  0
  -27.5319  -20.6713   19.7993 C   0  0  0  0  0  0
  -27.5972  -23.3904   20.0426 C   0  0  0  0  0  0
  -29.5107  -24.2561   21.3254 C   0  0  0  0  0  0
  -28.5674  -24.6913   20.1625 C   0  0  2  0  0  0
  -30.3016  -22.8774   21.2419 C   0  0  0  0  0  0
  -26.1252  -20.7863   19.2312 C   0  0  0  0  0  0
  -30.8121  -22.5925   22.6741 C   0  0  0  0  0  0
  -31.5114  -23.0766   20.3124 C   0  0  0  0  0  0
  -30.2181  -17.6080   20.4259 C   0  0  0  0  0  0
  -29.7490  -16.1086   20.5246 N   0  0  0  0  0  0
  -31.4633  -12.7109   19.1960 H   0  0  0  0  0  0
  -30.3988  -11.6091   20.0218 H   0  0  0  0  0  0
  -29.8277  -11.7209   17.5761 H   0  0  0  0  0  0
  -29.6109  -13.4491   17.6848 H   0  0  0  0  0  0
  -27.9271  -11.2733   18.9591 H   0  0  0  0  0  0
  -27.3829  -12.4572   17.8041 H   0  0  0  0  0  0
  -27.5902  -14.2467   19.4115 H   0  0  0  0  0  0
  -28.7335  -12.2729   21.4427 H   0  0  0  0  0  0
  -28.3562  -13.9523   21.7552 H   0  0  0  0  0  0
  -25.2739   -9.5689   22.4767 H   0  0  0  0  0  0
  -23.9994   -7.4625   22.7469 H   0  0  0  0  0  0
  -21.0830   -8.8760   19.8947 H   0  0  0  0  0  0
  -22.3661  -10.9675   19.6169 H   0  0  0  0  0  0
  -21.2014   -7.6146   23.9715 H   0  0  0  0  0  0
  -21.1492   -6.0519   25.9076 H   0  0  0  0  0  0
  -22.0586   -2.7602   23.2849 H   0  0  0  0  0  0
  -22.4063  -11.9874   22.4854 H   0  0  0  0  0  0
  -21.1026  -13.1242   22.2644 H   0  0  0  0  0  0
  -24.6351  -15.8382   20.5209 H   0  0  0  0  0  0
  -26.2412  -15.6323   20.0522 H   0  0  0  0  0  0
  -26.7237  -32.5277   23.0937 H   0  0  0  0  0  0
  -25.0069  -33.9582   25.0271 H   0  0  0  0  0  0
  -22.7503  -31.2823   21.3677 H   0  0  0  0  0  0
  -23.3764  -35.9589   23.3293 H   0  0  0  0  0  0
  -24.3581  -36.8898   22.2072 H   0  0  0  0  0  0
  -23.7247  -37.6433   23.6696 H   0  0  0  0  0  0
  -26.1521  -31.4647   20.6032 H   0  0  0  0  0  0
  -26.8645  -30.7623   22.0203 H   0  0  0  0  0  0
  -28.1204  -28.8157   21.2258 H   0  0  0  0  0  0
  -25.9645  -25.7817   19.0548 H   0  0  0  0  0  0
  -23.9846  -27.2442   19.0086 H   0  0  0  0  0  0
  -23.8160  -30.5377   19.3904 H   0  0  0  0  0  0
  -22.7838  -29.2152   19.8413 H   0  0  0  0  0  0
  -25.1333  -36.1837   25.0797 H   0  0  0  0  0  0
  -20.9990  -28.3298   24.1367 H   0  0  0  0  0  0
  -20.5653  -26.2322   23.3630 H   0  0  0  0  0  0
  -21.6651  -26.7421   22.1227 H   0  0  0  0  0  0
  -19.6936  -25.6273   21.1256 H   0  0  0  0  0  0
  -19.6710  -27.3162   20.6719 H   0  0  0  0  0  0
  -17.4208  -26.6651   21.4011 H   0  0  0  0  0  0
  -18.0352  -26.0074   22.9019 H   0  0  0  0  0  0
  -19.7953  -30.7272   24.2226 H   0  0  0  0  0  0
  -17.5040  -31.6272   24.5152 H   0  0  0  0  0  0
  -15.5365  -30.2984   23.7687 H   0  0  0  0  0  0
  -15.8673  -28.0821   22.7081 H   0  0  0  0  0  0
  -24.5868  -30.7117   25.7687 H   0  0  0  0  0  0
  -24.8927  -32.2962   26.4759 H   0  0  0  0  0  0
  -25.8004  -30.8942   27.0178 H   0  0  0  0  0  0
  -26.3017  -29.6673   24.1280 H   0  0  0  0  0  0
  -27.4021  -29.7280   25.4825 H   0  0  0  0  0  0
  -27.8903  -30.4205   23.9564 H   0  0  0  0  0  0
  -27.2606  -33.3633   26.2015 H   0  0  0  0  0  0
  -28.3880  -32.6888   25.0333 H   0  0  0  0  0  0
  -28.0676  -31.8486   26.5424 H   0  0  0  0  0  0
  -28.2588  -38.0087   24.7521 H   0  0  0  0  0  0
  -28.1071  -36.2621   24.6282 H   0  0  0  0  0  0
  -27.2296  -37.1424   25.8863 H   0  0  0  0  0  0
  -20.9428  -29.8733   21.6782 H   0  0  0  0  0  0
  -26.0147  -38.2804   24.1406 H   0  0  0  0  0  0
  -31.0576  -20.1908   21.2114 H   0  0  0  0  0  0
  -27.5177  -18.4925   19.5613 H   0  0  0  0  0  0
  -27.0759  -23.4546   19.0865 H   0  0  0  0  0  0
  -26.8200  -23.4831   20.8018 H   0  0  0  0  0  0
  -28.8891  -24.2395   22.2227 H   0  0  0  0  0  0
  -30.2272  -25.0575   21.5077 H   0  0  0  0  0  0
  -29.1717  -24.6456   19.2572 H   0  0  0  0  0  0
  -25.6974  -19.8102   18.9963 H   0  0  0  0  0  0
  -25.4588  -21.2720   19.9466 H   0  0  0  0  0  0
  -26.1271  -21.3706   18.3105 H   0  0  0  0  0  0
  -29.9794  -22.3710   23.3452 H   0  0  0  0  0  0
  -31.3412  -23.4505   23.0907 H   0  0  0  0  0  0
  -31.4970  -21.7458   22.7185 H   0  0  0  0  0  0
  -31.1894  -23.2852   19.2917 H   0  0  0  0  0  0
  -32.1520  -22.1939   20.2824 H   0  0  0  0  0  0
  -32.1354  -23.9076   20.6411 H   0  0  0  0  0  0
  -30.7910  -17.6375   19.4989 H   0  0  0  0  0  0
  -30.9725  -17.7101   21.2051 H   0  0  0  0  0  0
  -28.7588  -15.9670   20.6524 H   0  0  0  0  0  0
  1 25  1  0  0  0
  1 30  2  0  0  0
  1 85  1  0  0  0
  2  3  1  0  0  0
  2 25  1  0  0  0
  2 86  1  0  0  0
  2 87  1  0  0  0
  3  4  1  0  0  0
  3 88  1  0  0  0
  3 89  1  0  0  0
  4  5  1  0  0  0
  4 90  1  0  0  0
  4 91  1  0  0  0
  5  6  1  0  0  0
  5 26  1  0  0  0
  5 92  1  0  0  0
  6 25  1  0  0  0
  6 93  1  0  0  0
  6 94  1  0  0  0
  7  8  2  0  0  0
  7 26  1  0  0  0
  7 29  1  0  0  0
  8  9  1  0  0  0
  8 22  1  0  0  0
  9 10  1  0  0  0
  9 27  2  0  0  0
 10 11  2  0  0  0
 10 15  1  0  0  0
 11 12  1  0  0  0
 11 95  1  0  0  0
 12 13  2  0  0  0
 12 96  1  0  0  0
 13 14  1  0  0  0
 13 31  1  0  0  0
 14 15  2  0  0  0
 14 97  1  0  0  0
 15 98  1  0  0  0
 16 17  2  0  0  0
 16 21  1  0  0  0
 16 31  1  0  0  0
 17 18  1  0  0  0
 17 99  1  0  0  0
 18 19  2  0  0  0
 18100  1  0  0  0
 19 20  1  0  0  0
 19 24  1  0  0  0
 20 21  2  0  0  0
 20101  1  0  0  0
 21 23  1  0  0  0
 22 28  1  0  0  0
 22 32  2  0  0  0
 26 27  1  0  0  0
 28102  1  0  0  0
 28103  1  0  0  0
 29104  1  0  0  0
 29105  1  0  0  0
 33 34  1  0  0  0
 33 66  1  0  0  0
 33 70  2  0  0  0
 34 36  1  0  0  0
 34 59  1  0  0  0
 34106  1  0  0  0
 35 44  2  0  0  0
 35 45  1  0  0  0
 35 68  1  0  0  0
 36 56  1  0  0  0
 36107  1  0  0  0
 37 39  1  0  0  0
 37 47  1  0  0  0
 37 66  1  0  0  0
 37108  1  0  0  0
 38 43  2  0  0  0
 38 46  1  0  0  0
 38 47  1  0  0  0
 39 64  1  0  0  0
 39 67  2  0  0  0
 40 52  1  0  0  0
 40 53  2  0  0  0
 40 58  1  0  0  0
 41109  1  0  0  0
 41110  1  0  0  0
 41111  1  0  0  0
 41 48  1  0  0  0
 42 43  1  0  0  0
 42 66  1  0  0  0
 42112  1  0  0  0
 42113  1  0  0  0
 43 44  1  0  0  0
 44114  1  0  0  0
 45 46  2  0  0  0
 45115  1  0  0  0
 46116  1  0  0  0
 47117  1  0  0  0
 47118  1  0  0  0
 48 56  1  0  0  0
 48 65  1  0  0  0
 48119  1  0  0  0
 49 50  1  0  0  0
 49 53  1  0  0  0
 49 64  1  0  0  0
 49120  1  0  0  0
 50 51  1  0  0  0
 50121  1  0  0  0
 50122  1  0  0  0
 51 52  1  0  0  0
 51123  1  0  0  0
 51124  1  0  0  0
 52125  1  0  0  0
 52126  1  0  0  0
 53 54  1  0  0  0
 54 55  2  0  0  0
 54127  1  0  0  0
 55 57  1  0  0  0
 55128  1  0  0  0
 56 69  2  0  0  0
 57 58  2  0  0  0
 57129  1  0  0  0
 58130  1  0  0  0
 59 60  1  0  0  0
 59 61  1  0  0  0
 59 62  1  0  0  0
 60131  1  0  0  0
 60132  1  0  0  0
 60133  1  0  0  0
 61134  1  0  0  0
 61135  1  0  0  0
 61136  1  0  0  0
 62137  1  0  0  0
 62138  1  0  0  0
 62139  1  0  0  0
 63 65  1  0  0  0
 63140  1  0  0  0
 63141  1  0  0  0
 63142  1  0  0  0
 64143  1  0  0  0
 65144  1  0  0  0
 68 79  1  0  0  0
 71 73  2  0  0  0
 71 75  1  0  0  0
 71145  1  0  0  0
 72 75  2  0  0  0
 72 76  1  0  0  0
 72146  1  0  0  0
 73 74  1  0  0  0
 73 80  1  0  0  0
 74 76  2  0  0  0
 74 77  1  0  0  0
 75 84  1  0  0  0
 76 81  1  0  0  0
 77 79  1  0  0  0
 77147  1  0  0  0
 77148  1  0  0  0
 78 79  1  0  0  0
 78 80  1  0  0  0
 78149  1  0  0  0
 78150  1  0  0  0
 79151  1  0  0  0
 80 82  1  0  0  0
 80 83  1  0  0  0
 81152  1  0  0  0
 81153  1  0  0  0
 81154  1  0  0  0
 82155  1  0  0  0
 82156  1  0  0  0
 82157  1  0  0  0
 83158  1  0  0  0
 83159  1  0  0  0
 83160  1  0  0  0
 84 85  1  0  0  0
 84161  1  0  0  0
 84162  1  0  0  0
 85163  1  0  0  0
M  ISO  4   1 100  68 101  79 101  85 100
M  END
> <chiral flag>
0

> <version>
0

> <s_m_source_file>
/data/baiqing/PycharmProjects/Reinvent-master-3.2/result/LINK_invent/BTK/process_docking_weight1_custom_sum_contain_oxygen_bond_distance_aromatic_linkinvent_7_9_3/rearranged_h_0035.sdf

> <i_m_source_file_index>
73

> <r_mmod_Potential_Energy-OPLS-2005>
445.173126220703

> <r_mmod_Stretch_Energy-OPLS-2005>
225.239837646484

> <r_mmod_Bend_Energy-OPLS-2005>
327.714019775391

> <r_mmod_Torsional_Energy-OPLS-2005>
213.649703979492

> <r_mmod_Improper_Torsional_Energy-OPLS-2005>
5.03845310211182

> <r_mmod_Van_der_Waal_Energy-OPLS-2005>
129.919143676758

> <r_mmod_Electrostatic_Energy-OPLS-2005>
-432.867889404297

> <r_mmod_Solvation_Energy-OPLS-2005>
-203.457656860352

> <b_mmod_Minimization_Converged-OPLS-2005>
0

> <r_mmod_RMS_Derivative-OPLS-2005>
3.42186546325684

$$$$
73
                    3D
 Structure written by MMmdl.
156164  0  0  1  0            999 V2000
  -30.5589  -14.9221   20.4178 C   0  0  0  0  0  0
  -30.4191  -12.5609   19.4986 C   0  0  0  0  0  0
  -29.5135  -12.5167   18.2426 C   0  0  0  0  0  0
  -28.0366  -12.3220   18.6387 C   0  0  0  0  0  0
  -27.6136  -13.2553   19.8067 C   0  0  2  0  0  0
  -28.6502  -13.2909   20.9511 C   0  0  0  0  0  0
  -25.2398  -13.8213   20.5647 C   0  0  0  0  0  0
  -24.1731  -13.0378   20.9176 C   0  0  0  0  0  0
  -24.6382  -11.6892   20.8657 C   0  0  0  0  0  0
  -23.9088  -10.4252   21.0364 C   0  0  0  0  0  0
  -24.3627   -9.4212   21.9196 C   0  0  0  0  0  0
  -23.6296   -8.2234   22.0748 C   0  0  0  0  0  0
  -22.4298   -8.0254   21.3511 C   0  0  0  0  0  0
  -21.9927   -9.0232   20.4635 C   0  0  0  0  0  0
  -22.7243  -10.2109   20.3046 C   0  0  0  0  0  0
  -21.6846   -6.0761   22.5273 C   0  0  0  0  0  0
  -21.4038   -6.5657   23.8222 C   0  0  0  0  0  0
  -21.3655   -5.6796   24.9171 C   0  0  0  0  0  0
  -21.6029   -4.3059   24.7217 C   0  0  0  0  0  0
  -21.8816   -3.8162   23.4336 C   0  0  0  0  0  0
  -21.9201   -4.6986   22.3396 C   0  0  0  0  0  0
  -22.7774  -13.5193   21.1847 C   0  0  0  0  0  0
  -22.1658   -4.2184   21.0972 F   0  0  0  0  0  0
  -21.5612   -3.4525   25.7724 F   0  0  0  0  0  0
  -29.9428  -13.6744   20.3671 N   0  0  0  0  0  0
  -26.2798  -12.9450   20.3053 N   0  0  0  0  0  0
  -25.9300  -11.6574   20.5568 N   0  0  0  0  0  0
  -22.0450  -12.8151   22.0414 N   0  0  0  0  0  0
  -25.3991  -15.1927   20.4104 N   0  0  0  0  0  0
  -31.7679  -14.9764   20.1655 O   0  0  0  0  0  0
  -21.6607   -6.8892   21.4235 O   0  0  0  0  0  0
  -22.3418  -14.5502   20.6740 O   0  0  0  0  0  0
  -24.6423  -31.8464   23.1826 C   0  0  0  0  0  0
  -25.9207  -32.4693   23.8212 C   0  0  1  0  0  0
  -27.2229  -27.1170   20.1808 C   0  0  0  0  0  0
  -25.5973  -33.8487   24.2123 N   0  0  0  0  0  0
  -23.4478  -30.4670   21.5227 C   0  0  2  0  0  0
  -24.9099  -28.8888   20.1103 C   0  0  0  0  0  0
  -22.7538  -29.4626   22.4763 C   0  0  0  0  0  0
  -18.0341  -28.1371   22.8438 C   0  0  0  0  0  0
  -24.1505  -36.7229   23.2649 C   0  0  0  0  0  0
  -26.0065  -30.7213   21.3871 C   0  0  0  0  0  0
  -26.0834  -29.3281   20.7333 C   0  0  0  0  0  0
  -27.2435  -28.4591   20.7477 C   0  0  0  0  0  0
  -26.0235  -26.7845   19.5131 C   0  0  0  0  0  0
  -24.8941  -27.6355   19.4815 C   0  0  0  0  0  0
  -23.6814  -29.7886   20.1423 C   0  0  0  0  0  0
  -25.4142  -36.2992   24.0283 C   0  0  1  0  0  0
  -20.5938  -28.3726   23.1150 C   0  0  2  0  0  0
  -20.6873  -26.9396   22.5365 C   0  0  0  0  0  0
  -19.5881  -26.6289   21.5191 C   0  0  0  0  0  0
  -18.2028  -26.7948   22.1558 C   0  0  0  0  0  0
  -19.1572  -28.8848   23.2834 C   0  0  0  0  0  0
  -18.9443  -30.1435   23.8848 C   0  0  0  0  0  0
  -17.6461  -30.6509   24.0574 C   0  0  0  0  0  0
  -25.9092  -34.9383   23.5020 C   0  0  0  0  0  0
  -16.5342  -29.9016   23.6307 C   0  0  0  0  0  0
  -16.7289  -28.6467   23.0264 C   0  0  0  0  0  0
  -26.4551  -31.6548   25.0644 C   0  0  0  0  0  0
  -25.3697  -31.3740   26.1268 C   0  0  0  0  0  0
  -27.0443  -30.2949   24.6238 C   0  0  0  0  0  0
  -27.6057  -32.4293   25.7471 C   0  0  0  0  0  0
  -27.5567  -37.1767   24.8467 C   0  0  0  0  0  0
  -21.4250  -29.3010   22.3408 N   0  0  0  0  0  0
  -26.4285  -37.3728   23.9409 N   0  0  0  0  0  0
  -24.7166  -31.0320   22.0863 N   0  0  0  0  0  0
  -23.4153  -28.8285   23.3013 O   0  0  0  0  0  0
  -28.2734  -26.1177   20.2459 O   0  0  0  0  0  0
  -26.5659  -34.8899   22.4581 O   0  0  0  0  0  0
  -23.5550  -32.1337   23.7079 O   0  0  0  0  0  0
  -27.6368  -19.9726   22.3146 C   0  0  0  0  0  0
  -27.8713  -21.3160   21.9196 C   0  0  0  0  0  0
  -29.5443  -20.4289   20.4167 C   0  0  0  0  0  0
  -28.7901  -21.6391   20.8845 C   0  0  0  0  0  0
  -29.3022  -18.9945   20.7902 C   0  0  0  0  0  0
  -28.2850  -18.8474   21.7639 C   0  0  0  0  0  0
  -27.1777  -22.3926   22.7376 C   0  0  0  0  0  0
  -30.7906  -20.7112   19.6101 C   0  0  0  0  0  0
  -29.0670  -23.2518   20.4884 C   0  0  0  0  0  0
  -30.1250  -17.6387   20.2704 C   0  0  0  0  0  0
  -27.9879  -24.5856   20.4703 C   0  0  0  0  0  0
  -29.8003  -16.1107   20.5361 N   0  0  0  0  0  0
  -27.8397  -17.2963   22.3833 Cl  0  0  0  0  0  0
  -31.4638  -12.6945   19.2083 H   0  0  0  0  0  0
  -30.3686  -11.6103   20.0307 H   0  0  0  0  0  0
  -29.8154  -11.7120   17.5713 H   0  0  0  0  0  0
  -29.6311  -13.4416   17.6762 H   0  0  0  0  0  0
  -27.8787  -11.2742   18.9070 H   0  0  0  0  0  0
  -27.3970  -12.4874   17.7690 H   0  0  0  0  0  0
  -27.5690  -14.2523   19.3676 H   0  0  0  0  0  0
  -28.7070  -12.3190   21.4357 H   0  0  0  0  0  0
  -28.3428  -14.0036   21.7186 H   0  0  0  0  0  0
  -25.2775   -9.5671   22.4780 H   0  0  0  0  0  0
  -23.9998   -7.4626   22.7466 H   0  0  0  0  0  0
  -21.0861   -8.8755   19.8932 H   0  0  0  0  0  0
  -22.3723  -10.9644   19.6135 H   0  0  0  0  0  0
  -21.2046   -7.6167   23.9745 H   0  0  0  0  0  0
  -21.1468   -6.0519   25.9086 H   0  0  0  0  0  0
  -22.0608   -2.7625   23.2805 H   0  0  0  0  0  0
  -22.4043  -11.9818   22.4813 H   0  0  0  0  0  0
  -21.1062  -13.1138   22.2618 H   0  0  0  0  0  0
  -24.6326  -15.8371   20.5703 H   0  0  0  0  0  0
  -26.2584  -15.6528   20.1387 H   0  0  0  0  0  0
  -26.7251  -32.5337   23.0944 H   0  0  0  0  0  0
  -25.0112  -33.9611   25.0264 H   0  0  0  0  0  0
  -22.7528  -31.2941   21.3572 H   0  0  0  0  0  0
  -23.3750  -35.9579   23.3310 H   0  0  0  0  0  0
  -24.3610  -36.8868   22.2074 H   0  0  0  0  0  0
  -23.7258  -37.6415   23.6703 H   0  0  0  0  0  0
  -26.1502  -31.4773   20.6122 H   0  0  0  0  0  0
  -26.8793  -30.7871   22.0262 H   0  0  0  0  0  0
  -28.1358  -28.7955   21.2594 H   0  0  0  0  0  0
  -25.9245  -25.8254   19.0258 H   0  0  0  0  0  0
  -23.9985  -27.2963   18.9790 H   0  0  0  0  0  0
  -23.8131  -30.5540   19.3750 H   0  0  0  0  0  0
  -22.8025  -29.2175   19.8431 H   0  0  0  0  0  0
  -25.1344  -36.1804   25.0758 H   0  0  0  0  0  0
  -21.0134  -28.3368   24.1235 H   0  0  0  0  0  0
  -20.5871  -26.2364   23.3644 H   0  0  0  0  0  0
  -21.6735  -26.7445   22.1176 H   0  0  0  0  0  0
  -19.6995  -25.6135   21.1315 H   0  0  0  0  0  0
  -19.6892  -27.3002   20.6621 H   0  0  0  0  0  0
  -17.4339  -26.6806   21.3930 H   0  0  0  0  0  0
  -18.0337  -26.0151   22.8952 H   0  0  0  0  0  0
  -19.7903  -30.7286   24.2164 H   0  0  0  0  0  0
  -17.4992  -31.6198   24.5175 H   0  0  0  0  0  0
  -15.5324  -30.2921   23.7619 H   0  0  0  0  0  0
  -15.8774  -28.0765   22.6807 H   0  0  0  0  0  0
  -24.5895  -30.7121   25.7498 H   0  0  0  0  0  0
  -24.8906  -32.2948   26.4589 H   0  0  0  0  0  0
  -25.7931  -30.8910   27.0082 H   0  0  0  0  0  0
  -26.3119  -29.6612   24.1244 H   0  0  0  0  0  0
  -27.4040  -29.7298   25.4844 H   0  0  0  0  0  0
  -27.8996  -30.4142   23.9593 H   0  0  0  0  0  0
  -27.2637  -33.3592   26.2018 H   0  0  0  0  0  0
  -28.3950  -32.6826   25.0383 H   0  0  0  0  0  0
  -28.0628  -31.8405   26.5437 H   0  0  0  0  0  0
  -28.2554  -38.0088   24.7493 H   0  0  0  0  0  0
  -28.1074  -36.2599   24.6320 H   0  0  0  0  0  0
  -27.2274  -37.1444   25.8866 H   0  0  0  0  0  0
  -20.9529  -29.8191   21.6117 H   0  0  0  0  0  0
  -26.0118  -38.2768   24.1439 H   0  0  0  0  0  0
  -26.9366  -19.7823   23.1173 H   0  0  0  0  0  0
  -27.8846  -23.1719   23.0240 H   0  0  0  0  0  0
  -26.7833  -22.0055   23.6762 H   0  0  0  0  0  0
  -26.3375  -22.8204   22.1916 H   0  0  0  0  0  0
  -31.2358  -21.6514   19.9354 H   0  0  0  0  0  0
  -30.5895  -20.7400   18.5424 H   0  0  0  0  0  0
  -31.5518  -19.9588   19.8010 H   0  0  0  0  0  0
  -29.5505  -23.2386   19.5106 H   0  0  0  0  0  0
  -29.8517  -23.5466   21.1859 H   0  0  0  0  0  0
  -31.1671  -17.7663   20.5628 H   0  0  0  0  0  0
  -30.1176  -17.7138   19.1812 H   0  0  0  0  0  0
  -27.5217  -24.6293   21.4501 H   0  0  0  0  0  0
  -27.1780  -24.2958   19.8024 H   0  0  0  0  0  0
  -28.8289  -15.9518   20.7694 H   0  0  0  0  0  0
  1 25  1  0  0  0
  1 30  2  0  0  0
  1 82  1  0  0  0
  2  3  1  0  0  0
  2 25  1  0  0  0
  2 84  1  0  0  0
  2 85  1  0  0  0
  3  4  1  0  0  0
  3 86  1  0  0  0
  3 87  1  0  0  0
  4  5  1  0  0  0
  4 88  1  0  0  0
  4 89  1  0  0  0
  5  6  1  0  0  0
  5 26  1  0  0  0
  5 90  1  0  0  0
  6 25  1  0  0  0
  6 91  1  0  0  0
  6 92  1  0  0  0
  7  8  2  0  0  0
  7 26  1  0  0  0
  7 29  1  0  0  0
  8  9  1  0  0  0
  8 22  1  0  0  0
  9 10  1  0  0  0
  9 27  2  0  0  0
 10 11  2  0  0  0
 10 15  1  0  0  0
 11 12  1  0  0  0
 11 93  1  0  0  0
 12 13  2  0  0  0
 12 94  1  0  0  0
 13 14  1  0  0  0
 13 31  1  0  0  0
 14 15  2  0  0  0
 14 95  1  0  0  0
 15 96  1  0  0  0
 16 17  2  0  0  0
 16 21  1  0  0  0
 16 31  1  0  0  0
 17 18  1  0  0  0
 17 97  1  0  0  0
 18 19  2  0  0  0
 18 98  1  0  0  0
 19 20  1  0  0  0
 19 24  1  0  0  0
 20 21  2  0  0  0
 20 99  1  0  0  0
 21 23  1  0  0  0
 22 28  1  0  0  0
 22 32  2  0  0  0
 26 27  1  0  0  0
 28100  1  0  0  0
 28101  1  0  0  0
 29102  1  0  0  0
 29103  1  0  0  0
 33 34  1  0  0  0
 33 66  1  0  0  0
 33 70  2  0  0  0
 34 36  1  0  0  0
 34 59  1  0  0  0
 34104  1  0  0  0
 35 44  2  0  0  0
 35 45  1  0  0  0
 35 68  1  0  0  0
 36 56  1  0  0  0
 36105  1  0  0  0
 37 39  1  0  0  0
 37 47  1  0  0  0
 37 66  1  0  0  0
 37106  1  0  0  0
 38 43  2  0  0  0
 38 46  1  0  0  0
 38 47  1  0  0  0
 39 64  1  0  0  0
 39 67  2  0  0  0
 40 52  1  0  0  0
 40 53  2  0  0  0
 40 58  1  0  0  0
 41107  1  0  0  0
 41108  1  0  0  0
 41109  1  0  0  0
 41 48  1  0  0  0
 42 43  1  0  0  0
 42 66  1  0  0  0
 42110  1  0  0  0
 42111  1  0  0  0
 43 44  1  0  0  0
 44112  1  0  0  0
 45 46  2  0  0  0
 45113  1  0  0  0
 46114  1  0  0  0
 47115  1  0  0  0
 47116  1  0  0  0
 48 56  1  0  0  0
 48 65  1  0  0  0
 48117  1  0  0  0
 49 50  1  0  0  0
 49 53  1  0  0  0
 49 64  1  0  0  0
 49118  1  0  0  0
 50 51  1  0  0  0
 50119  1  0  0  0
 50120  1  0  0  0
 51 52  1  0  0  0
 51121  1  0  0  0
 51122  1  0  0  0
 52123  1  0  0  0
 52124  1  0  0  0
 53 54  1  0  0  0
 54 55  2  0  0  0
 54125  1  0  0  0
 55 57  1  0  0  0
 55126  1  0  0  0
 56 69  2  0  0  0
 57 58  2  0  0  0
 57127  1  0  0  0
 58128  1  0  0  0
 59 60  1  0  0  0
 59 61  1  0  0  0
 59 62  1  0  0  0
 60129  1  0  0  0
 60130  1  0  0  0
 60131  1  0  0  0
 61132  1  0  0  0
 61133  1  0  0  0
 61134  1  0  0  0
 62135  1  0  0  0
 62136  1  0  0  0
 62137  1  0  0  0
 63 65  1  0  0  0
 63138  1  0  0  0
 63139  1  0  0  0
 63140  1  0  0  0
 64141  1  0  0  0
 65142  1  0  0  0
 68 81  1  0  0  0
 71 72  2  0  0  0
 71 76  1  0  0  0
 71143  1  0  0  0
 72 74  1  0  0  0
 72 77  1  0  0  0
 73 74  2  0  0  0
 73 75  1  0  0  0
 73 78  1  0  0  0
 74 79  1  0  0  0
 75 76  2  0  0  0
 75 80  1  0  0  0
 76 83  1  0  0  0
 77144  1  0  0  0
 77145  1  0  0  0
 77146  1  0  0  0
 78147  1  0  0  0
 78148  1  0  0  0
 78149  1  0  0  0
 79 81  1  0  0  0
 79150  1  0  0  0
 79151  1  0  0  0
 80 82  1  0  0  0
 80152  1  0  0  0
 80153  1  0  0  0
 81154  1  0  0  0
 81155  1  0  0  0
 82156  1  0  0  0
M  ISO  4   1 100  68 101  81 101  82 100
M  END
> <chiral flag>
0

> <version>
0

> <s_m_source_file>
/data/baiqing/PycharmProjects/Reinvent-master-3.2/result/LINK_invent/BTK/process_docking_weight1_custom_sum_contain_oxygen_bond_distance_aromatic_linkinvent_7_9_3/rearranged_h_0035.sdf

> <i_m_source_file_index>
74

> <r_mmod_Potential_Energy-OPLS-2005>
532.482360839844

> <r_mmod_Stretch_Energy-OPLS-2005>
296.806640625

> <r_mmod_Bend_Energy-OPLS-2005>
265.951141357422

> <r_mmod_Torsional_Energy-OPLS-2005>
217.65901184082

> <r_mmod_Improper_Torsional_Energy-OPLS-2005>
6.37784004211426

> <r_mmod_Van_der_Waal_Energy-OPLS-2005>
139.110137939453

> <r_mmod_Electrostatic_Energy-OPLS-2005>
-387.584503173828

> <r_mmod_Solvation_Energy-OPLS-2005>
-199.929122924805

> <b_mmod_Minimization_Converged-OPLS-2005>
0

> <r_mmod_RMS_Derivative-OPLS-2005>
7.99492979049683

$$$$
74
                    3D
 Structure written by MMmdl.
162170  0  0  1  0            999 V2000
  -30.7071  -14.4521   20.6144 C   0  0  0  0  0  0
  -30.4224  -12.3171   19.4010 C   0  0  0  0  0  0
  -29.4851  -12.5141   18.1924 C   0  0  0  0  0  0
  -28.0092  -12.3687   18.6117 C   0  0  0  0  0  0
  -27.6599  -13.2031   19.8723 C   0  0  2  0  0  0
  -28.7017  -12.9699   20.9871 C   0  0  0  0  0  0
  -25.2600  -13.8154   20.5687 C   0  0  0  0  0  0
  -24.1847  -13.0435   20.9186 C   0  0  0  0  0  0
  -24.6395  -11.6896   20.8743 C   0  0  0  0  0  0
  -23.9056  -10.4294   21.0419 C   0  0  0  0  0  0
  -24.3615   -9.4213   21.9196 C   0  0  0  0  0  0
  -23.6302   -8.2242   22.0765 C   0  0  0  0  0  0
  -22.4286   -8.0280   21.3551 C   0  0  0  0  0  0
  -21.9911   -9.0248   20.4648 C   0  0  0  0  0  0
  -22.7233  -10.2133   20.3065 C   0  0  0  0  0  0
  -21.6852   -6.0742   22.5283 C   0  0  0  0  0  0
  -21.4010   -6.5644   23.8212 C   0  0  0  0  0  0
  -21.3654   -5.6803   24.9173 C   0  0  0  0  0  0
  -21.6044   -4.3064   24.7228 C   0  0  0  0  0  0
  -21.8820   -3.8153   23.4350 C   0  0  0  0  0  0
  -21.9193   -4.6972   22.3407 C   0  0  0  0  0  0
  -22.7877  -13.5243   21.1842 C   0  0  0  0  0  0
  -22.1668   -4.2158   21.0987 F   0  0  0  0  0  0
  -21.5620   -3.4547   25.7742 F   0  0  0  0  0  0
  -30.0297  -13.2867   20.4339 N   0  0  0  0  0  0
  -26.3016  -12.9306   20.3345 N   0  0  0  0  0  0
  -25.9310  -11.6474   20.5756 N   0  0  0  0  0  0
  -22.0506  -12.8220   22.0394 N   0  0  0  0  0  0
  -25.4341  -15.1877   20.4125 N   0  0  0  0  0  0
  -31.8162  -14.6693   20.1188 O   0  0  0  0  0  0
  -21.6642   -6.8886   21.4249 O   0  0  0  0  0  0
  -22.3569  -14.5551   20.6712 O   0  0  0  0  0  0
  -24.6134  -31.8685   23.2102 C   0  0  0  0  0  0
  -25.9030  -32.4828   23.8392 C   0  0  1  0  0  0
  -27.2237  -27.4165   20.0948 C   0  0  0  0  0  0
  -25.5891  -33.8622   24.2327 N   0  0  0  0  0  0
  -23.3999  -30.4949   21.5523 C   0  0  2  0  0  0
  -24.8441  -28.9609   20.1152 C   0  0  0  0  0  0
  -22.7401  -29.4670   22.4991 C   0  0  0  0  0  0
  -18.0270  -28.1359   22.8497 C   0  0  0  0  0  0
  -24.1488  -36.7315   23.2638 C   0  0  0  0  0  0
  -25.9317  -30.8266   21.3672 C   0  0  0  0  0  0
  -26.0072  -29.4597   20.7148 C   0  0  0  0  0  0
  -27.1983  -28.6948   20.7025 C   0  0  0  0  0  0
  -26.0372  -26.9364   19.4893 C   0  0  0  0  0  0
  -24.8548  -27.6973   19.5025 C   0  0  0  0  0  0
  -23.6076  -29.8302   20.1661 C   0  0  0  0  0  0
  -25.4117  -36.3113   24.0340 C   0  0  1  0  0  0
  -20.5862  -28.3659   23.1327 C   0  0  2  0  0  0
  -20.6766  -26.9392   22.5420 C   0  0  0  0  0  0
  -19.5756  -26.6385   21.5213 C   0  0  0  0  0  0
  -18.1927  -26.7913   22.1616 C   0  0  0  0  0  0
  -19.1522  -28.8826   23.2902 C   0  0  0  0  0  0
  -18.9460  -30.1425   23.8916 C   0  0  0  0  0  0
  -17.6468  -30.6581   24.0560 C   0  0  0  0  0  0
  -25.9049  -34.9478   23.5138 C   0  0  0  0  0  0
  -16.5356  -29.9097   23.6315 C   0  0  0  0  0  0
  -16.7266  -28.6497   23.0361 C   0  0  0  0  0  0
  -26.4455  -31.6602   25.0714 C   0  0  0  0  0  0
  -25.3701  -31.3722   26.1454 C   0  0  0  0  0  0
  -27.0285  -30.3043   24.6086 C   0  0  0  0  0  0
  -27.6041  -32.4307   25.7475 C   0  0  0  0  0  0
  -27.5592  -37.1807   24.8464 C   0  0  0  0  0  0
  -21.4128  -29.3026   22.3732 N   0  0  0  0  0  0
  -26.4302  -37.3796   23.9410 N   0  0  0  0  0  0
  -24.6669  -31.0790   22.0999 N   0  0  0  0  0  0
  -23.4183  -28.8205   23.3012 O   0  0  0  0  0  0
  -28.3900  -26.6714   20.1109 O   0  0  0  0  0  0
  -26.5611  -34.8920   22.4702 O   0  0  0  0  0  0
  -23.5337  -32.1448   23.7499 O   0  0  0  0  0  0
  -28.6876  -20.8933   21.5912 C   0  0  0  0  0  0
  -30.0175  -22.1595   19.4871 C   0  0  0  0  0  0
  -28.7150  -22.3050   21.5341 C   0  0  0  0  0  0
  -29.9818  -20.7448   19.5432 C   0  0  0  0  0  0
  -29.3211  -20.0915   20.6160 C   0  0  0  0  0  0
  -29.4004  -22.9585   20.4756 C   0  0  0  0  0  0
  -27.9862  -23.0722   22.6262 C   0  0  0  0  0  0
  -30.6742  -19.9630   18.4424 C   0  0  0  0  0  0
  -29.2534  -18.5583   20.7610 C   0  0  0  0  0  0
  -29.5376  -24.4908   20.3966 C   0  0  0  0  0  0
  -30.6244  -17.8650   20.9660 C   0  0  0  0  0  0
  -30.6374  -16.6183   21.8895 C   0  0  0  0  0  0
  -28.2489  -25.2427   19.9967 C   0  0  0  0  0  0
  -30.0589  -15.3890   21.3295 N   0  0  0  0  0  0
  -31.4636  -12.4318   19.0942 H   0  0  0  0  0  0
  -30.3354  -11.3021   19.7911 H   0  0  0  0  0  0
  -29.7199  -11.7898   17.4108 H   0  0  0  0  0  0
  -29.6454  -13.5018   17.7548 H   0  0  0  0  0  0
  -27.8213  -11.3110   18.8045 H   0  0  0  0  0  0
  -27.3540  -12.6485   17.7850 H   0  0  0  0  0  0
  -27.7097  -14.2530   19.5821 H   0  0  0  0  0  0
  -28.6832  -11.9279   21.3098 H   0  0  0  0  0  0
  -28.4553  -13.5515   21.8764 H   0  0  0  0  0  0
  -25.2752   -9.5686   22.4774 H   0  0  0  0  0  0
  -24.0000   -7.4639   22.7492 H   0  0  0  0  0  0
  -21.0835   -8.8778   19.8955 H   0  0  0  0  0  0
  -22.3697  -10.9684   19.6183 H   0  0  0  0  0  0
  -21.2006   -7.6149   23.9720 H   0  0  0  0  0  0
  -21.1470   -6.0528   25.9077 H   0  0  0  0  0  0
  -22.0600   -2.7614   23.2854 H   0  0  0  0  0  0
  -22.4127  -11.9867   22.4744 H   0  0  0  0  0  0
  -21.1137  -13.1259   22.2627 H   0  0  0  0  0  0
  -24.6702  -15.8444   20.5274 H   0  0  0  0  0  0
  -26.2890  -15.6234   20.0895 H   0  0  0  0  0  0
  -26.7093  -32.5538   23.1149 H   0  0  0  0  0  0
  -24.9996  -33.9777   25.0441 H   0  0  0  0  0  0
  -22.6861  -31.3099   21.4161 H   0  0  0  0  0  0
  -23.3754  -35.9647   23.3289 H   0  0  0  0  0  0
  -24.3573  -36.8953   22.2054 H   0  0  0  0  0  0
  -23.7234  -37.6514   23.6665 H   0  0  0  0  0  0
  -26.0432  -31.5880   20.5947 H   0  0  0  0  0  0
  -26.8199  -30.8825   21.9849 H   0  0  0  0  0  0
  -28.0925  -29.0699   21.1801 H   0  0  0  0  0  0
  -25.9995  -25.9750   18.9977 H   0  0  0  0  0  0
  -23.9601  -27.3076   19.0364 H   0  0  0  0  0  0
  -23.7116  -30.6054   19.4066 H   0  0  0  0  0  0
  -22.7282  -29.2529   19.8743 H   0  0  0  0  0  0
  -25.1280  -36.1987   25.0834 H   0  0  0  0  0  0
  -20.9947  -28.3234   24.1451 H   0  0  0  0  0  0
  -20.5678  -26.2262   23.3616 H   0  0  0  0  0  0
  -21.6642  -26.7443   22.1215 H   0  0  0  0  0  0
  -19.6922  -25.6297   21.1234 H   0  0  0  0  0  0
  -19.6704  -27.3191   20.6733 H   0  0  0  0  0  0
  -17.4197  -26.6667   21.4009 H   0  0  0  0  0  0
  -18.0307  -26.0041   22.8997 H   0  0  0  0  0  0
  -19.7939  -30.7212   24.2329 H   0  0  0  0  0  0
  -17.5035  -31.6271   24.5144 H   0  0  0  0  0  0
  -15.5363  -30.3016   23.7627 H   0  0  0  0  0  0
  -15.8655  -28.0827   22.7100 H   0  0  0  0  0  0
  -24.5901  -30.7042   25.7775 H   0  0  0  0  0  0
  -24.8849  -32.2882   26.4836 H   0  0  0  0  0  0
  -25.8028  -30.8935   27.0247 H   0  0  0  0  0  0
  -26.2833  -29.6815   24.1129 H   0  0  0  0  0  0
  -27.4044  -29.7272   25.4541 H   0  0  0  0  0  0
  -27.8664  -30.4356   23.9238 H   0  0  0  0  0  0
  -27.2695  -33.3627   26.2043 H   0  0  0  0  0  0
  -28.3862  -32.6841   25.0298 H   0  0  0  0  0  0
  -28.0687  -31.8421   26.5396 H   0  0  0  0  0  0
  -28.2601  -38.0104   24.7517 H   0  0  0  0  0  0
  -28.1094  -36.2640   24.6285 H   0  0  0  0  0  0
  -27.2298  -37.1454   25.8859 H   0  0  0  0  0  0
  -20.9289  -29.8766   21.6970 H   0  0  0  0  0  0
  -26.0199  -38.2883   24.1410 H   0  0  0  0  0  0
  -28.1664  -20.4135   22.4080 H   0  0  0  0  0  0
  -30.5410  -22.6408   18.6705 H   0  0  0  0  0  0
  -27.9973  -22.5127   23.5620 H   0  0  0  0  0  0
  -26.9446  -23.2234   22.3409 H   0  0  0  0  0  0
  -28.4277  -24.0451   22.8317 H   0  0  0  0  0  0
  -30.6664  -20.5175   17.5034 H   0  0  0  0  0  0
  -30.1833  -19.0108   18.2533 H   0  0  0  0  0  0
  -31.7125  -19.7713   18.7152 H   0  0  0  0  0  0
  -28.7362  -18.1271   19.9019 H   0  0  0  0  0  0
  -28.6180  -18.3308   21.6177 H   0  0  0  0  0  0
  -30.3192  -24.7395   19.6786 H   0  0  0  0  0  0
  -29.9069  -24.8620   21.3521 H   0  0  0  0  0  0
  -31.2827  -18.5928   21.4397 H   0  0  0  0  0  0
  -31.0883  -17.6316   20.0070 H   0  0  0  0  0  0
  -30.1155  -16.8451   22.8199 H   0  0  0  0  0  0
  -31.6669  -16.4112   22.1853 H   0  0  0  0  0  0
  -27.4320  -24.9102   20.6388 H   0  0  0  0  0  0
  -27.9887  -24.9720   18.9728 H   0  0  0  0  0  0
  -29.1356  -15.1338   21.6498 H   0  0  0  0  0  0
  1 25  1  0  0  0
  1 30  2  0  0  0
  1 84  1  0  0  0
  2  3  1  0  0  0
  2 25  1  0  0  0
  2 85  1  0  0  0
  2 86  1  0  0  0
  3  4  1  0  0  0
  3 87  1  0  0  0
  3 88  1  0  0  0
  4  5  1  0  0  0
  4 89  1  0  0  0
  4 90  1  0  0  0
  5  6  1  0  0  0
  5 26  1  0  0  0
  5 91  1  0  0  0
  6 25  1  0  0  0
  6 92  1  0  0  0
  6 93  1  0  0  0
  7  8  2  0  0  0
  7 26  1  0  0  0
  7 29  1  0  0  0
  8  9  1  0  0  0
  8 22  1  0  0  0
  9 10  1  0  0  0
  9 27  2  0  0  0
 10 11  2  0  0  0
 10 15  1  0  0  0
 11 12  1  0  0  0
 11 94  1  0  0  0
 12 13  2  0  0  0
 12 95  1  0  0  0
 13 14  1  0  0  0
 13 31  1  0  0  0
 14 15  2  0  0  0
 14 96  1  0  0  0
 15 97  1  0  0  0
 16 17  2  0  0  0
 16 21  1  0  0  0
 16 31  1  0  0  0
 17 18  1  0  0  0
 17 98  1  0  0  0
 18 19  2  0  0  0
 18 99  1  0  0  0
 19 20  1  0  0  0
 19 24  1  0  0  0
 20 21  2  0  0  0
 20100  1  0  0  0
 21 23  1  0  0  0
 22 28  1  0  0  0
 22 32  2  0  0  0
 26 27  1  0  0  0
 28101  1  0  0  0
 28102  1  0  0  0
 29103  1  0  0  0
 29104  1  0  0  0
 33 34  1  0  0  0
 33 66  1  0  0  0
 33 70  2  0  0  0
 34 36  1  0  0  0
 34 59  1  0  0  0
 34105  1  0  0  0
 35 44  2  0  0  0
 35 45  1  0  0  0
 35 68  1  0  0  0
 36 56  1  0  0  0
 36106  1  0  0  0
 37 39  1  0  0  0
 37 47  1  0  0  0
 37 66  1  0  0  0
 37107  1  0  0  0
 38 43  2  0  0  0
 38 46  1  0  0  0
 38 47  1  0  0  0
 39 64  1  0  0  0
 39 67  2  0  0  0
 40 52  1  0  0  0
 40 53  2  0  0  0
 40 58  1  0  0  0
 41108  1  0  0  0
 41109  1  0  0  0
 41110  1  0  0  0
 41 48  1  0  0  0
 42 43  1  0  0  0
 42 66  1  0  0  0
 42111  1  0  0  0
 42112  1  0  0  0
 43 44  1  0  0  0
 44113  1  0  0  0
 45 46  2  0  0  0
 45114  1  0  0  0
 46115  1  0  0  0
 47116  1  0  0  0
 47117  1  0  0  0
 48 56  1  0  0  0
 48 65  1  0  0  0
 48118  1  0  0  0
 49 50  1  0  0  0
 49 53  1  0  0  0
 49 64  1  0  0  0
 49119  1  0  0  0
 50 51  1  0  0  0
 50120  1  0  0  0
 50121  1  0  0  0
 51 52  1  0  0  0
 51122  1  0  0  0
 51123  1  0  0  0
 52124  1  0  0  0
 52125  1  0  0  0
 53 54  1  0  0  0
 54 55  2  0  0  0
 54126  1  0  0  0
 55 57  1  0  0  0
 55127  1  0  0  0
 56 69  2  0  0  0
 57 58  2  0  0  0
 57128  1  0  0  0
 58129  1  0  0  0
 59 60  1  0  0  0
 59 61  1  0  0  0
 59 62  1  0  0  0
 60130  1  0  0  0
 60131  1  0  0  0
 60132  1  0  0  0
 61133  1  0  0  0
 61134  1  0  0  0
 61135  1  0  0  0
 62136  1  0  0  0
 62137  1  0  0  0
 62138  1  0  0  0
 63 65  1  0  0  0
 63139  1  0  0  0
 63140  1  0  0  0
 63141  1  0  0  0
 64142  1  0  0  0
 65143  1  0  0  0
 68 83  1  0  0  0
 71 73  2  0  0  0
 71 75  1  0  0  0
 71144  1  0  0  0
 72 74  1  0  0  0
 72 76  2  0  0  0
 72145  1  0  0  0
 73 76  1  0  0  0
 73 77  1  0  0  0
 74 75  2  0  0  0
 74 78  1  0  0  0
 75 79  1  0  0  0
 76 80  1  0  0  0
 77146  1  0  0  0
 77147  1  0  0  0
 77148  1  0  0  0
 78149  1  0  0  0
 78150  1  0  0  0
 78151  1  0  0  0
 79 81  1  0  0  0
 79152  1  0  0  0
 79153  1  0  0  0
 80 83  1  0  0  0
 80154  1  0  0  0
 80155  1  0  0  0
 81 82  1  0  0  0
 81156  1  0  0  0
 81157  1  0  0  0
 82 84  1  0  0  0
 82158  1  0  0  0
 82159  1  0  0  0
 83160  1  0  0  0
 83161  1  0  0  0
 84162  1  0  0  0
M  ISO  4   1 100  68 101  83 101  84 100
M  END
> <chiral flag>
0

> <version>
0

> <s_m_source_file>
/data/baiqing/PycharmProjects/Reinvent-master-3.2/result/LINK_invent/BTK/process_docking_weight1_custom_sum_contain_oxygen_bond_distance_aromatic_linkinvent_7_9_3/rearranged_h_0035.sdf

> <i_m_source_file_index>
75

> <r_mmod_Potential_Energy-OPLS-2005>
-80.2571487426758

> <r_mmod_Stretch_Energy-OPLS-2005>
38.8627891540527

> <r_mmod_Bend_Energy-OPLS-2005>
97.3522033691406

> <r_mmod_Torsional_Energy-OPLS-2005>
203.789291381836

> <r_mmod_Improper_Torsional_Energy-OPLS-2005>
2.33234667778015

> <r_mmod_Van_der_Waal_Energy-OPLS-2005>
156.094009399414

> <r_mmod_Electrostatic_Energy-OPLS-2005>
-387.924407958984

> <r_mmod_Solvation_Energy-OPLS-2005>
-203.469268798828

> <b_mmod_Minimization_Converged-OPLS-2005>
0

> <r_mmod_RMS_Derivative-OPLS-2005>
2.41371726989746

$$$$
75
                    3D
 Structure written by MMmdl.
169177  0  0  1  0            999 V2000
  -30.7763  -14.3762   20.6880 C   0  0  0  0  0  0
  -30.4204  -12.2999   19.4038 C   0  0  0  0  0  0
  -29.4928  -12.5227   18.1963 C   0  0  0  0  0  0
  -28.0155  -12.3824   18.6077 C   0  0  0  0  0  0
  -27.6661  -13.2079   19.8740 C   0  0  2  0  0  0
  -28.7004  -12.9684   20.9954 C   0  0  0  0  0  0
  -25.2609  -13.8164   20.5668 C   0  0  0  0  0  0
  -24.1852  -13.0443   20.9158 C   0  0  0  0  0  0
  -24.6409  -11.6904   20.8718 C   0  0  0  0  0  0
  -23.9076  -10.4297   21.0393 C   0  0  0  0  0  0
  -24.3623   -9.4211   21.9171 C   0  0  0  0  0  0
  -23.6298   -8.2246   22.0755 C   0  0  0  0  0  0
  -22.4279   -8.0290   21.3551 C   0  0  0  0  0  0
  -21.9922   -9.0255   20.4638 C   0  0  0  0  0  0
  -22.7259  -10.2128   20.3033 C   0  0  0  0  0  0
  -21.6862   -6.0732   22.5285 C   0  0  0  0  0  0
  -21.4021   -6.5638   23.8219 C   0  0  0  0  0  0
  -21.3648   -5.6784   24.9180 C   0  0  0  0  0  0
  -21.6044   -4.3045   24.7224 C   0  0  0  0  0  0
  -21.8824   -3.8146   23.4340 C   0  0  0  0  0  0
  -21.9198   -4.6963   22.3400 C   0  0  0  0  0  0
  -22.7873  -13.5234   21.1836 C   0  0  0  0  0  0
  -22.1668   -4.2156   21.0975 F   0  0  0  0  0  0
  -21.5619   -3.4526   25.7724 F   0  0  0  0  0  0
  -30.0452  -13.2555   20.4582 N   0  0  0  0  0  0
  -26.3044  -12.9333   20.3340 N   0  0  0  0  0  0
  -25.9332  -11.6496   20.5704 N   0  0  0  0  0  0
  -22.0494  -12.8222   22.0374 N   0  0  0  0  0  0
  -25.4349  -15.1879   20.4087 N   0  0  0  0  0  0
  -31.7997  -14.6567   20.0582 O   0  0  0  0  0  0
  -21.6648   -6.8882   21.4246 O   0  0  0  0  0  0
  -22.3570  -14.5547   20.6706 O   0  0  0  0  0  0
  -24.6108  -31.8712   23.2088 C   0  0  0  0  0  0
  -25.8986  -32.4859   23.8412 C   0  0  1  0  0  0
  -27.2385  -27.4585   20.0647 C   0  0  0  0  0  0
  -25.5874  -33.8659   24.2374 N   0  0  0  0  0  0
  -23.3983  -30.4972   21.5472 C   0  0  2  0  0  0
  -24.8402  -28.9648   20.1134 C   0  0  0  0  0  0
  -22.7384  -29.4700   22.4939 C   0  0  0  0  0  0
  -18.0284  -28.1381   22.8484 C   0  0  0  0  0  0
  -24.1497  -36.7304   23.2648 C   0  0  0  0  0  0
  -25.9230  -30.8435   21.3551 C   0  0  0  0  0  0
  -25.9977  -29.4753   20.7098 C   0  0  0  0  0  0
  -27.1940  -28.7272   20.6887 C   0  0  0  0  0  0
  -26.0502  -26.9519   19.4827 C   0  0  0  0  0  0
  -24.8595  -27.6995   19.5035 C   0  0  0  0  0  0
  -23.6036  -29.8287   20.1606 C   0  0  0  0  0  0
  -25.4108  -36.3153   24.0372 C   0  0  1  0  0  0
  -20.5866  -28.3679   23.1277 C   0  0  2  0  0  0
  -20.6770  -26.9418   22.5369 C   0  0  0  0  0  0
  -19.5752  -26.6393   21.5165 C   0  0  0  0  0  0
  -18.1935  -26.7933   22.1582 C   0  0  0  0  0  0
  -19.1532  -28.8830   23.2898 C   0  0  0  0  0  0
  -18.9464  -30.1429   23.8918 C   0  0  0  0  0  0
  -17.6473  -30.6584   24.0573 C   0  0  0  0  0  0
  -25.9017  -34.9515   23.5169 C   0  0  0  0  0  0
  -16.5360  -29.9097   23.6319 C   0  0  0  0  0  0
  -16.7272  -28.6512   23.0331 C   0  0  0  0  0  0
  -26.4419  -31.6621   25.0724 C   0  0  0  0  0  0
  -25.3682  -31.3671   26.1467 C   0  0  0  0  0  0
  -27.0270  -30.3126   24.5989 C   0  0  0  0  0  0
  -27.6019  -32.4301   25.7473 C   0  0  0  0  0  0
  -27.5591  -37.1827   24.8479 C   0  0  0  0  0  0
  -21.4114  -29.3086   22.3705 N   0  0  0  0  0  0
  -26.4318  -37.3820   23.9414 N   0  0  0  0  0  0
  -24.6638  -31.0840   22.0970 N   0  0  0  0  0  0
  -23.4166  -28.8229   23.2963 O   0  0  0  0  0  0
  -28.4586  -26.8113   20.0379 O   0  0  0  0  0  0
  -26.5583  -34.8948   22.4735 O   0  0  0  0  0  0
  -23.5305  -32.1436   23.7492 O   0  0  0  0  0  0
  -30.1017  -23.4730   22.0564 C   0  0  0  0  0  0
  -28.8627  -22.8954   22.0254 C   0  0  0  0  0  0
  -28.1109  -23.5706   21.0166 C   0  0  0  0  0  0
  -28.9166  -24.5449   20.4781 C   0  0  0  0  0  0
  -26.6800  -23.2770   20.6314 C   0  0  0  0  0  0
  -31.4110  -26.4147   22.0370 C   0  0  0  0  0  0
  -28.3708  -21.7876   22.9291 C   0  0  0  0  0  0
  -28.6308  -25.5448   19.3945 C   0  0  0  0  0  0
  -28.2675  -20.4002   22.2631 C   0  0  0  0  0  0
  -29.6299  -19.7599   21.9400 C   0  0  0  0  0  0
  -29.5792  -18.2190   21.8529 C   0  0  0  0  0  0
  -30.9715  -17.5902   21.6491 C   0  0  0  0  0  0
  -31.2949  -25.3677   20.9251 C   0  0  0  0  0  0
  -31.1418  -16.2141   22.3227 C   0  0  0  0  0  0
  -30.1426  -24.4965   21.1313 N   0  0  0  0  0  0
  -30.3609  -15.1393   21.7097 N   0  0  0  0  0  0
  -31.4647  -12.4018   19.0999 H   0  0  0  0  0  0
  -30.3247  -11.2786   19.7764 H   0  0  0  0  0  0
  -29.7320  -11.8113   17.4047 H   0  0  0  0  0  0
  -29.6695  -13.5142   17.7767 H   0  0  0  0  0  0
  -27.8204  -11.3241   18.7866 H   0  0  0  0  0  0
  -27.3693  -12.6748   17.7802 H   0  0  0  0  0  0
  -27.7182  -14.2607   19.5954 H   0  0  0  0  0  0
  -28.6616  -11.9316   21.3314 H   0  0  0  0  0  0
  -28.4385  -13.5636   21.8711 H   0  0  0  0  0  0
  -25.2756   -9.5690   22.4749 H   0  0  0  0  0  0
  -24.0013   -7.4633   22.7466 H   0  0  0  0  0  0
  -21.0866   -8.8760   19.8923 H   0  0  0  0  0  0
  -22.3726  -10.9656   19.6128 H   0  0  0  0  0  0
  -21.2022   -7.6148   23.9732 H   0  0  0  0  0  0
  -21.1458   -6.0504   25.9080 H   0  0  0  0  0  0
  -22.0610   -2.7612   23.2832 H   0  0  0  0  0  0
  -22.4080  -11.9864   22.4744 H   0  0  0  0  0  0
  -21.1088  -13.1245   22.2510 H   0  0  0  0  0  0
  -24.6759  -15.8499   20.5261 H   0  0  0  0  0  0
  -26.2991  -15.6233   20.1090 H   0  0  0  0  0  0
  -26.7070  -32.5568   23.1195 H   0  0  0  0  0  0
  -25.0145  -33.9873   25.0602 H   0  0  0  0  0  0
  -22.6893  -31.3153   21.4063 H   0  0  0  0  0  0
  -23.3806  -35.9590   23.3331 H   0  0  0  0  0  0
  -24.3608  -36.8855   22.2059 H   0  0  0  0  0  0
  -23.7182  -37.6498   23.6613 H   0  0  0  0  0  0
  -26.0225  -31.6008   20.5759 H   0  0  0  0  0  0
  -26.8199  -30.9085   21.9599 H   0  0  0  0  0  0
  -28.0921  -29.1289   21.1376 H   0  0  0  0  0  0
  -25.9946  -25.9929   18.9969 H   0  0  0  0  0  0
  -23.9675  -27.2998   19.0406 H   0  0  0  0  0  0
  -23.7084  -30.6004   19.3963 H   0  0  0  0  0  0
  -22.7302  -29.2420   19.8712 H   0  0  0  0  0  0
  -25.1285  -36.2054   25.0867 H   0  0  0  0  0  0
  -20.9986  -28.3228   24.1378 H   0  0  0  0  0  0
  -20.5613  -26.2301   23.3560 H   0  0  0  0  0  0
  -21.6648  -26.7428   22.1181 H   0  0  0  0  0  0
  -19.6913  -25.6301   21.1194 H   0  0  0  0  0  0
  -19.6688  -27.3215   20.6704 H   0  0  0  0  0  0
  -17.4195  -26.6680   21.4000 H   0  0  0  0  0  0
  -18.0358  -26.0068   22.8974 H   0  0  0  0  0  0
  -19.7942  -30.7239   24.2290 H   0  0  0  0  0  0
  -17.5037  -31.6258   24.5199 H   0  0  0  0  0  0
  -15.5364  -30.3023   23.7627 H   0  0  0  0  0  0
  -15.8664  -28.0848   22.7016 H   0  0  0  0  0  0
  -24.5924  -30.6934   25.7814 H   0  0  0  0  0  0
  -24.8784  -32.2799   26.4890 H   0  0  0  0  0  0
  -25.8054  -30.8901   27.0247 H   0  0  0  0  0  0
  -26.2816  -29.6918   24.1021 H   0  0  0  0  0  0
  -27.4153  -29.7307   25.4352 H   0  0  0  0  0  0
  -27.8577  -30.4605   23.9074 H   0  0  0  0  0  0
  -27.2716  -33.3644   26.2026 H   0  0  0  0  0  0
  -28.3849  -32.6758   25.0283 H   0  0  0  0  0  0
  -28.0655  -31.8402   26.5392 H   0  0  0  0  0  0
  -28.2630  -38.0119   24.7554 H   0  0  0  0  0  0
  -28.1073  -36.2653   24.6285 H   0  0  0  0  0  0
  -27.2307  -37.1430   25.8885 H   0  0  0  0  0  0
  -20.9230  -29.8888   21.7031 H   0  0  0  0  0  0
  -26.0225  -38.2913   24.1382 H   0  0  0  0  0  0
  -30.9640  -23.2628   22.6787 H   0  0  0  0  0  0
  -26.1700  -22.7017   21.4057 H   0  0  0  0  0  0
  -26.6426  -22.7030   19.7041 H   0  0  0  0  0  0
  -26.1158  -24.1983   20.4939 H   0  0  0  0  0  0
  -32.2198  -27.1150   21.8270 H   0  0  0  0  0  0
  -31.6225  -25.9416   22.9957 H   0  0  0  0  0  0
  -30.4890  -26.9876   22.1382 H   0  0  0  0  0  0
  -27.3932  -22.0772   23.3145 H   0  0  0  0  0  0
  -29.0179  -21.7349   23.8044 H   0  0  0  0  0  0
  -27.8227  -25.2031   18.7545 H   0  0  0  0  0  0
  -29.4791  -25.6183   18.7147 H   0  0  0  0  0  0
  -27.6439  -20.4433   21.3690 H   0  0  0  0  0  0
  -27.7387  -19.7504   22.9605 H   0  0  0  0  0  0
  -30.3357  -20.0356   22.7262 H   0  0  0  0  0  0
  -30.0261  -20.1849   21.0156 H   0  0  0  0  0  0
  -28.9068  -17.8957   21.0563 H   0  0  0  0  0  0
  -29.1491  -17.8354   22.7795 H   0  0  0  0  0  0
  -31.7232  -18.2511   22.0839 H   0  0  0  0  0  0
  -31.2160  -17.5365   20.5863 H   0  0  0  0  0  0
  -32.1979  -24.7567   20.8910 H   0  0  0  0  0  0
  -31.2306  -25.8689   19.9594 H   0  0  0  0  0  0
  -30.8593  -16.2878   23.3725 H   0  0  0  0  0  0
  -32.1977  -15.9374   22.3258 H   0  0  0  0  0  0
  -29.5228  -14.8397   22.1857 H   0  0  0  0  0  0
  1 25  1  0  0  0
  1 30  2  0  0  0
  1 86  1  0  0  0
  2  3  1  0  0  0
  2 25  1  0  0  0
  2 87  1  0  0  0
  2 88  1  0  0  0
  3  4  1  0  0  0
  3 89  1  0  0  0
  3 90  1  0  0  0
  4  5  1  0  0  0
  4 91  1  0  0  0
  4 92  1  0  0  0
  5  6  1  0  0  0
  5 26  1  0  0  0
  5 93  1  0  0  0
  6 25  1  0  0  0
  6 94  1  0  0  0
  6 95  1  0  0  0
  7  8  2  0  0  0
  7 26  1  0  0  0
  7 29  1  0  0  0
  8  9  1  0  0  0
  8 22  1  0  0  0
  9 10  1  0  0  0
  9 27  2  0  0  0
 10 11  2  0  0  0
 10 15  1  0  0  0
 11 12  1  0  0  0
 11 96  1  0  0  0
 12 13  2  0  0  0
 12 97  1  0  0  0
 13 14  1  0  0  0
 13 31  1  0  0  0
 14 15  2  0  0  0
 14 98  1  0  0  0
 15 99  1  0  0  0
 16 17  2  0  0  0
 16 21  1  0  0  0
 16 31  1  0  0  0
 17 18  1  0  0  0
 17100  1  0  0  0
 18 19  2  0  0  0
 18101  1  0  0  0
 19 20  1  0  0  0
 19 24  1  0  0  0
 20 21  2  0  0  0
 20102  1  0  0  0
 21 23  1  0  0  0
 22 28  1  0  0  0
 22 32  2  0  0  0
 26 27  1  0  0  0
 28103  1  0  0  0
 28104  1  0  0  0
 29105  1  0  0  0
 29106  1  0  0  0
 33 34  1  0  0  0
 33 66  1  0  0  0
 33 70  2  0  0  0
 34 36  1  0  0  0
 34 59  1  0  0  0
 34107  1  0  0  0
 35 44  2  0  0  0
 35 45  1  0  0  0
 35 68  1  0  0  0
 36 56  1  0  0  0
 36108  1  0  0  0
 37 39  1  0  0  0
 37 47  1  0  0  0
 37 66  1  0  0  0
 37109  1  0  0  0
 38 43  2  0  0  0
 38 46  1  0  0  0
 38 47  1  0  0  0
 39 64  1  0  0  0
 39 67  2  0  0  0
 40 52  1  0  0  0
 40 53  2  0  0  0
 40 58  1  0  0  0
 41110  1  0  0  0
 41111  1  0  0  0
 41112  1  0  0  0
 41 48  1  0  0  0
 42 43  1  0  0  0
 42 66  1  0  0  0
 42113  1  0  0  0
 42114  1  0  0  0
 43 44  1  0  0  0
 44115  1  0  0  0
 45 46  2  0  0  0
 45116  1  0  0  0
 46117  1  0  0  0
 47118  1  0  0  0
 47119  1  0  0  0
 48 56  1  0  0  0
 48 65  1  0  0  0
 48120  1  0  0  0
 49 50  1  0  0  0
 49 53  1  0  0  0
 49 64  1  0  0  0
 49121  1  0  0  0
 50 51  1  0  0  0
 50122  1  0  0  0
 50123  1  0  0  0
 51 52  1  0  0  0
 51124  1  0  0  0
 51125  1  0  0  0
 52126  1  0  0  0
 52127  1  0  0  0
 53 54  1  0  0  0
 54 55  2  0  0  0
 54128  1  0  0  0
 55 57  1  0  0  0
 55129  1  0  0  0
 56 69  2  0  0  0
 57 58  2  0  0  0
 57130  1  0  0  0
 58131  1  0  0  0
 59 60  1  0  0  0
 59 61  1  0  0  0
 59 62  1  0  0  0
 60132  1  0  0  0
 60133  1  0  0  0
 60134  1  0  0  0
 61135  1  0  0  0
 61136  1  0  0  0
 61137  1  0  0  0
 62138  1  0  0  0
 62139  1  0  0  0
 62140  1  0  0  0
 63 65  1  0  0  0
 63141  1  0  0  0
 63142  1  0  0  0
 63143  1  0  0  0
 64144  1  0  0  0
 65145  1  0  0  0
 68 78  1  0  0  0
 71 72  2  0  0  0
 71 85  1  0  0  0
 71146  1  0  0  0
 72 73  1  0  0  0
 72 77  1  0  0  0
 73 74  2  0  0  0
 73 75  1  0  0  0
 74 78  1  0  0  0
 74 85  1  0  0  0
 75147  1  0  0  0
 75148  1  0  0  0
 75149  1  0  0  0
 76 83  1  0  0  0
 76150  1  0  0  0
 76151  1  0  0  0
 76152  1  0  0  0
 77 79  1  0  0  0
 77153  1  0  0  0
 77154  1  0  0  0
 78155  1  0  0  0
 78156  1  0  0  0
 79 80  1  0  0  0
 79157  1  0  0  0
 79158  1  0  0  0
 80 81  1  0  0  0
 80159  1  0  0  0
 80160  1  0  0  0
 81 82  1  0  0  0
 81161  1  0  0  0
 81162  1  0  0  0
 82 84  1  0  0  0
 82163  1  0  0  0
 82164  1  0  0  0
 83 85  1  0  0  0
 83165  1  0  0  0
 83166  1  0  0  0
 84 86  1  0  0  0
 84167  1  0  0  0
 84168  1  0  0  0
 86169  1  0  0  0
M  ISO  4   1 100  68 101  78 101  86 100
M  END
> <chiral flag>
0

> <version>
0

> <s_m_source_file>
/data/baiqing/PycharmProjects/Reinvent-master-3.2/result/LINK_invent/BTK/process_docking_weight1_custom_sum_contain_oxygen_bond_distance_aromatic_linkinvent_7_9_3/rearranged_h_0035.sdf

> <i_m_source_file_index>
76

> <r_mmod_Potential_Energy-OPLS-2005>
-80.5785675048828

> <r_mmod_Stretch_Energy-OPLS-2005>
32.3870048522949

> <r_mmod_Bend_Energy-OPLS-2005>
109.677627563477

> <r_mmod_Torsional_Energy-OPLS-2005>
222.642196655273

> <r_mmod_Improper_Torsional_Energy-OPLS-2005>
2.31402063369751

> <r_mmod_Van_der_Waal_Energy-OPLS-2005>
125.179183959961

> <r_mmod_Electrostatic_Energy-OPLS-2005>
-375.807769775391

> <r_mmod_Solvation_Energy-OPLS-2005>
-205.339416503906

> <b_mmod_Minimization_Converged-OPLS-2005>
0

> <r_mmod_RMS_Derivative-OPLS-2005>
3.05807900428772

$$$$
76
                    3D
 Structure written by MMmdl.
160168  0  0  1  0            999 V2000
  -30.7174  -14.4669   20.5942 C   0  0  0  0  0  0
  -30.4298  -12.3173   19.4168 C   0  0  0  0  0  0
  -29.4941  -12.5085   18.2062 C   0  0  0  0  0  0
  -28.0133  -12.3771   18.6172 C   0  0  0  0  0  0
  -27.6626  -13.2140   19.8783 C   0  0  2  0  0  0
  -28.7076  -12.9922   20.9956 C   0  0  0  0  0  0
  -25.2581  -13.8202   20.5733 C   0  0  0  0  0  0
  -24.1841  -13.0473   20.9238 C   0  0  0  0  0  0
  -24.6411  -11.6935   20.8783 C   0  0  0  0  0  0
  -23.9092  -10.4317   21.0447 C   0  0  0  0  0  0
  -24.3638   -9.4223   21.9213 C   0  0  0  0  0  0
  -23.6332   -8.2239   22.0749 C   0  0  0  0  0  0
  -22.4313   -8.0292   21.3553 C   0  0  0  0  0  0
  -21.9954   -9.0278   20.4655 C   0  0  0  0  0  0
  -22.7272  -10.2159   20.3079 C   0  0  0  0  0  0
  -21.6852   -6.0779   22.5325 C   0  0  0  0  0  0
  -21.3981   -6.5669   23.8260 C   0  0  0  0  0  0
  -21.3650   -5.6805   24.9222 C   0  0  0  0  0  0
  -21.6047   -4.3068   24.7255 C   0  0  0  0  0  0
  -21.8811   -3.8188   23.4366 C   0  0  0  0  0  0
  -21.9185   -4.7012   22.3434 C   0  0  0  0  0  0
  -22.7851  -13.5252   21.1885 C   0  0  0  0  0  0
  -22.1659   -4.2211   21.1003 F   0  0  0  0  0  0
  -21.5637   -3.4530   25.7754 F   0  0  0  0  0  0
  -30.0384  -13.2970   20.4451 N   0  0  0  0  0  0
  -26.3042  -12.9386   20.3417 N   0  0  0  0  0  0
  -25.9341  -11.6533   20.5802 N   0  0  0  0  0  0
  -22.0461  -12.8241   22.0415 N   0  0  0  0  0  0
  -25.4253  -15.1934   20.4100 N   0  0  0  0  0  0
  -31.8387  -14.6491   20.1123 O   0  0  0  0  0  0
  -21.6648   -6.8914   21.4277 O   0  0  0  0  0  0
  -22.3541  -14.5567   20.6724 O   0  0  0  0  0  0
  -24.6154  -31.8681   23.2100 C   0  0  0  0  0  0
  -25.9042  -32.4827   23.8387 C   0  0  1  0  0  0
  -27.2138  -27.4133   20.1005 C   0  0  0  0  0  0
  -25.5889  -33.8621   24.2302 N   0  0  0  0  0  0
  -23.4034  -30.4941   21.5520 C   0  0  2  0  0  0
  -24.8466  -28.9698   20.1068 C   0  0  0  0  0  0
  -22.7423  -29.4640   22.4976 C   0  0  0  0  0  0
  -18.0266  -28.1390   22.8493 C   0  0  0  0  0  0
  -24.1490  -36.7320   23.2642 C   0  0  0  0  0  0
  -25.9356  -30.8280   21.3686 C   0  0  0  0  0  0
  -26.0102  -29.4650   20.7098 C   0  0  0  0  0  0
  -27.1980  -28.6947   20.7031 C   0  0  0  0  0  0
  -26.0377  -26.9553   19.4617 C   0  0  0  0  0  0
  -24.8577  -27.7161   19.4761 C   0  0  0  0  0  0
  -23.6112  -29.8379   20.1626 C   0  0  0  0  0  0
  -25.4112  -36.3110   24.0329 C   0  0  1  0  0  0
  -20.5861  -28.3655   23.1322 C   0  0  2  0  0  0
  -20.6757  -26.9386   22.5427 C   0  0  0  0  0  0
  -19.5728  -26.6384   21.5228 C   0  0  0  0  0  0
  -18.1907  -26.7932   22.1638 C   0  0  0  0  0  0
  -19.1525  -28.8841   23.2900 C   0  0  0  0  0  0
  -18.9457  -30.1454   23.8897 C   0  0  0  0  0  0
  -17.6458  -30.6593   24.0569 C   0  0  0  0  0  0
  -25.9042  -34.9478   23.5118 C   0  0  0  0  0  0
  -16.5346  -29.9094   23.6338 C   0  0  0  0  0  0
  -16.7260  -28.6527   23.0337 C   0  0  0  0  0  0
  -26.4456  -31.6612   25.0722 C   0  0  0  0  0  0
  -25.3705  -31.3720   26.1460 C   0  0  0  0  0  0
  -27.0290  -30.3054   24.6120 C   0  0  0  0  0  0
  -27.6039  -32.4332   25.7468 C   0  0  0  0  0  0
  -27.5578  -37.1811   24.8461 C   0  0  0  0  0  0
  -21.4150  -29.3017   22.3729 N   0  0  0  0  0  0
  -26.4295  -37.3796   23.9402 N   0  0  0  0  0  0
  -24.6702  -31.0778   22.1016 N   0  0  0  0  0  0
  -23.4198  -28.8173   23.3014 O   0  0  0  0  0  0
  -28.3509  -26.6255   20.1643 O   0  0  0  0  0  0
  -26.5628  -34.8930   22.4693 O   0  0  0  0  0  0
  -23.5347  -32.1447   23.7486 O   0  0  0  0  0  0
  -29.7402  -21.8402   20.7774 C   0  0  0  0  0  0
  -27.7104  -22.3029   21.5377 C   0  0  0  0  0  0
  -28.8599  -22.9115   21.1141 C   0  0  0  0  0  0
  -29.1139  -20.6290   20.9536 C   0  0  0  0  0  0
  -26.6021  -19.8639   23.2836 C   0  0  0  0  0  0
  -29.1440  -24.4126   21.0301 C   0  0  0  0  0  0
  -29.6737  -19.2655   20.5700 C   0  0  0  0  0  0
  -29.4151  -17.9713   21.4002 C   0  0  0  0  0  0
  -26.7524  -20.0142   21.7655 C   0  0  0  0  0  0
  -30.4905  -16.8920   21.0795 C   0  0  0  0  0  0
  -28.1359  -25.1941   20.1579 C   0  0  0  0  0  0
  -27.8367  -20.9236   21.4311 N   0  0  0  0  0  0
  -30.0424  -15.4896   21.1589 N   0  0  0  0  0  0
  -31.4667  -12.4363   19.0949 H   0  0  0  0  0  0
  -30.3558  -11.3044   19.8146 H   0  0  0  0  0  0
  -29.7301  -11.7807   17.4283 H   0  0  0  0  0  0
  -29.6687  -13.4911   17.7653 H   0  0  0  0  0  0
  -27.8078  -11.3219   18.8025 H   0  0  0  0  0  0
  -27.3693  -12.6679   17.7856 H   0  0  0  0  0  0
  -27.7059  -14.2628   19.5839 H   0  0  0  0  0  0
  -28.6877  -11.9546   21.3322 H   0  0  0  0  0  0
  -28.4753  -13.5923   21.8759 H   0  0  0  0  0  0
  -25.2765   -9.5704   22.4811 H   0  0  0  0  0  0
  -24.0079   -7.4601   22.7401 H   0  0  0  0  0  0
  -21.0910   -8.8781   19.8940 H   0  0  0  0  0  0
  -22.3738  -10.9706   19.6188 H   0  0  0  0  0  0
  -21.1924   -7.6166   23.9794 H   0  0  0  0  0  0
  -21.1486   -6.0524   25.9126 H   0  0  0  0  0  0
  -22.0590   -2.7657   23.2856 H   0  0  0  0  0  0
  -22.4040  -11.9913   22.4877 H   0  0  0  0  0  0
  -21.1068  -13.1281   22.2547 H   0  0  0  0  0  0
  -24.6489  -15.8409   20.4853 H   0  0  0  0  0  0
  -26.2800  -15.6383   20.0993 H   0  0  0  0  0  0
  -26.7109  -32.5527   23.1145 H   0  0  0  0  0  0
  -24.9970  -33.9776   25.0402 H   0  0  0  0  0  0
  -22.6916  -31.3113   21.4181 H   0  0  0  0  0  0
  -23.3749  -35.9659   23.3324 H   0  0  0  0  0  0
  -24.3590  -36.8930   22.2057 H   0  0  0  0  0  0
  -23.7253  -37.6530   23.6658 H   0  0  0  0  0  0
  -26.0556  -31.5962   20.6039 H   0  0  0  0  0  0
  -26.8214  -30.8749   21.9899 H   0  0  0  0  0  0
  -28.0910  -29.0647   21.1878 H   0  0  0  0  0  0
  -26.0088  -26.0023   18.9526 H   0  0  0  0  0  0
  -23.9674  -27.3353   18.9943 H   0  0  0  0  0  0
  -23.7218  -30.6202   19.4109 H   0  0  0  0  0  0
  -22.7333  -29.2635   19.8605 H   0  0  0  0  0  0
  -25.1295  -36.1973   25.0825 H   0  0  0  0  0  0
  -20.9946  -28.3220   24.1442 H   0  0  0  0  0  0
  -20.5679  -26.2250   23.3611 H   0  0  0  0  0  0
  -21.6620  -26.7437   22.1196 H   0  0  0  0  0  0
  -19.6887  -25.6302   21.1234 H   0  0  0  0  0  0
  -19.6676  -27.3219   20.6778 H   0  0  0  0  0  0
  -17.4174  -26.6678   21.4038 H   0  0  0  0  0  0
  -18.0303  -26.0077   22.9039 H   0  0  0  0  0  0
  -19.7930  -30.7276   24.2248 H   0  0  0  0  0  0
  -17.5014  -31.6267   24.5175 H   0  0  0  0  0  0
  -15.5344  -30.2998   23.7672 H   0  0  0  0  0  0
  -15.8654  -28.0865   22.7016 H   0  0  0  0  0  0
  -24.5862  -30.7100   25.7770 H   0  0  0  0  0  0
  -24.8909  -32.2877   26.4933 H   0  0  0  0  0  0
  -25.8030  -30.8844   27.0206 H   0  0  0  0  0  0
  -26.2839  -29.6815   24.1175 H   0  0  0  0  0  0
  -27.4054  -29.7298   25.4588 H   0  0  0  0  0  0
  -27.8674  -30.4375   23.9277 H   0  0  0  0  0  0
  -27.2676  -33.3634   26.2063 H   0  0  0  0  0  0
  -28.3822  -32.6901   25.0264 H   0  0  0  0  0  0
  -28.0740  -31.8448   26.5362 H   0  0  0  0  0  0
  -28.2595  -38.0108   24.7518 H   0  0  0  0  0  0
  -28.1070  -36.2643   24.6274 H   0  0  0  0  0  0
  -27.2297  -37.1449   25.8863 H   0  0  0  0  0  0
  -20.9314  -29.8749   21.6958 H   0  0  0  0  0  0
  -26.0185  -38.2870   24.1424 H   0  0  0  0  0  0
  -30.7461  -21.9543   20.3961 H   0  0  0  0  0  0
  -26.7830  -22.7330   21.8962 H   0  0  0  0  0  0
  -25.8127  -19.1543   23.5284 H   0  0  0  0  0  0
  -26.3447  -20.8170   23.7465 H   0  0  0  0  0  0
  -27.5260  -19.5092   23.7408 H   0  0  0  0  0  0
  -30.1526  -24.5684   20.6478 H   0  0  0  0  0  0
  -29.1285  -24.8201   22.0422 H   0  0  0  0  0  0
  -30.7565  -19.3956   20.5243 H   0  0  0  0  0  0
  -29.3806  -19.0560   19.5411 H   0  0  0  0  0  0
  -28.4273  -17.5671   21.1842 H   0  0  0  0  0  0
  -29.4381  -18.1925   22.4676 H   0  0  0  0  0  0
  -25.8274  -20.4086   21.3414 H   0  0  0  0  0  0
  -26.9000  -19.0528   21.2839 H   0  0  0  0  0  0
  -31.3575  -17.0285   21.7282 H   0  0  0  0  0  0
  -30.8518  -17.0604   20.0617 H   0  0  0  0  0  0
  -27.1505  -24.9495   20.5563 H   0  0  0  0  0  0
  -28.1657  -24.8288   19.1303 H   0  0  0  0  0  0
  -29.1244  -15.2940   21.5286 H   0  0  0  0  0  0
  1 25  1  0  0  0
  1 30  2  0  0  0
  1 83  1  0  0  0
  2  3  1  0  0  0
  2 25  1  0  0  0
  2 84  1  0  0  0
  2 85  1  0  0  0
  3  4  1  0  0  0
  3 86  1  0  0  0
  3 87  1  0  0  0
  4  5  1  0  0  0
  4 88  1  0  0  0
  4 89  1  0  0  0
  5  6  1  0  0  0
  5 26  1  0  0  0
  5 90  1  0  0  0
  6 25  1  0  0  0
  6 91  1  0  0  0
  6 92  1  0  0  0
  7  8  2  0  0  0
  7 26  1  0  0  0
  7 29  1  0  0  0
  8  9  1  0  0  0
  8 22  1  0  0  0
  9 10  1  0  0  0
  9 27  2  0  0  0
 10 11  2  0  0  0
 10 15  1  0  0  0
 11 12  1  0  0  0
 11 93  1  0  0  0
 12 13  2  0  0  0
 12 94  1  0  0  0
 13 14  1  0  0  0
 13 31  1  0  0  0
 14 15  2  0  0  0
 14 95  1  0  0  0
 15 96  1  0  0  0
 16 17  2  0  0  0
 16 21  1  0  0  0
 16 31  1  0  0  0
 17 18  1  0  0  0
 17 97  1  0  0  0
 18 19  2  0  0  0
 18 98  1  0  0  0
 19 20  1  0  0  0
 19 24  1  0  0  0
 20 21  2  0  0  0
 20 99  1  0  0  0
 21 23  1  0  0  0
 22 28  1  0  0  0
 22 32  2  0  0  0
 26 27  1  0  0  0
 28100  1  0  0  0
 28101  1  0  0  0
 29102  1  0  0  0
 29103  1  0  0  0
 33 34  1  0  0  0
 33 66  1  0  0  0
 33 70  2  0  0  0
 34 36  1  0  0  0
 34 59  1  0  0  0
 34104  1  0  0  0
 35 44  2  0  0  0
 35 45  1  0  0  0
 35 68  1  0  0  0
 36 56  1  0  0  0
 36105  1  0  0  0
 37 39  1  0  0  0
 37 47  1  0  0  0
 37 66  1  0  0  0
 37106  1  0  0  0
 38 43  2  0  0  0
 38 46  1  0  0  0
 38 47  1  0  0  0
 39 64  1  0  0  0
 39 67  2  0  0  0
 40 52  1  0  0  0
 40 53  2  0  0  0
 40 58  1  0  0  0
 41107  1  0  0  0
 41108  1  0  0  0
 41109  1  0  0  0
 41 48  1  0  0  0
 42 43  1  0  0  0
 42 66  1  0  0  0
 42110  1  0  0  0
 42111  1  0  0  0
 43 44  1  0  0  0
 44112  1  0  0  0
 45 46  2  0  0  0
 45113  1  0  0  0
 46114  1  0  0  0
 47115  1  0  0  0
 47116  1  0  0  0
 48 56  1  0  0  0
 48 65  1  0  0  0
 48117  1  0  0  0
 49 50  1  0  0  0
 49 53  1  0  0  0
 49 64  1  0  0  0
 49118  1  0  0  0
 50 51  1  0  0  0
 50119  1  0  0  0
 50120  1  0  0  0
 51 52  1  0  0  0
 51121  1  0  0  0
 51122  1  0  0  0
 52123  1  0  0  0
 52124  1  0  0  0
 53 54  1  0  0  0
 54 55  2  0  0  0
 54125  1  0  0  0
 55 57  1  0  0  0
 55126  1  0  0  0
 56 69  2  0  0  0
 57 58  2  0  0  0
 57127  1  0  0  0
 58128  1  0  0  0
 59 60  1  0  0  0
 59 61  1  0  0  0
 59 62  1  0  0  0
 60129  1  0  0  0
 60130  1  0  0  0
 60131  1  0  0  0
 61132  1  0  0  0
 61133  1  0  0  0
 61134  1  0  0  0
 62135  1  0  0  0
 62136  1  0  0  0
 62137  1  0  0  0
 63 65  1  0  0  0
 63138  1  0  0  0
 63139  1  0  0  0
 63140  1  0  0  0
 64141  1  0  0  0
 65142  1  0  0  0
 68 81  1  0  0  0
 71 73  1  0  0  0
 71 74  2  0  0  0
 71143  1  0  0  0
 72 73  2  0  0  0
 72 82  1  0  0  0
 72144  1  0  0  0
 73 76  1  0  0  0
 74 77  1  0  0  0
 74 82  1  0  0  0
 75 79  1  0  0  0
 75145  1  0  0  0
 75146  1  0  0  0
 75147  1  0  0  0
 76 81  1  0  0  0
 76148  1  0  0  0
 76149  1  0  0  0
 77 78  1  0  0  0
 77150  1  0  0  0
 77151  1  0  0  0
 78 80  1  0  0  0
 78152  1  0  0  0
 78153  1  0  0  0
 79 82  1  0  0  0
 79154  1  0  0  0
 79155  1  0  0  0
 80 83  1  0  0  0
 80156  1  0  0  0
 80157  1  0  0  0
 81158  1  0  0  0
 81159  1  0  0  0
 83160  1  0  0  0
M  ISO  4   1 100  68 101  81 101  83 100
M  END
> <chiral flag>
0

> <version>
0

> <s_m_source_file>
/data/baiqing/PycharmProjects/Reinvent-master-3.2/result/LINK_invent/BTK/process_docking_weight1_custom_sum_contain_oxygen_bond_distance_aromatic_linkinvent_7_9_3/rearranged_h_0035.sdf

> <i_m_source_file_index>
77

> <r_mmod_Potential_Energy-OPLS-2005>
-58.7420692443848

> <r_mmod_Stretch_Energy-OPLS-2005>
38.9471817016602

> <r_mmod_Bend_Energy-OPLS-2005>
111.966438293457

> <r_mmod_Torsional_Energy-OPLS-2005>
225.269271850586

> <r_mmod_Improper_Torsional_Energy-OPLS-2005>
4.04651260375977

> <r_mmod_Van_der_Waal_Energy-OPLS-2005>
132.735580444336

> <r_mmod_Electrostatic_Energy-OPLS-2005>
-377.962677001953

> <r_mmod_Solvation_Energy-OPLS-2005>
-210.313354492188

> <b_mmod_Minimization_Converged-OPLS-2005>
0

> <r_mmod_RMS_Derivative-OPLS-2005>
2.45209836959839

$$$$
77
                    3D
 Structure written by MMmdl.
153161  0  0  1  0            999 V2000
  -30.7761  -14.5811   20.5078 C   0  0  0  0  0  0
  -30.4082  -12.3694   19.4481 C   0  0  0  0  0  0
  -29.4986  -12.5248   18.2167 C   0  0  0  0  0  0
  -28.0250  -12.3627   18.6324 C   0  0  0  0  0  0
  -27.6533  -13.2440   19.8601 C   0  0  2  0  0  0
  -28.7092  -13.1471   20.9870 C   0  0  0  0  0  0
  -25.2570  -13.8224   20.5752 C   0  0  0  0  0  0
  -24.1846  -13.0443   20.9223 C   0  0  0  0  0  0
  -24.6478  -11.6929   20.8789 C   0  0  0  0  0  0
  -23.9155  -10.4298   21.0416 C   0  0  0  0  0  0
  -24.3671   -9.4206   21.9208 C   0  0  0  0  0  0
  -23.6322   -8.2248   22.0769 C   0  0  0  0  0  0
  -22.4311   -8.0307   21.3551 C   0  0  0  0  0  0
  -21.9970   -9.0296   20.4663 C   0  0  0  0  0  0
  -22.7321  -10.2163   20.3074 C   0  0  0  0  0  0
  -21.6841   -6.0776   22.5313 C   0  0  0  0  0  0
  -21.4002   -6.5662   23.8260 C   0  0  0  0  0  0
  -21.3665   -5.6804   24.9213 C   0  0  0  0  0  0
  -21.6030   -4.3066   24.7241 C   0  0  0  0  0  0
  -21.8803   -3.8175   23.4353 C   0  0  0  0  0  0
  -21.9180   -4.7004   22.3425 C   0  0  0  0  0  0
  -22.7871  -13.5220   21.1842 C   0  0  0  0  0  0
  -22.1648   -4.2205   21.0994 F   0  0  0  0  0  0
  -21.5629   -3.4546   25.7737 F   0  0  0  0  0  0
  -30.0268  -13.4359   20.4015 N   0  0  0  0  0  0
  -26.3027  -12.9475   20.3377 N   0  0  0  0  0  0
  -25.9423  -11.6596   20.5794 N   0  0  0  0  0  0
  -22.0483  -12.8241   22.0395 N   0  0  0  0  0  0
  -25.4164  -15.1943   20.4180 N   0  0  0  0  0  0
  -31.9452  -14.6002   20.1340 O   0  0  0  0  0  0
  -21.6650   -6.8915   21.4264 O   0  0  0  0  0  0
  -22.3566  -14.5525   20.6690 O   0  0  0  0  0  0
  -24.6289  -31.8631   23.2025 C   0  0  0  0  0  0
  -25.9134  -32.4800   23.8362 C   0  0  1  0  0  0
  -27.2119  -27.3280   20.0974 C   0  0  0  0  0  0
  -25.5935  -33.8605   24.2282 N   0  0  0  0  0  0
  -23.4199  -30.4899   21.5473 C   0  0  2  0  0  0
  -24.8596  -28.9598   20.1052 C   0  0  0  0  0  0
  -22.7515  -29.4613   22.4919 C   0  0  0  0  0  0
  -18.0276  -28.1426   22.8510 C   0  0  0  0  0  0
  -24.1476  -36.7260   23.2639 C   0  0  0  0  0  0
  -25.9644  -30.7945   21.3791 C   0  0  0  0  0  0
  -26.0314  -29.4257   20.7156 C   0  0  0  0  0  0
  -27.2086  -28.6190   20.7068 C   0  0  0  0  0  0
  -26.0146  -26.9263   19.4514 C   0  0  0  0  0  0
  -24.8565  -27.7183   19.4569 C   0  0  0  0  0  0
  -23.6319  -29.8413   20.1555 C   0  0  0  0  0  0
  -25.4117  -36.3104   24.0341 C   0  0  1  0  0  0
  -20.5906  -28.3715   23.1310 C   0  0  2  0  0  0
  -20.6767  -26.9441   22.5422 C   0  0  0  0  0  0
  -19.5734  -26.6413   21.5238 C   0  0  0  0  0  0
  -18.1907  -26.7951   22.1655 C   0  0  0  0  0  0
  -19.1546  -28.8901   23.2883 C   0  0  0  0  0  0
  -18.9475  -30.1502   23.8890 C   0  0  0  0  0  0
  -17.6485  -30.6618   24.0604 C   0  0  0  0  0  0
  -25.9092  -34.9468   23.5130 C   0  0  0  0  0  0
  -16.5369  -29.9145   23.6338 C   0  0  0  0  0  0
  -16.7271  -28.6569   23.0349 C   0  0  0  0  0  0
  -26.4454  -31.6613   25.0773 C   0  0  0  0  0  0
  -25.3607  -31.3826   26.1462 C   0  0  0  0  0  0
  -27.0265  -30.3009   24.6246 C   0  0  0  0  0  0
  -27.6031  -32.4332   25.7510 C   0  0  0  0  0  0
  -27.5582  -37.1787   24.8483 C   0  0  0  0  0  0
  -21.4223  -29.3046   22.3736 N   0  0  0  0  0  0
  -26.4286  -37.3806   23.9445 N   0  0  0  0  0  0
  -24.6894  -31.0667   22.0971 N   0  0  0  0  0  0
  -23.4239  -28.8132   23.2983 O   0  0  0  0  0  0
  -28.3151  -26.4594   20.1427 O   0  0  0  0  0  0
  -26.5681  -34.8933   22.4714 O   0  0  0  0  0  0
  -23.5452  -32.1416   23.7348 O   0  0  0  0  0  0
  -28.3435  -19.9754   20.9361 C   0  0  0  0  0  0
  -28.9346  -18.6953   21.0979 C   0  0  0  0  0  0
  -30.4033  -20.8525   20.0534 C   0  0  0  0  0  0
  -29.0580  -21.0897   20.4229 C   0  0  0  0  0  0
  -30.2759  -18.4495   20.7339 C   0  0  0  0  0  0
  -31.0043  -19.5692   20.2171 C   0  0  0  0  0  0
  -28.3080  -22.4445   20.2186 C   0  0  0  0  0  0
  -30.9476  -17.0571   20.9948 C   0  0  0  0  0  0
  -29.0208  -23.8606   20.2827 C   0  0  0  0  0  0
  -28.0209  -25.0297   19.9229 C   0  0  0  0  0  0
  -30.1876  -15.7651   20.8592 N   0  0  0  0  0  0
  -32.6693  -19.4212   19.7835 Cl  0  0  0  0  0  0
  -31.4560  -12.4055   19.1461 H   0  0  0  0  0  0
  -30.2605  -11.3850   19.8931 H   0  0  0  0  0  0
  -29.7585  -11.7952   17.4499 H   0  0  0  0  0  0
  -29.6532  -13.5084   17.7672 H   0  0  0  0  0  0
  -27.8651  -11.3070   18.8610 H   0  0  0  0  0  0
  -27.3666  -12.5890   17.7909 H   0  0  0  0  0  0
  -27.6544  -14.2814   19.5177 H   0  0  0  0  0  0
  -28.7095  -12.1463   21.4162 H   0  0  0  0  0  0
  -28.4783  -13.8283   21.8067 H   0  0  0  0  0  0
  -25.2796   -9.5667   22.4818 H   0  0  0  0  0  0
  -24.0022   -7.4632   22.7479 H   0  0  0  0  0  0
  -21.0901   -8.8801   19.8993 H   0  0  0  0  0  0
  -22.3747  -10.9705   19.6200 H   0  0  0  0  0  0
  -21.1981   -7.6183   23.9763 H   0  0  0  0  0  0
  -21.1507   -6.0551   25.9116 H   0  0  0  0  0  0
  -22.0573   -2.7643   23.2843 H   0  0  0  0  0  0
  -22.4032  -11.9892   22.4818 H   0  0  0  0  0  0
  -21.1114  -13.1313   22.2576 H   0  0  0  0  0  0
  -24.6404  -15.8365   20.5347 H   0  0  0  0  0  0
  -26.2588  -15.6493   20.0890 H   0  0  0  0  0  0
  -26.7234  -32.5441   23.1137 H   0  0  0  0  0  0
  -25.0035  -33.9735   25.0393 H   0  0  0  0  0  0
  -22.7109  -31.3100   21.4161 H   0  0  0  0  0  0
  -23.3764  -35.9573   23.3340 H   0  0  0  0  0  0
  -24.3569  -36.8821   22.2042 H   0  0  0  0  0  0
  -23.7144  -37.6442   23.6625 H   0  0  0  0  0  0
  -26.1195  -31.5619   20.6195 H   0  0  0  0  0  0
  -26.8356  -30.8218   22.0213 H   0  0  0  0  0  0
  -28.1040  -28.9693   21.1995 H   0  0  0  0  0  0
  -25.9313  -25.9856   18.9263 H   0  0  0  0  0  0
  -23.9681  -27.3679   18.9495 H   0  0  0  0  0  0
  -23.7596  -30.6285   19.4122 H   0  0  0  0  0  0
  -22.7479  -29.2860   19.8355 H   0  0  0  0  0  0
  -25.1259  -36.1967   25.0826 H   0  0  0  0  0  0
  -20.9984  -28.3266   24.1449 H   0  0  0  0  0  0
  -20.5691  -26.2322   23.3621 H   0  0  0  0  0  0
  -21.6619  -26.7445   22.1215 H   0  0  0  0  0  0
  -19.6869  -25.6319   21.1270 H   0  0  0  0  0  0
  -19.6661  -27.3242   20.6788 H   0  0  0  0  0  0
  -17.4165  -26.6742   21.4052 H   0  0  0  0  0  0
  -18.0272  -26.0094   22.9060 H   0  0  0  0  0  0
  -19.7963  -30.7325   24.2235 H   0  0  0  0  0  0
  -17.5044  -31.6278   24.5246 H   0  0  0  0  0  0
  -15.5377  -30.3076   23.7649 H   0  0  0  0  0  0
  -15.8659  -28.0907   22.7064 H   0  0  0  0  0  0
  -24.5871  -30.7059   25.7796 H   0  0  0  0  0  0
  -24.8688  -32.3025   26.4650 H   0  0  0  0  0  0
  -25.7873  -30.9184   27.0362 H   0  0  0  0  0  0
  -26.2852  -29.6819   24.1176 H   0  0  0  0  0  0
  -27.3833  -29.7228   25.4770 H   0  0  0  0  0  0
  -27.8778  -30.4266   23.9550 H   0  0  0  0  0  0
  -27.2679  -33.3702   26.1962 H   0  0  0  0  0  0
  -28.3861  -32.6757   25.0315 H   0  0  0  0  0  0
  -28.0645  -31.8505   26.5477 H   0  0  0  0  0  0
  -28.2612  -38.0075   24.7579 H   0  0  0  0  0  0
  -28.1056  -36.2621   24.6244 H   0  0  0  0  0  0
  -27.2339  -37.1345   25.8893 H   0  0  0  0  0  0
  -20.9435  -29.8852   21.7026 H   0  0  0  0  0  0
  -26.0175  -38.2890   24.1464 H   0  0  0  0  0  0
  -27.3039  -20.0798   21.2090 H   0  0  0  0  0  0
  -28.3465  -17.8954   21.5281 H   0  0  0  0  0  0
  -30.9983  -21.6554   19.6431 H   0  0  0  0  0  0
  -27.5280  -22.4641   20.9794 H   0  0  0  0  0  0
  -27.7813  -22.3543   19.2648 H   0  0  0  0  0  0
  -31.3245  -17.0765   22.0206 H   0  0  0  0  0  0
  -31.8477  -17.0084   20.3821 H   0  0  0  0  0  0
  -29.8595  -23.9007   19.5874 H   0  0  0  0  0  0
  -29.4257  -24.0051   21.2826 H   0  0  0  0  0  0
  -27.1019  -24.7896   20.4627 H   0  0  0  0  0  0
  -27.7959  -24.9099   18.8610 H   0  0  0  0  0  0
  -29.1971  -15.7744   21.0345 H   0  0  0  0  0  0
  1 25  1  0  0  0
  1 30  2  0  0  0
  1 81  1  0  0  0
  2  3  1  0  0  0
  2 25  1  0  0  0
  2 83  1  0  0  0
  2 84  1  0  0  0
  3  4  1  0  0  0
  3 85  1  0  0  0
  3 86  1  0  0  0
  4  5  1  0  0  0
  4 87  1  0  0  0
  4 88  1  0  0  0
  5  6  1  0  0  0
  5 26  1  0  0  0
  5 89  1  0  0  0
  6 25  1  0  0  0
  6 90  1  0  0  0
  6 91  1  0  0  0
  7  8  2  0  0  0
  7 26  1  0  0  0
  7 29  1  0  0  0
  8  9  1  0  0  0
  8 22  1  0  0  0
  9 10  1  0  0  0
  9 27  2  0  0  0
 10 11  2  0  0  0
 10 15  1  0  0  0
 11 12  1  0  0  0
 11 92  1  0  0  0
 12 13  2  0  0  0
 12 93  1  0  0  0
 13 14  1  0  0  0
 13 31  1  0  0  0
 14 15  2  0  0  0
 14 94  1  0  0  0
 15 95  1  0  0  0
 16 17  2  0  0  0
 16 21  1  0  0  0
 16 31  1  0  0  0
 17 18  1  0  0  0
 17 96  1  0  0  0
 18 19  2  0  0  0
 18 97  1  0  0  0
 19 20  1  0  0  0
 19 24  1  0  0  0
 20 21  2  0  0  0
 20 98  1  0  0  0
 21 23  1  0  0  0
 22 28  1  0  0  0
 22 32  2  0  0  0
 26 27  1  0  0  0
 28 99  1  0  0  0
 28100  1  0  0  0
 29101  1  0  0  0
 29102  1  0  0  0
 33 34  1  0  0  0
 33 66  1  0  0  0
 33 70  2  0  0  0
 34 36  1  0  0  0
 34 59  1  0  0  0
 34103  1  0  0  0
 35 44  2  0  0  0
 35 45  1  0  0  0
 35 68  1  0  0  0
 36 56  1  0  0  0
 36104  1  0  0  0
 37 39  1  0  0  0
 37 47  1  0  0  0
 37 66  1  0  0  0
 37105  1  0  0  0
 38 43  2  0  0  0
 38 46  1  0  0  0
 38 47  1  0  0  0
 39 64  1  0  0  0
 39 67  2  0  0  0
 40 52  1  0  0  0
 40 53  2  0  0  0
 40 58  1  0  0  0
 41106  1  0  0  0
 41107  1  0  0  0
 41108  1  0  0  0
 41 48  1  0  0  0
 42 43  1  0  0  0
 42 66  1  0  0  0
 42109  1  0  0  0
 42110  1  0  0  0
 43 44  1  0  0  0
 44111  1  0  0  0
 45 46  2  0  0  0
 45112  1  0  0  0
 46113  1  0  0  0
 47114  1  0  0  0
 47115  1  0  0  0
 48 56  1  0  0  0
 48 65  1  0  0  0
 48116  1  0  0  0
 49 50  1  0  0  0
 49 53  1  0  0  0
 49 64  1  0  0  0
 49117  1  0  0  0
 50 51  1  0  0  0
 50118  1  0  0  0
 50119  1  0  0  0
 51 52  1  0  0  0
 51120  1  0  0  0
 51121  1  0  0  0
 52122  1  0  0  0
 52123  1  0  0  0
 53 54  1  0  0  0
 54 55  2  0  0  0
 54124  1  0  0  0
 55 57  1  0  0  0
 55125  1  0  0  0
 56 69  2  0  0  0
 57 58  2  0  0  0
 57126  1  0  0  0
 58127  1  0  0  0
 59 60  1  0  0  0
 59 61  1  0  0  0
 59 62  1  0  0  0
 60128  1  0  0  0
 60129  1  0  0  0
 60130  1  0  0  0
 61131  1  0  0  0
 61132  1  0  0  0
 61133  1  0  0  0
 62134  1  0  0  0
 62135  1  0  0  0
 62136  1  0  0  0
 63 65  1  0  0  0
 63137  1  0  0  0
 63138  1  0  0  0
 63139  1  0  0  0
 64140  1  0  0  0
 65141  1  0  0  0
 68 80  1  0  0  0
 71 72  2  0  0  0
 71 74  1  0  0  0
 71142  1  0  0  0
 72 75  1  0  0  0
 72143  1  0  0  0
 73 74  2  0  0  0
 73 76  1  0  0  0
 73144  1  0  0  0
 74 77  1  0  0  0
 75 76  2  0  0  0
 75 78  1  0  0  0
 76 82  1  0  0  0
 77 79  1  0  0  0
 77145  1  0  0  0
 77146  1  0  0  0
 78 81  1  0  0  0
 78147  1  0  0  0
 78148  1  0  0  0
 79 80  1  0  0  0
 79149  1  0  0  0
 79150  1  0  0  0
 80151  1  0  0  0
 80152  1  0  0  0
 81153  1  0  0  0
M  ISO  4   1 100  68 101  80 101  81 100
M  END
> <chiral flag>
0

> <version>
0

> <s_m_source_file>
/data/baiqing/PycharmProjects/Reinvent-master-3.2/result/LINK_invent/BTK/process_docking_weight1_custom_sum_contain_oxygen_bond_distance_aromatic_linkinvent_7_9_3/rearranged_h_0035.sdf

> <i_m_source_file_index>
78

> <r_mmod_Potential_Energy-OPLS-2005>
24.9444370269775

> <r_mmod_Stretch_Energy-OPLS-2005>
71.1998901367188

> <r_mmod_Bend_Energy-OPLS-2005>
145.390655517578

> <r_mmod_Torsional_Energy-OPLS-2005>
196.074768066406

> <r_mmod_Improper_Torsional_Energy-OPLS-2005>
3.97757863998413

> <r_mmod_Van_der_Waal_Energy-OPLS-2005>
155.782791137695

> <r_mmod_Electrostatic_Energy-OPLS-2005>
-387.659301757812

> <r_mmod_Solvation_Energy-OPLS-2005>
-208.590042114258

> <b_mmod_Minimization_Converged-OPLS-2005>
0

> <r_mmod_RMS_Derivative-OPLS-2005>
6.3945689201355

$$$$
78
                    3D
 Structure written by MMmdl.
163171  0  0  1  0            999 V2000
  -30.7315  -14.4089   20.6415 C   0  0  0  0  0  0
  -30.4235  -12.2951   19.4037 C   0  0  0  0  0  0
  -29.4893  -12.5085   18.1970 C   0  0  0  0  0  0
  -28.0116  -12.3695   18.6136 C   0  0  0  0  0  0
  -27.6652  -13.2002   19.8774 C   0  0  2  0  0  0
  -28.7038  -12.9499   20.9924 C   0  0  0  0  0  0
  -25.2589  -13.8152   20.5652 C   0  0  0  0  0  0
  -24.1827  -13.0445   20.9157 C   0  0  0  0  0  0
  -24.6364  -11.6908   20.8720 C   0  0  0  0  0  0
  -23.9021  -10.4299   21.0407 C   0  0  0  0  0  0
  -24.3578   -9.4222   21.9194 C   0  0  0  0  0  0
  -23.6271   -8.2248   22.0768 C   0  0  0  0  0  0
  -22.4257   -8.0276   21.3551 C   0  0  0  0  0  0
  -21.9879   -9.0240   20.4654 C   0  0  0  0  0  0
  -22.7191  -10.2130   20.3063 C   0  0  0  0  0  0
  -21.6845   -6.0731   22.5276 C   0  0  0  0  0  0
  -21.4014   -6.5638   23.8207 C   0  0  0  0  0  0
  -21.3666   -5.6788   24.9168 C   0  0  0  0  0  0
  -21.6045   -4.3050   24.7211 C   0  0  0  0  0  0
  -21.8826   -3.8143   23.4332 C   0  0  0  0  0  0
  -21.9189   -4.6961   22.3390 C   0  0  0  0  0  0
  -22.7858  -13.5263   21.1820 C   0  0  0  0  0  0
  -22.1661   -4.2155   21.0966 F   0  0  0  0  0  0
  -21.5611   -3.4533   25.7720 F   0  0  0  0  0  0
  -30.0427  -13.2538   20.4511 N   0  0  0  0  0  0
  -26.3025  -12.9311   20.3360 N   0  0  0  0  0  0
  -25.9291  -11.6476   20.5750 N   0  0  0  0  0  0
  -22.0462  -12.8283   22.0368 N   0  0  0  0  0  0
  -25.4333  -15.1869   20.4059 N   0  0  0  0  0  0
  -31.8041  -14.6595   20.0831 O   0  0  0  0  0  0
  -21.6623   -6.8877   21.4245 O   0  0  0  0  0  0
  -22.3572  -14.5577   20.6668 O   0  0  0  0  0  0
  -24.6130  -31.8692   23.2118 C   0  0  0  0  0  0
  -25.9033  -32.4827   23.8406 C   0  0  1  0  0  0
  -27.2356  -27.4463   20.0834 C   0  0  0  0  0  0
  -25.5903  -33.8627   24.2340 N   0  0  0  0  0  0
  -23.3994  -30.4933   21.5530 C   0  0  2  0  0  0
  -24.8420  -28.9590   20.1182 C   0  0  0  0  0  0
  -22.7401  -29.4664   22.5013 C   0  0  0  0  0  0
  -18.0268  -28.1374   22.8494 C   0  0  0  0  0  0
  -24.1487  -36.7315   23.2635 C   0  0  0  0  0  0
  -25.9277  -30.8361   21.3640 C   0  0  0  0  0  0
  -26.0022  -29.4720   20.7099 C   0  0  0  0  0  0
  -27.1981  -28.7227   20.6885 C   0  0  0  0  0  0
  -26.0490  -26.9388   19.5006 C   0  0  0  0  0  0
  -24.8596  -27.6906   19.5145 C   0  0  0  0  0  0
  -23.6054  -29.8260   20.1672 C   0  0  0  0  0  0
  -25.4106  -36.3115   24.0340 C   0  0  1  0  0  0
  -20.5855  -28.3655   23.1331 C   0  0  2  0  0  0
  -20.6761  -26.9398   22.5415 C   0  0  0  0  0  0
  -19.5741  -26.6393   21.5209 C   0  0  0  0  0  0
  -18.1918  -26.7923   22.1620 C   0  0  0  0  0  0
  -19.1514  -28.8832   23.2907 C   0  0  0  0  0  0
  -18.9445  -30.1440   23.8912 C   0  0  0  0  0  0
  -17.6448  -30.6580   24.0571 C   0  0  0  0  0  0
  -25.9032  -34.9479   23.5134 C   0  0  0  0  0  0
  -16.5339  -29.9086   23.6328 C   0  0  0  0  0  0
  -16.7256  -28.6503   23.0346 C   0  0  0  0  0  0
  -26.4461  -31.6602   25.0732 C   0  0  0  0  0  0
  -25.3734  -31.3724   26.1490 C   0  0  0  0  0  0
  -27.0282  -30.3041   24.6107 C   0  0  0  0  0  0
  -27.6040  -32.4318   25.7487 C   0  0  0  0  0  0
  -27.5588  -37.1806   24.8456 C   0  0  0  0  0  0
  -21.4130  -29.3032   22.3750 N   0  0  0  0  0  0
  -26.4291  -37.3802   23.9417 N   0  0  0  0  0  0
  -24.6649  -31.0805   22.1011 N   0  0  0  0  0  0
  -23.4180  -28.8201   23.3043 O   0  0  0  0  0  0
  -28.4390  -26.7685   20.0760 O   0  0  0  0  0  0
  -26.5590  -34.8927   22.4693 O   0  0  0  0  0  0
  -23.5329  -32.1436   23.7525 O   0  0  0  0  0  0
  -26.8208  -21.1702   19.8775 C   0  0  0  0  0  0
  -29.1232  -22.1693   20.8880 C   0  0  0  0  0  0
  -27.9274  -20.3245   20.1567 C   0  0  0  0  0  0
  -28.0085  -23.0085   20.6220 C   0  0  0  0  0  0
  -25.5116  -20.6343   19.3284 C   0  0  0  0  0  0
  -30.4223  -22.7051   21.4569 C   0  0  0  0  0  0
  -27.8329  -18.8119   19.9329 C   0  0  0  0  0  0
  -28.0008  -24.5043   20.9211 C   0  0  0  0  0  0
  -29.1117  -17.9629   20.1304 C   0  0  0  0  0  0
  -29.4846  -17.6947   21.6038 C   0  0  0  0  0  0
  -30.5986  -16.6428   21.7849 C   0  0  0  0  0  0
  -28.4781  -25.3759   19.7427 C   0  0  0  0  0  0
  -29.0823  -20.8342   20.6545 N   0  0  0  0  0  0
  -26.8632  -22.5051   20.1017 N   0  0  0  0  0  0
  -30.1337  -15.2954   21.4501 N   0  0  0  0  0  0
  -31.4657  -12.4005   19.0964 H   0  0  0  0  0  0
  -30.3295  -11.2760   19.7821 H   0  0  0  0  0  0
  -29.7241  -11.7870   17.4133 H   0  0  0  0  0  0
  -29.6622  -13.4966   17.7667 H   0  0  0  0  0  0
  -27.8200  -11.3129   18.8032 H   0  0  0  0  0  0
  -27.3556  -12.6507   17.7890 H   0  0  0  0  0  0
  -27.7199  -14.2525   19.5960 H   0  0  0  0  0  0
  -28.6746  -11.9065   21.3078 H   0  0  0  0  0  0
  -28.4525  -13.5216   21.8861 H   0  0  0  0  0  0
  -25.2722   -9.5707   22.4766 H   0  0  0  0  0  0
  -23.9994   -7.4647   22.7492 H   0  0  0  0  0  0
  -21.0810   -8.8730   19.8958 H   0  0  0  0  0  0
  -22.3635  -10.9656   19.6164 H   0  0  0  0  0  0
  -21.2014   -7.6148   23.9712 H   0  0  0  0  0  0
  -21.1489   -6.0518   25.9072 H   0  0  0  0  0  0
  -22.0604   -2.7606   23.2819 H   0  0  0  0  0  0
  -22.4009  -11.9931   22.4777 H   0  0  0  0  0  0
  -21.1085  -13.1364   22.2513 H   0  0  0  0  0  0
  -24.6708  -15.8462   20.5175 H   0  0  0  0  0  0
  -26.2900  -15.6197   20.0867 H   0  0  0  0  0  0
  -26.7107  -32.5531   23.1172 H   0  0  0  0  0  0
  -25.0088  -33.9796   25.0507 H   0  0  0  0  0  0
  -22.6873  -31.3098   21.4162 H   0  0  0  0  0  0
  -23.3752  -35.9643   23.3288 H   0  0  0  0  0  0
  -24.3594  -36.8933   22.2052 H   0  0  0  0  0  0
  -23.7225  -37.6514   23.6649 H   0  0  0  0  0  0
  -26.0445  -31.6045   20.5984 H   0  0  0  0  0  0
  -26.8145  -30.8839   21.9844 H   0  0  0  0  0  0
  -28.0968  -29.1217   21.1386 H   0  0  0  0  0  0
  -26.0124  -25.9717   19.0236 H   0  0  0  0  0  0
  -23.9654  -27.2880   19.0581 H   0  0  0  0  0  0
  -23.7151  -30.6006   19.4079 H   0  0  0  0  0  0
  -22.7290  -29.2464   19.8711 H   0  0  0  0  0  0
  -25.1278  -36.1984   25.0832 H   0  0  0  0  0  0
  -20.9943  -28.3210   24.1453 H   0  0  0  0  0  0
  -20.5675  -26.2259   23.3591 H   0  0  0  0  0  0
  -21.6633  -26.7458   22.1199 H   0  0  0  0  0  0
  -19.6908  -25.6316   21.1211 H   0  0  0  0  0  0
  -19.6679  -27.3229   20.6759 H   0  0  0  0  0  0
  -17.4193  -26.6674   21.4018 H   0  0  0  0  0  0
  -18.0318  -26.0058   22.9009 H   0  0  0  0  0  0
  -19.7922  -30.7254   24.2282 H   0  0  0  0  0  0
  -17.5004  -31.6257   24.5178 H   0  0  0  0  0  0
  -15.5340  -30.2995   23.7643 H   0  0  0  0  0  0
  -15.8654  -28.0832   22.7050 H   0  0  0  0  0  0
  -24.5891  -30.7084   25.7842 H   0  0  0  0  0  0
  -24.8949  -32.2892   26.4947 H   0  0  0  0  0  0
  -25.8091  -30.8890   27.0243 H   0  0  0  0  0  0
  -26.2832  -29.6825   24.1130 H   0  0  0  0  0  0
  -27.4015  -29.7256   25.4568 H   0  0  0  0  0  0
  -27.8685  -30.4357   23.9285 H   0  0  0  0  0  0
  -27.2661  -33.3609   26.2090 H   0  0  0  0  0  0
  -28.3832  -32.6891   25.0300 H   0  0  0  0  0  0
  -28.0727  -31.8428   26.5381 H   0  0  0  0  0  0
  -28.2581  -38.0129   24.7545 H   0  0  0  0  0  0
  -28.1105  -36.2663   24.6221 H   0  0  0  0  0  0
  -27.2318  -37.1383   25.8860 H   0  0  0  0  0  0
  -20.9286  -29.8772   21.6992 H   0  0  0  0  0  0
  -26.0177  -38.2876   24.1438 H   0  0  0  0  0  0
  -25.0774  -19.9080   20.0156 H   0  0  0  0  0  0
  -25.6702  -20.1469   18.3667 H   0  0  0  0  0  0
  -24.7827  -21.4314   19.1806 H   0  0  0  0  0  0
  -30.8118  -23.5055   20.8284 H   0  0  0  0  0  0
  -31.1844  -21.9276   21.5169 H   0  0  0  0  0  0
  -30.2653  -23.0984   22.4612 H   0  0  0  0  0  0
  -27.5035  -18.6689   18.9034 H   0  0  0  0  0  0
  -27.0315  -18.4188   20.5595 H   0  0  0  0  0  0
  -28.6109  -24.7056   21.8011 H   0  0  0  0  0  0
  -26.9878  -24.7907   21.2034 H   0  0  0  0  0  0
  -29.9504  -18.4064   19.5915 H   0  0  0  0  0  0
  -28.9319  -16.9990   19.6526 H   0  0  0  0  0  0
  -28.5986  -17.3841   22.1606 H   0  0  0  0  0  0
  -29.8078  -18.6299   22.0629 H   0  0  0  0  0  0
  -30.9181  -16.6334   22.8279 H   0  0  0  0  0  0
  -31.4761  -16.9263   21.2006 H   0  0  0  0  0  0
  -27.9384  -25.1521   18.8232 H   0  0  0  0  0  0
  -29.5169  -25.1306   19.5219 H   0  0  0  0  0  0
  -29.2620  -14.9968   21.8606 H   0  0  0  0  0  0
  1 25  1  0  0  0
  1 30  2  0  0  0
  1 85  1  0  0  0
  2  3  1  0  0  0
  2 25  1  0  0  0
  2 86  1  0  0  0
  2 87  1  0  0  0
  3  4  1  0  0  0
  3 88  1  0  0  0
  3 89  1  0  0  0
  4  5  1  0  0  0
  4 90  1  0  0  0
  4 91  1  0  0  0
  5  6  1  0  0  0
  5 26  1  0  0  0
  5 92  1  0  0  0
  6 25  1  0  0  0
  6 93  1  0  0  0
  6 94  1  0  0  0
  7  8  2  0  0  0
  7 26  1  0  0  0
  7 29  1  0  0  0
  8  9  1  0  0  0
  8 22  1  0  0  0
  9 10  1  0  0  0
  9 27  2  0  0  0
 10 11  2  0  0  0
 10 15  1  0  0  0
 11 12  1  0  0  0
 11 95  1  0  0  0
 12 13  2  0  0  0
 12 96  1  0  0  0
 13 14  1  0  0  0
 13 31  1  0  0  0
 14 15  2  0  0  0
 14 97  1  0  0  0
 15 98  1  0  0  0
 16 17  2  0  0  0
 16 21  1  0  0  0
 16 31  1  0  0  0
 17 18  1  0  0  0
 17 99  1  0  0  0
 18 19  2  0  0  0
 18100  1  0  0  0
 19 20  1  0  0  0
 19 24  1  0  0  0
 20 21  2  0  0  0
 20101  1  0  0  0
 21 23  1  0  0  0
 22 28  1  0  0  0
 22 32  2  0  0  0
 26 27  1  0  0  0
 28102  1  0  0  0
 28103  1  0  0  0
 29104  1  0  0  0
 29105  1  0  0  0
 33 34  1  0  0  0
 33 66  1  0  0  0
 33 70  2  0  0  0
 34 36  1  0  0  0
 34 59  1  0  0  0
 34106  1  0  0  0
 35 44  2  0  0  0
 35 45  1  0  0  0
 35 68  1  0  0  0
 36 56  1  0  0  0
 36107  1  0  0  0
 37 39  1  0  0  0
 37 47  1  0  0  0
 37 66  1  0  0  0
 37108  1  0  0  0
 38 43  2  0  0  0
 38 46  1  0  0  0
 38 47  1  0  0  0
 39 64  1  0  0  0
 39 67  2  0  0  0
 40 52  1  0  0  0
 40 53  2  0  0  0
 40 58  1  0  0  0
 41109  1  0  0  0
 41110  1  0  0  0
 41111  1  0  0  0
 41 48  1  0  0  0
 42 43  1  0  0  0
 42 66  1  0  0  0
 42112  1  0  0  0
 42113  1  0  0  0
 43 44  1  0  0  0
 44114  1  0  0  0
 45 46  2  0  0  0
 45115  1  0  0  0
 46116  1  0  0  0
 47117  1  0  0  0
 47118  1  0  0  0
 48 56  1  0  0  0
 48 65  1  0  0  0
 48119  1  0  0  0
 49 50  1  0  0  0
 49 53  1  0  0  0
 49 64  1  0  0  0
 49120  1  0  0  0
 50 51  1  0  0  0
 50121  1  0  0  0
 50122  1  0  0  0
 51 52  1  0  0  0
 51123  1  0  0  0
 51124  1  0  0  0
 52125  1  0  0  0
 52126  1  0  0  0
 53 54  1  0  0  0
 54 55  2  0  0  0
 54127  1  0  0  0
 55 57  1  0  0  0
 55128  1  0  0  0
 56 69  2  0  0  0
 57 58  2  0  0  0
 57129  1  0  0  0
 58130  1  0  0  0
 59 60  1  0  0  0
 59 61  1  0  0  0
 59 62  1  0  0  0
 60131  1  0  0  0
 60132  1  0  0  0
 60133  1  0  0  0
 61134  1  0  0  0
 61135  1  0  0  0
 61136  1  0  0  0
 62137  1  0  0  0
 62138  1  0  0  0
 62139  1  0  0  0
 63 65  1  0  0  0
 63140  1  0  0  0
 63141  1  0  0  0
 63142  1  0  0  0
 64143  1  0  0  0
 65144  1  0  0  0
 68 82  1  0  0  0
 71 73  2  0  0  0
 71 75  1  0  0  0
 71 84  1  0  0  0
 72 74  1  0  0  0
 72 76  1  0  0  0
 72 83  2  0  0  0
 73 77  1  0  0  0
 73 83  1  0  0  0
 74 78  1  0  0  0
 74 84  2  0  0  0
 75145  1  0  0  0
 75146  1  0  0  0
 75147  1  0  0  0
 76148  1  0  0  0
 76149  1  0  0  0
 76150  1  0  0  0
 77 79  1  0  0  0
 77151  1  0  0  0
 77152  1  0  0  0
 78 82  1  0  0  0
 78153  1  0  0  0
 78154  1  0  0  0
 79 80  1  0  0  0
 79155  1  0  0  0
 79156  1  0  0  0
 80 81  1  0  0  0
 80157  1  0  0  0
 80158  1  0  0  0
 81 85  1  0  0  0
 81159  1  0  0  0
 81160  1  0  0  0
 82161  1  0  0  0
 82162  1  0  0  0
 85163  1  0  0  0
M  ISO  4   1 100  68 101  82 101  85 100
M  END
> <chiral flag>
0

> <version>
0

> <s_m_source_file>
/data/baiqing/PycharmProjects/Reinvent-master-3.2/result/LINK_invent/BTK/process_docking_weight1_custom_sum_contain_oxygen_bond_distance_aromatic_linkinvent_7_9_3/rearranged_h_0035.sdf

> <i_m_source_file_index>
79

> <r_mmod_Potential_Energy-OPLS-2005>
-90.7133941650391

> <r_mmod_Stretch_Energy-OPLS-2005>
36.4146690368652

> <r_mmod_Bend_Energy-OPLS-2005>
103.298141479492

> <r_mmod_Torsional_Energy-OPLS-2005>
191.658050537109

> <r_mmod_Improper_Torsional_Energy-OPLS-2005>
1.94414019584656

> <r_mmod_Van_der_Waal_Energy-OPLS-2005>
156.644180297852

> <r_mmod_Electrostatic_Energy-OPLS-2005>
-371.564331054688

> <r_mmod_Solvation_Energy-OPLS-2005>
-217.848770141602

> <b_mmod_Minimization_Converged-OPLS-2005>
0

> <r_mmod_RMS_Derivative-OPLS-2005>
1.20466375350952

$$$$
79
                    3D
 Structure written by MMmdl.
156164  0  0  1  0            999 V2000
  -30.6092  -14.7675   20.4421 C   0  0  0  0  0  0
  -30.4398  -12.4649   19.4638 C   0  0  0  0  0  0
  -29.5147  -12.5082   18.2282 C   0  0  0  0  0  0
  -28.0423  -12.3219   18.6460 C   0  0  0  0  0  0
  -27.6439  -13.2276   19.8406 C   0  0  2  0  0  0
  -28.6933  -13.1754   20.9742 C   0  0  0  0  0  0
  -25.2545  -13.8178   20.5646 C   0  0  0  0  0  0
  -24.1842  -13.0425   20.9183 C   0  0  0  0  0  0
  -24.6426  -11.6907   20.8727 C   0  0  0  0  0  0
  -23.9103  -10.4292   21.0401 C   0  0  0  0  0  0
  -24.3651   -9.4211   21.9188 C   0  0  0  0  0  0
  -23.6321   -8.2246   22.0761 C   0  0  0  0  0  0
  -22.4296   -8.0284   21.3547 C   0  0  0  0  0  0
  -21.9924   -9.0263   20.4653 C   0  0  0  0  0  0
  -22.7253  -10.2144   20.3073 C   0  0  0  0  0  0
  -21.6871   -6.0750   22.5294 C   0  0  0  0  0  0
  -21.4011   -6.5658   23.8222 C   0  0  0  0  0  0
  -21.3654   -5.6802   24.9184 C   0  0  0  0  0  0
  -21.6044   -4.3064   24.7226 C   0  0  0  0  0  0
  -21.8816   -3.8164   23.4344 C   0  0  0  0  0  0
  -21.9190   -4.6983   22.3401 C   0  0  0  0  0  0
  -22.7866  -13.5218   21.1833 C   0  0  0  0  0  0
  -22.1658   -4.2169   21.0981 F   0  0  0  0  0  0
  -21.5636   -3.4540   25.7739 F   0  0  0  0  0  0
  -29.9912  -13.5339   20.3850 N   0  0  0  0  0  0
  -26.2972  -12.9372   20.3240 N   0  0  0  0  0  0
  -25.9355  -11.6519   20.5726 N   0  0  0  0  0  0
  -22.0529  -12.8222   22.0413 N   0  0  0  0  0  0
  -25.4240  -15.1892   20.3973 N   0  0  0  0  0  0
  -31.8051  -14.8683   20.1562 O   0  0  0  0  0  0
  -21.6651   -6.8885   21.4252 O   0  0  0  0  0  0
  -22.3536  -14.5507   20.6667 O   0  0  0  0  0  0
  -24.6332  -31.8526   23.1975 C   0  0  0  0  0  0
  -25.9151  -32.4753   23.8324 C   0  0  1  0  0  0
  -27.2121  -27.2353   20.1202 C   0  0  0  0  0  0
  -25.5913  -33.8560   24.2208 N   0  0  0  0  0  0
  -23.4325  -30.4782   21.5417 C   0  0  2  0  0  0
  -24.8769  -28.9275   20.1084 C   0  0  0  0  0  0
  -22.7518  -29.4578   22.4880 C   0  0  0  0  0  0
  -18.0305  -28.1384   22.8512 C   0  0  0  0  0  0
  -24.1482  -36.7295   23.2653 C   0  0  0  0  0  0
  -25.9829  -30.7541   21.3884 C   0  0  0  0  0  0
  -26.0497  -29.3778   20.7243 C   0  0  0  0  0  0
  -27.2157  -28.5420   20.7261 C   0  0  0  0  0  0
  -26.0170  -26.8751   19.4536 C   0  0  0  0  0  0
  -24.8637  -27.6826   19.4668 C   0  0  0  0  0  0
  -23.6517  -29.8191   20.1553 C   0  0  0  0  0  0
  -25.4114  -36.3069   24.0316 C   0  0  1  0  0  0
  -20.5912  -28.3701   23.1256 C   0  0  2  0  0  0
  -20.6772  -26.9415   22.5404 C   0  0  0  0  0  0
  -19.5731  -26.6376   21.5222 C   0  0  0  0  0  0
  -18.1926  -26.7930   22.1647 C   0  0  0  0  0  0
  -19.1564  -28.8859   23.2881 C   0  0  0  0  0  0
  -18.9476  -30.1462   23.8894 C   0  0  0  0  0  0
  -17.6470  -30.6588   24.0573 C   0  0  0  0  0  0
  -25.9046  -34.9443   23.5068 C   0  0  0  0  0  0
  -16.5362  -29.9082   23.6348 C   0  0  0  0  0  0
  -16.7292  -28.6500   23.0375 C   0  0  0  0  0  0
  -26.4494  -31.6629   25.0763 C   0  0  0  0  0  0
  -25.3702  -31.3815   26.1484 C   0  0  0  0  0  0
  -27.0372  -30.3035   24.6333 C   0  0  0  0  0  0
  -27.5989  -32.4443   25.7555 C   0  0  0  0  0  0
  -27.5580  -37.1799   24.8453 C   0  0  0  0  0  0
  -21.4220  -29.3056   22.3647 N   0  0  0  0  0  0
  -26.4280  -37.3774   23.9404 N   0  0  0  0  0  0
  -24.7025  -31.0455   22.0983 N   0  0  0  0  0  0
  -23.4200  -28.8093   23.2977 O   0  0  0  0  0  0
  -28.3009  -26.3228   20.2105 O   0  0  0  0  0  0
  -26.5646  -34.8923   22.4658 O   0  0  0  0  0  0
  -23.5464  -32.1378   23.7225 O   0  0  0  0  0  0
  -30.0052  -17.5303   18.1662 C   0  0  0  0  0  0
  -29.3363  -20.1237   17.8000 C   0  0  0  0  0  0
  -29.8353  -18.2989   19.3456 C   0  0  0  0  0  0
  -29.5070  -19.7446   19.1678 C   0  0  0  0  0  0
  -29.8493  -18.0832   16.8943 C   0  0  0  0  0  0
  -30.0797  -17.2653   15.6424 C   0  0  0  0  0  0
  -30.1033  -17.4122   20.6346 C   0  0  0  0  0  0
  -28.8791  -23.5905   20.4977 C   0  0  0  0  0  0
  -28.1778  -24.8744   19.7743 C   0  0  0  0  0  0
  -28.9999  -22.2106   19.6459 C   0  0  0  0  0  0
  -29.4999  -19.3561   16.7124 N   0  0  0  0  0  0
  -29.8159  -15.8926   20.6078 N   0  0  0  0  0  0
  -29.3478  -20.8066   20.1300 O   0  0  0  0  0  0
  -31.4771  -12.5940   19.1556 H   0  0  0  0  0  0
  -30.3895  -11.4885   19.9523 H   0  0  0  0  0  0
  -29.8005  -11.7427   17.5053 H   0  0  0  0  0  0
  -29.6320  -13.4663   17.7208 H   0  0  0  0  0  0
  -27.9068  -11.2744   18.9167 H   0  0  0  0  0  0
  -27.3886  -12.4996   17.7942 H   0  0  0  0  0  0
  -27.6337  -14.2441   19.4503 H   0  0  0  0  0  0
  -28.7402  -12.1778   21.4149 H   0  0  0  0  0  0
  -28.4258  -13.8585   21.7811 H   0  0  0  0  0  0
  -25.2805   -9.5684   22.4745 H   0  0  0  0  0  0
  -24.0035   -7.4632   22.7471 H   0  0  0  0  0  0
  -21.0864   -8.8789   19.8947 H   0  0  0  0  0  0
  -22.3726  -10.9692   19.6182 H   0  0  0  0  0  0
  -21.2014   -7.6168   23.9731 H   0  0  0  0  0  0
  -21.1468   -6.0540   25.9083 H   0  0  0  0  0  0
  -22.0598   -2.7632   23.2855 H   0  0  0  0  0  0
  -22.4146  -11.9892   22.4836 H   0  0  0  0  0  0
  -21.1141  -13.1261   22.2584 H   0  0  0  0  0  0
  -24.6518  -15.8408   20.4769 H   0  0  0  0  0  0
  -26.2604  -15.6199   20.0257 H   0  0  0  0  0  0
  -26.7234  -32.5385   23.1067 H   0  0  0  0  0  0
  -25.0005  -33.9679   25.0314 H   0  0  0  0  0  0
  -22.7357  -31.3055   21.3957 H   0  0  0  0  0  0
  -23.3732  -35.9633   23.3308 H   0  0  0  0  0  0
  -24.3554  -36.8941   22.2064 H   0  0  0  0  0  0
  -23.7235  -37.6485   23.6704 H   0  0  0  0  0  0
  -26.1336  -31.5152   20.6221 H   0  0  0  0  0  0
  -26.8537  -30.7892   22.0316 H   0  0  0  0  0  0
  -28.1075  -28.8763   21.2377 H   0  0  0  0  0  0
  -25.9196  -25.9475   18.9147 H   0  0  0  0  0  0
  -23.9668  -27.3354   18.9700 H   0  0  0  0  0  0
  -23.7845  -30.5973   19.4030 H   0  0  0  0  0  0
  -22.7700  -29.2582   19.8405 H   0  0  0  0  0  0
  -25.1301  -36.1903   25.0805 H   0  0  0  0  0  0
  -21.0030  -28.3271   24.1361 H   0  0  0  0  0  0
  -20.5655  -26.2325   23.3622 H   0  0  0  0  0  0
  -21.6637  -26.7404   22.1207 H   0  0  0  0  0  0
  -19.6869  -25.6273   21.1276 H   0  0  0  0  0  0
  -19.6646  -27.3171   20.6742 H   0  0  0  0  0  0
  -17.4193  -26.6721   21.4050 H   0  0  0  0  0  0
  -18.0306  -26.0046   22.9020 H   0  0  0  0  0  0
  -19.7938  -30.7309   24.2244 H   0  0  0  0  0  0
  -17.5011  -31.6274   24.5170 H   0  0  0  0  0  0
  -15.5354  -30.2984   23.7654 H   0  0  0  0  0  0
  -15.8701  -28.0813   22.7080 H   0  0  0  0  0  0
  -24.5746  -30.7339   25.7800 H   0  0  0  0  0  0
  -24.9068  -32.3019   26.5045 H   0  0  0  0  0  0
  -25.7982  -30.8842   27.0194 H   0  0  0  0  0  0
  -26.2996  -29.6772   24.1309 H   0  0  0  0  0  0
  -27.3950  -29.7341   25.4923 H   0  0  0  0  0  0
  -27.8919  -30.4298   23.9684 H   0  0  0  0  0  0
  -27.2468  -33.3653   26.2221 H   0  0  0  0  0  0
  -28.3733  -32.7189   25.0384 H   0  0  0  0  0  0
  -28.0749  -31.8575   26.5415 H   0  0  0  0  0  0
  -28.2590  -38.0105   24.7507 H   0  0  0  0  0  0
  -28.1086  -36.2640   24.6263 H   0  0  0  0  0  0
  -27.2320  -37.1439   25.8861 H   0  0  0  0  0  0
  -20.9399  -29.8855   21.6922 H   0  0  0  0  0  0
  -26.0158  -38.2846   24.1403 H   0  0  0  0  0  0
  -30.2962  -16.4932   18.2160 H   0  0  0  0  0  0
  -29.0545  -21.1139   17.4883 H   0  0  0  0  0  0
  -31.0617  -16.7897   15.6690 H   0  0  0  0  0  0
  -30.0300  -17.8863   14.7460 H   0  0  0  0  0  0
  -29.3230  -16.4860   15.5582 H   0  0  0  0  0  0
  -29.5403  -17.8465   21.4608 H   0  0  0  0  0  0
  -31.1540  -17.5491   20.9015 H   0  0  0  0  0  0
  -28.3146  -23.3859   21.4077 H   0  0  0  0  0  0
  -29.8751  -23.8773   20.8301 H   0  0  0  0  0  0
  -27.1335  -24.5747   19.7719 H   0  0  0  0  0  0
  -28.4815  -24.8652   18.7254 H   0  0  0  0  0  0
  -29.7537  -22.4672   18.9003 H   0  0  0  0  0  0
  -28.0477  -22.1203   19.1195 H   0  0  0  0  0  0
  -28.8455  -15.6712   20.7661 H   0  0  0  0  0  0
  1 25  1  0  0  0
  1 30  2  0  0  0
  1 82  1  0  0  0
  2  3  1  0  0  0
  2 25  1  0  0  0
  2 84  1  0  0  0
  2 85  1  0  0  0
  3  4  1  0  0  0
  3 86  1  0  0  0
  3 87  1  0  0  0
  4  5  1  0  0  0
  4 88  1  0  0  0
  4 89  1  0  0  0
  5  6  1  0  0  0
  5 26  1  0  0  0
  5 90  1  0  0  0
  6 25  1  0  0  0
  6 91  1  0  0  0
  6 92  1  0  0  0
  7  8  2  0  0  0
  7 26  1  0  0  0
  7 29  1  0  0  0
  8  9  1  0  0  0
  8 22  1  0  0  0
  9 10  1  0  0  0
  9 27  2  0  0  0
 10 11  2  0  0  0
 10 15  1  0  0  0
 11 12  1  0  0  0
 11 93  1  0  0  0
 12 13  2  0  0  0
 12 94  1  0  0  0
 13 14  1  0  0  0
 13 31  1  0  0  0
 14 15  2  0  0  0
 14 95  1  0  0  0
 15 96  1  0  0  0
 16 17  2  0  0  0
 16 21  1  0  0  0
 16 31  1  0  0  0
 17 18  1  0  0  0
 17 97  1  0  0  0
 18 19  2  0  0  0
 18 98  1  0  0  0
 19 20  1  0  0  0
 19 24  1  0  0  0
 20 21  2  0  0  0
 20 99  1  0  0  0
 21 23  1  0  0  0
 22 28  1  0  0  0
 22 32  2  0  0  0
 26 27  1  0  0  0
 28100  1  0  0  0
 28101  1  0  0  0
 29102  1  0  0  0
 29103  1  0  0  0
 33 34  1  0  0  0
 33 66  1  0  0  0
 33 70  2  0  0  0
 34 36  1  0  0  0
 34 59  1  0  0  0
 34104  1  0  0  0
 35 44  2  0  0  0
 35 45  1  0  0  0
 35 68  1  0  0  0
 36 56  1  0  0  0
 36105  1  0  0  0
 37 39  1  0  0  0
 37 47  1  0  0  0
 37 66  1  0  0  0
 37106  1  0  0  0
 38 43  2  0  0  0
 38 46  1  0  0  0
 38 47  1  0  0  0
 39 64  1  0  0  0
 39 67  2  0  0  0
 40 52  1  0  0  0
 40 53  2  0  0  0
 40 58  1  0  0  0
 41107  1  0  0  0
 41108  1  0  0  0
 41109  1  0  0  0
 41 48  1  0  0  0
 42 43  1  0  0  0
 42 66  1  0  0  0
 42110  1  0  0  0
 42111  1  0  0  0
 43 44  1  0  0  0
 44112  1  0  0  0
 45 46  2  0  0  0
 45113  1  0  0  0
 46114  1  0  0  0
 47115  1  0  0  0
 47116  1  0  0  0
 48 56  1  0  0  0
 48 65  1  0  0  0
 48117  1  0  0  0
 49 50  1  0  0  0
 49 53  1  0  0  0
 49 64  1  0  0  0
 49118  1  0  0  0
 50 51  1  0  0  0
 50119  1  0  0  0
 50120  1  0  0  0
 51 52  1  0  0  0
 51121  1  0  0  0
 51122  1  0  0  0
 52123  1  0  0  0
 52124  1  0  0  0
 53 54  1  0  0  0
 54 55  2  0  0  0
 54125  1  0  0  0
 55 57  1  0  0  0
 55126  1  0  0  0
 56 69  2  0  0  0
 57 58  2  0  0  0
 57127  1  0  0  0
 58128  1  0  0  0
 59 60  1  0  0  0
 59 61  1  0  0  0
 59 62  1  0  0  0
 60129  1  0  0  0
 60130  1  0  0  0
 60131  1  0  0  0
 61132  1  0  0  0
 61133  1  0  0  0
 61134  1  0  0  0
 62135  1  0  0  0
 62136  1  0  0  0
 62137  1  0  0  0
 63 65  1  0  0  0
 63138  1  0  0  0
 63139  1  0  0  0
 63140  1  0  0  0
 64141  1  0  0  0
 65142  1  0  0  0
 68 79  1  0  0  0
 71 73  2  0  0  0
 71 75  1  0  0  0
 71143  1  0  0  0
 72 74  2  0  0  0
 72 81  1  0  0  0
 72144  1  0  0  0
 73 74  1  0  0  0
 73 77  1  0  0  0
 74 83  1  0  0  0
 75 76  1  0  0  0
 75 81  2  0  0  0
 76145  1  0  0  0
 76146  1  0  0  0
 76147  1  0  0  0
 77 82  1  0  0  0
 77148  1  0  0  0
 77149  1  0  0  0
 78 79  1  0  0  0
 78 80  1  0  0  0
 78150  1  0  0  0
 78151  1  0  0  0
 79152  1  0  0  0
 79153  1  0  0  0
 80 83  1  0  0  0
 80154  1  0  0  0
 80155  1  0  0  0
 82156  1  0  0  0
M  ISO  4   1 100  68 101  79 101  82 100
M  END
> <chiral flag>
0

> <version>
0

> <s_m_source_file>
/data/baiqing/PycharmProjects/Reinvent-master-3.2/result/LINK_invent/BTK/process_docking_weight1_custom_sum_contain_oxygen_bond_distance_aromatic_linkinvent_7_9_3/rearranged_h_0035.sdf

> <i_m_source_file_index>
80

> <r_mmod_Potential_Energy-OPLS-2005>
52.2045021057129

> <r_mmod_Stretch_Energy-OPLS-2005>
160.120330810547

> <r_mmod_Bend_Energy-OPLS-2005>
228.227630615234

> <r_mmod_Torsional_Energy-OPLS-2005>
198.172393798828

> <r_mmod_Improper_Torsional_Energy-OPLS-2005>
5.05431461334229

> <r_mmod_Van_der_Waal_Energy-OPLS-2005>
160.289749145508

> <r_mmod_Electrostatic_Energy-OPLS-2005>
-566.626953125

> <r_mmod_Solvation_Energy-OPLS-2005>
-233.524719238281

> <b_mmod_Minimization_Converged-OPLS-2005>
0

> <r_mmod_RMS_Derivative-OPLS-2005>
3.3341977596283

$$$$
80
                    3D
 Structure written by MMmdl.
155163  0  0  1  0            999 V2000
  -30.7122  -14.4460   20.6245 C   0  0  0  0  0  0
  -30.4238  -12.3098   19.4225 C   0  0  0  0  0  0
  -29.4952  -12.5084   18.2075 C   0  0  0  0  0  0
  -28.0142  -12.3788   18.6130 C   0  0  0  0  0  0
  -27.6629  -13.2105   19.8776 C   0  0  2  0  0  0
  -28.6965  -12.9780   21.0001 C   0  0  0  0  0  0
  -25.2565  -13.8177   20.5675 C   0  0  0  0  0  0
  -24.1832  -13.0431   20.9158 C   0  0  0  0  0  0
  -24.6399  -11.6899   20.8682 C   0  0  0  0  0  0
  -23.9088  -10.4283   21.0354 C   0  0  0  0  0  0
  -24.3656   -9.4211   21.9150 C   0  0  0  0  0  0
  -23.6327   -8.2246   22.0750 C   0  0  0  0  0  0
  -22.4298   -8.0295   21.3552 C   0  0  0  0  0  0
  -21.9920   -9.0262   20.4644 C   0  0  0  0  0  0
  -22.7251  -10.2136   20.3027 C   0  0  0  0  0  0
  -21.6845   -6.0757   22.5276 C   0  0  0  0  0  0
  -21.4030   -6.5656   23.8217 C   0  0  0  0  0  0
  -21.3657   -5.6798   24.9171 C   0  0  0  0  0  0
  -21.6037   -4.3066   24.7222 C   0  0  0  0  0  0
  -21.8815   -3.8159   23.4332 C   0  0  0  0  0  0
  -21.9191   -4.6987   22.3389 C   0  0  0  0  0  0
  -22.7858  -13.5220   21.1828 C   0  0  0  0  0  0
  -22.1649   -4.2171   21.0972 F   0  0  0  0  0  0
  -21.5620   -3.4546   25.7736 F   0  0  0  0  0  0
  -30.0335  -13.2789   20.4587 N   0  0  0  0  0  0
  -26.3014  -12.9355   20.3348 N   0  0  0  0  0  0
  -25.9321  -11.6501   20.5715 N   0  0  0  0  0  0
  -22.0475  -12.8252   22.0400 N   0  0  0  0  0  0
  -25.4229  -15.1907   20.4130 N   0  0  0  0  0  0
  -31.8082  -14.6609   20.0939 O   0  0  0  0  0  0
  -21.6639   -6.8897   21.4250 O   0  0  0  0  0  0
  -22.3522  -14.5516   20.6664 O   0  0  0  0  0  0
  -24.6165  -31.8649   23.2099 C   0  0  0  0  0  0
  -25.9042  -32.4814   23.8401 C   0  0  1  0  0  0
  -27.2307  -27.4093   20.0957 C   0  0  0  0  0  0
  -25.5876  -33.8618   24.2306 N   0  0  0  0  0  0
  -23.4098  -30.4893   21.5485 C   0  0  2  0  0  0
  -24.8568  -28.9535   20.1154 C   0  0  0  0  0  0
  -22.7436  -29.4649   22.4967 C   0  0  0  0  0  0
  -18.0288  -28.1393   22.8489 C   0  0  0  0  0  0
  -24.1474  -36.7320   23.2640 C   0  0  0  0  0  0
  -25.9463  -30.8178   21.3745 C   0  0  0  0  0  0
  -26.0211  -29.4543   20.7117 C   0  0  0  0  0  0
  -27.2137  -28.6899   20.6990 C   0  0  0  0  0  0
  -26.0537  -26.9417   19.4699 C   0  0  0  0  0  0
  -24.8662  -27.6950   19.4913 C   0  0  0  0  0  0
  -23.6195  -29.8190   20.1663 C   0  0  0  0  0  0
  -25.4097  -36.3106   24.0325 C   0  0  1  0  0  0
  -20.5873  -28.3680   23.1279 C   0  0  2  0  0  0
  -20.6765  -26.9408   22.5393 C   0  0  0  0  0  0
  -19.5747  -26.6386   21.5192 C   0  0  0  0  0  0
  -18.1930  -26.7934   22.1614 C   0  0  0  0  0  0
  -19.1538  -28.8853   23.2880 C   0  0  0  0  0  0
  -18.9461  -30.1459   23.8907 C   0  0  0  0  0  0
  -17.6465  -30.6583   24.0570 C   0  0  0  0  0  0
  -25.9022  -34.9470   23.5115 C   0  0  0  0  0  0
  -16.5355  -29.9086   23.6349 C   0  0  0  0  0  0
  -16.7273  -28.6500   23.0362 C   0  0  0  0  0  0
  -26.4453  -31.6638   25.0771 C   0  0  0  0  0  0
  -25.3708  -31.3795   26.1527 C   0  0  0  0  0  0
  -27.0316  -30.3064   24.6254 C   0  0  0  0  0  0
  -27.6006  -32.4423   25.7512 C   0  0  0  0  0  0
  -27.5576  -37.1802   24.8453 C   0  0  0  0  0  0
  -21.4158  -29.3039   22.3673 N   0  0  0  0  0  0
  -26.4283  -37.3787   23.9402 N   0  0  0  0  0  0
  -24.6756  -31.0712   22.1015 N   0  0  0  0  0  0
  -23.4184  -28.8195   23.3029 O   0  0  0  0  0  0
  -28.3455  -26.5913   20.1388 O   0  0  0  0  0  0
  -26.5590  -34.8908   22.4681 O   0  0  0  0  0  0
  -23.5341  -32.1430   23.7446 O   0  0  0  0  0  0
  -28.6492  -22.8891   20.5887 C   0  0  0  0  0  0
  -31.3412  -23.2654   20.9026 C   0  0  0  0  0  0
  -29.1139  -24.2191   20.7506 C   0  0  0  0  0  0
  -30.5042  -24.4030   20.9402 C   0  0  0  0  0  0
  -29.5554  -21.8069   20.6233 C   0  0  0  0  0  0
  -28.0895  -25.3601   20.8611 C   0  0  0  0  0  0
  -29.0674  -20.3546   20.5079 C   0  0  0  0  0  0
  -29.9888  -19.2917   21.1663 C   0  0  0  0  0  0
  -29.4511  -17.8364   21.1300 C   0  0  0  0  0  0
  -30.5280  -16.7901   21.5080 C   0  0  0  0  0  0
  -30.8868  -22.0018   20.7359 N   0  0  0  0  0  0
  -30.0772  -15.3987   21.3306 N   0  0  0  0  0  0
  -31.1891  -25.9575   21.2639 Cl  0  0  0  0  0  0
  -31.4680  -12.4170   19.1197 H   0  0  0  0  0  0
  -30.3385  -11.2941   19.8106 H   0  0  0  0  0  0
  -29.7340  -11.7788   17.4344 H   0  0  0  0  0  0
  -29.6687  -13.4915   17.7656 H   0  0  0  0  0  0
  -27.8102  -11.3245   18.7962 H   0  0  0  0  0  0
  -27.3743  -12.6642   17.7777 H   0  0  0  0  0  0
  -27.7159  -14.2624   19.5964 H   0  0  0  0  0  0
  -28.6685  -11.9418   21.3395 H   0  0  0  0  0  0
  -28.4417  -13.5707   21.8804 H   0  0  0  0  0  0
  -25.2789   -9.5704   22.4732 H   0  0  0  0  0  0
  -24.0024   -7.4645   22.7474 H   0  0  0  0  0  0
  -21.0841   -8.8805   19.8964 H   0  0  0  0  0  0
  -22.3694  -10.9704   19.6155 H   0  0  0  0  0  0
  -21.2050   -7.6172   23.9741 H   0  0  0  0  0  0
  -21.1463   -6.0519   25.9079 H   0  0  0  0  0  0
  -22.0594   -2.7626   23.2808 H   0  0  0  0  0  0
  -22.4069  -11.9985   22.4936 H   0  0  0  0  0  0
  -21.1060  -13.1257   22.2481 H   0  0  0  0  0  0
  -24.6544  -15.8415   20.5392 H   0  0  0  0  0  0
  -26.2829  -15.6420   20.1270 H   0  0  0  0  0  0
  -26.7118  -32.5497   23.1159 H   0  0  0  0  0  0
  -25.0025  -33.9797   25.0451 H   0  0  0  0  0  0
  -22.7007  -31.3071   21.4038 H   0  0  0  0  0  0
  -23.3725  -35.9667   23.3318 H   0  0  0  0  0  0
  -24.3565  -36.8940   22.2054 H   0  0  0  0  0  0
  -23.7245  -37.6529   23.6662 H   0  0  0  0  0  0
  -26.0766  -31.5844   20.6100 H   0  0  0  0  0  0
  -26.8257  -30.8577   22.0063 H   0  0  0  0  0  0
  -28.1107  -29.0633   21.1723 H   0  0  0  0  0  0
  -26.0442  -25.9831   18.9724 H   0  0  0  0  0  0
  -23.9711  -27.3021   19.0286 H   0  0  0  0  0  0
  -23.7291  -30.5897   19.4017 H   0  0  0  0  0  0
  -22.7466  -29.2300   19.8756 H   0  0  0  0  0  0
  -25.1274  -36.1964   25.0818 H   0  0  0  0  0  0
  -20.9991  -28.3258   24.1386 H   0  0  0  0  0  0
  -20.5649  -26.2299   23.3591 H   0  0  0  0  0  0
  -21.6636  -26.7433   22.1191 H   0  0  0  0  0  0
  -19.6898  -25.6293   21.1228 H   0  0  0  0  0  0
  -19.6681  -27.3192   20.6717 H   0  0  0  0  0  0
  -17.4187  -26.6680   21.4026 H   0  0  0  0  0  0
  -18.0344  -26.0079   22.9017 H   0  0  0  0  0  0
  -19.7937  -30.7273   24.2273 H   0  0  0  0  0  0
  -17.5019  -31.6274   24.5162 H   0  0  0  0  0  0
  -15.5353  -30.2985   23.7680 H   0  0  0  0  0  0
  -15.8669  -28.0821   22.7085 H   0  0  0  0  0  0
  -24.5817  -30.7216   25.7871 H   0  0  0  0  0  0
  -24.8971  -32.2979   26.5012 H   0  0  0  0  0  0
  -25.8025  -30.8924   27.0278 H   0  0  0  0  0  0
  -26.2917  -29.6819   24.1244 H   0  0  0  0  0  0
  -27.3963  -29.7327   25.4783 H   0  0  0  0  0  0
  -27.8795  -30.4353   23.9531 H   0  0  0  0  0  0
  -27.2582  -33.3706   26.2106 H   0  0  0  0  0  0
  -28.3769  -32.7052   25.0313 H   0  0  0  0  0  0
  -28.0743  -31.8591   26.5420 H   0  0  0  0  0  0
  -28.2579  -38.0110   24.7513 H   0  0  0  0  0  0
  -28.1081  -36.2643   24.6250 H   0  0  0  0  0  0
  -27.2304  -37.1434   25.8859 H   0  0  0  0  0  0
  -20.9332  -29.8732   21.6861 H   0  0  0  0  0  0
  -26.0171  -38.2859   24.1418 H   0  0  0  0  0  0
  -27.5935  -22.6885   20.4667 H   0  0  0  0  0  0
  -32.4084  -23.3577   21.0470 H   0  0  0  0  0  0
  -27.9885  -25.6037   21.9171 H   0  0  0  0  0  0
  -27.1289  -24.9314   20.5807 H   0  0  0  0  0  0
  -28.9166  -20.1172   19.4534 H   0  0  0  0  0  0
  -28.0813  -20.2958   20.9709 H   0  0  0  0  0  0
  -30.1867  -19.5753   22.2011 H   0  0  0  0  0  0
  -30.9535  -19.3172   20.6555 H   0  0  0  0  0  0
  -29.0832  -17.6118   20.1283 H   0  0  0  0  0  0
  -28.5938  -17.7539   21.8019 H   0  0  0  0  0  0
  -30.8430  -16.9339   22.5445 H   0  0  0  0  0  0
  -31.4134  -16.9754   20.8987 H   0  0  0  0  0  0
  -29.2062  -15.1268   21.7636 H   0  0  0  0  0  0
  1 25  1  0  0  0
  1 30  2  0  0  0
  1 82  1  0  0  0
  2  3  1  0  0  0
  2 25  1  0  0  0
  2 84  1  0  0  0
  2 85  1  0  0  0
  3  4  1  0  0  0
  3 86  1  0  0  0
  3 87  1  0  0  0
  4  5  1  0  0  0
  4 88  1  0  0  0
  4 89  1  0  0  0
  5  6  1  0  0  0
  5 26  1  0  0  0
  5 90  1  0  0  0
  6 25  1  0  0  0
  6 91  1  0  0  0
  6 92  1  0  0  0
  7  8  2  0  0  0
  7 26  1  0  0  0
  7 29  1  0  0  0
  8  9  1  0  0  0
  8 22  1  0  0  0
  9 10  1  0  0  0
  9 27  2  0  0  0
 10 11  2  0  0  0
 10 15  1  0  0  0
 11 12  1  0  0  0
 11 93  1  0  0  0
 12 13  2  0  0  0
 12 94  1  0  0  0
 13 14  1  0  0  0
 13 31  1  0  0  0
 14 15  2  0  0  0
 14 95  1  0  0  0
 15 96  1  0  0  0
 16 17  2  0  0  0
 16 21  1  0  0  0
 16 31  1  0  0  0
 17 18  1  0  0  0
 17 97  1  0  0  0
 18 19  2  0  0  0
 18 98  1  0  0  0
 19 20  1  0  0  0
 19 24  1  0  0  0
 20 21  2  0  0  0
 20 99  1  0  0  0
 21 23  1  0  0  0
 22 28  1  0  0  0
 22 32  2  0  0  0
 26 27  1  0  0  0
 28100  1  0  0  0
 28101  1  0  0  0
 29102  1  0  0  0
 29103  1  0  0  0
 33 34  1  0  0  0
 33 66  1  0  0  0
 33 70  2  0  0  0
 34 36  1  0  0  0
 34 59  1  0  0  0
 34104  1  0  0  0
 35 44  2  0  0  0
 35 45  1  0  0  0
 35 68  1  0  0  0
 36 56  1  0  0  0
 36105  1  0  0  0
 37 39  1  0  0  0
 37 47  1  0  0  0
 37 66  1  0  0  0
 37106  1  0  0  0
 38 43  2  0  0  0
 38 46  1  0  0  0
 38 47  1  0  0  0
 39 64  1  0  0  0
 39 67  2  0  0  0
 40 52  1  0  0  0
 40 53  2  0  0  0
 40 58  1  0  0  0
 41107  1  0  0  0
 41108  1  0  0  0
 41109  1  0  0  0
 41 48  1  0  0  0
 42 43  1  0  0  0
 42 66  1  0  0  0
 42110  1  0  0  0
 42111  1  0  0  0
 43 44  1  0  0  0
 44112  1  0  0  0
 45 46  2  0  0  0
 45113  1  0  0  0
 46114  1  0  0  0
 47115  1  0  0  0
 47116  1  0  0  0
 48 56  1  0  0  0
 48 65  1  0  0  0
 48117  1  0  0  0
 49 50  1  0  0  0
 49 53  1  0  0  0
 49 64  1  0  0  0
 49118  1  0  0  0
 50 51  1  0  0  0
 50119  1  0  0  0
 50120  1  0  0  0
 51 52  1  0  0  0
 51121  1  0  0  0
 51122  1  0  0  0
 52123  1  0  0  0
 52124  1  0  0  0
 53 54  1  0  0  0
 54 55  2  0  0  0
 54125  1  0  0  0
 55 57  1  0  0  0
 55126  1  0  0  0
 56 69  2  0  0  0
 57 58  2  0  0  0
 57127  1  0  0  0
 58128  1  0  0  0
 59 60  1  0  0  0
 59 61  1  0  0  0
 59 62  1  0  0  0
 60129  1  0  0  0
 60130  1  0  0  0
 60131  1  0  0  0
 61132  1  0  0  0
 61133  1  0  0  0
 61134  1  0  0  0
 62135  1  0  0  0
 62136  1  0  0  0
 62137  1  0  0  0
 63 65  1  0  0  0
 63138  1  0  0  0
 63139  1  0  0  0
 63140  1  0  0  0
 64141  1  0  0  0
 65142  1  0  0  0
 68 76  1  0  0  0
 71 73  2  0  0  0
 71 75  1  0  0  0
 71143  1  0  0  0
 72 74  2  0  0  0
 72 81  1  0  0  0
 72144  1  0  0  0
 73 74  1  0  0  0
 73 76  1  0  0  0
 74 83  1  0  0  0
 75 77  1  0  0  0
 75 81  2  0  0  0
 76145  1  0  0  0
 76146  1  0  0  0
 77 78  1  0  0  0
 77147  1  0  0  0
 77148  1  0  0  0
 78 79  1  0  0  0
 78149  1  0  0  0
 78150  1  0  0  0
 79 80  1  0  0  0
 79151  1  0  0  0
 79152  1  0  0  0
 80 82  1  0  0  0
 80153  1  0  0  0
 80154  1  0  0  0
 82155  1  0  0  0
M  ISO  4   1 100  68 101  76 101  82 100
M  END
> <chiral flag>
0

> <version>
0

> <s_m_source_file>
/data/baiqing/PycharmProjects/Reinvent-master-3.2/result/LINK_invent/BTK/process_docking_weight1_custom_sum_contain_oxygen_bond_distance_aromatic_linkinvent_7_9_3/rearranged_h_0035.sdf

> <i_m_source_file_index>
81

> <r_mmod_Potential_Energy-OPLS-2005>
-143.937469482422

> <r_mmod_Stretch_Energy-OPLS-2005>
39.9533767700195

> <r_mmod_Bend_Energy-OPLS-2005>
91.9651184082031

> <r_mmod_Torsional_Energy-OPLS-2005>
224.082168579102

> <r_mmod_Improper_Torsional_Energy-OPLS-2005>
2.82650351524353

> <r_mmod_Van_der_Waal_Energy-OPLS-2005>
157.354339599609

> <r_mmod_Electrostatic_Energy-OPLS-2005>
-454.514617919922

> <r_mmod_Solvation_Energy-OPLS-2005>
-220.977020263672

> <b_mmod_Minimization_Converged-OPLS-2005>
0

> <r_mmod_RMS_Derivative-OPLS-2005>
4.53371286392212

$$$$
81
                    3D
 Structure written by MMmdl.
149157  0  0  1  0            999 V2000
  -30.5246  -14.9547   20.4191 C   0  0  0  0  0  0
  -30.4337  -12.5953   19.4891 C   0  0  0  0  0  0
  -29.5209  -12.5524   18.2439 C   0  0  0  0  0  0
  -28.0467  -12.3499   18.6391 C   0  0  0  0  0  0
  -27.6231  -13.2574   19.8255 C   0  0  2  0  0  0
  -28.6607  -13.2723   20.9646 C   0  0  0  0  0  0
  -25.2443  -13.8253   20.5674 C   0  0  0  0  0  0
  -24.1780  -13.0463   20.9232 C   0  0  0  0  0  0
  -24.6408  -11.6944   20.8732 C   0  0  0  0  0  0
  -23.9089  -10.4309   21.0380 C   0  0  0  0  0  0
  -24.3648   -9.4226   21.9147 C   0  0  0  0  0  0
  -23.6316   -8.2263   22.0724 C   0  0  0  0  0  0
  -22.4296   -8.0288   21.3522 C   0  0  0  0  0  0
  -21.9932   -9.0257   20.4610 C   0  0  0  0  0  0
  -22.7278  -10.2136   20.3005 C   0  0  0  0  0  0
  -21.6854   -6.0740   22.5279 C   0  0  0  0  0  0
  -21.4027   -6.5640   23.8218 C   0  0  0  0  0  0
  -21.3678   -5.6793   24.9172 C   0  0  0  0  0  0
  -21.6054   -4.3048   24.7222 C   0  0  0  0  0  0
  -21.8832   -3.8156   23.4337 C   0  0  0  0  0  0
  -21.9209   -4.6965   22.3401 C   0  0  0  0  0  0
  -22.7806  -13.5198   21.1910 C   0  0  0  0  0  0
  -22.1665   -4.2150   21.0973 F   0  0  0  0  0  0
  -21.5626   -3.4532   25.7729 F   0  0  0  0  0  0
  -29.9371  -13.6905   20.3727 N   0  0  0  0  0  0
  -26.2848  -12.9481   20.3132 N   0  0  0  0  0  0
  -25.9320  -11.6612   20.5647 N   0  0  0  0  0  0
  -22.0446  -12.8175   22.0458 N   0  0  0  0  0  0
  -25.4108  -15.1984   20.4150 N   0  0  0  0  0  0
  -31.7357  -15.0184   20.1650 O   0  0  0  0  0  0
  -21.6637   -6.8881   21.4236 O   0  0  0  0  0  0
  -22.3477  -14.5481   20.6709 O   0  0  0  0  0  0
  -24.6473  -31.8434   23.1876 C   0  0  0  0  0  0
  -25.9244  -32.4696   23.8282 C   0  0  1  0  0  0
  -27.1893  -27.0978   20.1654 C   0  0  0  0  0  0
  -25.5997  -33.8509   24.2207 N   0  0  0  0  0  0
  -23.4528  -30.4633   21.5365 C   0  0  2  0  0  0
  -24.8924  -28.8888   20.1098 C   0  0  0  0  0  0
  -22.7609  -29.4543   22.4887 C   0  0  0  0  0  0
  -18.0304  -28.1373   22.8469 C   0  0  0  0  0  0
  -24.1495  -36.7245   23.2646 C   0  0  0  0  0  0
  -26.0108  -30.7044   21.3929 C   0  0  0  0  0  0
  -26.0734  -29.3142   20.7317 C   0  0  0  0  0  0
  -27.2267  -28.4374   20.7367 C   0  0  0  0  0  0
  -25.9863  -26.7857   19.4955 C   0  0  0  0  0  0
  -24.8655  -27.6422   19.4703 C   0  0  0  0  0  0
  -23.6725  -29.7973   20.1535 C   0  0  0  0  0  0
  -25.4136  -36.3056   24.0313 C   0  0  1  0  0  0
  -20.5931  -28.3703   23.1212 C   0  0  2  0  0  0
  -20.6782  -26.9397   22.5396 C   0  0  0  0  0  0
  -19.5752  -26.6348   21.5213 C   0  0  0  0  0  0
  -18.1933  -26.7903   22.1619 C   0  0  0  0  0  0
  -19.1564  -28.8858   23.2826 C   0  0  0  0  0  0
  -18.9469  -30.1456   23.8847 C   0  0  0  0  0  0
  -17.6462  -30.6562   24.0548 C   0  0  0  0  0  0
  -25.9082  -34.9426   23.5066 C   0  0  0  0  0  0
  -16.5359  -29.9034   23.6348 C   0  0  0  0  0  0
  -16.7284  -28.6461   23.0352 C   0  0  0  0  0  0
  -26.4529  -31.6567   25.0740 C   0  0  0  0  0  0
  -25.3689  -31.3764   26.1420 C   0  0  0  0  0  0
  -27.0428  -30.2966   24.6378 C   0  0  0  0  0  0
  -27.6080  -32.4312   25.7515 C   0  0  0  0  0  0
  -27.5586  -37.1792   24.8459 C   0  0  0  0  0  0
  -21.4309  -29.3034   22.3627 N   0  0  0  0  0  0
  -26.4298  -37.3772   23.9404 N   0  0  0  0  0  0
  -24.7246  -31.0246   22.0946 N   0  0  0  0  0  0
  -23.4224  -28.8111   23.3071 O   0  0  0  0  0  0
  -28.2114  -26.0753   20.2446 O   0  0  0  0  0  0
  -26.5673  -34.8928   22.4648 O   0  0  0  0  0  0
  -23.5575  -32.1336   23.7068 O   0  0  0  0  0  0
  -29.4590  -20.4174   20.3861 C   0  0  0  0  0  0
  -26.9168  -19.6613   20.7766 C   0  0  0  0  0  0
  -28.4968  -21.5501   20.4948 C   0  0  0  0  0  0
  -27.1771  -21.0602   20.7048 C   0  0  0  0  0  0
  -29.1216  -18.9689   20.4826 C   0  0  0  0  0  0
  -28.8583  -23.1868   20.4851 C   0  0  0  0  0  0
  -30.1291  -17.6658   20.3786 C   0  0  0  0  0  0
  -27.8551  -24.5421   20.2258 C   0  0  0  0  0  0
  -27.8267  -18.6538   20.6732 N   0  0  0  0  0  0
  -29.7469  -16.1404   20.5386 N   0  0  0  0  0  0
  -25.8309  -22.1214   20.8959 Cl  0  0  0  0  0  0
  -31.4683  -12.7568   19.1805 H   0  0  0  0  0  0
  -30.4158  -11.6375   20.0116 H   0  0  0  0  0  0
  -29.8456  -11.7708   17.5549 H   0  0  0  0  0  0
  -29.6184  -13.4975   17.7074 H   0  0  0  0  0  0
  -27.9210  -11.3022   18.9079 H   0  0  0  0  0  0
  -27.3965  -12.5210   17.7777 H   0  0  0  0  0  0
  -27.5792  -14.2674   19.4166 H   0  0  0  0  0  0
  -28.7442  -12.2867   21.4253 H   0  0  0  0  0  0
  -28.3540  -13.9576   21.7537 H   0  0  0  0  0  0
  -25.2774   -9.5705   22.4730 H   0  0  0  0  0  0
  -24.0050   -7.4651   22.7428 H   0  0  0  0  0  0
  -21.0872   -8.8750   19.8899 H   0  0  0  0  0  0
  -22.3711  -10.9667   19.6111 H   0  0  0  0  0  0
  -21.1983   -7.6143   23.9741 H   0  0  0  0  0  0
  -21.1493   -6.0492   25.9091 H   0  0  0  0  0  0
  -22.0587   -2.7611   23.2833 H   0  0  0  0  0  0
  -22.4053  -11.9861   22.4905 H   0  0  0  0  0  0
  -21.1016  -13.1138   22.2526 H   0  0  0  0  0  0
  -24.6415  -15.8484   20.5216 H   0  0  0  0  0  0
  -26.2606  -15.6498   20.1039 H   0  0  0  0  0  0
  -26.7337  -32.5279   23.1031 H   0  0  0  0  0  0
  -25.0159  -33.9627   25.0367 H   0  0  0  0  0  0
  -22.7580  -31.2933   21.3894 H   0  0  0  0  0  0
  -23.3788  -35.9541   23.3279 H   0  0  0  0  0  0
  -24.3570  -36.8889   22.2061 H   0  0  0  0  0  0
  -23.7199  -37.6418   23.6683 H   0  0  0  0  0  0
  -26.1806  -31.4637   20.6282 H   0  0  0  0  0  0
  -26.8765  -30.7451   22.0431 H   0  0  0  0  0  0
  -28.1267  -28.7559   21.2444 H   0  0  0  0  0  0
  -25.8715  -25.8343   19.0022 H   0  0  0  0  0  0
  -23.9685  -27.3157   18.9625 H   0  0  0  0  0  0
  -23.8078  -30.5773   19.4015 H   0  0  0  0  0  0
  -22.7847  -29.2420   19.8461 H   0  0  0  0  0  0
  -25.1331  -36.1902   25.0803 H   0  0  0  0  0  0
  -21.0001  -28.3258   24.1337 H   0  0  0  0  0  0
  -20.5621  -26.2342   23.3628 H   0  0  0  0  0  0
  -21.6645  -26.7351   22.1225 H   0  0  0  0  0  0
  -19.6901  -25.6247   21.1249 H   0  0  0  0  0  0
  -19.6653  -27.3152   20.6731 H   0  0  0  0  0  0
  -17.4205  -26.6649   21.4004 H   0  0  0  0  0  0
  -18.0291  -26.0034   22.9001 H   0  0  0  0  0  0
  -19.7959  -30.7297   24.2143 H   0  0  0  0  0  0
  -17.5017  -31.6240   24.5163 H   0  0  0  0  0  0
  -15.5349  -30.2912   23.7701 H   0  0  0  0  0  0
  -15.8699  -28.0772   22.7062 H   0  0  0  0  0  0
  -24.5871  -30.7117   25.7709 H   0  0  0  0  0  0
  -24.8870  -32.2951   26.4781 H   0  0  0  0  0  0
  -25.7932  -30.8957   27.0250 H   0  0  0  0  0  0
  -26.3082  -29.6667   24.1360 H   0  0  0  0  0  0
  -27.4006  -29.7281   25.4974 H   0  0  0  0  0  0
  -27.8996  -30.4194   23.9756 H   0  0  0  0  0  0
  -27.2715  -33.3645   26.2045 H   0  0  0  0  0  0
  -28.3926  -32.6813   25.0355 H   0  0  0  0  0  0
  -28.0739  -31.8472   26.5470 H   0  0  0  0  0  0
  -28.2613  -38.0095   24.7570 H   0  0  0  0  0  0
  -28.1105  -36.2641   24.6238 H   0  0  0  0  0  0
  -27.2317  -37.1358   25.8869 H   0  0  0  0  0  0
  -20.9523  -29.8791   21.6861 H   0  0  0  0  0  0
  -26.0180  -38.2855   24.1384 H   0  0  0  0  0  0
  -30.4987  -20.6724   20.2259 H   0  0  0  0  0  0
  -25.9005  -19.3278   20.9486 H   0  0  0  0  0  0
  -29.6899  -23.2875   19.7898 H   0  0  0  0  0  0
  -29.2958  -23.3457   21.4700 H   0  0  0  0  0  0
  -30.9319  -17.8547   21.0916 H   0  0  0  0  0  0
  -30.6036  -17.7520   19.4004 H   0  0  0  0  0  0
  -27.0583  -24.4707   20.9666 H   0  0  0  0  0  0
  -27.3836  -24.3491   19.2647 H   0  0  0  0  0  0
  -28.7642  -15.9926   20.7110 H   0  0  0  0  0  0
  1 25  1  0  0  0
  1 30  2  0  0  0
  1 80  1  0  0  0
  2  3  1  0  0  0
  2 25  1  0  0  0
  2 82  1  0  0  0
  2 83  1  0  0  0
  3  4  1  0  0  0
  3 84  1  0  0  0
  3 85  1  0  0  0
  4  5  1  0  0  0
  4 86  1  0  0  0
  4 87  1  0  0  0
  5  6  1  0  0  0
  5 26  1  0  0  0
  5 88  1  0  0  0
  6 25  1  0  0  0
  6 89  1  0  0  0
  6 90  1  0  0  0
  7  8  2  0  0  0
  7 26  1  0  0  0
  7 29  1  0  0  0
  8  9  1  0  0  0
  8 22  1  0  0  0
  9 10  1  0  0  0
  9 27  2  0  0  0
 10 11  2  0  0  0
 10 15  1  0  0  0
 11 12  1  0  0  0
 11 91  1  0  0  0
 12 13  2  0  0  0
 12 92  1  0  0  0
 13 14  1  0  0  0
 13 31  1  0  0  0
 14 15  2  0  0  0
 14 93  1  0  0  0
 15 94  1  0  0  0
 16 17  2  0  0  0
 16 21  1  0  0  0
 16 31  1  0  0  0
 17 18  1  0  0  0
 17 95  1  0  0  0
 18 19  2  0  0  0
 18 96  1  0  0  0
 19 20  1  0  0  0
 19 24  1  0  0  0
 20 21  2  0  0  0
 20 97  1  0  0  0
 21 23  1  0  0  0
 22 28  1  0  0  0
 22 32  2  0  0  0
 26 27  1  0  0  0
 28 98  1  0  0  0
 28 99  1  0  0  0
 29100  1  0  0  0
 29101  1  0  0  0
 33 34  1  0  0  0
 33 66  1  0  0  0
 33 70  2  0  0  0
 34 36  1  0  0  0
 34 59  1  0  0  0
 34102  1  0  0  0
 35 44  2  0  0  0
 35 45  1  0  0  0
 35 68  1  0  0  0
 36 56  1  0  0  0
 36103  1  0  0  0
 37 39  1  0  0  0
 37 47  1  0  0  0
 37 66  1  0  0  0
 37104  1  0  0  0
 38 43  2  0  0  0
 38 46  1  0  0  0
 38 47  1  0  0  0
 39 64  1  0  0  0
 39 67  2  0  0  0
 40 52  1  0  0  0
 40 53  2  0  0  0
 40 58  1  0  0  0
 41105  1  0  0  0
 41106  1  0  0  0
 41107  1  0  0  0
 41 48  1  0  0  0
 42 43  1  0  0  0
 42 66  1  0  0  0
 42108  1  0  0  0
 42109  1  0  0  0
 43 44  1  0  0  0
 44110  1  0  0  0
 45 46  2  0  0  0
 45111  1  0  0  0
 46112  1  0  0  0
 47113  1  0  0  0
 47114  1  0  0  0
 48 56  1  0  0  0
 48 65  1  0  0  0
 48115  1  0  0  0
 49 50  1  0  0  0
 49 53  1  0  0  0
 49 64  1  0  0  0
 49116  1  0  0  0
 50 51  1  0  0  0
 50117  1  0  0  0
 50118  1  0  0  0
 51 52  1  0  0  0
 51119  1  0  0  0
 51120  1  0  0  0
 52121  1  0  0  0
 52122  1  0  0  0
 53 54  1  0  0  0
 54 55  2  0  0  0
 54123  1  0  0  0
 55 57  1  0  0  0
 55124  1  0  0  0
 56 69  2  0  0  0
 57 58  2  0  0  0
 57125  1  0  0  0
 58126  1  0  0  0
 59 60  1  0  0  0
 59 61  1  0  0  0
 59 62  1  0  0  0
 60127  1  0  0  0
 60128  1  0  0  0
 60129  1  0  0  0
 61130  1  0  0  0
 61131  1  0  0  0
 61132  1  0  0  0
 62133  1  0  0  0
 62134  1  0  0  0
 62135  1  0  0  0
 63 65  1  0  0  0
 63136  1  0  0  0
 63137  1  0  0  0
 63138  1  0  0  0
 64139  1  0  0  0
 65140  1  0  0  0
 68 78  1  0  0  0
 71 73  2  0  0  0
 71 75  1  0  0  0
 71141  1  0  0  0
 72 74  2  0  0  0
 72 79  1  0  0  0
 72142  1  0  0  0
 73 74  1  0  0  0
 73 76  1  0  0  0
 74 81  1  0  0  0
 75 77  1  0  0  0
 75 79  2  0  0  0
 76 78  1  0  0  0
 76143  1  0  0  0
 76144  1  0  0  0
 77 80  1  0  0  0
 77145  1  0  0  0
 77146  1  0  0  0
 78147  1  0  0  0
 78148  1  0  0  0
 80149  1  0  0  0
M  ISO  4   1 100  68 101  78 101  80 100
M  END
> <chiral flag>
0

> <version>
0

> <s_m_source_file>
/data/baiqing/PycharmProjects/Reinvent-master-3.2/result/LINK_invent/BTK/process_docking_weight1_custom_sum_contain_oxygen_bond_distance_aromatic_linkinvent_7_9_3/rearranged_h_0035.sdf

> <i_m_source_file_index>
82

> <r_mmod_Potential_Energy-OPLS-2005>
306.281341552734

> <r_mmod_Stretch_Energy-OPLS-2005>
274.897125244141

> <r_mmod_Bend_Energy-OPLS-2005>
250.739196777344

> <r_mmod_Torsional_Energy-OPLS-2005>
204.223114013672

> <r_mmod_Improper_Torsional_Energy-OPLS-2005>
4.53498840332031

> <r_mmod_Van_der_Waal_Energy-OPLS-2005>
132.987503051758

> <r_mmod_Electrostatic_Energy-OPLS-2005>
-558.916931152344

> <r_mmod_Solvation_Energy-OPLS-2005>
-217.563995361328

> <b_mmod_Minimization_Converged-OPLS-2005>
0

> <r_mmod_RMS_Derivative-OPLS-2005>
4.9721794128418

$$$$
82
                    3D
 Structure written by MMmdl.
159168  0  0  1  0            999 V2000
  -30.6526  -14.5650   20.5571 C   0  0  0  0  0  0
  -30.4326  -12.3640   19.4317 C   0  0  0  0  0  0
  -29.4993  -12.5107   18.2117 C   0  0  0  0  0  0
  -28.0230  -12.3501   18.6270 C   0  0  0  0  0  0
  -27.6542  -13.2084   19.8662 C   0  0  2  0  0  0
  -28.6970  -13.0308   20.9908 C   0  0  0  0  0  0
  -25.2563  -13.8153   20.5661 C   0  0  0  0  0  0
  -24.1825  -13.0432   20.9176 C   0  0  0  0  0  0
  -24.6386  -11.6897   20.8740 C   0  0  0  0  0  0
  -23.9057  -10.4286   21.0409 C   0  0  0  0  0  0
  -24.3615   -9.4202   21.9184 C   0  0  0  0  0  0
  -23.6289   -8.2237   22.0755 C   0  0  0  0  0  0
  -22.4272   -8.0276   21.3545 C   0  0  0  0  0  0
  -21.9904   -9.0249   20.4648 C   0  0  0  0  0  0
  -22.7230  -10.2128   20.3055 C   0  0  0  0  0  0
  -21.6850   -6.0736   22.5277 C   0  0  0  0  0  0
  -21.4014   -6.5643   23.8211 C   0  0  0  0  0  0
  -21.3655   -5.6793   24.9173 C   0  0  0  0  0  0
  -21.6042   -4.3055   24.7225 C   0  0  0  0  0  0
  -21.8819   -3.8146   23.4345 C   0  0  0  0  0  0
  -21.9194   -4.6963   22.3401 C   0  0  0  0  0  0
  -22.7855  -13.5233   21.1848 C   0  0  0  0  0  0
  -22.1660   -4.2151   21.0978 F   0  0  0  0  0  0
  -21.5626   -3.4536   25.7736 F   0  0  0  0  0  0
  -30.0151  -13.3651   20.4285 N   0  0  0  0  0  0
  -26.2986  -12.9316   20.3323 N   0  0  0  0  0  0
  -25.9307  -11.6477   20.5754 N   0  0  0  0  0  0
  -22.0503  -12.8221   22.0411 N   0  0  0  0  0  0
  -25.4280  -15.1871   20.4042 N   0  0  0  0  0  0
  -31.8081  -14.7424   20.1606 O   0  0  0  0  0  0
  -21.6632   -6.8875   21.4239 O   0  0  0  0  0  0
  -22.3540  -14.5542   20.6704 O   0  0  0  0  0  0
  -24.6206  -31.8646   23.2067 C   0  0  0  0  0  0
  -25.9077  -32.4799   23.8387 C   0  0  1  0  0  0
  -27.2268  -27.3756   20.1262 C   0  0  0  0  0  0
  -25.5921  -33.8600   24.2319 N   0  0  0  0  0  0
  -23.4112  -30.4874   21.5476 C   0  0  2  0  0  0
  -24.8585  -28.9397   20.1223 C   0  0  0  0  0  0
  -22.7440  -29.4650   22.4967 C   0  0  0  0  0  0
  -18.0276  -28.1385   22.8497 C   0  0  0  0  0  0
  -24.1469  -36.7278   23.2640 C   0  0  0  0  0  0
  -25.9458  -30.8107   21.3698 C   0  0  0  0  0  0
  -26.0208  -29.4364   20.7283 C   0  0  0  0  0  0
  -27.2104  -28.6618   20.7287 C   0  0  0  0  0  0
  -26.0542  -26.9121   19.4999 C   0  0  0  0  0  0
  -24.8713  -27.6765   19.5062 C   0  0  0  0  0  0
  -23.6245  -29.8165   20.1640 C   0  0  0  0  0  0
  -25.4092  -36.3088   24.0342 C   0  0  1  0  0  0
  -20.5877  -28.3668   23.1294 C   0  0  2  0  0  0
  -20.6768  -26.9400   22.5405 C   0  0  0  0  0  0
  -19.5735  -26.6384   21.5211 C   0  0  0  0  0  0
  -18.1913  -26.7936   22.1621 C   0  0  0  0  0  0
  -19.1534  -28.8844   23.2893 C   0  0  0  0  0  0
  -18.9466  -30.1455   23.8898 C   0  0  0  0  0  0
  -17.6467  -30.6595   24.0561 C   0  0  0  0  0  0
  -25.9029  -34.9462   23.5117 C   0  0  0  0  0  0
  -16.5353  -29.9091   23.6336 C   0  0  0  0  0  0
  -16.7264  -28.6507   23.0359 C   0  0  0  0  0  0
  -26.4491  -31.6597   25.0736 C   0  0  0  0  0  0
  -25.3754  -31.3730   26.1483 C   0  0  0  0  0  0
  -27.0317  -30.3031   24.6146 C   0  0  0  0  0  0
  -27.6062  -32.4326   25.7495 C   0  0  0  0  0  0
  -27.5565  -37.1787   24.8476 C   0  0  0  0  0  0
  -21.4162  -29.3029   22.3701 N   0  0  0  0  0  0
  -26.4265  -37.3784   23.9433 N   0  0  0  0  0  0
  -24.6775  -31.0707   22.0985 N   0  0  0  0  0  0
  -23.4193  -28.8198   23.3035 O   0  0  0  0  0  0
  -28.3690  -26.5967   20.0397 O   0  0  0  0  0  0
  -26.5585  -34.8929   22.4675 O   0  0  0  0  0  0
  -23.5383  -32.1414   23.7428 O   0  0  0  0  0  0
  -30.4020  -22.7868   20.8837 C   0  0  0  0  0  0
  -26.7493  -23.9767   21.1221 C   0  0  0  0  0  0
  -30.5798  -21.4280   21.0226 C   0  0  0  0  0  0
  -28.9913  -23.0515   20.9801 C   0  0  0  0  0  0
  -28.1362  -24.2062   21.0091 C   0  0  0  0  0  0
  -26.2419  -22.6659   21.2143 C   0  0  0  0  0  0
  -28.3535  -21.7710   21.1285 C   0  0  0  0  0  0
  -24.7481  -22.4343   21.3207 C   0  0  0  0  0  0
  -28.6704  -25.6624   21.1094 C   0  0  0  0  0  0
  -29.6856  -18.2016   20.7044 C   0  0  0  0  0  0
  -29.2162  -19.3701   21.6543 C   0  0  0  0  0  0
  -30.3092  -16.9552   21.4520 C   0  0  0  0  0  0
  -27.0090  -21.5551   21.2412 N   0  0  0  0  0  0
  -29.3586  -20.7893   21.2235 N   0  0  0  0  0  0
  -29.8914  -15.5916   21.0215 N   0  0  0  0  0  0
  -31.4735  -12.4908   19.1290 H   0  0  0  0  0  0
  -30.3627  -11.3602   19.8534 H   0  0  0  0  0  0
  -29.7565  -11.7755   17.4483 H   0  0  0  0  0  0
  -29.6463  -13.4905   17.7543 H   0  0  0  0  0  0
  -27.8556  -11.2949   18.8475 H   0  0  0  0  0  0
  -27.3666  -12.5929   17.7909 H   0  0  0  0  0  0
  -27.6841  -14.2491   19.5432 H   0  0  0  0  0  0
  -28.6977  -12.0024   21.3552 H   0  0  0  0  0  0
  -28.4460  -13.6462   21.8560 H   0  0  0  0  0  0
  -25.2766   -9.5678   22.4747 H   0  0  0  0  0  0
  -24.0008   -7.4629   22.7471 H   0  0  0  0  0  0
  -21.0834   -8.8762   19.8953 H   0  0  0  0  0  0
  -22.3693  -10.9664   19.6158 H   0  0  0  0  0  0
  -21.2004   -7.6150   23.9714 H   0  0  0  0  0  0
  -21.1479   -6.0525   25.9077 H   0  0  0  0  0  0
  -22.0604   -2.7608   23.2844 H   0  0  0  0  0  0
  -22.4133  -11.9884   22.4782 H   0  0  0  0  0  0
  -21.1126  -13.1242   22.2633 H   0  0  0  0  0  0
  -24.6565  -15.8394   20.4952 H   0  0  0  0  0  0
  -26.2739  -15.6231   20.0592 H   0  0  0  0  0  0
  -26.7151  -32.5487   23.1153 H   0  0  0  0  0  0
  -25.0136  -33.9772   25.0510 H   0  0  0  0  0  0
  -22.7022  -31.3050   21.4043 H   0  0  0  0  0  0
  -23.3744  -35.9596   23.3303 H   0  0  0  0  0  0
  -24.3574  -36.8878   22.2055 H   0  0  0  0  0  0
  -23.7206  -37.6479   23.6647 H   0  0  0  0  0  0
  -26.0660  -31.5666   20.5929 H   0  0  0  0  0  0
  -26.8320  -30.8686   21.9901 H   0  0  0  0  0  0
  -28.1119  -29.0475   21.1833 H   0  0  0  0  0  0
  -26.0566  -25.9483   19.0104 H   0  0  0  0  0  0
  -23.9805  -27.2885   19.0309 H   0  0  0  0  0  0
  -23.7419  -30.5897   19.4036 H   0  0  0  0  0  0
  -22.7461  -29.2418   19.8641 H   0  0  0  0  0  0
  -25.1268  -36.1930   25.0834 H   0  0  0  0  0  0
  -20.9969  -28.3223   24.1414 H   0  0  0  0  0  0
  -20.5663  -26.2281   23.3599 H   0  0  0  0  0  0
  -21.6638  -26.7430   22.1199 H   0  0  0  0  0  0
  -19.6886  -25.6295   21.1233 H   0  0  0  0  0  0
  -19.6671  -27.3201   20.6749 H   0  0  0  0  0  0
  -17.4190  -26.6694   21.4016 H   0  0  0  0  0  0
  -18.0297  -26.0083   22.9017 H   0  0  0  0  0  0
  -19.7945  -30.7272   24.2263 H   0  0  0  0  0  0
  -17.5025  -31.6278   24.5158 H   0  0  0  0  0  0
  -15.5354  -30.2992   23.7681 H   0  0  0  0  0  0
  -15.8659  -28.0826   22.7079 H   0  0  0  0  0  0
  -24.5939  -30.7047   25.7852 H   0  0  0  0  0  0
  -24.8938  -32.2896   26.4899 H   0  0  0  0  0  0
  -25.8118  -30.8949   27.0261 H   0  0  0  0  0  0
  -26.2868  -29.6791   24.1198 H   0  0  0  0  0  0
  -27.4071  -29.7273   25.4617 H   0  0  0  0  0  0
  -27.8712  -30.4339   23.9313 H   0  0  0  0  0  0
  -27.2686  -33.3643   26.2050 H   0  0  0  0  0  0
  -28.3887  -32.6853   25.0326 H   0  0  0  0  0  0
  -28.0712  -31.8465   26.5433 H   0  0  0  0  0  0
  -28.2589  -38.0080   24.7531 H   0  0  0  0  0  0
  -28.1048  -36.2618   24.6272 H   0  0  0  0  0  0
  -27.2302  -37.1406   25.8884 H   0  0  0  0  0  0
  -20.9334  -29.8736   21.6903 H   0  0  0  0  0  0
  -26.0138  -38.2844   24.1476 H   0  0  0  0  0  0
  -31.1812  -23.5290   20.7596 H   0  0  0  0  0  0
  -26.0703  -24.8172   21.1814 H   0  0  0  0  0  0
  -31.5024  -20.8601   21.0553 H   0  0  0  0  0  0
  -24.2296  -23.3372   21.6452 H   0  0  0  0  0  0
  -24.5212  -21.6450   22.0386 H   0  0  0  0  0  0
  -24.3417  -22.1414   20.3521 H   0  0  0  0  0  0
  -29.7553  -25.6182   21.1955 H   0  0  0  0  0  0
  -28.3281  -26.0810   22.0578 H   0  0  0  0  0  0
  -30.4219  -18.5777   19.9934 H   0  0  0  0  0  0
  -28.8347  -17.8876   20.0993 H   0  0  0  0  0  0
  -29.7730  -19.2966   22.5890 H   0  0  0  0  0  0
  -28.1778  -19.1982   21.9403 H   0  0  0  0  0  0
  -30.0445  -17.0093   22.5084 H   0  0  0  0  0  0
  -31.3976  -17.0353   21.4347 H   0  0  0  0  0  0
  -28.9425  -15.3349   21.2504 H   0  0  0  0  0  0
  1 25  1  0  0  0
  1 30  2  0  0  0
  1 85  1  0  0  0
  2  3  1  0  0  0
  2 25  1  0  0  0
  2 86  1  0  0  0
  2 87  1  0  0  0
  3  4  1  0  0  0
  3 88  1  0  0  0
  3 89  1  0  0  0
  4  5  1  0  0  0
  4 90  1  0  0  0
  4 91  1  0  0  0
  5  6  1  0  0  0
  5 26  1  0  0  0
  5 92  1  0  0  0
  6 25  1  0  0  0
  6 93  1  0  0  0
  6 94  1  0  0  0
  7  8  2  0  0  0
  7 26  1  0  0  0
  7 29  1  0  0  0
  8  9  1  0  0  0
  8 22  1  0  0  0
  9 10  1  0  0  0
  9 27  2  0  0  0
 10 11  2  0  0  0
 10 15  1  0  0  0
 11 12  1  0  0  0
 11 95  1  0  0  0
 12 13  2  0  0  0
 12 96  1  0  0  0
 13 14  1  0  0  0
 13 31  1  0  0  0
 14 15  2  0  0  0
 14 97  1  0  0  0
 15 98  1  0  0  0
 16 17  2  0  0  0
 16 21  1  0  0  0
 16 31  1  0  0  0
 17 18  1  0  0  0
 17 99  1  0  0  0
 18 19  2  0  0  0
 18100  1  0  0  0
 19 20  1  0  0  0
 19 24  1  0  0  0
 20 21  2  0  0  0
 20101  1  0  0  0
 21 23  1  0  0  0
 22 28  1  0  0  0
 22 32  2  0  0  0
 26 27  1  0  0  0
 28102  1  0  0  0
 28103  1  0  0  0
 29104  1  0  0  0
 29105  1  0  0  0
 33 34  1  0  0  0
 33 66  1  0  0  0
 33 70  2  0  0  0
 34 36  1  0  0  0
 34 59  1  0  0  0
 34106  1  0  0  0
 35 44  2  0  0  0
 35 45  1  0  0  0
 35 68  1  0  0  0
 36 56  1  0  0  0
 36107  1  0  0  0
 37 39  1  0  0  0
 37 47  1  0  0  0
 37 66  1  0  0  0
 37108  1  0  0  0
 38 43  2  0  0  0
 38 46  1  0  0  0
 38 47  1  0  0  0
 39 64  1  0  0  0
 39 67  2  0  0  0
 40 52  1  0  0  0
 40 53  2  0  0  0
 40 58  1  0  0  0
 41109  1  0  0  0
 41110  1  0  0  0
 41111  1  0  0  0
 41 48  1  0  0  0
 42 43  1  0  0  0
 42 66  1  0  0  0
 42112  1  0  0  0
 42113  1  0  0  0
 43 44  1  0  0  0
 44114  1  0  0  0
 45 46  2  0  0  0
 45115  1  0  0  0
 46116  1  0  0  0
 47117  1  0  0  0
 47118  1  0  0  0
 48 56  1  0  0  0
 48 65  1  0  0  0
 48119  1  0  0  0
 49 50  1  0  0  0
 49 53  1  0  0  0
 49 64  1  0  0  0
 49120  1  0  0  0
 50 51  1  0  0  0
 50121  1  0  0  0
 50122  1  0  0  0
 51 52  1  0  0  0
 51123  1  0  0  0
 51124  1  0  0  0
 52125  1  0  0  0
 52126  1  0  0  0
 53 54  1  0  0  0
 54 55  2  0  0  0
 54127  1  0  0  0
 55 57  1  0  0  0
 55128  1  0  0  0
 56 69  2  0  0  0
 57 58  2  0  0  0
 57129  1  0  0  0
 58130  1  0  0  0
 59 60  1  0  0  0
 59 61  1  0  0  0
 59 62  1  0  0  0
 60131  1  0  0  0
 60132  1  0  0  0
 60133  1  0  0  0
 61134  1  0  0  0
 61135  1  0  0  0
 61136  1  0  0  0
 62137  1  0  0  0
 62138  1  0  0  0
 62139  1  0  0  0
 63 65  1  0  0  0
 63140  1  0  0  0
 63141  1  0  0  0
 63142  1  0  0  0
 64143  1  0  0  0
 65144  1  0  0  0
 68 79  1  0  0  0
 71 73  2  0  0  0
 71 74  1  0  0  0
 71145  1  0  0  0
 72 75  1  0  0  0
 72 76  2  0  0  0
 72146  1  0  0  0
 73 84  1  0  0  0
 73147  1  0  0  0
 74 75  2  0  0  0
 74 77  1  0  0  0
 75 79  1  0  0  0
 76 78  1  0  0  0
 76 83  1  0  0  0
 77 83  2  0  0  0
 77 84  1  0  0  0
 78148  1  0  0  0
 78149  1  0  0  0
 78150  1  0  0  0
 79151  1  0  0  0
 79152  1  0  0  0
 80 81  1  0  0  0
 80 82  1  0  0  0
 80153  1  0  0  0
 80154  1  0  0  0
 81 84  1  0  0  0
 81155  1  0  0  0
 81156  1  0  0  0
 82 85  1  0  0  0
 82157  1  0  0  0
 82158  1  0  0  0
 85159  1  0  0  0
M  ISO  4   1 100  68 101  79 101  85 100
M  END
> <chiral flag>
0

> <version>
0

> <s_m_source_file>
/data/baiqing/PycharmProjects/Reinvent-master-3.2/result/LINK_invent/BTK/process_docking_weight1_custom_sum_contain_oxygen_bond_distance_aromatic_linkinvent_7_9_3/rearranged_h_0035.sdf

> <i_m_source_file_index>
83

> <r_mmod_Potential_Energy-OPLS-2005>
-57.7249488830566

> <r_mmod_Stretch_Energy-OPLS-2005>
54.4569549560547

> <r_mmod_Bend_Energy-OPLS-2005>
120.50732421875

> <r_mmod_Torsional_Energy-OPLS-2005>
269.132019042969

> <r_mmod_Improper_Torsional_Energy-OPLS-2005>
5.52775287628174

> <r_mmod_Van_der_Waal_Energy-OPLS-2005>
135.365280151367

> <r_mmod_Electrostatic_Energy-OPLS-2005>
-444.92822265625

> <r_mmod_Solvation_Energy-OPLS-2005>
-223.65007019043

> <b_mmod_Minimization_Converged-OPLS-2005>
0

> <r_mmod_RMS_Derivative-OPLS-2005>
1.17566156387329

$$$$
83
                    3D
 Structure written by MMmdl.
174183  0  0  1  0            999 V2000
  -30.8468  -14.2639   20.7568 C   0  0  0  0  0  0
  -30.4047  -12.2805   19.3707 C   0  0  0  0  0  0
  -29.4697  -12.5394   18.1803 C   0  0  0  0  0  0
  -28.0021  -12.3798   18.6091 C   0  0  0  0  0  0
  -27.6669  -13.2044   19.8778 C   0  0  2  0  0  0
  -28.7069  -12.9627   20.9959 C   0  0  0  0  0  0
  -25.2616  -13.8140   20.5679 C   0  0  0  0  0  0
  -24.1854  -13.0429   20.9165 C   0  0  0  0  0  0
  -24.6404  -11.6896   20.8730 C   0  0  0  0  0  0
  -23.9065  -10.4286   21.0400 C   0  0  0  0  0  0
  -24.3617   -9.4204   21.9182 C   0  0  0  0  0  0
  -23.6290   -8.2242   22.0752 C   0  0  0  0  0  0
  -22.4271   -8.0284   21.3544 C   0  0  0  0  0  0
  -21.9909   -9.0256   20.4647 C   0  0  0  0  0  0
  -22.7237  -10.2133   20.3051 C   0  0  0  0  0  0
  -21.6855   -6.0739   22.5280 C   0  0  0  0  0  0
  -21.4014   -6.5642   23.8214 C   0  0  0  0  0  0
  -21.3660   -5.6793   24.9177 C   0  0  0  0  0  0
  -21.6039   -4.3055   24.7225 C   0  0  0  0  0  0
  -21.8822   -3.8148   23.4347 C   0  0  0  0  0  0
  -21.9191   -4.6966   22.3403 C   0  0  0  0  0  0
  -22.7880  -13.5241   21.1834 C   0  0  0  0  0  0
  -22.1661   -4.2152   21.0980 F   0  0  0  0  0  0
  -21.5627   -3.4537   25.7740 F   0  0  0  0  0  0
  -30.0597  -13.2032   20.4599 N   0  0  0  0  0  0
  -26.3060  -12.9318   20.3392 N   0  0  0  0  0  0
  -25.9332  -11.6476   20.5767 N   0  0  0  0  0  0
  -22.0514  -12.8236   22.0391 N   0  0  0  0  0  0
  -25.4359  -15.1839   20.4085 N   0  0  0  0  0  0
  -31.7464  -14.6771   20.0180 O   0  0  0  0  0  0
  -21.6636   -6.8882   21.4240 O   0  0  0  0  0  0
  -22.3570  -14.5553   20.6692 O   0  0  0  0  0  0
  -24.6098  -31.8718   23.2131 C   0  0  0  0  0  0
  -25.9010  -32.4837   23.8414 C   0  0  1  0  0  0
  -27.2387  -27.4827   20.0875 C   0  0  0  0  0  0
  -25.5890  -33.8633   24.2344 N   0  0  0  0  0  0
  -23.3960  -30.4948   21.5529 C   0  0  2  0  0  0
  -24.8449  -28.9646   20.1167 C   0  0  0  0  0  0
  -22.7388  -29.4673   22.5009 C   0  0  0  0  0  0
  -18.0280  -28.1377   22.8492 C   0  0  0  0  0  0
  -24.1493  -36.7318   23.2638 C   0  0  0  0  0  0
  -25.9198  -30.8483   21.3621 C   0  0  0  0  0  0
  -25.9992  -29.4834   20.7170 C   0  0  0  0  0  0
  -27.1998  -28.7448   20.7111 C   0  0  0  0  0  0
  -26.0775  -26.9718   19.4721 C   0  0  0  0  0  0
  -24.8748  -27.7029   19.4963 C   0  0  0  0  0  0
  -23.6037  -29.8255   20.1675 C   0  0  0  0  0  0
  -25.4104  -36.3113   24.0347 C   0  0  1  0  0  0
  -20.5861  -28.3644   23.1339 C   0  0  2  0  0  0
  -20.6770  -26.9387   22.5425 C   0  0  0  0  0  0
  -19.5752  -26.6387   21.5217 C   0  0  0  0  0  0
  -18.1929  -26.7924   22.1622 C   0  0  0  0  0  0
  -19.1527  -28.8826   23.2913 C   0  0  0  0  0  0
  -18.9454  -30.1437   23.8910 C   0  0  0  0  0  0
  -17.6458  -30.6577   24.0564 C   0  0  0  0  0  0
  -25.9028  -34.9479   23.5141 C   0  0  0  0  0  0
  -16.5349  -29.9083   23.6327 C   0  0  0  0  0  0
  -16.7269  -28.6508   23.0333 C   0  0  0  0  0  0
  -26.4459  -31.6596   25.0713 C   0  0  0  0  0  0
  -25.3744  -31.3701   26.1475 C   0  0  0  0  0  0
  -27.0285  -30.3050   24.6043 C   0  0  0  0  0  0
  -27.6039  -32.4307   25.7472 C   0  0  0  0  0  0
  -27.5582  -37.1810   24.8467 C   0  0  0  0  0  0
  -21.4121  -29.3020   22.3744 N   0  0  0  0  0  0
  -26.4292  -37.3795   23.9412 N   0  0  0  0  0  0
  -24.6596  -31.0857   22.1019 N   0  0  0  0  0  0
  -23.4179  -28.8215   23.3036 O   0  0  0  0  0  0
  -28.4015  -26.7581   20.0488 O   0  0  0  0  0  0
  -26.5584  -34.8920   22.4698 O   0  0  0  0  0  0
  -23.5300  -32.1450   23.7555 O   0  0  0  0  0  0
  -29.7293  -22.1964   23.1239 C   0  0  0  0  0  0
  -29.3748  -23.4045   22.4972 C   0  0  0  0  0  0
  -28.7807  -21.1563   23.2010 C   0  0  0  0  0  0
  -28.0669  -23.5369   21.9921 C   0  0  0  0  0  0
  -27.4838  -21.3918   22.6822 C   0  0  0  0  0  0
  -30.3906  -24.5267   22.3506 C   0  0  0  0  0  0
  -27.6139  -24.7664   21.2243 C   0  0  0  0  0  0
  -30.0767  -25.4448   21.1606 C   0  0  0  0  0  0
  -28.6223  -25.9358   21.1957 C   0  0  1  0  0  0
  -25.2067  -18.5585   21.2494 C   0  0  0  0  0  0
  -29.2159  -19.8176   23.7829 C   0  0  0  0  0  0
  -26.3738  -20.3487   22.6566 C   0  0  0  0  0  0
  -26.3984  -19.5154   21.3655 C   0  0  0  0  0  0
  -30.1375  -19.0637   22.8137 C   0  0  0  0  0  0
  -30.3960  -17.6125   23.2349 C   0  0  0  0  0  0
  -31.5587  -16.9945   22.4470 C   0  0  0  0  0  0
  -31.7444  -15.4935   22.7136 C   0  0  0  0  0  0
  -27.1479  -22.5582   22.0945 N   0  0  0  0  0  0
  -30.7456  -14.6765   22.0261 N   0  0  0  0  0  0
  -31.4470  -12.3760   19.0597 H   0  0  0  0  0  0
  -30.2957  -11.2530   19.7215 H   0  0  0  0  0  0
  -29.6977  -11.8523   17.3647 H   0  0  0  0  0  0
  -29.6352  -13.5454   17.7919 H   0  0  0  0  0  0
  -27.8192  -11.3204   18.7936 H   0  0  0  0  0  0
  -27.3388  -12.6643   17.7912 H   0  0  0  0  0  0
  -27.7226  -14.2566   19.5980 H   0  0  0  0  0  0
  -28.6473  -11.9352   21.3582 H   0  0  0  0  0  0
  -28.4677  -13.5983   21.8491 H   0  0  0  0  0  0
  -25.2764   -9.5678   22.4751 H   0  0  0  0  0  0
  -24.0001   -7.4632   22.7470 H   0  0  0  0  0  0
  -21.0843   -8.8774   19.8953 H   0  0  0  0  0  0
  -22.3702  -10.9670   19.6158 H   0  0  0  0  0  0
  -21.2010   -7.6152   23.9721 H   0  0  0  0  0  0
  -21.1478   -6.0523   25.9081 H   0  0  0  0  0  0
  -22.0600   -2.7610   23.2845 H   0  0  0  0  0  0
  -22.4120  -11.9886   22.4766 H   0  0  0  0  0  0
  -21.1133  -13.1266   22.2595 H   0  0  0  0  0  0
  -24.6781  -15.8454   20.5327 H   0  0  0  0  0  0
  -26.3043  -15.6204   20.1257 H   0  0  0  0  0  0
  -26.7079  -32.5572   23.1177 H   0  0  0  0  0  0
  -25.0069  -33.9803   25.0508 H   0  0  0  0  0  0
  -22.6828  -31.3097   21.4135 H   0  0  0  0  0  0
  -23.3746  -35.9664   23.3312 H   0  0  0  0  0  0
  -24.3597  -36.8918   22.2054 H   0  0  0  0  0  0
  -23.7262  -37.6536   23.6636 H   0  0  0  0  0  0
  -26.0254  -31.6108   20.5893 H   0  0  0  0  0  0
  -26.8108  -30.9076   21.9741 H   0  0  0  0  0  0
  -28.0930  -29.1417   21.1720 H   0  0  0  0  0  0
  -26.1034  -26.0121   18.9767 H   0  0  0  0  0  0
  -23.9882  -27.2987   19.0278 H   0  0  0  0  0  0
  -23.7063  -30.5986   19.4053 H   0  0  0  0  0  0
  -22.7303  -29.2410   19.8731 H   0  0  0  0  0  0
  -25.1283  -36.1980   25.0843 H   0  0  0  0  0  0
  -20.9957  -28.3194   24.1459 H   0  0  0  0  0  0
  -20.5691  -26.2238   23.3595 H   0  0  0  0  0  0
  -21.6637  -26.7449   22.1203 H   0  0  0  0  0  0
  -19.6913  -25.6309   21.1222 H   0  0  0  0  0  0
  -19.6700  -27.3209   20.6757 H   0  0  0  0  0  0
  -17.4206  -26.6680   21.4018 H   0  0  0  0  0  0
  -18.0319  -26.0066   22.9013 H   0  0  0  0  0  0
  -19.7935  -30.7258   24.2267 H   0  0  0  0  0  0
  -17.5018  -31.6257   24.5167 H   0  0  0  0  0  0
  -15.5350  -30.2986   23.7649 H   0  0  0  0  0  0
  -15.8669  -28.0839   22.7016 H   0  0  0  0  0  0
  -24.5896  -30.7068   25.7819 H   0  0  0  0  0  0
  -24.8954  -32.2868   26.4934 H   0  0  0  0  0  0
  -25.8107  -30.8860   27.0221 H   0  0  0  0  0  0
  -26.2814  -29.6818   24.1106 H   0  0  0  0  0  0
  -27.4113  -29.7265   25.4462 H   0  0  0  0  0  0
  -27.8624  -30.4402   23.9144 H   0  0  0  0  0  0
  -27.2654  -33.3586   26.2090 H   0  0  0  0  0  0
  -28.3822  -32.6902   25.0284 H   0  0  0  0  0  0
  -28.0731  -31.8409   26.5356 H   0  0  0  0  0  0
  -28.2600  -38.0104   24.7500 H   0  0  0  0  0  0
  -28.1079  -36.2637   24.6301 H   0  0  0  0  0  0
  -27.2306  -37.1470   25.8872 H   0  0  0  0  0  0
  -20.9261  -29.8736   21.6967 H   0  0  0  0  0  0
  -26.0188  -38.2880   24.1395 H   0  0  0  0  0  0
  -30.7296  -22.0522   23.5069 H   0  0  0  0  0  0
  -31.3933  -24.1096   22.2416 H   0  0  0  0  0  0
  -30.3926  -25.1069   23.2748 H   0  0  0  0  0  0
  -26.6580  -25.1095   21.6218 H   0  0  0  0  0  0
  -27.4276  -24.4345   20.2027 H   0  0  0  0  0  0
  -30.2499  -24.9046   20.2282 H   0  0  0  0  0  0
  -30.7632  -26.2924   21.1570 H   0  0  0  0  0  0
  -28.5017  -26.5278   22.1059 H   0  0  0  0  0  0
  -25.2391  -18.0207   20.3019 H   0  0  0  0  0  0
  -24.2598  -19.0988   21.2876 H   0  0  0  0  0  0
  -25.2092  -17.8236   22.0552 H   0  0  0  0  0  0
  -28.3681  -19.1912   24.0467 H   0  0  0  0  0  0
  -29.7430  -20.0000   24.7205 H   0  0  0  0  0  0
  -25.4172  -20.8690   22.7219 H   0  0  0  0  0  0
  -26.3969  -19.7119   23.5383 H   0  0  0  0  0  0
  -26.3948  -20.1885   20.5068 H   0  0  0  0  0  0
  -27.3304  -18.9524   21.3081 H   0  0  0  0  0  0
  -31.0827  -19.6012   22.7269 H   0  0  0  0  0  0
  -29.6989  -19.0571   21.8152 H   0  0  0  0  0  0
  -29.4861  -17.0265   23.0940 H   0  0  0  0  0  0
  -30.6291  -17.5717   24.2999 H   0  0  0  0  0  0
  -32.4784  -17.5143   22.7209 H   0  0  0  0  0  0
  -31.4285  -17.1703   21.3783 H   0  0  0  0  0  0
  -31.6999  -15.2882   23.7840 H   0  0  0  0  0  0
  -32.7435  -15.1876   22.3956 H   0  0  0  0  0  0
  -30.0318  -14.2362   22.5893 H   0  0  0  0  0  0
  1 25  1  0  0  0
  1 30  2  0  0  0
  1 89  1  0  0  0
  2  3  1  0  0  0
  2 25  1  0  0  0
  2 90  1  0  0  0
  2 91  1  0  0  0
  3  4  1  0  0  0
  3 92  1  0  0  0
  3 93  1  0  0  0
  4  5  1  0  0  0
  4 94  1  0  0  0
  4 95  1  0  0  0
  5  6  1  0  0  0
  5 26  1  0  0  0
  5 96  1  0  0  0
  6 25  1  0  0  0
  6 97  1  0  0  0
  6 98  1  0  0  0
  7  8  2  0  0  0
  7 26  1  0  0  0
  7 29  1  0  0  0
  8  9  1  0  0  0
  8 22  1  0  0  0
  9 10  1  0  0  0
  9 27  2  0  0  0
 10 11  2  0  0  0
 10 15  1  0  0  0
 11 12  1  0  0  0
 11 99  1  0  0  0
 12 13  2  0  0  0
 12100  1  0  0  0
 13 14  1  0  0  0
 13 31  1  0  0  0
 14 15  2  0  0  0
 14101  1  0  0  0
 15102  1  0  0  0
 16 17  2  0  0  0
 16 21  1  0  0  0
 16 31  1  0  0  0
 17 18  1  0  0  0
 17103  1  0  0  0
 18 19  2  0  0  0
 18104  1  0  0  0
 19 20  1  0  0  0
 19 24  1  0  0  0
 20 21  2  0  0  0
 20105  1  0  0  0
 21 23  1  0  0  0
 22 28  1  0  0  0
 22 32  2  0  0  0
 26 27  1  0  0  0
 28106  1  0  0  0
 28107  1  0  0  0
 29108  1  0  0  0
 29109  1  0  0  0
 33 34  1  0  0  0
 33 66  1  0  0  0
 33 70  2  0  0  0
 34 36  1  0  0  0
 34 59  1  0  0  0
 34110  1  0  0  0
 35 44  2  0  0  0
 35 45  1  0  0  0
 35 68  1  0  0  0
 36 56  1  0  0  0
 36111  1  0  0  0
 37 39  1  0  0  0
 37 47  1  0  0  0
 37 66  1  0  0  0
 37112  1  0  0  0
 38 43  2  0  0  0
 38 46  1  0  0  0
 38 47  1  0  0  0
 39 64  1  0  0  0
 39 67  2  0  0  0
 40 52  1  0  0  0
 40 53  2  0  0  0
 40 58  1  0  0  0
 41113  1  0  0  0
 41114  1  0  0  0
 41115  1  0  0  0
 41 48  1  0  0  0
 42 43  1  0  0  0
 42 66  1  0  0  0
 42116  1  0  0  0
 42117  1  0  0  0
 43 44  1  0  0  0
 44118  1  0  0  0
 45 46  2  0  0  0
 45119  1  0  0  0
 46120  1  0  0  0
 47121  1  0  0  0
 47122  1  0  0  0
 48 56  1  0  0  0
 48 65  1  0  0  0
 48123  1  0  0  0
 49 50  1  0  0  0
 49 53  1  0  0  0
 49 64  1  0  0  0
 49124  1  0  0  0
 50 51  1  0  0  0
 50125  1  0  0  0
 50126  1  0  0  0
 51 52  1  0  0  0
 51127  1  0  0  0
 51128  1  0  0  0
 52129  1  0  0  0
 52130  1  0  0  0
 53 54  1  0  0  0
 54 55  2  0  0  0
 54131  1  0  0  0
 55 57  1  0  0  0
 55132  1  0  0  0
 56 69  2  0  0  0
 57 58  2  0  0  0
 57133  1  0  0  0
 58134  1  0  0  0
 59 60  1  0  0  0
 59 61  1  0  0  0
 59 62  1  0  0  0
 60135  1  0  0  0
 60136  1  0  0  0
 60137  1  0  0  0
 61138  1  0  0  0
 61139  1  0  0  0
 61140  1  0  0  0
 62141  1  0  0  0
 62142  1  0  0  0
 62143  1  0  0  0
 63 65  1  0  0  0
 63144  1  0  0  0
 63145  1  0  0  0
 63146  1  0  0  0
 64147  1  0  0  0
 65148  1  0  0  0
 68 79  1  0  0  0
 71 72  2  0  0  0
 71 73  1  0  0  0
 71149  1  0  0  0
 72 74  1  0  0  0
 72 76  1  0  0  0
 73 75  2  0  0  0
 73 81  1  0  0  0
 74 77  1  0  0  0
 74 88  2  0  0  0
 75 82  1  0  0  0
 75 88  1  0  0  0
 76 78  1  0  0  0
 76150  1  0  0  0
 76151  1  0  0  0
 77 79  1  0  0  0
 77152  1  0  0  0
 77153  1  0  0  0
 78 79  1  0  0  0
 78154  1  0  0  0
 78155  1  0  0  0
 79156  1  0  0  0
 80 83  1  0  0  0
 80157  1  0  0  0
 80158  1  0  0  0
 80159  1  0  0  0
 81 84  1  0  0  0
 81160  1  0  0  0
 81161  1  0  0  0
 82 83  1  0  0  0
 82162  1  0  0  0
 82163  1  0  0  0
 83164  1  0  0  0
 83165  1  0  0  0
 84 85  1  0  0  0
 84166  1  0  0  0
 84167  1  0  0  0
 85 86  1  0  0  0
 85168  1  0  0  0
 85169  1  0  0  0
 86 87  1  0  0  0
 86170  1  0  0  0
 86171  1  0  0  0
 87 89  1  0  0  0
 87172  1  0  0  0
 87173  1  0  0  0
 89174  1  0  0  0
M  ISO  4   1 100  68 101  79 101  89 100
M  END
> <chiral flag>
0

> <version>
0

> <s_m_source_file>
/data/baiqing/PycharmProjects/Reinvent-master-3.2/result/LINK_invent/BTK/process_docking_weight1_custom_sum_contain_oxygen_bond_distance_aromatic_linkinvent_7_9_3/rearranged_h_0035.sdf

> <i_m_source_file_index>
84

> <r_mmod_Potential_Energy-OPLS-2005>
-204.128860473633

> <r_mmod_Stretch_Energy-OPLS-2005>
30.4158916473389

> <r_mmod_Bend_Energy-OPLS-2005>
87.4005584716797

> <r_mmod_Torsional_Energy-OPLS-2005>
230.801010131836

> <r_mmod_Improper_Torsional_Energy-OPLS-2005>
5.7905650138855

> <r_mmod_Van_der_Waal_Energy-OPLS-2005>
150.908355712891

> <r_mmod_Electrostatic_Energy-OPLS-2005>
-506.188079833984

> <r_mmod_Solvation_Energy-OPLS-2005>
-212.089904785156

> <b_mmod_Minimization_Converged-OPLS-2005>
0

> <r_mmod_RMS_Derivative-OPLS-2005>
1.21011102199554

$$$$
84
                    3D
 Structure written by MMmdl.
162171  0  0  1  0            999 V2000
  -30.4718  -15.2072   20.3781 C   0  0  0  0  0  0
  -30.4364  -12.7680   19.5233 C   0  0  0  0  0  0
  -29.5315  -12.5669   18.2828 C   0  0  0  0  0  0
  -28.0774  -12.3024   18.7099 C   0  0  0  0  0  0
  -27.6139  -13.2727   19.8255 C   0  0  2  0  0  0
  -28.6496  -13.4279   20.9598 C   0  0  0  0  0  0
  -25.2395  -13.8248   20.5742 C   0  0  0  0  0  0
  -24.1744  -13.0440   20.9252 C   0  0  0  0  0  0
  -24.6398  -11.6937   20.8765 C   0  0  0  0  0  0
  -23.9094  -10.4295   21.0409 C   0  0  0  0  0  0
  -24.3638   -9.4208   21.9186 C   0  0  0  0  0  0
  -23.6304   -8.2247   22.0756 C   0  0  0  0  0  0
  -22.4285   -8.0288   21.3546 C   0  0  0  0  0  0
  -21.9927   -9.0264   20.4648 C   0  0  0  0  0  0
  -22.7265  -10.2137   20.3058 C   0  0  0  0  0  0
  -21.6856   -6.0741   22.5279 C   0  0  0  0  0  0
  -21.4017   -6.5642   23.8213 C   0  0  0  0  0  0
  -21.3659   -5.6793   24.9174 C   0  0  0  0  0  0
  -21.6043   -4.3056   24.7223 C   0  0  0  0  0  0
  -21.8818   -3.8149   23.4344 C   0  0  0  0  0  0
  -21.9193   -4.6968   22.3402 C   0  0  0  0  0  0
  -22.7763  -13.5195   21.1900 C   0  0  0  0  0  0
  -22.1661   -4.2155   21.0978 F   0  0  0  0  0  0
  -21.5627   -3.4538   25.7735 F   0  0  0  0  0  0
  -29.8900  -13.9134   20.3359 N   0  0  0  0  0  0
  -26.2825  -12.9520   20.3230 N   0  0  0  0  0  0
  -25.9335  -11.6627   20.5733 N   0  0  0  0  0  0
  -22.0420  -12.8179   22.0454 N   0  0  0  0  0  0
  -25.4026  -15.1982   20.4176 N   0  0  0  0  0  0
  -31.6900  -15.2016   20.1559 O   0  0  0  0  0  0
  -21.6644   -6.8888   21.4243 O   0  0  0  0  0  0
  -22.3443  -14.5497   20.6742 O   0  0  0  0  0  0
  -24.6606  -31.8275   23.1746 C   0  0  0  0  0  0
  -25.9301  -32.4608   23.8193 C   0  0  1  0  0  0
  -27.2138  -26.9585   20.1761 C   0  0  0  0  0  0
  -25.5980  -33.8422   24.2095 N   0  0  0  0  0  0
  -23.4736  -30.4422   21.5233 C   0  0  2  0  0  0
  -24.9265  -28.8402   20.1113 C   0  0  0  0  0  0
  -22.7656  -29.4462   22.4788 C   0  0  0  0  0  0
  -18.0322  -28.1412   22.8464 C   0  0  0  0  0  0
  -24.1492  -36.7214   23.2646 C   0  0  0  0  0  0
  -26.0426  -30.6434   21.4020 C   0  0  0  0  0  0
  -26.1111  -29.2379   20.7437 C   0  0  0  0  0  0
  -27.2516  -28.3179   20.7540 C   0  0  0  0  0  0
  -26.0001  -26.7134   19.4915 C   0  0  0  0  0  0
  -24.8948  -27.5970   19.4652 C   0  0  0  0  0  0
  -23.7121  -29.7645   20.1476 C   0  0  0  0  0  0
  -25.4132  -36.2978   24.0301 C   0  0  1  0  0  0
  -20.5947  -28.3754   23.1191 C   0  0  2  0  0  0
  -20.6803  -26.9438   22.5401 C   0  0  0  0  0  0
  -19.5777  -26.6378   21.5216 C   0  0  0  0  0  0
  -18.1956  -26.7944   22.1620 C   0  0  0  0  0  0
  -19.1585  -28.8903   23.2814 C   0  0  0  0  0  0
  -18.9498  -30.1492   23.8851 C   0  0  0  0  0  0
  -17.6492  -30.6601   24.0558 C   0  0  0  0  0  0
  -25.9097  -34.9360   23.5015 C   0  0  0  0  0  0
  -16.5381  -29.9090   23.6347 C   0  0  0  0  0  0
  -16.7305  -28.6511   23.0362 C   0  0  0  0  0  0
  -26.4556  -31.6545   25.0712 C   0  0  0  0  0  0
  -25.3687  -31.3795   26.1371 C   0  0  0  0  0  0
  -27.0456  -30.2915   24.6437 C   0  0  0  0  0  0
  -27.6046  -32.4356   25.7515 C   0  0  0  0  0  0
  -27.5570  -37.1759   24.8464 C   0  0  0  0  0  0
  -21.4328  -29.3048   22.3539 N   0  0  0  0  0  0
  -26.4277  -37.3712   23.9412 N   0  0  0  0  0  0
  -24.7467  -30.9967   22.0870 N   0  0  0  0  0  0
  -23.4218  -28.8020   23.3011 O   0  0  0  0  0  0
  -28.1968  -25.8433   20.2581 O   0  0  0  0  0  0
  -26.5701  -34.8890   22.4607 O   0  0  0  0  0  0
  -23.5681  -32.1235   23.6853 O   0  0  0  0  0  0
  -29.8459  -22.2593   20.4904 C   0  0  0  0  0  0
  -28.4873  -22.6886   20.2373 C   0  0  0  0  0  0
  -30.3227  -20.8582   20.5510 C   0  0  0  0  0  0
  -27.7396  -21.4229   20.0722 C   0  0  0  0  0  0
  -29.5043  -19.6641   20.3730 C   0  0  0  0  0  0
  -23.5170  -20.3659   19.3320 C   0  0  0  0  0  0
  -23.8910  -21.0082   20.6780 C   0  0  0  0  0  0
  -24.3368  -20.9671   18.1782 C   0  0  0  0  0  0
  -25.4012  -20.8942   20.9513 C   0  0  0  0  0  0
  -25.8477  -20.8471   18.4454 C   0  0  0  0  0  0
  -26.2332  -21.4885   19.7952 C   0  0  0  0  0  0
  -27.7769  -24.2791   20.0783 C   0  0  0  0  0  0
  -30.1846  -18.0608   20.2963 C   0  0  0  0  0  0
  -28.1989  -20.0672   20.1285 N   0  0  0  0  0  0
  -29.7379  -16.4818   20.4606 N   0  0  0  0  0  0
  -31.6477  -20.6743   20.7677 F   0  0  0  0  0  0
  -31.4595  -12.9565   19.1953 H   0  0  0  0  0  0
  -30.4852  -11.8558   20.1205 H   0  0  0  0  0  0
  -29.9001  -11.7427   17.6706 H   0  0  0  0  0  0
  -29.5715  -13.4585   17.6553 H   0  0  0  0  0  0
  -28.0243  -11.2756   19.0740 H   0  0  0  0  0  0
  -27.4089  -12.3567   17.8498 H   0  0  0  0  0  0
  -27.5356  -14.2446   19.3369 H   0  0  0  0  0  0
  -28.8023  -12.4887   21.4935 H   0  0  0  0  0  0
  -28.3006  -14.1527   21.6969 H   0  0  0  0  0  0
  -25.2779   -9.5681   22.4768 H   0  0  0  0  0  0
  -24.0006   -7.4639   22.7480 H   0  0  0  0  0  0
  -21.0857   -8.8793   19.8956 H   0  0  0  0  0  0
  -22.3727  -10.9681   19.6172 H   0  0  0  0  0  0
  -21.2012   -7.6151   23.9720 H   0  0  0  0  0  0
  -21.1480   -6.0521   25.9077 H   0  0  0  0  0  0
  -22.0597   -2.7613   23.2841 H   0  0  0  0  0  0
  -22.4045  -11.9840   22.4836 H   0  0  0  0  0  0
  -21.1041  -13.1203   22.2674 H   0  0  0  0  0  0
  -24.6301  -15.8460   20.5281 H   0  0  0  0  0  0
  -26.2426  -15.6414   20.0701 H   0  0  0  0  0  0
  -26.7368  -32.5153   23.0909 H   0  0  0  0  0  0
  -25.0088  -33.9510   25.0219 H   0  0  0  0  0  0
  -22.7855  -31.2735   21.3563 H   0  0  0  0  0  0
  -23.3767  -35.9530   23.3278 H   0  0  0  0  0  0
  -24.3570  -36.8891   22.2066 H   0  0  0  0  0  0
  -23.7239  -37.6389   23.6721 H   0  0  0  0  0  0
  -26.2209  -31.3881   20.6249 H   0  0  0  0  0  0
  -26.9035  -30.6972   22.0563 H   0  0  0  0  0  0
  -28.1456  -28.6185   21.2820 H   0  0  0  0  0  0
  -25.8545  -25.7700   18.9891 H   0  0  0  0  0  0
  -23.9951  -27.2872   18.9511 H   0  0  0  0  0  0
  -23.8671  -30.5364   19.3929 H   0  0  0  0  0  0
  -22.8221  -29.2196   19.8278 H   0  0  0  0  0  0
  -25.1327  -36.1772   25.0792 H   0  0  0  0  0  0
  -21.0034  -28.3362   24.1315 H   0  0  0  0  0  0
  -20.5698  -26.2371   23.3640 H   0  0  0  0  0  0
  -21.6665  -26.7425   22.1200 H   0  0  0  0  0  0
  -19.6942  -25.6277   21.1279 H   0  0  0  0  0  0
  -19.6721  -27.3161   20.6724 H   0  0  0  0  0  0
  -17.4228  -26.6692   21.4021 H   0  0  0  0  0  0
  -18.0345  -26.0099   22.9028 H   0  0  0  0  0  0
  -19.7976  -30.7318   24.2199 H   0  0  0  0  0  0
  -17.5048  -31.6278   24.5166 H   0  0  0  0  0  0
  -15.5381  -30.2978   23.7702 H   0  0  0  0  0  0
  -15.8705  -28.0817   22.7103 H   0  0  0  0  0  0
  -24.5883  -30.7128   25.7684 H   0  0  0  0  0  0
  -24.8861  -32.2998   26.4669 H   0  0  0  0  0  0
  -25.7919  -30.9050   27.0234 H   0  0  0  0  0  0
  -26.3127  -29.6589   24.1418 H   0  0  0  0  0  0
  -27.3969  -29.7278   25.5089 H   0  0  0  0  0  0
  -27.9072  -30.4103   23.9866 H   0  0  0  0  0  0
  -27.2612  -33.3698   26.1970 H   0  0  0  0  0  0
  -28.3921  -32.6852   25.0392 H   0  0  0  0  0  0
  -28.0645  -31.8570   26.5537 H   0  0  0  0  0  0
  -28.2557  -38.0081   24.7517 H   0  0  0  0  0  0
  -28.1092  -36.2607   24.6277 H   0  0  0  0  0  0
  -27.2287  -37.1387   25.8865 H   0  0  0  0  0  0
  -20.9574  -29.8747   21.6681 H   0  0  0  0  0  0
  -26.0124  -38.2767   24.1434 H   0  0  0  0  0  0
  -30.5851  -23.0340   20.6315 H   0  0  0  0  0  0
  -22.4513  -20.4989   19.1405 H   0  0  0  0  0  0
  -23.6869  -19.2891   19.3800 H   0  0  0  0  0  0
  -23.3311  -20.5335   21.4848 H   0  0  0  0  0  0
  -23.5961  -22.0586   20.6779 H   0  0  0  0  0  0
  -24.0696  -22.0167   18.0454 H   0  0  0  0  0  0
  -24.0847  -20.4661   17.2426 H   0  0  0  0  0  0
  -25.6641  -19.8460   21.0988 H   0  0  0  0  0  0
  -25.6456  -21.4058   21.8831 H   0  0  0  0  0  0
  -26.4047  -21.3237   17.6379 H   0  0  0  0  0  0
  -26.1318  -19.7941   18.4362 H   0  0  0  0  0  0
  -25.9344  -22.5293   19.7140 H   0  0  0  0  0  0
  -26.8967  -24.2144   20.7181 H   0  0  0  0  0  0
  -27.3985  -24.2427   19.0573 H   0  0  0  0  0  0
  -31.0207  -18.1338   20.9917 H   0  0  0  0  0  0
  -30.6706  -18.0672   19.3208 H   0  0  0  0  0  0
  -28.7455  -16.3684   20.6022 H   0  0  0  0  0  0
  1 25  1  0  0  0
  1 30  2  0  0  0
  1 85  1  0  0  0
  2  3  1  0  0  0
  2 25  1  0  0  0
  2 87  1  0  0  0
  2 88  1  0  0  0
  3  4  1  0  0  0
  3 89  1  0  0  0
  3 90  1  0  0  0
  4  5  1  0  0  0
  4 91  1  0  0  0
  4 92  1  0  0  0
  5  6  1  0  0  0
  5 26  1  0  0  0
  5 93  1  0  0  0
  6 25  1  0  0  0
  6 94  1  0  0  0
  6 95  1  0  0  0
  7  8  2  0  0  0
  7 26  1  0  0  0
  7 29  1  0  0  0
  8  9  1  0  0  0
  8 22  1  0  0  0
  9 10  1  0  0  0
  9 27  2  0  0  0
 10 11  2  0  0  0
 10 15  1  0  0  0
 11 12  1  0  0  0
 11 96  1  0  0  0
 12 13  2  0  0  0
 12 97  1  0  0  0
 13 14  1  0  0  0
 13 31  1  0  0  0
 14 15  2  0  0  0
 14 98  1  0  0  0
 15 99  1  0  0  0
 16 17  2  0  0  0
 16 21  1  0  0  0
 16 31  1  0  0  0
 17 18  1  0  0  0
 17100  1  0  0  0
 18 19  2  0  0  0
 18101  1  0  0  0
 19 20  1  0  0  0
 19 24  1  0  0  0
 20 21  2  0  0  0
 20102  1  0  0  0
 21 23  1  0  0  0
 22 28  1  0  0  0
 22 32  2  0  0  0
 26 27  1  0  0  0
 28103  1  0  0  0
 28104  1  0  0  0
 29105  1  0  0  0
 29106  1  0  0  0
 33 34  1  0  0  0
 33 66  1  0  0  0
 33 70  2  0  0  0
 34 36  1  0  0  0
 34 59  1  0  0  0
 34107  1  0  0  0
 35 44  2  0  0  0
 35 45  1  0  0  0
 35 68  1  0  0  0
 36 56  1  0  0  0
 36108  1  0  0  0
 37 39  1  0  0  0
 37 47  1  0  0  0
 37 66  1  0  0  0
 37109  1  0  0  0
 38 43  2  0  0  0
 38 46  1  0  0  0
 38 47  1  0  0  0
 39 64  1  0  0  0
 39 67  2  0  0  0
 40 52  1  0  0  0
 40 53  2  0  0  0
 40 58  1  0  0  0
 41110  1  0  0  0
 41111  1  0  0  0
 41112  1  0  0  0
 41 48  1  0  0  0
 42 43  1  0  0  0
 42 66  1  0  0  0
 42113  1  0  0  0
 42114  1  0  0  0
 43 44  1  0  0  0
 44115  1  0  0  0
 45 46  2  0  0  0
 45116  1  0  0  0
 46117  1  0  0  0
 47118  1  0  0  0
 47119  1  0  0  0
 48 56  1  0  0  0
 48 65  1  0  0  0
 48120  1  0  0  0
 49 50  1  0  0  0
 49 53  1  0  0  0
 49 64  1  0  0  0
 49121  1  0  0  0
 50 51  1  0  0  0
 50122  1  0  0  0
 50123  1  0  0  0
 51 52  1  0  0  0
 51124  1  0  0  0
 51125  1  0  0  0
 52126  1  0  0  0
 52127  1  0  0  0
 53 54  1  0  0  0
 54 55  2  0  0  0
 54128  1  0  0  0
 55 57  1  0  0  0
 55129  1  0  0  0
 56 69  2  0  0  0
 57 58  2  0  0  0
 57130  1  0  0  0
 58131  1  0  0  0
 59 60  1  0  0  0
 59 61  1  0  0  0
 59 62  1  0  0  0
 60132  1  0  0  0
 60133  1  0  0  0
 60134  1  0  0  0
 61135  1  0  0  0
 61136  1  0  0  0
 61137  1  0  0  0
 62138  1  0  0  0
 62139  1  0  0  0
 62140  1  0  0  0
 63 65  1  0  0  0
 63141  1  0  0  0
 63142  1  0  0  0
 63143  1  0  0  0
 64144  1  0  0  0
 65145  1  0  0  0
 68 82  1  0  0  0
 71 72  2  0  0  0
 71 73  1  0  0  0
 71146  1  0  0  0
 72 74  1  0  0  0
 72 82  1  0  0  0
 73 75  2  0  0  0
 73 86  1  0  0  0
 74 84  2  0  0  0
 74 81  1  0  0  0
 75 83  1  0  0  0
 75 84  1  0  0  0
 76 77  1  0  0  0
 76 78  1  0  0  0
 76147  1  0  0  0
 76148  1  0  0  0
 77 79  1  0  0  0
 77149  1  0  0  0
 77150  1  0  0  0
 78 80  1  0  0  0
 78151  1  0  0  0
 78152  1  0  0  0
 79 81  1  0  0  0
 79153  1  0  0  0
 79154  1  0  0  0
 80 81  1  0  0  0
 80155  1  0  0  0
 80156  1  0  0  0
 81157  1  0  0  0
 82158  1  0  0  0
 82159  1  0  0  0
 83 85  1  0  0  0
 83160  1  0  0  0
 83161  1  0  0  0
 85162  1  0  0  0
M  ISO  4   1 100  68 101  82 101  85 100
M  END
> <chiral flag>
0

> <version>
0

> <s_m_source_file>
/data/baiqing/PycharmProjects/Reinvent-master-3.2/result/LINK_invent/BTK/process_docking_weight1_custom_sum_contain_oxygen_bond_distance_aromatic_linkinvent_7_9_3/rearranged_h_0035.sdf

> <i_m_source_file_index>
85

> <r_mmod_Potential_Energy-OPLS-2005>
960.996337890625

> <r_mmod_Stretch_Energy-OPLS-2005>
472.453582763672

> <r_mmod_Bend_Energy-OPLS-2005>
447.313995361328

> <r_mmod_Torsional_Energy-OPLS-2005>
219.653289794922

> <r_mmod_Improper_Torsional_Energy-OPLS-2005>
4.7918529510498

> <r_mmod_Van_der_Waal_Energy-OPLS-2005>
137.103210449219

> <r_mmod_Electrostatic_Energy-OPLS-2005>
-515.984802246094

> <r_mmod_Solvation_Energy-OPLS-2005>
-213.609451293945

> <b_mmod_Minimization_Converged-OPLS-2005>
0

> <r_mmod_RMS_Derivative-OPLS-2005>
0.445069760084152

$$$$
85
                    3D
 Structure written by MMmdl.
158166  0  0  1  0            999 V2000
  -30.5445  -14.9945   20.4305 C   0  0  0  0  0  0
  -30.4370  -12.6119   19.5339 C   0  0  0  0  0  0
  -29.5461  -12.5695   18.2698 C   0  0  0  0  0  0
  -28.0664  -12.3646   18.6498 C   0  0  0  0  0  0
  -27.6306  -13.2709   19.8342 C   0  0  2  0  0  0
  -28.6671  -13.3048   20.9823 C   0  0  0  0  0  0
  -25.2453  -13.8258   20.5679 C   0  0  0  0  0  0
  -24.1784  -13.0462   20.9171 C   0  0  0  0  0  0
  -24.6427  -11.6944   20.8678 C   0  0  0  0  0  0
  -23.9095  -10.4303   21.0328 C   0  0  0  0  0  0
  -24.3639   -9.4231   21.9106 C   0  0  0  0  0  0
  -23.6323   -8.2264   22.0693 C   0  0  0  0  0  0
  -22.4315   -8.0262   21.3498 C   0  0  0  0  0  0
  -21.9946   -9.0223   20.4612 C   0  0  0  0  0  0
  -22.7254  -10.2113   20.3002 C   0  0  0  0  0  0
  -21.6879   -6.0738   22.5267 C   0  0  0  0  0  0
  -21.4036   -6.5634   23.8203 C   0  0  0  0  0  0
  -21.3673   -5.6784   24.9156 C   0  0  0  0  0  0
  -21.6055   -4.3040   24.7199 C   0  0  0  0  0  0
  -21.8825   -3.8137   23.4331 C   0  0  0  0  0  0
  -21.9198   -4.6949   22.3384 C   0  0  0  0  0  0
  -22.7809  -13.5212   21.1807 C   0  0  0  0  0  0
  -22.1657   -4.2137   21.0965 F   0  0  0  0  0  0
  -21.5609   -3.4523   25.7712 F   0  0  0  0  0  0
  -29.9506  -13.7251   20.4050 N   0  0  0  0  0  0
  -26.2901  -12.9533   20.3168 N   0  0  0  0  0  0
  -25.9365  -11.6635   20.5658 N   0  0  0  0  0  0
  -22.0463  -12.8228   22.0410 N   0  0  0  0  0  0
  -25.4052  -15.2010   20.4163 N   0  0  0  0  0  0
  -31.7309  -15.0481   20.0915 O   0  0  0  0  0  0
  -21.6655   -6.8874   21.4234 O   0  0  0  0  0  0
  -22.3484  -14.5460   20.6566 O   0  0  0  0  0  0
  -24.6494  -31.8380   23.1819 C   0  0  0  0  0  0
  -25.9234  -32.4683   23.8244 C   0  0  1  0  0  0
  -27.2345  -27.0798   20.2162 C   0  0  0  0  0  0
  -25.5989  -33.8483   24.2185 N   0  0  0  0  0  0
  -23.4563  -30.4532   21.5277 C   0  0  2  0  0  0
  -24.9166  -28.8617   20.1183 C   0  0  0  0  0  0
  -22.7580  -29.4530   22.4830 C   0  0  0  0  0  0
  -18.0294  -28.1357   22.8464 C   0  0  0  0  0  0
  -24.1517  -36.7251   23.2642 C   0  0  0  0  0  0
  -26.0160  -30.6968   21.3919 C   0  0  0  0  0  0
  -26.0907  -29.3000   20.7440 C   0  0  0  0  0  0
  -27.2516  -28.4302   20.7655 C   0  0  0  0  0  0
  -26.0377  -26.7507   19.5440 C   0  0  0  0  0  0
  -24.9080  -27.6025   19.4950 C   0  0  0  0  0  0
  -23.6882  -29.7654   20.1549 C   0  0  0  0  0  0
  -25.4155  -36.3038   24.0320 C   0  0  1  0  0  0
  -20.5928  -28.3719   23.1212 C   0  0  2  0  0  0
  -20.6801  -26.9406   22.5412 C   0  0  0  0  0  0
  -19.5787  -26.6337   21.5198 C   0  0  0  0  0  0
  -18.1949  -26.7902   22.1584 C   0  0  0  0  0  0
  -19.1553  -28.8842   23.2844 C   0  0  0  0  0  0
  -18.9461  -30.1437   23.8868 C   0  0  0  0  0  0
  -17.6461  -30.6575   24.0508 C   0  0  0  0  0  0
  -25.9095  -34.9393   23.5071 C   0  0  0  0  0  0
  -16.5356  -29.9052   23.6326 C   0  0  0  0  0  0
  -16.7273  -28.6462   23.0372 C   0  0  0  0  0  0
  -26.4501  -31.6564   25.0709 C   0  0  0  0  0  0
  -25.3661  -31.3767   26.1394 C   0  0  0  0  0  0
  -27.0376  -30.2963   24.6337 C   0  0  0  0  0  0
  -27.6083  -32.4274   25.7496 C   0  0  0  0  0  0
  -27.5599  -37.1801   24.8448 C   0  0  0  0  0  0
  -21.4279  -29.3051   22.3569 N   0  0  0  0  0  0
  -26.4314  -37.3758   23.9381 N   0  0  0  0  0  0
  -24.7260  -31.0198   22.0874 N   0  0  0  0  0  0
  -23.4196  -28.8097   23.3011 O   0  0  0  0  0  0
  -28.2951  -26.0861   20.2620 O   0  0  0  0  0  0
  -26.5665  -34.8861   22.4639 O   0  0  0  0  0  0
  -23.5606  -32.1263   23.7020 O   0  0  0  0  0  0
  -29.0906  -21.5683   22.3609 C   0  0  0  0  0  0
  -29.6135  -19.1584   22.3259 C   0  0  0  0  0  0
  -29.3941  -20.3578   23.0493 C   0  0  0  0  0  0
  -29.0446  -21.6344   20.9505 C   0  0  0  0  0  0
  -29.5691  -19.1327   20.9217 C   0  0  0  0  0  0
  -30.9744  -20.8336   24.9782 C   0  0  0  0  0  0
  -29.2261  -19.0586   25.2747 C   0  0  0  0  0  0
  -28.9202  -23.1431   20.2149 C   0  0  0  0  0  0
  -30.0138  -17.7096   20.1738 C   0  0  0  0  0  0
  -28.1041  -24.5769   20.7181 C   0  0  0  0  0  0
  -29.5587  -20.3891   24.5761 C   0  0  0  0  0  0
  -29.2991  -20.3882   20.2761 N   0  0  0  0  0  0
  -29.7903  -16.1943   20.6299 N   0  0  0  0  0  0
  -31.4816  -12.7477   19.2556 H   0  0  0  0  0  0
  -30.3953  -11.6590   20.0645 H   0  0  0  0  0  0
  -29.8800  -11.7839   17.5918 H   0  0  0  0  0  0
  -29.6530  -13.5070   17.7251 H   0  0  0  0  0  0
  -27.9359  -11.3161   18.9109 H   0  0  0  0  0  0
  -27.4328  -12.5402   17.7757 H   0  0  0  0  0  0
  -27.5888  -14.2773   19.4174 H   0  0  0  0  0  0
  -28.7565  -12.3312   21.4626 H   0  0  0  0  0  0
  -28.3556  -14.0037   21.7579 H   0  0  0  0  0  0
  -25.2775   -9.5715   22.4680 H   0  0  0  0  0  0
  -24.0010   -7.4707   22.7474 H   0  0  0  0  0  0
  -21.0835   -8.8758   19.8997 H   0  0  0  0  0  0
  -22.3677  -10.9614   19.6115 H   0  0  0  0  0  0
  -21.2051   -7.6146   23.9702 H   0  0  0  0  0  0
  -21.1491   -6.0496   25.9056 H   0  0  0  0  0  0
  -22.0599   -2.7585   23.2812 H   0  0  0  0  0  0
  -22.4082  -11.9986   22.4945 H   0  0  0  0  0  0
  -21.1020  -13.1183   22.2485 H   0  0  0  0  0  0
  -24.6277  -15.8418   20.5150 H   0  0  0  0  0  0
  -26.2401  -15.6442   20.0520 H   0  0  0  0  0  0
  -26.7304  -32.5260   23.0960 H   0  0  0  0  0  0
  -25.0119  -33.9600   25.0328 H   0  0  0  0  0  0
  -22.7620  -31.2810   21.3661 H   0  0  0  0  0  0
  -23.3799  -35.9572   23.3287 H   0  0  0  0  0  0
  -24.3604  -36.8905   22.2067 H   0  0  0  0  0  0
  -23.7236  -37.6423   23.6678 H   0  0  0  0  0  0
  -26.1791  -31.4432   20.6140 H   0  0  0  0  0  0
  -26.8819  -30.7521   22.0402 H   0  0  0  0  0  0
  -28.1469  -28.7714   21.2636 H   0  0  0  0  0  0
  -25.9618  -25.7841   19.0665 H   0  0  0  0  0  0
  -24.0159  -27.2594   18.9889 H   0  0  0  0  0  0
  -23.8188  -30.5294   19.3886 H   0  0  0  0  0  0
  -22.8030  -29.2018   19.8548 H   0  0  0  0  0  0
  -25.1349  -36.1885   25.0826 H   0  0  0  0  0  0
  -20.9994  -28.3314   24.1342 H   0  0  0  0  0  0
  -20.5659  -26.2318   23.3637 H   0  0  0  0  0  0
  -21.6667  -26.7409   22.1208 H   0  0  0  0  0  0
  -19.6955  -25.6222   21.1263 H   0  0  0  0  0  0
  -19.6733  -27.3112   20.6699 H   0  0  0  0  0  0
  -17.4231  -26.6625   21.3975 H   0  0  0  0  0  0
  -18.0358  -26.0028   22.8962 H   0  0  0  0  0  0
  -19.7942  -30.7242   24.2237 H   0  0  0  0  0  0
  -17.5018  -31.6257   24.5100 H   0  0  0  0  0  0
  -15.5352  -30.2939   23.7676 H   0  0  0  0  0  0
  -15.8667  -28.0748   22.7162 H   0  0  0  0  0  0
  -24.5840  -30.7134   25.7659 H   0  0  0  0  0  0
  -24.8820  -32.2941   26.4762 H   0  0  0  0  0  0
  -25.7889  -30.8924   27.0207 H   0  0  0  0  0  0
  -26.3008  -29.6675   24.1319 H   0  0  0  0  0  0
  -27.3940  -29.7286   25.4941 H   0  0  0  0  0  0
  -27.8925  -30.4180   23.9687 H   0  0  0  0  0  0
  -27.2756  -33.3590   26.2068 H   0  0  0  0  0  0
  -28.3899  -32.6800   25.0322 H   0  0  0  0  0  0
  -28.0725  -31.8363   26.5397 H   0  0  0  0  0  0
  -28.2615  -38.0103   24.7529 H   0  0  0  0  0  0
  -28.1093  -36.2644   24.6240 H   0  0  0  0  0  0
  -27.2297  -37.1389   25.8837 H   0  0  0  0  0  0
  -20.9485  -29.8704   21.6699 H   0  0  0  0  0  0
  -26.0193  -38.2840   24.1344 H   0  0  0  0  0  0
  -28.9538  -22.4737   22.9353 H   0  0  0  0  0  0
  -29.8767  -18.2437   22.8403 H   0  0  0  0  0  0
  -31.1905  -21.8383   24.6169 H   0  0  0  0  0  0
  -31.7324  -20.1677   24.5660 H   0  0  0  0  0  0
  -31.0986  -20.8452   26.0642 H   0  0  0  0  0  0
  -28.2409  -18.6983   24.9867 H   0  0  0  0  0  0
  -29.2306  -19.1794   26.3601 H   0  0  0  0  0  0
  -29.9532  -18.2820   25.0388 H   0  0  0  0  0  0
  -28.5907  -22.9360   19.1980 H   0  0  0  0  0  0
  -29.9637  -23.4419   20.1115 H   0  0  0  0  0  0
  -31.0894  -17.8070   20.0201 H   0  0  0  0  0  0
  -29.5942  -17.7742   19.1703 H   0  0  0  0  0  0
  -28.3008  -24.6395   21.7878 H   0  0  0  0  0  0
  -27.0365  -24.3644   20.6676 H   0  0  0  0  0  0
  -28.8573  -21.1305   24.9602 H   0  0  0  0  0  0
  -28.8449  -16.0208   20.9343 H   0  0  0  0  0  0
  1 25  1  0  0  0
  1 30  2  0  0  0
  1 83  1  0  0  0
  2  3  1  0  0  0
  2 25  1  0  0  0
  2 84  1  0  0  0
  2 85  1  0  0  0
  3  4  1  0  0  0
  3 86  1  0  0  0
  3 87  1  0  0  0
  4  5  1  0  0  0
  4 88  1  0  0  0
  4 89  1  0  0  0
  5  6  1  0  0  0
  5 26  1  0  0  0
  5 90  1  0  0  0
  6 25  1  0  0  0
  6 91  1  0  0  0
  6 92  1  0  0  0
  7  8  2  0  0  0
  7 26  1  0  0  0
  7 29  1  0  0  0
  8  9  1  0  0  0
  8 22  1  0  0  0
  9 10  1  0  0  0
  9 27  2  0  0  0
 10 11  2  0  0  0
 10 15  1  0  0  0
 11 12  1  0  0  0
 11 93  1  0  0  0
 12 13  2  0  0  0
 12 94  1  0  0  0
 13 14  1  0  0  0
 13 31  1  0  0  0
 14 15  2  0  0  0
 14 95  1  0  0  0
 15 96  1  0  0  0
 16 17  2  0  0  0
 16 21  1  0  0  0
 16 31  1  0  0  0
 17 18  1  0  0  0
 17 97  1  0  0  0
 18 19  2  0  0  0
 18 98  1  0  0  0
 19 20  1  0  0  0
 19 24  1  0  0  0
 20 21  2  0  0  0
 20 99  1  0  0  0
 21 23  1  0  0  0
 22 28  1  0  0  0
 22 32  2  0  0  0
 26 27  1  0  0  0
 28100  1  0  0  0
 28101  1  0  0  0
 29102  1  0  0  0
 29103  1  0  0  0
 33 34  1  0  0  0
 33 66  1  0  0  0
 33 70  2  0  0  0
 34 36  1  0  0  0
 34 59  1  0  0  0
 34104  1  0  0  0
 35 44  2  0  0  0
 35 45  1  0  0  0
 35 68  1  0  0  0
 36 56  1  0  0  0
 36105  1  0  0  0
 37 39  1  0  0  0
 37 47  1  0  0  0
 37 66  1  0  0  0
 37106  1  0  0  0
 38 43  2  0  0  0
 38 46  1  0  0  0
 38 47  1  0  0  0
 39 64  1  0  0  0
 39 67  2  0  0  0
 40 52  1  0  0  0
 40 53  2  0  0  0
 40 58  1  0  0  0
 41107  1  0  0  0
 41108  1  0  0  0
 41109  1  0  0  0
 41 48  1  0  0  0
 42 43  1  0  0  0
 42 66  1  0  0  0
 42110  1  0  0  0
 42111  1  0  0  0
 43 44  1  0  0  0
 44112  1  0  0  0
 45 46  2  0  0  0
 45113  1  0  0  0
 46114  1  0  0  0
 47115  1  0  0  0
 47116  1  0  0  0
 48 56  1  0  0  0
 48 65  1  0  0  0
 48117  1  0  0  0
 49 50  1  0  0  0
 49 53  1  0  0  0
 49 64  1  0  0  0
 49118  1  0  0  0
 50 51  1  0  0  0
 50119  1  0  0  0
 50120  1  0  0  0
 51 52  1  0  0  0
 51121  1  0  0  0
 51122  1  0  0  0
 52123  1  0  0  0
 52124  1  0  0  0
 53 54  1  0  0  0
 54 55  2  0  0  0
 54125  1  0  0  0
 55 57  1  0  0  0
 55126  1  0  0  0
 56 69  2  0  0  0
 57 58  2  0  0  0
 57127  1  0  0  0
 58128  1  0  0  0
 59 60  1  0  0  0
 59 61  1  0  0  0
 59 62  1  0  0  0
 60129  1  0  0  0
 60130  1  0  0  0
 60131  1  0  0  0
 61132  1  0  0  0
 61133  1  0  0  0
 61134  1  0  0  0
 62135  1  0  0  0
 62136  1  0  0  0
 62137  1  0  0  0
 63 65  1  0  0  0
 63138  1  0  0  0
 63139  1  0  0  0
 63140  1  0  0  0
 64141  1  0  0  0
 65142  1  0  0  0
 68 80  1  0  0  0
 71 73  2  0  0  0
 71 74  1  0  0  0
 71143  1  0  0  0
 72 73  1  0  0  0
 72 75  2  0  0  0
 72144  1  0  0  0
 73 81  1  0  0  0
 74 78  1  0  0  0
 74 82  2  0  0  0
 75 79  1  0  0  0
 75 82  1  0  0  0
 76145  1  0  0  0
 76146  1  0  0  0
 76147  1  0  0  0
 76 81  1  0  0  0
 77 81  1  0  0  0
 77148  1  0  0  0
 77149  1  0  0  0
 77150  1  0  0  0
 78 80  1  0  0  0
 78151  1  0  0  0
 78152  1  0  0  0
 79 83  1  0  0  0
 79153  1  0  0  0
 79154  1  0  0  0
 80155  1  0  0  0
 80156  1  0  0  0
 81157  1  0  0  0
 83158  1  0  0  0
M  ISO  4   1 100  68 101  80 101  83 100
M  END
> <chiral flag>
0

> <version>
0

> <s_m_source_file>
/data/baiqing/PycharmProjects/Reinvent-master-3.2/result/LINK_invent/BTK/process_docking_weight1_custom_sum_contain_oxygen_bond_distance_aromatic_linkinvent_7_9_3/rearranged_h_0035.sdf

> <i_m_source_file_index>
86

> <r_mmod_Potential_Energy-OPLS-2005>
347.701507568359

> <r_mmod_Stretch_Energy-OPLS-2005>
323.240356445312

> <r_mmod_Bend_Energy-OPLS-2005>
293.449035644531

> <r_mmod_Torsional_Energy-OPLS-2005>
224.592422485352

> <r_mmod_Improper_Torsional_Energy-OPLS-2005>
6.71614217758179

> <r_mmod_Van_der_Waal_Energy-OPLS-2005>
125.732803344727

> <r_mmod_Electrostatic_Energy-OPLS-2005>
-629.99560546875

> <r_mmod_Solvation_Energy-OPLS-2005>
-227.366668701172

> <b_mmod_Minimization_Converged-OPLS-2005>
0

> <r_mmod_RMS_Derivative-OPLS-2005>
5.03410863876343

$$$$
86
                    3D
 Structure written by MMmdl.
165173  0  0  1  0            999 V2000
  -30.0557  -16.3035   20.2687 C   0  0  0  0  0  0
  -30.3555  -13.5898   19.5391 C   0  0  0  0  0  0
  -29.5666  -12.8536   18.3934 C   0  0  0  0  0  0
  -28.2096  -12.3403   18.8765 C   0  0  0  0  0  0
  -27.5816  -13.3835   19.8155 C   0  0  2  0  0  0
  -28.5430  -13.9918   20.8894 C   0  0  0  0  0  0
  -25.2242  -13.8395   20.5908 C   0  0  0  0  0  0
  -24.1709  -13.0474   20.9341 C   0  0  0  0  0  0
  -24.6503  -11.7003   20.8754 C   0  0  0  0  0  0
  -23.9202  -10.4331   21.0373 C   0  0  0  0  0  0
  -24.3716   -9.4235   21.9151 C   0  0  0  0  0  0
  -23.6354   -8.2289   22.0743 C   0  0  0  0  0  0
  -22.4308   -8.0332   21.3568 C   0  0  0  0  0  0
  -21.9999   -9.0305   20.4642 C   0  0  0  0  0  0
  -22.7371  -10.2165   20.3026 C   0  0  0  0  0  0
  -21.6871   -6.0759   22.5273 C   0  0  0  0  0  0
  -21.4032   -6.5657   23.8206 C   0  0  0  0  0  0
  -21.3655   -5.6810   24.9171 C   0  0  0  0  0  0
  -21.6043   -4.3068   24.7225 C   0  0  0  0  0  0
  -21.8814   -3.8161   23.4343 C   0  0  0  0  0  0
  -21.9206   -4.6985   22.3395 C   0  0  0  0  0  0
  -22.7703  -13.5152   21.1937 C   0  0  0  0  0  0
  -22.1670   -4.2176   21.0967 F   0  0  0  0  0  0
  -21.5619   -3.4524   25.7724 F   0  0  0  0  0  0
  -29.6050  -14.8191   20.1985 N   0  0  0  0  0  0
  -26.2797  -12.9884   20.3402 N   0  0  0  0  0  0
  -25.9490  -11.6853   20.5672 N   0  0  0  0  0  0
  -22.0367  -12.8107   22.0466 N   0  0  0  0  0  0
  -25.3759  -15.2145   20.4364 N   0  0  0  0  0  0
  -31.2998  -16.1224   20.1488 O   0  0  0  0  0  0
  -21.6667   -6.8916   21.4244 O   0  0  0  0  0  0
  -22.3366  -14.5454   20.6767 O   0  0  0  0  0  0
  -24.7283  -31.7377   23.1138 C   0  0  0  0  0  0
  -25.9657  -32.4115   23.7823 C   0  0  1  0  0  0
  -27.2528  -26.2169   20.2454 C   0  0  0  0  0  0
  -25.6061  -33.7980   24.1657 N   0  0  0  0  0  0
  -23.5779  -30.3205   21.4748 C   0  0  2  0  0  0
  -25.0504  -28.5699   20.1225 C   0  0  0  0  0  0
  -22.7952  -29.3969   22.4532 C   0  0  0  0  0  0
  -18.0351  -28.1431   22.8375 C   0  0  0  0  0  0
  -24.1536  -36.7032   23.2657 C   0  0  0  0  0  0
  -26.1749  -30.3041   21.4644 C   0  0  0  0  0  0
  -26.2371  -28.8163   20.8224 C   0  0  0  0  0  0
  -27.2879  -27.6766   20.8659 C   0  0  0  0  0  0
  -26.0531  -26.3341   19.4523 C   0  0  0  0  0  0
  -25.0246  -27.3525   19.4148 C   0  0  0  0  0  0
  -23.8608  -29.5766   20.1301 C   0  0  0  0  0  0
  -25.4185  -36.2689   24.0240 C   0  0  1  0  0  0
  -20.6018  -28.3819   23.1014 C   0  0  2  0  0  0
  -20.6815  -26.9422   22.5402 C   0  0  0  0  0  0
  -19.5832  -26.6358   21.5176 C   0  0  0  0  0  0
  -18.1988  -26.7949   22.1558 C   0  0  0  0  0  0
  -19.1630  -28.8953   23.2667 C   0  0  0  0  0  0
  -18.9548  -30.1512   23.8753 C   0  0  0  0  0  0
  -17.6548  -30.6600   24.0508 C   0  0  0  0  0  0
  -25.9184  -34.9085   23.4807 C   0  0  0  0  0  0
  -16.5416  -29.9082   23.6362 C   0  0  0  0  0  0
  -16.7334  -28.6509   23.0354 C   0  0  0  0  0  0
  -26.4688  -31.6343   25.0634 C   0  0  0  0  0  0
  -25.3654  -31.3791   26.1169 C   0  0  0  0  0  0
  -27.0676  -30.2608   24.6926 C   0  0  0  0  0  0
  -27.6047  -32.4290   25.7484 C   0  0  0  0  0  0
  -27.5563  -37.1667   24.8469 C   0  0  0  0  0  0
  -21.4566  -29.2945   22.3288 N   0  0  0  0  0  0
  -26.4271  -37.3506   23.9401 N   0  0  0  0  0  0
  -24.8554  -30.8325   22.0672 N   0  0  0  0  0  0
  -23.4147  -28.7649   23.3092 O   0  0  0  0  0  0
  -28.0042  -24.6485   20.2875 O   0  0  0  0  0  0
  -26.5888  -34.8757   22.4473 O   0  0  0  0  0  0
  -23.6201  -32.0684   23.5792 O   0  0  0  0  0  0
  -26.9393  -23.9047   21.9932 C   0  0  0  0  0  0
  -29.8169  -23.1919   20.3163 C   0  0  0  0  0  0
  -27.2172  -22.5051   20.9227 C   0  0  0  0  0  0
  -28.3679  -24.9891   22.3453 C   0  0  0  0  0  0
  -29.8649  -24.6570   21.3377 C   0  0  0  0  0  0
  -28.7084  -21.8566   20.3266 C   0  0  0  0  0  0
  -26.0676  -21.5187   20.9071 C   0  0  0  0  0  0
  -32.6065  -27.2337   22.4720 C   0  0  0  0  0  0
  -28.5861  -25.0692   23.7990 C   0  0  0  0  0  0
  -31.2132  -25.3437   21.4953 C   0  0  0  0  0  0
  -29.3879  -19.8557   20.1207 C   0  0  0  0  0  0
  -31.2059  -26.7791   22.0419 C   0  0  0  0  0  0
  -29.2052  -23.6834   23.8490 C   0  0  0  0  0  0
  -28.9290  -22.9315   22.4657 C   0  0  0  0  0  0
  -29.3274  -17.8585   20.3048 N   0  0  0  0  0  0
  -31.2796  -13.9435   19.0861 H   0  0  0  0  0  0
  -30.6917  -12.8790   20.2967 H   0  0  0  0  0  0
  -30.1619  -12.0372   17.9853 H   0  0  0  0  0  0
  -29.4065  -13.5508   17.5697 H   0  0  0  0  0  0
  -28.3750  -11.4122   19.4254 H   0  0  0  0  0  0
  -27.5528  -12.1068   18.0389 H   0  0  0  0  0  0
  -27.3579  -14.2100   19.1375 H   0  0  0  0  0  0
  -28.9475  -13.2288   21.5604 H   0  0  0  0  0  0
  -27.9785  -14.6697   21.5299 H   0  0  0  0  0  0
  -25.2838   -9.5704   22.4759 H   0  0  0  0  0  0
  -24.0042   -7.4685   22.7487 H   0  0  0  0  0  0
  -21.0921   -8.8869   19.8942 H   0  0  0  0  0  0
  -22.3837  -10.9726   19.6143 H   0  0  0  0  0  0
  -21.2025   -7.6153   23.9730 H   0  0  0  0  0  0
  -21.1472   -6.0516   25.9080 H   0  0  0  0  0  0
  -22.0594   -2.7615   23.2821 H   0  0  0  0  0  0
  -22.4016  -11.9812   22.4883 H   0  0  0  0  0  0
  -21.0953  -13.1085   22.2604 H   0  0  0  0  0  0
  -24.6041  -15.8629   20.5506 H   0  0  0  0  0  0
  -26.2241  -15.6610   20.1141 H   0  0  0  0  0  0
  -26.7766  -32.4452   23.0533 H   0  0  0  0  0  0
  -25.0013  -33.8907   24.9678 H   0  0  0  0  0  0
  -22.9289  -31.1662   21.2429 H   0  0  0  0  0  0
  -23.3797  -35.9361   23.3208 H   0  0  0  0  0  0
  -24.3594  -36.8825   22.2092 H   0  0  0  0  0  0
  -23.7295  -37.6167   23.6835 H   0  0  0  0  0  0
  -26.4296  -30.9940   20.6584 H   0  0  0  0  0  0
  -27.0067  -30.3886   22.1467 H   0  0  0  0  0  0
  -28.1422  -27.8783   21.4971 H   0  0  0  0  0  0
  -25.8126  -25.4487   18.8756 H   0  0  0  0  0  0
  -24.1494  -27.1362   18.8135 H   0  0  0  0  0  0
  -24.0669  -30.3133   19.3533 H   0  0  0  0  0  0
  -22.9564  -29.0617   19.8004 H   0  0  0  0  0  0
  -25.1410  -36.1375   25.0728 H   0  0  0  0  0  0
  -21.0063  -28.3498   24.1167 H   0  0  0  0  0  0
  -20.5596  -26.2445   23.3691 H   0  0  0  0  0  0
  -21.6673  -26.7268   22.1269 H   0  0  0  0  0  0
  -19.6988  -25.6245   21.1257 H   0  0  0  0  0  0
  -19.6813  -27.3116   20.6659 H   0  0  0  0  0  0
  -17.4258  -26.6612   21.3971 H   0  0  0  0  0  0
  -18.0404  -26.0129   22.8999 H   0  0  0  0  0  0
  -19.8025  -30.7335   24.2078 H   0  0  0  0  0  0
  -17.5097  -31.6265   24.5157 H   0  0  0  0  0  0
  -15.5409  -30.2944   23.7808 H   0  0  0  0  0  0
  -15.8709  -28.0797   22.7174 H   0  0  0  0  0  0
  -24.5997  -30.6959   25.7483 H   0  0  0  0  0  0
  -24.8694  -32.3024   26.4152 H   0  0  0  0  0  0
  -25.7754  -30.9288   27.0223 H   0  0  0  0  0  0
  -26.3519  -29.6034   24.1984 H   0  0  0  0  0  0
  -27.3898  -29.7285   25.5888 H   0  0  0  0  0  0
  -27.9551  -30.3532   24.0663 H   0  0  0  0  0  0
  -27.2579  -33.3770   26.1599 H   0  0  0  0  0  0
  -28.4100  -32.6518   25.0474 H   0  0  0  0  0  0
  -28.0435  -31.8724   26.5776 H   0  0  0  0  0  0
  -28.2510  -38.0028   24.7497 H   0  0  0  0  0  0
  -28.1139  -36.2533   24.6327 H   0  0  0  0  0  0
  -27.2276  -37.1315   25.8873 H   0  0  0  0  0  0
  -20.9975  -29.8488   21.6173 H   0  0  0  0  0  0
  -26.0050  -38.2541   24.1389 H   0  0  0  0  0  0
  -26.0212  -23.9687   22.5606 H   0  0  0  0  0  0
  -30.7757  -22.9603   19.8729 H   0  0  0  0  0  0
  -26.0231  -20.9922   21.8621 H   0  0  0  0  0  0
  -26.1887  -20.7682   20.1257 H   0  0  0  0  0  0
  -25.1202  -22.0337   20.7544 H   0  0  0  0  0  0
  -32.5733  -28.2171   22.9449 H   0  0  0  0  0  0
  -33.2913  -27.2970   21.6285 H   0  0  0  0  0  0
  -33.0361  -26.5360   23.1953 H   0  0  0  0  0  0
  -27.6248  -25.1183   24.3130 H   0  0  0  0  0  0
  -29.2339  -25.8619   24.1566 H   0  0  0  0  0  0
  -31.6959  -25.3406   20.5153 H   0  0  0  0  0  0
  -31.8250  -24.6996   22.1278 H   0  0  0  0  0  0
  -29.6101  -19.8916   19.0523 H   0  0  0  0  0  0
  -30.3650  -20.0040   20.5846 H   0  0  0  0  0  0
  -30.7889  -27.4683   21.3058 H   0  0  0  0  0  0
  -30.5682  -26.8508   22.9151 H   0  0  0  0  0  0
  -28.8404  -23.1196   24.7079 H   0  0  0  0  0  0
  -30.2848  -23.7784   23.9854 H   0  0  0  0  0  0
  -28.3061  -22.1127   22.8640 H   0  0  0  0  0  0
  -29.8668  -22.3567   22.4159 H   0  0  0  0  0  0
  -28.3462  -17.6390   20.4215 H   0  0  0  0  0  0
  1 25  1  0  0  0
  1 30  2  0  0  0
  1 85  1  0  0  0
  2  3  1  0  0  0
  2 25  1  0  0  0
  2 86  1  0  0  0
  2 87  1  0  0  0
  3  4  1  0  0  0
  3 88  1  0  0  0
  3 89  1  0  0  0
  4  5  1  0  0  0
  4 90  1  0  0  0
  4 91  1  0  0  0
  5  6  1  0  0  0
  5 26  1  0  0  0
  5 92  1  0  0  0
  6 25  1  0  0  0
  6 93  1  0  0  0
  6 94  1  0  0  0
  7  8  2  0  0  0
  7 26  1  0  0  0
  7 29  1  0  0  0
  8  9  1  0  0  0
  8 22  1  0  0  0
  9 10  1  0  0  0
  9 27  2  0  0  0
 10 11  2  0  0  0
 10 15  1  0  0  0
 11 12  1  0  0  0
 11 95  1  0  0  0
 12 13  2  0  0  0
 12 96  1  0  0  0
 13 14  1  0  0  0
 13 31  1  0  0  0
 14 15  2  0  0  0
 14 97  1  0  0  0
 15 98  1  0  0  0
 16 17  2  0  0  0
 16 21  1  0  0  0
 16 31  1  0  0  0
 17 18  1  0  0  0
 17 99  1  0  0  0
 18 19  2  0  0  0
 18100  1  0  0  0
 19 20  1  0  0  0
 19 24  1  0  0  0
 20 21  2  0  0  0
 20101  1  0  0  0
 21 23  1  0  0  0
 22 28  1  0  0  0
 22 32  2  0  0  0
 26 27  1  0  0  0
 28102  1  0  0  0
 28103  1  0  0  0
 29104  1  0  0  0
 29105  1  0  0  0
 33 34  1  0  0  0
 33 66  1  0  0  0
 33 70  2  0  0  0
 34 36  1  0  0  0
 34 59  1  0  0  0
 34106  1  0  0  0
 35 44  2  0  0  0
 35 45  1  0  0  0
 35 68  1  0  0  0
 36 56  1  0  0  0
 36107  1  0  0  0
 37 39  1  0  0  0
 37 47  1  0  0  0
 37 66  1  0  0  0
 37108  1  0  0  0
 38 43  2  0  0  0
 38 46  1  0  0  0
 38 47  1  0  0  0
 39 64  1  0  0  0
 39 67  2  0  0  0
 40 52  1  0  0  0
 40 53  2  0  0  0
 40 58  1  0  0  0
 41109  1  0  0  0
 41110  1  0  0  0
 41111  1  0  0  0
 41 48  1  0  0  0
 42 43  1  0  0  0
 42 66  1  0  0  0
 42112  1  0  0  0
 42113  1  0  0  0
 43 44  1  0  0  0
 44114  1  0  0  0
 45 46  2  0  0  0
 45115  1  0  0  0
 46116  1  0  0  0
 47117  1  0  0  0
 47118  1  0  0  0
 48 56  1  0  0  0
 48 65  1  0  0  0
 48119  1  0  0  0
 49 50  1  0  0  0
 49 53  1  0  0  0
 49 64  1  0  0  0
 49120  1  0  0  0
 50 51  1  0  0  0
 50121  1  0  0  0
 50122  1  0  0  0
 51 52  1  0  0  0
 51123  1  0  0  0
 51124  1  0  0  0
 52125  1  0  0  0
 52126  1  0  0  0
 53 54  1  0  0  0
 54 55  2  0  0  0
 54127  1  0  0  0
 55 57  1  0  0  0
 55128  1  0  0  0
 56 69  2  0  0  0
 57 58  2  0  0  0
 57129  1  0  0  0
 58130  1  0  0  0
 59 60  1  0  0  0
 59 61  1  0  0  0
 59 62  1  0  0  0
 60131  1  0  0  0
 60132  1  0  0  0
 60133  1  0  0  0
 61134  1  0  0  0
 61135  1  0  0  0
 61136  1  0  0  0
 62137  1  0  0  0
 62138  1  0  0  0
 62139  1  0  0  0
 63 65  1  0  0  0
 63140  1  0  0  0
 63141  1  0  0  0
 63142  1  0  0  0
 64143  1  0  0  0
 65144  1  0  0  0
 68 84  1  0  0  0
 71 73  2  0  0  0
 71 74  1  0  0  0
 71145  1  0  0  0
 72 75  1  0  0  0
 72 76  2  0  0  0
 72146  1  0  0  0
 73 76  1  0  0  0
 73 77  1  0  0  0
 74 75  2  0  0  0
 74 79  1  0  0  0
 75 80  1  0  0  0
 76 81  1  0  0  0
 77147  1  0  0  0
 77148  1  0  0  0
 77149  1  0  0  0
 78 82  1  0  0  0
 78150  1  0  0  0
 78151  1  0  0  0
 78152  1  0  0  0
 79 83  1  0  0  0
 79153  1  0  0  0
 79154  1  0  0  0
 80 82  1  0  0  0
 80155  1  0  0  0
 80156  1  0  0  0
 81 85  1  0  0  0
 81157  1  0  0  0
 81158  1  0  0  0
 82159  1  0  0  0
 82160  1  0  0  0
 83 84  1  0  0  0
 83161  1  0  0  0
 83162  1  0  0  0
 84163  1  0  0  0
 84164  1  0  0  0
 85165  1  0  0  0
M  ISO  4   1 100  68 101  84 101  85 100
M  END
> <chiral flag>
0

> <version>
0

> <s_m_source_file>
/data/baiqing/PycharmProjects/Reinvent-master-3.2/result/LINK_invent/BTK/process_docking_weight1_custom_sum_contain_oxygen_bond_distance_aromatic_linkinvent_7_9_3/rearranged_h_0035.sdf

> <i_m_source_file_index>
87

> <r_mmod_Potential_Energy-OPLS-2005>
11622.4111328125

> <r_mmod_Stretch_Energy-OPLS-2005>
6648.8505859375

> <r_mmod_Bend_Energy-OPLS-2005>
928.93701171875

> <r_mmod_Torsional_Energy-OPLS-2005>
392.080688476562

> <r_mmod_Improper_Torsional_Energy-OPLS-2005>
32.5415573120117

> <r_mmod_Van_der_Waal_Energy-OPLS-2005>
1961.18041992188

> <r_mmod_Electrostatic_Energy-OPLS-2005>
-371.287048339844

> <r_mmod_Solvation_Energy-OPLS-2005>
-230.656707763672

> <b_mmod_Minimization_Converged-OPLS-2005>
0

> <r_mmod_RMS_Derivative-OPLS-2005>
8.59017086029053

$$$$
87
                    3D
 Structure written by MMmdl.
159167  0  0  1  0            999 V2000
  -30.7114  -14.6053   20.5050 C   0  0  0  0  0  0
  -30.4165  -12.3731   19.4686 C   0  0  0  0  0  0
  -29.4988  -12.4880   18.2329 C   0  0  0  0  0  0
  -28.0229  -12.3452   18.6431 C   0  0  0  0  0  0
  -27.6519  -13.2283   19.8650 C   0  0  2  0  0  0
  -28.6997  -13.1443   20.9988 C   0  0  0  0  0  0
  -25.2558  -13.8197   20.5704 C   0  0  0  0  0  0
  -24.1841  -13.0463   20.9196 C   0  0  0  0  0  0
  -24.6439  -11.6929   20.8801 C   0  0  0  0  0  0
  -23.9111  -10.4294   21.0442 C   0  0  0  0  0  0
  -24.3655   -9.4197   21.9207 C   0  0  0  0  0  0
  -23.6337   -8.2234   22.0760 C   0  0  0  0  0  0
  -22.4319   -8.0268   21.3546 C   0  0  0  0  0  0
  -21.9966   -9.0243   20.4649 C   0  0  0  0  0  0
  -22.7288  -10.2131   20.3082 C   0  0  0  0  0  0
  -21.6851   -6.0740   22.5302 C   0  0  0  0  0  0
  -21.3983   -6.5645   23.8224 C   0  0  0  0  0  0
  -21.3703   -5.6804   24.9198 C   0  0  0  0  0  0
  -21.6084   -4.3068   24.7248 C   0  0  0  0  0  0
  -21.8810   -3.8156   23.4364 C   0  0  0  0  0  0
  -21.9188   -4.6971   22.3421 C   0  0  0  0  0  0
  -22.7871  -13.5241   21.1878 C   0  0  0  0  0  0
  -22.1648   -4.2169   21.0990 F   0  0  0  0  0  0
  -21.5687   -3.4549   25.7753 F   0  0  0  0  0  0
  -30.0174  -13.4290   20.4244 N   0  0  0  0  0  0
  -26.3016  -12.9416   20.3400 N   0  0  0  0  0  0
  -25.9387  -11.6554   20.5887 N   0  0  0  0  0  0
  -22.0526  -12.8201   22.0411 N   0  0  0  0  0  0
  -25.4262  -15.1932   20.4122 N   0  0  0  0  0  0
  -31.8719  -14.6757   20.1002 O   0  0  0  0  0  0
  -21.6661   -6.8876   21.4259 O   0  0  0  0  0  0
  -22.3549  -14.5543   20.6727 O   0  0  0  0  0  0
  -24.6205  -31.8633   23.2020 C   0  0  0  0  0  0
  -25.9051  -32.4808   23.8356 C   0  0  1  0  0  0
  -27.2178  -27.3421   20.1373 C   0  0  0  0  0  0
  -25.5881  -33.8607   24.2302 N   0  0  0  0  0  0
  -23.4156  -30.4820   21.5448 C   0  0  2  0  0  0
  -24.8642  -28.9416   20.1092 C   0  0  0  0  0  0
  -22.7463  -29.4609   22.4961 C   0  0  0  0  0  0
  -18.0269  -28.1395   22.8489 C   0  0  0  0  0  0
  -24.1479  -36.7329   23.2640 C   0  0  0  0  0  0
  -25.9478  -30.8071   21.3605 C   0  0  0  0  0  0
  -26.0285  -29.4318   20.7162 C   0  0  0  0  0  0
  -27.2135  -28.6423   20.7205 C   0  0  0  0  0  0
  -26.0433  -26.9038   19.4893 C   0  0  0  0  0  0
  -24.8715  -27.6842   19.4836 C   0  0  0  0  0  0
  -23.6276  -29.8144   20.1606 C   0  0  0  0  0  0
  -25.4102  -36.3126   24.0341 C   0  0  1  0  0  0
  -20.5865  -28.3681   23.1323 C   0  0  2  0  0  0
  -20.6763  -26.9400   22.5445 C   0  0  0  0  0  0
  -19.5731  -26.6374   21.5257 C   0  0  0  0  0  0
  -18.1904  -26.7934   22.1643 C   0  0  0  0  0  0
  -19.1523  -28.8853   23.2899 C   0  0  0  0  0  0
  -18.9446  -30.1467   23.8891 C   0  0  0  0  0  0
  -17.6445  -30.6589   24.0566 C   0  0  0  0  0  0
  -25.9040  -34.9482   23.5138 C   0  0  0  0  0  0
  -16.5340  -29.9094   23.6337 C   0  0  0  0  0  0
  -16.7255  -28.6529   23.0330 C   0  0  0  0  0  0
  -26.4429  -31.6598   25.0727 C   0  0  0  0  0  0
  -25.3679  -31.3719   26.1487 C   0  0  0  0  0  0
  -27.0277  -30.3039   24.6112 C   0  0  0  0  0  0
  -27.6010  -32.4308   25.7496 C   0  0  0  0  0  0
  -27.5577  -37.1814   24.8457 C   0  0  0  0  0  0
  -21.4169  -29.3043   22.3737 N   0  0  0  0  0  0
  -26.4289  -37.3810   23.9427 N   0  0  0  0  0  0
  -24.6810  -31.0664   22.0939 N   0  0  0  0  0  0
  -23.4210  -28.8130   23.3013 O   0  0  0  0  0  0
  -28.3120  -26.4778   20.1943 O   0  0  0  0  0  0
  -26.5627  -34.8938   22.4713 O   0  0  0  0  0  0
  -23.5374  -32.1389   23.7374 O   0  0  0  0  0  0
  -30.2483  -16.4714   22.1917 C   0  0  0  0  0  0
  -30.0754  -15.9521   20.8917 C   0  0  0  0  0  0
  -29.8612  -17.8059   22.5063 C   0  0  0  0  0  0
  -29.5125  -16.8658   19.9471 C   0  0  0  0  0  0
  -29.3092  -18.6480   21.4963 C   0  0  0  0  0  0
  -30.0391  -18.2765   23.9442 C   0  0  0  0  0  0
  -29.2763  -16.5003   18.4908 C   0  0  0  0  0  0
  -28.7548  -20.0916   21.7918 C   0  0  0  0  0  0
  -28.7670  -23.8643   20.3882 C   0  0  0  0  0  0
  -28.4131  -22.5525   21.2224 C   0  0  0  0  0  0
  -28.0654  -25.1989   20.8920 C   0  0  0  0  0  0
  -29.1441  -18.1527   20.2439 N   0  0  0  0  0  0
  -29.0443  -21.2232   20.8383 N   0  3  0  0  0  0
  -31.4605  -12.4495   19.1612 H   0  0  0  0  0  0
  -30.3159  -11.3927   19.9349 H   0  0  0  0  0  0
  -29.7604  -11.7286   17.4941 H   0  0  0  0  0  0
  -29.6533  -13.4479   17.7436 H   0  0  0  0  0  0
  -27.8436  -11.2933   18.8693 H   0  0  0  0  0  0
  -27.3719  -12.5835   17.7999 H   0  0  0  0  0  0
  -27.6564  -14.2584   19.5113 H   0  0  0  0  0  0
  -28.7064  -12.1587   21.4636 H   0  0  0  0  0  0
  -28.4605  -13.8566   21.7898 H   0  0  0  0  0  0
  -25.2787   -9.5696   22.4793 H   0  0  0  0  0  0
  -24.0075   -7.4622   22.7467 H   0  0  0  0  0  0
  -21.0908   -8.8735   19.8938 H   0  0  0  0  0  0
  -22.3725  -10.9659   19.6208 H   0  0  0  0  0  0
  -21.1892   -7.6146   23.9717 H   0  0  0  0  0  0
  -21.1590   -6.0548   25.9111 H   0  0  0  0  0  0
  -22.0555   -2.7615   23.2865 H   0  0  0  0  0  0
  -22.4103  -11.9845   22.4794 H   0  0  0  0  0  0
  -21.1131  -13.1216   22.2558 H   0  0  0  0  0  0
  -24.6660  -15.8515   20.5380 H   0  0  0  0  0  0
  -26.2976  -15.6402   20.1604 H   0  0  0  0  0  0
  -26.7118  -32.5511   23.1125 H   0  0  0  0  0  0
  -25.0003  -33.9743   25.0422 H   0  0  0  0  0  0
  -22.7084  -31.3012   21.4031 H   0  0  0  0  0  0
  -23.3754  -35.9646   23.3292 H   0  0  0  0  0  0
  -24.3568  -36.8963   22.2055 H   0  0  0  0  0  0
  -23.7212  -37.6525   23.6650 H   0  0  0  0  0  0
  -26.0588  -31.5590   20.5793 H   0  0  0  0  0  0
  -26.8369  -30.8768   21.9742 H   0  0  0  0  0  0
  -28.1070  -29.0067   21.2068 H   0  0  0  0  0  0
  -26.0259  -25.9330   19.0121 H   0  0  0  0  0  0
  -23.9786  -27.3088   19.0006 H   0  0  0  0  0  0
  -23.7354  -30.5894   19.4015 H   0  0  0  0  0  0
  -22.7497  -29.2352   19.8675 H   0  0  0  0  0  0
  -25.1260  -36.1996   25.0826 H   0  0  0  0  0  0
  -20.9931  -28.3252   24.1452 H   0  0  0  0  0  0
  -20.5695  -26.2274   23.3649 H   0  0  0  0  0  0
  -21.6621  -26.7454   22.1210 H   0  0  0  0  0  0
  -19.6897  -25.6289   21.1274 H   0  0  0  0  0  0
  -19.6674  -27.3193   20.6801 H   0  0  0  0  0  0
  -17.4183  -26.6693   21.4032 H   0  0  0  0  0  0
  -18.0263  -26.0090   22.9054 H   0  0  0  0  0  0
  -19.7931  -30.7299   24.2212 H   0  0  0  0  0  0
  -17.5008  -31.6245   24.5208 H   0  0  0  0  0  0
  -15.5338  -30.2987   23.7679 H   0  0  0  0  0  0
  -15.8665  -28.0871   22.7002 H   0  0  0  0  0  0
  -24.5853  -30.7056   25.7832 H   0  0  0  0  0  0
  -24.8871  -32.2880   26.4905 H   0  0  0  0  0  0
  -25.8024  -30.8913   27.0267 H   0  0  0  0  0  0
  -26.2846  -29.6811   24.1111 H   0  0  0  0  0  0
  -27.4012  -29.7240   25.4565 H   0  0  0  0  0  0
  -27.8673  -30.4377   23.9295 H   0  0  0  0  0  0
  -27.2633  -33.3600   26.2073 H   0  0  0  0  0  0
  -28.3802  -32.6860   25.0315 H   0  0  0  0  0  0
  -28.0679  -31.8437   26.5410 H   0  0  0  0  0  0
  -28.2577  -38.0123   24.7541 H   0  0  0  0  0  0
  -28.1080  -36.2667   24.6217 H   0  0  0  0  0  0
  -27.2314  -37.1408   25.8859 H   0  0  0  0  0  0
  -20.9340  -29.8828   21.7009 H   0  0  0  0  0  0
  -26.0183  -38.2892   24.1434 H   0  0  0  0  0  0
  -30.7092  -15.8495   22.9475 H   0  0  0  0  0  0
  -30.4739  -17.4975   24.5734 H   0  0  0  0  0  0
  -29.0754  -18.5416   24.3819 H   0  0  0  0  0  0
  -30.7027  -19.1397   24.0050 H   0  0  0  0  0  0
  -29.8780  -15.6590   18.1602 H   0  0  0  0  0  0
  -29.5101  -17.3421   17.8394 H   0  0  0  0  0  0
  -28.2248  -16.2543   18.3396 H   0  0  0  0  0  0
  -29.1018  -20.4138   22.7726 H   0  0  0  0  0  0
  -27.6732  -19.9938   21.8866 H   0  0  0  0  0  0
  -28.4942  -23.7064   19.3450 H   0  0  0  0  0  0
  -29.8459  -24.0143   20.3983 H   0  0  0  0  0  0
  -27.3298  -22.4233   21.2038 H   0  0  0  0  0  0
  -28.6674  -22.7447   22.2656 H   0  0  0  0  0  0
  -28.3571  -25.3650   21.9304 H   0  0  0  0  0  0
  -26.9977  -24.9921   20.9479 H   0  0  0  0  0  0
  -28.7252  -20.9295   19.9285 H   0  0  0  0  0  0
  -30.0456  -21.3186   20.7919 H   0  0  0  0  0  0
  1 25  1  0  0  0
  1 30  2  0  0  0
  1 72  1  0  0  0
  2  3  1  0  0  0
  2 25  1  0  0  0
  2 84  1  0  0  0
  2 85  1  0  0  0
  3  4  1  0  0  0
  3 86  1  0  0  0
  3 87  1  0  0  0
  4  5  1  0  0  0
  4 88  1  0  0  0
  4 89  1  0  0  0
  5  6  1  0  0  0
  5 26  1  0  0  0
  5 90  1  0  0  0
  6 25  1  0  0  0
  6 91  1  0  0  0
  6 92  1  0  0  0
  7  8  2  0  0  0
  7 26  1  0  0  0
  7 29  1  0  0  0
  8  9  1  0  0  0
  8 22  1  0  0  0
  9 10  1  0  0  0
  9 27  2  0  0  0
 10 11  2  0  0  0
 10 15  1  0  0  0
 11 12  1  0  0  0
 11 93  1  0  0  0
 12 13  2  0  0  0
 12 94  1  0  0  0
 13 14  1  0  0  0
 13 31  1  0  0  0
 14 15  2  0  0  0
 14 95  1  0  0  0
 15 96  1  0  0  0
 16 17  2  0  0  0
 16 21  1  0  0  0
 16 31  1  0  0  0
 17 18  1  0  0  0
 17 97  1  0  0  0
 18 19  2  0  0  0
 18 98  1  0  0  0
 19 20  1  0  0  0
 19 24  1  0  0  0
 20 21  2  0  0  0
 20 99  1  0  0  0
 21 23  1  0  0  0
 22 28  1  0  0  0
 22 32  2  0  0  0
 26 27  1  0  0  0
 28100  1  0  0  0
 28101  1  0  0  0
 29102  1  0  0  0
 29103  1  0  0  0
 33 34  1  0  0  0
 33 66  1  0  0  0
 33 70  2  0  0  0
 34 36  1  0  0  0
 34 59  1  0  0  0
 34104  1  0  0  0
 35 44  2  0  0  0
 35 45  1  0  0  0
 35 68  1  0  0  0
 36 56  1  0  0  0
 36105  1  0  0  0
 37 39  1  0  0  0
 37 47  1  0  0  0
 37 66  1  0  0  0
 37106  1  0  0  0
 38 43  2  0  0  0
 38 46  1  0  0  0
 38 47  1  0  0  0
 39 64  1  0  0  0
 39 67  2  0  0  0
 40 52  1  0  0  0
 40 53  2  0  0  0
 40 58  1  0  0  0
 41107  1  0  0  0
 41108  1  0  0  0
 41109  1  0  0  0
 41 48  1  0  0  0
 42 43  1  0  0  0
 42 66  1  0  0  0
 42110  1  0  0  0
 42111  1  0  0  0
 43 44  1  0  0  0
 44112  1  0  0  0
 45 46  2  0  0  0
 45113  1  0  0  0
 46114  1  0  0  0
 47115  1  0  0  0
 47116  1  0  0  0
 48 56  1  0  0  0
 48 65  1  0  0  0
 48117  1  0  0  0
 49 50  1  0  0  0
 49 53  1  0  0  0
 49 64  1  0  0  0
 49118  1  0  0  0
 50 51  1  0  0  0
 50119  1  0  0  0
 50120  1  0  0  0
 51 52  1  0  0  0
 51121  1  0  0  0
 51122  1  0  0  0
 52123  1  0  0  0
 52124  1  0  0  0
 53 54  1  0  0  0
 54 55  2  0  0  0
 54125  1  0  0  0
 55 57  1  0  0  0
 55126  1  0  0  0
 56 69  2  0  0  0
 57 58  2  0  0  0
 57127  1  0  0  0
 58128  1  0  0  0
 59 60  1  0  0  0
 59 61  1  0  0  0
 59 62  1  0  0  0
 60129  1  0  0  0
 60130  1  0  0  0
 60131  1  0  0  0
 61132  1  0  0  0
 61133  1  0  0  0
 61134  1  0  0  0
 62135  1  0  0  0
 62136  1  0  0  0
 62137  1  0  0  0
 63 65  1  0  0  0
 63138  1  0  0  0
 63139  1  0  0  0
 63140  1  0  0  0
 64141  1  0  0  0
 65142  1  0  0  0
 68 81  1  0  0  0
 71 72  2  0  0  0
 71 73  1  0  0  0
 71143  1  0  0  0
 72 74  1  0  0  0
 73 75  2  0  0  0
 73 76  1  0  0  0
 74 77  1  0  0  0
 74 82  2  0  0  0
 75 78  1  0  0  0
 75 82  1  0  0  0
 76144  1  0  0  0
 76145  1  0  0  0
 76146  1  0  0  0
 77147  1  0  0  0
 77148  1  0  0  0
 77149  1  0  0  0
 78 83  1  0  0  0
 78150  1  0  0  0
 78151  1  0  0  0
 79 80  1  0  0  0
 79 81  1  0  0  0
 79152  1  0  0  0
 79153  1  0  0  0
 80 83  1  0  0  0
 80154  1  0  0  0
 80155  1  0  0  0
 81156  1  0  0  0
 81157  1  0  0  0
 83158  1  0  0  0
 83159  1  0  0  0
M  CHG  1  83   1
M  ISO  4   1 100  68 101  72 100  81 101
M  END
> <chiral flag>
0

> <version>
0

> <s_m_source_file>
/data/baiqing/PycharmProjects/Reinvent-master-3.2/result/LINK_invent/BTK/process_docking_weight1_custom_sum_contain_oxygen_bond_distance_aromatic_linkinvent_7_9_3/rearranged_h_0035.sdf

> <i_m_source_file_index>
88

> <r_mmod_Potential_Energy-OPLS-2005>
-295.261505126953

> <r_mmod_Stretch_Energy-OPLS-2005>
72.7368927001953

> <r_mmod_Bend_Energy-OPLS-2005>
133.662704467773

> <r_mmod_Torsional_Energy-OPLS-2005>
227.388366699219

> <r_mmod_Improper_Torsional_Energy-OPLS-2005>
5.33170032501221

> <r_mmod_Van_der_Waal_Energy-OPLS-2005>
136.222305297852

> <r_mmod_Electrostatic_Energy-OPLS-2005>
-460.297546386719

> <r_mmod_Solvation_Energy-OPLS-2005>
-455.180084228516

> <b_mmod_Minimization_Converged-OPLS-2005>
0

> <r_mmod_RMS_Derivative-OPLS-2005>
3.84690022468567

$$$$
88
                    3D
 Structure written by MMmdl.
169178  0  0  1  0            999 V2000
  -30.7042  -14.4314   20.6143 C   0  0  0  0  0  0
  -30.4292  -12.2998   19.4081 C   0  0  0  0  0  0
  -29.4944  -12.5236   18.2018 C   0  0  0  0  0  0
  -28.0147  -12.3831   18.6125 C   0  0  0  0  0  0
  -27.6670  -13.2028   19.8841 C   0  0  2  0  0  0
  -28.7068  -12.9407   20.9970 C   0  0  0  0  0  0
  -25.2590  -13.8146   20.5661 C   0  0  0  0  0  0
  -24.1844  -13.0430   20.9160 C   0  0  0  0  0  0
  -24.6395  -11.6896   20.8711 C   0  0  0  0  0  0
  -23.9060  -10.4288   21.0396 C   0  0  0  0  0  0
  -24.3615   -9.4204   21.9174 C   0  0  0  0  0  0
  -23.6293   -8.2239   22.0747 C   0  0  0  0  0  0
  -22.4271   -8.0276   21.3543 C   0  0  0  0  0  0
  -21.9908   -9.0250   20.4642 C   0  0  0  0  0  0
  -22.7233  -10.2129   20.3048 C   0  0  0  0  0  0
  -21.6854   -6.0729   22.5277 C   0  0  0  0  0  0
  -21.4016   -6.5635   23.8208 C   0  0  0  0  0  0
  -21.3661   -5.6792   24.9172 C   0  0  0  0  0  0
  -21.6046   -4.3053   24.7223 C   0  0  0  0  0  0
  -21.8826   -3.8142   23.4345 C   0  0  0  0  0  0
  -21.9193   -4.6958   22.3399 C   0  0  0  0  0  0
  -22.7861  -13.5213   21.1843 C   0  0  0  0  0  0
  -22.1660   -4.2143   21.0979 F   0  0  0  0  0  0
  -21.5638   -3.4536   25.7734 F   0  0  0  0  0  0
  -30.0448  -13.2539   20.4577 N   0  0  0  0  0  0
  -26.3047  -12.9321   20.3393 N   0  0  0  0  0  0
  -25.9324  -11.6481   20.5759 N   0  0  0  0  0  0
  -22.0518  -12.8196   22.0400 N   0  0  0  0  0  0
  -25.4283  -15.1865   20.4064 N   0  0  0  0  0  0
  -31.7917  -14.6803   20.0853 O   0  0  0  0  0  0
  -21.6641   -6.8870   21.4240 O   0  0  0  0  0  0
  -22.3535  -14.5530   20.6710 O   0  0  0  0  0  0
  -24.6115  -31.8707   23.2129 C   0  0  0  0  0  0
  -25.9019  -32.4837   23.8419 C   0  0  1  0  0  0
  -27.2416  -27.4603   20.0764 C   0  0  0  0  0  0
  -25.5886  -33.8635   24.2348 N   0  0  0  0  0  0
  -23.3984  -30.4938   21.5534 C   0  0  2  0  0  0
  -24.8439  -28.9572   20.1221 C   0  0  0  0  0  0
  -22.7394  -29.4667   22.5016 C   0  0  0  0  0  0
  -18.0269  -28.1370   22.8498 C   0  0  0  0  0  0
  -24.1482  -36.7317   23.2642 C   0  0  0  0  0  0
  -25.9255  -30.8360   21.3679 C   0  0  0  0  0  0
  -26.0013  -29.4692   20.7213 C   0  0  0  0  0  0
  -27.1975  -28.7198   20.7129 C   0  0  0  0  0  0
  -26.0597  -26.9465   19.4953 C   0  0  0  0  0  0
  -24.8641  -27.6886   19.5167 C   0  0  0  0  0  0
  -23.6072  -29.8254   20.1685 C   0  0  0  0  0  0
  -25.4103  -36.3127   24.0350 C   0  0  1  0  0  0
  -20.5854  -28.3655   23.1327 C   0  0  2  0  0  0
  -20.6760  -26.9396   22.5418 C   0  0  0  0  0  0
  -19.5741  -26.6385   21.5213 C   0  0  0  0  0  0
  -18.1917  -26.7918   22.1624 C   0  0  0  0  0  0
  -19.1516  -28.8828   23.2910 C   0  0  0  0  0  0
  -18.9451  -30.1438   23.8919 C   0  0  0  0  0  0
  -17.6455  -30.6581   24.0564 C   0  0  0  0  0  0
  -25.9028  -34.9487   23.5148 C   0  0  0  0  0  0
  -16.5344  -29.9087   23.6320 C   0  0  0  0  0  0
  -16.7260  -28.6498   23.0348 C   0  0  0  0  0  0
  -26.4455  -31.6613   25.0740 C   0  0  0  0  0  0
  -25.3725  -31.3714   26.1496 C   0  0  0  0  0  0
  -27.0289  -30.3062   24.6099 C   0  0  0  0  0  0
  -27.6039  -32.4333   25.7490 C   0  0  0  0  0  0
  -27.5585  -37.1814   24.8468 C   0  0  0  0  0  0
  -21.4126  -29.3028   22.3744 N   0  0  0  0  0  0
  -26.4294  -37.3810   23.9416 N   0  0  0  0  0  0
  -24.6629  -31.0817   22.1027 N   0  0  0  0  0  0
  -23.4171  -28.8212   23.3056 O   0  0  0  0  0  0
  -28.4328  -26.7684   20.0350 O   0  0  0  0  0  0
  -26.5593  -34.8934   22.4711 O   0  0  0  0  0  0
  -23.5315  -32.1458   23.7531 O   0  0  0  0  0  0
  -30.2908  -21.9959   17.8628 C   0  0  0  0  0  0
  -29.5242  -21.3866   20.0738 C   0  0  0  0  0  0
  -30.3317  -20.6384   17.4986 C   0  0  0  0  0  0
  -29.9887  -19.6198   18.4364 C   0  0  0  0  0  0
  -29.8834  -22.3818   19.1470 C   0  0  0  0  0  0
  -29.5616  -20.0064   19.7512 C   0  0  0  0  0  0
  -30.7551  -20.3301   16.0675 C   0  0  0  0  0  0
  -30.0517  -18.1587   17.9815 C   0  0  0  0  0  0
  -30.3602  -18.9311   15.5987 C   0  0  0  0  0  0
  -30.7680  -17.9042   16.6478 C   0  0  0  0  0  0
  -29.8311  -23.8632   19.5011 C   0  0  0  0  0  0
  -29.0589  -19.1055   20.9032 C   0  0  0  0  0  0
  -28.6158  -24.5792   18.8775 C   0  0  0  0  0  0
  -29.0017  -17.5592   20.8408 C   0  0  0  0  0  0
  -30.2643  -16.8073   21.3246 C   0  0  0  0  0  0
  -28.7503  -26.1135   18.8033 C   0  0  0  0  0  0
  -30.0191  -15.3626   21.2940 N   0  0  0  0  0  0
  -31.4719  -12.4128   19.1046 H   0  0  0  0  0  0
  -30.3400  -11.2791   19.7812 H   0  0  0  0  0  0
  -29.7298  -11.8181   17.4037 H   0  0  0  0  0  0
  -29.6642  -13.5186   17.7870 H   0  0  0  0  0  0
  -27.8168  -11.3253   18.7885 H   0  0  0  0  0  0
  -27.3679  -12.6807   17.7866 H   0  0  0  0  0  0
  -27.7242  -14.2573   19.6134 H   0  0  0  0  0  0
  -28.6764  -11.8930   21.3007 H   0  0  0  0  0  0
  -28.4629  -13.5015   21.9000 H   0  0  0  0  0  0
  -25.2768   -9.5676   22.4736 H   0  0  0  0  0  0
  -24.0011   -7.4625   22.7460 H   0  0  0  0  0  0
  -21.0847   -8.8761   19.8936 H   0  0  0  0  0  0
  -22.3700  -10.9664   19.6151 H   0  0  0  0  0  0
  -21.2006   -7.6142   23.9708 H   0  0  0  0  0  0
  -21.1482   -6.0520   25.9075 H   0  0  0  0  0  0
  -22.0603   -2.7606   23.2844 H   0  0  0  0  0  0
  -22.4163  -11.9864   22.4785 H   0  0  0  0  0  0
  -21.1126  -13.1193   22.2617 H   0  0  0  0  0  0
  -24.6574  -15.8370   20.5071 H   0  0  0  0  0  0
  -26.2801  -15.6277   20.0853 H   0  0  0  0  0  0
  -26.7092  -32.5558   23.1190 H   0  0  0  0  0  0
  -25.0055  -33.9807   25.0505 H   0  0  0  0  0  0
  -22.6864  -31.3102   21.4153 H   0  0  0  0  0  0
  -23.3753  -35.9640   23.3310 H   0  0  0  0  0  0
  -24.3580  -36.8919   22.2054 H   0  0  0  0  0  0
  -23.7217  -37.6519   23.6643 H   0  0  0  0  0  0
  -26.0380  -31.5992   20.5966 H   0  0  0  0  0  0
  -26.8137  -30.8908   21.9853 H   0  0  0  0  0  0
  -28.0928  -29.1161   21.1716 H   0  0  0  0  0  0
  -26.0544  -25.9759   19.0213 H   0  0  0  0  0  0
  -23.9708  -27.2806   19.0643 H   0  0  0  0  0  0
  -23.7198  -30.6008   19.4105 H   0  0  0  0  0  0
  -22.7302  -29.2483   19.8701 H   0  0  0  0  0  0
  -25.1273  -36.2009   25.0846 H   0  0  0  0  0  0
  -20.9944  -28.3219   24.1449 H   0  0  0  0  0  0
  -20.5666  -26.2265   23.3603 H   0  0  0  0  0  0
  -21.6632  -26.7446   22.1210 H   0  0  0  0  0  0
  -19.6900  -25.6303   21.1226 H   0  0  0  0  0  0
  -19.6675  -27.3211   20.6755 H   0  0  0  0  0  0
  -17.4188  -26.6677   21.4023 H   0  0  0  0  0  0
  -18.0313  -26.0051   22.9011 H   0  0  0  0  0  0
  -19.7930  -30.7241   24.2300 H   0  0  0  0  0  0
  -17.5015  -31.6265   24.5161 H   0  0  0  0  0  0
  -15.5347  -30.2996   23.7629 H   0  0  0  0  0  0
  -15.8662  -28.0824   22.7049 H   0  0  0  0  0  0
  -24.5898  -30.7054   25.7844 H   0  0  0  0  0  0
  -24.8911  -32.2867   26.4953 H   0  0  0  0  0  0
  -25.8088  -30.8888   27.0252 H   0  0  0  0  0  0
  -26.2834  -29.6833   24.1139 H   0  0  0  0  0  0
  -27.4060  -29.7287   25.4551 H   0  0  0  0  0  0
  -27.8668  -30.4403   23.9252 H   0  0  0  0  0  0
  -27.2663  -33.3632   26.2084 H   0  0  0  0  0  0
  -28.3828  -32.6895   25.0294 H   0  0  0  0  0  0
  -28.0724  -31.8444   26.5389 H   0  0  0  0  0  0
  -28.2608  -38.0108   24.7527 H   0  0  0  0  0  0
  -28.1075  -36.2643   24.6278 H   0  0  0  0  0  0
  -27.2307  -37.1450   25.8873 H   0  0  0  0  0  0
  -20.9284  -29.8767   21.6983 H   0  0  0  0  0  0
  -26.0192  -38.2893   24.1415 H   0  0  0  0  0  0
  -30.5659  -22.7535   17.1413 H   0  0  0  0  0  0
  -29.1968  -21.6933   21.0585 H   0  0  0  0  0  0
  -31.8375  -20.4458   16.0053 H   0  0  0  0  0  0
  -30.3280  -21.0725   15.3912 H   0  0  0  0  0  0
  -29.0303  -17.7940   17.8855 H   0  0  0  0  0  0
  -30.5612  -17.5564   18.7251 H   0  0  0  0  0  0
  -30.8237  -18.7099   14.6364 H   0  0  0  0  0  0
  -29.2810  -18.8815   15.4478 H   0  0  0  0  0  0
  -30.5566  -16.8925   16.2997 H   0  0  0  0  0  0
  -31.8480  -17.9601   16.7932 H   0  0  0  0  0  0
  -30.7526  -24.3166   19.1317 H   0  0  0  0  0  0
  -29.8402  -24.0000   20.5828 H   0  0  0  0  0  0
  -28.0301  -19.4316   21.0709 H   0  0  0  0  0  0
  -29.5885  -19.3939   21.8130 H   0  0  0  0  0  0
  -27.6970  -24.2864   19.3855 H   0  0  0  0  0  0
  -28.5084  -24.2291   17.8502 H   0  0  0  0  0  0
  -28.6210  -17.1900   19.8938 H   0  0  0  0  0  0
  -28.2167  -17.2727   21.5427 H   0  0  0  0  0  0
  -30.4951  -17.0951   22.3510 H   0  0  0  0  0  0
  -31.1424  -17.0786   20.7394 H   0  0  0  0  0  0
  -28.1405  -26.4947   17.9818 H   0  0  0  0  0  0
  -29.7702  -26.3835   18.5281 H   0  0  0  0  0  0
  -29.1597  -15.0411   21.7132 H   0  0  0  0  0  0
  1 25  1  0  0  0
  1 30  2  0  0  0
  1 87  1  0  0  0
  2  3  1  0  0  0
  2 25  1  0  0  0
  2 88  1  0  0  0
  2 89  1  0  0  0
  3  4  1  0  0  0
  3 90  1  0  0  0
  3 91  1  0  0  0
  4  5  1  0  0  0
  4 92  1  0  0  0
  4 93  1  0  0  0
  5  6  1  0  0  0
  5 26  1  0  0  0
  5 94  1  0  0  0
  6 25  1  0  0  0
  6 95  1  0  0  0
  6 96  1  0  0  0
  7  8  2  0  0  0
  7 26  1  0  0  0
  7 29  1  0  0  0
  8  9  1  0  0  0
  8 22  1  0  0  0
  9 10  1  0  0  0
  9 27  2  0  0  0
 10 11  2  0  0  0
 10 15  1  0  0  0
 11 12  1  0  0  0
 11 97  1  0  0  0
 12 13  2  0  0  0
 12 98  1  0  0  0
 13 14  1  0  0  0
 13 31  1  0  0  0
 14 15  2  0  0  0
 14 99  1  0  0  0
 15100  1  0  0  0
 16 17  2  0  0  0
 16 21  1  0  0  0
 16 31  1  0  0  0
 17 18  1  0  0  0
 17101  1  0  0  0
 18 19  2  0  0  0
 18102  1  0  0  0
 19 20  1  0  0  0
 19 24  1  0  0  0
 20 21  2  0  0  0
 20103  1  0  0  0
 21 23  1  0  0  0
 22 28  1  0  0  0
 22 32  2  0  0  0
 26 27  1  0  0  0
 28104  1  0  0  0
 28105  1  0  0  0
 29106  1  0  0  0
 29107  1  0  0  0
 33 34  1  0  0  0
 33 66  1  0  0  0
 33 70  2  0  0  0
 34 36  1  0  0  0
 34 59  1  0  0  0
 34108  1  0  0  0
 35 44  2  0  0  0
 35 45  1  0  0  0
 35 68  1  0  0  0
 36 56  1  0  0  0
 36109  1  0  0  0
 37 39  1  0  0  0
 37 47  1  0  0  0
 37 66  1  0  0  0
 37110  1  0  0  0
 38 43  2  0  0  0
 38 46  1  0  0  0
 38 47  1  0  0  0
 39 64  1  0  0  0
 39 67  2  0  0  0
 40 52  1  0  0  0
 40 53  2  0  0  0
 40 58  1  0  0  0
 41111  1  0  0  0
 41112  1  0  0  0
 41113  1  0  0  0
 41 48  1  0  0  0
 42 43  1  0  0  0
 42 66  1  0  0  0
 42114  1  0  0  0
 42115  1  0  0  0
 43 44  1  0  0  0
 44116  1  0  0  0
 45 46  2  0  0  0
 45117  1  0  0  0
 46118  1  0  0  0
 47119  1  0  0  0
 47120  1  0  0  0
 48 56  1  0  0  0
 48 65  1  0  0  0
 48121  1  0  0  0
 49 50  1  0  0  0
 49 53  1  0  0  0
 49 64  1  0  0  0
 49122  1  0  0  0
 50 51  1  0  0  0
 50123  1  0  0  0
 50124  1  0  0  0
 51 52  1  0  0  0
 51125  1  0  0  0
 51126  1  0  0  0
 52127  1  0  0  0
 52128  1  0  0  0
 53 54  1  0  0  0
 54 55  2  0  0  0
 54129  1  0  0  0
 55 57  1  0  0  0
 55130  1  0  0  0
 56 69  2  0  0  0
 57 58  2  0  0  0
 57131  1  0  0  0
 58132  1  0  0  0
 59 60  1  0  0  0
 59 61  1  0  0  0
 59 62  1  0  0  0
 60133  1  0  0  0
 60134  1  0  0  0
 60135  1  0  0  0
 61136  1  0  0  0
 61137  1  0  0  0
 61138  1  0  0  0
 62139  1  0  0  0
 62140  1  0  0  0
 62141  1  0  0  0
 63 65  1  0  0  0
 63142  1  0  0  0
 63143  1  0  0  0
 63144  1  0  0  0
 64145  1  0  0  0
 65146  1  0  0  0
 68 86  1  0  0  0
 71 73  2  0  0  0
 71 75  1  0  0  0
 71147  1  0  0  0
 72 75  2  0  0  0
 72 76  1  0  0  0
 72148  1  0  0  0
 73 74  1  0  0  0
 73 77  1  0  0  0
 74 76  2  0  0  0
 74 78  1  0  0  0
 75 81  1  0  0  0
 76 82  1  0  0  0
 77 79  1  0  0  0
 77149  1  0  0  0
 77150  1  0  0  0
 78 80  1  0  0  0
 78151  1  0  0  0
 78152  1  0  0  0
 79 80  1  0  0  0
 79153  1  0  0  0
 79154  1  0  0  0
 80155  1  0  0  0
 80156  1  0  0  0
 81 83  1  0  0  0
 81157  1  0  0  0
 81158  1  0  0  0
 82 84  1  0  0  0
 82159  1  0  0  0
 82160  1  0  0  0
 83 86  1  0  0  0
 83161  1  0  0  0
 83162  1  0  0  0
 84 85  1  0  0  0
 84163  1  0  0  0
 84164  1  0  0  0
 85 87  1  0  0  0
 85165  1  0  0  0
 85166  1  0  0  0
 86167  1  0  0  0
 86168  1  0  0  0
 87169  1  0  0  0
M  ISO  4   1 100  68 101  86 101  87 100
M  END
> <chiral flag>
0

> <version>
0

> <s_m_source_file>
/data/baiqing/PycharmProjects/Reinvent-master-3.2/result/LINK_invent/BTK/process_docking_weight1_custom_sum_contain_oxygen_bond_distance_aromatic_linkinvent_7_9_3/rearranged_h_0035.sdf

> <i_m_source_file_index>
89

> <r_mmod_Potential_Energy-OPLS-2005>
-39.9154319763184

> <r_mmod_Stretch_Energy-OPLS-2005>
38.9560508728027

> <r_mmod_Bend_Energy-OPLS-2005>
127.255218505859

> <r_mmod_Torsional_Energy-OPLS-2005>
218.734985351562

> <r_mmod_Improper_Torsional_Energy-OPLS-2005>
3.28330326080322

> <r_mmod_Van_der_Waal_Energy-OPLS-2005>
160.649002075195

> <r_mmod_Electrostatic_Energy-OPLS-2005>
-388.812957763672

> <r_mmod_Solvation_Energy-OPLS-2005>
-208.497940063477

> <b_mmod_Minimization_Converged-OPLS-2005>
0

> <r_mmod_RMS_Derivative-OPLS-2005>
1.48984336853027

$$$$
89
                    3D
 Structure written by MMmdl.
173181  0  0  1  0            999 V2000
  -30.7535  -14.4058   20.6293 C   0  0  0  0  0  0
  -30.4056  -12.2823   19.4267 C   0  0  0  0  0  0
  -29.4918  -12.5301   18.2118 C   0  0  0  0  0  0
  -28.0088  -12.4074   18.6069 C   0  0  0  0  0  0
  -27.6633  -13.2204   19.8824 C   0  0  2  0  0  0
  -28.6979  -12.9860   21.0070 C   0  0  0  0  0  0
  -25.2559  -13.8207   20.5675 C   0  0  0  0  0  0
  -24.1832  -13.0472   20.9120 C   0  0  0  0  0  0
  -24.6422  -11.6941   20.8716 C   0  0  0  0  0  0
  -23.9093  -10.4319   21.0388 C   0  0  0  0  0  0
  -24.3639   -9.4232   21.9181 C   0  0  0  0  0  0
  -23.6299   -8.2273   22.0763 C   0  0  0  0  0  0
  -22.4294   -8.0302   21.3536 C   0  0  0  0  0  0
  -21.9918   -9.0288   20.4661 C   0  0  0  0  0  0
  -22.7249  -10.2156   20.3056 C   0  0  0  0  0  0
  -21.6861   -6.0742   22.5283 C   0  0  0  0  0  0
  -21.4048   -6.5632   23.8219 C   0  0  0  0  0  0
  -21.3652   -5.6778   24.9169 C   0  0  0  0  0  0
  -21.6029   -4.3048   24.7215 C   0  0  0  0  0  0
  -21.8814   -3.8142   23.4343 C   0  0  0  0  0  0
  -21.9200   -4.6970   22.3404 C   0  0  0  0  0  0
  -22.7849  -13.5266   21.1818 C   0  0  0  0  0  0
  -22.1662   -4.2140   21.0973 F   0  0  0  0  0  0
  -21.5616   -3.4535   25.7734 F   0  0  0  0  0  0
  -30.0400  -13.2578   20.4699 N   0  0  0  0  0  0
  -26.3029  -12.9426   20.3373 N   0  0  0  0  0  0
  -25.9348  -11.6573   20.5730 N   0  0  0  0  0  0
  -22.0537  -12.8252   22.0396 N   0  0  0  0  0  0
  -25.4290  -15.1940   20.4167 N   0  0  0  0  0  0
  -31.8241  -14.6013   20.0427 O   0  0  0  0  0  0
  -21.6653   -6.8902   21.4248 O   0  0  0  0  0  0
  -22.3495  -14.5546   20.6639 O   0  0  0  0  0  0
  -24.6060  -31.8742   23.2132 C   0  0  0  0  0  0
  -25.8978  -32.4879   23.8430 C   0  0  1  0  0  0
  -27.2034  -27.4606   20.1325 C   0  0  0  0  0  0
  -25.5869  -33.8665   24.2357 N   0  0  0  0  0  0
  -23.3939  -30.5021   21.5540 C   0  0  2  0  0  0
  -24.8398  -28.9871   20.0952 C   0  0  0  0  0  0
  -22.7347  -29.4706   22.4977 C   0  0  0  0  0  0
  -18.0240  -28.1327   22.8582 C   0  0  0  0  0  0
  -24.1484  -36.7325   23.2646 C   0  0  0  0  0  0
  -25.9142  -30.8595   21.3599 C   0  0  0  0  0  0
  -25.9934  -29.4955   20.7097 C   0  0  0  0  0  0
  -27.1819  -28.7376   20.7285 C   0  0  0  0  0  0
  -26.0549  -26.9730   19.4790 C   0  0  0  0  0  0
  -24.8676  -27.7278   19.4696 C   0  0  0  0  0  0
  -23.5960  -29.8460   20.1591 C   0  0  0  0  0  0
  -25.4105  -36.3146   24.0355 C   0  0  1  0  0  0
  -20.5820  -28.3676   23.1280 C   0  0  2  0  0  0
  -20.6796  -26.9449   22.5329 C   0  0  0  0  0  0
  -19.5625  -26.6140   21.5378 C   0  0  0  0  0  0
  -18.1859  -26.7803   22.1884 C   0  0  0  0  0  0
  -19.1491  -28.8844   23.2859 C   0  0  0  0  0  0
  -18.9455  -30.1524   23.8700 C   0  0  0  0  0  0
  -17.6456  -30.6646   24.0456 C   0  0  0  0  0  0
  -25.9048  -34.9509   23.5163 C   0  0  0  0  0  0
  -16.5327  -29.9074   23.6398 C   0  0  0  0  0  0
  -16.7231  -28.6448   23.0503 C   0  0  0  0  0  0
  -26.4429  -31.6596   25.0707 C   0  0  0  0  0  0
  -25.3702  -31.3649   26.1458 C   0  0  0  0  0  0
  -27.0232  -30.3050   24.6018 C   0  0  0  0  0  0
  -27.6053  -32.4250   25.7434 C   0  0  0  0  0  0
  -27.5582  -37.1820   24.8477 C   0  0  0  0  0  0
  -21.4069  -29.3084   22.3714 N   0  0  0  0  0  0
  -26.4321  -37.3798   23.9396 N   0  0  0  0  0  0
  -24.6571  -31.0895   22.1031 N   0  0  0  0  0  0
  -23.4149  -28.8179   23.2920 O   0  0  0  0  0  0
  -28.3063  -26.6520   20.2212 O   0  0  0  0  0  0
  -26.5621  -34.8964   22.4722 O   0  0  0  0  0  0
  -23.5246  -32.1418   23.7598 O   0  0  0  0  0  0
  -28.0833  -17.9651   23.4649 C   0  0  0  0  0  0
  -28.9199  -19.5071   21.8122 C   0  0  0  0  0  0
  -29.1205  -18.3614   22.6097 C   0  0  0  0  0  0
  -26.9006  -18.7222   23.5187 C   0  0  0  0  0  0
  -27.6884  -20.1960   21.8982 C   0  0  0  0  0  0
  -24.6030  -15.2593   24.3720 C   0  0  0  0  0  0
  -30.4443  -17.6097   22.6355 C   0  0  0  0  0  0
  -25.7977  -18.3095   24.4818 C   0  0  0  0  0  0
  -27.3931  -21.4005   21.0078 C   0  0  0  0  0  0
  -23.8530  -16.5976   24.4948 C   0  0  0  0  0  0
  -24.5401  -17.7742   23.7693 C   0  0  0  0  0  0
  -27.4482  -25.1274   22.0344 C   0  0  0  0  0  0
  -30.7743  -16.7423   21.4043 C   0  0  0  0  0  0
  -27.1967  -23.8879   21.1369 C   0  0  0  0  0  0
  -28.5202  -26.1401   21.5476 C   0  0  0  0  0  0
  -26.7065  -19.8259   22.7579 N   0  0  0  0  0  0
  -30.2132  -15.3754   21.3858 N   0  0  0  0  0  0
  -27.8767  -22.6579   21.6206 N   0  3  0  0  0  0
  -31.4550  -12.3424   19.1348 H   0  0  0  0  0  0
  -30.2747  -11.2647   19.7996 H   0  0  0  0  0  0
  -29.7228  -11.8384   17.4003 H   0  0  0  0  0  0
  -29.6793  -13.5300   17.8181 H   0  0  0  0  0  0
  -27.7779  -11.3521   18.7533 H   0  0  0  0  0  0
  -27.3795  -12.7386   17.7804 H   0  0  0  0  0  0
  -27.7104  -14.2716   19.6023 H   0  0  0  0  0  0
  -28.6478  -11.9541   21.3472 H   0  0  0  0  0  0
  -28.4612  -13.5932   21.8831 H   0  0  0  0  0  0
  -25.2819   -9.5647   22.4728 H   0  0  0  0  0  0
  -23.9989   -7.4651   22.7480 H   0  0  0  0  0  0
  -21.0839   -8.8825   19.8980 H   0  0  0  0  0  0
  -22.3760  -10.9680   19.6142 H   0  0  0  0  0  0
  -21.2091   -7.6164   23.9713 H   0  0  0  0  0  0
  -21.1452   -6.0520   25.9053 H   0  0  0  0  0  0
  -22.0607   -2.7610   23.2847 H   0  0  0  0  0  0
  -22.4220  -11.9911   22.4711 H   0  0  0  0  0  0
  -21.1160  -13.1255   22.2675 H   0  0  0  0  0  0
  -24.6731  -15.8535   20.5660 H   0  0  0  0  0  0
  -26.2937  -15.6363   20.1348 H   0  0  0  0  0  0
  -26.7063  -32.5633   23.1216 H   0  0  0  0  0  0
  -25.0010  -33.9797   25.0519 H   0  0  0  0  0  0
  -22.6876  -31.3235   21.4242 H   0  0  0  0  0  0
  -23.3776  -35.9640   23.3361 H   0  0  0  0  0  0
  -24.3597  -36.8877   22.2055 H   0  0  0  0  0  0
  -23.7198  -37.6548   23.6606 H   0  0  0  0  0  0
  -26.0108  -31.6340   20.5946 H   0  0  0  0  0  0
  -26.8073  -30.9192   21.9734 H   0  0  0  0  0  0
  -28.0678  -29.1135   21.2200 H   0  0  0  0  0  0
  -26.0713  -26.0004   19.0092 H   0  0  0  0  0  0
  -23.9832  -27.3404   18.9851 H   0  0  0  0  0  0
  -23.6839  -30.6288   19.4049 H   0  0  0  0  0  0
  -22.7185  -29.2638   19.8638 H   0  0  0  0  0  0
  -25.1261  -36.2086   25.0854 H   0  0  0  0  0  0
  -20.9841  -28.3207   24.1421 H   0  0  0  0  0  0
  -20.6134  -26.2362   23.3578 H   0  0  0  0  0  0
  -21.6605  -26.7751   22.0881 H   0  0  0  0  0  0
  -19.6779  -25.5916   21.1760 H   0  0  0  0  0  0
  -19.6387  -27.2651   20.6682 H   0  0  0  0  0  0
  -17.3997  -26.6305   21.4472 H   0  0  0  0  0  0
  -18.0458  -26.0129   22.9502 H   0  0  0  0  0  0
  -19.7971  -30.7412   24.1814 H   0  0  0  0  0  0
  -17.5062  -31.6410   24.4903 H   0  0  0  0  0  0
  -15.5323  -30.2902   23.7891 H   0  0  0  0  0  0
  -15.8614  -28.0714   22.7399 H   0  0  0  0  0  0
  -24.5952  -30.6915   25.7779 H   0  0  0  0  0  0
  -24.8824  -32.2789   26.4876 H   0  0  0  0  0  0
  -25.8100  -30.8852   27.0217 H   0  0  0  0  0  0
  -26.2738  -29.6849   24.1088 H   0  0  0  0  0  0
  -27.4050  -29.7246   25.4439 H   0  0  0  0  0  0
  -27.8554  -30.4416   23.9092 H   0  0  0  0  0  0
  -27.2749  -33.3563   26.2038 H   0  0  0  0  0  0
  -28.3835  -32.6738   25.0204 H   0  0  0  0  0  0
  -28.0727  -31.8313   26.5313 H   0  0  0  0  0  0
  -28.2619  -38.0082   24.7480 H   0  0  0  0  0  0
  -28.1034  -36.2623   24.6357 H   0  0  0  0  0  0
  -27.2295  -37.1536   25.8873 H   0  0  0  0  0  0
  -20.9189  -29.8809   21.6971 H   0  0  0  0  0  0
  -26.0263  -38.2901   24.1399 H   0  0  0  0  0  0
  -28.2085  -17.1094   24.1145 H   0  0  0  0  0  0
  -29.6990  -19.8495   21.1424 H   0  0  0  0  0  0
  -23.9955  -14.4412   24.7663 H   0  0  0  0  0  0
  -25.5488  -15.2637   24.9189 H   0  0  0  0  0  0
  -24.8203  -15.0172   23.3318 H   0  0  0  0  0  0
  -30.5237  -17.0177   23.5475 H   0  0  0  0  0  0
  -31.2164  -18.3736   22.7279 H   0  0  0  0  0  0
  -25.5544  -19.1374   25.1518 H   0  0  0  0  0  0
  -26.2005  -17.5314   25.1295 H   0  0  0  0  0  0
  -26.3152  -21.4377   20.8408 H   0  0  0  0  0  0
  -27.8440  -21.2617   20.0227 H   0  0  0  0  0  0
  -23.6971  -16.8361   25.5471 H   0  0  0  0  0  0
  -22.8551  -16.4686   24.0752 H   0  0  0  0  0  0
  -24.7871  -17.4616   22.7517 H   0  0  0  0  0  0
  -23.8391  -18.6044   23.6623 H   0  0  0  0  0  0
  -27.6951  -24.7995   23.0464 H   0  0  0  0  0  0
  -26.5045  -25.6629   22.1562 H   0  0  0  0  0  0
  -31.8638  -16.6604   21.4001 H   0  0  0  0  0  0
  -30.5115  -17.2618   20.4844 H   0  0  0  0  0  0
  -27.4450  -24.0955   20.0941 H   0  0  0  0  0  0
  -26.1181  -23.7030   21.1439 H   0  0  0  0  0  0
  -28.5540  -26.9634   22.2649 H   0  0  0  0  0  0
  -29.5111  -25.6897   21.5987 H   0  0  0  0  0  0
  -29.3422  -15.1850   21.8650 H   0  0  0  0  0  0
  -28.8746  -22.7104   21.4790 H   0  0  0  0  0  0
  -27.7083  -22.5581   22.6089 H   0  0  0  0  0  0
  1 25  1  0  0  0
  1 30  2  0  0  0
  1 87  1  0  0  0
  2  3  1  0  0  0
  2 25  1  0  0  0
  2 89  1  0  0  0
  2 90  1  0  0  0
  3  4  1  0  0  0
  3 91  1  0  0  0
  3 92  1  0  0  0
  4  5  1  0  0  0
  4 93  1  0  0  0
  4 94  1  0  0  0
  5  6  1  0  0  0
  5 26  1  0  0  0
  5 95  1  0  0  0
  6 25  1  0  0  0
  6 96  1  0  0  0
  6 97  1  0  0  0
  7  8  2  0  0  0
  7 26  1  0  0  0
  7 29  1  0  0  0
  8  9  1  0  0  0
  8 22  1  0  0  0
  9 10  1  0  0  0
  9 27  2  0  0  0
 10 11  2  0  0  0
 10 15  1  0  0  0
 11 12  1  0  0  0
 11 98  1  0  0  0
 12 13  2  0  0  0
 12 99  1  0  0  0
 13 14  1  0  0  0
 13 31  1  0  0  0
 14 15  2  0  0  0
 14100  1  0  0  0
 15101  1  0  0  0
 16 17  2  0  0  0
 16 21  1  0  0  0
 16 31  1  0  0  0
 17 18  1  0  0  0
 17102  1  0  0  0
 18 19  2  0  0  0
 18103  1  0  0  0
 19 20  1  0  0  0
 19 24  1  0  0  0
 20 21  2  0  0  0
 20104  1  0  0  0
 21 23  1  0  0  0
 22 28  1  0  0  0
 22 32  2  0  0  0
 26 27  1  0  0  0
 28105  1  0  0  0
 28106  1  0  0  0
 29107  1  0  0  0
 29108  1  0  0  0
 33 34  1  0  0  0
 33 66  1  0  0  0
 33 70  2  0  0  0
 34 36  1  0  0  0
 34 59  1  0  0  0
 34109  1  0  0  0
 35 44  2  0  0  0
 35 45  1  0  0  0
 35 68  1  0  0  0
 36 56  1  0  0  0
 36110  1  0  0  0
 37 39  1  0  0  0
 37 47  1  0  0  0
 37 66  1  0  0  0
 37111  1  0  0  0
 38 43  2  0  0  0
 38 46  1  0  0  0
 38 47  1  0  0  0
 39 64  1  0  0  0
 39 67  2  0  0  0
 40 52  1  0  0  0
 40 53  2  0  0  0
 40 58  1  0  0  0
 41112  1  0  0  0
 41113  1  0  0  0
 41114  1  0  0  0
 41 48  1  0  0  0
 42 43  1  0  0  0
 42 66  1  0  0  0
 42115  1  0  0  0
 42116  1  0  0  0
 43 44  1  0  0  0
 44117  1  0  0  0
 45 46  2  0  0  0
 45118  1  0  0  0
 46119  1  0  0  0
 47120  1  0  0  0
 47121  1  0  0  0
 48 56  1  0  0  0
 48 65  1  0  0  0
 48122  1  0  0  0
 49 50  1  0  0  0
 49 53  1  0  0  0
 49 64  1  0  0  0
 49123  1  0  0  0
 50 51  1  0  0  0
 50124  1  0  0  0
 50125  1  0  0  0
 51 52  1  0  0  0
 51126  1  0  0  0
 51127  1  0  0  0
 52128  1  0  0  0
 52129  1  0  0  0
 53 54  1  0  0  0
 54 55  2  0  0  0
 54130  1  0  0  0
 55 57  1  0  0  0
 55131  1  0  0  0
 56 69  2  0  0  0
 57 58  2  0  0  0
 57132  1  0  0  0
 58133  1  0  0  0
 59 60  1  0  0  0
 59 61  1  0  0  0
 59 62  1  0  0  0
 60134  1  0  0  0
 60135  1  0  0  0
 60136  1  0  0  0
 61137  1  0  0  0
 61138  1  0  0  0
 61139  1  0  0  0
 62140  1  0  0  0
 62141  1  0  0  0
 62142  1  0  0  0
 63 65  1  0  0  0
 63143  1  0  0  0
 63144  1  0  0  0
 63145  1  0  0  0
 64146  1  0  0  0
 65147  1  0  0  0
 68 85  1  0  0  0
 71 73  2  0  0  0
 71 74  1  0  0  0
 71148  1  0  0  0
 72 73  1  0  0  0
 72 75  2  0  0  0
 72149  1  0  0  0
 73 77  1  0  0  0
 74 78  1  0  0  0
 74 86  2  0  0  0
 75 79  1  0  0  0
 75 86  1  0  0  0
 76 80  1  0  0  0
 76150  1  0  0  0
 76151  1  0  0  0
 76152  1  0  0  0
 77 83  1  0  0  0
 77153  1  0  0  0
 77154  1  0  0  0
 78 81  1  0  0  0
 78155  1  0  0  0
 78156  1  0  0  0
 79 88  1  0  0  0
 79157  1  0  0  0
 79158  1  0  0  0
 80 81  1  0  0  0
 80159  1  0  0  0
 80160  1  0  0  0
 81161  1  0  0  0
 81162  1  0  0  0
 82 84  1  0  0  0
 82 85  1  0  0  0
 82163  1  0  0  0
 82164  1  0  0  0
 83 87  1  0  0  0
 83165  1  0  0  0
 83166  1  0  0  0
 84 88  1  0  0  0
 84167  1  0  0  0
 84168  1  0  0  0
 85169  1  0  0  0
 85170  1  0  0  0
 87171  1  0  0  0
 88172  1  0  0  0
 88173  1  0  0  0
M  CHG  1  88   1
M  ISO  4   1 100  68 101  85 101  87 100
M  END
> <chiral flag>
0

> <version>
0

> <s_m_source_file>
/data/baiqing/PycharmProjects/Reinvent-master-3.2/result/LINK_invent/BTK/process_docking_weight1_custom_sum_contain_oxygen_bond_distance_aromatic_linkinvent_7_9_3/rearranged_h_0035.sdf

> <i_m_source_file_index>
90

> <r_mmod_Potential_Energy-OPLS-2005>
-444.993011474609

> <r_mmod_Stretch_Energy-OPLS-2005>
35.2755355834961

> <r_mmod_Bend_Energy-OPLS-2005>
102.124794006348

> <r_mmod_Torsional_Energy-OPLS-2005>
245.395706176758

> <r_mmod_Improper_Torsional_Energy-OPLS-2005>
2.57591938972473

> <r_mmod_Van_der_Waal_Energy-OPLS-2005>
138.509918212891

> <r_mmod_Electrostatic_Energy-OPLS-2005>
-525.353942871094

> <r_mmod_Solvation_Energy-OPLS-2005>
-457.831787109375

> <b_mmod_Minimization_Converged-OPLS-2005>
0

> <r_mmod_RMS_Derivative-OPLS-2005>
6.12914705276489

$$$$
90
                    3D
 Structure written by MMmdl.
175184  0  0  1  0            999 V2000
  -30.7316  -14.5444   20.5213 C   0  0  0  0  0  0
  -30.3994  -12.3440   19.4537 C   0  0  0  0  0  0
  -29.5018  -12.5169   18.2174 C   0  0  0  0  0  0
  -28.0157  -12.3932   18.6072 C   0  0  0  0  0  0
  -27.6482  -13.2408   19.8556 C   0  0  2  0  0  0
  -28.6889  -13.1038   20.9878 C   0  0  0  0  0  0
  -25.2513  -13.8234   20.5662 C   0  0  0  0  0  0
  -24.1821  -13.0448   20.9163 C   0  0  0  0  0  0
  -24.6429  -11.6927   20.8697 C   0  0  0  0  0  0
  -23.9124  -10.4286   21.0359 C   0  0  0  0  0  0
  -24.3685   -9.4204   21.9132 C   0  0  0  0  0  0
  -23.6334   -8.2246   22.0705 C   0  0  0  0  0  0
  -22.4290   -8.0294   21.3519 C   0  0  0  0  0  0
  -21.9951   -9.0262   20.4612 C   0  0  0  0  0  0
  -22.7294  -10.2126   20.3009 C   0  0  0  0  0  0
  -21.6868   -6.0750   22.5256 C   0  0  0  0  0  0
  -21.4033   -6.5635   23.8197 C   0  0  0  0  0  0
  -21.3681   -5.6783   24.9147 C   0  0  0  0  0  0
  -21.6046   -4.3043   24.7206 C   0  0  0  0  0  0
  -21.8837   -3.8143   23.4324 C   0  0  0  0  0  0
  -21.9208   -4.6969   22.3390 C   0  0  0  0  0  0
  -22.7822  -13.5193   21.1872 C   0  0  0  0  0  0
  -22.1662   -4.2166   21.0958 F   0  0  0  0  0  0
  -21.5635   -3.4526   25.7720 F   0  0  0  0  0  0
  -30.0138  -13.3881   20.4224 N   0  0  0  0  0  0
  -26.2977  -12.9476   20.3251 N   0  0  0  0  0  0
  -25.9360  -11.6608   20.5701 N   0  0  0  0  0  0
  -22.0500  -12.8154   22.0428 N   0  0  0  0  0  0
  -25.4161  -15.1983   20.4091 N   0  0  0  0  0  0
  -31.8951  -14.6042   20.1203 O   0  0  0  0  0  0
  -21.6635   -6.8898   21.4220 O   0  0  0  0  0  0
  -22.3511  -14.5501   20.6704 O   0  0  0  0  0  0
  -24.6204  -31.8671   23.2071 C   0  0  0  0  0  0
  -25.9067  -32.4849   23.8389 C   0  0  1  0  0  0
  -27.2335  -27.3588   20.1105 C   0  0  0  0  0  0
  -25.5955  -33.8660   24.2308 N   0  0  0  0  0  0
  -23.4131  -30.4916   21.5506 C   0  0  2  0  0  0
  -24.8591  -28.9549   20.1166 C   0  0  0  0  0  0
  -22.7445  -29.4667   22.4975 C   0  0  0  0  0  0
  -18.0290  -28.1374   22.8504 C   0  0  0  0  0  0
  -24.1468  -36.7295   23.2650 C   0  0  0  0  0  0
  -25.9535  -30.8071   21.3754 C   0  0  0  0  0  0
  -26.0286  -29.4403   20.7131 C   0  0  0  0  0  0
  -27.2179  -28.6574   20.6977 C   0  0  0  0  0  0
  -26.0299  -26.9121   19.5074 C   0  0  0  0  0  0
  -24.8604  -27.6945   19.5076 C   0  0  0  0  0  0
  -23.6228  -29.8289   20.1636 C   0  0  0  0  0  0
  -25.4146  -36.3142   24.0308 C   0  0  1  0  0  0
  -20.5884  -28.3688   23.1290 C   0  0  2  0  0  0
  -20.6780  -26.9413   22.5428 C   0  0  0  0  0  0
  -19.5756  -26.6369   21.5233 C   0  0  0  0  0  0
  -18.1931  -26.7918   22.1628 C   0  0  0  0  0  0
  -19.1536  -28.8853   23.2891 C   0  0  0  0  0  0
  -18.9467  -30.1451   23.8917 C   0  0  0  0  0  0
  -17.6464  -30.6576   24.0579 C   0  0  0  0  0  0
  -25.9080  -34.9501   23.5097 C   0  0  0  0  0  0
  -16.5355  -29.9076   23.6336 C   0  0  0  0  0  0
  -16.7277  -28.6489   23.0377 C   0  0  0  0  0  0
  -26.4462  -31.6689   25.0775 C   0  0  0  0  0  0
  -25.3762  -31.3934   26.1587 C   0  0  0  0  0  0
  -27.0118  -30.3051   24.6305 C   0  0  0  0  0  0
  -27.6126  -32.4410   25.7423 C   0  0  0  0  0  0
  -27.5603  -37.1844   24.8467 C   0  0  0  0  0  0
  -21.4169  -29.3029   22.3669 N   0  0  0  0  0  0
  -26.4328  -37.3853   23.9378 N   0  0  0  0  0  0
  -24.6811  -31.0717   22.1004 N   0  0  0  0  0  0
  -23.4180  -28.8235   23.3081 O   0  0  0  0  0  0
  -28.3877  -26.5621   20.1321 O   0  0  0  0  0  0
  -26.5625  -34.8931   22.4646 O   0  0  0  0  0  0
  -23.5382  -32.1490   23.7405 O   0  0  0  0  0  0
  -31.8260  -23.0795   23.3100 C   0  0  0  0  0  0
  -30.7875  -24.6974   21.8394 C   0  0  0  0  0  0
  -31.2875  -22.0327   22.5433 C   0  0  0  0  0  0
  -30.4969  -22.2854   21.3918 C   0  0  0  0  0  0
  -31.5997  -24.4161   22.9525 C   0  0  0  0  0  0
  -30.2231  -23.6669   21.0511 C   0  0  0  0  0  0
  -31.6408  -20.6133   22.9276 C   0  0  0  0  0  0
  -30.0042  -21.0427   20.5854 C   0  0  0  0  0  0
  -32.0218  -19.8265   21.6806 C   0  0  0  0  0  0
  -30.8185  -19.6797   20.7249 C   0  0  1  0  0  0
  -29.9155  -28.5023   24.7311 C   0  0  0  0  0  0
  -32.2772  -25.5270   23.7407 C   0  0  0  0  0  0
  -29.4492  -24.1480   19.8052 C   0  0  0  0  0  0
  -29.9887  -18.3584   21.0100 C   0  0  0  0  0  0
  -30.9416  -27.6901   23.9350 C   0  0  0  0  0  0
  -31.3018  -26.3521   24.5967 C   0  0  0  0  0  0
  -30.7995  -17.0185   20.8213 C   0  0  0  0  0  0
  -28.2167  -25.1128   19.9785 C   0  0  0  0  0  0
  -30.1015  -15.6957   20.8885 N   0  0  0  0  0  0
  -31.4459  -12.4000   19.1627 H   0  0  0  0  0  0
  -30.2675  -11.3512   19.8890 H   0  0  0  0  0  0
  -29.7495  -11.7716   17.4594 H   0  0  0  0  0  0
  -29.6912  -13.4909   17.7623 H   0  0  0  0  0  0
  -27.8007  -11.3390   18.7869 H   0  0  0  0  0  0
  -27.3912  -12.6914   17.7631 H   0  0  0  0  0  0
  -27.6629  -14.2810   19.5324 H   0  0  0  0  0  0
  -28.6719  -12.0964   21.4038 H   0  0  0  0  0  0
  -28.4548  -13.7840   21.8080 H   0  0  0  0  0  0
  -25.2837   -9.5689   22.4692 H   0  0  0  0  0  0
  -24.0057   -7.4646   22.7414 H   0  0  0  0  0  0
  -21.0888   -8.8810   19.8918 H   0  0  0  0  0  0
  -22.3767  -10.9672   19.6117 H   0  0  0  0  0  0
  -21.1998   -7.6132   23.9749 H   0  0  0  0  0  0
  -21.1482   -6.0456   25.9072 H   0  0  0  0  0  0
  -22.0592   -2.7608   23.2809 H   0  0  0  0  0  0
  -22.4161  -11.9841   22.4838 H   0  0  0  0  0  0
  -21.1091  -13.1101   22.2614 H   0  0  0  0  0  0
  -24.6454  -15.8488   20.5132 H   0  0  0  0  0  0
  -26.2698  -15.6431   20.0968 H   0  0  0  0  0  0
  -26.7148  -32.5482   23.1148 H   0  0  0  0  0  0
  -25.0197  -33.9873   25.0510 H   0  0  0  0  0  0
  -22.7096  -31.3147   21.4111 H   0  0  0  0  0  0
  -23.3797  -35.9568   23.3343 H   0  0  0  0  0  0
  -24.3513  -36.8905   22.2061 H   0  0  0  0  0  0
  -23.7156  -37.6457   23.6683 H   0  0  0  0  0  0
  -26.0922  -31.5755   20.6140 H   0  0  0  0  0  0
  -26.8315  -30.8459   22.0093 H   0  0  0  0  0  0
  -28.1156  -29.0370   21.1673 H   0  0  0  0  0  0
  -25.9402  -25.9521   19.0238 H   0  0  0  0  0  0
  -23.9632  -27.3199   19.0363 H   0  0  0  0  0  0
  -23.7341  -30.6084   19.4077 H   0  0  0  0  0  0
  -22.7431  -29.2525   19.8654 H   0  0  0  0  0  0
  -25.1349  -36.2015   25.0820 H   0  0  0  0  0  0
  -21.0015  -28.3270   24.1393 H   0  0  0  0  0  0
  -20.5706  -26.2315   23.3644 H   0  0  0  0  0  0
  -21.6654  -26.7446   22.1219 H   0  0  0  0  0  0
  -19.6911  -25.6285   21.1267 H   0  0  0  0  0  0
  -19.6661  -27.3182   20.6761 H   0  0  0  0  0  0
  -17.4222  -26.6724   21.3997 H   0  0  0  0  0  0
  -18.0278  -26.0034   22.8986 H   0  0  0  0  0  0
  -19.7941  -30.7266   24.2284 H   0  0  0  0  0  0
  -17.5012  -31.6273   24.5158 H   0  0  0  0  0  0
  -15.5366  -30.2991   23.7617 H   0  0  0  0  0  0
  -15.8680  -28.0783   22.7112 H   0  0  0  0  0  0
  -24.5835  -30.7360   25.8021 H   0  0  0  0  0  0
  -24.9083  -32.3150   26.5034 H   0  0  0  0  0  0
  -25.8139  -30.9137   27.0335 H   0  0  0  0  0  0
  -26.2506  -29.6646   24.1830 H   0  0  0  0  0  0
  -27.4190  -29.7571   25.4812 H   0  0  0  0  0  0
  -27.8204  -30.4246   23.9123 H   0  0  0  0  0  0
  -27.2796  -33.3695   26.2075 H   0  0  0  0  0  0
  -28.3860  -32.6987   25.0172 H   0  0  0  0  0  0
  -28.0874  -31.8503   26.5256 H   0  0  0  0  0  0
  -28.2666  -38.0112   24.7559 H   0  0  0  0  0  0
  -28.1057  -36.2652   24.6279 H   0  0  0  0  0  0
  -27.2281  -37.1467   25.8857 H   0  0  0  0  0  0
  -20.9352  -29.8662   21.6803 H   0  0  0  0  0  0
  -26.0202  -38.2924   24.1388 H   0  0  0  0  0  0
  -32.4546  -22.8562   24.1603 H   0  0  0  0  0  0
  -30.6225  -25.7287   21.5602 H   0  0  0  0  0  0
  -30.7963  -20.1543   23.4412 H   0  0  0  0  0  0
  -32.4721  -20.6075   23.6357 H   0  0  0  0  0  0
  -30.0014  -21.2995   19.5285 H   0  0  0  0  0  0
  -28.9614  -20.8740   20.8524 H   0  0  0  0  0  0
  -32.4529  -18.8720   21.9726 H   0  0  0  0  0  0
  -32.8281  -20.3508   21.1660 H   0  0  0  0  0  0
  -31.2600  -19.5144   19.7396 H   0  0  0  0  0  0
  -29.8759  -29.5265   24.3614 H   0  0  0  0  0  0
  -30.1709  -28.5540   25.7896 H   0  0  0  0  0  0
  -28.9165  -28.0719   24.6386 H   0  0  0  0  0  0
  -32.8257  -26.1694   23.0496 H   0  0  0  0  0  0
  -33.0415  -25.0886   24.3865 H   0  0  0  0  0  0
  -29.0929  -23.2696   19.2710 H   0  0  0  0  0  0
  -30.1635  -24.6120   19.1248 H   0  0  0  0  0  0
  -29.1254  -18.3449   20.3436 H   0  0  0  0  0  0
  -29.5859  -18.4031   22.0223 H   0  0  0  0  0  0
  -31.8525  -28.2790   23.8201 H   0  0  0  0  0  0
  -30.5546  -27.5177   22.9312 H   0  0  0  0  0  0
  -31.7799  -26.5791   25.5505 H   0  0  0  0  0  0
  -30.4113  -25.7700   24.8402 H   0  0  0  0  0  0
  -31.5831  -16.9674   21.5743 H   0  0  0  0  0  0
  -31.3125  -17.0870   19.8607 H   0  0  0  0  0  0
  -27.5656  -24.7363   20.7684 H   0  0  0  0  0  0
  -27.6954  -24.9542   19.0368 H   0  0  0  0  0  0
  -29.1300  -15.6535   21.1649 H   0  0  0  0  0  0
  1 25  1  0  0  0
  1 30  2  0  0  0
  1 89  1  0  0  0
  2  3  1  0  0  0
  2 25  1  0  0  0
  2 90  1  0  0  0
  2 91  1  0  0  0
  3  4  1  0  0  0
  3 92  1  0  0  0
  3 93  1  0  0  0
  4  5  1  0  0  0
  4 94  1  0  0  0
  4 95  1  0  0  0
  5  6  1  0  0  0
  5 26  1  0  0  0
  5 96  1  0  0  0
  6 25  1  0  0  0
  6 97  1  0  0  0
  6 98  1  0  0  0
  7  8  2  0  0  0
  7 26  1  0  0  0
  7 29  1  0  0  0
  8  9  1  0  0  0
  8 22  1  0  0  0
  9 10  1  0  0  0
  9 27  2  0  0  0
 10 11  2  0  0  0
 10 15  1  0  0  0
 11 12  1  0  0  0
 11 99  1  0  0  0
 12 13  2  0  0  0
 12100  1  0  0  0
 13 14  1  0  0  0
 13 31  1  0  0  0
 14 15  2  0  0  0
 14101  1  0  0  0
 15102  1  0  0  0
 16 17  2  0  0  0
 16 21  1  0  0  0
 16 31  1  0  0  0
 17 18  1  0  0  0
 17103  1  0  0  0
 18 19  2  0  0  0
 18104  1  0  0  0
 19 20  1  0  0  0
 19 24  1  0  0  0
 20 21  2  0  0  0
 20105  1  0  0  0
 21 23  1  0  0  0
 22 28  1  0  0  0
 22 32  2  0  0  0
 26 27  1  0  0  0
 28106  1  0  0  0
 28107  1  0  0  0
 29108  1  0  0  0
 29109  1  0  0  0
 33 34  1  0  0  0
 33 66  1  0  0  0
 33 70  2  0  0  0
 34 36  1  0  0  0
 34 59  1  0  0  0
 34110  1  0  0  0
 35 44  2  0  0  0
 35 45  1  0  0  0
 35 68  1  0  0  0
 36 56  1  0  0  0
 36111  1  0  0  0
 37 39  1  0  0  0
 37 47  1  0  0  0
 37 66  1  0  0  0
 37112  1  0  0  0
 38 43  2  0  0  0
 38 46  1  0  0  0
 38 47  1  0  0  0
 39 64  1  0  0  0
 39 67  2  0  0  0
 40 52  1  0  0  0
 40 53  2  0  0  0
 40 58  1  0  0  0
 41113  1  0  0  0
 41114  1  0  0  0
 41115  1  0  0  0
 41 48  1  0  0  0
 42 43  1  0  0  0
 42 66  1  0  0  0
 42116  1  0  0  0
 42117  1  0  0  0
 43 44  1  0  0  0
 44118  1  0  0  0
 45 46  2  0  0  0
 45119  1  0  0  0
 46120  1  0  0  0
 47121  1  0  0  0
 47122  1  0  0  0
 48 56  1  0  0  0
 48 65  1  0  0  0
 48123  1  0  0  0
 49 50  1  0  0  0
 49 53  1  0  0  0
 49 64  1  0  0  0
 49124  1  0  0  0
 50 51  1  0  0  0
 50125  1  0  0  0
 50126  1  0  0  0
 51 52  1  0  0  0
 51127  1  0  0  0
 51128  1  0  0  0
 52129  1  0  0  0
 52130  1  0  0  0
 53 54  1  0  0  0
 54 55  2  0  0  0
 54131  1  0  0  0
 55 57  1  0  0  0
 55132  1  0  0  0
 56 69  2  0  0  0
 57 58  2  0  0  0
 57133  1  0  0  0
 58134  1  0  0  0
 59 60  1  0  0  0
 59 61  1  0  0  0
 59 62  1  0  0  0
 60135  1  0  0  0
 60136  1  0  0  0
 60137  1  0  0  0
 61138  1  0  0  0
 61139  1  0  0  0
 61140  1  0  0  0
 62141  1  0  0  0
 62142  1  0  0  0
 62143  1  0  0  0
 63 65  1  0  0  0
 63144  1  0  0  0
 63145  1  0  0  0
 63146  1  0  0  0
 64147  1  0  0  0
 65148  1  0  0  0
 68 88  1  0  0  0
 71 73  2  0  0  0
 71 75  1  0  0  0
 71149  1  0  0  0
 72 75  2  0  0  0
 72 76  1  0  0  0
 72150  1  0  0  0
 73 74  1  0  0  0
 73 77  1  0  0  0
 74 76  2  0  0  0
 74 78  1  0  0  0
 75 82  1  0  0  0
 76 83  1  0  0  0
 77 79  1  0  0  0
 77151  1  0  0  0
 77152  1  0  0  0
 78 80  1  0  0  0
 78153  1  0  0  0
 78154  1  0  0  0
 79 80  1  0  0  0
 79155  1  0  0  0
 79156  1  0  0  0
 80 84  1  0  0  0
 80157  1  0  0  0
 81 85  1  0  0  0
 81158  1  0  0  0
 81159  1  0  0  0
 81160  1  0  0  0
 82 86  1  0  0  0
 82161  1  0  0  0
 82162  1  0  0  0
 83 88  1  0  0  0
 83163  1  0  0  0
 83164  1  0  0  0
 84 87  1  0  0  0
 84165  1  0  0  0
 84166  1  0  0  0
 85 86  1  0  0  0
 85167  1  0  0  0
 85168  1  0  0  0
 86169  1  0  0  0
 86170  1  0  0  0
 87 89  1  0  0  0
 87171  1  0  0  0
 87172  1  0  0  0
 88173  1  0  0  0
 88174  1  0  0  0
 89175  1  0  0  0
M  ISO  4   1 100  68 101  88 101  89 100
M  END
> <chiral flag>
0

> <version>
0

> <s_m_source_file>
/data/baiqing/PycharmProjects/Reinvent-master-3.2/result/LINK_invent/BTK/process_docking_weight1_custom_sum_contain_oxygen_bond_distance_aromatic_linkinvent_7_9_3/rearranged_h_0035.sdf

> <i_m_source_file_index>
91

> <r_mmod_Potential_Energy-OPLS-2005>
63.382682800293

> <r_mmod_Stretch_Energy-OPLS-2005>
69.7082443237305

> <r_mmod_Bend_Energy-OPLS-2005>
148.755584716797

> <r_mmod_Torsional_Energy-OPLS-2005>
228.875061035156

> <r_mmod_Improper_Torsional_Energy-OPLS-2005>
4.43653059005737

> <r_mmod_Van_der_Waal_Energy-OPLS-2005>
155.977401733398

> <r_mmod_Electrostatic_Energy-OPLS-2005>
-367.877075195312

> <r_mmod_Solvation_Energy-OPLS-2005>
-208.360977172852

> <b_mmod_Minimization_Converged-OPLS-2005>
0

> <r_mmod_RMS_Derivative-OPLS-2005>
4.82998466491699

$$$$
91
                    3D
 Structure written by MMmdl.
168176  0  0  1  0            999 V2000
  -30.6790  -14.5251   20.5779 C   0  0  0  0  0  0
  -30.4311  -12.3403   19.4645 C   0  0  0  0  0  0
  -29.5100  -12.5216   18.2392 C   0  0  0  0  0  0
  -28.0301  -12.3636   18.6401 C   0  0  0  0  0  0
  -27.6616  -13.2125   19.8842 C   0  0  2  0  0  0
  -28.6943  -13.0271   21.0213 C   0  0  0  0  0  0
  -25.2562  -13.8160   20.5670 C   0  0  0  0  0  0
  -24.1808  -13.0448   20.9120 C   0  0  0  0  0  0
  -24.6354  -11.6901   20.8697 C   0  0  0  0  0  0
  -23.9023  -10.4301   21.0347 C   0  0  0  0  0  0
  -24.3572   -9.4228   21.9129 C   0  0  0  0  0  0
  -23.6266   -8.2263   22.0709 C   0  0  0  0  0  0
  -22.4249   -8.0264   21.3515 C   0  0  0  0  0  0
  -21.9885   -9.0233   20.4621 C   0  0  0  0  0  0
  -22.7185  -10.2124   20.3029 C   0  0  0  0  0  0
  -21.6857   -6.0714   22.5245 C   0  0  0  0  0  0
  -21.4017   -6.5615   23.8175 C   0  0  0  0  0  0
  -21.3692   -5.6761   24.9143 C   0  0  0  0  0  0
  -21.6049   -4.3022   24.7194 C   0  0  0  0  0  0
  -21.8835   -3.8124   23.4317 C   0  0  0  0  0  0
  -21.9199   -4.6949   22.3370 C   0  0  0  0  0  0
  -22.7829  -13.5233   21.1820 C   0  0  0  0  0  0
  -22.1654   -4.2131   21.0950 F   0  0  0  0  0  0
  -21.5664   -3.4514   25.7721 F   0  0  0  0  0  0
  -30.0295  -13.3293   20.4809 N   0  0  0  0  0  0
  -26.3004  -12.9346   20.3379 N   0  0  0  0  0  0
  -25.9294  -11.6501   20.5772 N   0  0  0  0  0  0
  -22.0488  -12.8235   22.0395 N   0  0  0  0  0  0
  -25.4394  -15.1888   20.4123 N   0  0  0  0  0  0
  -31.8017  -14.7014   20.0918 O   0  0  0  0  0  0
  -21.6630   -6.8857   21.4199 O   0  0  0  0  0  0
  -22.3521  -14.5561   20.6679 O   0  0  0  0  0  0
  -24.6160  -31.8643   23.2005 C   0  0  0  0  0  0
  -25.9026  -32.4821   23.8304 C   0  0  1  0  0  0
  -27.2301  -27.3779   20.1000 C   0  0  0  0  0  0
  -25.5865  -33.8608   24.2215 N   0  0  0  0  0  0
  -23.4042  -30.4871   21.5399 C   0  0  2  0  0  0
  -24.8490  -28.9450   20.1033 C   0  0  0  0  0  0
  -22.7391  -29.4653   22.4915 C   0  0  0  0  0  0
  -18.0272  -28.1428   22.8457 C   0  0  0  0  0  0
  -24.1476  -36.7284   23.2646 C   0  0  0  0  0  0
  -25.9397  -30.8070   21.3655 C   0  0  0  0  0  0
  -26.0091  -29.4392   20.7080 C   0  0  0  0  0  0
  -27.1988  -28.6649   20.7021 C   0  0  0  0  0  0
  -26.0466  -26.9095   19.4828 C   0  0  0  0  0  0
  -24.8679  -27.6827   19.4823 C   0  0  0  0  0  0
  -23.6094  -29.8146   20.1561 C   0  0  0  0  0  0
  -25.4117  -36.3106   24.0323 C   0  0  1  0  0  0
  -20.5856  -28.3682   23.1283 C   0  0  2  0  0  0
  -20.6765  -26.9414   22.5402 C   0  0  0  0  0  0
  -19.5746  -26.6397   21.5207 C   0  0  0  0  0  0
  -18.1925  -26.7960   22.1616 C   0  0  0  0  0  0
  -19.1524  -28.8868   23.2873 C   0  0  0  0  0  0
  -18.9481  -30.1495   23.8854 C   0  0  0  0  0  0
  -17.6483  -30.6610   24.0589 C   0  0  0  0  0  0
  -25.9059  -34.9479   23.5067 C   0  0  0  0  0  0
  -16.5366  -29.9120   23.6367 C   0  0  0  0  0  0
  -16.7267  -28.6569   23.0320 C   0  0  0  0  0  0
  -26.4423  -31.6705   25.0715 C   0  0  0  0  0  0
  -25.3702  -31.3940   26.1509 C   0  0  0  0  0  0
  -27.0257  -30.3128   24.6183 C   0  0  0  0  0  0
  -27.5943  -32.4498   25.7477 C   0  0  0  0  0  0
  -27.5584  -37.1780   24.8446 C   0  0  0  0  0  0
  -21.4111  -29.3057   22.3672 N   0  0  0  0  0  0
  -26.4277  -37.3825   23.9430 N   0  0  0  0  0  0
  -24.6705  -31.0736   22.0900 N   0  0  0  0  0  0
  -23.4149  -28.8215   23.2973 O   0  0  0  0  0  0
  -28.4057  -26.6345   20.1487 O   0  0  0  0  0  0
  -26.5676  -34.8936   22.4674 O   0  0  0  0  0  0
  -23.5346  -32.1375   23.7398 O   0  0  0  0  0  0
  -30.6053  -22.1491   20.1008 C   0  0  0  0  0  0
  -29.0633  -20.4092   20.7724 C   0  0  0  0  0  0
  -29.2783  -21.7304   20.2997 C   0  0  0  0  0  0
  -31.7031  -21.3089   20.4071 C   0  0  0  0  0  0
  -30.1389  -19.5312   21.0877 C   0  0  0  0  0  0
  -31.4763  -20.0098   20.9581 C   0  0  0  0  0  0
  -33.2356  -22.5262   18.7595 C   0  0  0  0  0  0
  -33.0238  -19.6042   22.9189 C   0  0  0  0  0  0
  -28.0906  -22.6577   19.9464 C   0  0  0  0  0  0
  -33.1062  -21.8550   20.1343 C   0  0  0  0  0  0
  -29.8303  -18.0991   21.5993 C   0  0  0  0  0  0
  -32.6460  -19.1720   21.4962 C   0  0  0  0  0  0
  -28.0545  -24.1118   20.5452 C   0  0  0  0  0  0
  -30.0864  -16.9671   20.5542 C   0  0  0  0  0  0
  -28.5023  -25.2860   19.6090 C   0  0  0  0  0  0
  -29.9471  -15.5691   21.0388 N   0  0  0  0  0  0
  -31.4759  -12.4506   19.1708 H   0  0  0  0  0  0
  -30.3458  -11.3327   19.8699 H   0  0  0  0  0  0
  -29.7691  -11.8020   17.4634 H   0  0  0  0  0  0
  -29.6691  -13.5113   17.8069 H   0  0  0  0  0  0
  -27.8519  -11.3071   18.8455 H   0  0  0  0  0  0
  -27.3834  -12.6245   17.8029 H   0  0  0  0  0  0
  -27.6988  -14.2572   19.5706 H   0  0  0  0  0  0
  -28.6715  -12.0041   21.4009 H   0  0  0  0  0  0
  -28.4394  -13.6613   21.8728 H   0  0  0  0  0  0
  -25.2718   -9.5711   22.4685 H   0  0  0  0  0  0
  -23.9980   -7.4674   22.7421 H   0  0  0  0  0  0
  -21.0826   -8.8729   19.8934 H   0  0  0  0  0  0
  -22.3603  -10.9648   19.6143 H   0  0  0  0  0  0
  -21.1991   -7.6119   23.9678 H   0  0  0  0  0  0
  -21.1504   -6.0482   25.9042 H   0  0  0  0  0  0
  -22.0600   -2.7586   23.2804 H   0  0  0  0  0  0
  -22.4091  -11.9901   22.4804 H   0  0  0  0  0  0
  -21.1120  -13.1284   22.2624 H   0  0  0  0  0  0
  -24.6871  -15.8617   20.5156 H   0  0  0  0  0  0
  -26.3215  -15.6190   20.1669 H   0  0  0  0  0  0
  -26.7066  -32.5440   23.1021 H   0  0  0  0  0  0
  -25.0028  -33.9779   25.0352 H   0  0  0  0  0  0
  -22.6971  -31.3072   21.4011 H   0  0  0  0  0  0
  -23.3789  -35.9571   23.3303 H   0  0  0  0  0  0
  -24.3543  -36.8926   22.2065 H   0  0  0  0  0  0
  -23.7159  -37.6444   23.6680 H   0  0  0  0  0  0
  -26.0821  -31.5691   20.5983 H   0  0  0  0  0  0
  -26.8144  -30.8354   22.0030 H   0  0  0  0  0  0
  -28.0896  -29.0506   21.1777 H   0  0  0  0  0  0
  -26.0042  -25.9472   18.9964 H   0  0  0  0  0  0
  -23.9814  -27.2981   18.9999 H   0  0  0  0  0  0
  -23.7042  -30.5847   19.3892 H   0  0  0  0  0  0
  -22.7296  -29.2320   19.8765 H   0  0  0  0  0  0
  -25.1312  -36.1941   25.0823 H   0  0  0  0  0  0
  -20.9966  -28.3277   24.1402 H   0  0  0  0  0  0
  -20.5670  -26.2303   23.3612 H   0  0  0  0  0  0
  -21.6640  -26.7470   22.1203 H   0  0  0  0  0  0
  -19.6902  -25.6309   21.1250 H   0  0  0  0  0  0
  -19.6701  -27.3201   20.6743 H   0  0  0  0  0  0
  -17.4199  -26.6697   21.4031 H   0  0  0  0  0  0
  -18.0327  -26.0135   22.9044 H   0  0  0  0  0  0
  -19.7966  -30.7349   24.2134 H   0  0  0  0  0  0
  -17.5059  -31.6262   24.5258 H   0  0  0  0  0  0
  -15.5376  -30.3039   23.7724 H   0  0  0  0  0  0
  -15.8666  -28.0940   22.6982 H   0  0  0  0  0  0
  -24.5670  -30.7534   25.7883 H   0  0  0  0  0  0
  -24.9180  -32.3209   26.5063 H   0  0  0  0  0  0
  -25.8018  -30.8977   27.0206 H   0  0  0  0  0  0
  -26.2812  -29.6897   24.1227 H   0  0  0  0  0  0
  -27.3999  -29.7390   25.4664 H   0  0  0  0  0  0
  -27.8645  -30.4468   23.9354 H   0  0  0  0  0  0
  -27.2485  -33.3795   26.2000 H   0  0  0  0  0  0
  -28.3751  -32.7101   25.0334 H   0  0  0  0  0  0
  -28.0593  -31.8713   26.5465 H   0  0  0  0  0  0
  -28.2586  -38.0108   24.7641 H   0  0  0  0  0  0
  -28.1110  -36.2660   24.6115 H   0  0  0  0  0  0
  -27.2320  -37.1248   25.8849 H   0  0  0  0  0  0
  -20.9258  -29.8789   21.6916 H   0  0  0  0  0  0
  -26.0154  -38.2880   24.1533 H   0  0  0  0  0  0
  -30.7826  -23.1369   19.7081 H   0  0  0  0  0  0
  -28.0467  -20.0667   20.9061 H   0  0  0  0  0  0
  -34.2842  -22.6922   18.5166 H   0  0  0  0  0  0
  -32.7380  -23.4951   18.7249 H   0  0  0  0  0  0
  -32.8085  -21.8947   17.9801 H   0  0  0  0  0  0
  -33.8285  -18.9859   23.3181 H   0  0  0  0  0  0
  -32.1662  -19.4986   23.5845 H   0  0  0  0  0  0
  -33.3445  -20.6459   22.9696 H   0  0  0  0  0  0
  -27.1948  -22.1387   20.2947 H   0  0  0  0  0  0
  -27.9811  -22.6927   18.8634 H   0  0  0  0  0  0
  -33.8703  -21.0842   20.1680 H   0  0  0  0  0  0
  -33.3686  -22.5657   20.9185 H   0  0  0  0  0  0
  -28.7836  -18.0657   21.9048 H   0  0  0  0  0  0
  -30.3970  -17.9110   22.5120 H   0  0  0  0  0  0
  -33.5096  -19.1924   20.8357 H   0  0  0  0  0  0
  -32.4075  -18.1128   21.5287 H   0  0  0  0  0  0
  -28.5906  -24.1279   21.4928 H   0  0  0  0  0  0
  -27.0171  -24.3243   20.8079 H   0  0  0  0  0  0
  -31.0594  -17.1081   20.0834 H   0  0  0  0  0  0
  -29.3567  -17.0943   19.7540 H   0  0  0  0  0  0
  -28.0178  -25.2257   18.6342 H   0  0  0  0  0  0
  -29.5599  -25.1402   19.3914 H   0  0  0  0  0  0
  -29.0768  -15.3376   21.4992 H   0  0  0  0  0  0
  1 25  1  0  0  0
  1 30  2  0  0  0
  1 86  1  0  0  0
  2  3  1  0  0  0
  2 25  1  0  0  0
  2 87  1  0  0  0
  2 88  1  0  0  0
  3  4  1  0  0  0
  3 89  1  0  0  0
  3 90  1  0  0  0
  4  5  1  0  0  0
  4 91  1  0  0  0
  4 92  1  0  0  0
  5  6  1  0  0  0
  5 26  1  0  0  0
  5 93  1  0  0  0
  6 25  1  0  0  0
  6 94  1  0  0  0
  6 95  1  0  0  0
  7  8  2  0  0  0
  7 26  1  0  0  0
  7 29  1  0  0  0
  8  9  1  0  0  0
  8 22  1  0  0  0
  9 10  1  0  0  0
  9 27  2  0  0  0
 10 11  2  0  0  0
 10 15  1  0  0  0
 11 12  1  0  0  0
 11 96  1  0  0  0
 12 13  2  0  0  0
 12 97  1  0  0  0
 13 14  1  0  0  0
 13 31  1  0  0  0
 14 15  2  0  0  0
 14 98  1  0  0  0
 15 99  1  0  0  0
 16 17  2  0  0  0
 16 21  1  0  0  0
 16 31  1  0  0  0
 17 18  1  0  0  0
 17100  1  0  0  0
 18 19  2  0  0  0
 18101  1  0  0  0
 19 20  1  0  0  0
 19 24  1  0  0  0
 20 21  2  0  0  0
 20102  1  0  0  0
 21 23  1  0  0  0
 22 28  1  0  0  0
 22 32  2  0  0  0
 26 27  1  0  0  0
 28103  1  0  0  0
 28104  1  0  0  0
 29105  1  0  0  0
 29106  1  0  0  0
 33 34  1  0  0  0
 33 66  1  0  0  0
 33 70  2  0  0  0
 34 36  1  0  0  0
 34 59  1  0  0  0
 34107  1  0  0  0
 35 44  2  0  0  0
 35 45  1  0  0  0
 35 68  1  0  0  0
 36 56  1  0  0  0
 36108  1  0  0  0
 37 39  1  0  0  0
 37 47  1  0  0  0
 37 66  1  0  0  0
 37109  1  0  0  0
 38 43  2  0  0  0
 38 46  1  0  0  0
 38 47  1  0  0  0
 39 64  1  0  0  0
 39 67  2  0  0  0
 40 52  1  0  0  0
 40 53  2  0  0  0
 40 58  1  0  0  0
 41110  1  0  0  0
 41111  1  0  0  0
 41112  1  0  0  0
 41 48  1  0  0  0
 42 43  1  0  0  0
 42 66  1  0  0  0
 42113  1  0  0  0
 42114  1  0  0  0
 43 44  1  0  0  0
 44115  1  0  0  0
 45 46  2  0  0  0
 45116  1  0  0  0
 46117  1  0  0  0
 47118  1  0  0  0
 47119  1  0  0  0
 48 56  1  0  0  0
 48 65  1  0  0  0
 48120  1  0  0  0
 49 50  1  0  0  0
 49 53  1  0  0  0
 49 64  1  0  0  0
 49121  1  0  0  0
 50 51  1  0  0  0
 50122  1  0  0  0
 50123  1  0  0  0
 51 52  1  0  0  0
 51124  1  0  0  0
 51125  1  0  0  0
 52126  1  0  0  0
 52127  1  0  0  0
 53 54  1  0  0  0
 54 55  2  0  0  0
 54128  1  0  0  0
 55 57  1  0  0  0
 55129  1  0  0  0
 56 69  2  0  0  0
 57 58  2  0  0  0
 57130  1  0  0  0
 58131  1  0  0  0
 59 60  1  0  0  0
 59 61  1  0  0  0
 59 62  1  0  0  0
 60132  1  0  0  0
 60133  1  0  0  0
 60134  1  0  0  0
 61135  1  0  0  0
 61136  1  0  0  0
 61137  1  0  0  0
 62138  1  0  0  0
 62139  1  0  0  0
 62140  1  0  0  0
 63 65  1  0  0  0
 63141  1  0  0  0
 63142  1  0  0  0
 63143  1  0  0  0
 64144  1  0  0  0
 65145  1  0  0  0
 68 85  1  0  0  0
 71 73  2  0  0  0
 71 74  1  0  0  0
 71146  1  0  0  0
 72 73  1  0  0  0
 72 75  2  0  0  0
 72147  1  0  0  0
 73 79  1  0  0  0
 74 76  2  0  0  0
 74 80  1  0  0  0
 75 76  1  0  0  0
 75 81  1  0  0  0
 76 82  1  0  0  0
 77 80  1  0  0  0
 77148  1  0  0  0
 77149  1  0  0  0
 77150  1  0  0  0
 78 82  1  0  0  0
 78151  1  0  0  0
 78152  1  0  0  0
 78153  1  0  0  0
 79 83  1  0  0  0
 79154  1  0  0  0
 79155  1  0  0  0
 80156  1  0  0  0
 80157  1  0  0  0
 81 84  1  0  0  0
 81158  1  0  0  0
 81159  1  0  0  0
 82160  1  0  0  0
 82161  1  0  0  0
 83 85  1  0  0  0
 83162  1  0  0  0
 83163  1  0  0  0
 84 86  1  0  0  0
 84164  1  0  0  0
 84165  1  0  0  0
 85166  1  0  0  0
 85167  1  0  0  0
 86168  1  0  0  0
M  ISO  4   1 100  68 101  85 101  86 100
M  END
> <chiral flag>
0

> <version>
0

> <s_m_source_file>
/data/baiqing/PycharmProjects/Reinvent-master-3.2/result/LINK_invent/BTK/process_docking_weight1_custom_sum_contain_oxygen_bond_distance_aromatic_linkinvent_7_9_3/rearranged_h_0035.sdf

> <i_m_source_file_index>
92

> <r_mmod_Potential_Energy-OPLS-2005>
-44.6325263977051

> <r_mmod_Stretch_Energy-OPLS-2005>
54.5200576782227

> <r_mmod_Bend_Energy-OPLS-2005>
120.179473876953

> <r_mmod_Torsional_Energy-OPLS-2005>
211.91764831543

> <r_mmod_Improper_Torsional_Energy-OPLS-2005>
6.06934785842896

> <r_mmod_Van_der_Waal_Energy-OPLS-2005>
153.456069946289

> <r_mmod_Electrostatic_Energy-OPLS-2005>
-407.960021972656

> <r_mmod_Solvation_Energy-OPLS-2005>
-205.440322875977

> <b_mmod_Minimization_Converged-OPLS-2005>
0

> <r_mmod_RMS_Derivative-OPLS-2005>
4.85956144332886

$$$$
92
                    3D
 Structure written by MMmdl.
167175  0  0  1  0            999 V2000
  -30.6849  -14.5167   20.5262 C   0  0  0  0  0  0
  -30.4246  -12.3214   19.4458 C   0  0  0  0  0  0
  -29.5006  -12.4844   18.2204 C   0  0  0  0  0  0
  -28.0235  -12.3405   18.6379 C   0  0  0  0  0  0
  -27.6570  -13.2058   19.8741 C   0  0  2  0  0  0
  -28.6974  -13.0309   21.0037 C   0  0  0  0  0  0
  -25.2574  -13.8151   20.5705 C   0  0  0  0  0  0
  -24.1836  -13.0446   20.9189 C   0  0  0  0  0  0
  -24.6370  -11.6900   20.8748 C   0  0  0  0  0  0
  -23.9024  -10.4304   21.0395 C   0  0  0  0  0  0
  -24.3592   -9.4235   21.9181 C   0  0  0  0  0  0
  -23.6287   -8.2259   22.0750 C   0  0  0  0  0  0
  -22.4271   -8.0272   21.3520 C   0  0  0  0  0  0
  -21.9882   -9.0238   20.4625 C   0  0  0  0  0  0
  -22.7194  -10.2131   20.3044 C   0  0  0  0  0  0
  -21.6853   -6.0733   22.5279 C   0  0  0  0  0  0
  -21.4015   -6.5641   23.8214 C   0  0  0  0  0  0
  -21.3659   -5.6795   24.9182 C   0  0  0  0  0  0
  -21.6048   -4.3058   24.7232 C   0  0  0  0  0  0
  -21.8828   -3.8150   23.4357 C   0  0  0  0  0  0
  -21.9188   -4.6962   22.3409 C   0  0  0  0  0  0
  -22.7867  -13.5259   21.1833 C   0  0  0  0  0  0
  -22.1658   -4.2146   21.0983 F   0  0  0  0  0  0
  -21.5620   -3.4539   25.7745 F   0  0  0  0  0  0
  -30.0243  -13.3286   20.4427 N   0  0  0  0  0  0
  -26.2995  -12.9308   20.3367 N   0  0  0  0  0  0
  -25.9309  -11.6468   20.5803 N   0  0  0  0  0  0
  -22.0489  -12.8289   22.0377 N   0  0  0  0  0  0
  -25.4302  -15.1896   20.4147 N   0  0  0  0  0  0
  -31.8358  -14.6647   20.1050 O   0  0  0  0  0  0
  -21.6638   -6.8867   21.4229 O   0  0  0  0  0  0
  -22.3573  -14.5562   20.6651 O   0  0  0  0  0  0
  -24.6177  -31.8674   23.2108 C   0  0  0  0  0  0
  -25.9051  -32.4828   23.8427 C   0  0  1  0  0  0
  -27.2202  -27.3879   20.1041 C   0  0  0  0  0  0
  -25.5896  -33.8628   24.2348 N   0  0  0  0  0  0
  -23.4085  -30.4942   21.5492 C   0  0  2  0  0  0
  -24.8528  -28.9614   20.1073 C   0  0  0  0  0  0
  -22.7428  -29.4664   22.4950 C   0  0  0  0  0  0
  -18.0280  -28.1363   22.8491 C   0  0  0  0  0  0
  -24.1480  -36.7321   23.2640 C   0  0  0  0  0  0
  -25.9418  -30.8152   21.3754 C   0  0  0  0  0  0
  -26.0125  -29.4472   20.7214 C   0  0  0  0  0  0
  -27.1934  -28.6638   20.7272 C   0  0  0  0  0  0
  -26.0436  -26.9452   19.4555 C   0  0  0  0  0  0
  -24.8659  -27.7120   19.4694 C   0  0  0  0  0  0
  -23.6191  -29.8334   20.1604 C   0  0  0  0  0  0
  -25.4101  -36.3126   24.0350 C   0  0  1  0  0  0
  -20.5869  -28.3672   23.1280 C   0  0  2  0  0  0
  -20.6766  -26.9404   22.5394 C   0  0  0  0  0  0
  -19.5741  -26.6375   21.5193 C   0  0  0  0  0  0
  -18.1923  -26.7910   22.1616 C   0  0  0  0  0  0
  -19.1529  -28.8830   23.2887 C   0  0  0  0  0  0
  -18.9465  -30.1427   23.8916 C   0  0  0  0  0  0
  -17.6473  -30.6575   24.0558 C   0  0  0  0  0  0
  -25.9029  -34.9486   23.5147 C   0  0  0  0  0  0
  -16.5360  -29.9083   23.6313 C   0  0  0  0  0  0
  -16.7272  -28.6483   23.0363 C   0  0  0  0  0  0
  -26.4465  -31.6619   25.0767 C   0  0  0  0  0  0
  -25.3720  -31.3737   26.1511 C   0  0  0  0  0  0
  -27.0301  -30.3059   24.6166 C   0  0  0  0  0  0
  -27.6056  -32.4331   25.7510 C   0  0  0  0  0  0
  -27.5586  -37.1818   24.8463 C   0  0  0  0  0  0
  -21.4151  -29.3049   22.3688 N   0  0  0  0  0  0
  -26.4292  -37.3810   23.9414 N   0  0  0  0  0  0
  -24.6744  -31.0748   22.1025 N   0  0  0  0  0  0
  -23.4183  -28.8190   23.2997 O   0  0  0  0  0  0
  -28.3709  -26.6113   20.1767 O   0  0  0  0  0  0
  -26.5587  -34.8933   22.4708 O   0  0  0  0  0  0
  -23.5355  -32.1447   23.7460 O   0  0  0  0  0  0
  -28.7784  -21.8637   20.3429 C   0  0  0  0  0  0
  -28.2286  -23.0796   20.8315 C   0  0  0  0  0  0
  -29.1536  -20.8159   21.2304 C   0  0  0  0  0  0
  -28.1084  -23.2201   22.2265 C   0  0  0  0  0  0
  -28.9531  -21.0694   22.6169 C   0  0  0  0  0  0
  -27.4829  -24.4468   22.8697 C   0  0  0  0  0  0
  -30.9582  -18.6832   25.0076 C   0  0  0  0  0  0
  -29.8591  -19.5503   20.6535 C   0  0  0  0  0  0
  -27.6308  -24.1275   19.8716 C   0  0  0  0  0  0
  -29.2382  -20.0747   23.7363 C   0  0  0  0  0  0
  -30.7278  -19.7729   23.9572 C   0  0  0  0  0  0
  -29.3382  -18.1055   20.9773 C   0  0  0  0  0  0
  -30.3623  -16.9887   20.5988 C   0  0  0  0  0  0
  -28.4781  -25.3705   19.4334 C   0  0  0  0  0  0
  -28.4734  -22.2456   23.0803 N   0  0  0  0  0  0
  -29.9492  -15.5944   20.8831 N   0  0  0  0  0  0
  -31.4715  -12.4192   19.1492 H   0  0  0  0  0  0
  -30.3298  -11.3207   19.8685 H   0  0  0  0  0  0
  -29.7490  -11.7362   17.4658 H   0  0  0  0  0  0
  -29.6636  -13.4554   17.7501 H   0  0  0  0  0  0
  -27.8557  -11.2871   18.8674 H   0  0  0  0  0  0
  -27.3675  -12.5769   17.7997 H   0  0  0  0  0  0
  -27.6873  -14.2451   19.5498 H   0  0  0  0  0  0
  -28.6812  -12.0096   21.3914 H   0  0  0  0  0  0
  -28.4582  -13.6730   21.8521 H   0  0  0  0  0  0
  -25.2740   -9.5760   22.4750 H   0  0  0  0  0  0
  -23.9998   -7.4681   22.7502 H   0  0  0  0  0  0
  -21.0797   -8.8748   19.8956 H   0  0  0  0  0  0
  -22.3621  -10.9655   19.6164 H   0  0  0  0  0  0
  -21.2002   -7.6145   23.9718 H   0  0  0  0  0  0
  -21.1465   -6.0524   25.9082 H   0  0  0  0  0  0
  -22.0599   -2.7608   23.2861 H   0  0  0  0  0  0
  -22.4085  -11.9967   22.4813 H   0  0  0  0  0  0
  -21.1093  -13.1316   22.2490 H   0  0  0  0  0  0
  -24.6671  -15.8479   20.5375 H   0  0  0  0  0  0
  -26.2832  -15.6305   20.0937 H   0  0  0  0  0  0
  -26.7126  -32.5522   23.1193 H   0  0  0  0  0  0
  -25.0080  -33.9803   25.0515 H   0  0  0  0  0  0
  -22.6997  -31.3135   21.4110 H   0  0  0  0  0  0
  -23.3752  -35.9643   23.3298 H   0  0  0  0  0  0
  -24.3589  -36.8932   22.2057 H   0  0  0  0  0  0
  -23.7210  -37.6520   23.6650 H   0  0  0  0  0  0
  -26.0631  -31.5782   20.6052 H   0  0  0  0  0  0
  -26.8274  -30.8677   21.9978 H   0  0  0  0  0  0
  -28.0827  -29.0256   21.2245 H   0  0  0  0  0  0
  -25.9978  -26.0033   18.9337 H   0  0  0  0  0  0
  -23.9790  -27.3396   18.9766 H   0  0  0  0  0  0
  -23.7300  -30.6113   19.4039 H   0  0  0  0  0  0
  -22.7420  -29.2573   19.8616 H   0  0  0  0  0  0
  -25.1265  -36.2017   25.0845 H   0  0  0  0  0  0
  -20.9978  -28.3244   24.1391 H   0  0  0  0  0  0
  -20.5635  -26.2298   23.3596 H   0  0  0  0  0  0
  -21.6645  -26.7415   22.1210 H   0  0  0  0  0  0
  -19.6909  -25.6281   21.1228 H   0  0  0  0  0  0
  -19.6669  -27.3176   20.6715 H   0  0  0  0  0  0
  -17.4190  -26.6653   21.4023 H   0  0  0  0  0  0
  -18.0336  -26.0034   22.8995 H   0  0  0  0  0  0
  -19.7946  -30.7218   24.2313 H   0  0  0  0  0  0
  -17.5037  -31.6265   24.5147 H   0  0  0  0  0  0
  -15.5365  -30.3007   23.7616 H   0  0  0  0  0  0
  -15.8667  -28.0802   22.7101 H   0  0  0  0  0  0
  -24.5893  -30.7079   25.7855 H   0  0  0  0  0  0
  -24.8903  -32.2886   26.4971 H   0  0  0  0  0  0
  -25.8058  -30.8910   27.0274 H   0  0  0  0  0  0
  -26.2861  -29.6829   24.1184 H   0  0  0  0  0  0
  -27.4021  -29.7299   25.4650 H   0  0  0  0  0  0
  -27.8721  -30.4384   23.9366 H   0  0  0  0  0  0
  -27.2714  -33.3644   26.2100 H   0  0  0  0  0  0
  -28.3859  -32.6867   25.0318 H   0  0  0  0  0  0
  -28.0734  -31.8442   26.5412 H   0  0  0  0  0  0
  -28.2602  -38.0120   24.7534 H   0  0  0  0  0  0
  -28.1086  -36.2656   24.6254 H   0  0  0  0  0  0
  -27.2315  -37.1428   25.8869 H   0  0  0  0  0  0
  -20.9313  -29.8835   21.6961 H   0  0  0  0  0  0
  -26.0189  -38.2894   24.1413 H   0  0  0  0  0  0
  -28.8948  -21.7289   19.2776 H   0  0  0  0  0  0
  -28.0169  -25.3581   22.5973 H   0  0  0  0  0  0
  -27.4782  -24.3735   23.9584 H   0  0  0  0  0  0
  -26.4437  -24.5501   22.5557 H   0  0  0  0  0  0
  -32.0258  -18.5491   25.1789 H   0  0  0  0  0  0
  -30.5536  -17.7262   24.6754 H   0  0  0  0  0  0
  -30.4908  -18.9344   25.9603 H   0  0  0  0  0  0
  -30.9071  -19.6203   20.9374 H   0  0  0  0  0  0
  -29.8865  -19.6446   19.5665 H   0  0  0  0  0  0
  -26.6791  -24.4489   20.2891 H   0  0  0  0  0  0
  -27.3538  -23.5867   18.9661 H   0  0  0  0  0  0
  -28.6328  -19.1812   23.6111 H   0  0  0  0  0  0
  -28.8632  -20.4980   24.6697 H   0  0  0  0  0  0
  -31.2115  -19.4541   23.0393 H   0  0  0  0  0  0
  -31.2330  -20.6895   24.2570 H   0  0  0  0  0  0
  -28.3890  -17.9417   20.4653 H   0  0  0  0  0  0
  -29.1483  -17.9759   22.0352 H   0  0  0  0  0  0
  -30.5908  -17.0643   19.5338 H   0  0  0  0  0  0
  -31.3013  -17.1710   21.1244 H   0  0  0  0  0  0
  -28.2252  -25.6061   18.3978 H   0  0  0  0  0  0
  -29.5295  -25.0857   19.3953 H   0  0  0  0  0  0
  -29.0230  -15.4324   21.2491 H   0  0  0  0  0  0
  1 25  1  0  0  0
  1 30  2  0  0  0
  1 86  1  0  0  0
  2  3  1  0  0  0
  2 25  1  0  0  0
  2 87  1  0  0  0
  2 88  1  0  0  0
  3  4  1  0  0  0
  3 89  1  0  0  0
  3 90  1  0  0  0
  4  5  1  0  0  0
  4 91  1  0  0  0
  4 92  1  0  0  0
  5  6  1  0  0  0
  5 26  1  0  0  0
  5 93  1  0  0  0
  6 25  1  0  0  0
  6 94  1  0  0  0
  6 95  1  0  0  0
  7  8  2  0  0  0
  7 26  1  0  0  0
  7 29  1  0  0  0
  8  9  1  0  0  0
  8 22  1  0  0  0
  9 10  1  0  0  0
  9 27  2  0  0  0
 10 11  2  0  0  0
 10 15  1  0  0  0
 11 12  1  0  0  0
 11 96  1  0  0  0
 12 13  2  0  0  0
 12 97  1  0  0  0
 13 14  1  0  0  0
 13 31  1  0  0  0
 14 15  2  0  0  0
 14 98  1  0  0  0
 15 99  1  0  0  0
 16 17  2  0  0  0
 16 21  1  0  0  0
 16 31  1  0  0  0
 17 18  1  0  0  0
 17100  1  0  0  0
 18 19  2  0  0  0
 18101  1  0  0  0
 19 20  1  0  0  0
 19 24  1  0  0  0
 20 21  2  0  0  0
 20102  1  0  0  0
 21 23  1  0  0  0
 22 28  1  0  0  0
 22 32  2  0  0  0
 26 27  1  0  0  0
 28103  1  0  0  0
 28104  1  0  0  0
 29105  1  0  0  0
 29106  1  0  0  0
 33 34  1  0  0  0
 33 66  1  0  0  0
 33 70  2  0  0  0
 34 36  1  0  0  0
 34 59  1  0  0  0
 34107  1  0  0  0
 35 44  2  0  0  0
 35 45  1  0  0  0
 35 68  1  0  0  0
 36 56  1  0  0  0
 36108  1  0  0  0
 37 39  1  0  0  0
 37 47  1  0  0  0
 37 66  1  0  0  0
 37109  1  0  0  0
 38 43  2  0  0  0
 38 46  1  0  0  0
 38 47  1  0  0  0
 39 64  1  0  0  0
 39 67  2  0  0  0
 40 52  1  0  0  0
 40 53  2  0  0  0
 40 58  1  0  0  0
 41110  1  0  0  0
 41111  1  0  0  0
 41112  1  0  0  0
 41 48  1  0  0  0
 42 43  1  0  0  0
 42 66  1  0  0  0
 42113  1  0  0  0
 42114  1  0  0  0
 43 44  1  0  0  0
 44115  1  0  0  0
 45 46  2  0  0  0
 45116  1  0  0  0
 46117  1  0  0  0
 47118  1  0  0  0
 47119  1  0  0  0
 48 56  1  0  0  0
 48 65  1  0  0  0
 48120  1  0  0  0
 49 50  1  0  0  0
 49 53  1  0  0  0
 49 64  1  0  0  0
 49121  1  0  0  0
 50 51  1  0  0  0
 50122  1  0  0  0
 50123  1  0  0  0
 51 52  1  0  0  0
 51124  1  0  0  0
 51125  1  0  0  0
 52126  1  0  0  0
 52127  1  0  0  0
 53 54  1  0  0  0
 54 55  2  0  0  0
 54128  1  0  0  0
 55 57  1  0  0  0
 55129  1  0  0  0
 56 69  2  0  0  0
 57 58  2  0  0  0
 57130  1  0  0  0
 58131  1  0  0  0
 59 60  1  0  0  0
 59 61  1  0  0  0
 59 62  1  0  0  0
 60132  1  0  0  0
 60133  1  0  0  0
 60134  1  0  0  0
 61135  1  0  0  0
 61136  1  0  0  0
 61137  1  0  0  0
 62138  1  0  0  0
 62139  1  0  0  0
 62140  1  0  0  0
 63 65  1  0  0  0
 63141  1  0  0  0
 63142  1  0  0  0
 63143  1  0  0  0
 64144  1  0  0  0
 65145  1  0  0  0
 68 84  1  0  0  0
 71 72  2  0  0  0
 71 73  1  0  0  0
 71146  1  0  0  0
 72 74  1  0  0  0
 72 79  1  0  0  0
 73 75  2  0  0  0
 73 78  1  0  0  0
 74 76  1  0  0  0
 74 85  2  0  0  0
 75 80  1  0  0  0
 75 85  1  0  0  0
 76147  1  0  0  0
 76148  1  0  0  0
 76149  1  0  0  0
 77 81  1  0  0  0
 77150  1  0  0  0
 77151  1  0  0  0
 77152  1  0  0  0
 78 82  1  0  0  0
 78153  1  0  0  0
 78154  1  0  0  0
 79 84  1  0  0  0
 79155  1  0  0  0
 79156  1  0  0  0
 80 81  1  0  0  0
 80157  1  0  0  0
 80158  1  0  0  0
 81159  1  0  0  0
 81160  1  0  0  0
 82 83  1  0  0  0
 82161  1  0  0  0
 82162  1  0  0  0
 83 86  1  0  0  0
 83163  1  0  0  0
 83164  1  0  0  0
 84165  1  0  0  0
 84166  1  0  0  0
 86167  1  0  0  0
M  ISO  4   1 100  68 101  84 101  86 100
M  END
> <chiral flag>
0

> <version>
0

> <s_m_source_file>
/data/baiqing/PycharmProjects/Reinvent-master-3.2/result/LINK_invent/BTK/process_docking_weight1_custom_sum_contain_oxygen_bond_distance_aromatic_linkinvent_7_9_3/rearranged_h_0035.sdf

> <i_m_source_file_index>
93

> <r_mmod_Potential_Energy-OPLS-2005>
-181.824005126953

> <r_mmod_Stretch_Energy-OPLS-2005>
49.4563179016113

> <r_mmod_Bend_Energy-OPLS-2005>
132.587509155273

> <r_mmod_Torsional_Energy-OPLS-2005>
198.313903808594

> <r_mmod_Improper_Torsional_Energy-OPLS-2005>
6.17718076705933

> <r_mmod_Van_der_Waal_Energy-OPLS-2005>
152.983108520508

> <r_mmod_Electrostatic_Energy-OPLS-2005>
-524.861083984375

> <r_mmod_Solvation_Energy-OPLS-2005>
-220.198165893555

> <b_mmod_Minimization_Converged-OPLS-2005>
0

> <r_mmod_RMS_Derivative-OPLS-2005>
3.22736620903015

$$$$
93
                    3D
 Structure written by MMmdl.
166175  0  0  1  0            999 V2000
  -30.8128  -14.5179   20.4317 C   0  0  0  0  0  0
  -30.3762  -12.3168   19.4497 C   0  0  0  0  0  0
  -29.4792  -12.4459   18.2088 C   0  0  0  0  0  0
  -28.0025  -12.3180   18.6185 C   0  0  0  0  0  0
  -27.6283  -13.2172   19.8216 C   0  0  2  0  0  0
  -28.6842  -13.2112   20.9481 C   0  0  0  0  0  0
  -25.2534  -13.8164   20.5729 C   0  0  0  0  0  0
  -24.1813  -13.0435   20.9246 C   0  0  0  0  0  0
  -24.6380  -11.6907   20.8784 C   0  0  0  0  0  0
  -23.9048  -10.4294   21.0428 C   0  0  0  0  0  0
  -24.3600   -9.4201   21.9196 C   0  0  0  0  0  0
  -23.6289   -8.2230   22.0739 C   0  0  0  0  0  0
  -22.4276   -8.0267   21.3527 C   0  0  0  0  0  0
  -21.9908   -9.0244   20.4636 C   0  0  0  0  0  0
  -22.7221  -10.2133   20.3066 C   0  0  0  0  0  0
  -21.6880   -6.0723   22.5260 C   0  0  0  0  0  0
  -21.4037   -6.5622   23.8190 C   0  0  0  0  0  0
  -21.3670   -5.6764   24.9149 C   0  0  0  0  0  0
  -21.6062   -4.3029   24.7203 C   0  0  0  0  0  0
  -21.8840   -3.8127   23.4326 C   0  0  0  0  0  0
  -21.9216   -4.6952   22.3382 C   0  0  0  0  0  0
  -22.7839  -13.5207   21.1908 C   0  0  0  0  0  0
  -22.1681   -4.2141   21.0961 F   0  0  0  0  0  0
  -21.5619   -3.4512   25.7718 F   0  0  0  0  0  0
  -30.0070  -13.4208   20.3546 N   0  0  0  0  0  0
  -26.2900  -12.9322   20.3252 N   0  0  0  0  0  0
  -25.9299  -11.6492   20.5794 N   0  0  0  0  0  0
  -22.0489  -12.8172   22.0449 N   0  0  0  0  0  0
  -25.4308  -15.1879   20.4127 N   0  0  0  0  0  0
  -32.0225  -14.3426   20.3012 O   0  0  0  0  0  0
  -21.6656   -6.8865   21.4217 O   0  0  0  0  0  0
  -22.3523  -14.5515   20.6752 O   0  0  0  0  0  0
  -24.6094  -31.8672   23.2107 C   0  0  0  0  0  0
  -25.8970  -32.4826   23.8393 C   0  0  1  0  0  0
  -27.2287  -27.4373   20.0761 C   0  0  0  0  0  0
  -25.5805  -33.8635   24.2282 N   0  0  0  0  0  0
  -23.3989  -30.4950   21.5493 C   0  0  2  0  0  0
  -24.8423  -28.9589   20.1186 C   0  0  0  0  0  0
  -22.7371  -29.4689   22.4958 C   0  0  0  0  0  0
  -18.0263  -28.1417   22.8497 C   0  0  0  0  0  0
  -24.1474  -36.7339   23.2664 C   0  0  0  0  0  0
  -25.9314  -30.8290   21.3688 C   0  0  0  0  0  0
  -26.0041  -29.4667   20.7107 C   0  0  0  0  0  0
  -27.2005  -28.7136   20.6851 C   0  0  0  0  0  0
  -26.0379  -26.9378   19.4964 C   0  0  0  0  0  0
  -24.8514  -27.6914   19.5152 C   0  0  0  0  0  0
  -23.6089  -29.8304   20.1647 C   0  0  0  0  0  0
  -25.4106  -36.3127   24.0340 C   0  0  1  0  0  0
  -20.5844  -28.3713   23.1309 C   0  0  2  0  0  0
  -20.6762  -26.9440   22.5431 C   0  0  0  0  0  0
  -19.5746  -26.6417   21.5228 C   0  0  0  0  0  0
  -18.1916  -26.7973   22.1623 C   0  0  0  0  0  0
  -19.1514  -28.8881   23.2906 C   0  0  0  0  0  0
  -18.9448  -30.1494   23.8917 C   0  0  0  0  0  0
  -17.6453  -30.6619   24.0596 C   0  0  0  0  0  0
  -25.9030  -34.9485   23.5127 C   0  0  0  0  0  0
  -16.5348  -29.9134   23.6352 C   0  0  0  0  0  0
  -16.7252  -28.6558   23.0348 C   0  0  0  0  0  0
  -26.4434  -31.6637   25.0733 C   0  0  0  0  0  0
  -25.3765  -31.3674   26.1519 C   0  0  0  0  0  0
  -27.0302  -30.3083   24.6162 C   0  0  0  0  0  0
  -27.5982  -32.4465   25.7435 C   0  0  0  0  0  0
  -27.5579  -37.1804   24.8461 C   0  0  0  0  0  0
  -21.4109  -29.3057   22.3673 N   0  0  0  0  0  0
  -26.4292  -37.3806   23.9413 N   0  0  0  0  0  0
  -24.6644  -31.0790   22.0998 N   0  0  0  0  0  0
  -23.4130  -28.8237   23.3003 O   0  0  0  0  0  0
  -28.4195  -26.7351   20.0708 O   0  0  0  0  0  0
  -26.5643  -34.8932   22.4721 O   0  0  0  0  0  0
  -23.5293  -32.1419   23.7502 O   0  0  0  0  0  0
  -28.0379  -20.8393   19.8132 C   0  0  0  0  0  0
  -27.3670  -21.8579   20.4175 C   0  0  0  0  0  0
  -29.1149  -16.4023   19.5831 C   0  0  0  0  0  0
  -30.1932  -16.6356   21.8279 C   0  0  0  0  0  0
  -28.8943  -17.9469   19.4524 C   0  0  0  0  0  0
  -29.1303  -17.7858   21.9495 C   0  0  0  0  0  0
  -30.3871  -16.0457   20.3884 C   0  0  1  0  0  0
  -29.1786  -18.7805   20.7549 C   0  0  1  0  0  0
  -31.5651  -16.7418   19.6032 C   0  0  0  0  0  0
  -30.5490  -19.5175   20.7957 C   0  0  0  0  0  0
  -27.0597  -23.2205   19.8530 C   0  0  0  0  0  0
  -27.9113  -24.3393   20.4995 C   0  0  0  0  0  0
  -28.4516  -25.4113   19.5207 C   0  0  0  0  0  0
  -27.0776  -21.4656   21.7264 N   0  0  0  0  0  0
  -27.6145  -20.2987   21.9555 N   0  0  0  0  0  0
  -28.2181  -19.8944   20.8070 N   0  0  0  0  0  0
  -31.4235  -12.3246   19.1433 H   0  0  0  0  0  0
  -30.2202  -11.3593   19.9480 H   0  0  0  0  0  0
  -29.7240  -11.6750   17.4774 H   0  0  0  0  0  0
  -29.6562  -13.4033   17.7143 H   0  0  0  0  0  0
  -27.8131  -11.2692   18.8546 H   0  0  0  0  0  0
  -27.3608  -12.5599   17.7711 H   0  0  0  0  0  0
  -27.5880  -14.2087   19.3904 H   0  0  0  0  0  0
  -28.6693  -12.2653   21.4913 H   0  0  0  0  0  0
  -28.4615  -13.9934   21.6744 H   0  0  0  0  0  0
  -25.2737   -9.5689   22.4772 H   0  0  0  0  0  0
  -24.0032   -7.4611   22.7417 H   0  0  0  0  0  0
  -21.0867   -8.8739   19.8913 H   0  0  0  0  0  0
  -22.3670  -10.9672   19.6174 H   0  0  0  0  0  0
  -21.2028   -7.6124   23.9699 H   0  0  0  0  0  0
  -21.1476   -6.0480   25.9051 H   0  0  0  0  0  0
  -22.0620   -2.7596   23.2813 H   0  0  0  0  0  0
  -22.4106  -11.9802   22.4788 H   0  0  0  0  0  0
  -21.1110  -13.1184   22.2671 H   0  0  0  0  0  0
  -24.6745  -15.8555   20.5191 H   0  0  0  0  0  0
  -26.2937  -15.6150   20.1035 H   0  0  0  0  0  0
  -26.7007  -32.5526   23.1130 H   0  0  0  0  0  0
  -24.9808  -33.9797   25.0315 H   0  0  0  0  0  0
  -22.6917  -31.3145   21.4089 H   0  0  0  0  0  0
  -23.3747  -35.9662   23.3344 H   0  0  0  0  0  0
  -24.3557  -36.8971   22.2079 H   0  0  0  0  0  0
  -23.7210  -37.6535   23.6695 H   0  0  0  0  0  0
  -26.0600  -31.5980   20.6058 H   0  0  0  0  0  0
  -26.8127  -30.8700   21.9982 H   0  0  0  0  0  0
  -28.1041  -29.1091   21.1293 H   0  0  0  0  0  0
  -25.9948  -25.9710   19.0199 H   0  0  0  0  0  0
  -23.9539  -27.2886   19.0640 H   0  0  0  0  0  0
  -23.7254  -30.6104   19.4103 H   0  0  0  0  0  0
  -22.7307  -29.2565   19.8614 H   0  0  0  0  0  0
  -25.1277  -36.2003   25.0835 H   0  0  0  0  0  0
  -20.9959  -28.3328   24.1419 H   0  0  0  0  0  0
  -20.5714  -26.2322   23.3624 H   0  0  0  0  0  0
  -21.6624  -26.7516   22.1187 H   0  0  0  0  0  0
  -19.6934  -25.6329   21.1255 H   0  0  0  0  0  0
  -19.6707  -27.3231   20.6759 H   0  0  0  0  0  0
  -17.4179  -26.6726   21.4025 H   0  0  0  0  0  0
  -18.0331  -26.0114   22.9027 H   0  0  0  0  0  0
  -19.7930  -30.7318   24.2274 H   0  0  0  0  0  0
  -17.5012  -31.6308   24.5214 H   0  0  0  0  0  0
  -15.5344  -30.3052   23.7699 H   0  0  0  0  0  0
  -15.8645  -28.0923   22.7030 H   0  0  0  0  0  0
  -24.5853  -30.7131   25.7826 H   0  0  0  0  0  0
  -24.9066  -32.2803   26.5191 H   0  0  0  0  0  0
  -25.8178  -30.8640   27.0135 H   0  0  0  0  0  0
  -26.2822  -29.6781   24.1335 H   0  0  0  0  0  0
  -27.4160  -29.7395   25.4633 H   0  0  0  0  0  0
  -27.8620  -30.4389   23.9244 H   0  0  0  0  0  0
  -27.2514  -33.3720   26.2057 H   0  0  0  0  0  0
  -28.3667  -32.7172   25.0180 H   0  0  0  0  0  0
  -28.0800  -31.8643   26.5295 H   0  0  0  0  0  0
  -28.2579  -38.0117   24.7534 H   0  0  0  0  0  0
  -28.1083  -36.2647   24.6248 H   0  0  0  0  0  0
  -27.2307  -37.1425   25.8865 H   0  0  0  0  0  0
  -20.9274  -29.8722   21.6845 H   0  0  0  0  0  0
  -26.0196  -38.2886   24.1450 H   0  0  0  0  0  0
  -28.4832  -20.7535   18.8306 H   0  0  0  0  0  0
  -29.1167  -15.9244   18.6031 H   0  0  0  0  0  0
  -28.2499  -16.0240   20.1206 H   0  0  0  0  0  0
  -29.9061  -15.8425   22.5194 H   0  0  0  0  0  0
  -31.1549  -16.9831   22.2060 H   0  0  0  0  0  0
  -27.8536  -18.0874   19.1557 H   0  0  0  0  0  0
  -29.4517  -18.3588   18.6096 H   0  0  0  0  0  0
  -29.2670  -18.3049   22.8977 H   0  0  0  0  0  0
  -28.1330  -17.3445   21.9992 H   0  0  0  0  0  0
  -31.3989  -17.7473   19.2473 H   0  0  0  0  0  0
  -31.7811  -16.2045   18.6769 H   0  0  0  0  0  0
  -32.4933  -16.7764   20.1788 H   0  0  0  0  0  0
  -31.3945  -18.8902   21.0600 H   0  0  0  0  0  0
  -30.5440  -20.3008   21.5563 H   0  0  0  0  0  0
  -30.7778  -20.0054   19.8491 H   0  0  0  0  0  0
  -25.9979  -23.4501   19.9605 H   0  0  0  0  0  0
  -27.2445  -23.2039   18.7775 H   0  0  0  0  0  0
  -28.7811  -23.8894   20.9804 H   0  0  0  0  0  0
  -27.3404  -24.7945   21.3088 H   0  0  0  0  0  0
  -27.9821  -25.3681   18.5384 H   0  0  0  0  0  0
  -29.5017  -25.1869   19.3258 H   0  0  0  0  0  0
  1 25  1  0  0  0
  1 30  2  0  0  0
  1 77  1  0  0  0
  2  3  1  0  0  0
  2 25  1  0  0  0
  2 87  1  0  0  0
  2 88  1  0  0  0
  3  4  1  0  0  0
  3 89  1  0  0  0
  3 90  1  0  0  0
  4  5  1  0  0  0
  4 91  1  0  0  0
  4 92  1  0  0  0
  5  6  1  0  0  0
  5 26  1  0  0  0
  5 93  1  0  0  0
  6 25  1  0  0  0
  6 94  1  0  0  0
  6 95  1  0  0  0
  7  8  2  0  0  0
  7 26  1  0  0  0
  7 29  1  0  0  0
  8  9  1  0  0  0
  8 22  1  0  0  0
  9 10  1  0  0  0
  9 27  2  0  0  0
 10 11  2  0  0  0
 10 15  1  0  0  0
 11 12  1  0  0  0
 11 96  1  0  0  0
 12 13  2  0  0  0
 12 97  1  0  0  0
 13 14  1  0  0  0
 13 31  1  0  0  0
 14 15  2  0  0  0
 14 98  1  0  0  0
 15 99  1  0  0  0
 16 17  2  0  0  0
 16 21  1  0  0  0
 16 31  1  0  0  0
 17 18  1  0  0  0
 17100  1  0  0  0
 18 19  2  0  0  0
 18101  1  0  0  0
 19 20  1  0  0  0
 19 24  1  0  0  0
 20 21  2  0  0  0
 20102  1  0  0  0
 21 23  1  0  0  0
 22 28  1  0  0  0
 22 32  2  0  0  0
 26 27  1  0  0  0
 28103  1  0  0  0
 28104  1  0  0  0
 29105  1  0  0  0
 29106  1  0  0  0
 33 34  1  0  0  0
 33 66  1  0  0  0
 33 70  2  0  0  0
 34 36  1  0  0  0
 34 59  1  0  0  0
 34107  1  0  0  0
 35 44  2  0  0  0
 35 45  1  0  0  0
 35 68  1  0  0  0
 36 56  1  0  0  0
 36108  1  0  0  0
 37 39  1  0  0  0
 37 47  1  0  0  0
 37 66  1  0  0  0
 37109  1  0  0  0
 38 43  2  0  0  0
 38 46  1  0  0  0
 38 47  1  0  0  0
 39 64  1  0  0  0
 39 67  2  0  0  0
 40 52  1  0  0  0
 40 53  2  0  0  0
 40 58  1  0  0  0
 41110  1  0  0  0
 41111  1  0  0  0
 41112  1  0  0  0
 41 48  1  0  0  0
 42 43  1  0  0  0
 42 66  1  0  0  0
 42113  1  0  0  0
 42114  1  0  0  0
 43 44  1  0  0  0
 44115  1  0  0  0
 45 46  2  0  0  0
 45116  1  0  0  0
 46117  1  0  0  0
 47118  1  0  0  0
 47119  1  0  0  0
 48 56  1  0  0  0
 48 65  1  0  0  0
 48120  1  0  0  0
 49 50  1  0  0  0
 49 53  1  0  0  0
 49 64  1  0  0  0
 49121  1  0  0  0
 50 51  1  0  0  0
 50122  1  0  0  0
 50123  1  0  0  0
 51 52  1  0  0  0
 51124  1  0  0  0
 51125  1  0  0  0
 52126  1  0  0  0
 52127  1  0  0  0
 53 54  1  0  0  0
 54 55  2  0  0  0
 54128  1  0  0  0
 55 57  1  0  0  0
 55129  1  0  0  0
 56 69  2  0  0  0
 57 58  2  0  0  0
 57130  1  0  0  0
 58131  1  0  0  0
 59 60  1  0  0  0
 59 61  1  0  0  0
 59 62  1  0  0  0
 60132  1  0  0  0
 60133  1  0  0  0
 60134  1  0  0  0
 61135  1  0  0  0
 61136  1  0  0  0
 61137  1  0  0  0
 62138  1  0  0  0
 62139  1  0  0  0
 62140  1  0  0  0
 63 65  1  0  0  0
 63141  1  0  0  0
 63142  1  0  0  0
 63143  1  0  0  0
 64144  1  0  0  0
 65145  1  0  0  0
 68 83  1  0  0  0
 71 72  2  0  0  0
 71 86  1  0  0  0
 71146  1  0  0  0
 72 81  1  0  0  0
 72 84  1  0  0  0
 73 75  1  0  0  0
 73 77  1  0  0  0
 73147  1  0  0  0
 73148  1  0  0  0
 74 76  1  0  0  0
 74 77  1  0  0  0
 74149  1  0  0  0
 74150  1  0  0  0
 75 78  1  0  0  0
 75151  1  0  0  0
 75152  1  0  0  0
 76 78  1  0  0  0
 76153  1  0  0  0
 76154  1  0  0  0
 77 79  1  0  0  0
 78 80  1  0  0  0
 78 86  1  0  0  0
 79155  1  0  0  0
 79156  1  0  0  0
 79157  1  0  0  0
 80158  1  0  0  0
 80159  1  0  0  0
 80160  1  0  0  0
 81 82  1  0  0  0
 81161  1  0  0  0
 81162  1  0  0  0
 82 83  1  0  0  0
 82163  1  0  0  0
 82164  1  0  0  0
 83165  1  0  0  0
 83166  1  0  0  0
 84 85  2  0  0  0
 85 86  1  0  0  0
M  ISO  4   1 100  68 101  77 100  83 101
M  END
> <chiral flag>
0

> <version>
0

> <s_m_source_file>
/data/baiqing/PycharmProjects/Reinvent-master-3.2/result/LINK_invent/BTK/process_docking_weight1_custom_sum_contain_oxygen_bond_distance_aromatic_linkinvent_7_9_3/rearranged_h_0035.sdf

> <i_m_source_file_index>
94

> <r_mmod_Potential_Energy-OPLS-2005>
198.947204589844

> <r_mmod_Stretch_Energy-OPLS-2005>
50.1262092590332

> <r_mmod_Bend_Energy-OPLS-2005>
157.176055908203

> <r_mmod_Torsional_Energy-OPLS-2005>
299.652465820312

> <r_mmod_Improper_Torsional_Energy-OPLS-2005>
7.7978720664978

> <r_mmod_Van_der_Waal_Energy-OPLS-2005>
174.664291381836

> <r_mmod_Electrostatic_Energy-OPLS-2005>
-344.591796875

> <r_mmod_Solvation_Energy-OPLS-2005>
-200.703521728516

> <b_mmod_Minimization_Converged-OPLS-2005>
0

> <r_mmod_RMS_Derivative-OPLS-2005>
3.43359971046448

$$$$
94
                    3D
 Structure written by MMmdl.
165173  0  0  1  0            999 V2000
  -30.7108  -14.4665   20.5797 C   0  0  0  0  0  0
  -30.4158  -12.3067   19.4275 C   0  0  0  0  0  0
  -29.4908  -12.5009   18.2093 C   0  0  0  0  0  0
  -28.0112  -12.3694   18.6199 C   0  0  0  0  0  0
  -27.6561  -13.2120   19.8752 C   0  0  2  0  0  0
  -28.6975  -13.0038   20.9974 C   0  0  0  0  0  0
  -25.2469  -13.8087   20.5587 C   0  0  0  0  0  0
  -24.1776  -13.0372   20.9204 C   0  0  0  0  0  0
  -24.6379  -11.6863   20.8791 C   0  0  0  0  0  0
  -23.9058  -10.4248   21.0436 C   0  0  0  0  0  0
  -24.3609   -9.4168   21.9211 C   0  0  0  0  0  0
  -23.6279   -8.2208   22.0761 C   0  0  0  0  0  0
  -22.4265   -8.0259   21.3547 C   0  0  0  0  0  0
  -21.9906   -9.0234   20.4654 C   0  0  0  0  0  0
  -22.7237  -10.2108   20.3079 C   0  0  0  0  0  0
  -21.6839   -6.0721   22.5282 C   0  0  0  0  0  0
  -21.3994   -6.5625   23.8210 C   0  0  0  0  0  0
  -21.3659   -5.6789   24.9178 C   0  0  0  0  0  0
  -21.6055   -4.3050   24.7233 C   0  0  0  0  0  0
  -21.8816   -3.8136   23.4351 C   0  0  0  0  0  0
  -21.9182   -4.6950   22.3408 C   0  0  0  0  0  0
  -22.7805  -13.5177   21.1861 C   0  0  0  0  0  0
  -22.1657   -4.2138   21.0985 F   0  0  0  0  0  0
  -21.5640   -3.4536   25.7743 F   0  0  0  0  0  0
  -30.0279  -13.2988   20.4422 N   0  0  0  0  0  0
  -26.2979  -12.9326   20.3378 N   0  0  0  0  0  0
  -25.9318  -11.6481   20.5833 N   0  0  0  0  0  0
  -22.0446  -12.8192   22.0439 N   0  0  0  0  0  0
  -25.3980  -15.1751   20.3715 N   0  0  0  0  0  0
  -31.8415  -14.6378   20.1143 O   0  0  0  0  0  0
  -21.6627   -6.8863   21.4241 O   0  0  0  0  0  0
  -22.3498  -14.5488   20.6712 O   0  0  0  0  0  0
  -24.6141  -31.8666   23.2113 C   0  0  0  0  0  0
  -25.9035  -32.4809   23.8397 C   0  0  1  0  0  0
  -27.2338  -27.4185   20.0880 C   0  0  0  0  0  0
  -25.5903  -33.8611   24.2330 N   0  0  0  0  0  0
  -23.4020  -30.4935   21.5496 C   0  0  2  0  0  0
  -24.8463  -28.9573   20.1121 C   0  0  0  0  0  0
  -22.7388  -29.4679   22.4956 C   0  0  0  0  0  0
  -18.0280  -28.1367   22.8487 C   0  0  0  0  0  0
  -24.1498  -36.7320   23.2640 C   0  0  0  0  0  0
  -25.9318  -30.8266   21.3676 C   0  0  0  0  0  0
  -26.0059  -29.4611   20.7103 C   0  0  0  0  0  0
  -27.1969  -28.6971   20.6975 C   0  0  0  0  0  0
  -26.0449  -26.9269   19.4985 C   0  0  0  0  0  0
  -24.8615  -27.6898   19.5068 C   0  0  0  0  0  0
  -23.6121  -29.8293   20.1617 C   0  0  0  0  0  0
  -25.4114  -36.3098   24.0327 C   0  0  1  0  0  0
  -20.5862  -28.3685   23.1306 C   0  0  2  0  0  0
  -20.6775  -26.9415   22.5470 C   0  0  0  0  0  0
  -19.5785  -26.6338   21.5258 C   0  0  0  0  0  0
  -18.1931  -26.7925   22.1603 C   0  0  0  0  0  0
  -19.1528  -28.8828   23.2896 C   0  0  0  0  0  0
  -18.9467  -30.1446   23.8886 C   0  0  0  0  0  0
  -17.6481  -30.6593   24.0538 C   0  0  0  0  0  0
  -25.9032  -34.9460   23.5121 C   0  0  0  0  0  0
  -16.5368  -29.9091   23.6311 C   0  0  0  0  0  0
  -16.7273  -28.6503   23.0344 C   0  0  0  0  0  0
  -26.4479  -31.6601   25.0728 C   0  0  0  0  0  0
  -25.3756  -31.3706   26.1483 C   0  0  0  0  0  0
  -27.0329  -30.3046   24.6120 C   0  0  0  0  0  0
  -27.6034  -32.4337   25.7498 C   0  0  0  0  0  0
  -27.5580  -37.1817   24.8450 C   0  0  0  0  0  0
  -21.4123  -29.3051   22.3688 N   0  0  0  0  0  0
  -26.4295  -37.3777   23.9389 N   0  0  0  0  0  0
  -24.6675  -31.0765   22.1006 N   0  0  0  0  0  0
  -23.4160  -28.8216   23.3005 O   0  0  0  0  0  0
  -28.4291  -26.7196   20.1240 O   0  0  0  0  0  0
  -26.5583  -34.8908   22.4670 O   0  0  0  0  0  0
  -23.5331  -32.1438   23.7489 O   0  0  0  0  0  0
  -30.7307  -19.3643   21.2791 C   0  0  0  0  0  0
  -27.9931  -19.8036   21.5193 C   0  0  0  0  0  0
  -30.2488  -20.6870   21.4174 C   0  0  0  0  0  0
  -28.8564  -20.9215   21.5490 C   0  0  0  0  0  0
  -28.4770  -18.4774   21.4097 C   0  0  0  0  0  0
  -29.8774  -18.2383   21.2958 C   0  0  0  0  0  0
  -31.2695  -21.8108   21.4448 C   0  0  0  0  0  0
  -27.1822  -16.8817   22.8838 C   0  0  0  0  0  0
  -27.4512  -17.3630   21.4541 C   0  0  0  0  0  0
  -28.2526  -22.3072   21.8530 C   0  0  0  0  0  0
  -30.5841  -16.8627   21.2091 C   0  0  0  0  0  0
  -27.9544  -23.2612   20.6599 C   0  0  0  0  0  0
  -29.0477  -24.3142   20.3575 C   0  0  0  0  0  0
  -28.6308  -25.4797   19.4182 C   0  0  0  0  0  0
  -30.0342  -15.4987   21.1211 N   0  0  0  0  0  0
  -31.4609  -12.3996   19.1268 H   0  0  0  0  0  0
  -30.3152  -11.2990   19.8320 H   0  0  0  0  0  0
  -29.7298  -11.7704   17.4359 H   0  0  0  0  0  0
  -29.6641  -13.4827   17.7647 H   0  0  0  0  0  0
  -27.8126  -11.3153   18.8163 H   0  0  0  0  0  0
  -27.3635  -12.6495   17.7889 H   0  0  0  0  0  0
  -27.6954  -14.2592   19.5767 H   0  0  0  0  0  0
  -28.6718  -11.9730   21.3541 H   0  0  0  0  0  0
  -28.4626  -13.6205   21.8658 H   0  0  0  0  0  0
  -25.2744   -9.5632   22.4796 H   0  0  0  0  0  0
  -23.9981   -7.4582   22.7463 H   0  0  0  0  0  0
  -21.0848   -8.8757   19.8943 H   0  0  0  0  0  0
  -22.3707  -10.9657   19.6193 H   0  0  0  0  0  0
  -21.1979   -7.6133   23.9710 H   0  0  0  0  0  0
  -21.1494   -6.0521   25.9083 H   0  0  0  0  0  0
  -22.0602   -2.7599   23.2858 H   0  0  0  0  0  0
  -22.4063  -11.9843   22.4817 H   0  0  0  0  0  0
  -21.1071  -13.1218   22.2653 H   0  0  0  0  0  0
  -24.6148  -15.8117   20.4634 H   0  0  0  0  0  0
  -26.2223  -15.6080   19.9796 H   0  0  0  0  0  0
  -26.7101  -32.5519   23.1157 H   0  0  0  0  0  0
  -25.0091  -33.9780   25.0500 H   0  0  0  0  0  0
  -22.6907  -31.3104   21.4113 H   0  0  0  0  0  0
  -23.3738  -35.9675   23.3299 H   0  0  0  0  0  0
  -24.3579  -36.8935   22.2052 H   0  0  0  0  0  0
  -23.7282  -37.6533   23.6658 H   0  0  0  0  0  0
  -26.0525  -31.5997   20.6069 H   0  0  0  0  0  0
  -26.8164  -30.8731   21.9904 H   0  0  0  0  0  0
  -28.0918  -29.0855   21.1627 H   0  0  0  0  0  0
  -25.9866  -25.9539   19.0376 H   0  0  0  0  0  0
  -23.9653  -27.2927   19.0492 H   0  0  0  0  0  0
  -23.7252  -30.6072   19.4057 H   0  0  0  0  0  0
  -22.7350  -29.2556   19.8599 H   0  0  0  0  0  0
  -25.1298  -36.1961   25.0821 H   0  0  0  0  0  0
  -20.9961  -28.3298   24.1426 H   0  0  0  0  0  0
  -20.5662  -26.2329   23.3688 H   0  0  0  0  0  0
  -21.6665  -26.7431   22.1315 H   0  0  0  0  0  0
  -19.6969  -25.6230   21.1355 H   0  0  0  0  0  0
  -19.6740  -27.3094   20.6749 H   0  0  0  0  0  0
  -17.4261  -26.6749   21.3927 H   0  0  0  0  0  0
  -18.0208  -26.0050   22.8952 H   0  0  0  0  0  0
  -19.7965  -30.7247   24.2245 H   0  0  0  0  0  0
  -17.5055  -31.6292   24.5105 H   0  0  0  0  0  0
  -15.5384  -30.3019   23.7621 H   0  0  0  0  0  0
  -15.8664  -28.0830   22.7058 H   0  0  0  0  0  0
  -24.5904  -30.7081   25.7838 H   0  0  0  0  0  0
  -24.8991  -32.2872   26.4968 H   0  0  0  0  0  0
  -25.8124  -30.8855   27.0222 H   0  0  0  0  0  0
  -26.2894  -29.6789   24.1188 H   0  0  0  0  0  0
  -27.4111  -29.7299   25.4585 H   0  0  0  0  0  0
  -27.8714  -30.4355   23.9279 H   0  0  0  0  0  0
  -27.2623  -33.3604   26.2121 H   0  0  0  0  0  0
  -28.3831  -32.6963   25.0338 H   0  0  0  0  0  0
  -28.0737  -31.8458   26.5388 H   0  0  0  0  0  0
  -28.2601  -38.0118   24.7486 H   0  0  0  0  0  0
  -28.1084  -36.2637   24.6299 H   0  0  0  0  0  0
  -27.2281  -37.1487   25.8854 H   0  0  0  0  0  0
  -20.9304  -29.8745   21.6878 H   0  0  0  0  0  0
  -26.0183  -38.2851   24.1390 H   0  0  0  0  0  0
  -31.7965  -19.2034   21.1833 H   0  0  0  0  0  0
  -26.9286  -19.9611   21.6273 H   0  0  0  0  0  0
  -32.1964  -21.4774   21.9126 H   0  0  0  0  0  0
  -30.9294  -22.6797   22.0041 H   0  0  0  0  0  0
  -31.5056  -22.1251   20.4292 H   0  0  0  0  0  0
  -26.4511  -16.0729   22.8911 H   0  0  0  0  0  0
  -26.7818  -17.6894   23.4978 H   0  0  0  0  0  0
  -28.0907  -16.5155   23.3604 H   0  0  0  0  0  0
  -27.7553  -16.5418   20.8119 H   0  0  0  0  0  0
  -26.5193  -17.7278   21.0215 H   0  0  0  0  0  0
  -28.8323  -22.8143   22.6232 H   0  0  0  0  0  0
  -27.3015  -22.1152   22.3512 H   0  0  0  0  0  0
  -30.1416  -16.9303   20.2126 H   0  0  0  0  0  0
  -30.1759  -16.7715   22.2156 H   0  0  0  0  0  0
  -27.0558  -23.8222   20.9180 H   0  0  0  0  0  0
  -27.6929  -22.6933   19.7667 H   0  0  0  0  0  0
  -29.8819  -23.7902   19.8925 H   0  0  0  0  0  0
  -29.4422  -24.7299   21.2849 H   0  0  0  0  0  0
  -27.8464  -25.1779   18.7291 H   0  0  0  0  0  0
  -29.4801  -25.6798   18.7637 H   0  0  0  0  0  0
  -29.0989  -15.3329   21.4583 H   0  0  0  0  0  0
  1 25  1  0  0  0
  1 30  2  0  0  0
  1 85  1  0  0  0
  2  3  1  0  0  0
  2 25  1  0  0  0
  2 86  1  0  0  0
  2 87  1  0  0  0
  3  4  1  0  0  0
  3 88  1  0  0  0
  3 89  1  0  0  0
  4  5  1  0  0  0
  4 90  1  0  0  0
  4 91  1  0  0  0
  5  6  1  0  0  0
  5 26  1  0  0  0
  5 92  1  0  0  0
  6 25  1  0  0  0
  6 93  1  0  0  0
  6 94  1  0  0  0
  7  8  2  0  0  0
  7 26  1  0  0  0
  7 29  1  0  0  0
  8  9  1  0  0  0
  8 22  1  0  0  0
  9 10  1  0  0  0
  9 27  2  0  0  0
 10 11  2  0  0  0
 10 15  1  0  0  0
 11 12  1  0  0  0
 11 95  1  0  0  0
 12 13  2  0  0  0
 12 96  1  0  0  0
 13 14  1  0  0  0
 13 31  1  0  0  0
 14 15  2  0  0  0
 14 97  1  0  0  0
 15 98  1  0  0  0
 16 17  2  0  0  0
 16 21  1  0  0  0
 16 31  1  0  0  0
 17 18  1  0  0  0
 17 99  1  0  0  0
 18 19  2  0  0  0
 18100  1  0  0  0
 19 20  1  0  0  0
 19 24  1  0  0  0
 20 21  2  0  0  0
 20101  1  0  0  0
 21 23  1  0  0  0
 22 28  1  0  0  0
 22 32  2  0  0  0
 26 27  1  0  0  0
 28102  1  0  0  0
 28103  1  0  0  0
 29104  1  0  0  0
 29105  1  0  0  0
 33 34  1  0  0  0
 33 66  1  0  0  0
 33 70  2  0  0  0
 34 36  1  0  0  0
 34 59  1  0  0  0
 34106  1  0  0  0
 35 44  2  0  0  0
 35 45  1  0  0  0
 35 68  1  0  0  0
 36 56  1  0  0  0
 36107  1  0  0  0
 37 39  1  0  0  0
 37 47  1  0  0  0
 37 66  1  0  0  0
 37108  1  0  0  0
 38 43  2  0  0  0
 38 46  1  0  0  0
 38 47  1  0  0  0
 39 64  1  0  0  0
 39 67  2  0  0  0
 40 52  1  0  0  0
 40 53  2  0  0  0
 40 58  1  0  0  0
 41109  1  0  0  0
 41110  1  0  0  0
 41111  1  0  0  0
 41 48  1  0  0  0
 42 43  1  0  0  0
 42 66  1  0  0  0
 42112  1  0  0  0
 42113  1  0  0  0
 43 44  1  0  0  0
 44114  1  0  0  0
 45 46  2  0  0  0
 45115  1  0  0  0
 46116  1  0  0  0
 47117  1  0  0  0
 47118  1  0  0  0
 48 56  1  0  0  0
 48 65  1  0  0  0
 48119  1  0  0  0
 49 50  1  0  0  0
 49 53  1  0  0  0
 49 64  1  0  0  0
 49120  1  0  0  0
 50 51  1  0  0  0
 50121  1  0  0  0
 50122  1  0  0  0
 51 52  1  0  0  0
 51123  1  0  0  0
 51124  1  0  0  0
 52125  1  0  0  0
 52126  1  0  0  0
 53 54  1  0  0  0
 54 55  2  0  0  0
 54127  1  0  0  0
 55 57  1  0  0  0
 55128  1  0  0  0
 56 69  2  0  0  0
 57 58  2  0  0  0
 57129  1  0  0  0
 58130  1  0  0  0
 59 60  1  0  0  0
 59 61  1  0  0  0
 59 62  1  0  0  0
 60131  1  0  0  0
 60132  1  0  0  0
 60133  1  0  0  0
 61134  1  0  0  0
 61135  1  0  0  0
 61136  1  0  0  0
 62137  1  0  0  0
 62138  1  0  0  0
 62139  1  0  0  0
 63 65  1  0  0  0
 63140  1  0  0  0
 63141  1  0  0  0
 63142  1  0  0  0
 64143  1  0  0  0
 65144  1  0  0  0
 68 84  1  0  0  0
 71 73  2  0  0  0
 71 76  1  0  0  0
 71145  1  0  0  0
 72 74  2  0  0  0
 72 75  1  0  0  0
 72146  1  0  0  0
 73 74  1  0  0  0
 73 77  1  0  0  0
 74 80  1  0  0  0
 75 76  2  0  0  0
 75 79  1  0  0  0
 76 81  1  0  0  0
 77147  1  0  0  0
 77148  1  0  0  0
 77149  1  0  0  0
 78 79  1  0  0  0
 78150  1  0  0  0
 78151  1  0  0  0
 78152  1  0  0  0
 79153  1  0  0  0
 79154  1  0  0  0
 80 82  1  0  0  0
 80155  1  0  0  0
 80156  1  0  0  0
 81 85  1  0  0  0
 81157  1  0  0  0
 81158  1  0  0  0
 82 83  1  0  0  0
 82159  1  0  0  0
 82160  1  0  0  0
 83 84  1  0  0  0
 83161  1  0  0  0
 83162  1  0  0  0
 84163  1  0  0  0
 84164  1  0  0  0
 85165  1  0  0  0
M  ISO  4   1 100  68 101  84 101  85 100
M  END
> <chiral flag>
0

> <version>
0

> <s_m_source_file>
/data/baiqing/PycharmProjects/Reinvent-master-3.2/result/LINK_invent/BTK/process_docking_weight1_custom_sum_contain_oxygen_bond_distance_aromatic_linkinvent_7_9_3/rearranged_h_0035.sdf

> <i_m_source_file_index>
95

> <r_mmod_Potential_Energy-OPLS-2005>
130.347320556641

> <r_mmod_Stretch_Energy-OPLS-2005>
41.0095901489258

> <r_mmod_Bend_Energy-OPLS-2005>
334.60009765625

> <r_mmod_Torsional_Energy-OPLS-2005>
206.456497192383

> <r_mmod_Improper_Torsional_Energy-OPLS-2005>
3.98127555847168

> <r_mmod_Van_der_Waal_Energy-OPLS-2005>
149.81608581543

> <r_mmod_Electrostatic_Energy-OPLS-2005>
-422.735443115234

> <r_mmod_Solvation_Energy-OPLS-2005>
-197.139312744141

> <b_mmod_Minimization_Converged-OPLS-2005>
0

> <r_mmod_RMS_Derivative-OPLS-2005>
2.20404672622681

$$$$
