0
                    3D
 Structure written by MMmdl.
159167  0  0  1  0            999 V2000
  -30.6833  -14.4510   20.5371 C   0  0  0  0  0  0
  -30.4247  -12.2795   19.4190 C   0  0  0  0  0  0
  -29.4989  -12.4818   18.2006 C   0  0  0  0  0  0
  -28.0164  -12.3542   18.6104 C   0  0  0  0  0  0
  -27.6608  -13.1975   19.8660 C   0  0  2  0  0  0
  -28.7015  -12.9729   20.9878 C   0  0  0  0  0  0
  -25.2606  -13.8136   20.5646 C   0  0  0  0  0  0
  -24.1852  -13.0428   20.9147 C   0  0  0  0  0  0
  -24.6396  -11.6888   20.8712 C   0  0  0  0  0  0
  -23.9056  -10.4282   21.0392 C   0  0  0  0  0  0
  -24.3597   -9.4200   21.9173 C   0  0  0  0  0  0
  -23.6256   -8.2248   22.0767 C   0  0  0  0  0  0
  -22.4248   -8.0273   21.3559 C   0  0  0  0  0  0
  -21.9879   -9.0247   20.4670 C   0  0  0  0  0  0
  -22.7214  -10.2114   20.3056 C   0  0  0  0  0  0
  -21.6854   -6.0709   22.5278 C   0  0  0  0  0  0
  -21.4025   -6.5617   23.8206 C   0  0  0  0  0  0
  -21.3656   -5.6779   24.9170 C   0  0  0  0  0  0
  -21.6049   -4.3045   24.7233 C   0  0  0  0  0  0
  -21.8817   -3.8123   23.4359 C   0  0  0  0  0  0
  -21.9193   -4.6934   22.3409 C   0  0  0  0  0  0
  -22.7876  -13.5247   21.1776 C   0  0  0  0  0  0
  -22.1657   -4.2121   21.0988 F   0  0  0  0  0  0
  -21.5631   -3.4528   25.7745 F   0  0  0  0  0  0
  -30.0325  -13.2662   20.4337 N   0  0  0  0  0  0
  -26.3018  -12.9291   20.3298 N   0  0  0  0  0  0
  -25.9315  -11.6461   20.5724 N   0  0  0  0  0  0
  -22.0505  -12.8279   22.0358 N   0  0  0  0  0  0
  -25.4321  -15.1852   20.4082 N   0  0  0  0  0  0
  -31.8284  -14.6369   20.1175 O   0  0  0  0  0  0
  -21.6646   -6.8847   21.4234 O   0  0  0  0  0  0
  -22.3577  -14.5550   20.6603 O   0  0  0  0  0  0
  -24.6109  -31.8716   23.2143 C   0  0  0  0  0  0
  -25.9026  -32.4813   23.8436 C   0  0  1  0  0  0
  -27.2245  -27.4750   20.0951 C   0  0  0  0  0  0
  -25.5900  -33.8614   24.2358 N   0  0  0  0  0  0
  -23.3966  -30.4972   21.5504 C   0  0  2  0  0  0
  -24.8424  -28.9677   20.1123 C   0  0  0  0  0  0
  -22.7395  -29.4695   22.4994 C   0  0  0  0  0  0
  -18.0288  -28.1350   22.8478 C   0  0  0  0  0  0
  -24.1494  -36.7305   23.2637 C   0  0  0  0  0  0
  -25.9219  -30.8487   21.3640 C   0  0  0  0  0  0
  -25.9982  -29.4890   20.7051 C   0  0  0  0  0  0
  -27.1967  -28.7481   20.6952 C   0  0  0  0  0  0
  -26.0598  -26.9512   19.5042 C   0  0  0  0  0  0
  -24.8637  -27.6959   19.5108 C   0  0  0  0  0  0
  -23.6026  -29.8296   20.1636 C   0  0  0  0  0  0
  -25.4104  -36.3092   24.0347 C   0  0  1  0  0  0
  -20.5868  -28.3666   23.1317 C   0  0  2  0  0  0
  -20.6792  -26.9420   22.5348 C   0  0  0  0  0  0
  -19.5767  -26.6441   21.5122 C   0  0  0  0  0  0
  -18.1963  -26.7920   22.1578 C   0  0  0  0  0  0
  -19.1531  -28.8822   23.2904 C   0  0  0  0  0  0
  -18.9438  -30.1412   23.8935 C   0  0  0  0  0  0
  -17.6446  -30.6568   24.0528 C   0  0  0  0  0  0
  -25.9027  -34.9460   23.5165 C   0  0  0  0  0  0
  -16.5347  -29.9040   23.6293 C   0  0  0  0  0  0
  -16.7277  -28.6442   23.0356 C   0  0  0  0  0  0
  -26.4479  -31.6584   25.0736 C   0  0  0  0  0  0
  -25.3760  -31.3677   26.1498 C   0  0  0  0  0  0
  -27.0308  -30.3035   24.6088 C   0  0  0  0  0  0
  -27.6087  -32.4276   25.7475 C   0  0  0  0  0  0
  -27.5573  -37.1819   24.8477 C   0  0  0  0  0  0
  -21.4126  -29.3065   22.3739 N   0  0  0  0  0  0
  -26.4306  -37.3761   23.9396 N   0  0  0  0  0  0
  -24.6602  -31.0862   22.1009 N   0  0  0  0  0  0
  -23.4194  -28.8217   23.2998 O   0  0  0  0  0  0
  -28.3697  -26.7309   20.0925 O   0  0  0  0  0  0
  -26.5585  -34.8908   22.4712 O   0  0  0  0  0  0
  -23.5325  -32.1467   23.7561 O   0  0  0  0  0  0
  -28.9137  -20.4256   21.5990 C   0  0  0  0  0  0
  -28.1480  -21.3856   20.9911 C   0  0  0  0  0  0
  -28.8637  -20.8109   22.9666 C   0  0  0  0  0  0
  -27.7784  -21.5467   19.5514 C   0  0  0  0  0  0
  -29.7348  -19.3244   20.9742 C   0  0  0  0  0  0
  -29.2220  -17.8919   21.2005 C   0  0  0  0  0  0
  -28.5138  -24.5032   21.0374 C   0  0  0  0  0  0
  -27.4040  -23.7125   21.7657 C   0  0  0  0  0  0
  -30.3021  -16.8814   20.7608 C   0  0  0  0  0  0
  -28.5672  -26.0138   21.3085 C   0  0  0  0  0  0
  -28.2461  -21.9540   23.1899 N   0  0  0  0  0  0
  -27.8612  -22.3432   21.9537 N   0  0  0  0  0  0
  -29.9152  -15.4808   20.9288 N   0  0  0  0  0  0
  -29.6437  -19.9591   24.2455 Cl  0  0  0  0  0  0
  -31.4736  -12.3676   19.1298 H   0  0  0  0  0  0
  -30.3153  -11.2721   19.8215 H   0  0  0  0  0  0
  -29.7346  -11.7501   17.4259 H   0  0  0  0  0  0
  -29.6773  -13.4618   17.7555 H   0  0  0  0  0  0
  -27.8150  -11.2988   18.8024 H   0  0  0  0  0  0
  -27.3737  -12.6312   17.7754 H   0  0  0  0  0  0
  -27.7054  -14.2425   19.5594 H   0  0  0  0  0  0
  -28.6742  -11.9375   21.3292 H   0  0  0  0  0  0
  -28.4742  -13.5762   21.8680 H   0  0  0  0  0  0
  -25.2730   -9.5676   22.4751 H   0  0  0  0  0  0
  -23.9956   -7.4656   22.7498 H   0  0  0  0  0  0
  -21.0808   -8.8762   19.8997 H   0  0  0  0  0  0
  -22.3658  -10.9641   19.6177 H   0  0  0  0  0  0
  -21.2040   -7.6130   23.9693 H   0  0  0  0  0  0
  -21.1470   -6.0521   25.9069 H   0  0  0  0  0  0
  -22.0605   -2.7588   23.2877 H   0  0  0  0  0  0
  -22.4093  -11.9941   22.4770 H   0  0  0  0  0  0
  -21.1141  -13.1361   22.2559 H   0  0  0  0  0  0
  -24.6614  -15.8336   20.5243 H   0  0  0  0  0  0
  -26.2782  -15.6288   20.0745 H   0  0  0  0  0  0
  -26.7077  -32.5536   23.1189 H   0  0  0  0  0  0
  -25.0080  -33.9769   25.0526 H   0  0  0  0  0  0
  -22.6832  -31.3120   21.4107 H   0  0  0  0  0  0
  -23.3729  -35.9674   23.3380 H   0  0  0  0  0  0
  -24.3594  -36.8834   22.2043 H   0  0  0  0  0  0
  -23.7311  -37.6557   23.6592 H   0  0  0  0  0  0
  -26.0478  -31.6202   20.6023 H   0  0  0  0  0  0
  -26.8044  -30.8894   21.9904 H   0  0  0  0  0  0
  -28.0939  -29.1450   21.1502 H   0  0  0  0  0  0
  -26.0758  -25.9676   19.0574 H   0  0  0  0  0  0
  -23.9724  -27.2874   19.0574 H   0  0  0  0  0  0
  -23.7060  -30.6032   19.4011 H   0  0  0  0  0  0
  -22.7277  -29.2475   19.8685 H   0  0  0  0  0  0
  -25.1288  -36.1984   25.0843 H   0  0  0  0  0  0
  -20.9946  -28.3245   24.1438 H   0  0  0  0  0  0
  -20.5738  -26.2235   23.3491 H   0  0  0  0  0  0
  -21.6659  -26.7520   22.1119 H   0  0  0  0  0  0
  -19.6934  -25.6403   21.1028 H   0  0  0  0  0  0
  -19.6684  -27.3342   20.6729 H   0  0  0  0  0  0
  -17.4236  -26.6719   21.3974 H   0  0  0  0  0  0
  -18.0373  -26.0007   22.8914 H   0  0  0  0  0  0
  -19.7905  -30.7230   24.2339 H   0  0  0  0  0  0
  -17.4982  -31.6272   24.5050 H   0  0  0  0  0  0
  -15.5346  -30.2958   23.7566 H   0  0  0  0  0  0
  -15.8671  -28.0749   22.7096 H   0  0  0  0  0  0
  -24.5912  -30.7039   25.7835 H   0  0  0  0  0  0
  -24.8958  -32.2822   26.4984 H   0  0  0  0  0  0
  -25.8130  -30.8809   27.0230 H   0  0  0  0  0  0
  -26.2834  -29.6789   24.1165 H   0  0  0  0  0  0
  -27.4133  -29.7273   25.4530 H   0  0  0  0  0  0
  -27.8652  -30.4381   23.9205 H   0  0  0  0  0  0
  -27.2733  -33.3556   26.2133 H   0  0  0  0  0  0
  -28.3846  -32.6888   25.0249 H   0  0  0  0  0  0
  -28.0815  -31.8341   26.5315 H   0  0  0  0  0  0
  -28.2650  -38.0051   24.7422 H   0  0  0  0  0  0
  -28.1014  -36.2591   24.6429 H   0  0  0  0  0  0
  -27.2289  -37.1622   25.8881 H   0  0  0  0  0  0
  -20.9288  -29.8815   21.6989 H   0  0  0  0  0  0
  -26.0219  -38.2860   24.1310 H   0  0  0  0  0  0
  -27.5153  -20.5867   19.1087 H   0  0  0  0  0  0
  -28.6055  -21.9669   18.9810 H   0  0  0  0  0  0
  -26.9164  -22.2025   19.4294 H   0  0  0  0  0  0
  -30.7461  -19.3900   21.3751 H   0  0  0  0  0  0
  -29.8600  -19.4960   19.9048 H   0  0  0  0  0  0
  -28.2923  -17.7397   20.6476 H   0  0  0  0  0  0
  -28.9959  -17.7450   22.2571 H   0  0  0  0  0  0
  -28.4479  -24.3209   19.9654 H   0  0  0  0  0  0
  -29.4802  -24.0960   21.3355 H   0  0  0  0  0  0
  -26.4687  -23.7206   21.2042 H   0  0  0  0  0  0
  -27.1884  -24.1519   22.7418 H   0  0  0  0  0  0
  -31.2210  -17.0582   21.3221 H   0  0  0  0  0  0
  -30.5463  -17.0528   19.7099 H   0  0  0  0  0  0
  -29.5591  -26.2731   21.6796 H   0  0  0  0  0  0
  -27.8748  -26.3023   22.1033 H   0  0  0  0  0  0
  -28.9659  -15.2746   21.2026 H   0  0  0  0  0  0
  1 25  1  0  0  0
  1 30  2  0  0  0
  1 83  1  0  0  0
  2  3  1  0  0  0
  2 25  1  0  0  0
  2 85  1  0  0  0
  2 86  1  0  0  0
  3  4  1  0  0  0
  3 87  1  0  0  0
  3 88  1  0  0  0
  4  5  1  0  0  0
  4 89  1  0  0  0
  4 90  1  0  0  0
  5  6  1  0  0  0
  5 26  1  0  0  0
  5 91  1  0  0  0
  6 25  1  0  0  0
  6 92  1  0  0  0
  6 93  1  0  0  0
  7  8  2  0  0  0
  7 26  1  0  0  0
  7 29  1  0  0  0
  8  9  1  0  0  0
  8 22  1  0  0  0
  9 10  1  0  0  0
  9 27  2  0  0  0
 10 11  2  0  0  0
 10 15  1  0  0  0
 11 12  1  0  0  0
 11 94  1  0  0  0
 12 13  2  0  0  0
 12 95  1  0  0  0
 13 14  1  0  0  0
 13 31  1  0  0  0
 14 15  2  0  0  0
 14 96  1  0  0  0
 15 97  1  0  0  0
 16 17  2  0  0  0
 16 21  1  0  0  0
 16 31  1  0  0  0
 17 18  1  0  0  0
 17 98  1  0  0  0
 18 19  2  0  0  0
 18 99  1  0  0  0
 19 20  1  0  0  0
 19 24  1  0  0  0
 20 21  2  0  0  0
 20100  1  0  0  0
 21 23  1  0  0  0
 22 28  1  0  0  0
 22 32  2  0  0  0
 26 27  1  0  0  0
 28101  1  0  0  0
 28102  1  0  0  0
 29103  1  0  0  0
 29104  1  0  0  0
 33 34  1  0  0  0
 33 66  1  0  0  0
 33 70  2  0  0  0
 34 36  1  0  0  0
 34 59  1  0  0  0
 34105  1  0  0  0
 35 44  2  0  0  0
 35 45  1  0  0  0
 35 68  1  0  0  0
 36 56  1  0  0  0
 36106  1  0  0  0
 37 39  1  0  0  0
 37 47  1  0  0  0
 37 66  1  0  0  0
 37107  1  0  0  0
 38 43  2  0  0  0
 38 46  1  0  0  0
 38 47  1  0  0  0
 39 64  1  0  0  0
 39 67  2  0  0  0
 40 52  1  0  0  0
 40 53  2  0  0  0
 40 58  1  0  0  0
 41108  1  0  0  0
 41109  1  0  0  0
 41110  1  0  0  0
 41 48  1  0  0  0
 42 43  1  0  0  0
 42 66  1  0  0  0
 42111  1  0  0  0
 42112  1  0  0  0
 43 44  1  0  0  0
 44113  1  0  0  0
 45 46  2  0  0  0
 45114  1  0  0  0
 46115  1  0  0  0
 47116  1  0  0  0
 47117  1  0  0  0
 48 56  1  0  0  0
 48 65  1  0  0  0
 48118  1  0  0  0
 49 50  1  0  0  0
 49 53  1  0  0  0
 49 64  1  0  0  0
 49119  1  0  0  0
 50 51  1  0  0  0
 50120  1  0  0  0
 50121  1  0  0  0
 51 52  1  0  0  0
 51122  1  0  0  0
 51123  1  0  0  0
 52124  1  0  0  0
 52125  1  0  0  0
 53 54  1  0  0  0
 54 55  2  0  0  0
 54126  1  0  0  0
 55 57  1  0  0  0
 55127  1  0  0  0
 56 69  2  0  0  0
 57 58  2  0  0  0
 57128  1  0  0  0
 58129  1  0  0  0
 59 60  1  0  0  0
 59 61  1  0  0  0
 59 62  1  0  0  0
 60130  1  0  0  0
 60131  1  0  0  0
 60132  1  0  0  0
 61133  1  0  0  0
 61134  1  0  0  0
 61135  1  0  0  0
 62136  1  0  0  0
 62137  1  0  0  0
 62138  1  0  0  0
 63 65  1  0  0  0
 63139  1  0  0  0
 63140  1  0  0  0
 63141  1  0  0  0
 64142  1  0  0  0
 65143  1  0  0  0
 68 80  1  0  0  0
 71 72  2  0  0  0
 71 73  1  0  0  0
 71 75  1  0  0  0
 72 74  1  0  0  0
 72 82  1  0  0  0
 73 81  2  0  0  0
 73 84  1  0  0  0
 74144  1  0  0  0
 74145  1  0  0  0
 74146  1  0  0  0
 75 76  1  0  0  0
 75147  1  0  0  0
 75148  1  0  0  0
 76 79  1  0  0  0
 76149  1  0  0  0
 76150  1  0  0  0
 77 78  1  0  0  0
 77 80  1  0  0  0
 77151  1  0  0  0
 77152  1  0  0  0
 78 82  1  0  0  0
 78153  1  0  0  0
 78154  1  0  0  0
 79 83  1  0  0  0
 79155  1  0  0  0
 79156  1  0  0  0
 80157  1  0  0  0
 80158  1  0  0  0
 81 82  1  0  0  0
 83159  1  0  0  0
M  ISO  4   1 100  68 101  80 101  83 100
M  END
> <chiral flag>
0

> <version>
0

> <s_m_source_file>
/data/baiqing/PycharmProjects/Reinvent-master-3.2/result/LINK_invent/BTK/process_docking_weight1_custom_sum_contain_oxygen_bond_distance_aromatic_linkinvent_7_9_3/rearranged_h_0029.sdf

> <i_m_source_file_index>
1

> <r_mmod_Potential_Energy-OPLS-2005>
-77.1794357299805

> <r_mmod_Stretch_Energy-OPLS-2005>
29.213285446167

> <r_mmod_Bend_Energy-OPLS-2005>
90.9498977661133

> <r_mmod_Torsional_Energy-OPLS-2005>
264.091552734375

> <r_mmod_Improper_Torsional_Energy-OPLS-2005>
7.26476669311523

> <r_mmod_Van_der_Waal_Energy-OPLS-2005>
123.624221801758

> <r_mmod_Electrostatic_Energy-OPLS-2005>
-390.717651367188

> <r_mmod_Solvation_Energy-OPLS-2005>
-213.235275268555

> <b_mmod_Minimization_Converged-OPLS-2005>
0

> <r_mmod_RMS_Derivative-OPLS-2005>
3.36264586448669

$$$$
1
                    3D
 Structure written by MMmdl.
166174  0  0  1  0            999 V2000
  -30.8400  -14.2514   20.7740 C   0  0  0  0  0  0
  -30.4066  -12.2846   19.3583 C   0  0  0  0  0  0
  -29.4667  -12.5493   18.1726 C   0  0  0  0  0  0
  -27.9996  -12.3839   18.6022 C   0  0  0  0  0  0
  -27.6662  -13.2016   19.8752 C   0  0  2  0  0  0
  -28.7044  -12.9454   20.9898 C   0  0  0  0  0  0
  -25.2605  -13.8158   20.5658 C   0  0  0  0  0  0
  -24.1848  -13.0442   20.9154 C   0  0  0  0  0  0
  -24.6388  -11.6903   20.8713 C   0  0  0  0  0  0
  -23.9050  -10.4294   21.0394 C   0  0  0  0  0  0
  -24.3602   -9.4215   21.9182 C   0  0  0  0  0  0
  -23.6281   -8.2249   22.0762 C   0  0  0  0  0  0
  -22.4269   -8.0276   21.3547 C   0  0  0  0  0  0
  -21.9902   -9.0240   20.4641 C   0  0  0  0  0  0
  -22.7219  -10.2126   20.3045 C   0  0  0  0  0  0
  -21.6854   -6.0731   22.5274 C   0  0  0  0  0  0
  -21.4009   -6.5632   23.8204 C   0  0  0  0  0  0
  -21.3663   -5.6791   24.9170 C   0  0  0  0  0  0
  -21.6050   -4.3054   24.7226 C   0  0  0  0  0  0
  -21.8820   -3.8143   23.4347 C   0  0  0  0  0  0
  -21.9186   -4.6958   22.3399 C   0  0  0  0  0  0
  -22.7871  -13.5244   21.1815 C   0  0  0  0  0  0
  -22.1657   -4.2143   21.0980 F   0  0  0  0  0  0
  -21.5636   -3.4539   25.7741 F   0  0  0  0  0  0
  -30.0579  -13.1941   20.4561 N   0  0  0  0  0  0
  -26.3044  -12.9318   20.3357 N   0  0  0  0  0  0
  -25.9313  -11.6482   20.5741 N   0  0  0  0  0  0
  -22.0508  -12.8237   22.0372 N   0  0  0  0  0  0
  -25.4334  -15.1873   20.4085 N   0  0  0  0  0  0
  -31.7447  -14.6834   20.0516 O   0  0  0  0  0  0
  -21.6638   -6.8871   21.4239 O   0  0  0  0  0  0
  -22.3561  -14.5559   20.6678 O   0  0  0  0  0  0
  -24.6078  -31.8690   23.2138 C   0  0  0  0  0  0
  -25.8992  -32.4827   23.8433 C   0  0  1  0  0  0
  -27.2484  -27.4899   20.0939 C   0  0  0  0  0  0
  -25.5873  -33.8630   24.2363 N   0  0  0  0  0  0
  -23.3942  -30.4917   21.5502 C   0  0  2  0  0  0
  -24.8456  -28.9592   20.1197 C   0  0  0  0  0  0
  -22.7360  -29.4666   22.5001 C   0  0  0  0  0  0
  -18.0262  -28.1388   22.8496 C   0  0  0  0  0  0
  -24.1478  -36.7317   23.2650 C   0  0  0  0  0  0
  -25.9152  -30.8546   21.3562 C   0  0  0  0  0  0
  -25.9979  -29.4894   20.7134 C   0  0  0  0  0  0
  -27.2026  -28.7608   20.7030 C   0  0  0  0  0  0
  -26.0884  -26.9631   19.4935 C   0  0  0  0  0  0
  -24.8815  -27.6903   19.5109 C   0  0  0  0  0  0
  -23.6014  -29.8154   20.1677 C   0  0  0  0  0  0
  -25.4100  -36.3109   24.0345 C   0  0  1  0  0  0
  -20.5837  -28.3672   23.1317 C   0  0  2  0  0  0
  -20.6750  -26.9415   22.5405 C   0  0  0  0  0  0
  -19.5724  -26.6396   21.5205 C   0  0  0  0  0  0
  -18.1901  -26.7941   22.1610 C   0  0  0  0  0  0
  -19.1508  -28.8848   23.2904 C   0  0  0  0  0  0
  -18.9437  -30.1456   23.8920 C   0  0  0  0  0  0
  -17.6440  -30.6592   24.0573 C   0  0  0  0  0  0
  -25.9025  -34.9472   23.5149 C   0  0  0  0  0  0
  -16.5333  -29.9091   23.6340 C   0  0  0  0  0  0
  -16.7248  -28.6508   23.0371 C   0  0  0  0  0  0
  -26.4469  -31.6594   25.0730 C   0  0  0  0  0  0
  -25.3779  -31.3617   26.1492 C   0  0  0  0  0  0
  -27.0354  -30.3077   24.6049 C   0  0  0  0  0  0
  -27.6026  -32.4337   25.7501 C   0  0  0  0  0  0
  -27.5572  -37.1813   24.8472 C   0  0  0  0  0  0
  -21.4096  -29.3039   22.3732 N   0  0  0  0  0  0
  -26.4289  -37.3786   23.9409 N   0  0  0  0  0  0
  -24.6566  -31.0852   22.0998 N   0  0  0  0  0  0
  -23.4153  -28.8200   23.3021 O   0  0  0  0  0  0
  -28.4154  -26.7753   20.0322 O   0  0  0  0  0  0
  -26.5576  -34.8905   22.4700 O   0  0  0  0  0  0
  -23.5287  -32.1410   23.7569 O   0  0  0  0  0  0
  -29.6189  -23.9860   21.4265 C   0  0  0  0  0  0
  -27.3634  -24.6391   22.0789 C   0  0  0  0  0  0
  -28.6517  -24.9874   21.6273 C   0  0  0  0  0  0
  -29.3002  -22.6346   21.6585 C   0  0  0  0  0  0
  -28.0072  -22.2803   22.1126 C   0  0  0  0  0  0
  -27.0352  -23.2912   22.3151 C   0  0  0  0  0  0
  -30.3583  -21.5800   21.3998 C   0  0  0  0  0  0
  -28.9803  -26.4259   21.2913 C   0  0  0  0  0  0
  -29.7319  -17.2394   23.2963 C   0  0  0  0  0  0
  -29.3314  -18.7110   23.1713 C   0  0  0  0  0  0
  -31.1191  -17.0012   22.6779 C   0  0  0  0  0  0
  -27.9398  -19.0398   23.7268 C   0  0  0  0  0  0
  -31.5910  -15.5455   22.7698 C   0  0  0  0  0  0
  -27.6458  -20.5446   23.6606 C   0  0  0  0  0  0
  -30.7029  -14.6436   22.0451 N   0  0  0  0  0  0
  -27.7008  -20.9557   22.2994 O   0  0  0  0  0  0
  -25.4239  -22.8996   22.8050 Cl  0  0  0  0  0  0
  -31.4465  -12.3926   19.0455 H   0  0  0  0  0  0
  -30.3051  -11.2525   19.6978 H   0  0  0  0  0  0
  -29.6954  -11.8710   17.3493 H   0  0  0  0  0  0
  -29.6266  -13.5595   17.7926 H   0  0  0  0  0  0
  -27.8188  -11.3235   18.7819 H   0  0  0  0  0  0
  -27.3353  -12.6730   17.7870 H   0  0  0  0  0  0
  -27.7253  -14.2558   19.6041 H   0  0  0  0  0  0
  -28.6462  -11.9129   21.3380 H   0  0  0  0  0  0
  -28.4576  -13.5668   21.8504 H   0  0  0  0  0  0
  -25.2744   -9.5699   22.4758 H   0  0  0  0  0  0
  -23.9987   -7.4655   22.7499 H   0  0  0  0  0  0
  -21.0834   -8.8745   19.8950 H   0  0  0  0  0  0
  -22.3668  -10.9657   19.6154 H   0  0  0  0  0  0
  -21.2003   -7.6141   23.9705 H   0  0  0  0  0  0
  -21.1487   -6.0524   25.9072 H   0  0  0  0  0  0
  -22.0599   -2.7604   23.2847 H   0  0  0  0  0  0
  -22.4123  -11.9891   22.4745 H   0  0  0  0  0  0
  -21.1127  -13.1263   22.2574 H   0  0  0  0  0  0
  -24.6716  -15.8463   20.5247 H   0  0  0  0  0  0
  -26.2981  -15.6274   20.1168 H   0  0  0  0  0  0
  -26.7064  -32.5561   23.1221 H   0  0  0  0  0  0
  -25.0098  -33.9824   25.0557 H   0  0  0  0  0  0
  -22.6791  -31.3045   21.4090 H   0  0  0  0  0  0
  -23.3735  -35.9655   23.3314 H   0  0  0  0  0  0
  -24.3573  -36.8935   22.2065 H   0  0  0  0  0  0
  -23.7231  -37.6522   23.6667 H   0  0  0  0  0  0
  -26.0140  -31.6177   20.5828 H   0  0  0  0  0  0
  -26.8087  -30.9179   21.9655 H   0  0  0  0  0  0
  -28.0956  -29.1826   21.1441 H   0  0  0  0  0  0
  -26.1232  -25.9920   19.0201 H   0  0  0  0  0  0
  -23.9963  -27.2743   19.0502 H   0  0  0  0  0  0
  -23.6966  -30.5849   19.4004 H   0  0  0  0  0  0
  -22.7315  -29.2211   19.8819 H   0  0  0  0  0  0
  -25.1275  -36.1993   25.0842 H   0  0  0  0  0  0
  -20.9937  -28.3255   24.1439 H   0  0  0  0  0  0
  -20.5676  -26.2283   23.3587 H   0  0  0  0  0  0
  -21.6618  -26.7469   22.1187 H   0  0  0  0  0  0
  -19.6876  -25.6310   21.1233 H   0  0  0  0  0  0
  -19.6668  -27.3215   20.6741 H   0  0  0  0  0  0
  -17.4168  -26.6714   21.4015 H   0  0  0  0  0  0
  -18.0300  -26.0075   22.9004 H   0  0  0  0  0  0
  -19.7908  -30.7271   24.2301 H   0  0  0  0  0  0
  -17.4987  -31.6280   24.5172 H   0  0  0  0  0  0
  -15.5335  -30.3007   23.7647 H   0  0  0  0  0  0
  -15.8642  -28.0828   22.7099 H   0  0  0  0  0  0
  -24.5966  -30.6952   25.7815 H   0  0  0  0  0  0
  -24.8968  -32.2744   26.5017 H   0  0  0  0  0  0
  -25.8200  -30.8735   27.0189 H   0  0  0  0  0  0
  -26.2895  -29.6765   24.1209 H   0  0  0  0  0  0
  -27.4305  -29.7357   25.4456 H   0  0  0  0  0  0
  -27.8622  -30.4467   23.9080 H   0  0  0  0  0  0
  -27.2634  -33.3631   26.2085 H   0  0  0  0  0  0
  -28.3845  -32.6916   25.0348 H   0  0  0  0  0  0
  -28.0686  -31.8467   26.5424 H   0  0  0  0  0  0
  -28.2581  -38.0121   24.7516 H   0  0  0  0  0  0
  -28.1076  -36.2640   24.6313 H   0  0  0  0  0  0
  -27.2273  -37.1479   25.8874 H   0  0  0  0  0  0
  -20.9241  -29.8752   21.6961 H   0  0  0  0  0  0
  -26.0173  -38.2863   24.1412 H   0  0  0  0  0  0
  -30.6034  -24.2537   21.0673 H   0  0  0  0  0  0
  -26.6124  -25.4045   22.2125 H   0  0  0  0  0  0
  -31.2269  -22.0011   20.8933 H   0  0  0  0  0  0
  -29.9605  -20.7870   20.7672 H   0  0  0  0  0  0
  -30.6988  -21.1489   22.3406 H   0  0  0  0  0  0
  -30.0610  -26.5555   21.2331 H   0  0  0  0  0  0
  -28.6450  -27.0619   22.1129 H   0  0  0  0  0  0
  -28.9866  -16.6150   22.8022 H   0  0  0  0  0  0
  -29.7411  -16.9471   24.3477 H   0  0  0  0  0  0
  -29.3643  -18.9849   22.1172 H   0  0  0  0  0  0
  -30.0738  -19.3276   23.6796 H   0  0  0  0  0  0
  -31.8507  -17.6377   23.1786 H   0  0  0  0  0  0
  -31.1164  -17.3146   21.6323 H   0  0  0  0  0  0
  -27.8694  -18.7076   24.7631 H   0  0  0  0  0  0
  -27.1771  -18.4914   23.1723 H   0  0  0  0  0  0
  -31.6282  -15.2310   23.8137 H   0  0  0  0  0  0
  -32.6123  -15.4598   22.3936 H   0  0  0  0  0  0
  -28.3684  -21.0913   24.2707 H   0  0  0  0  0  0
  -26.6572  -20.7442   24.0733 H   0  0  0  0  0  0
  -29.9841  -14.1776   22.5796 H   0  0  0  0  0  0
  1 25  1  0  0  0
  1 30  2  0  0  0
  1 85  1  0  0  0
  2  3  1  0  0  0
  2 25  1  0  0  0
  2 88  1  0  0  0
  2 89  1  0  0  0
  3  4  1  0  0  0
  3 90  1  0  0  0
  3 91  1  0  0  0
  4  5  1  0  0  0
  4 92  1  0  0  0
  4 93  1  0  0  0
  5  6  1  0  0  0
  5 26  1  0  0  0
  5 94  1  0  0  0
  6 25  1  0  0  0
  6 95  1  0  0  0
  6 96  1  0  0  0
  7  8  2  0  0  0
  7 26  1  0  0  0
  7 29  1  0  0  0
  8  9  1  0  0  0
  8 22  1  0  0  0
  9 10  1  0  0  0
  9 27  2  0  0  0
 10 11  2  0  0  0
 10 15  1  0  0  0
 11 12  1  0  0  0
 11 97  1  0  0  0
 12 13  2  0  0  0
 12 98  1  0  0  0
 13 14  1  0  0  0
 13 31  1  0  0  0
 14 15  2  0  0  0
 14 99  1  0  0  0
 15100  1  0  0  0
 16 17  2  0  0  0
 16 21  1  0  0  0
 16 31  1  0  0  0
 17 18  1  0  0  0
 17101  1  0  0  0
 18 19  2  0  0  0
 18102  1  0  0  0
 19 20  1  0  0  0
 19 24  1  0  0  0
 20 21  2  0  0  0
 20103  1  0  0  0
 21 23  1  0  0  0
 22 28  1  0  0  0
 22 32  2  0  0  0
 26 27  1  0  0  0
 28104  1  0  0  0
 28105  1  0  0  0
 29106  1  0  0  0
 29107  1  0  0  0
 33 34  1  0  0  0
 33 66  1  0  0  0
 33 70  2  0  0  0
 34 36  1  0  0  0
 34 59  1  0  0  0
 34108  1  0  0  0
 35 44  2  0  0  0
 35 45  1  0  0  0
 35 68  1  0  0  0
 36 56  1  0  0  0
 36109  1  0  0  0
 37 39  1  0  0  0
 37 47  1  0  0  0
 37 66  1  0  0  0
 37110  1  0  0  0
 38 43  2  0  0  0
 38 46  1  0  0  0
 38 47  1  0  0  0
 39 64  1  0  0  0
 39 67  2  0  0  0
 40 52  1  0  0  0
 40 53  2  0  0  0
 40 58  1  0  0  0
 41111  1  0  0  0
 41112  1  0  0  0
 41113  1  0  0  0
 41 48  1  0  0  0
 42 43  1  0  0  0
 42 66  1  0  0  0
 42114  1  0  0  0
 42115  1  0  0  0
 43 44  1  0  0  0
 44116  1  0  0  0
 45 46  2  0  0  0
 45117  1  0  0  0
 46118  1  0  0  0
 47119  1  0  0  0
 47120  1  0  0  0
 48 56  1  0  0  0
 48 65  1  0  0  0
 48121  1  0  0  0
 49 50  1  0  0  0
 49 53  1  0  0  0
 49 64  1  0  0  0
 49122  1  0  0  0
 50 51  1  0  0  0
 50123  1  0  0  0
 50124  1  0  0  0
 51 52  1  0  0  0
 51125  1  0  0  0
 51126  1  0  0  0
 52127  1  0  0  0
 52128  1  0  0  0
 53 54  1  0  0  0
 54 55  2  0  0  0
 54129  1  0  0  0
 55 57  1  0  0  0
 55130  1  0  0  0
 56 69  2  0  0  0
 57 58  2  0  0  0
 57131  1  0  0  0
 58132  1  0  0  0
 59 60  1  0  0  0
 59 61  1  0  0  0
 59 62  1  0  0  0
 60133  1  0  0  0
 60134  1  0  0  0
 60135  1  0  0  0
 61136  1  0  0  0
 61137  1  0  0  0
 61138  1  0  0  0
 62139  1  0  0  0
 62140  1  0  0  0
 62141  1  0  0  0
 63 65  1  0  0  0
 63142  1  0  0  0
 63143  1  0  0  0
 63144  1  0  0  0
 64145  1  0  0  0
 65146  1  0  0  0
 68 78  1  0  0  0
 71 73  2  0  0  0
 71 74  1  0  0  0
 71147  1  0  0  0
 72 73  1  0  0  0
 72 76  2  0  0  0
 72148  1  0  0  0
 73 78  1  0  0  0
 74 75  2  0  0  0
 74 77  1  0  0  0
 75 76  1  0  0  0
 75 86  1  0  0  0
 76 87  1  0  0  0
 77149  1  0  0  0
 77150  1  0  0  0
 77151  1  0  0  0
 78152  1  0  0  0
 78153  1  0  0  0
 79 80  1  0  0  0
 79 81  1  0  0  0
 79154  1  0  0  0
 79155  1  0  0  0
 80 82  1  0  0  0
 80156  1  0  0  0
 80157  1  0  0  0
 81 83  1  0  0  0
 81158  1  0  0  0
 81159  1  0  0  0
 82 84  1  0  0  0
 82160  1  0  0  0
 82161  1  0  0  0
 83 85  1  0  0  0
 83162  1  0  0  0
 83163  1  0  0  0
 84 86  1  0  0  0
 84164  1  0  0  0
 84165  1  0  0  0
 85166  1  0  0  0
M  ISO  4   1 100  68 101  78 101  85 100
M  END
> <chiral flag>
0

> <version>
0

> <s_m_source_file>
/data/baiqing/PycharmProjects/Reinvent-master-3.2/result/LINK_invent/BTK/process_docking_weight1_custom_sum_contain_oxygen_bond_distance_aromatic_linkinvent_7_9_3/rearranged_h_0029.sdf

> <i_m_source_file_index>
2

> <r_mmod_Potential_Energy-OPLS-2005>
-38.6818771362305

> <r_mmod_Stretch_Energy-OPLS-2005>
29.8453884124756

> <r_mmod_Bend_Energy-OPLS-2005>
83.1669921875

> <r_mmod_Torsional_Energy-OPLS-2005>
262.659912109375

> <r_mmod_Improper_Torsional_Energy-OPLS-2005>
4.95387268066406

> <r_mmod_Van_der_Waal_Energy-OPLS-2005>
142.718627929688

> <r_mmod_Electrostatic_Energy-OPLS-2005>
-370.671356201172

> <r_mmod_Solvation_Energy-OPLS-2005>
-200.01676940918

> <b_mmod_Minimization_Converged-OPLS-2005>
0

> <r_mmod_RMS_Derivative-OPLS-2005>
1.49452519416809

$$$$
2
                    3D
 Structure written by MMmdl.
165173  0  0  1  0            999 V2000
  -30.7572  -14.3796   20.6582 C   0  0  0  0  0  0
  -30.4165  -12.2830   19.4032 C   0  0  0  0  0  0
  -29.4853  -12.5188   18.1983 C   0  0  0  0  0  0
  -28.0080  -12.3831   18.6127 C   0  0  0  0  0  0
  -27.6668  -13.2042   19.8843 C   0  0  2  0  0  0
  -28.7056  -12.9431   20.9985 C   0  0  0  0  0  0
  -25.2566  -13.8138   20.5626 C   0  0  0  0  0  0
  -24.1822  -13.0422   20.9134 C   0  0  0  0  0  0
  -24.6392  -11.6896   20.8729 C   0  0  0  0  0  0
  -23.9060  -10.4285   21.0404 C   0  0  0  0  0  0
  -24.3614   -9.4202   21.9184 C   0  0  0  0  0  0
  -23.6290   -8.2239   22.0755 C   0  0  0  0  0  0
  -22.4272   -8.0280   21.3544 C   0  0  0  0  0  0
  -21.9907   -9.0250   20.4644 C   0  0  0  0  0  0
  -22.7233  -10.2129   20.3050 C   0  0  0  0  0  0
  -21.6850   -6.0734   22.5278 C   0  0  0  0  0  0
  -21.4012   -6.5640   23.8213 C   0  0  0  0  0  0
  -21.3658   -5.6793   24.9178 C   0  0  0  0  0  0
  -21.6046   -4.3055   24.7229 C   0  0  0  0  0  0
  -21.8819   -3.8146   23.4351 C   0  0  0  0  0  0
  -21.9193   -4.6963   22.3401 C   0  0  0  0  0  0
  -22.7850  -13.5222   21.1817 C   0  0  0  0  0  0
  -22.1661   -4.2147   21.0979 F   0  0  0  0  0  0
  -21.5631   -3.4538   25.7745 F   0  0  0  0  0  0
  -30.0495  -13.2355   20.4625 N   0  0  0  0  0  0
  -26.3045  -12.9331   20.3411 N   0  0  0  0  0  0
  -25.9328  -11.6487   20.5794 N   0  0  0  0  0  0
  -22.0506  -12.8217   22.0394 N   0  0  0  0  0  0
  -25.4218  -15.1842   20.3959 N   0  0  0  0  0  0
  -31.8037  -14.6284   20.0524 O   0  0  0  0  0  0
  -21.6635   -6.8878   21.4243 O   0  0  0  0  0  0
  -22.3523  -14.5528   20.6678 O   0  0  0  0  0  0
  -24.6102  -31.8700   23.2110 C   0  0  0  0  0  0
  -25.9011  -32.4835   23.8394 C   0  0  1  0  0  0
  -27.2409  -27.4717   20.0982 C   0  0  0  0  0  0
  -25.5890  -33.8631   24.2337 N   0  0  0  0  0  0
  -23.3965  -30.4918   21.5514 C   0  0  2  0  0  0
  -24.8450  -28.9562   20.1201 C   0  0  0  0  0  0
  -22.7384  -29.4658   22.5018 C   0  0  0  0  0  0
  -18.0264  -28.1359   22.8486 C   0  0  0  0  0  0
  -24.1486  -36.7323   23.2639 C   0  0  0  0  0  0
  -25.9200  -30.8484   21.3560 C   0  0  0  0  0  0
  -26.0014  -29.4828   20.7100 C   0  0  0  0  0  0
  -27.2044  -28.7479   20.6938 C   0  0  0  0  0  0
  -26.0723  -26.9455   19.5071 C   0  0  0  0  0  0
  -24.8727  -27.6846   19.5170 C   0  0  0  0  0  0
  -23.6041  -29.8192   20.1672 C   0  0  0  0  0  0
  -25.4106  -36.3122   24.0340 C   0  0  1  0  0  0
  -20.5848  -28.3637   23.1328 C   0  0  2  0  0  0
  -20.6754  -26.9377   22.5417 C   0  0  0  0  0  0
  -19.5737  -26.6377   21.5199 C   0  0  0  0  0  0
  -18.1912  -26.7904   22.1612 C   0  0  0  0  0  0
  -19.1510  -28.8814   23.2901 C   0  0  0  0  0  0
  -18.9450  -30.1424   23.8914 C   0  0  0  0  0  0
  -17.6453  -30.6574   24.0553 C   0  0  0  0  0  0
  -25.9029  -34.9484   23.5135 C   0  0  0  0  0  0
  -16.5343  -29.9077   23.6312 C   0  0  0  0  0  0
  -16.7257  -28.6488   23.0342 C   0  0  0  0  0  0
  -26.4462  -31.6604   25.0706 C   0  0  0  0  0  0
  -25.3751  -31.3692   26.1470 C   0  0  0  0  0  0
  -27.0280  -30.3055   24.6033 C   0  0  0  0  0  0
  -27.6043  -32.4313   25.7477 C   0  0  0  0  0  0
  -27.5586  -37.1817   24.8466 C   0  0  0  0  0  0
  -21.4116  -29.3021   22.3761 N   0  0  0  0  0  0
  -26.4299  -37.3798   23.9410 N   0  0  0  0  0  0
  -24.6606  -31.0830   22.0993 N   0  0  0  0  0  0
  -23.4174  -28.8200   23.3043 O   0  0  0  0  0  0
  -28.4207  -26.7731   20.0590 O   0  0  0  0  0  0
  -26.5584  -34.8934   22.4688 O   0  0  0  0  0  0
  -23.5309  -32.1444   23.7536 O   0  0  0  0  0  0
  -31.7638  -17.1857   21.5630 C   0  0  0  0  0  0
  -29.5436  -18.8507   21.9791 C   0  0  0  0  0  0
  -31.9434  -18.5845   21.6280 C   0  0  0  0  0  0
  -30.8201  -19.4277   21.8146 C   0  0  0  0  0  0
  -30.4741  -16.6141   21.6730 C   0  0  0  0  0  0
  -29.3697  -17.4562   21.9190 C   0  0  0  0  0  0
  -33.3460  -19.1512   21.4812 C   0  0  0  0  0  0
  -30.9408  -20.9451   21.8270 C   0  0  0  0  0  0
  -31.1131  -21.5213   23.2440 C   0  0  0  0  0  0
  -28.8169  -25.8793   22.3001 C   0  0  0  0  0  0
  -31.2620  -23.0555   23.2601 C   0  0  0  0  0  0
  -30.1244  -25.2107   22.7732 C   0  0  0  0  0  0
  -28.4438  -25.5759   20.8311 C   0  0  0  0  0  0
  -30.2365  -15.2166   21.5670 N   0  0  0  0  0  0
  -29.9867  -23.7497   22.9712 N   0  3  0  0  0  0
  -27.7885  -16.7916   22.1239 Cl  0  0  0  0  0  0
  -31.4603  -12.3761   19.0975 H   0  0  0  0  0  0
  -30.3103  -11.2622   19.7734 H   0  0  0  0  0  0
  -29.7139  -11.8103   17.4011 H   0  0  0  0  0  0
  -29.6608  -13.5133   17.7853 H   0  0  0  0  0  0
  -27.8064  -11.3254   18.7887 H   0  0  0  0  0  0
  -27.3574  -12.6806   17.7895 H   0  0  0  0  0  0
  -27.7247  -14.2589   19.6144 H   0  0  0  0  0  0
  -28.6671  -11.8971   21.3066 H   0  0  0  0  0  0
  -28.4554  -13.5112   21.8949 H   0  0  0  0  0  0
  -25.2763   -9.5682   22.4753 H   0  0  0  0  0  0
  -24.0002   -7.4632   22.7475 H   0  0  0  0  0  0
  -21.0838   -8.8764   19.8949 H   0  0  0  0  0  0
  -22.3692  -10.9667   19.6154 H   0  0  0  0  0  0
  -21.1999   -7.6147   23.9716 H   0  0  0  0  0  0
  -21.1481   -6.0523   25.9080 H   0  0  0  0  0  0
  -22.0599   -2.7609   23.2850 H   0  0  0  0  0  0
  -22.4132  -11.9878   22.4766 H   0  0  0  0  0  0
  -21.1126  -13.1239   22.2613 H   0  0  0  0  0  0
  -24.6654  -15.8422   20.5431 H   0  0  0  0  0  0
  -26.3059  -15.6354   20.1974 H   0  0  0  0  0  0
  -26.7091  -32.5569   23.1178 H   0  0  0  0  0  0
  -25.0069  -33.9788   25.0504 H   0  0  0  0  0  0
  -22.6831  -31.3059   21.4107 H   0  0  0  0  0  0
  -23.3741  -35.9661   23.3313 H   0  0  0  0  0  0
  -24.3593  -36.8920   22.2054 H   0  0  0  0  0  0
  -23.7238  -37.6533   23.6640 H   0  0  0  0  0  0
  -26.0207  -31.6128   20.5837 H   0  0  0  0  0  0
  -26.8118  -30.9091   21.9682 H   0  0  0  0  0  0
  -28.1026  -29.1535   21.1384 H   0  0  0  0  0  0
  -26.0935  -25.9763   19.0289 H   0  0  0  0  0  0
  -23.9850  -27.2733   19.0568 H   0  0  0  0  0  0
  -23.7100  -30.5919   19.4043 H   0  0  0  0  0  0
  -22.7284  -29.2368   19.8750 H   0  0  0  0  0  0
  -25.1275  -36.2002   25.0832 H   0  0  0  0  0  0
  -20.9939  -28.3202   24.1448 H   0  0  0  0  0  0
  -20.5641  -26.2249   23.3601 H   0  0  0  0  0  0
  -21.6633  -26.7417   22.1222 H   0  0  0  0  0  0
  -19.6900  -25.6291   21.1218 H   0  0  0  0  0  0
  -19.6680  -27.3202   20.6736 H   0  0  0  0  0  0
  -17.4181  -26.6652   21.4014 H   0  0  0  0  0  0
  -18.0306  -26.0038   22.9006 H   0  0  0  0  0  0
  -19.7932  -30.7209   24.2321 H   0  0  0  0  0  0
  -17.5017  -31.6262   24.5140 H   0  0  0  0  0  0
  -15.5343  -30.2984   23.7629 H   0  0  0  0  0  0
  -15.8654  -28.0811   22.7053 H   0  0  0  0  0  0
  -24.5913  -30.7046   25.7823 H   0  0  0  0  0  0
  -24.8955  -32.2842   26.4952 H   0  0  0  0  0  0
  -25.8121  -30.8850   27.0210 H   0  0  0  0  0  0
  -26.2800  -29.6836   24.1103 H   0  0  0  0  0  0
  -27.4093  -29.7264   25.4450 H   0  0  0  0  0  0
  -27.8614  -30.4386   23.9128 H   0  0  0  0  0  0
  -27.2656  -33.3591   26.2100 H   0  0  0  0  0  0
  -28.3840  -32.6913   25.0306 H   0  0  0  0  0  0
  -28.0727  -31.8410   26.5364 H   0  0  0  0  0  0
  -28.2604  -38.0117   24.7515 H   0  0  0  0  0  0
  -28.1077  -36.2645   24.6281 H   0  0  0  0  0  0
  -27.2304  -37.1458   25.8871 H   0  0  0  0  0  0
  -20.9274  -29.8769   21.7007 H   0  0  0  0  0  0
  -26.0192  -38.2877   24.1409 H   0  0  0  0  0  0
  -32.6275  -16.5524   21.4181 H   0  0  0  0  0  0
  -28.6808  -19.4801   22.1415 H   0  0  0  0  0  0
  -34.0990  -18.3623   21.4915 H   0  0  0  0  0  0
  -33.5771  -19.8344   22.2983 H   0  0  0  0  0  0
  -33.4460  -19.6917   20.5396 H   0  0  0  0  0  0
  -30.0437  -21.3576   21.3636 H   0  0  0  0  0  0
  -31.7627  -21.2619   21.1846 H   0  0  0  0  0  0
  -32.0067  -21.0824   23.6899 H   0  0  0  0  0  0
  -30.2821  -21.2182   23.8822 H   0  0  0  0  0  0
  -28.9343  -26.9566   22.4193 H   0  0  0  0  0  0
  -27.9920  -25.6093   22.9606 H   0  0  0  0  0  0
  -32.0246  -23.3537   22.5392 H   0  0  0  0  0  0
  -31.6214  -23.3782   24.2386 H   0  0  0  0  0  0
  -30.4386  -25.6574   23.7178 H   0  0  0  0  0  0
  -30.9197  -25.4211   22.0557 H   0  0  0  0  0  0
  -27.4979  -25.0335   20.7829 H   0  0  0  0  0  0
  -29.1823  -24.9155   20.3771 H   0  0  0  0  0  0
  -29.3705  -14.8990   21.9756 H   0  0  0  0  0  0
  -29.3481  -23.5814   23.7336 H   0  0  0  0  0  0
  -29.5870  -23.3474   22.1402 H   0  0  0  0  0  0
  1 25  1  0  0  0
  1 30  2  0  0  0
  1 84  1  0  0  0
  2  3  1  0  0  0
  2 25  1  0  0  0
  2 87  1  0  0  0
  2 88  1  0  0  0
  3  4  1  0  0  0
  3 89  1  0  0  0
  3 90  1  0  0  0
  4  5  1  0  0  0
  4 91  1  0  0  0
  4 92  1  0  0  0
  5  6  1  0  0  0
  5 26  1  0  0  0
  5 93  1  0  0  0
  6 25  1  0  0  0
  6 94  1  0  0  0
  6 95  1  0  0  0
  7  8  2  0  0  0
  7 26  1  0  0  0
  7 29  1  0  0  0
  8  9  1  0  0  0
  8 22  1  0  0  0
  9 10  1  0  0  0
  9 27  2  0  0  0
 10 11  2  0  0  0
 10 15  1  0  0  0
 11 12  1  0  0  0
 11 96  1  0  0  0
 12 13  2  0  0  0
 12 97  1  0  0  0
 13 14  1  0  0  0
 13 31  1  0  0  0
 14 15  2  0  0  0
 14 98  1  0  0  0
 15 99  1  0  0  0
 16 17  2  0  0  0
 16 21  1  0  0  0
 16 31  1  0  0  0
 17 18  1  0  0  0
 17100  1  0  0  0
 18 19  2  0  0  0
 18101  1  0  0  0
 19 20  1  0  0  0
 19 24  1  0  0  0
 20 21  2  0  0  0
 20102  1  0  0  0
 21 23  1  0  0  0
 22 28  1  0  0  0
 22 32  2  0  0  0
 26 27  1  0  0  0
 28103  1  0  0  0
 28104  1  0  0  0
 29105  1  0  0  0
 29106  1  0  0  0
 33 34  1  0  0  0
 33 66  1  0  0  0
 33 70  2  0  0  0
 34 36  1  0  0  0
 34 59  1  0  0  0
 34107  1  0  0  0
 35 44  2  0  0  0
 35 45  1  0  0  0
 35 68  1  0  0  0
 36 56  1  0  0  0
 36108  1  0  0  0
 37 39  1  0  0  0
 37 47  1  0  0  0
 37 66  1  0  0  0
 37109  1  0  0  0
 38 43  2  0  0  0
 38 46  1  0  0  0
 38 47  1  0  0  0
 39 64  1  0  0  0
 39 67  2  0  0  0
 40 52  1  0  0  0
 40 53  2  0  0  0
 40 58  1  0  0  0
 41110  1  0  0  0
 41111  1  0  0  0
 41112  1  0  0  0
 41 48  1  0  0  0
 42 43  1  0  0  0
 42 66  1  0  0  0
 42113  1  0  0  0
 42114  1  0  0  0
 43 44  1  0  0  0
 44115  1  0  0  0
 45 46  2  0  0  0
 45116  1  0  0  0
 46117  1  0  0  0
 47118  1  0  0  0
 47119  1  0  0  0
 48 56  1  0  0  0
 48 65  1  0  0  0
 48120  1  0  0  0
 49 50  1  0  0  0
 49 53  1  0  0  0
 49 64  1  0  0  0
 49121  1  0  0  0
 50 51  1  0  0  0
 50122  1  0  0  0
 50123  1  0  0  0
 51 52  1  0  0  0
 51124  1  0  0  0
 51125  1  0  0  0
 52126  1  0  0  0
 52127  1  0  0  0
 53 54  1  0  0  0
 54 55  2  0  0  0
 54128  1  0  0  0
 55 57  1  0  0  0
 55129  1  0  0  0
 56 69  2  0  0  0
 57 58  2  0  0  0
 57130  1  0  0  0
 58131  1  0  0  0
 59 60  1  0  0  0
 59 61  1  0  0  0
 59 62  1  0  0  0
 60132  1  0  0  0
 60133  1  0  0  0
 60134  1  0  0  0
 61135  1  0  0  0
 61136  1  0  0  0
 61137  1  0  0  0
 62138  1  0  0  0
 62139  1  0  0  0
 62140  1  0  0  0
 63 65  1  0  0  0
 63141  1  0  0  0
 63142  1  0  0  0
 63143  1  0  0  0
 64144  1  0  0  0
 65145  1  0  0  0
 68 83  1  0  0  0
 71 73  2  0  0  0
 71 75  1  0  0  0
 71146  1  0  0  0
 72 74  2  0  0  0
 72 76  1  0  0  0
 72147  1  0  0  0
 73 74  1  0  0  0
 73 77  1  0  0  0
 74 78  1  0  0  0
 75 76  2  0  0  0
 75 84  1  0  0  0
 76 86  1  0  0  0
 77148  1  0  0  0
 77149  1  0  0  0
 77150  1  0  0  0
 78 79  1  0  0  0
 78151  1  0  0  0
 78152  1  0  0  0
 79 81  1  0  0  0
 79153  1  0  0  0
 79154  1  0  0  0
 80 82  1  0  0  0
 80 83  1  0  0  0
 80155  1  0  0  0
 80156  1  0  0  0
 81 85  1  0  0  0
 81157  1  0  0  0
 81158  1  0  0  0
 82 85  1  0  0  0
 82159  1  0  0  0
 82160  1  0  0  0
 83161  1  0  0  0
 83162  1  0  0  0
 84163  1  0  0  0
 85164  1  0  0  0
 85165  1  0  0  0
M  CHG  1  85   1
M  ISO  4   1 100  68 101  83 101  84 100
M  END
> <chiral flag>
0

> <version>
0

> <s_m_source_file>
/data/baiqing/PycharmProjects/Reinvent-master-3.2/result/LINK_invent/BTK/process_docking_weight1_custom_sum_contain_oxygen_bond_distance_aromatic_linkinvent_7_9_3/rearranged_h_0029.sdf

> <i_m_source_file_index>
3

> <r_mmod_Potential_Energy-OPLS-2005>
-228.930191040039

> <r_mmod_Stretch_Energy-OPLS-2005>
32.7788200378418

> <r_mmod_Bend_Energy-OPLS-2005>
88.7981491088867

> <r_mmod_Torsional_Energy-OPLS-2005>
256.333557128906

> <r_mmod_Improper_Torsional_Energy-OPLS-2005>
3.16632628440857

> <r_mmod_Van_der_Waal_Energy-OPLS-2005>
149.829406738281

> <r_mmod_Electrostatic_Energy-OPLS-2005>
-299.837738037109

> <r_mmod_Solvation_Energy-OPLS-2005>
-466.580169677734

> <b_mmod_Minimization_Converged-OPLS-2005>
0

> <r_mmod_RMS_Derivative-OPLS-2005>
1.23639643192291

$$$$
3
                    3D
 Structure written by MMmdl.
167176  0  0  1  0            999 V2000
  -30.7162  -14.4555   20.5736 C   0  0  0  0  0  0
  -30.4174  -12.2958   19.4231 C   0  0  0  0  0  0
  -29.4913  -12.5042   18.2071 C   0  0  0  0  0  0
  -28.0125  -12.3712   18.6189 C   0  0  0  0  0  0
  -27.6629  -13.2089   19.8789 C   0  0  2  0  0  0
  -28.7047  -12.9861   20.9989 C   0  0  0  0  0  0
  -25.2588  -13.8178   20.5694 C   0  0  0  0  0  0
  -24.1839  -13.0446   20.9176 C   0  0  0  0  0  0
  -24.6397  -11.6912   20.8745 C   0  0  0  0  0  0
  -23.9062  -10.4292   21.0407 C   0  0  0  0  0  0
  -24.3615   -9.4205   21.9186 C   0  0  0  0  0  0
  -23.6294   -8.2240   22.0755 C   0  0  0  0  0  0
  -22.4273   -8.0279   21.3547 C   0  0  0  0  0  0
  -21.9909   -9.0246   20.4648 C   0  0  0  0  0  0
  -22.7236  -10.2127   20.3051 C   0  0  0  0  0  0
  -21.6853   -6.0735   22.5280 C   0  0  0  0  0  0
  -21.4009   -6.5637   23.8213 C   0  0  0  0  0  0
  -21.3660   -5.6794   24.9176 C   0  0  0  0  0  0
  -21.6044   -4.3056   24.7223 C   0  0  0  0  0  0
  -21.8820   -3.8146   23.4348 C   0  0  0  0  0  0
  -21.9192   -4.6965   22.3405 C   0  0  0  0  0  0
  -22.7861  -13.5241   21.1842 C   0  0  0  0  0  0
  -22.1659   -4.2150   21.0985 F   0  0  0  0  0  0
  -21.5630   -3.4544   25.7740 F   0  0  0  0  0  0
  -30.0388  -13.2813   20.4491 N   0  0  0  0  0  0
  -26.3039  -12.9354   20.3407 N   0  0  0  0  0  0
  -25.9329  -11.6509   20.5795 N   0  0  0  0  0  0
  -22.0500  -12.8219   22.0395 N   0  0  0  0  0  0
  -25.4307  -15.1895   20.4095 N   0  0  0  0  0  0
  -31.8370  -14.6171   20.0867 O   0  0  0  0  0  0
  -21.6641   -6.8874   21.4245 O   0  0  0  0  0  0
  -22.3539  -14.5550   20.6699 O   0  0  0  0  0  0
  -24.6117  -31.8699   23.2120 C   0  0  0  0  0  0
  -25.9018  -32.4833   23.8406 C   0  0  1  0  0  0
  -27.2466  -27.4538   20.1054 C   0  0  0  0  0  0
  -25.5884  -33.8632   24.2349 N   0  0  0  0  0  0
  -23.3997  -30.4918   21.5492 C   0  0  2  0  0  0
  -24.8508  -28.9571   20.1178 C   0  0  0  0  0  0
  -22.7399  -29.4667   22.4989 C   0  0  0  0  0  0
  -18.0275  -28.1384   22.8494 C   0  0  0  0  0  0
  -24.1479  -36.7315   23.2636 C   0  0  0  0  0  0
  -25.9237  -30.8429   21.3618 C   0  0  0  0  0  0
  -26.0044  -29.4738   20.7203 C   0  0  0  0  0  0
  -27.2030  -28.7283   20.7215 C   0  0  0  0  0  0
  -26.0820  -26.9566   19.4873 C   0  0  0  0  0  0
  -24.8821  -27.6941   19.5006 C   0  0  0  0  0  0
  -23.6098  -29.8197   20.1646 C   0  0  0  0  0  0
  -25.4102  -36.3123   24.0345 C   0  0  1  0  0  0
  -20.5864  -28.3671   23.1325 C   0  0  2  0  0  0
  -20.6769  -26.9410   22.5432 C   0  0  0  0  0  0
  -19.5754  -26.6387   21.5222 C   0  0  0  0  0  0
  -18.1917  -26.7933   22.1611 C   0  0  0  0  0  0
  -19.1526  -28.8840   23.2912 C   0  0  0  0  0  0
  -18.9456  -30.1443   23.8933 C   0  0  0  0  0  0
  -17.6459  -30.6595   24.0578 C   0  0  0  0  0  0
  -25.9022  -34.9483   23.5145 C   0  0  0  0  0  0
  -16.5346  -29.9107   23.6324 C   0  0  0  0  0  0
  -16.7261  -28.6520   23.0348 C   0  0  0  0  0  0
  -26.4469  -31.6599   25.0718 C   0  0  0  0  0  0
  -25.3747  -31.3702   26.1470 C   0  0  0  0  0  0
  -27.0289  -30.3044   24.6058 C   0  0  0  0  0  0
  -27.6055  -32.4308   25.7482 C   0  0  0  0  0  0
  -27.5585  -37.1803   24.8457 C   0  0  0  0  0  0
  -21.4131  -29.3045   22.3735 N   0  0  0  0  0  0
  -26.4288  -37.3808   23.9417 N   0  0  0  0  0  0
  -24.6625  -31.0827   22.1001 N   0  0  0  0  0  0
  -23.4183  -28.8209   23.3022 O   0  0  0  0  0  0
  -28.3754  -26.6652   20.0521 O   0  0  0  0  0  0
  -26.5587  -34.8929   22.4704 O   0  0  0  0  0  0
  -23.5316  -32.1429   23.7536 O   0  0  0  0  0  0
  -29.3066  -19.1003   21.5845 C   0  0  0  0  0  0
  -31.3137  -17.5078   20.4552 C   0  0  0  0  0  0
  -30.3838  -19.7306   20.9193 C   0  0  0  0  0  0
  -30.2183  -16.8743   21.0920 C   0  0  0  0  0  0
  -29.2081  -17.6832   21.6640 C   0  0  0  0  0  0
  -31.4007  -18.9105   20.3672 C   0  0  0  0  0  0
  -29.1451  -21.9677   20.4023 C   0  0  0  0  0  0
  -30.9460  -21.9328   22.1034 C   0  0  0  0  0  0
  -29.3849  -23.4817   20.1703 C   0  0  0  0  0  0
  -31.1960  -23.4368   21.8672 C   0  0  0  0  0  0
  -30.4541  -21.2659   20.8137 C   0  0  1  0  0  0
  -27.0488  -17.7894   22.7139 C   0  0  0  0  0  0
  -30.3298  -25.6021   21.0814 C   0  0  0  0  0  0
  -29.1578  -26.5944   21.2428 C   0  0  0  0  0  0
  -30.0411  -15.4520   21.1810 N   0  0  0  0  0  0
  -30.0004  -24.1656   21.3473 N   0  3  1  0  0  0
  -28.1587  -17.0215   22.2684 O   0  0  0  0  0  0
  -32.7877  -19.5794   19.5772 Cl  0  0  0  0  0  0
  -31.4627  -12.3812   19.1222 H   0  0  0  0  0  0
  -30.3082  -11.2838   19.8169 H   0  0  0  0  0  0
  -29.7265  -11.7788   17.4269 H   0  0  0  0  0  0
  -29.6662  -13.4896   17.7717 H   0  0  0  0  0  0
  -27.8187  -11.3154   18.8119 H   0  0  0  0  0  0
  -27.3631  -12.6514   17.7886 H   0  0  0  0  0  0
  -27.7080  -14.2586   19.5864 H   0  0  0  0  0  0
  -28.6765  -11.9506   21.3417 H   0  0  0  0  0  0
  -28.4681  -13.5864   21.8783 H   0  0  0  0  0  0
  -25.2756   -9.5691   22.4763 H   0  0  0  0  0  0
  -24.0006   -7.4634   22.7476 H   0  0  0  0  0  0
  -21.0836   -8.8757   19.8957 H   0  0  0  0  0  0
  -22.3691  -10.9660   19.6156 H   0  0  0  0  0  0
  -21.1991   -7.6140   23.9718 H   0  0  0  0  0  0
  -21.1485   -6.0521   25.9080 H   0  0  0  0  0  0
  -22.0598   -2.7608   23.2849 H   0  0  0  0  0  0
  -22.4106  -11.9865   22.4766 H   0  0  0  0  0  0
  -21.1115  -13.1231   22.2596 H   0  0  0  0  0  0
  -24.6653  -15.8463   20.5111 H   0  0  0  0  0  0
  -26.2922  -15.6285   20.1095 H   0  0  0  0  0  0
  -26.7096  -32.5573   23.1189 H   0  0  0  0  0  0
  -25.0039  -33.9798   25.0491 H   0  0  0  0  0  0
  -22.6866  -31.3068   21.4071 H   0  0  0  0  0  0
  -23.3751  -35.9635   23.3291 H   0  0  0  0  0  0
  -24.3586  -36.8944   22.2056 H   0  0  0  0  0  0
  -23.7208  -37.6508   23.6651 H   0  0  0  0  0  0
  -26.0268  -31.6044   20.5874 H   0  0  0  0  0  0
  -26.8154  -30.9071   21.9737 H   0  0  0  0  0  0
  -28.0840  -29.1517   21.1808 H   0  0  0  0  0  0
  -26.1035  -25.9888   19.0051 H   0  0  0  0  0  0
  -23.9965  -27.2899   19.0299 H   0  0  0  0  0  0
  -23.7151  -30.5916   19.4016 H   0  0  0  0  0  0
  -22.7364  -29.2348   19.8692 H   0  0  0  0  0  0
  -25.1277  -36.1994   25.0838 H   0  0  0  0  0  0
  -20.9952  -28.3241   24.1447 H   0  0  0  0  0  0
  -20.5672  -26.2282   23.3621 H   0  0  0  0  0  0
  -21.6643  -26.7452   22.1219 H   0  0  0  0  0  0
  -19.6921  -25.6304   21.1232 H   0  0  0  0  0  0
  -19.6705  -27.3218   20.6769 H   0  0  0  0  0  0
  -17.4202  -26.6720   21.3993 H   0  0  0  0  0  0
  -18.0294  -26.0061   22.8983 H   0  0  0  0  0  0
  -19.7932  -30.7254   24.2315 H   0  0  0  0  0  0
  -17.5016  -31.6273   24.5177 H   0  0  0  0  0  0
  -15.5353  -30.3029   23.7632 H   0  0  0  0  0  0
  -15.8652  -28.0855   22.7051 H   0  0  0  0  0  0
  -24.5932  -30.7032   25.7816 H   0  0  0  0  0  0
  -24.8921  -32.2853   26.4909 H   0  0  0  0  0  0
  -25.8104  -30.8883   27.0228 H   0  0  0  0  0  0
  -26.2809  -29.6822   24.1122 H   0  0  0  0  0  0
  -27.4086  -29.7267   25.4496 H   0  0  0  0  0  0
  -27.8635  -30.4379   23.9173 H   0  0  0  0  0  0
  -27.2681  -33.3603   26.2077 H   0  0  0  0  0  0
  -28.3861  -32.6873   25.0308 H   0  0  0  0  0  0
  -28.0714  -31.8412   26.5389 H   0  0  0  0  0  0
  -28.2580  -38.0123   24.7542 H   0  0  0  0  0  0
  -28.1108  -36.2659   24.6222 H   0  0  0  0  0  0
  -27.2315  -37.1384   25.8863 H   0  0  0  0  0  0
  -20.9282  -29.8752   21.6947 H   0  0  0  0  0  0
  -26.0182  -38.2882   24.1454 H   0  0  0  0  0  0
  -28.5538  -19.7289   22.0336 H   0  0  0  0  0  0
  -32.1149  -16.9441   20.0064 H   0  0  0  0  0  0
  -28.7598  -21.5213   19.4849 H   0  0  0  0  0  0
  -28.3725  -21.8313   21.1589 H   0  0  0  0  0  0
  -30.2260  -21.7869   22.9106 H   0  0  0  0  0  0
  -31.8749  -21.4652   22.4327 H   0  0  0  0  0  0
  -28.4397  -23.9645   19.9201 H   0  0  0  0  0  0
  -30.0324  -23.6091   19.3010 H   0  0  0  0  0  0
  -32.0231  -23.5566   21.1649 H   0  0  0  0  0  0
  -31.5213  -23.8908   22.8045 H   0  0  0  0  0  0
  -31.1682  -21.5094   20.0284 H   0  0  0  0  0  0
  -26.2574  -17.1181   23.0474 H   0  0  0  0  0  0
  -26.6375  -18.4049   21.9126 H   0  0  0  0  0  0
  -27.3194  -18.4278   23.5561 H   0  0  0  0  0  0
  -31.0776  -25.9142   21.8117 H   0  0  0  0  0  0
  -30.8114  -25.7238   20.1099 H   0  0  0  0  0  0
  -29.5859  -27.5769   21.4428 H   0  0  0  0  0  0
  -28.5401  -26.3343   22.1040 H   0  0  0  0  0  0
  -29.1729  -15.1727   21.6130 H   0  0  0  0  0  0
  -29.3173  -24.1488   22.0915 H   0  0  0  0  0  0
  1 25  1  0  0  0
  1 30  2  0  0  0
  1 85  1  0  0  0
  2  3  1  0  0  0
  2 25  1  0  0  0
  2 89  1  0  0  0
  2 90  1  0  0  0
  3  4  1  0  0  0
  3 91  1  0  0  0
  3 92  1  0  0  0
  4  5  1  0  0  0
  4 93  1  0  0  0
  4 94  1  0  0  0
  5  6  1  0  0  0
  5 26  1  0  0  0
  5 95  1  0  0  0
  6 25  1  0  0  0
  6 96  1  0  0  0
  6 97  1  0  0  0
  7  8  2  0  0  0
  7 26  1  0  0  0
  7 29  1  0  0  0
  8  9  1  0  0  0
  8 22  1  0  0  0
  9 10  1  0  0  0
  9 27  2  0  0  0
 10 11  2  0  0  0
 10 15  1  0  0  0
 11 12  1  0  0  0
 11 98  1  0  0  0
 12 13  2  0  0  0
 12 99  1  0  0  0
 13 14  1  0  0  0
 13 31  1  0  0  0
 14 15  2  0  0  0
 14100  1  0  0  0
 15101  1  0  0  0
 16 17  2  0  0  0
 16 21  1  0  0  0
 16 31  1  0  0  0
 17 18  1  0  0  0
 17102  1  0  0  0
 18 19  2  0  0  0
 18103  1  0  0  0
 19 20  1  0  0  0
 19 24  1  0  0  0
 20 21  2  0  0  0
 20104  1  0  0  0
 21 23  1  0  0  0
 22 28  1  0  0  0
 22 32  2  0  0  0
 26 27  1  0  0  0
 28105  1  0  0  0
 28106  1  0  0  0
 29107  1  0  0  0
 29108  1  0  0  0
 33 34  1  0  0  0
 33 66  1  0  0  0
 33 70  2  0  0  0
 34 36  1  0  0  0
 34 59  1  0  0  0
 34109  1  0  0  0
 35 44  2  0  0  0
 35 45  1  0  0  0
 35 68  1  0  0  0
 36 56  1  0  0  0
 36110  1  0  0  0
 37 39  1  0  0  0
 37 47  1  0  0  0
 37 66  1  0  0  0
 37111  1  0  0  0
 38 43  2  0  0  0
 38 46  1  0  0  0
 38 47  1  0  0  0
 39 64  1  0  0  0
 39 67  2  0  0  0
 40 52  1  0  0  0
 40 53  2  0  0  0
 40 58  1  0  0  0
 41112  1  0  0  0
 41113  1  0  0  0
 41114  1  0  0  0
 41 48  1  0  0  0
 42 43  1  0  0  0
 42 66  1  0  0  0
 42115  1  0  0  0
 42116  1  0  0  0
 43 44  1  0  0  0
 44117  1  0  0  0
 45 46  2  0  0  0
 45118  1  0  0  0
 46119  1  0  0  0
 47120  1  0  0  0
 47121  1  0  0  0
 48 56  1  0  0  0
 48 65  1  0  0  0
 48122  1  0  0  0
 49 50  1  0  0  0
 49 53  1  0  0  0
 49 64  1  0  0  0
 49123  1  0  0  0
 50 51  1  0  0  0
 50124  1  0  0  0
 50125  1  0  0  0
 51 52  1  0  0  0
 51126  1  0  0  0
 51127  1  0  0  0
 52128  1  0  0  0
 52129  1  0  0  0
 53 54  1  0  0  0
 54 55  2  0  0  0
 54130  1  0  0  0
 55 57  1  0  0  0
 55131  1  0  0  0
 56 69  2  0  0  0
 57 58  2  0  0  0
 57132  1  0  0  0
 58133  1  0  0  0
 59 60  1  0  0  0
 59 61  1  0  0  0
 59 62  1  0  0  0
 60134  1  0  0  0
 60135  1  0  0  0
 60136  1  0  0  0
 61137  1  0  0  0
 61138  1  0  0  0
 61139  1  0  0  0
 62140  1  0  0  0
 62141  1  0  0  0
 62142  1  0  0  0
 63 65  1  0  0  0
 63143  1  0  0  0
 63144  1  0  0  0
 63145  1  0  0  0
 64146  1  0  0  0
 65147  1  0  0  0
 68 84  1  0  0  0
 71 73  2  0  0  0
 71 75  1  0  0  0
 71148  1  0  0  0
 72 74  1  0  0  0
 72 76  2  0  0  0
 72149  1  0  0  0
 73 76  1  0  0  0
 73 81  1  0  0  0
 74 75  2  0  0  0
 74 85  1  0  0  0
 75 87  1  0  0  0
 76 88  1  0  0  0
 77 79  1  0  0  0
 77 81  1  0  0  0
 77150  1  0  0  0
 77151  1  0  0  0
 78 80  1  0  0  0
 78 81  1  0  0  0
 78152  1  0  0  0
 78153  1  0  0  0
 79 86  1  0  0  0
 79154  1  0  0  0
 79155  1  0  0  0
 80 86  1  0  0  0
 80156  1  0  0  0
 80157  1  0  0  0
 81158  1  0  0  0
 82 87  1  0  0  0
 82159  1  0  0  0
 82160  1  0  0  0
 82161  1  0  0  0
 83 84  1  0  0  0
 83162  1  0  0  0
 83163  1  0  0  0
 83 86  1  0  0  0
 84164  1  0  0  0
 84165  1  0  0  0
 85166  1  0  0  0
 86167  1  0  0  0
M  CHG  1  86   1
M  ISO  4   1 100  68 101  84 101  85 100
M  END
> <chiral flag>
0

> <version>
0

> <s_m_source_file>
/data/baiqing/PycharmProjects/Reinvent-master-3.2/result/LINK_invent/BTK/process_docking_weight1_custom_sum_contain_oxygen_bond_distance_aromatic_linkinvent_7_9_3/rearranged_h_0029.sdf

> <i_m_source_file_index>
4

> <r_mmod_Potential_Energy-OPLS-2005>
-133.221694946289

> <r_mmod_Stretch_Energy-OPLS-2005>
40.6856727600098

> <r_mmod_Bend_Energy-OPLS-2005>
116.360305786133

> <r_mmod_Torsional_Energy-OPLS-2005>
255.490966796875

> <r_mmod_Improper_Torsional_Energy-OPLS-2005>
2.93518352508545

> <r_mmod_Van_der_Waal_Energy-OPLS-2005>
166.874435424805

> <r_mmod_Electrostatic_Energy-OPLS-2005>
-300.445861816406

> <r_mmod_Solvation_Energy-OPLS-2005>
-425.485290527344

> <b_mmod_Minimization_Converged-OPLS-2005>
0

> <r_mmod_RMS_Derivative-OPLS-2005>
1.24581515789032

$$$$
4
                    3D
 Structure written by MMmdl.
154162  0  0  1  0            999 V2000
  -30.5782  -14.7381   20.4676 C   0  0  0  0  0  0
  -30.4348  -12.4484   19.4595 C   0  0  0  0  0  0
  -29.5051  -12.5027   18.2276 C   0  0  0  0  0  0
  -28.0296  -12.3278   18.6435 C   0  0  0  0  0  0
  -27.6376  -13.2236   19.8493 C   0  0  2  0  0  0
  -28.6841  -13.1424   20.9800 C   0  0  0  0  0  0
  -25.2496  -13.8176   20.5716 C   0  0  0  0  0  0
  -24.1782  -13.0424   20.9217 C   0  0  0  0  0  0
  -24.6369  -11.6905   20.8742 C   0  0  0  0  0  0
  -23.9048  -10.4292   21.0407 C   0  0  0  0  0  0
  -24.3607   -9.4202   21.9178 C   0  0  0  0  0  0
  -23.6291   -8.2232   22.0746 C   0  0  0  0  0  0
  -22.4268   -8.0274   21.3542 C   0  0  0  0  0  0
  -21.9899   -9.0239   20.4636 C   0  0  0  0  0  0
  -22.7221  -10.2126   20.3051 C   0  0  0  0  0  0
  -21.6854   -6.0733   22.5273 C   0  0  0  0  0  0
  -21.4018   -6.5640   23.8205 C   0  0  0  0  0  0
  -21.3660   -5.6790   24.9168 C   0  0  0  0  0  0
  -21.6047   -4.3052   24.7219 C   0  0  0  0  0  0
  -21.8816   -3.8145   23.4339 C   0  0  0  0  0  0
  -21.9193   -4.6963   22.3399 C   0  0  0  0  0  0
  -22.7804  -13.5203   21.1886 C   0  0  0  0  0  0
  -22.1660   -4.2149   21.0975 F   0  0  0  0  0  0
  -21.5628   -3.4535   25.7732 F   0  0  0  0  0  0
  -29.9789  -13.5028   20.3902 N   0  0  0  0  0  0
  -26.2905  -12.9365   20.3272 N   0  0  0  0  0  0
  -25.9294  -11.6514   20.5745 N   0  0  0  0  0  0
  -22.0470  -12.8180   22.0449 N   0  0  0  0  0  0
  -25.4156  -15.1916   20.4172 N   0  0  0  0  0  0
  -31.7797  -14.8594   20.2075 O   0  0  0  0  0  0
  -21.6637   -6.8869   21.4235 O   0  0  0  0  0  0
  -22.3484  -14.5512   20.6740 O   0  0  0  0  0  0
  -24.6307  -31.8532   23.1958 C   0  0  0  0  0  0
  -25.9120  -32.4749   23.8315 C   0  0  1  0  0  0
  -27.2202  -27.2634   20.1443 C   0  0  0  0  0  0
  -25.5915  -33.8549   24.2239 N   0  0  0  0  0  0
  -23.4285  -30.4768   21.5361 C   0  0  2  0  0  0
  -24.8776  -28.9163   20.1134 C   0  0  0  0  0  0
  -22.7513  -29.4590   22.4857 C   0  0  0  0  0  0
  -18.0304  -28.1403   22.8458 C   0  0  0  0  0  0
  -24.1491  -36.7294   23.2645 C   0  0  0  0  0  0
  -25.9739  -30.7692   21.3746 C   0  0  0  0  0  0
  -26.0478  -29.3904   20.7206 C   0  0  0  0  0  0
  -27.2261  -28.5782   20.7166 C   0  0  0  0  0  0
  -26.0304  -26.8446   19.5177 C   0  0  0  0  0  0
  -24.8744  -27.6527   19.4984 C   0  0  0  0  0  0
  -23.6512  -29.8075   20.1531 C   0  0  0  0  0  0
  -25.4110  -36.3059   24.0331 C   0  0  1  0  0  0
  -20.5906  -28.3703   23.1256 C   0  0  2  0  0  0
  -20.6781  -26.9406   22.5410 C   0  0  0  0  0  0
  -19.5764  -26.6366   21.5209 C   0  0  0  0  0  0
  -18.1942  -26.7940   22.1602 C   0  0  0  0  0  0
  -19.1555  -28.8863   23.2858 C   0  0  0  0  0  0
  -18.9487  -30.1457   23.8886 C   0  0  0  0  0  0
  -17.6487  -30.6586   24.0562 C   0  0  0  0  0  0
  -25.9048  -34.9435   23.5086 C   0  0  0  0  0  0
  -16.5375  -29.9093   23.6340 C   0  0  0  0  0  0
  -16.7293  -28.6526   23.0332 C   0  0  0  0  0  0
  -26.4490  -31.6589   25.0719 C   0  0  0  0  0  0
  -25.3715  -31.3768   26.1451 C   0  0  0  0  0  0
  -27.0337  -30.3002   24.6211 C   0  0  0  0  0  0
  -27.6052  -32.4331   25.7492 C   0  0  0  0  0  0
  -27.5579  -37.1792   24.8455 C   0  0  0  0  0  0
  -21.4209  -29.3049   22.3636 N   0  0  0  0  0  0
  -26.4283  -37.3757   23.9414 N   0  0  0  0  0  0
  -24.6962  -31.0511   22.0925 N   0  0  0  0  0  0
  -23.4225  -28.8104   23.2920 O   0  0  0  0  0  0
  -28.3225  -26.3872   20.1357 O   0  0  0  0  0  0
  -26.5613  -34.8915   22.4650 O   0  0  0  0  0  0
  -23.5450  -32.1343   23.7258 O   0  0  0  0  0  0
  -30.2617  -19.9093   21.9779 C   0  0  0  0  0  0
  -29.3353  -18.4179   20.3058 C   0  0  0  0  0  0
  -30.8718  -18.7932   22.5974 C   0  0  0  0  0  0
  -29.9605  -17.2479   20.9135 C   0  0  0  0  0  0
  -29.4796  -19.7805   20.8056 C   0  0  0  0  0  0
  -30.7289  -17.4889   22.0742 C   0  0  0  0  0  0
  -31.6734  -18.9874   23.8704 C   0  0  0  0  0  0
  -28.4182  -23.6209   19.9938 C   0  0  0  0  0  0
  -28.2160  -25.0311   20.7747 C   0  0  0  0  0  0
  -28.9486  -22.3050   20.7914 C   0  0  0  0  0  0
  -29.7344  -15.8404   20.5019 N   0  0  0  0  0  0
  -28.8884  -20.9307   20.1893 O   0  0  0  0  0  0
  -31.2880  -16.4533   22.7476 F   0  0  0  0  0  0
  -31.4734  -12.5916   19.1538 H   0  0  0  0  0  0
  -30.3898  -11.4677   19.9359 H   0  0  0  0  0  0
  -29.7829  -11.7325   17.5067 H   0  0  0  0  0  0
  -29.6308  -13.4596   17.7175 H   0  0  0  0  0  0
  -27.8825  -11.2787   18.9015 H   0  0  0  0  0  0
  -27.3712  -12.5253   17.7976 H   0  0  0  0  0  0
  -27.6308  -14.2456   19.4728 H   0  0  0  0  0  0
  -28.7209  -12.1397   21.4093 H   0  0  0  0  0  0
  -28.4264  -13.8185   21.7970 H   0  0  0  0  0  0
  -25.2752   -9.5686   22.4744 H   0  0  0  0  0  0
  -24.0002   -7.4629   22.7466 H   0  0  0  0  0  0
  -21.0827   -8.8749   19.8950 H   0  0  0  0  0  0
  -22.3664  -10.9661   19.6162 H   0  0  0  0  0  0
  -21.2011   -7.6144   23.9710 H   0  0  0  0  0  0
  -21.1489   -6.0520   25.9071 H   0  0  0  0  0  0
  -22.0599   -2.7606   23.2833 H   0  0  0  0  0  0
  -22.4110  -11.9835   22.4796 H   0  0  0  0  0  0
  -21.1100  -13.1195   22.2718 H   0  0  0  0  0  0
  -24.6437  -15.8370   20.5460 H   0  0  0  0  0  0
  -26.2532  -15.6463   20.0781 H   0  0  0  0  0  0
  -26.7186  -32.5402   23.1062 H   0  0  0  0  0  0
  -25.0089  -33.9682   25.0403 H   0  0  0  0  0  0
  -22.7261  -31.2998   21.3845 H   0  0  0  0  0  0
  -23.3744  -35.9633   23.3292 H   0  0  0  0  0  0
  -24.3587  -36.8923   22.2062 H   0  0  0  0  0  0
  -23.7259  -37.6501   23.6678 H   0  0  0  0  0  0
  -26.1130  -31.5284   20.6034 H   0  0  0  0  0  0
  -26.8522  -30.8198   22.0078 H   0  0  0  0  0  0
  -28.1300  -28.9382   21.1885 H   0  0  0  0  0  0
  -25.9944  -25.8724   19.0473 H   0  0  0  0  0  0
  -23.9799  -27.2858   19.0150 H   0  0  0  0  0  0
  -23.7890  -30.5852   19.4010 H   0  0  0  0  0  0
  -22.7692  -29.2472   19.8366 H   0  0  0  0  0  0
  -25.1289  -36.1907   25.0822 H   0  0  0  0  0  0
  -21.0023  -28.3280   24.1369 H   0  0  0  0  0  0
  -20.5660  -26.2308   23.3609 H   0  0  0  0  0  0
  -21.6646  -26.7396   22.1215 H   0  0  0  0  0  0
  -19.6919  -25.6277   21.1253 H   0  0  0  0  0  0
  -19.6730  -27.3165   20.6734 H   0  0  0  0  0  0
  -17.4209  -26.6706   21.4004 H   0  0  0  0  0  0
  -18.0324  -26.0087   22.9006 H   0  0  0  0  0  0
  -19.7969  -30.7270   24.2253 H   0  0  0  0  0  0
  -17.5049  -31.6269   24.5158 H   0  0  0  0  0  0
  -15.5381  -30.2988   23.7667 H   0  0  0  0  0  0
  -15.8695  -28.0847   22.7030 H   0  0  0  0  0  0
  -24.5922  -30.7052   25.7814 H   0  0  0  0  0  0
  -24.8870  -32.2954   26.4785 H   0  0  0  0  0  0
  -25.8042  -30.9052   27.0281 H   0  0  0  0  0  0
  -26.2926  -29.6744   24.1223 H   0  0  0  0  0  0
  -27.4013  -29.7265   25.4726 H   0  0  0  0  0  0
  -27.8795  -30.4272   23.9445 H   0  0  0  0  0  0
  -27.2666  -33.3648   26.2039 H   0  0  0  0  0  0
  -28.3882  -32.6865   25.0330 H   0  0  0  0  0  0
  -28.0690  -31.8478   26.5434 H   0  0  0  0  0  0
  -28.2565  -38.0116   24.7495 H   0  0  0  0  0  0
  -28.1104  -36.2644   24.6270 H   0  0  0  0  0  0
  -27.2311  -37.1424   25.8861 H   0  0  0  0  0  0
  -20.9378  -29.8842   21.6918 H   0  0  0  0  0  0
  -26.0164  -38.2824   24.1437 H   0  0  0  0  0  0
  -30.4038  -20.8752   22.4384 H   0  0  0  0  0  0
  -28.7194  -18.2701   19.4304 H   0  0  0  0  0  0
  -31.7870  -20.0416   24.1232 H   0  0  0  0  0  0
  -32.6678  -18.5539   23.7627 H   0  0  0  0  0  0
  -31.1785  -18.4906   24.7068 H   0  0  0  0  0  0
  -29.1004  -23.7909   19.1612 H   0  0  0  0  0  0
  -27.4615  -23.3730   19.5317 H   0  0  0  0  0  0
  -28.9761  -25.0501   21.5558 H   0  0  0  0  0  0
  -27.2779  -24.9788   21.3305 H   0  0  0  0  0  0
  -28.4201  -22.2560   21.7442 H   0  0  0  0  0  0
  -29.9911  -22.5099   21.0385 H   0  0  0  0  0  0
  -28.7689  -15.6081   20.3381 H   0  0  0  0  0  0
  1 25  1  0  0  0
  1 30  2  0  0  0
  1 81  1  0  0  0
  2  3  1  0  0  0
  2 25  1  0  0  0
  2 84  1  0  0  0
  2 85  1  0  0  0
  3  4  1  0  0  0
  3 86  1  0  0  0
  3 87  1  0  0  0
  4  5  1  0  0  0
  4 88  1  0  0  0
  4 89  1  0  0  0
  5  6  1  0  0  0
  5 26  1  0  0  0
  5 90  1  0  0  0
  6 25  1  0  0  0
  6 91  1  0  0  0
  6 92  1  0  0  0
  7  8  2  0  0  0
  7 26  1  0  0  0
  7 29  1  0  0  0
  8  9  1  0  0  0
  8 22  1  0  0  0
  9 10  1  0  0  0
  9 27  2  0  0  0
 10 11  2  0  0  0
 10 15  1  0  0  0
 11 12  1  0  0  0
 11 93  1  0  0  0
 12 13  2  0  0  0
 12 94  1  0  0  0
 13 14  1  0  0  0
 13 31  1  0  0  0
 14 15  2  0  0  0
 14 95  1  0  0  0
 15 96  1  0  0  0
 16 17  2  0  0  0
 16 21  1  0  0  0
 16 31  1  0  0  0
 17 18  1  0  0  0
 17 97  1  0  0  0
 18 19  2  0  0  0
 18 98  1  0  0  0
 19 20  1  0  0  0
 19 24  1  0  0  0
 20 21  2  0  0  0
 20 99  1  0  0  0
 21 23  1  0  0  0
 22 28  1  0  0  0
 22 32  2  0  0  0
 26 27  1  0  0  0
 28100  1  0  0  0
 28101  1  0  0  0
 29102  1  0  0  0
 29103  1  0  0  0
 33 34  1  0  0  0
 33 66  1  0  0  0
 33 70  2  0  0  0
 34 36  1  0  0  0
 34 59  1  0  0  0
 34104  1  0  0  0
 35 44  2  0  0  0
 35 45  1  0  0  0
 35 68  1  0  0  0
 36 56  1  0  0  0
 36105  1  0  0  0
 37 39  1  0  0  0
 37 47  1  0  0  0
 37 66  1  0  0  0
 37106  1  0  0  0
 38 43  2  0  0  0
 38 46  1  0  0  0
 38 47  1  0  0  0
 39 64  1  0  0  0
 39 67  2  0  0  0
 40 52  1  0  0  0
 40 53  2  0  0  0
 40 58  1  0  0  0
 41107  1  0  0  0
 41108  1  0  0  0
 41109  1  0  0  0
 41 48  1  0  0  0
 42 43  1  0  0  0
 42 66  1  0  0  0
 42110  1  0  0  0
 42111  1  0  0  0
 43 44  1  0  0  0
 44112  1  0  0  0
 45 46  2  0  0  0
 45113  1  0  0  0
 46114  1  0  0  0
 47115  1  0  0  0
 47116  1  0  0  0
 48 56  1  0  0  0
 48 65  1  0  0  0
 48117  1  0  0  0
 49 50  1  0  0  0
 49 53  1  0  0  0
 49 64  1  0  0  0
 49118  1  0  0  0
 50 51  1  0  0  0
 50119  1  0  0  0
 50120  1  0  0  0
 51 52  1  0  0  0
 51121  1  0  0  0
 51122  1  0  0  0
 52123  1  0  0  0
 52124  1  0  0  0
 53 54  1  0  0  0
 54 55  2  0  0  0
 54125  1  0  0  0
 55 57  1  0  0  0
 55126  1  0  0  0
 56 69  2  0  0  0
 57 58  2  0  0  0
 57127  1  0  0  0
 58128  1  0  0  0
 59 60  1  0  0  0
 59 61  1  0  0  0
 59 62  1  0  0  0
 60129  1  0  0  0
 60130  1  0  0  0
 60131  1  0  0  0
 61132  1  0  0  0
 61133  1  0  0  0
 61134  1  0  0  0
 62135  1  0  0  0
 62136  1  0  0  0
 62137  1  0  0  0
 63 65  1  0  0  0
 63138  1  0  0  0
 63139  1  0  0  0
 63140  1  0  0  0
 64141  1  0  0  0
 65142  1  0  0  0
 68 79  1  0  0  0
 71 73  2  0  0  0
 71 75  1  0  0  0
 71143  1  0  0  0
 72 74  1  0  0  0
 72 75  2  0  0  0
 72144  1  0  0  0
 73 76  1  0  0  0
 73 77  1  0  0  0
 74 76  2  0  0  0
 74 81  1  0  0  0
 75 82  1  0  0  0
 76 83  1  0  0  0
 77145  1  0  0  0
 77146  1  0  0  0
 77147  1  0  0  0
 78 79  1  0  0  0
 78 80  1  0  0  0
 78148  1  0  0  0
 78149  1  0  0  0
 79150  1  0  0  0
 79151  1  0  0  0
 80 82  1  0  0  0
 80152  1  0  0  0
 80153  1  0  0  0
 81154  1  0  0  0
M  ISO  4   1 100  68 101  79 101  81 100
M  END
> <chiral flag>
0

> <version>
0

> <s_m_source_file>
/data/baiqing/PycharmProjects/Reinvent-master-3.2/result/LINK_invent/BTK/process_docking_weight1_custom_sum_contain_oxygen_bond_distance_aromatic_linkinvent_7_9_3/rearranged_h_0029.sdf

> <i_m_source_file_index>
5

> <r_mmod_Potential_Energy-OPLS-2005>
170.136291503906

> <r_mmod_Stretch_Energy-OPLS-2005>
123.79566192627

> <r_mmod_Bend_Energy-OPLS-2005>
165.796646118164

> <r_mmod_Torsional_Energy-OPLS-2005>
254.566940307617

> <r_mmod_Improper_Torsional_Energy-OPLS-2005>
9.46639347076416

> <r_mmod_Van_der_Waal_Energy-OPLS-2005>
137.358367919922

> <r_mmod_Electrostatic_Energy-OPLS-2005>
-392.760681152344

> <r_mmod_Solvation_Energy-OPLS-2005>
-211.178558349609

> <b_mmod_Minimization_Converged-OPLS-2005>
0

> <r_mmod_RMS_Derivative-OPLS-2005>
2.24398040771484

$$$$
5
                    3D
 Structure written by MMmdl.
165173  0  0  1  0            999 V2000
  -30.7275  -14.4080   20.5410 C   0  0  0  0  0  0
  -30.4176  -12.2577   19.4105 C   0  0  0  0  0  0
  -29.4934  -12.4918   18.1995 C   0  0  0  0  0  0
  -28.0129  -12.3764   18.6147 C   0  0  0  0  0  0
  -27.6721  -13.1991   19.8863 C   0  0  2  0  0  0
  -28.7163  -12.9598   21.0018 C   0  0  0  0  0  0
  -25.2669  -13.8153   20.5735 C   0  0  0  0  0  0
  -24.1905  -13.0470   20.9206 C   0  0  0  0  0  0
  -24.6429  -11.6909   20.8760 C   0  0  0  0  0  0
  -23.9083  -10.4303   21.0431 C   0  0  0  0  0  0
  -24.3630   -9.4210   21.9207 C   0  0  0  0  0  0
  -23.6321   -8.2247   22.0773 C   0  0  0  0  0  0
  -22.4295   -8.0305   21.3558 C   0  0  0  0  0  0
  -21.9923   -9.0289   20.4661 C   0  0  0  0  0  0
  -22.7259  -10.2165   20.3078 C   0  0  0  0  0  0
  -21.6865   -6.0760   22.5286 C   0  0  0  0  0  0
  -21.4014   -6.5654   23.8228 C   0  0  0  0  0  0
  -21.3637   -5.6796   24.9179 C   0  0  0  0  0  0
  -21.6047   -4.3064   24.7233 C   0  0  0  0  0  0
  -21.8810   -3.8153   23.4348 C   0  0  0  0  0  0
  -21.9193   -4.6980   22.3406 C   0  0  0  0  0  0
  -22.7919  -13.5285   21.1839 C   0  0  0  0  0  0
  -22.1668   -4.2183   21.0980 F   0  0  0  0  0  0
  -21.5627   -3.4531   25.7729 F   0  0  0  0  0  0
  -30.0544  -13.2342   20.4473 N   0  0  0  0  0  0
  -26.3101  -12.9310   20.3440 N   0  0  0  0  0  0
  -25.9353  -11.6471   20.5818 N   0  0  0  0  0  0
  -22.0510  -12.8308   22.0359 N   0  0  0  0  0  0
  -25.4421  -15.1884   20.4141 N   0  0  0  0  0  0
  -31.8502  -14.5913   20.0631 O   0  0  0  0  0  0
  -21.6648   -6.8913   21.4254 O   0  0  0  0  0  0
  -22.3626  -14.5614   20.6695 O   0  0  0  0  0  0
  -24.6078  -31.8728   23.2136 C   0  0  0  0  0  0
  -25.8994  -32.4845   23.8441 C   0  0  1  0  0  0
  -27.2555  -27.4858   20.1073 C   0  0  0  0  0  0
  -25.5878  -33.8643   24.2395 N   0  0  0  0  0  0
  -23.3956  -30.4928   21.5500 C   0  0  2  0  0  0
  -24.8476  -28.9643   20.1141 C   0  0  0  0  0  0
  -22.7373  -29.4680   22.5001 C   0  0  0  0  0  0
  -18.0267  -28.1368   22.8499 C   0  0  0  0  0  0
  -24.1483  -36.7335   23.2632 C   0  0  0  0  0  0
  -25.9144  -30.8574   21.3572 C   0  0  0  0  0  0
  -25.9965  -29.4898   20.7169 C   0  0  0  0  0  0
  -27.1992  -28.7594   20.7213 C   0  0  0  0  0  0
  -26.0943  -26.9688   19.4976 C   0  0  0  0  0  0
  -24.8891  -27.6988   19.5020 C   0  0  0  0  0  0
  -23.6055  -29.8233   20.1627 C   0  0  0  0  0  0
  -25.4099  -36.3135   24.0351 C   0  0  1  0  0  0
  -20.5843  -28.3660   23.1347 C   0  0  2  0  0  0
  -20.6744  -26.9411   22.5416 C   0  0  0  0  0  0
  -19.5722  -26.6402   21.5207 C   0  0  0  0  0  0
  -18.1908  -26.7922   22.1620 C   0  0  0  0  0  0
  -19.1510  -28.8829   23.2919 C   0  0  0  0  0  0
  -18.9448  -30.1425   23.8952 C   0  0  0  0  0  0
  -17.6451  -30.6576   24.0583 C   0  0  0  0  0  0
  -25.9022  -34.9489   23.5174 C   0  0  0  0  0  0
  -16.5342  -29.9107   23.6286 C   0  0  0  0  0  0
  -16.7261  -28.6503   23.0350 C   0  0  0  0  0  0
  -26.4445  -31.6588   25.0732 C   0  0  0  0  0  0
  -25.3748  -31.3685   26.1517 C   0  0  0  0  0  0
  -27.0287  -30.3054   24.6034 C   0  0  0  0  0  0
  -27.6049  -32.4271   25.7465 C   0  0  0  0  0  0
  -27.5584  -37.1831   24.8468 C   0  0  0  0  0  0
  -21.4109  -29.3060   22.3780 N   0  0  0  0  0  0
  -26.4298  -37.3812   23.9411 N   0  0  0  0  0  0
  -24.6571  -31.0872   22.1010 N   0  0  0  0  0  0
  -23.4169  -28.8236   23.3025 O   0  0  0  0  0  0
  -28.3948  -26.7170   20.0433 O   0  0  0  0  0  0
  -26.5568  -34.8924   22.4720 O   0  0  0  0  0  0
  -23.5288  -32.1463   23.7562 O   0  0  0  0  0  0
  -29.1511  -20.0917   20.4516 C   0  0  0  0  0  0
  -30.9772  -21.6463   19.0129 C   0  0  0  0  0  0
  -29.5999  -21.3093   20.9974 C   0  0  0  0  0  0
  -29.6127  -19.6337   19.2019 C   0  0  0  0  0  0
  -30.5070  -22.1132   20.2599 C   0  0  0  0  0  0
  -30.5405  -20.4183   18.4783 C   0  0  0  0  0  0
  -29.0748  -21.7051   22.3681 C   0  0  0  0  0  0
  -29.0553  -18.3342   18.6363 C   0  0  0  0  0  0
  -31.0167  -23.4591   20.7681 C   0  0  0  0  0  0
  -28.8715  -17.1886   19.6488 C   0  0  0  0  0  0
  -30.1391  -16.8010   20.4366 C   0  0  0  0  0  0
  -30.4903  -25.8794   20.8787 C   0  0  0  0  0  0
  -29.3733  -26.9141   21.0616 C   0  0  0  0  0  0
  -29.9905  -15.4418   20.9645 N   0  0  0  0  0  0
  -29.9660  -24.4972   20.7692 N   0  3  0  0  0  0
  -31.1430  -19.9304   16.9302 Cl  0  0  0  0  0  0
  -31.4605  -12.3360   19.1017 H   0  0  0  0  0  0
  -30.3035  -11.2415   19.7924 H   0  0  0  0  0  0
  -29.7243  -11.7697   17.4153 H   0  0  0  0  0  0
  -29.6841  -13.4737   17.7638 H   0  0  0  0  0  0
  -27.8049  -11.3207   18.7915 H   0  0  0  0  0  0
  -27.3704  -12.6845   17.7898 H   0  0  0  0  0  0
  -27.7250  -14.2505   19.6112 H   0  0  0  0  0  0
  -28.6780  -11.9292   21.3584 H   0  0  0  0  0  0
  -28.4898  -13.5786   21.8707 H   0  0  0  0  0  0
  -25.2772   -9.5704   22.4789 H   0  0  0  0  0  0
  -24.0034   -7.4640   22.7488 H   0  0  0  0  0  0
  -21.0862   -8.8831   19.8970 H   0  0  0  0  0  0
  -22.3747  -10.9730   19.6199 H   0  0  0  0  0  0
  -21.2009   -7.6166   23.9753 H   0  0  0  0  0  0
  -21.1469   -6.0512   25.9093 H   0  0  0  0  0  0
  -22.0607   -2.7625   23.2828 H   0  0  0  0  0  0
  -22.4063  -11.9971   22.4783 H   0  0  0  0  0  0
  -21.1149  -13.1399   22.2550 H   0  0  0  0  0  0
  -24.6801  -15.8479   20.5337 H   0  0  0  0  0  0
  -26.2992  -15.6198   20.0918 H   0  0  0  0  0  0
  -26.7086  -32.5626   23.1248 H   0  0  0  0  0  0
  -25.0076  -33.9822   25.0569 H   0  0  0  0  0  0
  -22.6818  -31.3069   21.4081 H   0  0  0  0  0  0
  -23.3731  -35.9682   23.3310 H   0  0  0  0  0  0
  -24.3581  -36.8922   22.2041 H   0  0  0  0  0  0
  -23.7249  -37.6555   23.6623 H   0  0  0  0  0  0
  -26.0098  -31.6202   20.5835 H   0  0  0  0  0  0
  -26.8071  -30.9295   21.9664 H   0  0  0  0  0  0
  -28.0670  -29.2051   21.1863 H   0  0  0  0  0  0
  -26.1256  -25.9953   19.0281 H   0  0  0  0  0  0
  -24.0109  -27.2878   19.0241 H   0  0  0  0  0  0
  -23.7134  -30.5950   19.4002 H   0  0  0  0  0  0
  -22.7342  -29.2386   19.8635 H   0  0  0  0  0  0
  -25.1271  -36.2016   25.0845 H   0  0  0  0  0  0
  -20.9951  -28.3211   24.1460 H   0  0  0  0  0  0
  -20.5633  -26.2287   23.3598 H   0  0  0  0  0  0
  -21.6629  -26.7461   22.1225 H   0  0  0  0  0  0
  -19.6886  -25.6331   21.1210 H   0  0  0  0  0  0
  -19.6631  -27.3235   20.6752 H   0  0  0  0  0  0
  -17.4179  -26.6677   21.4020 H   0  0  0  0  0  0
  -18.0302  -26.0053   22.9001 H   0  0  0  0  0  0
  -19.7933  -30.7203   24.2367 H   0  0  0  0  0  0
  -17.5023  -31.6260   24.5200 H   0  0  0  0  0  0
  -15.5355  -30.3046   23.7562 H   0  0  0  0  0  0
  -15.8651  -28.0836   22.7065 H   0  0  0  0  0  0
  -24.5903  -30.7028   25.7895 H   0  0  0  0  0  0
  -24.8951  -32.2844   26.4978 H   0  0  0  0  0  0
  -25.8138  -30.8866   27.0267 H   0  0  0  0  0  0
  -26.2841  -29.6800   24.1103 H   0  0  0  0  0  0
  -27.4140  -29.7270   25.4442 H   0  0  0  0  0  0
  -27.8616  -30.4411   23.9134 H   0  0  0  0  0  0
  -27.2698  -33.3562   26.2076 H   0  0  0  0  0  0
  -28.3831  -32.6831   25.0266 H   0  0  0  0  0  0
  -28.0741  -31.8366   26.5343 H   0  0  0  0  0  0
  -28.2632  -38.0103   24.7507 H   0  0  0  0  0  0
  -28.1058  -36.2643   24.6307 H   0  0  0  0  0  0
  -27.2308  -37.1505   25.8873 H   0  0  0  0  0  0
  -20.9256  -29.8865   21.7085 H   0  0  0  0  0  0
  -26.0196  -38.2902   24.1380 H   0  0  0  0  0  0
  -28.4400  -19.4970   21.0042 H   0  0  0  0  0  0
  -31.6888  -22.2367   18.4519 H   0  0  0  0  0  0
  -28.3683  -22.5330   22.3061 H   0  0  0  0  0  0
  -28.5530  -20.8631   22.8247 H   0  0  0  0  0  0
  -29.8837  -21.9751   23.0445 H   0  0  0  0  0  0
  -29.6815  -17.9621   17.8253 H   0  0  0  0  0  0
  -28.0923  -18.5686   18.1822 H   0  0  0  0  0  0
  -31.8451  -23.7842   20.1341 H   0  0  0  0  0  0
  -31.4301  -23.3477   21.7693 H   0  0  0  0  0  0
  -28.5236  -16.3307   19.0776 H   0  0  0  0  0  0
  -28.0677  -17.4274   20.3468 H   0  0  0  0  0  0
  -31.0053  -16.8729   19.7738 H   0  0  0  0  0  0
  -30.3283  -17.4976   21.2533 H   0  0  0  0  0  0
  -31.1723  -25.9525   21.7265 H   0  0  0  0  0  0
  -31.0700  -26.1183   19.9864 H   0  0  0  0  0  0
  -29.8131  -27.9089   20.9964 H   0  0  0  0  0  0
  -28.9190  -26.8159   22.0512 H   0  0  0  0  0  0
  -29.1182  -15.2132   21.4182 H   0  0  0  0  0  0
  -29.3399  -24.3088   21.5349 H   0  0  0  0  0  0
  -29.4310  -24.4320   19.9161 H   0  0  0  0  0  0
  1 25  1  0  0  0
  1 30  2  0  0  0
  1 84  1  0  0  0
  2  3  1  0  0  0
  2 25  1  0  0  0
  2 87  1  0  0  0
  2 88  1  0  0  0
  3  4  1  0  0  0
  3 89  1  0  0  0
  3 90  1  0  0  0
  4  5  1  0  0  0
  4 91  1  0  0  0
  4 92  1  0  0  0
  5  6  1  0  0  0
  5 26  1  0  0  0
  5 93  1  0  0  0
  6 25  1  0  0  0
  6 94  1  0  0  0
  6 95  1  0  0  0
  7  8  2  0  0  0
  7 26  1  0  0  0
  7 29  1  0  0  0
  8  9  1  0  0  0
  8 22  1  0  0  0
  9 10  1  0  0  0
  9 27  2  0  0  0
 10 11  2  0  0  0
 10 15  1  0  0  0
 11 12  1  0  0  0
 11 96  1  0  0  0
 12 13  2  0  0  0
 12 97  1  0  0  0
 13 14  1  0  0  0
 13 31  1  0  0  0
 14 15  2  0  0  0
 14 98  1  0  0  0
 15 99  1  0  0  0
 16 17  2  0  0  0
 16 21  1  0  0  0
 16 31  1  0  0  0
 17 18  1  0  0  0
 17100  1  0  0  0
 18 19  2  0  0  0
 18101  1  0  0  0
 19 20  1  0  0  0
 19 24  1  0  0  0
 20 21  2  0  0  0
 20102  1  0  0  0
 21 23  1  0  0  0
 22 28  1  0  0  0
 22 32  2  0  0  0
 26 27  1  0  0  0
 28103  1  0  0  0
 28104  1  0  0  0
 29105  1  0  0  0
 29106  1  0  0  0
 33 34  1  0  0  0
 33 66  1  0  0  0
 33 70  2  0  0  0
 34 36  1  0  0  0
 34 59  1  0  0  0
 34107  1  0  0  0
 35 44  2  0  0  0
 35 45  1  0  0  0
 35 68  1  0  0  0
 36 56  1  0  0  0
 36108  1  0  0  0
 37 39  1  0  0  0
 37 47  1  0  0  0
 37 66  1  0  0  0
 37109  1  0  0  0
 38 43  2  0  0  0
 38 46  1  0  0  0
 38 47  1  0  0  0
 39 64  1  0  0  0
 39 67  2  0  0  0
 40 52  1  0  0  0
 40 53  2  0  0  0
 40 58  1  0  0  0
 41110  1  0  0  0
 41111  1  0  0  0
 41112  1  0  0  0
 41 48  1  0  0  0
 42 43  1  0  0  0
 42 66  1  0  0  0
 42113  1  0  0  0
 42114  1  0  0  0
 43 44  1  0  0  0
 44115  1  0  0  0
 45 46  2  0  0  0
 45116  1  0  0  0
 46117  1  0  0  0
 47118  1  0  0  0
 47119  1  0  0  0
 48 56  1  0  0  0
 48 65  1  0  0  0
 48120  1  0  0  0
 49 50  1  0  0  0
 49 53  1  0  0  0
 49 64  1  0  0  0
 49121  1  0  0  0
 50 51  1  0  0  0
 50122  1  0  0  0
 50123  1  0  0  0
 51 52  1  0  0  0
 51124  1  0  0  0
 51125  1  0  0  0
 52126  1  0  0  0
 52127  1  0  0  0
 53 54  1  0  0  0
 54 55  2  0  0  0
 54128  1  0  0  0
 55 57  1  0  0  0
 55129  1  0  0  0
 56 69  2  0  0  0
 57 58  2  0  0  0
 57130  1  0  0  0
 58131  1  0  0  0
 59 60  1  0  0  0
 59 61  1  0  0  0
 59 62  1  0  0  0
 60132  1  0  0  0
 60133  1  0  0  0
 60134  1  0  0  0
 61135  1  0  0  0
 61136  1  0  0  0
 61137  1  0  0  0
 62138  1  0  0  0
 62139  1  0  0  0
 62140  1  0  0  0
 63 65  1  0  0  0
 63141  1  0  0  0
 63142  1  0  0  0
 63143  1  0  0  0
 64144  1  0  0  0
 65145  1  0  0  0
 68 83  1  0  0  0
 71 73  2  0  0  0
 71 74  1  0  0  0
 71146  1  0  0  0
 72 75  2  0  0  0
 72 76  1  0  0  0
 72147  1  0  0  0
 73 75  1  0  0  0
 73 77  1  0  0  0
 74 76  2  0  0  0
 74 78  1  0  0  0
 75 79  1  0  0  0
 76 86  1  0  0  0
 77148  1  0  0  0
 77149  1  0  0  0
 77150  1  0  0  0
 78 80  1  0  0  0
 78151  1  0  0  0
 78152  1  0  0  0
 79 85  1  0  0  0
 79153  1  0  0  0
 79154  1  0  0  0
 80 81  1  0  0  0
 80155  1  0  0  0
 80156  1  0  0  0
 81 84  1  0  0  0
 81157  1  0  0  0
 81158  1  0  0  0
 82 83  1  0  0  0
 82 85  1  0  0  0
 82159  1  0  0  0
 82160  1  0  0  0
 83161  1  0  0  0
 83162  1  0  0  0
 84163  1  0  0  0
 85164  1  0  0  0
 85165  1  0  0  0
M  CHG  1  85   1
M  ISO  4   1 100  68 101  83 101  84 100
M  END
> <chiral flag>
0

> <version>
0

> <s_m_source_file>
/data/baiqing/PycharmProjects/Reinvent-master-3.2/result/LINK_invent/BTK/process_docking_weight1_custom_sum_contain_oxygen_bond_distance_aromatic_linkinvent_7_9_3/rearranged_h_0029.sdf

> <i_m_source_file_index>
6

> <r_mmod_Potential_Energy-OPLS-2005>
-248.793975830078

> <r_mmod_Stretch_Energy-OPLS-2005>
32.6446723937988

> <r_mmod_Bend_Energy-OPLS-2005>
93.2350997924805

> <r_mmod_Torsional_Energy-OPLS-2005>
214.848693847656

> <r_mmod_Improper_Torsional_Energy-OPLS-2005>
7.05734539031982

> <r_mmod_Van_der_Waal_Energy-OPLS-2005>
156.349563598633

> <r_mmod_Electrostatic_Energy-OPLS-2005>
-313.891265869141

> <r_mmod_Solvation_Energy-OPLS-2005>
-447.6162109375

> <b_mmod_Minimization_Converged-OPLS-2005>
0

> <r_mmod_RMS_Derivative-OPLS-2005>
4.52528810501099

$$$$
6
                    3D
 Structure written by MMmdl.
167176  0  0  1  0            999 V2000
  -30.5256  -15.0205   20.3227 C   0  0  0  0  0  0
  -30.4733  -12.6027   19.5232 C   0  0  0  0  0  0
  -29.5576  -12.3376   18.2992 C   0  0  0  0  0  0
  -28.0630  -12.2648   18.6876 C   0  0  0  0  0  0
  -27.6305  -13.2343   19.8217 C   0  0  2  0  0  0
  -28.6791  -13.3266   20.9468 C   0  0  0  0  0  0
  -25.2517  -13.8180   20.5743 C   0  0  0  0  0  0
  -24.1790  -13.0455   20.9242 C   0  0  0  0  0  0
  -24.6357  -11.6920   20.8775 C   0  0  0  0  0  0
  -23.9027  -10.4301   21.0417 C   0  0  0  0  0  0
  -24.3580   -9.4220   21.9198 C   0  0  0  0  0  0
  -23.6271   -8.2248   22.0762 C   0  0  0  0  0  0
  -22.4262   -8.0268   21.3545 C   0  0  0  0  0  0
  -21.9883   -9.0243   20.4657 C   0  0  0  0  0  0
  -22.7196  -10.2131   20.3071 C   0  0  0  0  0  0
  -21.6862   -6.0707   22.5259 C   0  0  0  0  0  0
  -21.4019   -6.5612   23.8188 C   0  0  0  0  0  0
  -21.3667   -5.6777   24.9159 C   0  0  0  0  0  0
  -21.6050   -4.3038   24.7228 C   0  0  0  0  0  0
  -21.8821   -3.8121   23.4353 C   0  0  0  0  0  0
  -21.9204   -4.6932   22.3401 C   0  0  0  0  0  0
  -22.7808  -13.5242   21.1890 C   0  0  0  0  0  0
  -22.1671   -4.2107   21.0984 F   0  0  0  0  0  0
  -21.5645   -3.4533   25.7752 F   0  0  0  0  0  0
  -29.9379  -13.7451   20.3177 N   0  0  0  0  0  0
  -26.2915  -12.9374   20.3253 N   0  0  0  0  0  0
  -25.9301  -11.6538   20.5807 N   0  0  0  0  0  0
  -22.0434  -12.8246   22.0435 N   0  0  0  0  0  0
  -25.4302  -15.1899   20.4165 N   0  0  0  0  0  0
  -31.7619  -15.0479   20.3160 O   0  0  0  0  0  0
  -21.6648   -6.8849   21.4221 O   0  0  0  0  0  0
  -22.3501  -14.5558   20.6734 O   0  0  0  0  0  0
  -24.6405  -31.8461   23.1906 C   0  0  0  0  0  0
  -25.9190  -32.4702   23.8276 C   0  0  1  0  0  0
  -27.2142  -27.1483   20.1648 C   0  0  0  0  0  0
  -25.5951  -33.8508   24.2213 N   0  0  0  0  0  0
  -23.4432  -30.4661   21.5357 C   0  0  2  0  0  0
  -24.8936  -28.8964   20.1097 C   0  0  0  0  0  0
  -22.7552  -29.4551   22.4868 C   0  0  0  0  0  0
  -18.0298  -28.1393   22.8475 C   0  0  0  0  0  0
  -24.1506  -36.7253   23.2641 C   0  0  0  0  0  0
  -25.9970  -30.7252   21.3874 C   0  0  0  0  0  0
  -26.0694  -29.3373   20.7313 C   0  0  0  0  0  0
  -27.2297  -28.4792   20.7427 C   0  0  0  0  0  0
  -26.0169  -26.8085   19.4954 C   0  0  0  0  0  0
  -24.8807  -27.6458   19.4753 C   0  0  0  0  0  0
  -23.6689  -29.7974   20.1537 C   0  0  0  0  0  0
  -25.4137  -36.3041   24.0325 C   0  0  1  0  0  0
  -20.5911  -28.3720   23.1245 C   0  0  2  0  0  0
  -20.6798  -26.9424   22.5411 C   0  0  0  0  0  0
  -19.5773  -26.6381   21.5217 C   0  0  0  0  0  0
  -18.1950  -26.7930   22.1617 C   0  0  0  0  0  0
  -19.1556  -28.8873   23.2850 C   0  0  0  0  0  0
  -18.9468  -30.1473   23.8873 C   0  0  0  0  0  0
  -17.6468  -30.6591   24.0554 C   0  0  0  0  0  0
  -25.9078  -34.9411   23.5082 C   0  0  0  0  0  0
  -16.5358  -29.9082   23.6338 C   0  0  0  0  0  0
  -16.7285  -28.6500   23.0356 C   0  0  0  0  0  0
  -26.4535  -31.6538   25.0687 C   0  0  0  0  0  0
  -25.3724  -31.3687   26.1376 C   0  0  0  0  0  0
  -27.0409  -30.2948   24.6227 C   0  0  0  0  0  0
  -27.6087  -32.4279   25.7460 C   0  0  0  0  0  0
  -27.5592  -37.1783   24.8468 C   0  0  0  0  0  0
  -21.4242  -29.3046   22.3614 N   0  0  0  0  0  0
  -26.4304  -37.3749   23.9406 N   0  0  0  0  0  0
  -24.7133  -31.0332   22.0935 N   0  0  0  0  0  0
  -23.4211  -28.8093   23.2998 O   0  0  0  0  0  0
  -28.2639  -26.1660   20.2638 O   0  0  0  0  0  0
  -26.5658  -34.8903   22.4657 O   0  0  0  0  0  0
  -23.5533  -32.1325   23.7146 O   0  0  0  0  0  0
  -30.8585  -17.7910   18.6554 C   0  0  0  0  0  0
  -30.1469  -17.6654   19.8119 C   0  0  0  0  0  0
  -30.6400  -16.5980   17.7636 C   0  0  0  0  0  0
  -28.5826  -19.2458   18.5450 C   0  0  0  0  0  0
  -29.7349  -19.7864   17.6500 C   0  0  0  0  0  0
  -29.4929  -15.9051   18.4887 C   0  0  0  0  0  0
  -29.0989  -18.9761   19.9819 C   0  0  2  0  0  0
  -31.1193  -19.1201   17.9243 C   0  0  0  0  0  0
  -31.8757  -18.9524   16.5795 C   0  0  0  0  0  0
  -32.0660  -20.0121   18.7670 C   0  0  0  0  0  0
  -28.9419  -23.3319   20.5581 C   0  0  0  0  0  0
  -28.5374  -21.7247   20.2500 C   0  0  0  0  0  0
  -27.9783  -24.6443   20.1178 C   0  0  0  0  0  0
  -29.7665  -16.1862   19.9022 N   0  0  0  0  0  0
  -29.4473  -20.4366   20.5348 N   0  3  0  0  0  0
  -31.4916  -12.8023   19.1848 H   0  0  0  0  0  0
  -30.5413  -11.7139   20.1521 H   0  0  0  0  0  0
  -29.8435  -11.3783   17.8647 H   0  0  0  0  0  0
  -29.7354  -13.0355   17.4851 H   0  0  0  0  0  0
  -27.8958  -11.2394   19.0190 H   0  0  0  0  0  0
  -27.4336  -12.4037   17.8083 H   0  0  0  0  0  0
  -27.5660  -14.2171   19.3595 H   0  0  0  0  0  0
  -28.7922  -12.3716   21.4618 H   0  0  0  0  0  0
  -28.3732  -14.0578   21.6973 H   0  0  0  0  0  0
  -25.2721   -9.5709   22.4779 H   0  0  0  0  0  0
  -23.9993   -7.4626   22.7462 H   0  0  0  0  0  0
  -21.0832   -8.8732   19.8947 H   0  0  0  0  0  0
  -22.3633  -10.9661   19.6184 H   0  0  0  0  0  0
  -21.1996   -7.6117   23.9671 H   0  0  0  0  0  0
  -21.1498   -6.0519   25.9058 H   0  0  0  0  0  0
  -22.0600   -2.7580   23.2871 H   0  0  0  0  0  0
  -22.4043  -11.9914   22.4840 H   0  0  0  0  0  0
  -21.1034  -13.1253   22.2600 H   0  0  0  0  0  0
  -24.6776  -15.8597   20.5316 H   0  0  0  0  0  0
  -26.2984  -15.6127   20.1150 H   0  0  0  0  0  0
  -26.7234  -32.5326   23.0983 H   0  0  0  0  0  0
  -25.0086  -33.9631   25.0352 H   0  0  0  0  0  0
  -22.7444  -31.2920   21.3847 H   0  0  0  0  0  0
  -23.3786  -35.9566   23.3283 H   0  0  0  0  0  0
  -24.3592  -36.8903   22.2058 H   0  0  0  0  0  0
  -23.7245  -37.6439   23.6682 H   0  0  0  0  0  0
  -26.1495  -31.4805   20.6151 H   0  0  0  0  0  0
  -26.8692  -30.7762   22.0278 H   0  0  0  0  0  0
  -28.1210  -28.8081   21.2585 H   0  0  0  0  0  0
  -25.9238  -25.8528   19.0021 H   0  0  0  0  0  0
  -23.9837  -27.3068   18.9762 H   0  0  0  0  0  0
  -23.8041  -30.5752   19.4010 H   0  0  0  0  0  0
  -22.7838  -29.2406   19.8410 H   0  0  0  0  0  0
  -25.1325  -36.1877   25.0817 H   0  0  0  0  0  0
  -21.0002  -28.3313   24.1365 H   0  0  0  0  0  0
  -20.5721  -26.2322   23.3624 H   0  0  0  0  0  0
  -21.6663  -26.7452   22.1192 H   0  0  0  0  0  0
  -19.6949  -25.6289   21.1260 H   0  0  0  0  0  0
  -19.6724  -27.3183   20.6742 H   0  0  0  0  0  0
  -17.4227  -26.6678   21.4008 H   0  0  0  0  0  0
  -18.0338  -26.0069   22.9008 H   0  0  0  0  0  0
  -19.7943  -30.7298   24.2233 H   0  0  0  0  0  0
  -17.5017  -31.6273   24.5151 H   0  0  0  0  0  0
  -15.5361  -30.2979   23.7680 H   0  0  0  0  0  0
  -15.8679  -28.0821   22.7090 H   0  0  0  0  0  0
  -24.5942  -30.7001   25.7668 H   0  0  0  0  0  0
  -24.8863  -32.2845   26.4740 H   0  0  0  0  0  0
  -25.8013  -30.8890   27.0182 H   0  0  0  0  0  0
  -26.3013  -29.6646   24.1272 H   0  0  0  0  0  0
  -27.4098  -29.7257   25.4767 H   0  0  0  0  0  0
  -27.8885  -30.4209   23.9490 H   0  0  0  0  0  0
  -27.2721  -33.3618   26.1969 H   0  0  0  0  0  0
  -28.3927  -32.6761   25.0292 H   0  0  0  0  0  0
  -28.0709  -31.8423   26.5417 H   0  0  0  0  0  0
  -28.2596  -38.0094   24.7533 H   0  0  0  0  0  0
  -28.1107  -36.2625   24.6286 H   0  0  0  0  0  0
  -27.2296  -37.1410   25.8866 H   0  0  0  0  0  0
  -20.9452  -29.8741   21.6777 H   0  0  0  0  0  0
  -26.0182  -38.2822   24.1397 H   0  0  0  0  0  0
  -31.5508  -15.9995   17.6970 H   0  0  0  0  0  0
  -30.2963  -16.8459   16.7609 H   0  0  0  0  0  0
  -28.1922  -18.3352   18.1055 H   0  0  0  0  0  0
  -27.7049  -19.8868   18.5199 H   0  0  0  0  0  0
  -29.8271  -20.8687   17.7365 H   0  0  0  0  0  0
  -29.4327  -19.6230   16.6147 H   0  0  0  0  0  0
  -29.4111  -14.8863   18.1569 H   0  0  0  0  0  0
  -28.5220  -16.3140   18.2248 H   0  0  0  0  0  0
  -28.2566  -18.6165   20.5747 H   0  0  0  0  0  0
  -31.2885  -18.4696   15.8000 H   0  0  0  0  0  0
  -32.7929  -18.3743   16.7013 H   0  0  0  0  0  0
  -32.1642  -19.9218   16.1697 H   0  0  0  0  0  0
  -31.8021  -20.1011   19.8150 H   0  0  0  0  0  0
  -32.1352  -21.0192   18.3518 H   0  0  0  0  0  0
  -33.0812  -19.6097   18.7645 H   0  0  0  0  0  0
  -29.9195  -23.4991   20.1084 H   0  0  0  0  0  0
  -29.1090  -23.4193   21.6309 H   0  0  0  0  0  0
  -28.3125  -21.7570   19.1885 H   0  0  0  0  0  0
  -27.5770  -21.5309   20.7299 H   0  0  0  0  0  0
  -27.0282  -24.4805   20.6283 H   0  0  0  0  0  0
  -27.7542  -24.4987   19.0607 H   0  0  0  0  0  0
  -30.3575  -20.6552   20.1632 H   0  0  0  0  0  0
  -29.5695  -20.3588   21.5328 H   0  0  0  0  0  0
  1 25  1  0  0  0
  1 30  2  0  0  0
  1 84  1  0  0  0
  2  3  1  0  0  0
  2 25  1  0  0  0
  2 86  1  0  0  0
  2 87  1  0  0  0
  3  4  1  0  0  0
  3 88  1  0  0  0
  3 89  1  0  0  0
  4  5  1  0  0  0
  4 90  1  0  0  0
  4 91  1  0  0  0
  5  6  1  0  0  0
  5 26  1  0  0  0
  5 92  1  0  0  0
  6 25  1  0  0  0
  6 93  1  0  0  0
  6 94  1  0  0  0
  7  8  2  0  0  0
  7 26  1  0  0  0
  7 29  1  0  0  0
  8  9  1  0  0  0
  8 22  1  0  0  0
  9 10  1  0  0  0
  9 27  2  0  0  0
 10 11  2  0  0  0
 10 15  1  0  0  0
 11 12  1  0  0  0
 11 95  1  0  0  0
 12 13  2  0  0  0
 12 96  1  0  0  0
 13 14  1  0  0  0
 13 31  1  0  0  0
 14 15  2  0  0  0
 14 97  1  0  0  0
 15 98  1  0  0  0
 16 17  2  0  0  0
 16 21  1  0  0  0
 16 31  1  0  0  0
 17 18  1  0  0  0
 17 99  1  0  0  0
 18 19  2  0  0  0
 18100  1  0  0  0
 19 20  1  0  0  0
 19 24  1  0  0  0
 20 21  2  0  0  0
 20101  1  0  0  0
 21 23  1  0  0  0
 22 28  1  0  0  0
 22 32  2  0  0  0
 26 27  1  0  0  0
 28102  1  0  0  0
 28103  1  0  0  0
 29104  1  0  0  0
 29105  1  0  0  0
 33 34  1  0  0  0
 33 66  1  0  0  0
 33 70  2  0  0  0
 34 36  1  0  0  0
 34 59  1  0  0  0
 34106  1  0  0  0
 35 44  2  0  0  0
 35 45  1  0  0  0
 35 68  1  0  0  0
 36 56  1  0  0  0
 36107  1  0  0  0
 37 39  1  0  0  0
 37 47  1  0  0  0
 37 66  1  0  0  0
 37108  1  0  0  0
 38 43  2  0  0  0
 38 46  1  0  0  0
 38 47  1  0  0  0
 39 64  1  0  0  0
 39 67  2  0  0  0
 40 52  1  0  0  0
 40 53  2  0  0  0
 40 58  1  0  0  0
 41109  1  0  0  0
 41110  1  0  0  0
 41111  1  0  0  0
 41 48  1  0  0  0
 42 43  1  0  0  0
 42 66  1  0  0  0
 42112  1  0  0  0
 42113  1  0  0  0
 43 44  1  0  0  0
 44114  1  0  0  0
 45 46  2  0  0  0
 45115  1  0  0  0
 46116  1  0  0  0
 47117  1  0  0  0
 47118  1  0  0  0
 48 56  1  0  0  0
 48 65  1  0  0  0
 48119  1  0  0  0
 49 50  1  0  0  0
 49 53  1  0  0  0
 49 64  1  0  0  0
 49120  1  0  0  0
 50 51  1  0  0  0
 50121  1  0  0  0
 50122  1  0  0  0
 51 52  1  0  0  0
 51123  1  0  0  0
 51124  1  0  0  0
 52125  1  0  0  0
 52126  1  0  0  0
 53 54  1  0  0  0
 54 55  2  0  0  0
 54127  1  0  0  0
 55 57  1  0  0  0
 55128  1  0  0  0
 56 69  2  0  0  0
 57 58  2  0  0  0
 57129  1  0  0  0
 58130  1  0  0  0
 59 60  1  0  0  0
 59 61  1  0  0  0
 59 62  1  0  0  0
 60131  1  0  0  0
 60132  1  0  0  0
 60133  1  0  0  0
 61134  1  0  0  0
 61135  1  0  0  0
 61136  1  0  0  0
 62137  1  0  0  0
 62138  1  0  0  0
 62139  1  0  0  0
 63 65  1  0  0  0
 63140  1  0  0  0
 63141  1  0  0  0
 63142  1  0  0  0
 64143  1  0  0  0
 65144  1  0  0  0
 68 83  1  0  0  0
 71 72  2  0  0  0
 71 73  1  0  0  0
 71 78  1  0  0  0
 72 77  1  0  0  0
 72 84  1  0  0  0
 73 76  1  0  0  0
 73145  1  0  0  0
 73146  1  0  0  0
 74 75  1  0  0  0
 74 77  1  0  0  0
 74147  1  0  0  0
 74148  1  0  0  0
 75 78  1  0  0  0
 75149  1  0  0  0
 75150  1  0  0  0
 76 84  1  0  0  0
 76151  1  0  0  0
 76152  1  0  0  0
 77 85  1  0  0  0
 77153  1  0  0  0
 78 79  1  0  0  0
 78 80  1  0  0  0
 79154  1  0  0  0
 79155  1  0  0  0
 79156  1  0  0  0
 80157  1  0  0  0
 80158  1  0  0  0
 80159  1  0  0  0
 81 82  1  0  0  0
 81 83  1  0  0  0
 81160  1  0  0  0
 81161  1  0  0  0
 82 85  1  0  0  0
 82162  1  0  0  0
 82163  1  0  0  0
 83164  1  0  0  0
 83165  1  0  0  0
 85166  1  0  0  0
 85167  1  0  0  0
M  CHG  1  85   1
M  ISO  4   1 100  68 101  83 101  84 100
M  END
> <chiral flag>
0

> <version>
0

> <s_m_source_file>
/data/baiqing/PycharmProjects/Reinvent-master-3.2/result/LINK_invent/BTK/process_docking_weight1_custom_sum_contain_oxygen_bond_distance_aromatic_linkinvent_7_9_3/rearranged_h_0029.sdf

> <i_m_source_file_index>
7

> <r_mmod_Potential_Energy-OPLS-2005>
879.498046875

> <r_mmod_Stretch_Energy-OPLS-2005>
311.392608642578

> <r_mmod_Bend_Energy-OPLS-2005>
421.125579833984

> <r_mmod_Torsional_Energy-OPLS-2005>
412.992340087891

> <r_mmod_Improper_Torsional_Energy-OPLS-2005>
28.1381874084473

> <r_mmod_Van_der_Waal_Energy-OPLS-2005>
169.839614868164

> <r_mmod_Electrostatic_Energy-OPLS-2005>
-249.171936035156

> <r_mmod_Solvation_Energy-OPLS-2005>
-447.937255859375

> <b_mmod_Minimization_Converged-OPLS-2005>
0

> <r_mmod_RMS_Derivative-OPLS-2005>
2.32536220550537

$$$$
7
                    3D
 Structure written by MMmdl.
153161  0  0  1  0            999 V2000
  -30.6261  -14.6124   20.5205 C   0  0  0  0  0  0
  -30.4414  -12.3782   19.4484 C   0  0  0  0  0  0
  -29.5088  -12.5004   18.2211 C   0  0  0  0  0  0
  -28.0326  -12.3360   18.6316 C   0  0  0  0  0  0
  -27.6563  -13.2098   19.8585 C   0  0  2  0  0  0
  -28.6968  -13.0476   20.9900 C   0  0  0  0  0  0
  -25.2591  -13.8172   20.5635 C   0  0  0  0  0  0
  -24.1852  -13.0442   20.9152 C   0  0  0  0  0  0
  -24.6406  -11.6902   20.8709 C   0  0  0  0  0  0
  -23.9074  -10.4287   21.0396 C   0  0  0  0  0  0
  -24.3621   -9.4201   21.9177 C   0  0  0  0  0  0
  -23.6285   -8.2250   22.0765 C   0  0  0  0  0  0
  -22.4267   -8.0290   21.3548 C   0  0  0  0  0  0
  -21.9894   -9.0276   20.4658 C   0  0  0  0  0  0
  -22.7236  -10.2139   20.3054 C   0  0  0  0  0  0
  -21.6863   -6.0731   22.5275 C   0  0  0  0  0  0
  -21.4015   -6.5625   23.8211 C   0  0  0  0  0  0
  -21.3655   -5.6771   24.9168 C   0  0  0  0  0  0
  -21.6044   -4.3039   24.7223 C   0  0  0  0  0  0
  -21.8824   -3.8133   23.4339 C   0  0  0  0  0  0
  -21.9193   -4.6952   22.3392 C   0  0  0  0  0  0
  -22.7879  -13.5257   21.1803 C   0  0  0  0  0  0
  -22.1663   -4.2133   21.0975 F   0  0  0  0  0  0
  -21.5626   -3.4521   25.7738 F   0  0  0  0  0  0
  -30.0174  -13.3897   20.4358 N   0  0  0  0  0  0
  -26.3010  -12.9335   20.3256 N   0  0  0  0  0  0
  -25.9330  -11.6495   20.5703 N   0  0  0  0  0  0
  -22.0520  -12.8289   22.0384 N   0  0  0  0  0  0
  -25.4334  -15.1894   20.4090 N   0  0  0  0  0  0
  -31.7734  -14.7972   20.0999 O   0  0  0  0  0  0
  -21.6638   -6.8887   21.4245 O   0  0  0  0  0  0
  -22.3575  -14.5567   20.6645 O   0  0  0  0  0  0
  -24.6261  -31.8593   23.2022 C   0  0  0  0  0  0
  -25.9108  -32.4771   23.8346 C   0  0  1  0  0  0
  -27.2238  -27.3248   20.1078 C   0  0  0  0  0  0
  -25.5923  -33.8565   24.2274 N   0  0  0  0  0  0
  -23.4179  -30.4846   21.5449 C   0  0  2  0  0  0
  -24.8644  -28.9454   20.1078 C   0  0  0  0  0  0
  -22.7459  -29.4619   22.4930 C   0  0  0  0  0  0
  -18.0278  -28.1359   22.8487 C   0  0  0  0  0  0
  -24.1487  -36.7290   23.2640 C   0  0  0  0  0  0
  -25.9594  -30.7937   21.3726 C   0  0  0  0  0  0
  -26.0343  -29.4232   20.7117 C   0  0  0  0  0  0
  -27.2179  -28.6260   20.6998 C   0  0  0  0  0  0
  -26.0279  -26.9029   19.4785 C   0  0  0  0  0  0
  -24.8649  -27.6924   19.4796 C   0  0  0  0  0  0
  -23.6301  -29.8214   20.1599 C   0  0  0  0  0  0
  -25.4111  -36.3075   24.0333 C   0  0  1  0  0  0
  -20.5877  -28.3657   23.1280 C   0  0  2  0  0  0
  -20.6752  -26.9377   22.5397 C   0  0  0  0  0  0
  -19.5739  -26.6370   21.5181 C   0  0  0  0  0  0
  -18.1922  -26.7905   22.1608 C   0  0  0  0  0  0
  -19.1532  -28.8823   23.2884 C   0  0  0  0  0  0
  -18.9453  -30.1426   23.8908 C   0  0  0  0  0  0
  -17.6457  -30.6565   24.0551 C   0  0  0  0  0  0
  -25.9044  -34.9448   23.5105 C   0  0  0  0  0  0
  -16.5347  -29.9064   23.6322 C   0  0  0  0  0  0
  -16.7268  -28.6469   23.0361 C   0  0  0  0  0  0
  -26.4511  -31.6580   25.0707 C   0  0  0  0  0  0
  -25.3766  -31.3712   26.1457 C   0  0  0  0  0  0
  -27.0332  -30.3000   24.6143 C   0  0  0  0  0  0
  -27.6086  -32.4313   25.7455 C   0  0  0  0  0  0
  -27.5585  -37.1783   24.8464 C   0  0  0  0  0  0
  -21.4171  -29.3033   22.3680 N   0  0  0  0  0  0
  -26.4292  -37.3772   23.9420 N   0  0  0  0  0  0
  -24.6859  -31.0627   22.0967 N   0  0  0  0  0  0
  -23.4190  -28.8148   23.2996 O   0  0  0  0  0  0
  -28.3418  -26.4751   20.1544 O   0  0  0  0  0  0
  -26.5604  -34.8922   22.4665 O   0  0  0  0  0  0
  -23.5425  -32.1381   23.7367 O   0  0  0  0  0  0
  -29.6566  -19.1394   19.4437 C   0  0  0  0  0  0
  -30.1997  -17.9302   21.9010 C   0  0  0  0  0  0
  -29.9256  -20.0007   20.5438 C   0  0  0  0  0  0
  -29.9577  -17.0744   20.7966 C   0  0  0  0  0  0
  -29.6559  -17.7149   19.5617 C   0  0  0  0  0  0
  -30.1911  -19.3519   21.7841 C   0  0  0  0  0  0
  -30.1159  -21.5541   20.3451 C   0  0  0  0  0  0
  -29.2885  -23.9984   20.3439 C   0  0  0  0  0  0
  -28.1053  -25.0148   20.0427 C   0  0  0  0  0  0
  -29.8497  -15.6326   20.9886 N   0  0  0  0  0  0
  -28.9426  -22.5087   20.3707 N   0  3  0  0  0  0
  -29.2408  -16.7690   18.1749 Cl  0  0  0  0  0  0
  -30.5412  -20.2820   23.1980 Cl  0  0  0  0  0  0
  -31.4831  -12.5052   19.1471 H   0  0  0  0  0  0
  -30.3786  -11.3788   19.8833 H   0  0  0  0  0  0
  -29.7694  -11.7507   17.4742 H   0  0  0  0  0  0
  -29.6495  -13.4722   17.7419 H   0  0  0  0  0  0
  -27.8718  -11.2825   18.8663 H   0  0  0  0  0  0
  -27.3803  -12.5617   17.7868 H   0  0  0  0  0  0
  -27.6813  -14.2458   19.5191 H   0  0  0  0  0  0
  -28.7014  -12.0186   21.3525 H   0  0  0  0  0  0
  -28.4373  -13.6629   21.8531 H   0  0  0  0  0  0
  -25.2779   -9.5660   22.4738 H   0  0  0  0  0  0
  -23.9977   -7.4641   22.7492 H   0  0  0  0  0  0
  -21.0810   -8.8818   19.8976 H   0  0  0  0  0  0
  -22.3718  -10.9687   19.6154 H   0  0  0  0  0  0
  -21.2017   -7.6135   23.9718 H   0  0  0  0  0  0
  -21.1468   -6.0498   25.9072 H   0  0  0  0  0  0
  -22.0608   -2.7593   23.2858 H   0  0  0  0  0  0
  -22.4129  -11.9942   22.4768 H   0  0  0  0  0  0
  -21.1163  -13.1367   22.2614 H   0  0  0  0  0  0
  -24.6697  -15.8462   20.5325 H   0  0  0  0  0  0
  -26.2820  -15.6256   20.0723 H   0  0  0  0  0  0
  -26.7162  -32.5448   23.1077 H   0  0  0  0  0  0
  -25.0074  -33.9697   25.0422 H   0  0  0  0  0  0
  -22.7124  -31.3057   21.4032 H   0  0  0  0  0  0
  -23.3753  -35.9619   23.3290 H   0  0  0  0  0  0
  -24.3584  -36.8917   22.2058 H   0  0  0  0  0  0
  -23.7230  -37.6487   23.6662 H   0  0  0  0  0  0
  -26.0947  -31.5611   20.6091 H   0  0  0  0  0  0
  -26.8386  -30.8375   22.0034 H   0  0  0  0  0  0
  -28.1167  -28.9911   21.1776 H   0  0  0  0  0  0
  -25.9539  -25.9506   18.9762 H   0  0  0  0  0  0
  -23.9717  -27.3274   18.9911 H   0  0  0  0  0  0
  -23.7397  -30.5967   19.4012 H   0  0  0  0  0  0
  -22.7521  -29.2452   19.8615 H   0  0  0  0  0  0
  -25.1286  -36.1925   25.0824 H   0  0  0  0  0  0
  -20.9977  -28.3215   24.1399 H   0  0  0  0  0  0
  -20.5594  -26.2261   23.3587 H   0  0  0  0  0  0
  -21.6628  -26.7365   22.1228 H   0  0  0  0  0  0
  -19.6894  -25.6282   21.1205 H   0  0  0  0  0  0
  -19.6684  -27.3181   20.6713 H   0  0  0  0  0  0
  -17.4173  -26.6632   21.4030 H   0  0  0  0  0  0
  -18.0355  -26.0039   22.9003 H   0  0  0  0  0  0
  -19.7929  -30.7226   24.2298 H   0  0  0  0  0  0
  -17.5010  -31.6257   24.5135 H   0  0  0  0  0  0
  -15.5348  -30.2968   23.7644 H   0  0  0  0  0  0
  -15.8661  -28.0782   22.7106 H   0  0  0  0  0  0
  -24.5906  -30.7097   25.7792 H   0  0  0  0  0  0
  -24.9009  -32.2879   26.4958 H   0  0  0  0  0  0
  -25.8128  -30.8829   27.0180 H   0  0  0  0  0  0
  -26.2864  -29.6747   24.1226 H   0  0  0  0  0  0
  -27.4087  -29.7279   25.4637 H   0  0  0  0  0  0
  -27.8731  -30.4290   23.9310 H   0  0  0  0  0  0
  -27.2697  -33.3597   26.2077 H   0  0  0  0  0  0
  -28.3861  -32.6902   25.0248 H   0  0  0  0  0  0
  -28.0792  -31.8405   26.5326 H   0  0  0  0  0  0
  -28.2597  -38.0084   24.7523 H   0  0  0  0  0  0
  -28.1079  -36.2617   24.6265 H   0  0  0  0  0  0
  -27.2307  -37.1406   25.8866 H   0  0  0  0  0  0
  -20.9313  -29.8793   21.6941 H   0  0  0  0  0  0
  -26.0174  -38.2845   24.1439 H   0  0  0  0  0  0
  -29.4650  -19.5714   18.4721 H   0  0  0  0  0  0
  -30.3992  -17.4929   22.8688 H   0  0  0  0  0  0
  -30.6062  -21.6845   19.3803 H   0  0  0  0  0  0
  -30.8491  -21.9060   21.0709 H   0  0  0  0  0  0
  -29.7323  -24.2518   21.3070 H   0  0  0  0  0  0
  -30.0691  -24.1611   19.5996 H   0  0  0  0  0  0
  -27.2761  -24.7627   20.7062 H   0  0  0  0  0  0
  -27.7682  -24.8032   19.0272 H   0  0  0  0  0  0
  -28.9682  -15.3211   21.3670 H   0  0  0  0  0  0
  -28.3973  -22.3203   21.1977 H   0  0  0  0  0  0
  -28.3639  -22.2831   19.5769 H   0  0  0  0  0  0
  1 25  1  0  0  0
  1 30  2  0  0  0
  1 80  1  0  0  0
  2  3  1  0  0  0
  2 25  1  0  0  0
  2 84  1  0  0  0
  2 85  1  0  0  0
  3  4  1  0  0  0
  3 86  1  0  0  0
  3 87  1  0  0  0
  4  5  1  0  0  0
  4 88  1  0  0  0
  4 89  1  0  0  0
  5  6  1  0  0  0
  5 26  1  0  0  0
  5 90  1  0  0  0
  6 25  1  0  0  0
  6 91  1  0  0  0
  6 92  1  0  0  0
  7  8  2  0  0  0
  7 26  1  0  0  0
  7 29  1  0  0  0
  8  9  1  0  0  0
  8 22  1  0  0  0
  9 10  1  0  0  0
  9 27  2  0  0  0
 10 11  2  0  0  0
 10 15  1  0  0  0
 11 12  1  0  0  0
 11 93  1  0  0  0
 12 13  2  0  0  0
 12 94  1  0  0  0
 13 14  1  0  0  0
 13 31  1  0  0  0
 14 15  2  0  0  0
 14 95  1  0  0  0
 15 96  1  0  0  0
 16 17  2  0  0  0
 16 21  1  0  0  0
 16 31  1  0  0  0
 17 18  1  0  0  0
 17 97  1  0  0  0
 18 19  2  0  0  0
 18 98  1  0  0  0
 19 20  1  0  0  0
 19 24  1  0  0  0
 20 21  2  0  0  0
 20 99  1  0  0  0
 21 23  1  0  0  0
 22 28  1  0  0  0
 22 32  2  0  0  0
 26 27  1  0  0  0
 28100  1  0  0  0
 28101  1  0  0  0
 29102  1  0  0  0
 29103  1  0  0  0
 33 34  1  0  0  0
 33 66  1  0  0  0
 33 70  2  0  0  0
 34 36  1  0  0  0
 34 59  1  0  0  0
 34104  1  0  0  0
 35 44  2  0  0  0
 35 45  1  0  0  0
 35 68  1  0  0  0
 36 56  1  0  0  0
 36105  1  0  0  0
 37 39  1  0  0  0
 37 47  1  0  0  0
 37 66  1  0  0  0
 37106  1  0  0  0
 38 43  2  0  0  0
 38 46  1  0  0  0
 38 47  1  0  0  0
 39 64  1  0  0  0
 39 67  2  0  0  0
 40 52  1  0  0  0
 40 53  2  0  0  0
 40 58  1  0  0  0
 41107  1  0  0  0
 41108  1  0  0  0
 41109  1  0  0  0
 41 48  1  0  0  0
 42 43  1  0  0  0
 42 66  1  0  0  0
 42110  1  0  0  0
 42111  1  0  0  0
 43 44  1  0  0  0
 44112  1  0  0  0
 45 46  2  0  0  0
 45113  1  0  0  0
 46114  1  0  0  0
 47115  1  0  0  0
 47116  1  0  0  0
 48 56  1  0  0  0
 48 65  1  0  0  0
 48117  1  0  0  0
 49 50  1  0  0  0
 49 53  1  0  0  0
 49 64  1  0  0  0
 49118  1  0  0  0
 50 51  1  0  0  0
 50119  1  0  0  0
 50120  1  0  0  0
 51 52  1  0  0  0
 51121  1  0  0  0
 51122  1  0  0  0
 52123  1  0  0  0
 52124  1  0  0  0
 53 54  1  0  0  0
 54 55  2  0  0  0
 54125  1  0  0  0
 55 57  1  0  0  0
 55126  1  0  0  0
 56 69  2  0  0  0
 57 58  2  0  0  0
 57127  1  0  0  0
 58128  1  0  0  0
 59 60  1  0  0  0
 59 61  1  0  0  0
 59 62  1  0  0  0
 60129  1  0  0  0
 60130  1  0  0  0
 60131  1  0  0  0
 61132  1  0  0  0
 61133  1  0  0  0
 61134  1  0  0  0
 62135  1  0  0  0
 62136  1  0  0  0
 62137  1  0  0  0
 63 65  1  0  0  0
 63138  1  0  0  0
 63139  1  0  0  0
 63140  1  0  0  0
 64141  1  0  0  0
 65142  1  0  0  0
 68 79  1  0  0  0
 71 73  2  0  0  0
 71 75  1  0  0  0
 71143  1  0  0  0
 72 74  1  0  0  0
 72 76  2  0  0  0
 72144  1  0  0  0
 73 76  1  0  0  0
 73 77  1  0  0  0
 74 75  2  0  0  0
 74 80  1  0  0  0
 75 82  1  0  0  0
 76 83  1  0  0  0
 77 81  1  0  0  0
 77145  1  0  0  0
 77146  1  0  0  0
 78 79  1  0  0  0
 78 81  1  0  0  0
 78147  1  0  0  0
 78148  1  0  0  0
 79149  1  0  0  0
 79150  1  0  0  0
 80151  1  0  0  0
 81152  1  0  0  0
 81153  1  0  0  0
M  CHG  1  81   1
M  ISO  4   1 100  68 101  79 101  80 100
M  END
> <chiral flag>
0

> <version>
0

> <s_m_source_file>
/data/baiqing/PycharmProjects/Reinvent-master-3.2/result/LINK_invent/BTK/process_docking_weight1_custom_sum_contain_oxygen_bond_distance_aromatic_linkinvent_7_9_3/rearranged_h_0029.sdf

> <i_m_source_file_index>
8

> <r_mmod_Potential_Energy-OPLS-2005>
-169.071838378906

> <r_mmod_Stretch_Energy-OPLS-2005>
76.073486328125

> <r_mmod_Bend_Energy-OPLS-2005>
127.21565246582

> <r_mmod_Torsional_Energy-OPLS-2005>
230.795501708984

> <r_mmod_Improper_Torsional_Energy-OPLS-2005>
4.89556264877319

> <r_mmod_Van_der_Waal_Energy-OPLS-2005>
138.870086669922

> <r_mmod_Electrostatic_Energy-OPLS-2005>
-306.691284179688

> <r_mmod_Solvation_Energy-OPLS-2005>
-483.431243896484

> <b_mmod_Minimization_Converged-OPLS-2005>
0

> <r_mmod_RMS_Derivative-OPLS-2005>
2.22549605369568

$$$$
8
                    3D
 Structure written by MMmdl.
160168  0  0  1  0            999 V2000
  -30.7120  -14.5761   20.4683 C   0  0  0  0  0  0
  -30.4146  -12.3416   19.4706 C   0  0  0  0  0  0
  -29.5096  -12.4712   18.2270 C   0  0  0  0  0  0
  -28.0264  -12.3515   18.6244 C   0  0  0  0  0  0
  -27.6494  -13.2332   19.8459 C   0  0  2  0  0  0
  -28.6915  -13.1343   20.9801 C   0  0  0  0  0  0
  -25.2562  -13.8218   20.5700 C   0  0  0  0  0  0
  -24.1843  -13.0465   20.9206 C   0  0  0  0  0  0
  -24.6412  -11.6940   20.8709 C   0  0  0  0  0  0
  -23.9065  -10.4323   21.0390 C   0  0  0  0  0  0
  -24.3609   -9.4237   21.9161 C   0  0  0  0  0  0
  -23.6292   -8.2274   22.0746 C   0  0  0  0  0  0
  -22.4284   -8.0282   21.3531 C   0  0  0  0  0  0
  -21.9913   -9.0263   20.4646 C   0  0  0  0  0  0
  -22.7241  -10.2146   20.3050 C   0  0  0  0  0  0
  -21.6865   -6.0738   22.5287 C   0  0  0  0  0  0
  -21.4024   -6.5637   23.8220 C   0  0  0  0  0  0
  -21.3662   -5.6783   24.9177 C   0  0  0  0  0  0
  -21.6034   -4.3048   24.7227 C   0  0  0  0  0  0
  -21.8812   -3.8143   23.4350 C   0  0  0  0  0  0
  -21.9199   -4.6962   22.3411 C   0  0  0  0  0  0
  -22.7850  -13.5240   21.1856 C   0  0  0  0  0  0
  -22.1668   -4.2152   21.0990 F   0  0  0  0  0  0
  -21.5629   -3.4528   25.7738 F   0  0  0  0  0  0
  -30.0172  -13.4012   20.4149 N   0  0  0  0  0  0
  -26.2992  -12.9442   20.3235 N   0  0  0  0  0  0
  -25.9348  -11.6576   20.5690 N   0  0  0  0  0  0
  -22.0465  -12.8261   22.0410 N   0  0  0  0  0  0
  -25.4250  -15.1948   20.4185 N   0  0  0  0  0  0
  -31.8991  -14.6269   20.1378 O   0  0  0  0  0  0
  -21.6636   -6.8886   21.4249 O   0  0  0  0  0  0
  -22.3532  -14.5533   20.6690 O   0  0  0  0  0  0
  -24.6220  -31.8634   23.2085 C   0  0  0  0  0  0
  -25.9092  -32.4798   23.8391 C   0  0  1  0  0  0
  -27.2150  -27.3671   20.1035 C   0  0  0  0  0  0
  -25.5926  -33.8601   24.2301 N   0  0  0  0  0  0
  -23.4116  -30.4948   21.5482 C   0  0  2  0  0  0
  -24.8558  -28.9661   20.1058 C   0  0  0  0  0  0
  -22.7446  -29.4664   22.4930 C   0  0  0  0  0  0
  -18.0291  -28.1383   22.8489 C   0  0  0  0  0  0
  -24.1488  -36.7309   23.2638 C   0  0  0  0  0  0
  -25.9502  -30.8085   21.3750 C   0  0  0  0  0  0
  -26.0234  -29.4434   20.7142 C   0  0  0  0  0  0
  -27.2067  -28.6541   20.7107 C   0  0  0  0  0  0
  -26.0272  -26.9465   19.4540 C   0  0  0  0  0  0
  -24.8566  -27.7213   19.4675 C   0  0  0  0  0  0
  -23.6227  -29.8406   20.1590 C   0  0  0  0  0  0
  -25.4110  -36.3095   24.0326 C   0  0  1  0  0  0
  -20.5880  -28.3692   23.1281 C   0  0  2  0  0  0
  -20.6787  -26.9415   22.5402 C   0  0  0  0  0  0
  -19.5759  -26.6388   21.5210 C   0  0  0  0  0  0
  -18.1945  -26.7934   22.1623 C   0  0  0  0  0  0
  -19.1534  -28.8854   23.2888 C   0  0  0  0  0  0
  -18.9462  -30.1456   23.8906 C   0  0  0  0  0  0
  -17.6464  -30.6591   24.0576 C   0  0  0  0  0  0
  -25.9033  -34.9464   23.5102 C   0  0  0  0  0  0
  -16.5359  -29.9093   23.6329 C   0  0  0  0  0  0
  -16.7278  -28.6506   23.0357 C   0  0  0  0  0  0
  -26.4489  -31.6594   25.0739 C   0  0  0  0  0  0
  -25.3738  -31.3731   26.1471 C   0  0  0  0  0  0
  -27.0334  -30.3026   24.6177 C   0  0  0  0  0  0
  -27.6059  -32.4323   25.7508 C   0  0  0  0  0  0
  -27.5574  -37.1810   24.8464 C   0  0  0  0  0  0
  -21.4160  -29.3053   22.3678 N   0  0  0  0  0  0
  -26.4292  -37.3787   23.9399 N   0  0  0  0  0  0
  -24.6801  -31.0711   22.1009 N   0  0  0  0  0  0
  -23.4201  -28.8178   23.2970 O   0  0  0  0  0  0
  -28.3276  -26.5220   20.1707 O   0  0  0  0  0  0
  -26.5610  -34.8918   22.4666 O   0  0  0  0  0  0
  -23.5403  -32.1422   23.7426 O   0  0  0  0  0  0
  -29.2753  -18.0726   19.5996 C   0  0  0  0  0  0
  -30.0217  -15.9383   20.6166 C   0  0  0  0  0  0
  -29.7471  -16.7442   19.4663 C   0  0  0  0  0  0
  -29.0803  -18.6872   20.8538 C   0  0  0  0  0  0
  -29.3882  -17.9089   22.0100 C   0  0  0  0  0  0
  -29.8357  -16.5501   21.8888 C   0  0  0  0  0  0
  -29.9444  -16.2423   18.0404 C   0  0  0  0  0  0
  -29.2256  -18.5201   23.3963 C   0  0  0  0  0  0
  -28.3847  -20.0833   20.8965 C   0  0  0  0  0  0
  -29.0334  -23.9868   20.5169 C   0  0  0  0  0  0
  -28.3872  -22.5477   20.4179 C   0  0  0  0  0  0
  -28.0436  -25.0928   20.0081 C   0  0  0  0  0  0
  -29.2039  -21.3407   20.8039 N   0  3  0  0  0  0
  -30.1870  -15.6360   23.3211 Cl  0  0  0  0  0  0
  -31.4656  -12.4033   19.1819 H   0  0  0  0  0  0
  -30.2918  -11.3627   19.9363 H   0  0  0  0  0  0
  -29.7591  -11.6994   17.4992 H   0  0  0  0  0  0
  -29.6862  -13.4218   17.7251 H   0  0  0  0  0  0
  -27.8384  -11.3014   18.8496 H   0  0  0  0  0  0
  -27.3879  -12.5967   17.7749 H   0  0  0  0  0  0
  -27.6542  -14.2627   19.4891 H   0  0  0  0  0  0
  -28.6740  -12.1456   21.4388 H   0  0  0  0  0  0
  -28.4575  -13.8470   21.7719 H   0  0  0  0  0  0
  -25.2759   -9.5721   22.4712 H   0  0  0  0  0  0
  -24.0007   -7.4679   22.7474 H   0  0  0  0  0  0
  -21.0840   -8.8790   19.8957 H   0  0  0  0  0  0
  -22.3696  -10.9672   19.6158 H   0  0  0  0  0  0
  -21.2022   -7.6144   23.9731 H   0  0  0  0  0  0
  -21.1485   -6.0508   25.9079 H   0  0  0  0  0  0
  -22.0588   -2.7607   23.2854 H   0  0  0  0  0  0
  -22.4060  -11.9956   22.4872 H   0  0  0  0  0  0
  -21.1066  -13.1287   22.2544 H   0  0  0  0  0  0
  -24.6581  -15.8461   20.5383 H   0  0  0  0  0  0
  -26.2814  -15.6384   20.1117 H   0  0  0  0  0  0
  -26.7157  -32.5488   23.1149 H   0  0  0  0  0  0
  -25.0116  -33.9767   25.0475 H   0  0  0  0  0  0
  -22.7031  -31.3145   21.4123 H   0  0  0  0  0  0
  -23.3741  -35.9652   23.3314 H   0  0  0  0  0  0
  -24.3588  -36.8907   22.2046 H   0  0  0  0  0  0
  -23.7245  -37.6519   23.6654 H   0  0  0  0  0  0
  -26.0831  -31.5740   20.6097 H   0  0  0  0  0  0
  -26.8324  -30.8510   22.0018 H   0  0  0  0  0  0
  -28.0966  -29.0143   21.2089 H   0  0  0  0  0  0
  -25.9645  -26.0038   18.9323 H   0  0  0  0  0  0
  -23.9653  -27.3574   18.9747 H   0  0  0  0  0  0
  -23.7398  -30.6217   19.4067 H   0  0  0  0  0  0
  -22.7444  -29.2691   19.8559 H   0  0  0  0  0  0
  -25.1288  -36.1955   25.0824 H   0  0  0  0  0  0
  -20.9996  -28.3271   24.1386 H   0  0  0  0  0  0
  -20.5695  -26.2297   23.3598 H   0  0  0  0  0  0
  -21.6662  -26.7455   22.1177 H   0  0  0  0  0  0
  -19.6922  -25.6302   21.1229 H   0  0  0  0  0  0
  -19.6698  -27.3215   20.6750 H   0  0  0  0  0  0
  -17.4207  -26.6681   21.4032 H   0  0  0  0  0  0
  -18.0347  -26.0086   22.9024 H   0  0  0  0  0  0
  -19.7936  -30.7275   24.2285 H   0  0  0  0  0  0
  -17.5021  -31.6274   24.5167 H   0  0  0  0  0  0
  -15.5357  -30.3004   23.7652 H   0  0  0  0  0  0
  -15.8680  -28.0831   22.7067 H   0  0  0  0  0  0
  -24.5925  -30.7058   25.7811 H   0  0  0  0  0  0
  -24.8932  -32.2905   26.4889 H   0  0  0  0  0  0
  -25.8077  -30.8926   27.0245 H   0  0  0  0  0  0
  -26.2906  -29.6776   24.1215 H   0  0  0  0  0  0
  -27.4054  -29.7276   25.4664 H   0  0  0  0  0  0
  -27.8762  -30.4315   23.9387 H   0  0  0  0  0  0
  -27.2682  -33.3622   26.2093 H   0  0  0  0  0  0
  -28.3883  -32.6874   25.0349 H   0  0  0  0  0  0
  -28.0724  -31.8448   26.5424 H   0  0  0  0  0  0
  -28.2600  -38.0097   24.7508 H   0  0  0  0  0  0
  -28.1054  -36.2630   24.6301 H   0  0  0  0  0  0
  -27.2296  -37.1476   25.8867 H   0  0  0  0  0  0
  -20.9324  -29.8790   21.6912 H   0  0  0  0  0  0
  -26.0166  -38.2856   24.1418 H   0  0  0  0  0  0
  -29.0418  -18.6304   18.7029 H   0  0  0  0  0  0
  -30.1338  -17.0763   17.3627 H   0  0  0  0  0  0
  -29.0462  -15.7352   17.6895 H   0  0  0  0  0  0
  -30.7915  -15.5667   17.9337 H   0  0  0  0  0  0
  -29.9806  -18.1582   24.0927 H   0  0  0  0  0  0
  -29.3386  -19.6034   23.3797 H   0  0  0  0  0  0
  -28.2418  -18.2785   23.8011 H   0  0  0  0  0  0
  -27.7483  -20.1500   21.7797 H   0  0  0  0  0  0
  -27.6817  -20.0888   20.0612 H   0  0  0  0  0  0
  -29.9567  -24.0328   19.9397 H   0  0  0  0  0  0
  -29.2966  -24.1921   21.5554 H   0  0  0  0  0  0
  -28.0431  -22.3944   19.3941 H   0  0  0  0  0  0
  -27.4870  -22.5456   21.0357 H   0  0  0  0  0  0
  -27.8791  -24.9114   18.9433 H   0  0  0  0  0  0
  -27.1029  -24.8773   20.5181 H   0  0  0  0  0  0
  -29.9355  -21.2062   20.1266 H   0  0  0  0  0  0
  -29.6376  -21.4992   21.6983 H   0  0  0  0  0  0
  1 25  1  0  0  0
  1 30  2  0  0  0
  1 72  1  0  0  0
  2  3  1  0  0  0
  2 25  1  0  0  0
  2 85  1  0  0  0
  2 86  1  0  0  0
  3  4  1  0  0  0
  3 87  1  0  0  0
  3 88  1  0  0  0
  4  5  1  0  0  0
  4 89  1  0  0  0
  4 90  1  0  0  0
  5  6  1  0  0  0
  5 26  1  0  0  0
  5 91  1  0  0  0
  6 25  1  0  0  0
  6 92  1  0  0  0
  6 93  1  0  0  0
  7  8  2  0  0  0
  7 26  1  0  0  0
  7 29  1  0  0  0
  8  9  1  0  0  0
  8 22  1  0  0  0
  9 10  1  0  0  0
  9 27  2  0  0  0
 10 11  2  0  0  0
 10 15  1  0  0  0
 11 12  1  0  0  0
 11 94  1  0  0  0
 12 13  2  0  0  0
 12 95  1  0  0  0
 13 14  1  0  0  0
 13 31  1  0  0  0
 14 15  2  0  0  0
 14 96  1  0  0  0
 15 97  1  0  0  0
 16 17  2  0  0  0
 16 21  1  0  0  0
 16 31  1  0  0  0
 17 18  1  0  0  0
 17 98  1  0  0  0
 18 19  2  0  0  0
 18 99  1  0  0  0
 19 20  1  0  0  0
 19 24  1  0  0  0
 20 21  2  0  0  0
 20100  1  0  0  0
 21 23  1  0  0  0
 22 28  1  0  0  0
 22 32  2  0  0  0
 26 27  1  0  0  0
 28101  1  0  0  0
 28102  1  0  0  0
 29103  1  0  0  0
 29104  1  0  0  0
 33 34  1  0  0  0
 33 66  1  0  0  0
 33 70  2  0  0  0
 34 36  1  0  0  0
 34 59  1  0  0  0
 34105  1  0  0  0
 35 44  2  0  0  0
 35 45  1  0  0  0
 35 68  1  0  0  0
 36 56  1  0  0  0
 36106  1  0  0  0
 37 39  1  0  0  0
 37 47  1  0  0  0
 37 66  1  0  0  0
 37107  1  0  0  0
 38 43  2  0  0  0
 38 46  1  0  0  0
 38 47  1  0  0  0
 39 64  1  0  0  0
 39 67  2  0  0  0
 40 52  1  0  0  0
 40 53  2  0  0  0
 40 58  1  0  0  0
 41108  1  0  0  0
 41109  1  0  0  0
 41110  1  0  0  0
 41 48  1  0  0  0
 42 43  1  0  0  0
 42 66  1  0  0  0
 42111  1  0  0  0
 42112  1  0  0  0
 43 44  1  0  0  0
 44113  1  0  0  0
 45 46  2  0  0  0
 45114  1  0  0  0
 46115  1  0  0  0
 47116  1  0  0  0
 47117  1  0  0  0
 48 56  1  0  0  0
 48 65  1  0  0  0
 48118  1  0  0  0
 49 50  1  0  0  0
 49 53  1  0  0  0
 49 64  1  0  0  0
 49119  1  0  0  0
 50 51  1  0  0  0
 50120  1  0  0  0
 50121  1  0  0  0
 51 52  1  0  0  0
 51122  1  0  0  0
 51123  1  0  0  0
 52124  1  0  0  0
 52125  1  0  0  0
 53 54  1  0  0  0
 54 55  2  0  0  0
 54126  1  0  0  0
 55 57  1  0  0  0
 55127  1  0  0  0
 56 69  2  0  0  0
 57 58  2  0  0  0
 57128  1  0  0  0
 58129  1  0  0  0
 59 60  1  0  0  0
 59 61  1  0  0  0
 59 62  1  0  0  0
 60130  1  0  0  0
 60131  1  0  0  0
 60132  1  0  0  0
 61133  1  0  0  0
 61134  1  0  0  0
 61135  1  0  0  0
 62136  1  0  0  0
 62137  1  0  0  0
 62138  1  0  0  0
 63 65  1  0  0  0
 63139  1  0  0  0
 63140  1  0  0  0
 63141  1  0  0  0
 64142  1  0  0  0
 65143  1  0  0  0
 68 82  1  0  0  0
 71 73  2  0  0  0
 71 74  1  0  0  0
 71144  1  0  0  0
 72 73  1  0  0  0
 72 76  2  0  0  0
 73 77  1  0  0  0
 74 75  2  0  0  0
 74 79  1  0  0  0
 75 76  1  0  0  0
 75 78  1  0  0  0
 76 84  1  0  0  0
 77145  1  0  0  0
 77146  1  0  0  0
 77147  1  0  0  0
 78148  1  0  0  0
 78149  1  0  0  0
 78150  1  0  0  0
 79 83  1  0  0  0
 79151  1  0  0  0
 79152  1  0  0  0
 80 81  1  0  0  0
 80 82  1  0  0  0
 80153  1  0  0  0
 80154  1  0  0  0
 81 83  1  0  0  0
 81155  1  0  0  0
 81156  1  0  0  0
 82157  1  0  0  0
 82158  1  0  0  0
 83159  1  0  0  0
 83160  1  0  0  0
M  CHG  1  83   1
M  ISO  4   1 100  68 101  72 100  82 101
M  END
> <chiral flag>
0

> <version>
0

> <s_m_source_file>
/data/baiqing/PycharmProjects/Reinvent-master-3.2/result/LINK_invent/BTK/process_docking_weight1_custom_sum_contain_oxygen_bond_distance_aromatic_linkinvent_7_9_3/rearranged_h_0029.sdf

> <i_m_source_file_index>
9

> <r_mmod_Potential_Energy-OPLS-2005>
-60.7122077941895

> <r_mmod_Stretch_Energy-OPLS-2005>
61.3378639221191

> <r_mmod_Bend_Energy-OPLS-2005>
129.580322265625

> <r_mmod_Torsional_Energy-OPLS-2005>
209.440765380859

> <r_mmod_Improper_Torsional_Energy-OPLS-2005>
8.51978874206543

> <r_mmod_Van_der_Waal_Energy-OPLS-2005>
152.090698242188

> <r_mmod_Electrostatic_Energy-OPLS-2005>
-200.557464599609

> <r_mmod_Solvation_Energy-OPLS-2005>
-461.581481933594

> <b_mmod_Minimization_Converged-OPLS-2005>
0

> <r_mmod_RMS_Derivative-OPLS-2005>
2.85253524780273

$$$$
9
                    3D
 Structure written by MMmdl.
175184  0  0  1  0            999 V2000
  -30.6902  -14.8259   20.4293 C   0  0  0  0  0  0
  -30.4111  -12.5289   19.4482 C   0  0  0  0  0  0
  -29.4919  -12.4888   18.2128 C   0  0  0  0  0  0
  -28.0232  -12.3215   18.6445 C   0  0  0  0  0  0
  -27.6232  -13.2547   19.8210 C   0  0  2  0  0  0
  -28.6841  -13.2975   20.9392 C   0  0  0  0  0  0
  -25.2472  -13.8236   20.5704 C   0  0  0  0  0  0
  -24.1803  -13.0472   20.9231 C   0  0  0  0  0  0
  -24.6421  -11.6943   20.8764 C   0  0  0  0  0  0
  -23.9103  -10.4308   21.0395 C   0  0  0  0  0  0
  -24.3633   -9.4225   21.9185 C   0  0  0  0  0  0
  -23.6297   -8.2264   22.0755 C   0  0  0  0  0  0
  -22.4284   -8.0291   21.3542 C   0  0  0  0  0  0
  -21.9931   -9.0270   20.4651 C   0  0  0  0  0  0
  -22.7266  -10.2153   20.3052 C   0  0  0  0  0  0
  -21.6856   -6.0746   22.5280 C   0  0  0  0  0  0
  -21.4018   -6.5636   23.8224 C   0  0  0  0  0  0
  -21.3665   -5.6774   24.9180 C   0  0  0  0  0  0
  -21.6045   -4.3035   24.7214 C   0  0  0  0  0  0
  -21.8829   -3.8142   23.4329 C   0  0  0  0  0  0
  -21.9197   -4.6973   22.3396 C   0  0  0  0  0  0
  -22.7818  -13.5239   21.1843 C   0  0  0  0  0  0
  -22.1657   -4.2155   21.0978 F   0  0  0  0  0  0
  -21.5645   -3.4525   25.7735 F   0  0  0  0  0  0
  -29.9479  -13.6634   20.2913 N   0  0  0  0  0  0
  -26.2894  -12.9483   20.3240 N   0  0  0  0  0  0
  -25.9353  -11.6603   20.5754 N   0  0  0  0  0  0
  -22.0430  -12.8265   22.0390 N   0  0  0  0  0  0
  -25.4170  -15.1975   20.4130 N   0  0  0  0  0  0
  -31.9095  -14.6679   20.3871 O   0  0  0  0  0  0
  -21.6657   -6.8886   21.4233 O   0  0  0  0  0  0
  -22.3526  -14.5546   20.6667 O   0  0  0  0  0  0
  -24.6363  -31.8510   23.1923 C   0  0  0  0  0  0
  -25.9162  -32.4725   23.8296 C   0  0  1  0  0  0
  -27.2076  -27.2044   20.1301 C   0  0  0  0  0  0
  -25.5937  -33.8533   24.2223 N   0  0  0  0  0  0
  -23.4353  -30.4728   21.5383 C   0  0  2  0  0  0
  -24.8792  -28.9138   20.1042 C   0  0  0  0  0  0
  -22.7536  -29.4569   22.4893 C   0  0  0  0  0  0
  -18.0298  -28.1389   22.8491 C   0  0  0  0  0  0
  -24.1486  -36.7272   23.2650 C   0  0  0  0  0  0
  -25.9844  -30.7432   21.3822 C   0  0  0  0  0  0
  -26.0519  -29.3629   20.7200 C   0  0  0  0  0  0
  -27.2161  -28.5219   20.7205 C   0  0  0  0  0  0
  -26.0061  -26.8326   19.4869 C   0  0  0  0  0  0
  -24.8661  -27.6611   19.4730 C   0  0  0  0  0  0
  -23.6538  -29.8094   20.1530 C   0  0  0  0  0  0
  -25.4119  -36.3060   24.0333 C   0  0  1  0  0  0
  -20.5899  -28.3710   23.1264 C   0  0  2  0  0  0
  -20.6774  -26.9417   22.5413 C   0  0  0  0  0  0
  -19.5739  -26.6376   21.5232 C   0  0  0  0  0  0
  -18.1926  -26.7926   22.1642 C   0  0  0  0  0  0
  -19.1554  -28.8871   23.2865 C   0  0  0  0  0  0
  -18.9476  -30.1475   23.8879 C   0  0  0  0  0  0
  -17.6473  -30.6587   24.0577 C   0  0  0  0  0  0
  -25.9070  -34.9432   23.5093 C   0  0  0  0  0  0
  -16.5366  -29.9084   23.6328 C   0  0  0  0  0  0
  -16.7286  -28.6502   23.0348 C   0  0  0  0  0  0
  -26.4501  -31.6568   25.0714 C   0  0  0  0  0  0
  -25.3700  -31.3711   26.1410 C   0  0  0  0  0  0
  -27.0385  -30.2981   24.6269 C   0  0  0  0  0  0
  -27.6048  -32.4333   25.7476 C   0  0  0  0  0  0
  -27.5579  -37.1791   24.8470 C   0  0  0  0  0  0
  -21.4236  -29.3054   22.3651 N   0  0  0  0  0  0
  -26.4298  -37.3763   23.9412 N   0  0  0  0  0  0
  -24.7052  -31.0419   22.0940 N   0  0  0  0  0  0
  -23.4223  -28.8106   23.3009 O   0  0  0  0  0  0
  -28.2987  -26.2932   20.2233 O   0  0  0  0  0  0
  -26.5672  -34.8931   22.4680 O   0  0  0  0  0  0
  -23.5496  -32.1372   23.7182 O   0  0  0  0  0  0
  -33.2468  -21.2787   19.1293 C   0  0  0  0  0  0
  -33.2861  -19.0041   19.9941 C   0  0  0  0  0  0
  -32.6254  -20.8221   17.9492 C   0  0  0  0  0  0
  -32.6186  -18.5344   18.8389 C   0  0  0  0  0  0
  -33.5793  -20.3707   20.1496 C   0  0  0  0  0  0
  -32.3039  -19.4510   17.8021 C   0  0  0  0  0  0
  -30.0971  -19.9325   20.8894 C   0  0  0  0  0  0
  -28.2852  -19.3683   19.4180 C   0  0  0  0  0  0
  -30.1967  -18.4161   21.4130 C   0  0  0  0  0  0
  -28.1874  -17.8776   19.9670 C   0  0  0  0  0  0
  -28.7131  -20.5079   20.4190 C   0  0  2  0  0  0
  -29.4263  -17.2284   20.6960 C   0  0  1  0  0  0
  -32.3176  -21.8194   16.8471 C   0  0  0  0  0  0
  -32.3154  -17.0434   18.7187 C   0  0  0  0  0  0
  -28.6775  -22.0300   19.7606 C   0  0  0  0  0  0
  -28.3960  -23.4650   20.5234 C   0  0  0  0  0  0
  -30.8046  -16.6138   18.7244 C   0  0  0  0  0  0
  -28.3301  -24.8725   19.6649 C   0  0  0  0  0  0
  -30.2023  -16.0873   19.9830 N   0  0  0  0  0  0
  -34.3299  -20.9372   21.5950 Cl  0  0  0  0  0  0
  -31.5480  -18.9047   16.3443 Cl  0  0  0  0  0  0
  -31.4461  -12.6400   19.1207 H   0  0  0  0  0  0
  -30.3698  -11.5878   20.0005 H   0  0  0  0  0  0
  -29.7807  -11.6725   17.5491 H   0  0  0  0  0  0
  -29.6090  -13.4045   17.6316 H   0  0  0  0  0  0
  -27.8859  -11.2783   18.9347 H   0  0  0  0  0  0
  -27.3611  -12.4896   17.7940 H   0  0  0  0  0  0
  -27.5815  -14.2586   19.3953 H   0  0  0  0  0  0
  -28.7642  -12.3378   21.4506 H   0  0  0  0  0  0
  -28.4141  -14.0403   21.6907 H   0  0  0  0  0  0
  -25.2757   -9.5720   22.4783 H   0  0  0  0  0  0
  -24.0008   -7.4657   22.7472 H   0  0  0  0  0  0
  -21.0865   -8.8783   19.8943 H   0  0  0  0  0  0
  -22.3696  -10.9701   19.6171 H   0  0  0  0  0  0
  -21.1999   -7.6136   23.9733 H   0  0  0  0  0  0
  -21.1481   -6.0497   25.9093 H   0  0  0  0  0  0
  -22.0605   -2.7599   23.2825 H   0  0  0  0  0  0
  -22.4005  -11.9945   22.4842 H   0  0  0  0  0  0
  -21.1047  -13.1343   22.2542 H   0  0  0  0  0  0
  -24.6496  -15.8514   20.5227 H   0  0  0  0  0  0
  -26.2723  -15.6353   20.0973 H   0  0  0  0  0  0
  -26.7232  -32.5323   23.1029 H   0  0  0  0  0  0
  -25.0017  -33.9639   25.0324 H   0  0  0  0  0  0
  -22.7331  -31.2962   21.3910 H   0  0  0  0  0  0
  -23.3777  -35.9577   23.3301 H   0  0  0  0  0  0
  -24.3560  -36.8902   22.2061 H   0  0  0  0  0  0
  -23.7220  -37.6462   23.6693 H   0  0  0  0  0  0
  -26.1402  -31.5044   20.6165 H   0  0  0  0  0  0
  -26.8560  -30.7839   22.0237 H   0  0  0  0  0  0
  -28.1103  -28.8606   21.2231 H   0  0  0  0  0  0
  -25.8915  -25.8721   19.0125 H   0  0  0  0  0  0
  -23.9673  -27.3148   18.9822 H   0  0  0  0  0  0
  -23.7796  -30.5882   19.3994 H   0  0  0  0  0  0
  -22.7702  -29.2470   19.8501 H   0  0  0  0  0  0
  -25.1297  -36.1904   25.0830 H   0  0  0  0  0  0
  -21.0004  -28.3286   24.1387 H   0  0  0  0  0  0
  -20.5669  -26.2330   23.3633 H   0  0  0  0  0  0
  -21.6640  -26.7414   22.1214 H   0  0  0  0  0  0
  -19.6901  -25.6294   21.1254 H   0  0  0  0  0  0
  -19.6662  -27.3199   20.6773 H   0  0  0  0  0  0
  -17.4189  -26.6701   21.4039 H   0  0  0  0  0  0
  -18.0312  -26.0068   22.9035 H   0  0  0  0  0  0
  -19.7953  -30.7309   24.2225 H   0  0  0  0  0  0
  -17.5021  -31.6258   24.5201 H   0  0  0  0  0  0
  -15.5370  -30.2982   23.7652 H   0  0  0  0  0  0
  -15.8685  -28.0823   22.7053 H   0  0  0  0  0  0
  -24.5905  -30.7039   25.7713 H   0  0  0  0  0  0
  -24.8862  -32.2868   26.4818 H   0  0  0  0  0  0
  -25.7984  -30.8886   27.0201 H   0  0  0  0  0  0
  -26.3007  -29.6685   24.1291 H   0  0  0  0  0  0
  -27.4048  -29.7271   25.4808 H   0  0  0  0  0  0
  -27.8871  -30.4238   23.9547 H   0  0  0  0  0  0
  -27.2675  -33.3660   26.2003 H   0  0  0  0  0  0
  -28.3865  -32.6858   25.0302 H   0  0  0  0  0  0
  -28.0734  -31.8508   26.5407 H   0  0  0  0  0  0
  -28.2602  -38.0085   24.7542 H   0  0  0  0  0  0
  -28.1074  -36.2624   24.6276 H   0  0  0  0  0  0
  -27.2297  -37.1404   25.8873 H   0  0  0  0  0  0
  -20.9449  -29.8762   21.6825 H   0  0  0  0  0  0
  -26.0173  -38.2843   24.1403 H   0  0  0  0  0  0
  -33.4750  -22.3276   19.2584 H   0  0  0  0  0  0
  -33.5590  -18.3186   20.7834 H   0  0  0  0  0  0
  -30.7651  -20.0448   20.0433 H   0  0  0  0  0  0
  -30.5122  -20.5872   21.6580 H   0  0  0  0  0  0
  -27.3182  -19.6350   18.9884 H   0  0  0  0  0  0
  -28.9726  -19.3779   18.5713 H   0  0  0  0  0  0
  -29.8079  -18.4480   22.4327 H   0  0  0  0  0  0
  -31.2428  -18.1372   21.5406 H   0  0  0  0  0  0
  -27.8527  -17.2143   19.1676 H   0  0  0  0  0  0
  -27.3662  -17.8827   20.6850 H   0  0  0  0  0  0
  -28.0149  -20.4905   21.2570 H   0  0  0  0  0  0
  -28.9855  -16.6608   21.5185 H   0  0  0  0  0  0
  -32.6253  -22.8256   17.1308 H   0  0  0  0  0  0
  -31.2483  -21.8414   16.6352 H   0  0  0  0  0  0
  -32.8508  -21.5522   15.9342 H   0  0  0  0  0  0
  -32.9132  -16.5420   19.4751 H   0  0  0  0  0  0
  -32.7603  -16.7152   17.7771 H   0  0  0  0  0  0
  -27.8998  -21.9880   18.9969 H   0  0  0  0  0  0
  -29.5939  -22.1462   19.1826 H   0  0  0  0  0  0
  -29.1544  -23.5769   21.2988 H   0  0  0  0  0  0
  -27.4513  -23.3756   21.0617 H   0  0  0  0  0  0
  -30.7088  -15.8029   18.0006 H   0  0  0  0  0  0
  -30.1933  -17.4012   18.2905 H   0  0  0  0  0  0
  -27.5895  -24.7453   18.8805 H   0  0  0  0  0  0
  -29.2601  -24.8768   19.0981 H   0  0  0  0  0  0
  1 25  1  0  0  0
  1 30  2  0  0  0
  1 89  1  0  0  0
  2  3  1  0  0  0
  2 25  1  0  0  0
  2 92  1  0  0  0
  2 93  1  0  0  0
  3  4  1  0  0  0
  3 94  1  0  0  0
  3 95  1  0  0  0
  4  5  1  0  0  0
  4 96  1  0  0  0
  4 97  1  0  0  0
  5  6  1  0  0  0
  5 26  1  0  0  0
  5 98  1  0  0  0
  6 25  1  0  0  0
  6 99  1  0  0  0
  6100  1  0  0  0
  7  8  2  0  0  0
  7 26  1  0  0  0
  7 29  1  0  0  0
  8  9  1  0  0  0
  8 22  1  0  0  0
  9 10  1  0  0  0
  9 27  2  0  0  0
 10 11  2  0  0  0
 10 15  1  0  0  0
 11 12  1  0  0  0
 11101  1  0  0  0
 12 13  2  0  0  0
 12102  1  0  0  0
 13 14  1  0  0  0
 13 31  1  0  0  0
 14 15  2  0  0  0
 14103  1  0  0  0
 15104  1  0  0  0
 16 17  2  0  0  0
 16 21  1  0  0  0
 16 31  1  0  0  0
 17 18  1  0  0  0
 17105  1  0  0  0
 18 19  2  0  0  0
 18106  1  0  0  0
 19 20  1  0  0  0
 19 24  1  0  0  0
 20 21  2  0  0  0
 20107  1  0  0  0
 21 23  1  0  0  0
 22 28  1  0  0  0
 22 32  2  0  0  0
 26 27  1  0  0  0
 28108  1  0  0  0
 28109  1  0  0  0
 29110  1  0  0  0
 29111  1  0  0  0
 33 34  1  0  0  0
 33 66  1  0  0  0
 33 70  2  0  0  0
 34 36  1  0  0  0
 34 59  1  0  0  0
 34112  1  0  0  0
 35 44  2  0  0  0
 35 45  1  0  0  0
 35 68  1  0  0  0
 36 56  1  0  0  0
 36113  1  0  0  0
 37 39  1  0  0  0
 37 47  1  0  0  0
 37 66  1  0  0  0
 37114  1  0  0  0
 38 43  2  0  0  0
 38 46  1  0  0  0
 38 47  1  0  0  0
 39 64  1  0  0  0
 39 67  2  0  0  0
 40 52  1  0  0  0
 40 53  2  0  0  0
 40 58  1  0  0  0
 41115  1  0  0  0
 41116  1  0  0  0
 41117  1  0  0  0
 41 48  1  0  0  0
 42 43  1  0  0  0
 42 66  1  0  0  0
 42118  1  0  0  0
 42119  1  0  0  0
 43 44  1  0  0  0
 44120  1  0  0  0
 45 46  2  0  0  0
 45121  1  0  0  0
 46122  1  0  0  0
 47123  1  0  0  0
 47124  1  0  0  0
 48 56  1  0  0  0
 48 65  1  0  0  0
 48125  1  0  0  0
 49 50  1  0  0  0
 49 53  1  0  0  0
 49 64  1  0  0  0
 49126  1  0  0  0
 50 51  1  0  0  0
 50127  1  0  0  0
 50128  1  0  0  0
 51 52  1  0  0  0
 51129  1  0  0  0
 51130  1  0  0  0
 52131  1  0  0  0
 52132  1  0  0  0
 53 54  1  0  0  0
 54 55  2  0  0  0
 54133  1  0  0  0
 55 57  1  0  0  0
 55134  1  0  0  0
 56 69  2  0  0  0
 57 58  2  0  0  0
 57135  1  0  0  0
 58136  1  0  0  0
 59 60  1  0  0  0
 59 61  1  0  0  0
 59 62  1  0  0  0
 60137  1  0  0  0
 60138  1  0  0  0
 60139  1  0  0  0
 61140  1  0  0  0
 61141  1  0  0  0
 61142  1  0  0  0
 62143  1  0  0  0
 62144  1  0  0  0
 62145  1  0  0  0
 63 65  1  0  0  0
 63146  1  0  0  0
 63147  1  0  0  0
 63148  1  0  0  0
 64149  1  0  0  0
 65150  1  0  0  0
 68 88  1  0  0  0
 71 73  2  0  0  0
 71 75  1  0  0  0
 71151  1  0  0  0
 72 74  1  0  0  0
 72 75  2  0  0  0
 72152  1  0  0  0
 73 76  1  0  0  0
 73 83  1  0  0  0
 74 76  2  0  0  0
 74 84  1  0  0  0
 75 90  1  0  0  0
 76 91  1  0  0  0
 77 79  1  0  0  0
 77 81  1  0  0  0
 77153  1  0  0  0
 77154  1  0  0  0
 78 80  1  0  0  0
 78 81  1  0  0  0
 78155  1  0  0  0
 78156  1  0  0  0
 79 82  1  0  0  0
 79157  1  0  0  0
 79158  1  0  0  0
 80 82  1  0  0  0
 80159  1  0  0  0
 80160  1  0  0  0
 81 85  1  0  0  0
 81161  1  0  0  0
 82 89  1  0  0  0
 82162  1  0  0  0
 83163  1  0  0  0
 83164  1  0  0  0
 83165  1  0  0  0
 84 87  1  0  0  0
 84166  1  0  0  0
 84167  1  0  0  0
 85 86  1  0  0  0
 85168  1  0  0  0
 85169  1  0  0  0
 86 88  1  0  0  0
 86170  1  0  0  0
 86171  1  0  0  0
 87 89  1  0  0  0
 87172  1  0  0  0
 87173  1  0  0  0
 88174  1  0  0  0
 88175  1  0  0  0
M  ISO  4   1 100  68 101  88 101  89 100
M  END
> <chiral flag>
0

> <version>
0

> <s_m_source_file>
/data/baiqing/PycharmProjects/Reinvent-master-3.2/result/LINK_invent/BTK/process_docking_weight1_custom_sum_contain_oxygen_bond_distance_aromatic_linkinvent_7_9_3/rearranged_h_0029.sdf

> <i_m_source_file_index>
10

> <r_mmod_Potential_Energy-OPLS-2005>
650.829650878906

> <r_mmod_Stretch_Energy-OPLS-2005>
180.023544311523

> <r_mmod_Bend_Energy-OPLS-2005>
287.030517578125

> <r_mmod_Torsional_Energy-OPLS-2005>
358.462066650391

> <r_mmod_Improper_Torsional_Energy-OPLS-2005>
25.5412330627441

> <r_mmod_Van_der_Waal_Energy-OPLS-2005>
129.205749511719

> <r_mmod_Electrostatic_Energy-OPLS-2005>
-295.193817138672

> <r_mmod_Solvation_Energy-OPLS-2005>
-177.652267456055

> <b_mmod_Minimization_Converged-OPLS-2005>
0

> <r_mmod_RMS_Derivative-OPLS-2005>
2.97330594062805

$$$$
10
                    3D
 Structure written by MMmdl.
177185  0  0  1  0            999 V2000
  -30.7138  -14.4572   20.5589 C   0  0  0  0  0  0
  -30.4227  -12.2965   19.4269 C   0  0  0  0  0  0
  -29.4976  -12.4938   18.2094 C   0  0  0  0  0  0
  -28.0203  -12.3629   18.6293 C   0  0  0  0  0  0
  -27.6642  -13.2006   19.8890 C   0  0  2  0  0  0
  -28.7120  -12.9615   20.9996 C   0  0  0  0  0  0
  -25.2564  -13.8050   20.5632 C   0  0  0  0  0  0
  -24.1818  -13.0380   20.9184 C   0  0  0  0  0  0
  -24.6388  -11.6852   20.8774 C   0  0  0  0  0  0
  -23.9070  -10.4252   21.0438 C   0  0  0  0  0  0
  -24.3614   -9.4164   21.9217 C   0  0  0  0  0  0
  -23.6290   -8.2204   22.0769 C   0  0  0  0  0  0
  -22.4288   -8.0255   21.3536 C   0  0  0  0  0  0
  -21.9912   -9.0250   20.4657 C   0  0  0  0  0  0
  -22.7250  -10.2124   20.3076 C   0  0  0  0  0  0
  -21.6847   -6.0727   22.5291 C   0  0  0  0  0  0
  -21.4005   -6.5637   23.8217 C   0  0  0  0  0  0
  -21.3646   -5.6799   24.9183 C   0  0  0  0  0  0
  -21.6046   -4.3057   24.7249 C   0  0  0  0  0  0
  -21.8816   -3.8142   23.4372 C   0  0  0  0  0  0
  -21.9182   -4.6953   22.3422 C   0  0  0  0  0  0
  -22.7860  -13.5222   21.1874 C   0  0  0  0  0  0
  -22.1665   -4.2131   21.1008 F   0  0  0  0  0  0
  -21.5639   -3.4552   25.7766 F   0  0  0  0  0  0
  -30.0301  -13.2891   20.4386 N   0  0  0  0  0  0
  -26.3040  -12.9252   20.3448 N   0  0  0  0  0  0
  -25.9319  -11.6417   20.5822 N   0  0  0  0  0  0
  -22.0514  -12.8221   22.0434 N   0  0  0  0  0  0
  -25.4205  -15.1719   20.3903 N   0  0  0  0  0  0
  -31.8718  -14.5930   20.1612 O   0  0  0  0  0  0
  -21.6641   -6.8867   21.4248 O   0  0  0  0  0  0
  -22.3591  -14.5551   20.6725 O   0  0  0  0  0  0
  -24.6144  -31.8724   23.2146 C   0  0  0  0  0  0
  -25.9040  -32.4842   23.8413 C   0  0  1  0  0  0
  -27.2311  -27.4630   20.0700 C   0  0  0  0  0  0
  -25.5893  -33.8631   24.2354 N   0  0  0  0  0  0
  -23.3988  -30.5007   21.5578 C   0  0  2  0  0  0
  -24.8366  -28.9693   20.1317 C   0  0  0  0  0  0
  -22.7399  -29.4720   22.5066 C   0  0  0  0  0  0
  -18.0294  -28.1355   22.8516 C   0  0  0  0  0  0
  -24.1485  -36.7323   23.2638 C   0  0  0  0  0  0
  -25.9270  -30.8511   21.3565 C   0  0  0  0  0  0
  -26.0040  -29.4859   20.7069 C   0  0  0  0  0  0
  -27.2062  -28.7434   20.6685 C   0  0  0  0  0  0
  -26.0168  -26.9317   19.5766 C   0  0  0  0  0  0
  -24.8340  -27.6843   19.5719 C   0  0  0  0  0  0
  -23.6025  -29.8353   20.1732 C   0  0  0  0  0  0
  -25.4108  -36.3124   24.0339 C   0  0  1  0  0  0
  -20.5878  -28.3644   23.1357 C   0  0  2  0  0  0
  -20.6785  -26.9416   22.5412 C   0  0  0  0  0  0
  -19.5785  -26.6435   21.5196 C   0  0  0  0  0  0
  -18.1956  -26.7933   22.1600 C   0  0  0  0  0  0
  -19.1543  -28.8818   23.2931 C   0  0  0  0  0  0
  -18.9486  -30.1422   23.8966 C   0  0  0  0  0  0
  -17.6506  -30.6597   24.0581 C   0  0  0  0  0  0
  -25.9036  -34.9481   23.5142 C   0  0  0  0  0  0
  -16.5379  -29.9120   23.6336 C   0  0  0  0  0  0
  -16.7292  -28.6501   23.0405 C   0  0  0  0  0  0
  -26.4467  -31.6593   25.0714 C   0  0  0  0  0  0
  -25.3743  -31.3668   26.1465 C   0  0  0  0  0  0
  -27.0287  -30.3058   24.6025 C   0  0  0  0  0  0
  -27.6060  -32.4288   25.7466 C   0  0  0  0  0  0
  -27.5580  -37.1819   24.8469 C   0  0  0  0  0  0
  -21.4131  -29.3057   22.3800 N   0  0  0  0  0  0
  -26.4302  -37.3804   23.9405 N   0  0  0  0  0  0
  -24.6665  -31.0878   22.1018 N   0  0  0  0  0  0
  -23.4196  -28.8255   23.3084 O   0  0  0  0  0  0
  -28.4354  -26.7912   19.9709 O   0  0  0  0  0  0
  -26.5599  -34.8934   22.4709 O   0  0  0  0  0  0
  -23.5338  -32.1447   23.7557 O   0  0  0  0  0  0
  -26.1024  -24.8134   16.8584 C   0  0  0  0  0  0
  -28.1353  -23.5203   16.5670 C   0  0  0  0  0  0
  -27.5003  -24.7025   16.9956 C   0  0  0  0  0  0
  -25.9517  -22.4790   16.1386 C   0  0  0  0  0  0
  -25.3259  -23.7079   16.4686 C   0  0  0  0  0  0
  -27.3718  -22.4266   16.1084 C   0  0  0  0  0  0
  -27.9728  -18.0926   22.6774 C   0  0  0  0  0  0
  -30.0957  -18.4933   21.3826 C   0  0  0  0  0  0
  -28.2906  -25.8317   17.6507 C   0  0  0  0  0  0
  -25.1014  -21.2353   15.8391 C   0  0  0  0  0  0
  -27.2744  -18.9984   19.8361 C   0  0  0  0  0  0
  -26.6283  -18.8727   18.4440 C   0  0  0  0  0  0
  -28.0191  -17.6908   20.1702 C   0  0  0  0  0  0
  -29.2226  -16.1279   21.7502 C   0  0  0  0  0  0
  -25.7783  -20.0757   17.9984 C   0  0  0  0  0  0
  -28.4884  -25.5964   19.1751 C   0  0  0  0  0  0
  -28.8312  -17.6116   21.4913 C   0  0  0  0  0  0
  -29.9799  -15.5762   20.6256 N   0  0  0  0  0  0
  -25.5354  -20.0017   16.5365 N   0  3  0  0  0  0
  -23.6079  -23.9087   16.4415 Cl  0  0  0  0  0  0
  -28.2199  -21.0190   15.5657 Cl  0  0  0  0  0  0
  -31.4692  -12.3835   19.1321 H   0  0  0  0  0  0
  -30.3174  -11.2867   19.8277 H   0  0  0  0  0  0
  -29.7375  -11.7672   17.4319 H   0  0  0  0  0  0
  -29.6675  -13.4782   17.7699 H   0  0  0  0  0  0
  -27.8362  -11.3057   18.8311 H   0  0  0  0  0  0
  -27.3640  -12.6323   17.8029 H   0  0  0  0  0  0
  -27.7109  -14.2516   19.6025 H   0  0  0  0  0  0
  -28.6984  -11.9137   21.3035 H   0  0  0  0  0  0
  -28.4975  -13.5131   21.9098 H   0  0  0  0  0  0
  -25.2767   -9.5636   22.4782 H   0  0  0  0  0  0
  -23.9981   -7.4593   22.7486 H   0  0  0  0  0  0
  -21.0832   -8.8791   19.8978 H   0  0  0  0  0  0
  -22.3726  -10.9665   19.6167 H   0  0  0  0  0  0
  -21.2000   -7.6148   23.9710 H   0  0  0  0  0  0
  -21.1477   -6.0538   25.9084 H   0  0  0  0  0  0
  -22.0603   -2.7612   23.2881 H   0  0  0  0  0  0
  -22.4152  -11.9824   22.4701 H   0  0  0  0  0  0
  -21.1146  -13.1228   22.2697 H   0  0  0  0  0  0
  -24.6542  -15.8243   20.4987 H   0  0  0  0  0  0
  -26.2755  -15.6022   20.0635 H   0  0  0  0  0  0
  -26.7122  -32.5572   23.1186 H   0  0  0  0  0  0
  -24.9974  -33.9788   25.0446 H   0  0  0  0  0  0
  -22.6858  -31.3163   21.4235 H   0  0  0  0  0  0
  -23.3734  -35.9670   23.3320 H   0  0  0  0  0  0
  -24.3576  -36.8920   22.2054 H   0  0  0  0  0  0
  -23.7259  -37.6539   23.6639 H   0  0  0  0  0  0
  -26.0276  -31.6160   20.5858 H   0  0  0  0  0  0
  -26.8207  -30.9090   21.9645 H   0  0  0  0  0  0
  -28.1196  -29.1554   21.0758 H   0  0  0  0  0  0
  -25.9489  -25.9285   19.1985 H   0  0  0  0  0  0
  -23.9273  -27.2597   19.1631 H   0  0  0  0  0  0
  -23.7147  -30.6102   19.4139 H   0  0  0  0  0  0
  -22.7264  -29.2558   19.8750 H   0  0  0  0  0  0
  -25.1289  -36.1983   25.0835 H   0  0  0  0  0  0
  -20.9950  -28.3204   24.1496 H   0  0  0  0  0  0
  -21.6632  -26.7477   22.1138 H   0  0  0  0  0  0
  -20.5695  -26.2254   23.3576 H   0  0  0  0  0  0
  -19.6992  -25.6363   21.1176 H   0  0  0  0  0  0
  -19.6747  -27.3306   20.6787 H   0  0  0  0  0  0
  -17.4267  -26.6791   21.3934 H   0  0  0  0  0  0
  -18.0284  -26.0002   22.8911 H   0  0  0  0  0  0
  -19.7987  -30.7170   24.2404 H   0  0  0  0  0  0
  -17.5066  -31.6293   24.5158 H   0  0  0  0  0  0
  -15.5384  -30.3053   23.7621 H   0  0  0  0  0  0
  -15.8700  -28.0810   22.7123 H   0  0  0  0  0  0
  -24.5917  -30.7020   25.7788 H   0  0  0  0  0  0
  -24.8912  -32.2805   26.4945 H   0  0  0  0  0  0
  -25.8088  -30.8809   27.0210 H   0  0  0  0  0  0
  -26.2806  -29.6837   24.1102 H   0  0  0  0  0  0
  -27.4132  -29.7265   25.4430 H   0  0  0  0  0  0
  -27.8606  -30.4410   23.9107 H   0  0  0  0  0  0
  -27.2702  -33.3577   26.2086 H   0  0  0  0  0  0
  -28.3838  -32.6868   25.0262 H   0  0  0  0  0  0
  -28.0765  -31.8381   26.5338 H   0  0  0  0  0  0
  -28.2622  -38.0090   24.7506 H   0  0  0  0  0  0
  -28.1050  -36.2631   24.6308 H   0  0  0  0  0  0
  -27.2298  -37.1499   25.8870 H   0  0  0  0  0  0
  -20.9254  -29.8843   21.7096 H   0  0  0  0  0  0
  -26.0189  -38.2884   24.1386 H   0  0  0  0  0  0
  -25.6022  -25.7416   17.0976 H   0  0  0  0  0  0
  -29.2117  -23.4300   16.6049 H   0  0  0  0  0  0
  -27.0349  -17.5410   22.7333 H   0  0  0  0  0  0
  -28.4863  -17.9512   23.6283 H   0  0  0  0  0  0
  -27.7352  -19.1558   22.6062 H   0  0  0  0  0  0
  -30.7357  -18.3876   22.2574 H   0  0  0  0  0  0
  -29.8424  -19.5503   21.2922 H   0  0  0  0  0  0
  -30.7043  -18.2361   20.5145 H   0  0  0  0  0  0
  -27.7559  -26.7646   17.4699 H   0  0  0  0  0  0
  -29.2562  -25.9518   17.1576 H   0  0  0  0  0  0
  -25.1206  -21.0495   14.7632 H   0  0  0  0  0  0
  -24.0570  -21.3935   16.1032 H   0  0  0  0  0  0
  -26.5076  -19.2060   20.5808 H   0  0  0  0  0  0
  -27.9631  -19.8451   19.8448 H   0  0  0  0  0  0
  -26.0131  -17.9733   18.4061 H   0  0  0  0  0  0
  -27.4306  -18.7149   17.7205 H   0  0  0  0  0  0
  -27.2816  -16.8945   20.1892 H   0  0  0  0  0  0
  -28.6690  -17.4548   19.3273 H   0  0  0  0  0  0
  -29.8031  -16.0297   22.6696 H   0  0  0  0  0  0
  -28.3030  -15.5649   21.8989 H   0  0  0  0  0  0
  -26.3080  -20.9879   18.2658 H   0  0  0  0  0  0
  -24.8272  -20.1018   18.5349 H   0  0  0  0  0  0
  -29.4557  -25.1212   19.3389 H   0  0  0  0  0  0
  -27.7656  -24.8773   19.5614 H   0  0  0  0  0  0
  -30.4495  -16.3218   20.1355 H   0  0  0  0  0  0
  -26.4051  -19.7337   16.1001 H   0  0  0  0  0  0
  -24.8631  -19.2756   16.3402 H   0  0  0  0  0  0
  1 25  1  0  0  0
  1 30  2  0  0  0
  1 88  1  0  0  0
  2  3  1  0  0  0
  2 25  1  0  0  0
  2 92  1  0  0  0
  2 93  1  0  0  0
  3  4  1  0  0  0
  3 94  1  0  0  0
  3 95  1  0  0  0
  4  5  1  0  0  0
  4 96  1  0  0  0
  4 97  1  0  0  0
  5  6  1  0  0  0
  5 26  1  0  0  0
  5 98  1  0  0  0
  6 25  1  0  0  0
  6 99  1  0  0  0
  6100  1  0  0  0
  7  8  2  0  0  0
  7 26  1  0  0  0
  7 29  1  0  0  0
  8  9  1  0  0  0
  8 22  1  0  0  0
  9 10  1  0  0  0
  9 27  2  0  0  0
 10 11  2  0  0  0
 10 15  1  0  0  0
 11 12  1  0  0  0
 11101  1  0  0  0
 12 13  2  0  0  0
 12102  1  0  0  0
 13 14  1  0  0  0
 13 31  1  0  0  0
 14 15  2  0  0  0
 14103  1  0  0  0
 15104  1  0  0  0
 16 17  2  0  0  0
 16 21  1  0  0  0
 16 31  1  0  0  0
 17 18  1  0  0  0
 17105  1  0  0  0
 18 19  2  0  0  0
 18106  1  0  0  0
 19 20  1  0  0  0
 19 24  1  0  0  0
 20 21  2  0  0  0
 20107  1  0  0  0
 21 23  1  0  0  0
 22 28  1  0  0  0
 22 32  2  0  0  0
 26 27  1  0  0  0
 28108  1  0  0  0
 28109  1  0  0  0
 29110  1  0  0  0
 29111  1  0  0  0
 33 34  1  0  0  0
 33 66  1  0  0  0
 33 70  2  0  0  0
 34 36  1  0  0  0
 34 59  1  0  0  0
 34112  1  0  0  0
 35 44  2  0  0  0
 35 45  1  0  0  0
 35 68  1  0  0  0
 36 56  1  0  0  0
 36113  1  0  0  0
 37 39  1  0  0  0
 37 47  1  0  0  0
 37 66  1  0  0  0
 37114  1  0  0  0
 38 43  2  0  0  0
 38 46  1  0  0  0
 38 47  1  0  0  0
 39 64  1  0  0  0
 39 67  2  0  0  0
 40 52  1  0  0  0
 40 53  2  0  0  0
 40 58  1  0  0  0
 41115  1  0  0  0
 41116  1  0  0  0
 41117  1  0  0  0
 41 48  1  0  0  0
 42 43  1  0  0  0
 42 66  1  0  0  0
 42118  1  0  0  0
 42119  1  0  0  0
 43 44  1  0  0  0
 44120  1  0  0  0
 45 46  2  0  0  0
 45121  1  0  0  0
 46122  1  0  0  0
 47123  1  0  0  0
 47124  1  0  0  0
 48 56  1  0  0  0
 48 65  1  0  0  0
 48125  1  0  0  0
 49 50  1  0  0  0
 49 53  1  0  0  0
 49 64  1  0  0  0
 49126  1  0  0  0
 50 51  1  0  0  0
 50127  1  0  0  0
 50128  1  0  0  0
 51 52  1  0  0  0
 51129  1  0  0  0
 51130  1  0  0  0
 52131  1  0  0  0
 52132  1  0  0  0
 53 54  1  0  0  0
 54 55  2  0  0  0
 54133  1  0  0  0
 55 57  1  0  0  0
 55134  1  0  0  0
 56 69  2  0  0  0
 57 58  2  0  0  0
 57135  1  0  0  0
 58136  1  0  0  0
 59 60  1  0  0  0
 59 61  1  0  0  0
 59 62  1  0  0  0
 60137  1  0  0  0
 60138  1  0  0  0
 60139  1  0  0  0
 61140  1  0  0  0
 61141  1  0  0  0
 61142  1  0  0  0
 62143  1  0  0  0
 62144  1  0  0  0
 62145  1  0  0  0
 63 65  1  0  0  0
 63146  1  0  0  0
 63147  1  0  0  0
 63148  1  0  0  0
 64149  1  0  0  0
 65150  1  0  0  0
 68 86  1  0  0  0
 71 73  2  0  0  0
 71 75  1  0  0  0
 71151  1  0  0  0
 72 73  1  0  0  0
 72 76  2  0  0  0
 72152  1  0  0  0
 73 79  1  0  0  0
 74 75  2  0  0  0
 74 76  1  0  0  0
 74 80  1  0  0  0
 75 90  1  0  0  0
 76 91  1  0  0  0
 77153  1  0  0  0
 77154  1  0  0  0
 77155  1  0  0  0
 77 87  1  0  0  0
 78 87  1  0  0  0
 78156  1  0  0  0
 78157  1  0  0  0
 78158  1  0  0  0
 79 86  1  0  0  0
 79159  1  0  0  0
 79160  1  0  0  0
 80 89  1  0  0  0
 80161  1  0  0  0
 80162  1  0  0  0
 81 82  1  0  0  0
 81 83  1  0  0  0
 81163  1  0  0  0
 81164  1  0  0  0
 82 85  1  0  0  0
 82165  1  0  0  0
 82166  1  0  0  0
 83 87  1  0  0  0
 83167  1  0  0  0
 83168  1  0  0  0
 84 87  1  0  0  0
 84 88  1  0  0  0
 84169  1  0  0  0
 84170  1  0  0  0
 85 89  1  0  0  0
 85171  1  0  0  0
 85172  1  0  0  0
 86173  1  0  0  0
 86174  1  0  0  0
 88175  1  0  0  0
 89176  1  0  0  0
 89177  1  0  0  0
M  CHG  1  89   1
M  ISO  4   1 100  68 101  86 101  88 100
M  END
> <chiral flag>
0

> <version>
0

> <s_m_source_file>
/data/baiqing/PycharmProjects/Reinvent-master-3.2/result/LINK_invent/BTK/process_docking_weight1_custom_sum_contain_oxygen_bond_distance_aromatic_linkinvent_7_9_3/rearranged_h_0029.sdf

> <i_m_source_file_index>
11

> <r_mmod_Potential_Energy-OPLS-2005>
-180.583831787109

> <r_mmod_Stretch_Energy-OPLS-2005>
37.0337944030762

> <r_mmod_Bend_Energy-OPLS-2005>
127.828170776367

> <r_mmod_Torsional_Energy-OPLS-2005>
277.775268554688

> <r_mmod_Improper_Torsional_Energy-OPLS-2005>
19.8786487579346

> <r_mmod_Van_der_Waal_Energy-OPLS-2005>
162.131851196289

> <r_mmod_Electrostatic_Energy-OPLS-2005>
-369.941711425781

> <r_mmod_Solvation_Energy-OPLS-2005>
-450.378143310547

> <b_mmod_Minimization_Converged-OPLS-2005>
0

> <r_mmod_RMS_Derivative-OPLS-2005>
4.3035192489624

$$$$
11
                    3D
 Structure written by MMmdl.
161169  0  0  1  0            999 V2000
  -30.6638  -14.5436   20.5458 C   0  0  0  0  0  0
  -30.4308  -12.3472   19.4244 C   0  0  0  0  0  0
  -29.4966  -12.5029   18.2060 C   0  0  0  0  0  0
  -28.0191  -12.3531   18.6225 C   0  0  0  0  0  0
  -27.6560  -13.2088   19.8659 C   0  0  2  0  0  0
  -28.7009  -13.0212   20.9873 C   0  0  0  0  0  0
  -25.2577  -13.8162   20.5677 C   0  0  0  0  0  0
  -24.1834  -13.0438   20.9188 C   0  0  0  0  0  0
  -24.6390  -11.6905   20.8745 C   0  0  0  0  0  0
  -23.9057  -10.4294   21.0412 C   0  0  0  0  0  0
  -24.3612   -9.4207   21.9187 C   0  0  0  0  0  0
  -23.6290   -8.2243   22.0755 C   0  0  0  0  0  0
  -22.4273   -8.0282   21.3545 C   0  0  0  0  0  0
  -21.9905   -9.0254   20.4647 C   0  0  0  0  0  0
  -22.7233  -10.2135   20.3057 C   0  0  0  0  0  0
  -21.6851   -6.0736   22.5282 C   0  0  0  0  0  0
  -21.4011   -6.5640   23.8215 C   0  0  0  0  0  0
  -21.3659   -5.6793   24.9176 C   0  0  0  0  0  0
  -21.6044   -4.3055   24.7226 C   0  0  0  0  0  0
  -21.8819   -3.8147   23.4347 C   0  0  0  0  0  0
  -21.9193   -4.6964   22.3403 C   0  0  0  0  0  0
  -22.7859  -13.5240   21.1849 C   0  0  0  0  0  0
  -22.1662   -4.2150   21.0980 F   0  0  0  0  0  0
  -21.5628   -3.4538   25.7738 F   0  0  0  0  0  0
  -30.0197  -13.3478   20.4226 N   0  0  0  0  0  0
  -26.3000  -12.9330   20.3332 N   0  0  0  0  0  0
  -25.9315  -11.6491   20.5754 N   0  0  0  0  0  0
  -22.0495  -12.8238   22.0406 N   0  0  0  0  0  0
  -25.4303  -15.1880   20.4084 N   0  0  0  0  0  0
  -31.8210  -14.7162   20.1534 O   0  0  0  0  0  0
  -21.6639   -6.8878   21.4244 O   0  0  0  0  0  0
  -22.3551  -14.5551   20.6705 O   0  0  0  0  0  0
  -24.6200  -31.8635   23.2050 C   0  0  0  0  0  0
  -25.9074  -32.4799   23.8359 C   0  0  1  0  0  0
  -27.2300  -27.3855   20.1105 C   0  0  0  0  0  0
  -25.5914  -33.8597   24.2297 N   0  0  0  0  0  0
  -23.4102  -30.4867   21.5469 C   0  0  2  0  0  0
  -24.8568  -28.9430   20.1154 C   0  0  0  0  0  0
  -22.7432  -29.4650   22.4968 C   0  0  0  0  0  0
  -18.0280  -28.1384   22.8491 C   0  0  0  0  0  0
  -24.1490  -36.7302   23.2640 C   0  0  0  0  0  0
  -25.9438  -30.8162   21.3632 C   0  0  0  0  0  0
  -26.0213  -29.4468   20.7098 C   0  0  0  0  0  0
  -27.2146  -28.6795   20.6944 C   0  0  0  0  0  0
  -26.0489  -26.9045   19.5108 C   0  0  0  0  0  0
  -24.8682  -27.6745   19.5099 C   0  0  0  0  0  0
  -23.6209  -29.8160   20.1632 C   0  0  0  0  0  0
  -25.4110  -36.3095   24.0335 C   0  0  1  0  0  0
  -20.5875  -28.3676   23.1304 C   0  0  2  0  0  0
  -20.6772  -26.9404   22.5418 C   0  0  0  0  0  0
  -19.5752  -26.6383   21.5219 C   0  0  0  0  0  0
  -18.1929  -26.7933   22.1619 C   0  0  0  0  0  0
  -19.1530  -28.8844   23.2896 C   0  0  0  0  0  0
  -18.9456  -30.1450   23.8904 C   0  0  0  0  0  0
  -17.6458  -30.6590   24.0564 C   0  0  0  0  0  0
  -25.9035  -34.9462   23.5115 C   0  0  0  0  0  0
  -16.5348  -29.9091   23.6327 C   0  0  0  0  0  0
  -16.7267  -28.6508   23.0345 C   0  0  0  0  0  0
  -26.4483  -31.6589   25.0705 C   0  0  0  0  0  0
  -25.3739  -31.3713   26.1450 C   0  0  0  0  0  0
  -27.0314  -30.3024   24.6107 C   0  0  0  0  0  0
  -27.6054  -32.4309   25.7474 C   0  0  0  0  0  0
  -27.5581  -37.1802   24.8467 C   0  0  0  0  0  0
  -21.4153  -29.3040   22.3705 N   0  0  0  0  0  0
  -26.4294  -37.3783   23.9408 N   0  0  0  0  0  0
  -24.6767  -31.0704   22.0966 N   0  0  0  0  0  0
  -23.4185  -28.8194   23.3029 O   0  0  0  0  0  0
  -28.3745  -26.6029   20.1002 O   0  0  0  0  0  0
  -26.5602  -34.8931   22.4680 O   0  0  0  0  0  0
  -23.5382  -32.1403   23.7425 O   0  0  0  0  0  0
  -28.8860  -21.4414   19.9413 C   0  0  0  0  0  0
  -28.7531  -20.1788   20.5981 C   0  0  0  0  0  0
  -28.1749  -20.1838   21.8827 C   0  0  0  0  0  0
  -28.4162  -22.6371   20.5648 C   0  0  0  0  0  0
  -27.7408  -21.4102   22.4321 C   0  0  0  0  0  0
  -25.5228  -21.4419   23.6557 C   0  0  0  0  0  0
  -29.0567  -18.8253   19.9066 C   0  0  0  0  0  0
  -28.3983  -24.0165   19.8430 C   0  0  0  0  0  0
  -27.0522  -21.4490   23.7843 C   0  0  0  0  0  0
  -30.3709  -18.0582   20.2735 C   0  0  0  0  0  0
  -30.3458  -16.9441   21.3773 C   0  0  0  0  0  0
  -28.2881  -25.2984   20.7492 C   0  0  0  0  0  0
  -27.8391  -22.5970   21.7864 N   0  0  0  0  0  0
  -29.9076  -15.5774   20.9909 N   0  0  0  0  0  0
  -27.9866  -19.0219   22.5550 F   0  0  0  0  0  0
  -31.4723  -12.4674   19.1205 H   0  0  0  0  0  0
  -30.3552  -11.3425   19.8427 H   0  0  0  0  0  0
  -29.7460  -11.7638   17.4434 H   0  0  0  0  0  0
  -29.6513  -13.4805   17.7462 H   0  0  0  0  0  0
  -27.8434  -11.2982   18.8368 H   0  0  0  0  0  0
  -27.3646  -12.6052   17.7872 H   0  0  0  0  0  0
  -27.6880  -14.2511   19.5480 H   0  0  0  0  0  0
  -28.6967  -11.9901   21.3440 H   0  0  0  0  0  0
  -28.4589  -13.6337   21.8572 H   0  0  0  0  0  0
  -25.2754   -9.5687   22.4760 H   0  0  0  0  0  0
  -24.0001   -7.4633   22.7472 H   0  0  0  0  0  0
  -21.0836   -8.8772   19.8951 H   0  0  0  0  0  0
  -22.3691  -10.9675   19.6167 H   0  0  0  0  0  0
  -21.2003   -7.6148   23.9719 H   0  0  0  0  0  0
  -21.1480   -6.0521   25.9079 H   0  0  0  0  0  0
  -22.0599   -2.7610   23.2846 H   0  0  0  0  0  0
  -22.4097  -11.9890   22.4790 H   0  0  0  0  0  0
  -21.1114  -13.1273   22.2605 H   0  0  0  0  0  0
  -24.6659  -15.8443   20.5219 H   0  0  0  0  0  0
  -26.2812  -15.6267   20.0806 H   0  0  0  0  0  0
  -26.7143  -32.5490   23.1115 H   0  0  0  0  0  0
  -25.0088  -33.9749   25.0462 H   0  0  0  0  0  0
  -22.7022  -31.3057   21.4036 H   0  0  0  0  0  0
  -23.3754  -35.9632   23.3310 H   0  0  0  0  0  0
  -24.3587  -36.8909   22.2054 H   0  0  0  0  0  0
  -23.7243  -37.6510   23.6650 H   0  0  0  0  0  0
  -26.0627  -31.5807   20.5943 H   0  0  0  0  0  0
  -26.8299  -30.8688   21.9840 H   0  0  0  0  0  0
  -28.1167  -29.0670   21.1467 H   0  0  0  0  0  0
  -26.0398  -25.9305   19.0430 H   0  0  0  0  0  0
  -23.9733  -27.2808   19.0483 H   0  0  0  0  0  0
  -23.7346  -30.5902   19.4039 H   0  0  0  0  0  0
  -22.7427  -29.2405   19.8644 H   0  0  0  0  0  0
  -25.1288  -36.1954   25.0827 H   0  0  0  0  0  0
  -20.9960  -28.3247   24.1426 H   0  0  0  0  0  0
  -20.5688  -26.2277   23.3605 H   0  0  0  0  0  0
  -21.6641  -26.7452   22.1197 H   0  0  0  0  0  0
  -19.6921  -25.6298   21.1240 H   0  0  0  0  0  0
  -19.6704  -27.3198   20.6755 H   0  0  0  0  0  0
  -17.4200  -26.6680   21.4021 H   0  0  0  0  0  0
  -18.0324  -26.0077   22.9010 H   0  0  0  0  0  0
  -19.7935  -30.7263   24.2272 H   0  0  0  0  0  0
  -17.5018  -31.6273   24.5159 H   0  0  0  0  0  0
  -15.5350  -30.2997   23.7660 H   0  0  0  0  0  0
  -15.8661  -28.0839   22.7047 H   0  0  0  0  0  0
  -24.5906  -30.7067   25.7791 H   0  0  0  0  0  0
  -24.8942  -32.2878   26.4893 H   0  0  0  0  0  0
  -25.8084  -30.8882   27.0210 H   0  0  0  0  0  0
  -26.2863  -29.6785   24.1159 H   0  0  0  0  0  0
  -27.4081  -29.7258   25.4564 H   0  0  0  0  0  0
  -27.8697  -30.4340   23.9262 H   0  0  0  0  0  0
  -27.2671  -33.3606   26.2062 H   0  0  0  0  0  0
  -28.3860  -32.6871   25.0297 H   0  0  0  0  0  0
  -28.0727  -31.8425   26.5382 H   0  0  0  0  0  0
  -28.2594  -38.0100   24.7504 H   0  0  0  0  0  0
  -28.1073  -36.2629   24.6293 H   0  0  0  0  0  0
  -27.2299  -37.1452   25.8870 H   0  0  0  0  0  0
  -20.9317  -29.8751   21.6914 H   0  0  0  0  0  0
  -26.0181  -38.2862   24.1408 H   0  0  0  0  0  0
  -29.2895  -21.4850   18.9386 H   0  0  0  0  0  0
  -25.0487  -21.4544   24.6366 H   0  0  0  0  0  0
  -25.1807  -20.5497   23.1305 H   0  0  0  0  0  0
  -25.1709  -22.3123   23.1009 H   0  0  0  0  0  0
  -29.0839  -19.0320   18.8364 H   0  0  0  0  0  0
  -28.2012  -18.1624   20.0403 H   0  0  0  0  0  0
  -27.5764  -24.0084   19.1280 H   0  0  0  0  0  0
  -29.3099  -24.0909   19.2504 H   0  0  0  0  0  0
  -27.3765  -22.3389   24.3253 H   0  0  0  0  0  0
  -27.3759  -20.5960   24.3813 H   0  0  0  0  0  0
  -31.1273  -18.8002   20.5324 H   0  0  0  0  0  0
  -30.7480  -17.5899   19.3633 H   0  0  0  0  0  0
  -29.7347  -17.2753   22.2165 H   0  0  0  0  0  0
  -31.3546  -16.8533   21.7845 H   0  0  0  0  0  0
  -29.1034  -25.2667   21.4724 H   0  0  0  0  0  0
  -27.3759  -25.2411   21.3463 H   0  0  0  0  0  0
  -28.9549  -15.3382   21.2235 H   0  0  0  0  0  0
  1 25  1  0  0  0
  1 30  2  0  0  0
  1 84  1  0  0  0
  2  3  1  0  0  0
  2 25  1  0  0  0
  2 86  1  0  0  0
  2 87  1  0  0  0
  3  4  1  0  0  0
  3 88  1  0  0  0
  3 89  1  0  0  0
  4  5  1  0  0  0
  4 90  1  0  0  0
  4 91  1  0  0  0
  5  6  1  0  0  0
  5 26  1  0  0  0
  5 92  1  0  0  0
  6 25  1  0  0  0
  6 93  1  0  0  0
  6 94  1  0  0  0
  7  8  2  0  0  0
  7 26  1  0  0  0
  7 29  1  0  0  0
  8  9  1  0  0  0
  8 22  1  0  0  0
  9 10  1  0  0  0
  9 27  2  0  0  0
 10 11  2  0  0  0
 10 15  1  0  0  0
 11 12  1  0  0  0
 11 95  1  0  0  0
 12 13  2  0  0  0
 12 96  1  0  0  0
 13 14  1  0  0  0
 13 31  1  0  0  0
 14 15  2  0  0  0
 14 97  1  0  0  0
 15 98  1  0  0  0
 16 17  2  0  0  0
 16 21  1  0  0  0
 16 31  1  0  0  0
 17 18  1  0  0  0
 17 99  1  0  0  0
 18 19  2  0  0  0
 18100  1  0  0  0
 19 20  1  0  0  0
 19 24  1  0  0  0
 20 21  2  0  0  0
 20101  1  0  0  0
 21 23  1  0  0  0
 22 28  1  0  0  0
 22 32  2  0  0  0
 26 27  1  0  0  0
 28102  1  0  0  0
 28103  1  0  0  0
 29104  1  0  0  0
 29105  1  0  0  0
 33 34  1  0  0  0
 33 66  1  0  0  0
 33 70  2  0  0  0
 34 36  1  0  0  0
 34 59  1  0  0  0
 34106  1  0  0  0
 35 44  2  0  0  0
 35 45  1  0  0  0
 35 68  1  0  0  0
 36 56  1  0  0  0
 36107  1  0  0  0
 37 39  1  0  0  0
 37 47  1  0  0  0
 37 66  1  0  0  0
 37108  1  0  0  0
 38 43  2  0  0  0
 38 46  1  0  0  0
 38 47  1  0  0  0
 39 64  1  0  0  0
 39 67  2  0  0  0
 40 52  1  0  0  0
 40 53  2  0  0  0
 40 58  1  0  0  0
 41109  1  0  0  0
 41110  1  0  0  0
 41111  1  0  0  0
 41 48  1  0  0  0
 42 43  1  0  0  0
 42 66  1  0  0  0
 42112  1  0  0  0
 42113  1  0  0  0
 43 44  1  0  0  0
 44114  1  0  0  0
 45 46  2  0  0  0
 45115  1  0  0  0
 46116  1  0  0  0
 47117  1  0  0  0
 47118  1  0  0  0
 48 56  1  0  0  0
 48 65  1  0  0  0
 48119  1  0  0  0
 49 50  1  0  0  0
 49 53  1  0  0  0
 49 64  1  0  0  0
 49120  1  0  0  0
 50 51  1  0  0  0
 50121  1  0  0  0
 50122  1  0  0  0
 51 52  1  0  0  0
 51123  1  0  0  0
 51124  1  0  0  0
 52125  1  0  0  0
 52126  1  0  0  0
 53 54  1  0  0  0
 54 55  2  0  0  0
 54127  1  0  0  0
 55 57  1  0  0  0
 55128  1  0  0  0
 56 69  2  0  0  0
 57 58  2  0  0  0
 57129  1  0  0  0
 58130  1  0  0  0
 59 60  1  0  0  0
 59 61  1  0  0  0
 59 62  1  0  0  0
 60131  1  0  0  0
 60132  1  0  0  0
 60133  1  0  0  0
 61134  1  0  0  0
 61135  1  0  0  0
 61136  1  0  0  0
 62137  1  0  0  0
 62138  1  0  0  0
 62139  1  0  0  0
 63 65  1  0  0  0
 63140  1  0  0  0
 63141  1  0  0  0
 63142  1  0  0  0
 64143  1  0  0  0
 65144  1  0  0  0
 68 82  1  0  0  0
 71 72  2  0  0  0
 71 74  1  0  0  0
 71145  1  0  0  0
 72 73  1  0  0  0
 72 77  1  0  0  0
 73 75  2  0  0  0
 73 85  1  0  0  0
 74 78  1  0  0  0
 74 83  2  0  0  0
 75 79  1  0  0  0
 75 83  1  0  0  0
 76 79  1  0  0  0
 76146  1  0  0  0
 76147  1  0  0  0
 76148  1  0  0  0
 77 80  1  0  0  0
 77149  1  0  0  0
 77150  1  0  0  0
 78 82  1  0  0  0
 78151  1  0  0  0
 78152  1  0  0  0
 79153  1  0  0  0
 79154  1  0  0  0
 80 81  1  0  0  0
 80155  1  0  0  0
 80156  1  0  0  0
 81 84  1  0  0  0
 81157  1  0  0  0
 81158  1  0  0  0
 82159  1  0  0  0
 82160  1  0  0  0
 84161  1  0  0  0
M  ISO  4   1 100  68 101  82 101  84 100
M  END
> <chiral flag>
0

> <version>
0

> <s_m_source_file>
/data/baiqing/PycharmProjects/Reinvent-master-3.2/result/LINK_invent/BTK/process_docking_weight1_custom_sum_contain_oxygen_bond_distance_aromatic_linkinvent_7_9_3/rearranged_h_0029.sdf

> <i_m_source_file_index>
12

> <r_mmod_Potential_Energy-OPLS-2005>
-100.618171691895

> <r_mmod_Stretch_Energy-OPLS-2005>
52.808277130127

> <r_mmod_Bend_Energy-OPLS-2005>
115.674545288086

> <r_mmod_Torsional_Energy-OPLS-2005>
230.315185546875

> <r_mmod_Improper_Torsional_Energy-OPLS-2005>
4.54148006439209

> <r_mmod_Van_der_Waal_Energy-OPLS-2005>
140.431915283203

> <r_mmod_Electrostatic_Energy-OPLS-2005>
-461.128479003906

> <r_mmod_Solvation_Energy-OPLS-2005>
-206.715576171875

> <b_mmod_Minimization_Converged-OPLS-2005>
0

> <r_mmod_RMS_Derivative-OPLS-2005>
0.938013911247253

$$$$
12
                    3D
 Structure written by MMmdl.
168176  0  0  1  0            999 V2000
  -30.7551  -14.2914   20.7844 C   0  0  0  0  0  0
  -30.4311  -12.2513   19.4561 C   0  0  0  0  0  0
  -29.5257  -12.5060   18.2399 C   0  0  0  0  0  0
  -28.0423  -12.3150   18.6227 C   0  0  0  0  0  0
  -27.6703  -13.1875   19.8579 C   0  0  2  0  0  0
  -28.6796  -12.8952   20.9861 C   0  0  0  0  0  0
  -25.2807  -13.8117   20.5703 C   0  0  0  0  0  0
  -24.2096  -13.0404   20.9207 C   0  0  0  0  0  0
  -24.6690  -11.6867   20.8884 C   0  0  0  0  0  0
  -23.9372  -10.4276   21.0491 C   0  0  0  0  0  0
  -24.3864   -9.4203   21.9272 C   0  0  0  0  0  0
  -23.6365   -8.2316   22.0935 C   0  0  0  0  0  0
  -22.4397   -8.0413   21.3655 C   0  0  0  0  0  0
  -22.0002   -9.0377   20.4781 C   0  0  0  0  0  0
  -22.7508  -10.2175   20.3169 C   0  0  0  0  0  0
  -21.6856   -6.0843   22.5196 C   0  0  0  0  0  0
  -21.4052   -6.5691   23.8118 C   0  0  0  0  0  0
  -21.3726   -5.6855   24.9078 C   0  0  0  0  0  0
  -21.6067   -4.3110   24.6981 C   0  0  0  0  0  0
  -21.8951   -3.8254   23.4118 C   0  0  0  0  0  0
  -21.9178   -4.7026   22.3173 C   0  0  0  0  0  0
  -22.8072  -13.5124   21.1658 C   0  0  0  0  0  0
  -22.1614   -4.2334   21.0708 F   0  0  0  0  0  0
  -21.5649   -3.4598   25.7451 F   0  0  0  0  0  0
  -30.0412  -13.1919   20.4978 N   0  0  0  0  0  0
  -26.3188  -12.9271   20.3296 N   0  0  0  0  0  0
  -25.9557  -11.6520   20.5841 N   0  0  0  0  0  0
  -22.0705  -12.8083   22.0228 N   0  0  0  0  0  0
  -25.4597  -15.1828   20.3923 N   0  0  0  0  0  0
  -31.7188  -14.6876   20.1090 O   0  0  0  0  0  0
  -21.6768   -6.9000   21.4228 O   0  0  0  0  0  0
  -22.3747  -14.5389   20.6491 O   0  0  0  0  0  0
  -24.6203  -31.8690   23.2057 C   0  0  0  0  0  0
  -25.9088  -32.4858   23.8348 C   0  0  1  0  0  0
  -27.2579  -27.4768   19.9549 C   0  0  0  0  0  0
  -25.5842  -33.8624   24.2262 N   0  0  0  0  0  0
  -23.4181  -30.4835   21.5668 C   0  0  2  0  0  0
  -24.8581  -28.9804   20.0889 C   0  0  0  0  0  0
  -22.7541  -29.4640   22.5199 C   0  0  0  0  0  0
  -18.0380  -28.1627   22.8462 C   0  0  0  0  0  0
  -24.1454  -36.7333   23.2620 C   0  0  0  0  0  0
  -25.9530  -30.8298   21.3656 C   0  0  0  0  0  0
  -26.0343  -29.4775   20.6789 C   0  0  0  0  0  0
  -27.2238  -28.7229   20.6415 C   0  0  0  0  0  0
  -26.0719  -27.0218   19.3314 C   0  0  0  0  0  0
  -24.8661  -27.7332   19.4445 C   0  0  0  0  0  0
  -23.6191  -29.8329   20.1739 C   0  0  0  0  0  0
  -25.4088  -36.3076   24.0283 C   0  0  1  0  0  0
  -20.5965  -28.3724   23.1436 C   0  0  2  0  0  0
  -20.6913  -26.9561   22.5271 C   0  0  0  0  0  0
  -19.5915  -26.6790   21.4998 C   0  0  0  0  0  0
  -18.2050  -26.8273   22.1369 C   0  0  0  0  0  0
  -19.1583  -28.8988   23.3033 C   0  0  0  0  0  0
  -18.9445  -30.1548   23.9133 C   0  0  0  0  0  0
  -17.6396  -30.6627   24.0753 C   0  0  0  0  0  0
  -25.9058  -34.9462   23.5131 C   0  0  0  0  0  0
  -16.5338  -29.9178   23.6389 C   0  0  0  0  0  0
  -16.7305  -28.6705   23.0223 C   0  0  0  0  0  0
  -26.4460  -31.6616   25.0701 C   0  0  0  0  0  0
  -25.3651  -31.3733   26.1401 C   0  0  0  0  0  0
  -27.0217  -30.2995   24.6081 C   0  0  0  0  0  0
  -27.6067  -32.4300   25.7421 C   0  0  0  0  0  0
  -27.5577  -37.1792   24.8436 C   0  0  0  0  0  0
  -21.4263  -29.3030   22.3842 N   0  0  0  0  0  0
  -26.4281  -37.3723   23.9381 N   0  0  0  0  0  0
  -24.6858  -31.0735   22.1021 N   0  0  0  0  0  0
  -23.4249  -28.8150   23.3227 O   0  0  0  0  0  0
  -28.2175  -26.4946   20.2179 O   0  0  0  0  0  0
  -26.5649  -34.8903   22.4693 O   0  0  0  0  0  0
  -23.5408  -32.1464   23.7426 O   0  0  0  0  0  0
  -26.6573  -21.8684   22.9328 C   0  0  0  0  0  0
  -27.9475  -21.9958   22.3466 C   0  0  0  0  0  0
  -28.3832  -23.2651   21.8455 C   0  0  0  0  0  0
  -27.4888  -24.3951   21.8764 C   0  0  0  0  0  0
  -26.1781  -24.2205   22.4995 C   0  0  0  0  0  0
  -25.7761  -22.9573   23.0111 C   0  0  0  0  0  0
  -29.8636  -23.4463   21.4518 C   0  0  0  0  0  0
  -25.1458  -25.3856   22.6611 C   0  0  0  0  0  0
  -28.9062  -20.7916   22.4502 C   0  0  0  0  0  0
  -27.9105  -25.8729   21.5260 C   0  0  0  0  0  0
  -30.4856  -17.3028   22.4155 C   0  0  0  0  0  0
  -29.3510  -17.7796   23.3697 C   0  0  0  0  0  0
  -31.0444  -15.8905   22.7170 C   0  0  0  0  0  0
  -28.0937  -18.4489   22.7405 C   0  0  0  0  0  0
  -30.3939  -14.8265   21.9568 N   0  0  0  0  0  0
  -28.3957  -19.5601   21.8111 N   0  3  0  0  0  0
  -24.2126  -22.7281   23.7503 Cl  0  0  0  0  0  0
  -31.4973  -12.3167   19.2125 H   0  0  0  0  0  0
  -30.2671  -11.2414   19.8236 H   0  0  0  0  0  0
  -29.8459  -11.8211   17.4584 H   0  0  0  0  0  0
  -29.6849  -13.5217   17.8746 H   0  0  0  0  0  0
  -27.8824  -11.2661   18.8807 H   0  0  0  0  0  0
  -27.3970  -12.5263   17.7610 H   0  0  0  0  0  0
  -27.7313  -14.2365   19.5691 H   0  0  0  0  0  0
  -28.6286  -11.8463   21.2618 H   0  0  0  0  0  0
  -28.3879  -13.4370   21.8774 H   0  0  0  0  0  0
  -25.3092   -9.5676   22.4713 H   0  0  0  0  0  0
  -24.0140   -7.4859   22.7749 H   0  0  0  0  0  0
  -21.0958   -8.9016   19.9065 H   0  0  0  0  0  0
  -22.4079  -10.9764   19.6277 H   0  0  0  0  0  0
  -21.2180   -7.6189   23.9656 H   0  0  0  0  0  0
  -21.1371   -6.0509   25.8973 H   0  0  0  0  0  0
  -22.0703   -2.7696   23.2469 H   0  0  0  0  0  0
  -22.3984  -11.9412   22.4330 H   0  0  0  0  0  0
  -21.1506  -13.1312   22.2705 H   0  0  0  0  0  0
  -24.7407  -15.8636   20.5974 H   0  0  0  0  0  0
  -26.2888  -15.5852   19.9774 H   0  0  0  0  0  0
  -26.7224  -32.5489   23.1150 H   0  0  0  0  0  0
  -24.9617  -33.9637   25.0161 H   0  0  0  0  0  0
  -22.7100  -31.3005   21.4326 H   0  0  0  0  0  0
  -23.3660  -35.9736   23.3296 H   0  0  0  0  0  0
  -24.3599  -36.8948   22.2057 H   0  0  0  0  0  0
  -23.7299  -37.6551   23.6679 H   0  0  0  0  0  0
  -26.0771  -31.6116   20.6124 H   0  0  0  0  0  0
  -26.8361  -30.8667   21.9916 H   0  0  0  0  0  0
  -28.1078  -29.0491   21.1758 H   0  0  0  0  0  0
  -26.0559  -26.0371   18.8877 H   0  0  0  0  0  0
  -23.9428  -27.2994   19.0628 H   0  0  0  0  0  0
  -23.7201  -30.6296   19.4314 H   0  0  0  0  0  0
  -22.7322  -29.2579   19.8842 H   0  0  0  0  0  0
  -25.1317  -36.1920   25.0779 H   0  0  0  0  0  0
  -21.0066  -28.3078   24.1545 H   0  0  0  0  0  0
  -20.6004  -26.2128   23.3211 H   0  0  0  0  0  0
  -21.6784  -26.7840   22.0886 H   0  0  0  0  0  0
  -19.7066  -25.6824   21.0706 H   0  0  0  0  0  0
  -19.7033  -27.3815   20.6724 H   0  0  0  0  0  0
  -17.4436  -26.7317   21.3610 H   0  0  0  0  0  0
  -18.0361  -26.0297   22.8629 H   0  0  0  0  0  0
  -19.7824  -30.7379   24.2670 H   0  0  0  0  0  0
  -17.4859  -31.6157   24.5587 H   0  0  0  0  0  0
  -15.5300  -30.3026   23.7722 H   0  0  0  0  0  0
  -15.8784  -28.1050   22.6748 H   0  0  0  0  0  0
  -24.5820  -30.7127   25.7642 H   0  0  0  0  0  0
  -24.8856  -32.2911   26.4791 H   0  0  0  0  0  0
  -25.7892  -30.8858   27.0176 H   0  0  0  0  0  0
  -26.2717  -29.6801   24.1154 H   0  0  0  0  0  0
  -27.3927  -29.7178   25.4519 H   0  0  0  0  0  0
  -27.8575  -30.4185   23.9192 H   0  0  0  0  0  0
  -27.2685  -33.3533   26.2050 H   0  0  0  0  0  0
  -28.3748  -32.6963   25.0188 H   0  0  0  0  0  0
  -28.0847  -31.8419   26.5224 H   0  0  0  0  0  0
  -28.2613  -38.0044   24.7469 H   0  0  0  0  0  0
  -28.1021  -36.2629   24.6280 H   0  0  0  0  0  0
  -27.2310  -37.1453   25.8808 H   0  0  0  0  0  0
  -20.9520  -29.8411   21.6765 H   0  0  0  0  0  0
  -26.0180  -38.2786   24.1340 H   0  0  0  0  0  0
  -26.3188  -20.9341   23.3796 H   0  0  0  0  0  0
  -30.4858  -23.1647   22.3094 H   0  0  0  0  0  0
  -30.1206  -24.4710   21.1969 H   0  0  0  0  0  0
  -30.1903  -22.8026   20.6250 H   0  0  0  0  0  0
  -24.5664  -25.4612   21.7328 H   0  0  0  0  0  0
  -25.5999  -26.3669   22.8284 H   0  0  0  0  0  0
  -24.4704  -25.3115   23.5167 H   0  0  0  0  0  0
  -29.1224  -20.6473   23.5083 H   0  0  0  0  0  0
  -29.8791  -20.9476   21.9812 H   0  0  0  0  0  0
  -28.0822  -26.5192   22.4073 H   0  0  0  0  0  0
  -26.8654  -25.9968   21.3740 H   0  0  0  0  0  0
  -31.3214  -17.9944   22.5245 H   0  0  0  0  0  0
  -30.2071  -17.3537   21.3696 H   0  0  0  0  0  0
  -29.7919  -18.4627   24.1016 H   0  0  0  0  0  0
  -28.9764  -16.9428   23.9634 H   0  0  0  0  0  0
  -30.9445  -15.6600   23.7752 H   0  0  0  0  0  0
  -32.1102  -15.8377   22.5030 H   0  0  0  0  0  0
  -27.4895  -18.8326   23.5625 H   0  0  0  0  0  0
  -27.4793  -17.7027   22.2298 H   0  0  0  0  0  0
  -29.6551  -14.2990   22.3907 H   0  0  0  0  0  0
  -29.1015  -19.2279   21.1737 H   0  0  0  0  0  0
  -27.5847  -19.8008   21.2624 H   0  0  0  0  0  0
  1 25  1  0  0  0
  1 30  2  0  0  0
  1 85  1  0  0  0
  2  3  1  0  0  0
  2 25  1  0  0  0
  2 88  1  0  0  0
  2 89  1  0  0  0
  3  4  1  0  0  0
  3 90  1  0  0  0
  3 91  1  0  0  0
  4  5  1  0  0  0
  4 92  1  0  0  0
  4 93  1  0  0  0
  5  6  1  0  0  0
  5 26  1  0  0  0
  5 94  1  0  0  0
  6 25  1  0  0  0
  6 95  1  0  0  0
  6 96  1  0  0  0
  7  8  2  0  0  0
  7 26  1  0  0  0
  7 29  1  0  0  0
  8  9  1  0  0  0
  8 22  1  0  0  0
  9 10  1  0  0  0
  9 27  2  0  0  0
 10 11  2  0  0  0
 10 15  1  0  0  0
 11 12  1  0  0  0
 11 97  1  0  0  0
 12 13  2  0  0  0
 12 98  1  0  0  0
 13 14  1  0  0  0
 13 31  1  0  0  0
 14 15  2  0  0  0
 14 99  1  0  0  0
 15100  1  0  0  0
 16 17  2  0  0  0
 16 21  1  0  0  0
 16 31  1  0  0  0
 17 18  1  0  0  0
 17101  1  0  0  0
 18 19  2  0  0  0
 18102  1  0  0  0
 19 20  1  0  0  0
 19 24  1  0  0  0
 20 21  2  0  0  0
 20103  1  0  0  0
 21 23  1  0  0  0
 22 28  1  0  0  0
 22 32  2  0  0  0
 26 27  1  0  0  0
 28104  1  0  0  0
 28105  1  0  0  0
 29106  1  0  0  0
 29107  1  0  0  0
 33 34  1  0  0  0
 33 66  1  0  0  0
 33 70  2  0  0  0
 34 36  1  0  0  0
 34 59  1  0  0  0
 34108  1  0  0  0
 35 44  2  0  0  0
 35 45  1  0  0  0
 35 68  1  0  0  0
 36 56  1  0  0  0
 36109  1  0  0  0
 37 39  1  0  0  0
 37 47  1  0  0  0
 37 66  1  0  0  0
 37110  1  0  0  0
 38 43  2  0  0  0
 38 46  1  0  0  0
 38 47  1  0  0  0
 39 64  1  0  0  0
 39 67  2  0  0  0
 40 52  1  0  0  0
 40 53  2  0  0  0
 40 58  1  0  0  0
 41111  1  0  0  0
 41112  1  0  0  0
 41113  1  0  0  0
 41 48  1  0  0  0
 42 43  1  0  0  0
 42 66  1  0  0  0
 42114  1  0  0  0
 42115  1  0  0  0
 43 44  1  0  0  0
 44116  1  0  0  0
 45 46  2  0  0  0
 45117  1  0  0  0
 46118  1  0  0  0
 47119  1  0  0  0
 47120  1  0  0  0
 48 56  1  0  0  0
 48 65  1  0  0  0
 48121  1  0  0  0
 49 50  1  0  0  0
 49 53  1  0  0  0
 49 64  1  0  0  0
 49122  1  0  0  0
 50 51  1  0  0  0
 50123  1  0  0  0
 50124  1  0  0  0
 51 52  1  0  0  0
 51125  1  0  0  0
 51126  1  0  0  0
 52127  1  0  0  0
 52128  1  0  0  0
 53 54  1  0  0  0
 54 55  2  0  0  0
 54129  1  0  0  0
 55 57  1  0  0  0
 55130  1  0  0  0
 56 69  2  0  0  0
 57 58  2  0  0  0
 57131  1  0  0  0
 58132  1  0  0  0
 59 60  1  0  0  0
 59 61  1  0  0  0
 59 62  1  0  0  0
 60133  1  0  0  0
 60134  1  0  0  0
 60135  1  0  0  0
 61136  1  0  0  0
 61137  1  0  0  0
 61138  1  0  0  0
 62139  1  0  0  0
 62140  1  0  0  0
 62141  1  0  0  0
 63 65  1  0  0  0
 63142  1  0  0  0
 63143  1  0  0  0
 63144  1  0  0  0
 64145  1  0  0  0
 65146  1  0  0  0
 68 80  1  0  0  0
 71 72  2  0  0  0
 71 76  1  0  0  0
 71147  1  0  0  0
 72 73  1  0  0  0
 72 79  1  0  0  0
 73 74  2  0  0  0
 73 77  1  0  0  0
 74 75  1  0  0  0
 74 80  1  0  0  0
 75 76  2  0  0  0
 75 78  1  0  0  0
 76 87  1  0  0  0
 77148  1  0  0  0
 77149  1  0  0  0
 77150  1  0  0  0
 78151  1  0  0  0
 78152  1  0  0  0
 78153  1  0  0  0
 79 86  1  0  0  0
 79154  1  0  0  0
 79155  1  0  0  0
 80156  1  0  0  0
 80157  1  0  0  0
 81 82  1  0  0  0
 81 83  1  0  0  0
 81158  1  0  0  0
 81159  1  0  0  0
 82 84  1  0  0  0
 82160  1  0  0  0
 82161  1  0  0  0
 83 85  1  0  0  0
 83162  1  0  0  0
 83163  1  0  0  0
 84 86  1  0  0  0
 84164  1  0  0  0
 84165  1  0  0  0
 85166  1  0  0  0
 86167  1  0  0  0
 86168  1  0  0  0
M  CHG  1  86   1
M  ISO  4   1 100  68 101  80 101  85 100
M  END
> <chiral flag>
0

> <version>
0

> <s_m_source_file>
/data/baiqing/PycharmProjects/Reinvent-master-3.2/result/LINK_invent/BTK/process_docking_weight1_custom_sum_contain_oxygen_bond_distance_aromatic_linkinvent_7_9_3/rearranged_h_0029.sdf

> <i_m_source_file_index>
13

> <r_mmod_Potential_Energy-OPLS-2005>
34.6895523071289

> <r_mmod_Stretch_Energy-OPLS-2005>
70.0475845336914

> <r_mmod_Bend_Energy-OPLS-2005>
203.310974121094

> <r_mmod_Torsional_Energy-OPLS-2005>
289.054779052734

> <r_mmod_Improper_Torsional_Energy-OPLS-2005>
10.6893701553345

> <r_mmod_Van_der_Waal_Energy-OPLS-2005>
209.090545654297

> <r_mmod_Electrostatic_Energy-OPLS-2005>
-314.670776367188

> <r_mmod_Solvation_Energy-OPLS-2005>
-468.654510498047

> <b_mmod_Minimization_Converged-OPLS-2005>
0

> <r_mmod_RMS_Derivative-OPLS-2005>
17.5678844451904

$$$$
13
                    3D
 Structure written by MMmdl.
159167  0  0  1  0            999 V2000
  -30.6247  -14.6865   20.4965 C   0  0  0  0  0  0
  -30.4336  -12.4268   19.4603 C   0  0  0  0  0  0
  -29.5053  -12.5038   18.2289 C   0  0  0  0  0  0
  -28.0323  -12.3282   18.6470 C   0  0  0  0  0  0
  -27.6443  -13.2225   19.8543 C   0  0  2  0  0  0
  -28.6885  -13.1269   20.9873 C   0  0  0  0  0  0
  -25.2521  -13.8180   20.5689 C   0  0  0  0  0  0
  -24.1803  -13.0435   20.9204 C   0  0  0  0  0  0
  -24.6383  -11.6913   20.8748 C   0  0  0  0  0  0
  -23.9060  -10.4288   21.0407 C   0  0  0  0  0  0
  -24.3611   -9.4203   21.9181 C   0  0  0  0  0  0
  -23.6291   -8.2237   22.0744 C   0  0  0  0  0  0
  -22.4273   -8.0275   21.3537 C   0  0  0  0  0  0
  -21.9912   -9.0247   20.4636 C   0  0  0  0  0  0
  -22.7237  -10.2131   20.3050 C   0  0  0  0  0  0
  -21.6856   -6.0732   22.5277 C   0  0  0  0  0  0
  -21.4015   -6.5635   23.8211 C   0  0  0  0  0  0
  -21.3663   -5.6786   24.9174 C   0  0  0  0  0  0
  -21.6045   -4.3049   24.7224 C   0  0  0  0  0  0
  -21.8819   -3.8143   23.4344 C   0  0  0  0  0  0
  -21.9192   -4.6960   22.3401 C   0  0  0  0  0  0
  -22.7826  -13.5216   21.1885 C   0  0  0  0  0  0
  -22.1661   -4.2144   21.0980 F   0  0  0  0  0  0
  -21.5631   -3.4536   25.7738 F   0  0  0  0  0  0
  -29.9949  -13.4702   20.4103 N   0  0  0  0  0  0
  -26.2944  -12.9369   20.3292 N   0  0  0  0  0  0
  -25.9308  -11.6522   20.5754 N   0  0  0  0  0  0
  -22.0486  -12.8187   22.0443 N   0  0  0  0  0  0
  -25.4229  -15.1901   20.4086 N   0  0  0  0  0  0
  -31.8086  -14.8075   20.1699 O   0  0  0  0  0  0
  -21.6639   -6.8873   21.4235 O   0  0  0  0  0  0
  -22.3503  -14.5530   20.6755 O   0  0  0  0  0  0
  -24.6277  -31.8584   23.1993 C   0  0  0  0  0  0
  -25.9107  -32.4786   23.8341 C   0  0  1  0  0  0
  -27.2269  -27.3052   20.1283 C   0  0  0  0  0  0
  -25.5920  -33.8583   24.2268 N   0  0  0  0  0  0
  -23.4230  -30.4789   21.5423 C   0  0  2  0  0  0
  -24.8712  -28.9250   20.1157 C   0  0  0  0  0  0
  -22.7496  -29.4611   22.4937 C   0  0  0  0  0  0
  -18.0290  -28.1400   22.8486 C   0  0  0  0  0  0
  -24.1488  -36.7296   23.2641 C   0  0  0  0  0  0
  -25.9634  -30.7852   21.3698 C   0  0  0  0  0  0
  -26.0395  -29.4080   20.7188 C   0  0  0  0  0  0
  -27.2246  -28.6118   20.7103 C   0  0  0  0  0  0
  -26.0376  -26.8698   19.5108 C   0  0  0  0  0  0
  -24.8727  -27.6623   19.5003 C   0  0  0  0  0  0
  -23.6391  -29.8065   20.1601 C   0  0  0  0  0  0
  -25.4114  -36.3088   24.0333 C   0  0  1  0  0  0
  -20.5891  -28.3700   23.1290 C   0  0  2  0  0  0
  -20.6780  -26.9425   22.5408 C   0  0  0  0  0  0
  -19.5751  -26.6385   21.5222 C   0  0  0  0  0  0
  -18.1927  -26.7942   22.1625 C   0  0  0  0  0  0
  -19.1544  -28.8869   23.2881 C   0  0  0  0  0  0
  -18.9468  -30.1468   23.8900 C   0  0  0  0  0  0
  -17.6467  -30.6599   24.0567 C   0  0  0  0  0  0
  -25.9047  -34.9459   23.5099 C   0  0  0  0  0  0
  -16.5359  -29.9095   23.6338 C   0  0  0  0  0  0
  -16.7278  -28.6516   23.0351 C   0  0  0  0  0  0
  -26.4482  -31.6612   25.0724 C   0  0  0  0  0  0
  -25.3705  -31.3753   26.1446 C   0  0  0  0  0  0
  -27.0334  -30.3050   24.6160 C   0  0  0  0  0  0
  -27.6032  -32.4358   25.7496 C   0  0  0  0  0  0
  -27.5579  -37.1802   24.8468 C   0  0  0  0  0  0
  -21.4206  -29.3060   22.3698 N   0  0  0  0  0  0
  -26.4292  -37.3783   23.9411 N   0  0  0  0  0  0
  -24.6906  -31.0582   22.0947 N   0  0  0  0  0  0
  -23.4216  -28.8145   23.3020 O   0  0  0  0  0  0
  -28.3373  -26.4475   20.1184 O   0  0  0  0  0  0
  -26.5611  -34.8930   22.4663 O   0  0  0  0  0  0
  -23.5434  -32.1373   23.7317 O   0  0  0  0  0  0
  -28.8651  -22.5548   20.7253 C   0  0  0  0  0  0
  -28.5291  -23.7456   20.0744 C   0  0  0  0  0  0
  -29.1181  -21.2483   19.9990 C   0  0  0  0  0  0
  -28.9073  -21.3120   18.6613 C   0  0  0  0  0  0
  -28.3654  -23.7040   18.6158 C   0  0  0  0  0  0
  -28.9457  -22.5269   22.2478 C   0  0  0  0  0  0
  -29.1338  -20.2114   17.6415 C   0  0  0  0  0  0
  -29.7201  -19.9407   20.7052 C   0  0  0  0  0  0
  -28.2028  -25.1290   20.7978 C   0  0  0  0  0  0
  -29.4219  -18.4116   20.2648 C   0  0  0  0  0  0
  -30.2497  -17.2390   20.9859 C   0  0  0  0  0  0
  -28.5116  -22.4989   18.0367 N   0  0  0  0  0  0
  -29.8481  -15.7900   20.7760 N   0  0  0  0  0  0
  -28.0878  -24.6728   17.9074 O   0  0  0  0  0  0
  -31.4736  -12.5568   19.1569 H   0  0  0  0  0  0
  -30.3776  -11.4428   19.9282 H   0  0  0  0  0  0
  -29.7805  -11.7402   17.5010 H   0  0  0  0  0  0
  -29.6326  -13.4650   17.7278 H   0  0  0  0  0  0
  -27.8901  -11.2788   18.9078 H   0  0  0  0  0  0
  -27.3708  -12.5234   17.8020 H   0  0  0  0  0  0
  -27.6483  -14.2485   19.4852 H   0  0  0  0  0  0
  -28.7128  -12.1214   21.4101 H   0  0  0  0  0  0
  -28.4283  -13.7937   21.8108 H   0  0  0  0  0  0
  -25.2756   -9.5683   22.4755 H   0  0  0  0  0  0
  -24.0007   -7.4623   22.7454 H   0  0  0  0  0  0
  -21.0849   -8.8762   19.8931 H   0  0  0  0  0  0
  -22.3697  -10.9668   19.6157 H   0  0  0  0  0  0
  -21.2006   -7.6146   23.9715 H   0  0  0  0  0  0
  -21.1487   -6.0517   25.9076 H   0  0  0  0  0  0
  -22.0594   -2.7604   23.2846 H   0  0  0  0  0  0
  -22.4121  -11.9833   22.4795 H   0  0  0  0  0  0
  -21.1104  -13.1186   22.2677 H   0  0  0  0  0  0
  -24.6536  -15.8437   20.5082 H   0  0  0  0  0  0
  -26.2680  -15.6273   20.0649 H   0  0  0  0  0  0
  -26.7176  -32.5458   23.1087 H   0  0  0  0  0  0
  -25.0131  -33.9737   25.0459 H   0  0  0  0  0  0
  -22.7173  -31.2993   21.3943 H   0  0  0  0  0  0
  -23.3760  -35.9618   23.3302 H   0  0  0  0  0  0
  -24.3575  -36.8914   22.2053 H   0  0  0  0  0  0
  -23.7227  -37.6492   23.6666 H   0  0  0  0  0  0
  -26.0892  -31.5413   20.5939 H   0  0  0  0  0  0
  -26.8465  -30.8435   21.9947 H   0  0  0  0  0  0
  -28.1243  -28.9799   21.1818 H   0  0  0  0  0  0
  -26.0046  -25.8985   19.0384 H   0  0  0  0  0  0
  -23.9795  -27.2870   19.0209 H   0  0  0  0  0  0
  -23.7594  -30.5785   19.3991 H   0  0  0  0  0  0
  -22.7606  -29.2325   19.8596 H   0  0  0  0  0  0
  -25.1292  -36.1941   25.0825 H   0  0  0  0  0  0
  -20.9974  -28.3258   24.1416 H   0  0  0  0  0  0
  -20.5702  -26.2312   23.3609 H   0  0  0  0  0  0
  -21.6645  -26.7461   22.1187 H   0  0  0  0  0  0
  -19.6912  -25.6292   21.1262 H   0  0  0  0  0  0
  -19.6691  -27.3191   20.6750 H   0  0  0  0  0  0
  -17.4207  -26.6724   21.4014 H   0  0  0  0  0  0
  -18.0298  -26.0078   22.9008 H   0  0  0  0  0  0
  -19.7944  -30.7290   24.2267 H   0  0  0  0  0  0
  -17.5022  -31.6282   24.5159 H   0  0  0  0  0  0
  -15.5358  -30.3000   23.7665 H   0  0  0  0  0  0
  -15.8676  -28.0837   22.7063 H   0  0  0  0  0  0
  -24.5914  -30.7054   25.7785 H   0  0  0  0  0  0
  -24.8853  -32.2923   26.4815 H   0  0  0  0  0  0
  -25.8027  -30.8995   27.0258 H   0  0  0  0  0  0
  -26.2908  -29.6810   24.1177 H   0  0  0  0  0  0
  -27.4057  -29.7296   25.4644 H   0  0  0  0  0  0
  -27.8756  -30.4378   23.9363 H   0  0  0  0  0  0
  -27.2645  -33.3687   26.2017 H   0  0  0  0  0  0
  -28.3869  -32.6871   25.0336 H   0  0  0  0  0  0
  -28.0667  -31.8522   26.5460 H   0  0  0  0  0  0
  -28.2590  -38.0104   24.7515 H   0  0  0  0  0  0
  -28.1078  -36.2635   24.6291 H   0  0  0  0  0  0
  -27.2301  -37.1438   25.8871 H   0  0  0  0  0  0
  -20.9394  -29.8820   21.6930 H   0  0  0  0  0  0
  -26.0177  -38.2864   24.1401 H   0  0  0  0  0  0
  -28.5200  -23.4017   22.7335 H   0  0  0  0  0  0
  -29.9832  -22.4323   22.5693 H   0  0  0  0  0  0
  -28.3856  -21.6786   22.6396 H   0  0  0  0  0  0
  -28.4128  -19.4061   17.7824 H   0  0  0  0  0  0
  -30.1491  -19.8211   17.7206 H   0  0  0  0  0  0
  -29.0090  -20.5665   16.6177 H   0  0  0  0  0  0
  -29.4884  -19.9900   21.7669 H   0  0  0  0  0  0
  -30.8011  -20.0744   20.6589 H   0  0  0  0  0  0
  -28.8772  -25.2175   21.6480 H   0  0  0  0  0  0
  -27.2040  -25.0342   21.2259 H   0  0  0  0  0  0
  -29.6226  -18.2709   19.2086 H   0  0  0  0  0  0
  -28.3555  -18.2246   20.3920 H   0  0  0  0  0  0
  -30.2005  -17.4110   22.0618 H   0  0  0  0  0  0
  -31.3043  -17.3515   20.7293 H   0  0  0  0  0  0
  -28.3848  -22.4613   17.0363 H   0  0  0  0  0  0
  -28.8801  -15.5785   20.9642 H   0  0  0  0  0  0
  1 25  1  0  0  0
  1 30  2  0  0  0
  1 83  1  0  0  0
  2  3  1  0  0  0
  2 25  1  0  0  0
  2 85  1  0  0  0
  2 86  1  0  0  0
  3  4  1  0  0  0
  3 87  1  0  0  0
  3 88  1  0  0  0
  4  5  1  0  0  0
  4 89  1  0  0  0
  4 90  1  0  0  0
  5  6  1  0  0  0
  5 26  1  0  0  0
  5 91  1  0  0  0
  6 25  1  0  0  0
  6 92  1  0  0  0
  6 93  1  0  0  0
  7  8  2  0  0  0
  7 26  1  0  0  0
  7 29  1  0  0  0
  8  9  1  0  0  0
  8 22  1  0  0  0
  9 10  1  0  0  0
  9 27  2  0  0  0
 10 11  2  0  0  0
 10 15  1  0  0  0
 11 12  1  0  0  0
 11 94  1  0  0  0
 12 13  2  0  0  0
 12 95  1  0  0  0
 13 14  1  0  0  0
 13 31  1  0  0  0
 14 15  2  0  0  0
 14 96  1  0  0  0
 15 97  1  0  0  0
 16 17  2  0  0  0
 16 21  1  0  0  0
 16 31  1  0  0  0
 17 18  1  0  0  0
 17 98  1  0  0  0
 18 19  2  0  0  0
 18 99  1  0  0  0
 19 20  1  0  0  0
 19 24  1  0  0  0
 20 21  2  0  0  0
 20100  1  0  0  0
 21 23  1  0  0  0
 22 28  1  0  0  0
 22 32  2  0  0  0
 26 27  1  0  0  0
 28101  1  0  0  0
 28102  1  0  0  0
 29103  1  0  0  0
 29104  1  0  0  0
 33 34  1  0  0  0
 33 66  1  0  0  0
 33 70  2  0  0  0
 34 36  1  0  0  0
 34 59  1  0  0  0
 34105  1  0  0  0
 35 44  2  0  0  0
 35 45  1  0  0  0
 35 68  1  0  0  0
 36 56  1  0  0  0
 36106  1  0  0  0
 37 39  1  0  0  0
 37 47  1  0  0  0
 37 66  1  0  0  0
 37107  1  0  0  0
 38 43  2  0  0  0
 38 46  1  0  0  0
 38 47  1  0  0  0
 39 64  1  0  0  0
 39 67  2  0  0  0
 40 52  1  0  0  0
 40 53  2  0  0  0
 40 58  1  0  0  0
 41108  1  0  0  0
 41109  1  0  0  0
 41110  1  0  0  0
 41 48  1  0  0  0
 42 43  1  0  0  0
 42 66  1  0  0  0
 42111  1  0  0  0
 42112  1  0  0  0
 43 44  1  0  0  0
 44113  1  0  0  0
 45 46  2  0  0  0
 45114  1  0  0  0
 46115  1  0  0  0
 47116  1  0  0  0
 47117  1  0  0  0
 48 56  1  0  0  0
 48 65  1  0  0  0
 48118  1  0  0  0
 49 50  1  0  0  0
 49 53  1  0  0  0
 49 64  1  0  0  0
 49119  1  0  0  0
 50 51  1  0  0  0
 50120  1  0  0  0
 50121  1  0  0  0
 51 52  1  0  0  0
 51122  1  0  0  0
 51123  1  0  0  0
 52124  1  0  0  0
 52125  1  0  0  0
 53 54  1  0  0  0
 54 55  2  0  0  0
 54126  1  0  0  0
 55 57  1  0  0  0
 55127  1  0  0  0
 56 69  2  0  0  0
 57 58  2  0  0  0
 57128  1  0  0  0
 58129  1  0  0  0
 59 60  1  0  0  0
 59 61  1  0  0  0
 59 62  1  0  0  0
 60130  1  0  0  0
 60131  1  0  0  0
 60132  1  0  0  0
 61133  1  0  0  0
 61134  1  0  0  0
 61135  1  0  0  0
 62136  1  0  0  0
 62137  1  0  0  0
 62138  1  0  0  0
 63 65  1  0  0  0
 63139  1  0  0  0
 63140  1  0  0  0
 63141  1  0  0  0
 64142  1  0  0  0
 65143  1  0  0  0
 68 79  1  0  0  0
 71 72  2  0  0  0
 71 73  1  0  0  0
 71 76  1  0  0  0
 72 75  1  0  0  0
 72 79  1  0  0  0
 73 74  2  0  0  0
 73 78  1  0  0  0
 74 77  1  0  0  0
 74 82  1  0  0  0
 75 82  1  0  0  0
 75 84  2  0  0  0
 76144  1  0  0  0
 76145  1  0  0  0
 76146  1  0  0  0
 77147  1  0  0  0
 77148  1  0  0  0
 77149  1  0  0  0
 78 80  1  0  0  0
 78150  1  0  0  0
 78151  1  0  0  0
 79152  1  0  0  0
 79153  1  0  0  0
 80 81  1  0  0  0
 80154  1  0  0  0
 80155  1  0  0  0
 81 83  1  0  0  0
 81156  1  0  0  0
 81157  1  0  0  0
 82158  1  0  0  0
 83159  1  0  0  0
M  ISO  4   1 100  68 101  79 101  83 100
M  END
> <chiral flag>
0

> <version>
0

> <s_m_source_file>
/data/baiqing/PycharmProjects/Reinvent-master-3.2/result/LINK_invent/BTK/process_docking_weight1_custom_sum_contain_oxygen_bond_distance_aromatic_linkinvent_7_9_3/rearranged_h_0029.sdf

> <i_m_source_file_index>
14

> <r_mmod_Potential_Energy-OPLS-2005>
120.656593322754

> <r_mmod_Stretch_Energy-OPLS-2005>
112.031562805176

> <r_mmod_Bend_Energy-OPLS-2005>
170.766555786133

> <r_mmod_Torsional_Energy-OPLS-2005>
224.115158081055

> <r_mmod_Improper_Torsional_Energy-OPLS-2005>
4.3074426651001

> <r_mmod_Van_der_Waal_Energy-OPLS-2005>
150.478591918945

> <r_mmod_Electrostatic_Energy-OPLS-2005>
-379.965454101562

> <r_mmod_Solvation_Energy-OPLS-2005>
-221.685134887695

> <b_mmod_Minimization_Converged-OPLS-2005>
0

> <r_mmod_RMS_Derivative-OPLS-2005>
1.14931488037109

$$$$
14
                    3D
 Structure written by MMmdl.
162170  0  0  1  0            999 V2000
  -30.6090  -14.7164   20.4144 C   0  0  0  0  0  0
  -30.4393  -12.4078   19.4878 C   0  0  0  0  0  0
  -29.5200  -12.4548   18.2443 C   0  0  0  0  0  0
  -28.0320  -12.3470   18.6434 C   0  0  0  0  0  0
  -27.6471  -13.2294   19.8630 C   0  0  2  0  0  0
  -28.6981  -13.1417   20.9928 C   0  0  0  0  0  0
  -25.2454  -13.8085   20.5744 C   0  0  0  0  0  0
  -24.1751  -13.0336   20.9200 C   0  0  0  0  0  0
  -24.6380  -11.6848   20.8739 C   0  0  0  0  0  0
  -23.9069  -10.4226   21.0404 C   0  0  0  0  0  0
  -24.3615   -9.4156   21.9199 C   0  0  0  0  0  0
  -23.6291   -8.2198   22.0758 C   0  0  0  0  0  0
  -22.4276   -8.0249   21.3542 C   0  0  0  0  0  0
  -21.9908   -9.0219   20.4647 C   0  0  0  0  0  0
  -22.7234  -10.2088   20.3069 C   0  0  0  0  0  0
  -21.6842   -6.0751   22.5297 C   0  0  0  0  0  0
  -21.3995   -6.5646   23.8228 C   0  0  0  0  0  0
  -21.3650   -5.6793   24.9192 C   0  0  0  0  0  0
  -21.6049   -4.3057   24.7248 C   0  0  0  0  0  0
  -21.8805   -3.8158   23.4363 C   0  0  0  0  0  0
  -21.9178   -4.6983   22.3425 C   0  0  0  0  0  0
  -22.7779  -13.5157   21.1889 C   0  0  0  0  0  0
  -22.1655   -4.2180   21.1001 F   0  0  0  0  0  0
  -21.5643   -3.4529   25.7749 F   0  0  0  0  0  0
  -30.0051  -13.4799   20.4111 N   0  0  0  0  0  0
  -26.2944  -12.9347   20.3346 N   0  0  0  0  0  0
  -25.9311  -11.6485   20.5754 N   0  0  0  0  0  0
  -22.0409  -12.8169   22.0455 N   0  0  0  0  0  0
  -25.3977  -15.1807   20.4329 N   0  0  0  0  0  0
  -31.7811  -14.8409   20.0490 O   0  0  0  0  0  0
  -21.6612   -6.8876   21.4257 O   0  0  0  0  0  0
  -22.3472  -14.5492   20.6764 O   0  0  0  0  0  0
  -24.6301  -31.8551   23.2014 C   0  0  0  0  0  0
  -25.9157  -32.4736   23.8356 C   0  0  1  0  0  0
  -27.2050  -27.2701   20.1336 C   0  0  0  0  0  0
  -25.5965  -33.8551   24.2241 N   0  0  0  0  0  0
  -23.4246  -30.4829   21.5414 C   0  0  2  0  0  0
  -24.8698  -28.9398   20.1069 C   0  0  0  0  0  0
  -22.7475  -29.4666   22.4925 C   0  0  0  0  0  0
  -18.0354  -28.1400   22.8441 C   0  0  0  0  0  0
  -24.1480  -36.7286   23.2645 C   0  0  0  0  0  0
  -25.9745  -30.7745   21.3781 C   0  0  0  0  0  0
  -26.0437  -29.4005   20.7155 C   0  0  0  0  0  0
  -27.2167  -28.5801   20.7153 C   0  0  0  0  0  0
  -26.0147  -26.8844   19.4790 C   0  0  0  0  0  0
  -24.8607  -27.6880   19.4746 C   0  0  0  0  0  0
  -23.6421  -29.8232   20.1571 C   0  0  0  0  0  0
  -25.4119  -36.3058   24.0307 C   0  0  1  0  0  0
  -20.5924  -28.3752   23.1302 C   0  0  2  0  0  0
  -20.6860  -26.9468   22.5364 C   0  0  0  0  0  0
  -19.5818  -26.6441   21.5127 C   0  0  0  0  0  0
  -18.2008  -26.7957   22.1564 C   0  0  0  0  0  0
  -19.1579  -28.8870   23.2836 C   0  0  0  0  0  0
  -18.9490  -30.1458   23.8865 C   0  0  0  0  0  0
  -17.6461  -30.6503   24.0611 C   0  0  0  0  0  0
  -25.9062  -34.9434   23.5063 C   0  0  0  0  0  0
  -16.5365  -29.9002   23.6331 C   0  0  0  0  0  0
  -16.7325  -28.6489   23.0323 C   0  0  0  0  0  0
  -26.4513  -31.6581   25.0741 C   0  0  0  0  0  0
  -25.3749  -31.3764   26.1457 C   0  0  0  0  0  0
  -27.0381  -30.2985   24.6289 C   0  0  0  0  0  0
  -27.6022  -32.4392   25.7530 C   0  0  0  0  0  0
  -27.5570  -37.1798   24.8460 C   0  0  0  0  0  0
  -21.4162  -29.3157   22.3731 N   0  0  0  0  0  0
  -26.4280  -37.3760   23.9394 N   0  0  0  0  0  0
  -24.6964  -31.0570   22.0957 N   0  0  0  0  0  0
  -23.4164  -28.8160   23.3010 O   0  0  0  0  0  0
  -28.2961  -26.3729   20.1852 O   0  0  0  0  0  0
  -26.5611  -34.8933   22.4626 O   0  0  0  0  0  0
  -23.5474  -32.1378   23.7319 O   0  0  0  0  0  0
  -27.3319  -17.5509   19.6899 C   0  0  0  0  0  0
  -28.5519  -17.0528   19.1734 C   0  0  0  0  0  0
  -27.3163  -18.1873   20.9548 C   0  0  0  0  0  0
  -29.7006  -18.3759   20.7333 C   0  0  0  0  0  0
  -29.6990  -17.1134   20.0089 C   0  0  0  0  0  0
  -28.5504  -18.5987   21.5140 C   0  0  0  0  0  0
  -28.5754  -16.3430   17.8343 C   0  0  0  0  0  0
  -26.0045  -18.5163   21.6412 C   0  0  0  0  0  0
  -30.1377  -19.6666   19.9324 C   0  0  0  0  0  0
  -30.1007  -21.2048   20.4522 C   0  0  0  0  0  0
  -28.8642  -22.2239   20.3156 C   0  0  0  0  0  0
  -29.1808  -23.8165   20.2847 C   0  0  0  0  0  0
  -28.0172  -24.9173   20.4449 C   0  0  0  0  0  0
  -29.8278  -15.8172   20.7078 N   0  0  0  0  0  0
  -28.6236  -19.5456   22.9565 Cl  0  0  0  0  0  0
  -31.4810  -12.5267   19.1915 H   0  0  0  0  0  0
  -30.3813  -11.4382   19.9860 H   0  0  0  0  0  0
  -29.7745  -11.6375   17.5682 H   0  0  0  0  0  0
  -29.7061  -13.3658   17.6808 H   0  0  0  0  0  0
  -27.8359  -11.2985   18.8750 H   0  0  0  0  0  0
  -27.3947  -12.5958   17.7928 H   0  0  0  0  0  0
  -27.6374  -14.2578   19.5105 H   0  0  0  0  0  0
  -28.7253  -12.1393   21.4237 H   0  0  0  0  0  0
  -28.4427  -13.8175   21.8100 H   0  0  0  0  0  0
  -25.2768   -9.5619   22.4771 H   0  0  0  0  0  0
  -23.9993   -7.4598   22.7476 H   0  0  0  0  0  0
  -21.0841   -8.8765   19.8965 H   0  0  0  0  0  0
  -22.3733  -10.9656   19.6196 H   0  0  0  0  0  0
  -21.1970   -7.6150   23.9751 H   0  0  0  0  0  0
  -21.1489   -6.0525   25.9097 H   0  0  0  0  0  0
  -22.0584   -2.7626   23.2862 H   0  0  0  0  0  0
  -22.3984  -11.9885   22.4971 H   0  0  0  0  0  0
  -21.1021  -13.1213   22.2595 H   0  0  0  0  0  0
  -24.6303  -15.8137   20.6268 H   0  0  0  0  0  0
  -26.2652  -15.6565   20.2223 H   0  0  0  0  0  0
  -26.7269  -32.5327   23.1154 H   0  0  0  0  0  0
  -25.0072  -33.9686   25.0350 H   0  0  0  0  0  0
  -22.7198  -31.3022   21.3974 H   0  0  0  0  0  0
  -23.3719  -35.9629   23.3292 H   0  0  0  0  0  0
  -24.3562  -36.8919   22.2061 H   0  0  0  0  0  0
  -23.7262  -37.6506   23.6681 H   0  0  0  0  0  0
  -26.1260  -31.5402   20.6178 H   0  0  0  0  0  0
  -26.8475  -30.8105   22.0167 H   0  0  0  0  0  0
  -28.1198  -28.9251   21.2003 H   0  0  0  0  0  0
  -25.9495  -25.9460   18.9501 H   0  0  0  0  0  0
  -23.9671  -27.3373   18.9737 H   0  0  0  0  0  0
  -23.7623  -30.6014   19.4026 H   0  0  0  0  0  0
  -22.7625  -29.2543   19.8530 H   0  0  0  0  0  0
  -25.1313  -36.1890   25.0794 H   0  0  0  0  0  0
  -20.9977  -28.3404   24.1455 H   0  0  0  0  0  0
  -20.5730  -26.2419   23.3577 H   0  0  0  0  0  0
  -21.6744  -26.7517   22.1191 H   0  0  0  0  0  0
  -19.6956  -25.6417   21.0899 H   0  0  0  0  0  0
  -19.6681  -27.3401   20.6772 H   0  0  0  0  0  0
  -17.4294  -26.6712   21.3928 H   0  0  0  0  0  0
  -18.0369  -26.0127   22.8971 H   0  0  0  0  0  0
  -19.7939  -30.7336   24.2211 H   0  0  0  0  0  0
  -17.4985  -31.6097   24.5354 H   0  0  0  0  0  0
  -15.5381  -30.2863   23.7766 H   0  0  0  0  0  0
  -15.8732  -28.0801   22.7017 H   0  0  0  0  0  0
  -24.5890  -30.7152   25.7798 H   0  0  0  0  0  0
  -24.8988  -32.2955   26.4896 H   0  0  0  0  0  0
  -25.8063  -30.8930   27.0226 H   0  0  0  0  0  0
  -26.2995  -29.6723   24.1273 H   0  0  0  0  0  0
  -27.4000  -29.7273   25.4855 H   0  0  0  0  0  0
  -27.8901  -30.4219   23.9593 H   0  0  0  0  0  0
  -27.2548  -33.3675   26.2096 H   0  0  0  0  0  0
  -28.3841  -32.7016   25.0385 H   0  0  0  0  0  0
  -28.0702  -31.8555   26.5471 H   0  0  0  0  0  0
  -28.2594  -38.0091   24.7500 H   0  0  0  0  0  0
  -28.1068  -36.2626   24.6286 H   0  0  0  0  0  0
  -27.2293  -37.1463   25.8866 H   0  0  0  0  0  0
  -20.9356  -29.8821   21.6909 H   0  0  0  0  0  0
  -26.0137  -38.2824   24.1384 H   0  0  0  0  0  0
  -26.4121  -17.4007   19.1357 H   0  0  0  0  0  0
  -27.5857  -16.3134   17.3750 H   0  0  0  0  0  0
  -28.9271  -15.3228   17.9411 H   0  0  0  0  0  0
  -29.2486  -16.8540   17.1452 H   0  0  0  0  0  0
  -25.1548  -18.3409   20.9844 H   0  0  0  0  0  0
  -25.9785  -19.5620   21.9480 H   0  0  0  0  0  0
  -25.8823  -17.8938   22.5288 H   0  0  0  0  0  0
  -29.6573  -19.6276   18.9541 H   0  0  0  0  0  0
  -31.1918  -19.4571   19.7309 H   0  0  0  0  0  0
  -30.8448  -21.6766   19.8065 H   0  0  0  0  0  0
  -30.5395  -21.2807   21.4481 H   0  0  0  0  0  0
  -28.1812  -22.0084   21.1393 H   0  0  0  0  0  0
  -28.3216  -21.9730   19.4036 H   0  0  0  0  0  0
  -29.6763  -24.0288   19.3385 H   0  0  0  0  0  0
  -29.9298  -24.0222   21.0519 H   0  0  0  0  0  0
  -27.6581  -24.8483   21.4759 H   0  0  0  0  0  0
  -27.1733  -24.5632   19.8569 H   0  0  0  0  0  0
  -28.9595  -15.5316   21.1333 H   0  0  0  0  0  0
  1 25  1  0  0  0
  1 30  2  0  0  0
  1 84  1  0  0  0
  2  3  1  0  0  0
  2 25  1  0  0  0
  2 86  1  0  0  0
  2 87  1  0  0  0
  3  4  1  0  0  0
  3 88  1  0  0  0
  3 89  1  0  0  0
  4  5  1  0  0  0
  4 90  1  0  0  0
  4 91  1  0  0  0
  5  6  1  0  0  0
  5 26  1  0  0  0
  5 92  1  0  0  0
  6 25  1  0  0  0
  6 93  1  0  0  0
  6 94  1  0  0  0
  7  8  2  0  0  0
  7 26  1  0  0  0
  7 29  1  0  0  0
  8  9  1  0  0  0
  8 22  1  0  0  0
  9 10  1  0  0  0
  9 27  2  0  0  0
 10 11  2  0  0  0
 10 15  1  0  0  0
 11 12  1  0  0  0
 11 95  1  0  0  0
 12 13  2  0  0  0
 12 96  1  0  0  0
 13 14  1  0  0  0
 13 31  1  0  0  0
 14 15  2  0  0  0
 14 97  1  0  0  0
 15 98  1  0  0  0
 16 17  2  0  0  0
 16 21  1  0  0  0
 16 31  1  0  0  0
 17 18  1  0  0  0
 17 99  1  0  0  0
 18 19  2  0  0  0
 18100  1  0  0  0
 19 20  1  0  0  0
 19 24  1  0  0  0
 20 21  2  0  0  0
 20101  1  0  0  0
 21 23  1  0  0  0
 22 28  1  0  0  0
 22 32  2  0  0  0
 26 27  1  0  0  0
 28102  1  0  0  0
 28103  1  0  0  0
 29104  1  0  0  0
 29105  1  0  0  0
 33 34  1  0  0  0
 33 66  1  0  0  0
 33 70  2  0  0  0
 34 36  1  0  0  0
 34 59  1  0  0  0
 34106  1  0  0  0
 35 44  2  0  0  0
 35 45  1  0  0  0
 35 68  1  0  0  0
 36 56  1  0  0  0
 36107  1  0  0  0
 37 39  1  0  0  0
 37 47  1  0  0  0
 37 66  1  0  0  0
 37108  1  0  0  0
 38 43  2  0  0  0
 38 46  1  0  0  0
 38 47  1  0  0  0
 39 64  1  0  0  0
 39 67  2  0  0  0
 40 52  1  0  0  0
 40 53  2  0  0  0
 40 58  1  0  0  0
 41109  1  0  0  0
 41110  1  0  0  0
 41111  1  0  0  0
 41 48  1  0  0  0
 42 43  1  0  0  0
 42 66  1  0  0  0
 42112  1  0  0  0
 42113  1  0  0  0
 43 44  1  0  0  0
 44114  1  0  0  0
 45 46  2  0  0  0
 45115  1  0  0  0
 46116  1  0  0  0
 47117  1  0  0  0
 47118  1  0  0  0
 48 56  1  0  0  0
 48 65  1  0  0  0
 48119  1  0  0  0
 49 50  1  0  0  0
 49 53  1  0  0  0
 49 64  1  0  0  0
 49120  1  0  0  0
 50 51  1  0  0  0
 50121  1  0  0  0
 50122  1  0  0  0
 51 52  1  0  0  0
 51123  1  0  0  0
 51124  1  0  0  0
 52125  1  0  0  0
 52126  1  0  0  0
 53 54  1  0  0  0
 54 55  2  0  0  0
 54127  1  0  0  0
 55 57  1  0  0  0
 55128  1  0  0  0
 56 69  2  0  0  0
 57 58  2  0  0  0
 57129  1  0  0  0
 58130  1  0  0  0
 59 60  1  0  0  0
 59 61  1  0  0  0
 59 62  1  0  0  0
 60131  1  0  0  0
 60132  1  0  0  0
 60133  1  0  0  0
 61134  1  0  0  0
 61135  1  0  0  0
 61136  1  0  0  0
 62137  1  0  0  0
 62138  1  0  0  0
 62139  1  0  0  0
 63 65  1  0  0  0
 63140  1  0  0  0
 63141  1  0  0  0
 63142  1  0  0  0
 64143  1  0  0  0
 65144  1  0  0  0
 68 83  1  0  0  0
 71 72  2  0  0  0
 71 73  1  0  0  0
 71145  1  0  0  0
 72 75  1  0  0  0
 72 77  1  0  0  0
 73 76  2  0  0  0
 73 78  1  0  0  0
 74 75  2  0  0  0
 74 76  1  0  0  0
 74 79  1  0  0  0
 75 84  1  0  0  0
 76 85  1  0  0  0
 77146  1  0  0  0
 77147  1  0  0  0
 77148  1  0  0  0
 78149  1  0  0  0
 78150  1  0  0  0
 78151  1  0  0  0
 79 80  1  0  0  0
 79152  1  0  0  0
 79153  1  0  0  0
 80 81  1  0  0  0
 80154  1  0  0  0
 80155  1  0  0  0
 81 82  1  0  0  0
 81156  1  0  0  0
 81157  1  0  0  0
 82 83  1  0  0  0
 82158  1  0  0  0
 82159  1  0  0  0
 83160  1  0  0  0
 83161  1  0  0  0
 84162  1  0  0  0
M  ISO  4   1 100  68 101  83 101  84 100
M  END
> <chiral flag>
0

> <version>
0

> <s_m_source_file>
/data/baiqing/PycharmProjects/Reinvent-master-3.2/result/LINK_invent/BTK/process_docking_weight1_custom_sum_contain_oxygen_bond_distance_aromatic_linkinvent_7_9_3/rearranged_h_0029.sdf

> <i_m_source_file_index>
15

> <r_mmod_Potential_Energy-OPLS-2005>
511.206420898438

> <r_mmod_Stretch_Energy-OPLS-2005>
116.369743347168

> <r_mmod_Bend_Energy-OPLS-2005>
206.0380859375

> <r_mmod_Torsional_Energy-OPLS-2005>
502.698425292969

> <r_mmod_Improper_Torsional_Energy-OPLS-2005>
44.7751159667969

> <r_mmod_Van_der_Waal_Energy-OPLS-2005>
133.405807495117

> <r_mmod_Electrostatic_Energy-OPLS-2005>
-377.053375244141

> <r_mmod_Solvation_Energy-OPLS-2005>
-194.233200073242

> <b_mmod_Minimization_Converged-OPLS-2005>
0

> <r_mmod_RMS_Derivative-OPLS-2005>
6.74642086029053

$$$$
15
                    3D
 Structure written by MMmdl.
150158  0  0  1  0            999 V2000
  -30.4381  -15.1992   20.3819 C   0  0  0  0  0  0
  -30.4501  -12.7597   19.5266 C   0  0  0  0  0  0
  -29.5428  -12.5782   18.2839 C   0  0  0  0  0  0
  -28.0912  -12.2932   18.7131 C   0  0  0  0  0  0
  -27.6193  -13.2609   19.8269 C   0  0  2  0  0  0
  -28.6528  -13.4000   20.9654 C   0  0  0  0  0  0
  -25.2391  -13.8140   20.5694 C   0  0  0  0  0  0
  -24.1739  -13.0379   20.9252 C   0  0  0  0  0  0
  -24.6389  -11.6879   20.8754 C   0  0  0  0  0  0
  -23.9062  -10.4264   21.0411 C   0  0  0  0  0  0
  -24.3618   -9.4188   21.9185 C   0  0  0  0  0  0
  -23.6296   -8.2224   22.0750 C   0  0  0  0  0  0
  -22.4277   -8.0274   21.3544 C   0  0  0  0  0  0
  -21.9909   -9.0246   20.4651 C   0  0  0  0  0  0
  -22.7233  -10.2121   20.3065 C   0  0  0  0  0  0
  -21.6847   -6.0734   22.5284 C   0  0  0  0  0  0
  -21.4016   -6.5639   23.8220 C   0  0  0  0  0  0
  -21.3656   -5.6786   24.9179 C   0  0  0  0  0  0
  -21.6044   -4.3053   24.7222 C   0  0  0  0  0  0
  -21.8809   -3.8148   23.4343 C   0  0  0  0  0  0
  -21.9187   -4.6963   22.3403 C   0  0  0  0  0  0
  -22.7766  -13.5183   21.1892 C   0  0  0  0  0  0
  -22.1658   -4.2155   21.0976 F   0  0  0  0  0  0
  -21.5626   -3.4533   25.7732 F   0  0  0  0  0  0
  -29.9008  -13.8864   20.3548 N   0  0  0  0  0  0
  -26.2840  -12.9422   20.3200 N   0  0  0  0  0  0
  -25.9328  -11.6539   20.5703 N   0  0  0  0  0  0
  -22.0401  -12.8210   22.0458 N   0  0  0  0  0  0
  -25.3942  -15.1831   20.4008 N   0  0  0  0  0  0
  -31.6540  -15.2543   20.1509 O   0  0  0  0  0  0
  -21.6635   -6.8880   21.4252 O   0  0  0  0  0  0
  -22.3468  -14.5488   20.6709 O   0  0  0  0  0  0
  -24.6587  -31.8291   23.1729 C   0  0  0  0  0  0
  -25.9287  -32.4617   23.8187 C   0  0  1  0  0  0
  -27.2292  -26.9861   20.1727 C   0  0  0  0  0  0
  -25.5980  -33.8425   24.2103 N   0  0  0  0  0  0
  -23.4708  -30.4408   21.5228 C   0  0  2  0  0  0
  -24.9250  -28.8367   20.1109 C   0  0  0  0  0  0
  -22.7655  -29.4458   22.4809 C   0  0  0  0  0  0
  -18.0320  -28.1399   22.8473 C   0  0  0  0  0  0
  -24.1500  -36.7226   23.2647 C   0  0  0  0  0  0
  -26.0377  -30.6538   21.3960 C   0  0  0  0  0  0
  -26.1081  -29.2499   20.7373 C   0  0  0  0  0  0
  -27.2552  -28.3453   20.7419 C   0  0  0  0  0  0
  -26.0133  -26.7048   19.5114 C   0  0  0  0  0  0
  -24.9002  -27.5826   19.4783 C   0  0  0  0  0  0
  -23.7078  -29.7589   20.1474 C   0  0  0  0  0  0
  -25.4135  -36.2991   24.0310 C   0  0  1  0  0  0
  -20.5946  -28.3738   23.1214 C   0  0  2  0  0  0
  -20.6811  -26.9426   22.5415 C   0  0  0  0  0  0
  -19.5785  -26.6368   21.5227 C   0  0  0  0  0  0
  -18.1959  -26.7934   22.1630 C   0  0  0  0  0  0
  -19.1579  -28.8889   23.2828 C   0  0  0  0  0  0
  -18.9485  -30.1483   23.8852 C   0  0  0  0  0  0
  -17.6478  -30.6590   24.0552 C   0  0  0  0  0  0
  -25.9095  -34.9368   23.5028 C   0  0  0  0  0  0
  -16.5371  -29.9074   23.6341 C   0  0  0  0  0  0
  -16.7300  -28.6498   23.0357 C   0  0  0  0  0  0
  -26.4531  -31.6549   25.0704 C   0  0  0  0  0  0
  -25.3666  -31.3796   26.1378 C   0  0  0  0  0  0
  -27.0428  -30.2924   24.6417 C   0  0  0  0  0  0
  -27.6037  -32.4347   25.7492 C   0  0  0  0  0  0
  -27.5580  -37.1769   24.8458 C   0  0  0  0  0  0
  -21.4327  -29.3031   22.3562 N   0  0  0  0  0  0
  -26.4289  -37.3716   23.9401 N   0  0  0  0  0  0
  -24.7428  -31.0000   22.0845 N   0  0  0  0  0  0
  -23.4237  -28.8050   23.3037 O   0  0  0  0  0  0
  -28.2625  -25.9290   20.2351 O   0  0  0  0  0  0
  -26.5688  -34.8894   22.4612 O   0  0  0  0  0  0
  -23.5672  -32.1242   23.6858 O   0  0  0  0  0  0
  -28.1619  -20.2546   20.1999 C   0  0  0  0  0  0
  -30.6008  -18.9852   20.4754 C   0  0  0  0  0  0
  -28.3101  -18.7746   20.2344 C   0  0  0  0  0  0
  -29.2162  -21.2432   20.3078 C   0  0  0  0  0  0
  -29.5457  -17.9954   20.3810 C   0  0  0  0  0  0
  -30.4501  -20.4621   20.4465 C   0  0  0  0  0  0
  -27.0216  -17.9891   20.0932 C   0  0  0  0  0  0
  -29.1931  -22.9830   20.3156 C   0  0  0  0  0  0
  -28.0472  -24.3164   20.1269 C   0  0  0  0  0  0
  -29.5814  -16.3878   20.4703 N   0  0  0  0  0  0
  -31.9189  -21.3590   20.6111 Cl  0  0  0  0  0  0
  -31.4735  -12.9635   19.2091 H   0  0  0  0  0  0
  -30.5001  -11.8385   20.1102 H   0  0  0  0  0  0
  -29.9213  -11.7771   17.6489 H   0  0  0  0  0  0
  -29.5693  -13.4865   17.6794 H   0  0  0  0  0  0
  -28.0564  -11.2687   19.0869 H   0  0  0  0  0  0
  -27.4195  -12.3298   17.8547 H   0  0  0  0  0  0
  -27.5455  -14.2343   19.3413 H   0  0  0  0  0  0
  -28.7981  -12.4550   21.4899 H   0  0  0  0  0  0
  -28.2994  -14.1152   21.7098 H   0  0  0  0  0  0
  -25.2759   -9.5670   22.4760 H   0  0  0  0  0  0
  -24.0003   -7.4610   22.7469 H   0  0  0  0  0  0
  -21.0831   -8.8763   19.8966 H   0  0  0  0  0  0
  -22.3686  -10.9659   19.6182 H   0  0  0  0  0  0
  -21.2024   -7.6148   23.9725 H   0  0  0  0  0  0
  -21.1487   -6.0518   25.9078 H   0  0  0  0  0  0
  -22.0594   -2.7612   23.2830 H   0  0  0  0  0  0
  -22.4016  -11.9916   22.4926 H   0  0  0  0  0  0
  -21.1025  -13.1265   22.2634 H   0  0  0  0  0  0
  -24.5955  -15.8055   20.4568 H   0  0  0  0  0  0
  -26.1883  -15.5961   19.9343 H   0  0  0  0  0  0
  -26.7373  -32.5169   23.0918 H   0  0  0  0  0  0
  -25.0088  -33.9497   25.0230 H   0  0  0  0  0  0
  -22.7818  -31.2711   21.3563 H   0  0  0  0  0  0
  -23.3773  -35.9548   23.3285 H   0  0  0  0  0  0
  -24.3592  -36.8889   22.2071 H   0  0  0  0  0  0
  -23.7258  -37.6412   23.6706 H   0  0  0  0  0  0
  -26.2153  -31.4012   20.6217 H   0  0  0  0  0  0
  -26.8988  -30.7053   22.0502 H   0  0  0  0  0  0
  -28.1543  -28.6621   21.2509 H   0  0  0  0  0  0
  -25.8951  -25.7433   19.0345 H   0  0  0  0  0  0
  -24.0000  -27.2574   18.9745 H   0  0  0  0  0  0
  -23.8600  -30.5309   19.3915 H   0  0  0  0  0  0
  -22.8187  -29.2119   19.8292 H   0  0  0  0  0  0
  -25.1336  -36.1791   25.0803 H   0  0  0  0  0  0
  -21.0022  -28.3333   24.1343 H   0  0  0  0  0  0
  -20.5725  -26.2338   23.3638 H   0  0  0  0  0  0
  -21.6670  -26.7431   22.1201 H   0  0  0  0  0  0
  -19.6939  -25.6264   21.1286 H   0  0  0  0  0  0
  -19.6729  -27.3154   20.6739 H   0  0  0  0  0  0
  -17.4235  -26.6684   21.4018 H   0  0  0  0  0  0
  -18.0340  -26.0083   22.9033 H   0  0  0  0  0  0
  -19.7955  -30.7317   24.2203 H   0  0  0  0  0  0
  -17.5022  -31.6267   24.5165 H   0  0  0  0  0  0
  -15.5370  -30.2961   23.7678 H   0  0  0  0  0  0
  -15.8708  -28.0803   22.7092 H   0  0  0  0  0  0
  -24.5796  -30.7216   25.7671 H   0  0  0  0  0  0
  -24.8915  -32.3010   26.4760 H   0  0  0  0  0  0
  -25.7892  -30.8956   27.0193 H   0  0  0  0  0  0
  -26.3085  -29.6595   24.1422 H   0  0  0  0  0  0
  -27.3978  -29.7292   25.5058 H   0  0  0  0  0  0
  -27.9018  -30.4124   23.9811 H   0  0  0  0  0  0
  -27.2599  -33.3657   26.2008 H   0  0  0  0  0  0
  -28.3858  -32.6905   25.0330 H   0  0  0  0  0  0
  -28.0697  -31.8529   26.5453 H   0  0  0  0  0  0
  -28.2578  -38.0082   24.7516 H   0  0  0  0  0  0
  -28.1098  -36.2616   24.6267 H   0  0  0  0  0  0
  -27.2302  -37.1393   25.8860 H   0  0  0  0  0  0
  -20.9566  -29.8711   21.6691 H   0  0  0  0  0  0
  -26.0149  -38.2781   24.1399 H   0  0  0  0  0  0
  -27.1597  -20.6463   20.0888 H   0  0  0  0  0  0
  -31.6064  -18.6069   20.5970 H   0  0  0  0  0  0
  -26.2184  -18.5962   19.6747 H   0  0  0  0  0  0
  -26.6916  -17.6233   21.0671 H   0  0  0  0  0  0
  -27.1613  -17.1390   19.4253 H   0  0  0  0  0  0
  -29.9469  -23.2136   19.5624 H   0  0  0  0  0  0
  -29.6924  -23.2137   21.2570 H   0  0  0  0  0  0
  -27.2361  -24.1067   20.8241 H   0  0  0  0  0  0
  -27.6033  -24.1665   19.1422 H   0  0  0  0  0  0
  -28.6452  -16.0390   20.6049 H   0  0  0  0  0  0
  1 25  1  0  0  0
  1 30  2  0  0  0
  1 80  1  0  0  0
  2  3  1  0  0  0
  2 25  1  0  0  0
  2 82  1  0  0  0
  2 83  1  0  0  0
  3  4  1  0  0  0
  3 84  1  0  0  0
  3 85  1  0  0  0
  4  5  1  0  0  0
  4 86  1  0  0  0
  4 87  1  0  0  0
  5  6  1  0  0  0
  5 26  1  0  0  0
  5 88  1  0  0  0
  6 25  1  0  0  0
  6 89  1  0  0  0
  6 90  1  0  0  0
  7  8  2  0  0  0
  7 26  1  0  0  0
  7 29  1  0  0  0
  8  9  1  0  0  0
  8 22  1  0  0  0
  9 10  1  0  0  0
  9 27  2  0  0  0
 10 11  2  0  0  0
 10 15  1  0  0  0
 11 12  1  0  0  0
 11 91  1  0  0  0
 12 13  2  0  0  0
 12 92  1  0  0  0
 13 14  1  0  0  0
 13 31  1  0  0  0
 14 15  2  0  0  0
 14 93  1  0  0  0
 15 94  1  0  0  0
 16 17  2  0  0  0
 16 21  1  0  0  0
 16 31  1  0  0  0
 17 18  1  0  0  0
 17 95  1  0  0  0
 18 19  2  0  0  0
 18 96  1  0  0  0
 19 20  1  0  0  0
 19 24  1  0  0  0
 20 21  2  0  0  0
 20 97  1  0  0  0
 21 23  1  0  0  0
 22 28  1  0  0  0
 22 32  2  0  0  0
 26 27  1  0  0  0
 28 98  1  0  0  0
 28 99  1  0  0  0
 29100  1  0  0  0
 29101  1  0  0  0
 33 34  1  0  0  0
 33 66  1  0  0  0
 33 70  2  0  0  0
 34 36  1  0  0  0
 34 59  1  0  0  0
 34102  1  0  0  0
 35 44  2  0  0  0
 35 45  1  0  0  0
 35 68  1  0  0  0
 36 56  1  0  0  0
 36103  1  0  0  0
 37 39  1  0  0  0
 37 47  1  0  0  0
 37 66  1  0  0  0
 37104  1  0  0  0
 38 43  2  0  0  0
 38 46  1  0  0  0
 38 47  1  0  0  0
 39 64  1  0  0  0
 39 67  2  0  0  0
 40 52  1  0  0  0
 40 53  2  0  0  0
 40 58  1  0  0  0
 41105  1  0  0  0
 41106  1  0  0  0
 41107  1  0  0  0
 41 48  1  0  0  0
 42 43  1  0  0  0
 42 66  1  0  0  0
 42108  1  0  0  0
 42109  1  0  0  0
 43 44  1  0  0  0
 44110  1  0  0  0
 45 46  2  0  0  0
 45111  1  0  0  0
 46112  1  0  0  0
 47113  1  0  0  0
 47114  1  0  0  0
 48 56  1  0  0  0
 48 65  1  0  0  0
 48115  1  0  0  0
 49 50  1  0  0  0
 49 53  1  0  0  0
 49 64  1  0  0  0
 49116  1  0  0  0
 50 51  1  0  0  0
 50117  1  0  0  0
 50118  1  0  0  0
 51 52  1  0  0  0
 51119  1  0  0  0
 51120  1  0  0  0
 52121  1  0  0  0
 52122  1  0  0  0
 53 54  1  0  0  0
 54 55  2  0  0  0
 54123  1  0  0  0
 55 57  1  0  0  0
 55124  1  0  0  0
 56 69  2  0  0  0
 57 58  2  0  0  0
 57125  1  0  0  0
 58126  1  0  0  0
 59 60  1  0  0  0
 59 61  1  0  0  0
 59 62  1  0  0  0
 60127  1  0  0  0
 60128  1  0  0  0
 60129  1  0  0  0
 61130  1  0  0  0
 61131  1  0  0  0
 61132  1  0  0  0
 62133  1  0  0  0
 62134  1  0  0  0
 62135  1  0  0  0
 63 65  1  0  0  0
 63136  1  0  0  0
 63137  1  0  0  0
 63138  1  0  0  0
 64139  1  0  0  0
 65140  1  0  0  0
 68 79  1  0  0  0
 71 73  2  0  0  0
 71 74  1  0  0  0
 71141  1  0  0  0
 72 75  2  0  0  0
 72 76  1  0  0  0
 72142  1  0  0  0
 73 75  1  0  0  0
 73 77  1  0  0  0
 74 76  2  0  0  0
 74 78  1  0  0  0
 75 80  1  0  0  0
 76 81  1  0  0  0
 77143  1  0  0  0
 77144  1  0  0  0
 77145  1  0  0  0
 78 79  1  0  0  0
 78146  1  0  0  0
 78147  1  0  0  0
 79148  1  0  0  0
 79149  1  0  0  0
 80150  1  0  0  0
M  ISO  4   1 100  68 101  79 101  80 100
M  END
> <chiral flag>
0

> <version>
0

> <s_m_source_file>
/data/baiqing/PycharmProjects/Reinvent-master-3.2/result/LINK_invent/BTK/process_docking_weight1_custom_sum_contain_oxygen_bond_distance_aromatic_linkinvent_7_9_3/rearranged_h_0029.sdf

> <i_m_source_file_index>
16

> <r_mmod_Potential_Energy-OPLS-2005>
1015.1328125

> <r_mmod_Stretch_Energy-OPLS-2005>
452.995971679688

> <r_mmod_Bend_Energy-OPLS-2005>
413.317077636719

> <r_mmod_Torsional_Energy-OPLS-2005>
212.923645019531

> <r_mmod_Improper_Torsional_Energy-OPLS-2005>
5.09699869155884

> <r_mmod_Van_der_Waal_Energy-OPLS-2005>
125.432914733887

> <r_mmod_Electrostatic_Energy-OPLS-2005>
-369.990844726562

> <r_mmod_Solvation_Energy-OPLS-2005>
-209.100936889648

> <b_mmod_Minimization_Converged-OPLS-2005>
0

> <r_mmod_RMS_Derivative-OPLS-2005>
2.19121432304382

$$$$
16
                    3D
 Structure written by MMmdl.
165173  0  0  1  0            999 V2000
  -30.6156  -14.7097   20.5070 C   0  0  0  0  0  0
  -30.4397  -12.4486   19.4436 C   0  0  0  0  0  0
  -29.5004  -12.5169   18.2195 C   0  0  0  0  0  0
  -28.0299  -12.3293   18.6446 C   0  0  0  0  0  0
  -27.6434  -13.2227   19.8535 C   0  0  2  0  0  0
  -28.6967  -13.1254   20.9783 C   0  0  0  0  0  0
  -25.2518  -13.8172   20.5687 C   0  0  0  0  0  0
  -24.1800  -13.0415   20.9218 C   0  0  0  0  0  0
  -24.6375  -11.6900   20.8766 C   0  0  0  0  0  0
  -23.9065  -10.4267   21.0422 C   0  0  0  0  0  0
  -24.3617   -9.4192   21.9205 C   0  0  0  0  0  0
  -23.6289   -8.2236   22.0772 C   0  0  0  0  0  0
  -22.4279   -8.0282   21.3559 C   0  0  0  0  0  0
  -21.9923   -9.0248   20.4668 C   0  0  0  0  0  0
  -22.7241  -10.2123   20.3078 C   0  0  0  0  0  0
  -21.6831   -6.0755   22.5289 C   0  0  0  0  0  0
  -21.4004   -6.5665   23.8222 C   0  0  0  0  0  0
  -21.3656   -5.6822   24.9184 C   0  0  0  0  0  0
  -21.6037   -4.3081   24.7231 C   0  0  0  0  0  0
  -21.8819   -3.8173   23.4351 C   0  0  0  0  0  0
  -21.9181   -4.6981   22.3402 C   0  0  0  0  0  0
  -22.7816  -13.5214   21.1874 C   0  0  0  0  0  0
  -22.1653   -4.2163   21.0973 F   0  0  0  0  0  0
  -21.5610   -3.4575   25.7746 F   0  0  0  0  0  0
  -29.9961  -13.4892   20.3947 N   0  0  0  0  0  0
  -26.2940  -12.9370   20.3320 N   0  0  0  0  0  0
  -25.9314  -11.6525   20.5812 N   0  0  0  0  0  0
  -22.0450  -12.8209   22.0427 N   0  0  0  0  0  0
  -25.4219  -15.1896   20.4042 N   0  0  0  0  0  0
  -31.8087  -14.8447   20.2229 O   0  0  0  0  0  0
  -21.6634   -6.8887   21.4251 O   0  0  0  0  0  0
  -22.3512  -14.5507   20.6703 O   0  0  0  0  0  0
  -24.6279  -31.8559   23.1985 C   0  0  0  0  0  0
  -25.9121  -32.4754   23.8329 C   0  0  1  0  0  0
  -27.2306  -27.2889   20.1425 C   0  0  0  0  0  0
  -25.5936  -33.8558   24.2252 N   0  0  0  0  0  0
  -23.4251  -30.4741   21.5405 C   0  0  2  0  0  0
  -24.8766  -28.9244   20.1113 C   0  0  0  0  0  0
  -22.7493  -29.4574   22.4919 C   0  0  0  0  0  0
  -18.0280  -28.1393   22.8461 C   0  0  0  0  0  0
  -24.1480  -36.7292   23.2632 C   0  0  0  0  0  0
  -25.9640  -30.7814   21.3695 C   0  0  0  0  0  0
  -26.0445  -29.4021   20.7212 C   0  0  0  0  0  0
  -27.2252  -28.5974   20.7251 C   0  0  0  0  0  0
  -26.0448  -26.8732   19.4987 C   0  0  0  0  0  0
  -24.8793  -27.6668   19.4898 C   0  0  0  0  0  0
  -23.6442  -29.8077   20.1565 C   0  0  0  0  0  0
  -25.4110  -36.3069   24.0300 C   0  0  1  0  0  0
  -20.5884  -28.3694   23.1259 C   0  0  2  0  0  0
  -20.6775  -26.9418   22.5402 C   0  0  0  0  0  0
  -19.5769  -26.6391   21.5184 C   0  0  0  0  0  0
  -18.1937  -26.7927   22.1593 C   0  0  0  0  0  0
  -19.1535  -28.8855   23.2854 C   0  0  0  0  0  0
  -18.9469  -30.1445   23.8887 C   0  0  0  0  0  0
  -17.6469  -30.6598   24.0537 C   0  0  0  0  0  0
  -25.9050  -34.9431   23.5070 C   0  0  0  0  0  0
  -16.5349  -29.9087   23.6330 C   0  0  0  0  0  0
  -16.7264  -28.6509   23.0337 C   0  0  0  0  0  0
  -26.4525  -31.6570   25.0704 C   0  0  0  0  0  0
  -25.3754  -31.3653   26.1417 C   0  0  0  0  0  0
  -27.0394  -30.3006   24.6152 C   0  0  0  0  0  0
  -27.6086  -32.4295   25.7489 C   0  0  0  0  0  0
  -27.5561  -37.1796   24.8456 C   0  0  0  0  0  0
  -21.4210  -29.3024   22.3661 N   0  0  0  0  0  0
  -26.4279  -37.3780   23.9391 N   0  0  0  0  0  0
  -24.6912  -31.0555   22.0937 N   0  0  0  0  0  0
  -23.4173  -28.8099   23.3020 O   0  0  0  0  0  0
  -28.3400  -26.4221   20.1639 O   0  0  0  0  0  0
  -26.5634  -34.8902   22.4647 O   0  0  0  0  0  0
  -23.5434  -32.1376   23.7293 O   0  0  0  0  0  0
  -31.0814  -18.5891   19.4726 C   0  0  0  0  0  0
  -29.4565  -19.7449   20.8420 C   0  0  0  0  0  0
  -30.1415  -18.5133   20.5086 C   0  0  0  0  0  0
  -31.3503  -19.8023   18.8037 C   0  0  0  0  0  0
  -29.6775  -21.0169   20.1754 C   0  0  0  0  0  0
  -30.6515  -21.0021   19.1295 C   0  0  0  0  0  0
  -32.6392  -18.2971   14.1104 C   0  0  0  0  0  0
  -32.4490  -19.7629   17.7440 C   0  0  0  0  0  0
  -28.8645  -22.3188   20.6432 C   0  0  0  0  0  0
  -30.0650  -17.1757   21.3500 C   0  0  0  0  0  0
  -33.1151  -18.9441   15.4160 C   0  0  0  0  0  0
  -31.9675  -19.1554   16.4188 C   0  0  0  0  0  0
  -29.0430  -23.8162   20.0477 C   0  0  0  0  0  0
  -28.1386  -25.0133   20.6235 C   0  0  0  0  0  0
  -29.8056  -15.7950   20.7707 N   0  0  0  0  0  0
  -31.0294  -22.4234   18.2167 Cl  0  0  0  0  0  0
  -31.4747  -12.5925   19.1308 H   0  0  0  0  0  0
  -30.3994  -11.4639   19.9118 H   0  0  0  0  0  0
  -29.7792  -11.7613   17.4841 H   0  0  0  0  0  0
  -29.6138  -13.4804   17.7222 H   0  0  0  0  0  0
  -27.8966  -11.2778   18.9040 H   0  0  0  0  0  0
  -27.3630  -12.5228   17.8025 H   0  0  0  0  0  0
  -27.6458  -14.2473   19.4823 H   0  0  0  0  0  0
  -28.7357  -12.1132   21.3834 H   0  0  0  0  0  0
  -28.4407  -13.7770   21.8163 H   0  0  0  0  0  0
  -25.2760   -9.5663   22.4793 H   0  0  0  0  0  0
  -23.9987   -7.4634   22.7498 H   0  0  0  0  0  0
  -21.0865   -8.8766   19.8980 H   0  0  0  0  0  0
  -22.3699  -10.9669   19.6201 H   0  0  0  0  0  0
  -21.2011   -7.6180   23.9721 H   0  0  0  0  0  0
  -21.1474   -6.0565   25.9082 H   0  0  0  0  0  0
  -22.0593   -2.7643   23.2847 H   0  0  0  0  0  0
  -22.4075  -11.9856   22.4791 H   0  0  0  0  0  0
  -21.1079  -13.1263   22.2649 H   0  0  0  0  0  0
  -24.6525  -15.8439   20.4955 H   0  0  0  0  0  0
  -26.2666  -15.6245   20.0540 H   0  0  0  0  0  0
  -26.7182  -32.5444   23.1068 H   0  0  0  0  0  0
  -25.0069  -33.9722   25.0380 H   0  0  0  0  0  0
  -22.7199  -31.2947   21.3925 H   0  0  0  0  0  0
  -23.3738  -35.9629   23.3319 H   0  0  0  0  0  0
  -24.3584  -36.8941   22.2050 H   0  0  0  0  0  0
  -23.7243  -37.6489   23.6681 H   0  0  0  0  0  0
  -26.0853  -31.5393   20.5947 H   0  0  0  0  0  0
  -26.8469  -30.8442   21.9937 H   0  0  0  0  0  0
  -28.1211  -28.9611   21.2105 H   0  0  0  0  0  0
  -26.0092  -25.9136   19.0011 H   0  0  0  0  0  0
  -23.9879  -27.2954   19.0019 H   0  0  0  0  0  0
  -23.7614  -30.5830   19.3977 H   0  0  0  0  0  0
  -22.7658  -29.2344   19.8562 H   0  0  0  0  0  0
  -25.1293  -36.1917   25.0789 H   0  0  0  0  0  0
  -20.9948  -28.3282   24.1386 H   0  0  0  0  0  0
  -20.5692  -26.2296   23.3606 H   0  0  0  0  0  0
  -21.6648  -26.7454   22.1196 H   0  0  0  0  0  0
  -19.6942  -25.6302   21.1235 H   0  0  0  0  0  0
  -19.6729  -27.3185   20.6698 H   0  0  0  0  0  0
  -17.4210  -26.6639   21.4000 H   0  0  0  0  0  0
  -18.0352  -26.0079   22.9008 H   0  0  0  0  0  0
  -19.7945  -30.7225   24.2311 H   0  0  0  0  0  0
  -17.5037  -31.6297   24.5109 H   0  0  0  0  0  0
  -15.5364  -30.2960   23.7721 H   0  0  0  0  0  0
  -15.8657  -28.0830   22.7045 H   0  0  0  0  0  0
  -24.5956  -30.6990   25.7722 H   0  0  0  0  0  0
  -24.8890  -32.2773   26.4871 H   0  0  0  0  0  0
  -25.8075  -30.8813   27.0179 H   0  0  0  0  0  0
  -26.2964  -29.6716   24.1225 H   0  0  0  0  0  0
  -27.4181  -29.7311   25.4655 H   0  0  0  0  0  0
  -27.8792  -30.4344   23.9323 H   0  0  0  0  0  0
  -27.2738  -33.3626   26.2023 H   0  0  0  0  0  0
  -28.3922  -32.6792   25.0327 H   0  0  0  0  0  0
  -28.0702  -31.8419   26.5437 H   0  0  0  0  0  0
  -28.2557  -38.0109   24.7539 H   0  0  0  0  0  0
  -28.1089  -36.2647   24.6262 H   0  0  0  0  0  0
  -27.2294  -37.1426   25.8865 H   0  0  0  0  0  0
  -20.9410  -29.8760   21.6880 H   0  0  0  0  0  0
  -26.0155  -38.2842   24.1457 H   0  0  0  0  0  0
  -31.6469  -17.7035   19.2185 H   0  0  0  0  0  0
  -28.7544  -19.7242   21.6631 H   0  0  0  0  0  0
  -33.4728  -18.1404   13.4247 H   0  0  0  0  0  0
  -31.8999  -18.9186   13.6018 H   0  0  0  0  0  0
  -32.1856  -17.3237   14.2987 H   0  0  0  0  0  0
  -33.2695  -19.1583   18.1344 H   0  0  0  0  0  0
  -32.8895  -20.7440   17.5757 H   0  0  0  0  0  0
  -29.0179  -22.3924   21.7204 H   0  0  0  0  0  0
  -27.8106  -22.0596   20.5342 H   0  0  0  0  0  0
  -29.2896  -17.3336   22.1009 H   0  0  0  0  0  0
  -30.9907  -17.1227   21.9247 H   0  0  0  0  0  0
  -33.6026  -19.8955   15.1958 H   0  0  0  0  0  0
  -33.8791  -18.3073   15.8644 H   0  0  0  0  0  0
  -31.1959  -19.7951   15.9862 H   0  0  0  0  0  0
  -31.4962  -18.1912   16.6175 H   0  0  0  0  0  0
  -28.8564  -23.7799   18.9754 H   0  0  0  0  0  0
  -30.0836  -24.1156   20.1730 H   0  0  0  0  0  0
  -28.2921  -25.0362   21.7034 H   0  0  0  0  0  0
  -27.0988  -24.7134   20.5100 H   0  0  0  0  0  0
  -28.8326  -15.5354   20.8085 H   0  0  0  0  0  0
  1 25  1  0  0  0
  1 30  2  0  0  0
  1 85  1  0  0  0
  2  3  1  0  0  0
  2 25  1  0  0  0
  2 87  1  0  0  0
  2 88  1  0  0  0
  3  4  1  0  0  0
  3 89  1  0  0  0
  3 90  1  0  0  0
  4  5  1  0  0  0
  4 91  1  0  0  0
  4 92  1  0  0  0
  5  6  1  0  0  0
  5 26  1  0  0  0
  5 93  1  0  0  0
  6 25  1  0  0  0
  6 94  1  0  0  0
  6 95  1  0  0  0
  7  8  2  0  0  0
  7 26  1  0  0  0
  7 29  1  0  0  0
  8  9  1  0  0  0
  8 22  1  0  0  0
  9 10  1  0  0  0
  9 27  2  0  0  0
 10 11  2  0  0  0
 10 15  1  0  0  0
 11 12  1  0  0  0
 11 96  1  0  0  0
 12 13  2  0  0  0
 12 97  1  0  0  0
 13 14  1  0  0  0
 13 31  1  0  0  0
 14 15  2  0  0  0
 14 98  1  0  0  0
 15 99  1  0  0  0
 16 17  2  0  0  0
 16 21  1  0  0  0
 16 31  1  0  0  0
 17 18  1  0  0  0
 17100  1  0  0  0
 18 19  2  0  0  0
 18101  1  0  0  0
 19 20  1  0  0  0
 19 24  1  0  0  0
 20 21  2  0  0  0
 20102  1  0  0  0
 21 23  1  0  0  0
 22 28  1  0  0  0
 22 32  2  0  0  0
 26 27  1  0  0  0
 28103  1  0  0  0
 28104  1  0  0  0
 29105  1  0  0  0
 29106  1  0  0  0
 33 34  1  0  0  0
 33 66  1  0  0  0
 33 70  2  0  0  0
 34 36  1  0  0  0
 34 59  1  0  0  0
 34107  1  0  0  0
 35 44  2  0  0  0
 35 45  1  0  0  0
 35 68  1  0  0  0
 36 56  1  0  0  0
 36108  1  0  0  0
 37 39  1  0  0  0
 37 47  1  0  0  0
 37 66  1  0  0  0
 37109  1  0  0  0
 38 43  2  0  0  0
 38 46  1  0  0  0
 38 47  1  0  0  0
 39 64  1  0  0  0
 39 67  2  0  0  0
 40 52  1  0  0  0
 40 53  2  0  0  0
 40 58  1  0  0  0
 41110  1  0  0  0
 41111  1  0  0  0
 41112  1  0  0  0
 41 48  1  0  0  0
 42 43  1  0  0  0
 42 66  1  0  0  0
 42113  1  0  0  0
 42114  1  0  0  0
 43 44  1  0  0  0
 44115  1  0  0  0
 45 46  2  0  0  0
 45116  1  0  0  0
 46117  1  0  0  0
 47118  1  0  0  0
 47119  1  0  0  0
 48 56  1  0  0  0
 48 65  1  0  0  0
 48120  1  0  0  0
 49 50  1  0  0  0
 49 53  1  0  0  0
 49 64  1  0  0  0
 49121  1  0  0  0
 50 51  1  0  0  0
 50122  1  0  0  0
 50123  1  0  0  0
 51 52  1  0  0  0
 51124  1  0  0  0
 51125  1  0  0  0
 52126  1  0  0  0
 52127  1  0  0  0
 53 54  1  0  0  0
 54 55  2  0  0  0
 54128  1  0  0  0
 55 57  1  0  0  0
 55129  1  0  0  0
 56 69  2  0  0  0
 57 58  2  0  0  0
 57130  1  0  0  0
 58131  1  0  0  0
 59 60  1  0  0  0
 59 61  1  0  0  0
 59 62  1  0  0  0
 60132  1  0  0  0
 60133  1  0  0  0
 60134  1  0  0  0
 61135  1  0  0  0
 61136  1  0  0  0
 61137  1  0  0  0
 62138  1  0  0  0
 62139  1  0  0  0
 62140  1  0  0  0
 63 65  1  0  0  0
 63141  1  0  0  0
 63142  1  0  0  0
 63143  1  0  0  0
 64144  1  0  0  0
 65145  1  0  0  0
 68 84  1  0  0  0
 71 73  2  0  0  0
 71 74  1  0  0  0
 71146  1  0  0  0
 72 73  1  0  0  0
 72 75  2  0  0  0
 72147  1  0  0  0
 73 80  1  0  0  0
 74 76  2  0  0  0
 74 78  1  0  0  0
 75 76  1  0  0  0
 75 79  1  0  0  0
 76 86  1  0  0  0
 77 81  1  0  0  0
 77148  1  0  0  0
 77149  1  0  0  0
 77150  1  0  0  0
 78 82  1  0  0  0
 78151  1  0  0  0
 78152  1  0  0  0
 79 83  1  0  0  0
 79153  1  0  0  0
 79154  1  0  0  0
 80 85  1  0  0  0
 80155  1  0  0  0
 80156  1  0  0  0
 81 82  1  0  0  0
 81157  1  0  0  0
 81158  1  0  0  0
 82159  1  0  0  0
 82160  1  0  0  0
 83 84  1  0  0  0
 83161  1  0  0  0
 83162  1  0  0  0
 84163  1  0  0  0
 84164  1  0  0  0
 85165  1  0  0  0
M  ISO  4   1 100  68 101  84 101  85 100
M  END
> <chiral flag>
0

> <version>
0

> <s_m_source_file>
/data/baiqing/PycharmProjects/Reinvent-master-3.2/result/LINK_invent/BTK/process_docking_weight1_custom_sum_contain_oxygen_bond_distance_aromatic_linkinvent_7_9_3/rearranged_h_0029.sdf

> <i_m_source_file_index>
17

> <r_mmod_Potential_Energy-OPLS-2005>
126.495338439941

> <r_mmod_Stretch_Energy-OPLS-2005>
109.429542541504

> <r_mmod_Bend_Energy-OPLS-2005>
170.456680297852

> <r_mmod_Torsional_Energy-OPLS-2005>
224.295318603516

> <r_mmod_Improper_Torsional_Energy-OPLS-2005>
5.53307151794434

> <r_mmod_Van_der_Waal_Energy-OPLS-2005>
140.303619384766

> <r_mmod_Electrostatic_Energy-OPLS-2005>
-390.182067871094

> <r_mmod_Solvation_Energy-OPLS-2005>
-203.766677856445

> <b_mmod_Minimization_Converged-OPLS-2005>
0

> <r_mmod_RMS_Derivative-OPLS-2005>
3.05645179748535

$$$$
17
                    3D
 Structure written by MMmdl.
159167  0  0  1  0            999 V2000
  -30.5440  -14.9428   20.4202 C   0  0  0  0  0  0
  -30.4437  -12.5910   19.4806 C   0  0  0  0  0  0
  -29.5165  -12.5215   18.2454 C   0  0  0  0  0  0
  -28.0513  -12.3065   18.6713 C   0  0  0  0  0  0
  -27.6275  -13.2457   19.8299 C   0  0  2  0  0  0
  -28.6745  -13.2776   20.9624 C   0  0  0  0  0  0
  -25.2461  -13.8218   20.5713 C   0  0  0  0  0  0
  -24.1768  -13.0433   20.9235 C   0  0  0  0  0  0
  -24.6391  -11.6925   20.8758 C   0  0  0  0  0  0
  -23.9073  -10.4291   21.0418 C   0  0  0  0  0  0
  -24.3624   -9.4201   21.9188 C   0  0  0  0  0  0
  -23.6294   -8.2237   22.0759 C   0  0  0  0  0  0
  -22.4269   -8.0282   21.3555 C   0  0  0  0  0  0
  -21.9909   -9.0257   20.4657 C   0  0  0  0  0  0
  -22.7243  -10.2135   20.3069 C   0  0  0  0  0  0
  -21.6850   -6.0732   22.5288 C   0  0  0  0  0  0
  -21.4008   -6.5644   23.8214 C   0  0  0  0  0  0
  -21.3648   -5.6804   24.9180 C   0  0  0  0  0  0
  -21.6044   -4.3065   24.7241 C   0  0  0  0  0  0
  -21.8814   -3.8151   23.4362 C   0  0  0  0  0  0
  -21.9189   -4.6962   22.3415 C   0  0  0  0  0  0
  -22.7793  -13.5217   21.1887 C   0  0  0  0  0  0
  -22.1661   -4.2146   21.0990 F   0  0  0  0  0  0
  -21.5622   -3.4545   25.7750 F   0  0  0  0  0  0
  -29.9473  -13.6870   20.3559 N   0  0  0  0  0  0
  -26.2880  -12.9444   20.3227 N   0  0  0  0  0  0
  -25.9323  -11.6577   20.5735 N   0  0  0  0  0  0
  -22.0447  -12.8204   22.0450 N   0  0  0  0  0  0
  -25.4112  -15.1939   20.4133 N   0  0  0  0  0  0
  -31.7583  -15.0091   20.2052 O   0  0  0  0  0  0
  -21.6639   -6.8873   21.4247 O   0  0  0  0  0  0
  -22.3481  -14.5511   20.6722 O   0  0  0  0  0  0
  -24.6451  -31.8422   23.1926 C   0  0  0  0  0  0
  -25.9224  -32.4684   23.8287 C   0  0  1  0  0  0
  -27.2090  -27.1354   20.1562 C   0  0  0  0  0  0
  -25.5945  -33.8486   24.2200 N   0  0  0  0  0  0
  -23.4462  -30.4701   21.5355 C   0  0  2  0  0  0
  -24.8957  -28.9004   20.1115 C   0  0  0  0  0  0
  -22.7543  -29.4565   22.4821 C   0  0  0  0  0  0
  -18.0289  -28.1358   22.8452 C   0  0  0  0  0  0
  -24.1490  -36.7274   23.2642 C   0  0  0  0  0  0
  -26.0045  -30.7218   21.3901 C   0  0  0  0  0  0
  -26.0751  -29.3350   20.7287 C   0  0  0  0  0  0
  -27.2346  -28.4699   20.7299 C   0  0  0  0  0  0
  -26.0013  -26.8050   19.4985 C   0  0  0  0  0  0
  -24.8721  -27.6497   19.4802 C   0  0  0  0  0  0
  -23.6741  -29.8058   20.1529 C   0  0  0  0  0  0
  -25.4118  -36.3023   24.0317 C   0  0  1  0  0  0
  -20.5898  -28.3708   23.1192 C   0  0  2  0  0  0
  -20.6770  -26.9401   22.5382 C   0  0  0  0  0  0
  -19.5755  -26.6345   21.5179 C   0  0  0  0  0  0
  -18.1934  -26.7896   22.1582 C   0  0  0  0  0  0
  -19.1544  -28.8843   23.2822 C   0  0  0  0  0  0
  -18.9473  -30.1428   23.8871 C   0  0  0  0  0  0
  -17.6476  -30.6573   24.0531 C   0  0  0  0  0  0
  -25.9059  -34.9393   23.5068 C   0  0  0  0  0  0
  -16.5357  -29.9068   23.6325 C   0  0  0  0  0  0
  -16.7271  -28.6467   23.0367 C   0  0  0  0  0  0
  -26.4531  -31.6551   25.0736 C   0  0  0  0  0  0
  -25.3721  -31.3769   26.1442 C   0  0  0  0  0  0
  -27.0407  -30.2918   24.6375 C   0  0  0  0  0  0
  -27.6032  -32.4356   25.7500 C   0  0  0  0  0  0
  -27.5578  -37.1791   24.8453 C   0  0  0  0  0  0
  -21.4226  -29.3062   22.3574 N   0  0  0  0  0  0
  -26.4270  -37.3749   23.9419 N   0  0  0  0  0  0
  -24.7182  -31.0302   22.0954 N   0  0  0  0  0  0
  -23.4181  -28.8099   23.2963 O   0  0  0  0  0  0
  -28.2522  -26.1392   20.2305 O   0  0  0  0  0  0
  -26.5647  -34.8896   22.4650 O   0  0  0  0  0  0
  -23.5572  -32.1252   23.7174 O   0  0  0  0  0  0
  -28.4984  -20.2169   22.1130 C   0  0  0  0  0  0
  -29.0175  -20.4548   20.8228 C   0  0  0  0  0  0
  -26.9729  -21.5797   20.1735 C   0  0  0  0  0  0
  -28.3849  -21.6700   20.2080 C   0  0  0  0  0  0
  -26.3248  -20.9940   21.2922 C   0  0  0  0  0  0
  -27.1174  -20.4270   22.3206 C   0  0  0  0  0  0
  -26.1755  -22.2072   19.0406 C   0  0  0  0  0  0
  -24.8070  -21.0059   21.4253 C   0  0  0  0  0  0
  -29.2278  -18.9749   20.1108 C   0  0  0  0  0  0
  -28.8951  -23.2439   20.3236 C   0  0  0  0  0  0
  -30.0546  -17.6538   20.7718 C   0  0  0  0  0  0
  -27.9282  -24.6196   20.0952 C   0  0  0  0  0  0
  -29.7508  -16.1188   20.5223 N   0  0  0  0  0  0
  -26.5396  -19.9610   23.4543 F   0  0  0  0  0  0
  -31.4712  -12.7647   19.1560 H   0  0  0  0  0  0
  -30.4547  -11.6430   20.0206 H   0  0  0  0  0  0
  -29.8355  -11.7197   17.5780 H   0  0  0  0  0  0
  -29.5979  -13.4477   17.6738 H   0  0  0  0  0  0
  -27.9521  -11.2671   18.9872 H   0  0  0  0  0  0
  -27.3853  -12.4310   17.8165 H   0  0  0  0  0  0
  -27.5874  -14.2449   19.3952 H   0  0  0  0  0  0
  -28.7646  -12.3055   21.4482 H   0  0  0  0  0  0
  -28.3760  -13.9870   21.7363 H   0  0  0  0  0  0
  -25.2769   -9.5673   22.4767 H   0  0  0  0  0  0
  -23.9997   -7.4635   22.7484 H   0  0  0  0  0  0
  -21.0835   -8.8781   19.8985 H   0  0  0  0  0  0
  -22.3693  -10.9674   19.6190 H   0  0  0  0  0  0
  -21.1996   -7.6151   23.9714 H   0  0  0  0  0  0
  -21.1472   -6.0538   25.9083 H   0  0  0  0  0  0
  -22.0598   -2.7611   23.2872 H   0  0  0  0  0  0
  -22.4072  -11.9875   22.4852 H   0  0  0  0  0  0
  -21.1078  -13.1243   22.2672 H   0  0  0  0  0  0
  -24.6406  -15.8419   20.5318 H   0  0  0  0  0  0
  -26.2473  -15.6390   20.0618 H   0  0  0  0  0  0
  -26.7296  -32.5300   23.1017 H   0  0  0  0  0  0
  -25.0051  -33.9579   25.0318 H   0  0  0  0  0  0
  -22.7502  -31.2994   21.3882 H   0  0  0  0  0  0
  -23.3734  -35.9618   23.3253 H   0  0  0  0  0  0
  -24.3549  -36.8973   22.2065 H   0  0  0  0  0  0
  -23.7278  -37.6464   23.6716 H   0  0  0  0  0  0
  -26.1617  -31.4819   20.6228 H   0  0  0  0  0  0
  -26.8739  -30.7678   22.0356 H   0  0  0  0  0  0
  -28.1363  -28.7976   21.2271 H   0  0  0  0  0  0
  -25.8887  -25.8527   19.0059 H   0  0  0  0  0  0
  -23.9708  -27.3168   18.9837 H   0  0  0  0  0  0
  -23.8127  -30.5838   19.3994 H   0  0  0  0  0  0
  -22.7879  -29.2535   19.8384 H   0  0  0  0  0  0
  -25.1316  -36.1813   25.0809 H   0  0  0  0  0  0
  -21.0001  -28.3316   24.1300 H   0  0  0  0  0  0
  -20.5620  -26.2332   23.3610 H   0  0  0  0  0  0
  -21.6654  -26.7374   22.1234 H   0  0  0  0  0  0
  -19.6912  -25.6241   21.1253 H   0  0  0  0  0  0
  -19.6707  -27.3105   20.6671 H   0  0  0  0  0  0
  -17.4215  -26.6606   21.3985 H   0  0  0  0  0  0
  -18.0345  -26.0019   22.8965 H   0  0  0  0  0  0
  -19.7957  -30.7219   24.2256 H   0  0  0  0  0  0
  -17.5044  -31.6256   24.5129 H   0  0  0  0  0  0
  -15.5361  -30.2984   23.7666 H   0  0  0  0  0  0
  -15.8643  -28.0784   22.7137 H   0  0  0  0  0  0
  -24.5902  -30.7096   25.7794 H   0  0  0  0  0  0
  -24.8908  -32.2974   26.4757 H   0  0  0  0  0  0
  -25.8023  -30.9030   27.0279 H   0  0  0  0  0  0
  -26.3036  -29.6576   24.1437 H   0  0  0  0  0  0
  -27.4016  -29.7285   25.4983 H   0  0  0  0  0  0
  -27.8942  -30.4083   23.9705 H   0  0  0  0  0  0
  -27.2588  -33.3695   26.1963 H   0  0  0  0  0  0
  -28.3889  -32.6876   25.0372 H   0  0  0  0  0  0
  -28.0644  -31.8578   26.5522 H   0  0  0  0  0  0
  -28.2593  -38.0094   24.7515 H   0  0  0  0  0  0
  -28.1100  -36.2631   24.6264 H   0  0  0  0  0  0
  -27.2295  -37.1432   25.8855 H   0  0  0  0  0  0
  -20.9402  -29.8808   21.6807 H   0  0  0  0  0  0
  -26.0120  -38.2811   24.1413 H   0  0  0  0  0  0
  -28.9842  -19.5413   22.7987 H   0  0  0  0  0  0
  -26.8305  -22.5415   18.2358 H   0  0  0  0  0  0
  -25.5835  -23.0568   19.3802 H   0  0  0  0  0  0
  -25.4953  -21.4736   18.6067 H   0  0  0  0  0  0
  -24.3698  -20.1976   20.8399 H   0  0  0  0  0  0
  -24.3740  -21.9464   21.0841 H   0  0  0  0  0  0
  -24.4934  -20.8694   22.4604 H   0  0  0  0  0  0
  -29.6637  -19.1753   19.1320 H   0  0  0  0  0  0
  -28.2191  -18.6271   19.8843 H   0  0  0  0  0  0
  -29.7458  -23.3294   19.6478 H   0  0  0  0  0  0
  -29.3188  -23.3298   21.3254 H   0  0  0  0  0  0
  -29.9665  -17.7496   21.8531 H   0  0  0  0  0  0
  -31.1164  -17.8094   20.5790 H   0  0  0  0  0  0
  -27.0592  -24.4669   20.7352 H   0  0  0  0  0  0
  -27.5720  -24.5295   19.0725 H   0  0  0  0  0  0
  -28.7662  -15.9032   20.5587 H   0  0  0  0  0  0
  1 25  1  0  0  0
  1 30  2  0  0  0
  1 83  1  0  0  0
  2  3  1  0  0  0
  2 25  1  0  0  0
  2 85  1  0  0  0
  2 86  1  0  0  0
  3  4  1  0  0  0
  3 87  1  0  0  0
  3 88  1  0  0  0
  4  5  1  0  0  0
  4 89  1  0  0  0
  4 90  1  0  0  0
  5  6  1  0  0  0
  5 26  1  0  0  0
  5 91  1  0  0  0
  6 25  1  0  0  0
  6 92  1  0  0  0
  6 93  1  0  0  0
  7  8  2  0  0  0
  7 26  1  0  0  0
  7 29  1  0  0  0
  8  9  1  0  0  0
  8 22  1  0  0  0
  9 10  1  0  0  0
  9 27  2  0  0  0
 10 11  2  0  0  0
 10 15  1  0  0  0
 11 12  1  0  0  0
 11 94  1  0  0  0
 12 13  2  0  0  0
 12 95  1  0  0  0
 13 14  1  0  0  0
 13 31  1  0  0  0
 14 15  2  0  0  0
 14 96  1  0  0  0
 15 97  1  0  0  0
 16 17  2  0  0  0
 16 21  1  0  0  0
 16 31  1  0  0  0
 17 18  1  0  0  0
 17 98  1  0  0  0
 18 19  2  0  0  0
 18 99  1  0  0  0
 19 20  1  0  0  0
 19 24  1  0  0  0
 20 21  2  0  0  0
 20100  1  0  0  0
 21 23  1  0  0  0
 22 28  1  0  0  0
 22 32  2  0  0  0
 26 27  1  0  0  0
 28101  1  0  0  0
 28102  1  0  0  0
 29103  1  0  0  0
 29104  1  0  0  0
 33 34  1  0  0  0
 33 66  1  0  0  0
 33 70  2  0  0  0
 34 36  1  0  0  0
 34 59  1  0  0  0
 34105  1  0  0  0
 35 44  2  0  0  0
 35 45  1  0  0  0
 35 68  1  0  0  0
 36 56  1  0  0  0
 36106  1  0  0  0
 37 39  1  0  0  0
 37 47  1  0  0  0
 37 66  1  0  0  0
 37107  1  0  0  0
 38 43  2  0  0  0
 38 46  1  0  0  0
 38 47  1  0  0  0
 39 64  1  0  0  0
 39 67  2  0  0  0
 40 52  1  0  0  0
 40 53  2  0  0  0
 40 58  1  0  0  0
 41108  1  0  0  0
 41109  1  0  0  0
 41110  1  0  0  0
 41 48  1  0  0  0
 42 43  1  0  0  0
 42 66  1  0  0  0
 42111  1  0  0  0
 42112  1  0  0  0
 43 44  1  0  0  0
 44113  1  0  0  0
 45 46  2  0  0  0
 45114  1  0  0  0
 46115  1  0  0  0
 47116  1  0  0  0
 47117  1  0  0  0
 48 56  1  0  0  0
 48 65  1  0  0  0
 48118  1  0  0  0
 49 50  1  0  0  0
 49 53  1  0  0  0
 49 64  1  0  0  0
 49119  1  0  0  0
 50 51  1  0  0  0
 50120  1  0  0  0
 50121  1  0  0  0
 51 52  1  0  0  0
 51122  1  0  0  0
 51123  1  0  0  0
 52124  1  0  0  0
 52125  1  0  0  0
 53 54  1  0  0  0
 54 55  2  0  0  0
 54126  1  0  0  0
 55 57  1  0  0  0
 55127  1  0  0  0
 56 69  2  0  0  0
 57 58  2  0  0  0
 57128  1  0  0  0
 58129  1  0  0  0
 59 60  1  0  0  0
 59 61  1  0  0  0
 59 62  1  0  0  0
 60130  1  0  0  0
 60131  1  0  0  0
 60132  1  0  0  0
 61133  1  0  0  0
 61134  1  0  0  0
 61135  1  0  0  0
 62136  1  0  0  0
 62137  1  0  0  0
 62138  1  0  0  0
 63 65  1  0  0  0
 63139  1  0  0  0
 63140  1  0  0  0
 63141  1  0  0  0
 64142  1  0  0  0
 65143  1  0  0  0
 68 82  1  0  0  0
 71 72  2  0  0  0
 71 76  1  0  0  0
 71144  1  0  0  0
 72 74  1  0  0  0
 72 79  1  0  0  0
 73 74  2  0  0  0
 73 75  1  0  0  0
 73 77  1  0  0  0
 74 80  1  0  0  0
 75 76  2  0  0  0
 75 78  1  0  0  0
 76 84  1  0  0  0
 77145  1  0  0  0
 77146  1  0  0  0
 77147  1  0  0  0
 78148  1  0  0  0
 78149  1  0  0  0
 78150  1  0  0  0
 79 81  1  0  0  0
 79151  1  0  0  0
 79152  1  0  0  0
 80 82  1  0  0  0
 80153  1  0  0  0
 80154  1  0  0  0
 81 83  1  0  0  0
 81155  1  0  0  0
 81156  1  0  0  0
 82157  1  0  0  0
 82158  1  0  0  0
 83159  1  0  0  0
M  ISO  4   1 100  68 101  82 101  83 100
M  END
> <chiral flag>
0

> <version>
0

> <s_m_source_file>
/data/baiqing/PycharmProjects/Reinvent-master-3.2/result/LINK_invent/BTK/process_docking_weight1_custom_sum_contain_oxygen_bond_distance_aromatic_linkinvent_7_9_3/rearranged_h_0029.sdf

> <i_m_source_file_index>
18

> <r_mmod_Potential_Energy-OPLS-2005>
778.167053222656

> <r_mmod_Stretch_Energy-OPLS-2005>
274.437530517578

> <r_mmod_Bend_Energy-OPLS-2005>
277.680511474609

> <r_mmod_Torsional_Energy-OPLS-2005>
447.022399902344

> <r_mmod_Improper_Torsional_Energy-OPLS-2005>
35.1591644287109

> <r_mmod_Van_der_Waal_Energy-OPLS-2005>
138.554718017578

> <r_mmod_Electrostatic_Energy-OPLS-2005>
-382.655517578125

> <r_mmod_Solvation_Energy-OPLS-2005>
-207.118392944336

> <b_mmod_Minimization_Converged-OPLS-2005>
0

> <r_mmod_RMS_Derivative-OPLS-2005>
2.49410772323608

$$$$
18
                    3D
 Structure written by MMmdl.
151159  0  0  1  0            999 V2000
  -30.2886  -15.6767   20.3225 C   0  0  0  0  0  0
  -30.4244  -13.1044   19.5623 C   0  0  0  0  0  0
  -29.5566  -12.6836   18.3387 C   0  0  0  0  0  0
  -28.1310  -12.3158   18.7735 C   0  0  0  0  0  0
  -27.6001  -13.3169   19.8243 C   0  0  2  0  0  0
  -28.6097  -13.6562   20.9496 C   0  0  0  0  0  0
  -25.2342  -13.8311   20.5792 C   0  0  0  0  0  0
  -24.1730  -13.0449   20.9276 C   0  0  0  0  0  0
  -24.6439  -11.6970   20.8747 C   0  0  0  0  0  0
  -23.9137  -10.4320   21.0393 C   0  0  0  0  0  0
  -24.3657   -9.4228   21.9181 C   0  0  0  0  0  0
  -23.6319   -8.2265   22.0755 C   0  0  0  0  0  0
  -22.4304   -8.0300   21.3549 C   0  0  0  0  0  0
  -21.9955   -9.0281   20.4653 C   0  0  0  0  0  0
  -22.7294  -10.2154   20.3062 C   0  0  0  0  0  0
  -21.6873   -6.0756   22.5282 C   0  0  0  0  0  0
  -21.4022   -6.5648   23.8217 C   0  0  0  0  0  0
  -21.3660   -5.6795   24.9167 C   0  0  0  0  0  0
  -21.6041   -4.3062   24.7220 C   0  0  0  0  0  0
  -21.8816   -3.8160   23.4334 C   0  0  0  0  0  0
  -21.9193   -4.6984   22.3394 C   0  0  0  0  0  0
  -22.7736  -13.5178   21.1895 C   0  0  0  0  0  0
  -22.1665   -4.2163   21.0973 F   0  0  0  0  0  0
  -21.5626   -3.4537   25.7729 F   0  0  0  0  0  0
  -29.7883  -14.2919   20.3090 N   0  0  0  0  0  0
  -26.2798  -12.9653   20.3263 N   0  0  0  0  0  0
  -25.9392  -11.6722   20.5705 N   0  0  0  0  0  0
  -22.0384  -12.8188   22.0448 N   0  0  0  0  0  0
  -25.3936  -15.2051   20.4232 N   0  0  0  0  0  0
  -31.5080  -15.6227   20.0695 O   0  0  0  0  0  0
  -21.6657   -6.8909   21.4253 O   0  0  0  0  0  0
  -22.3412  -14.5474   20.6721 O   0  0  0  0  0  0
  -24.6872  -31.7935   23.1488 C   0  0  0  0  0  0
  -25.9440  -32.4433   23.8046 C   0  0  1  0  0  0
  -27.2307  -26.6673   20.2179 C   0  0  0  0  0  0
  -25.6000  -33.8262   24.1929 N   0  0  0  0  0  0
  -23.5153  -30.3947   21.5022 C   0  0  2  0  0  0
  -24.9740  -28.7277   20.1146 C   0  0  0  0  0  0
  -22.7790  -29.4288   22.4699 C   0  0  0  0  0  0
  -18.0337  -28.1416   22.8451 C   0  0  0  0  0  0
  -24.1493  -36.7145   23.2656 C   0  0  0  0  0  0
  -26.0960  -30.5155   21.4189 C   0  0  0  0  0  0
  -26.1599  -29.0767   20.7690 C   0  0  0  0  0  0
  -27.2682  -28.0733   20.7921 C   0  0  0  0  0  0
  -26.0148  -26.5396   19.4962 C   0  0  0  0  0  0
  -24.9426  -27.4863   19.4528 C   0  0  0  0  0  0
  -23.7711  -29.6869   20.1379 C   0  0  0  0  0  0
  -25.4149  -36.2878   24.0278 C   0  0  1  0  0  0
  -20.5979  -28.3782   23.1133 C   0  0  2  0  0  0
  -20.6801  -26.9443   22.5399 C   0  0  0  0  0  0
  -19.5774  -26.6370   21.5215 C   0  0  0  0  0  0
  -18.1961  -26.7942   22.1618 C   0  0  0  0  0  0
  -19.1606  -28.8926   23.2766 C   0  0  0  0  0  0
  -18.9511  -30.1512   23.8811 C   0  0  0  0  0  0
  -17.6500  -30.6601   24.0555 C   0  0  0  0  0  0
  -25.9132  -34.9269   23.4948 C   0  0  0  0  0  0
  -16.5393  -29.9087   23.6354 C   0  0  0  0  0  0
  -16.7319  -28.6510   23.0369 C   0  0  0  0  0  0
  -26.4598  -31.6487   25.0693 C   0  0  0  0  0  0
  -25.3655  -31.3825   26.1308 C   0  0  0  0  0  0
  -27.0525  -30.2815   24.6625 C   0  0  0  0  0  0
  -27.6035  -32.4348   25.7509 C   0  0  0  0  0  0
  -27.5562  -37.1733   24.8467 C   0  0  0  0  0  0
  -21.4437  -29.3021   22.3449 N   0  0  0  0  0  0
  -26.4272  -37.3645   23.9405 N   0  0  0  0  0  0
  -24.7900  -30.9347   22.0758 N   0  0  0  0  0  0
  -23.4218  -28.7897   23.3066 O   0  0  0  0  0  0
  -28.1822  -25.4306   20.3449 O   0  0  0  0  0  0
  -26.5772  -34.8857   22.4567 O   0  0  0  0  0  0
  -23.5893  -32.1022   23.6428 O   0  0  0  0  0  0
  -29.2577  -22.5314   21.9915 C   0  0  0  0  0  0
  -28.8398  -22.0873   20.7102 C   0  0  0  0  0  0
  -29.8352  -21.5649   22.7315 C   0  0  0  0  0  0
  -29.2279  -20.5205   20.7300 C   0  0  0  0  0  0
  -30.3924  -21.6951   24.1201 C   0  0  0  0  0  0
  -30.4902  -19.1837   22.5136 C   0  0  0  0  0  0
  -28.0978  -23.6876   19.9898 C   0  0  0  0  0  0
  -29.4131  -18.7898   19.9832 C   0  0  0  0  0  0
  -29.8591  -20.3985   21.9924 N   0  0  0  0  0  0
  -29.5193  -17.0429   20.4442 N   0  0  0  0  0  0
  -31.4202  -13.3633   19.2003 H   0  0  0  0  0  0
  -30.5826  -12.2547   20.2295 H   0  0  0  0  0  0
  -30.0161  -11.8490   17.8078 H   0  0  0  0  0  0
  -29.5155  -13.5120   17.6301 H   0  0  0  0  0  0
  -28.1594  -11.3141   19.2026 H   0  0  0  0  0  0
  -27.4647  -12.2654   17.9109 H   0  0  0  0  0  0
  -27.4640  -14.2389   19.2580 H   0  0  0  0  0  0
  -28.8697  -12.7763   21.5404 H   0  0  0  0  0  0
  -28.1663  -14.3694   21.6464 H   0  0  0  0  0  0
  -25.2806   -9.5694   22.4757 H   0  0  0  0  0  0
  -24.0022   -7.4666   22.7487 H   0  0  0  0  0  0
  -21.0880   -8.8821   19.8967 H   0  0  0  0  0  0
  -22.3761  -10.9693   19.6173 H   0  0  0  0  0  0
  -21.2025   -7.6156   23.9725 H   0  0  0  0  0  0
  -21.1482   -6.0519   25.9070 H   0  0  0  0  0  0
  -22.0593   -2.7619   23.2826 H   0  0  0  0  0  0
  -22.4008  -11.9861   22.4851 H   0  0  0  0  0  0
  -21.0998  -13.1210   22.2629 H   0  0  0  0  0  0
  -24.6189  -15.8514   20.5298 H   0  0  0  0  0  0
  -26.2309  -15.6457   20.0646 H   0  0  0  0  0  0
  -26.7532  -32.4881   23.0765 H   0  0  0  0  0  0
  -25.0057  -33.9289   25.0023 H   0  0  0  0  0  0
  -22.8427  -31.2330   21.3095 H   0  0  0  0  0  0
  -23.3771  -35.9457   23.3269 H   0  0  0  0  0  0
  -24.3565  -36.8857   22.2081 H   0  0  0  0  0  0
  -23.7239  -37.6309   23.6763 H   0  0  0  0  0  0
  -26.3054  -31.2384   20.6288 H   0  0  0  0  0  0
  -26.9451  -30.5806   22.0864 H   0  0  0  0  0  0
  -28.1539  -28.3445   21.3497 H   0  0  0  0  0  0
  -25.8469  -25.5992   18.9896 H   0  0  0  0  0  0
  -24.0494  -27.2101   18.9098 H   0  0  0  0  0  0
  -23.9477  -30.4450   19.3735 H   0  0  0  0  0  0
  -22.8738  -29.1558   19.8145 H   0  0  0  0  0  0
  -25.1358  -36.1643   25.0767 H   0  0  0  0  0  0
  -21.0053  -28.3417   24.1261 H   0  0  0  0  0  0
  -20.5668  -26.2420   23.3666 H   0  0  0  0  0  0
  -21.6662  -26.7376   22.1223 H   0  0  0  0  0  0
  -19.6935  -25.6263   21.1291 H   0  0  0  0  0  0
  -19.6718  -27.3143   20.6713 H   0  0  0  0  0  0
  -17.4238  -26.6693   21.4025 H   0  0  0  0  0  0
  -18.0348  -26.0102   22.9021 H   0  0  0  0  0  0
  -19.7991  -30.7345   24.2158 H   0  0  0  0  0  0
  -17.5054  -31.6274   24.5166 H   0  0  0  0  0  0
  -15.5392  -30.2958   23.7719 H   0  0  0  0  0  0
  -15.8720  -28.0796   22.7127 H   0  0  0  0  0  0
  -24.5853  -30.7155   25.7627 H   0  0  0  0  0  0
  -24.8832  -32.3055   26.4533 H   0  0  0  0  0  0
  -25.7830  -30.9127   27.0221 H   0  0  0  0  0  0
  -26.3254  -29.6424   24.1609 H   0  0  0  0  0  0
  -27.3921  -29.7273   25.5385 H   0  0  0  0  0  0
  -27.9249  -30.3930   24.0183 H   0  0  0  0  0  0
  -27.2570  -33.3718   26.1880 H   0  0  0  0  0  0
  -28.3957  -32.6799   25.0422 H   0  0  0  0  0  0
  -28.0582  -31.8618   26.5600 H   0  0  0  0  0  0
  -28.2545  -38.0054   24.7503 H   0  0  0  0  0  0
  -28.1083  -36.2576   24.6302 H   0  0  0  0  0  0
  -27.2274  -37.1385   25.8866 H   0  0  0  0  0  0
  -20.9760  -29.8685   21.6503 H   0  0  0  0  0  0
  -26.0094  -38.2696   24.1393 H   0  0  0  0  0  0
  -29.1406  -23.5447   22.3545 H   0  0  0  0  0  0
  -30.1497  -22.6688   24.5491 H   0  0  0  0  0  0
  -31.4796  -21.6046   24.1240 H   0  0  0  0  0  0
  -29.9807  -20.9383   24.7883 H   0  0  0  0  0  0
  -29.7306  -18.4326   22.7295 H   0  0  0  0  0  0
  -31.0389  -19.3651   23.4354 H   0  0  0  0  0  0
  -31.2199  -18.7947   21.8030 H   0  0  0  0  0  0
  -27.0269  -23.4858   20.0245 H   0  0  0  0  0  0
  -28.3404  -23.6302   18.9280 H   0  0  0  0  0  0
  -30.2842  -18.8833   19.3334 H   0  0  0  0  0  0
  -28.5903  -18.7440   19.2684 H   0  0  0  0  0  0
  -28.6013  -16.7936   20.7856 H   0  0  0  0  0  0
  1 25  1  0  0  0
  1 30  2  0  0  0
  1 80  1  0  0  0
  2  3  1  0  0  0
  2 25  1  0  0  0
  2 81  1  0  0  0
  2 82  1  0  0  0
  3  4  1  0  0  0
  3 83  1  0  0  0
  3 84  1  0  0  0
  4  5  1  0  0  0
  4 85  1  0  0  0
  4 86  1  0  0  0
  5  6  1  0  0  0
  5 26  1  0  0  0
  5 87  1  0  0  0
  6 25  1  0  0  0
  6 88  1  0  0  0
  6 89  1  0  0  0
  7  8  2  0  0  0
  7 26  1  0  0  0
  7 29  1  0  0  0
  8  9  1  0  0  0
  8 22  1  0  0  0
  9 10  1  0  0  0
  9 27  2  0  0  0
 10 11  2  0  0  0
 10 15  1  0  0  0
 11 12  1  0  0  0
 11 90  1  0  0  0
 12 13  2  0  0  0
 12 91  1  0  0  0
 13 14  1  0  0  0
 13 31  1  0  0  0
 14 15  2  0  0  0
 14 92  1  0  0  0
 15 93  1  0  0  0
 16 17  2  0  0  0
 16 21  1  0  0  0
 16 31  1  0  0  0
 17 18  1  0  0  0
 17 94  1  0  0  0
 18 19  2  0  0  0
 18 95  1  0  0  0
 19 20  1  0  0  0
 19 24  1  0  0  0
 20 21  2  0  0  0
 20 96  1  0  0  0
 21 23  1  0  0  0
 22 28  1  0  0  0
 22 32  2  0  0  0
 26 27  1  0  0  0
 28 97  1  0  0  0
 28 98  1  0  0  0
 29 99  1  0  0  0
 29100  1  0  0  0
 33 34  1  0  0  0
 33 66  1  0  0  0
 33 70  2  0  0  0
 34 36  1  0  0  0
 34 59  1  0  0  0
 34101  1  0  0  0
 35 44  2  0  0  0
 35 45  1  0  0  0
 35 68  1  0  0  0
 36 56  1  0  0  0
 36102  1  0  0  0
 37 39  1  0  0  0
 37 47  1  0  0  0
 37 66  1  0  0  0
 37103  1  0  0  0
 38 43  2  0  0  0
 38 46  1  0  0  0
 38 47  1  0  0  0
 39 64  1  0  0  0
 39 67  2  0  0  0
 40 52  1  0  0  0
 40 53  2  0  0  0
 40 58  1  0  0  0
 41104  1  0  0  0
 41105  1  0  0  0
 41106  1  0  0  0
 41 48  1  0  0  0
 42 43  1  0  0  0
 42 66  1  0  0  0
 42107  1  0  0  0
 42108  1  0  0  0
 43 44  1  0  0  0
 44109  1  0  0  0
 45 46  2  0  0  0
 45110  1  0  0  0
 46111  1  0  0  0
 47112  1  0  0  0
 47113  1  0  0  0
 48 56  1  0  0  0
 48 65  1  0  0  0
 48114  1  0  0  0
 49 50  1  0  0  0
 49 53  1  0  0  0
 49 64  1  0  0  0
 49115  1  0  0  0
 50 51  1  0  0  0
 50116  1  0  0  0
 50117  1  0  0  0
 51 52  1  0  0  0
 51118  1  0  0  0
 51119  1  0  0  0
 52120  1  0  0  0
 52121  1  0  0  0
 53 54  1  0  0  0
 54 55  2  0  0  0
 54122  1  0  0  0
 55 57  1  0  0  0
 55123  1  0  0  0
 56 69  2  0  0  0
 57 58  2  0  0  0
 57124  1  0  0  0
 58125  1  0  0  0
 59 60  1  0  0  0
 59 61  1  0  0  0
 59 62  1  0  0  0
 60126  1  0  0  0
 60127  1  0  0  0
 60128  1  0  0  0
 61129  1  0  0  0
 61130  1  0  0  0
 61131  1  0  0  0
 62132  1  0  0  0
 62133  1  0  0  0
 62134  1  0  0  0
 63 65  1  0  0  0
 63135  1  0  0  0
 63136  1  0  0  0
 63137  1  0  0  0
 64138  1  0  0  0
 65139  1  0  0  0
 68 77  1  0  0  0
 71 72  1  0  0  0
 71 73  2  0  0  0
 71140  1  0  0  0
 72 74  2  0  0  0
 72 77  1  0  0  0
 73 75  1  0  0  0
 73 79  1  0  0  0
 74 78  1  0  0  0
 74 79  1  0  0  0
 75141  1  0  0  0
 75142  1  0  0  0
 75143  1  0  0  0
 76 79  1  0  0  0
 76144  1  0  0  0
 76145  1  0  0  0
 76146  1  0  0  0
 77147  1  0  0  0
 77148  1  0  0  0
 78 80  1  0  0  0
 78149  1  0  0  0
 78150  1  0  0  0
 80151  1  0  0  0
M  ISO  4   1 100  68 101  77 101  80 100
M  END
> <chiral flag>
0

> <version>
0

> <s_m_source_file>
/data/baiqing/PycharmProjects/Reinvent-master-3.2/result/LINK_invent/BTK/process_docking_weight1_custom_sum_contain_oxygen_bond_distance_aromatic_linkinvent_7_9_3/rearranged_h_0029.sdf

> <i_m_source_file_index>
19

> <r_mmod_Potential_Energy-OPLS-2005>
2654.81103515625

> <r_mmod_Stretch_Energy-OPLS-2005>
1245.05859375

> <r_mmod_Bend_Energy-OPLS-2005>
719.042663574219

> <r_mmod_Torsional_Energy-OPLS-2005>
219.985717773438

> <r_mmod_Improper_Torsional_Energy-OPLS-2005>
4.43170166015625

> <r_mmod_Van_der_Waal_Energy-OPLS-2005>
121.560264587402

> <r_mmod_Electrostatic_Energy-OPLS-2005>
-396.590515136719

> <r_mmod_Solvation_Energy-OPLS-2005>
-229.969223022461

> <b_mmod_Minimization_Converged-OPLS-2005>
0

> <r_mmod_RMS_Derivative-OPLS-2005>
2.23681092262268

$$$$
19
                    3D
 Structure written by MMmdl.
158166  0  0  1  0            999 V2000
  -30.5804  -14.9470   20.3912 C   0  0  0  0  0  0
  -30.4366  -12.5851   19.4907 C   0  0  0  0  0  0
  -29.5132  -12.5123   18.2537 C   0  0  0  0  0  0
  -28.0524  -12.2955   18.6882 C   0  0  0  0  0  0
  -27.6294  -13.2494   19.8354 C   0  0  2  0  0  0
  -28.6780  -13.3120   20.9683 C   0  0  0  0  0  0
  -25.2458  -13.8227   20.5726 C   0  0  0  0  0  0
  -24.1771  -13.0440   20.9261 C   0  0  0  0  0  0
  -24.6399  -11.6935   20.8781 C   0  0  0  0  0  0
  -23.9087  -10.4294   21.0421 C   0  0  0  0  0  0
  -24.3631   -9.4205   21.9199 C   0  0  0  0  0  0
  -23.6297   -8.2241   22.0757 C   0  0  0  0  0  0
  -22.4284   -8.0287   21.3539 C   0  0  0  0  0  0
  -21.9939   -9.0267   20.4636 C   0  0  0  0  0  0
  -22.7269  -10.2143   20.3055 C   0  0  0  0  0  0
  -21.6860   -6.0742   22.5269 C   0  0  0  0  0  0
  -21.4017   -6.5640   23.8206 C   0  0  0  0  0  0
  -21.3659   -5.6790   24.9167 C   0  0  0  0  0  0
  -21.6052   -4.3052   24.7222 C   0  0  0  0  0  0
  -21.8815   -3.8144   23.4335 C   0  0  0  0  0  0
  -21.9197   -4.6967   22.3388 C   0  0  0  0  0  0
  -22.7784  -13.5194   21.1902 C   0  0  0  0  0  0
  -22.1661   -4.2150   21.0967 F   0  0  0  0  0  0
  -21.5637   -3.4533   25.7729 F   0  0  0  0  0  0
  -29.9570  -13.6996   20.3551 N   0  0  0  0  0  0
  -26.2894  -12.9464   20.3281 N   0  0  0  0  0  0
  -25.9338  -11.6592   20.5795 N   0  0  0  0  0  0
  -22.0451  -12.8159   22.0459 N   0  0  0  0  0  0
  -25.4046  -15.1942   20.4052 N   0  0  0  0  0  0
  -31.7881  -14.9810   20.1399 O   0  0  0  0  0  0
  -21.6643   -6.8884   21.4227 O   0  0  0  0  0  0
  -22.3477  -14.5509   20.6767 O   0  0  0  0  0  0
  -24.6437  -31.8452   23.1885 C   0  0  0  0  0  0
  -25.9206  -32.4712   23.8272 C   0  0  1  0  0  0
  -27.2048  -27.1145   20.1609 C   0  0  0  0  0  0
  -25.5935  -33.8515   24.2197 N   0  0  0  0  0  0
  -23.4474  -30.4660   21.5341 C   0  0  2  0  0  0
  -24.8935  -28.8854   20.1176 C   0  0  0  0  0  0
  -22.7551  -29.4571   22.4846 C   0  0  0  0  0  0
  -18.0286  -28.1427   22.8467 C   0  0  0  0  0  0
  -24.1471  -36.7264   23.2644 C   0  0  0  0  0  0
  -26.0027  -30.7147   21.3867 C   0  0  0  0  0  0
  -26.0735  -29.3205   20.7346 C   0  0  0  0  0  0
  -27.2310  -28.4510   20.7398 C   0  0  0  0  0  0
  -26.0018  -26.7911   19.4970 C   0  0  0  0  0  0
  -24.8692  -27.6334   19.4877 C   0  0  0  0  0  0
  -23.6733  -29.7915   20.1567 C   0  0  0  0  0  0
  -25.4110  -36.3042   24.0313 C   0  0  1  0  0  0
  -20.5898  -28.3753   23.1220 C   0  0  2  0  0  0
  -20.6777  -26.9452   22.5399 C   0  0  0  0  0  0
  -19.5762  -26.6408   21.5191 C   0  0  0  0  0  0
  -18.1935  -26.7977   22.1586 C   0  0  0  0  0  0
  -19.1546  -28.8899   23.2846 C   0  0  0  0  0  0
  -18.9477  -30.1484   23.8894 C   0  0  0  0  0  0
  -17.6484  -30.6626   24.0555 C   0  0  0  0  0  0
  -25.9059  -34.9417   23.5066 C   0  0  0  0  0  0
  -16.5362  -29.9120   23.6365 C   0  0  0  0  0  0
  -16.7274  -28.6535   23.0387 C   0  0  0  0  0  0
  -26.4519  -31.6592   25.0722 C   0  0  0  0  0  0
  -25.3693  -31.3755   26.1403 C   0  0  0  0  0  0
  -27.0419  -30.3005   24.6307 C   0  0  0  0  0  0
  -27.6053  -32.4371   25.7519 C   0  0  0  0  0  0
  -27.5571  -37.1769   24.8461 C   0  0  0  0  0  0
  -21.4243  -29.3088   22.3594 N   0  0  0  0  0  0
  -26.4275  -37.3750   23.9411 N   0  0  0  0  0  0
  -24.7187  -31.0283   22.0926 N   0  0  0  0  0  0
  -23.4180  -28.8087   23.2981 O   0  0  0  0  0  0
  -28.2527  -26.1175   20.1960 O   0  0  0  0  0  0
  -26.5644  -34.8907   22.4647 O   0  0  0  0  0  0
  -23.5554  -32.1318   23.7096 O   0  0  0  0  0  0
  -29.5254  -20.4553   20.2128 C   0  0  0  0  0  0
  -28.7051  -21.6311   20.6360 C   0  0  0  0  0  0
  -29.3036  -19.0398   20.6470 C   0  0  0  0  0  0
  -27.6720  -21.2431   21.5304 C   0  0  0  0  0  0
  -28.2264  -18.9277   21.5516 C   0  0  0  0  0  0
  -30.6910  -20.7480   19.2837 C   0  0  0  0  0  0
  -26.6969  -22.2239   22.1520 C   0  0  0  0  0  0
  -27.8482  -17.6048   22.1967 C   0  0  0  0  0  0
  -28.9474  -23.2388   20.2121 C   0  0  0  0  0  0
  -30.1906  -17.6817   20.2494 C   0  0  0  0  0  0
  -27.9560  -24.6007   20.4613 C   0  0  0  0  0  0
  -27.4648  -19.9712   21.9487 N   0  0  0  0  0  0
  -29.8282  -16.1509   20.4769 N   0  0  0  0  0  0
  -31.4692  -12.7280   19.1702 H   0  0  0  0  0  0
  -30.4221  -11.6430   20.0418 H   0  0  0  0  0  0
  -29.8267  -11.7021   17.5940 H   0  0  0  0  0  0
  -29.5907  -13.4326   17.6733 H   0  0  0  0  0  0
  -27.9643  -11.2606   19.0243 H   0  0  0  0  0  0
  -27.3764  -12.3967   17.8373 H   0  0  0  0  0  0
  -27.5839  -14.2411   19.3852 H   0  0  0  0  0  0
  -28.7640  -12.3584   21.4894 H   0  0  0  0  0  0
  -28.3817  -14.0491   21.7161 H   0  0  0  0  0  0
  -25.2769   -9.5694   22.4784 H   0  0  0  0  0  0
  -24.0009   -7.4644   22.7478 H   0  0  0  0  0  0
  -21.0879   -8.8789   19.8925 H   0  0  0  0  0  0
  -22.3736  -10.9688   19.6166 H   0  0  0  0  0  0
  -21.2001   -7.6147   23.9709 H   0  0  0  0  0  0
  -21.1489   -6.0517   25.9075 H   0  0  0  0  0  0
  -22.0595   -2.7607   23.2830 H   0  0  0  0  0  0
  -22.4094  -11.9806   22.4782 H   0  0  0  0  0  0
  -21.1067  -13.1150   22.2675 H   0  0  0  0  0  0
  -24.6175  -15.8288   20.4918 H   0  0  0  0  0  0
  -26.2193  -15.6321   19.9958 H   0  0  0  0  0  0
  -26.7270  -32.5316   23.0994 H   0  0  0  0  0  0
  -25.0014  -33.9616   25.0297 H   0  0  0  0  0  0
  -22.7509  -31.2922   21.3793 H   0  0  0  0  0  0
  -23.3757  -35.9572   23.3273 H   0  0  0  0  0  0
  -24.3539  -36.8942   22.2065 H   0  0  0  0  0  0
  -23.7199  -37.6423   23.6726 H   0  0  0  0  0  0
  -26.1453  -31.4638   20.6060 H   0  0  0  0  0  0
  -26.8783  -30.7769   22.0213 H   0  0  0  0  0  0
  -28.1312  -28.7757   21.2426 H   0  0  0  0  0  0
  -25.9054  -25.8487   18.9801 H   0  0  0  0  0  0
  -23.9632  -27.2978   19.0021 H   0  0  0  0  0  0
  -23.8093  -30.5632   19.3989 H   0  0  0  0  0  0
  -22.7857  -29.2338   19.8513 H   0  0  0  0  0  0
  -25.1299  -36.1870   25.0805 H   0  0  0  0  0  0
  -20.9979  -28.3375   24.1339 H   0  0  0  0  0  0
  -20.5670  -26.2364   23.3618 H   0  0  0  0  0  0
  -21.6648  -26.7470   22.1194 H   0  0  0  0  0  0
  -19.6914  -25.6306   21.1264 H   0  0  0  0  0  0
  -19.6735  -27.3175   20.6689 H   0  0  0  0  0  0
  -17.4212  -26.6736   21.3979 H   0  0  0  0  0  0
  -18.0301  -26.0125   22.8978 H   0  0  0  0  0  0
  -19.7957  -30.7277   24.2282 H   0  0  0  0  0  0
  -17.5060  -31.6316   24.5155 H   0  0  0  0  0  0
  -15.5372  -30.3030   23.7733 H   0  0  0  0  0  0
  -15.8654  -28.0858   22.7142 H   0  0  0  0  0  0
  -24.5967  -30.7007   25.7712 H   0  0  0  0  0  0
  -24.8752  -32.2902   26.4691 H   0  0  0  0  0  0
  -25.7973  -30.9053   27.0266 H   0  0  0  0  0  0
  -26.3049  -29.6693   24.1331 H   0  0  0  0  0  0
  -27.4059  -29.7353   25.4890 H   0  0  0  0  0  0
  -27.8931  -30.4270   23.9614 H   0  0  0  0  0  0
  -27.2722  -33.3813   26.1853 H   0  0  0  0  0  0
  -28.4000  -32.6686   25.0412 H   0  0  0  0  0  0
  -28.0555  -31.8621   26.5618 H   0  0  0  0  0  0
  -28.2554  -38.0095   24.7540 H   0  0  0  0  0  0
  -28.1095  -36.2620   24.6272 H   0  0  0  0  0  0
  -27.2272  -37.1391   25.8851 H   0  0  0  0  0  0
  -20.9430  -29.8837   21.6810 H   0  0  0  0  0  0
  -26.0153  -38.2809   24.1454 H   0  0  0  0  0  0
  -30.3472  -20.7956   18.2506 H   0  0  0  0  0  0
  -31.4752  -19.9940   19.3541 H   0  0  0  0  0  0
  -31.1495  -21.7069   19.5287 H   0  0  0  0  0  0
  -27.2215  -22.9286   22.7959 H   0  0  0  0  0  0
  -25.9641  -21.7128   22.7790 H   0  0  0  0  0  0
  -26.1340  -22.7560   21.3884 H   0  0  0  0  0  0
  -28.7009  -17.1787   22.7278 H   0  0  0  0  0  0
  -27.5112  -16.8899   21.4472 H   0  0  0  0  0  0
  -27.0400  -17.7104   22.9200 H   0  0  0  0  0  0
  -29.1453  -23.2217   19.1405 H   0  0  0  0  0  0
  -29.9077  -23.4921   20.6588 H   0  0  0  0  0  0
  -31.1650  -17.8209   20.7232 H   0  0  0  0  0  0
  -30.3982  -17.7671   19.1804 H   0  0  0  0  0  0
  -27.7301  -24.6199   21.5244 H   0  0  0  0  0  0
  -27.0143  -24.3507   19.9784 H   0  0  0  0  0  0
  -28.8438  -15.9770   20.5890 H   0  0  0  0  0  0
  1 25  1  0  0  0
  1 30  2  0  0  0
  1 83  1  0  0  0
  2  3  1  0  0  0
  2 25  1  0  0  0
  2 84  1  0  0  0
  2 85  1  0  0  0
  3  4  1  0  0  0
  3 86  1  0  0  0
  3 87  1  0  0  0
  4  5  1  0  0  0
  4 88  1  0  0  0
  4 89  1  0  0  0
  5  6  1  0  0  0
  5 26  1  0  0  0
  5 90  1  0  0  0
  6 25  1  0  0  0
  6 91  1  0  0  0
  6 92  1  0  0  0
  7  8  2  0  0  0
  7 26  1  0  0  0
  7 29  1  0  0  0
  8  9  1  0  0  0
  8 22  1  0  0  0
  9 10  1  0  0  0
  9 27  2  0  0  0
 10 11  2  0  0  0
 10 15  1  0  0  0
 11 12  1  0  0  0
 11 93  1  0  0  0
 12 13  2  0  0  0
 12 94  1  0  0  0
 13 14  1  0  0  0
 13 31  1  0  0  0
 14 15  2  0  0  0
 14 95  1  0  0  0
 15 96  1  0  0  0
 16 17  2  0  0  0
 16 21  1  0  0  0
 16 31  1  0  0  0
 17 18  1  0  0  0
 17 97  1  0  0  0
 18 19  2  0  0  0
 18 98  1  0  0  0
 19 20  1  0  0  0
 19 24  1  0  0  0
 20 21  2  0  0  0
 20 99  1  0  0  0
 21 23  1  0  0  0
 22 28  1  0  0  0
 22 32  2  0  0  0
 26 27  1  0  0  0
 28100  1  0  0  0
 28101  1  0  0  0
 29102  1  0  0  0
 29103  1  0  0  0
 33 34  1  0  0  0
 33 66  1  0  0  0
 33 70  2  0  0  0
 34 36  1  0  0  0
 34 59  1  0  0  0
 34104  1  0  0  0
 35 44  2  0  0  0
 35 45  1  0  0  0
 35 68  1  0  0  0
 36 56  1  0  0  0
 36105  1  0  0  0
 37 39  1  0  0  0
 37 47  1  0  0  0
 37 66  1  0  0  0
 37106  1  0  0  0
 38 43  2  0  0  0
 38 46  1  0  0  0
 38 47  1  0  0  0
 39 64  1  0  0  0
 39 67  2  0  0  0
 40 52  1  0  0  0
 40 53  2  0  0  0
 40 58  1  0  0  0
 41107  1  0  0  0
 41108  1  0  0  0
 41109  1  0  0  0
 41 48  1  0  0  0
 42 43  1  0  0  0
 42 66  1  0  0  0
 42110  1  0  0  0
 42111  1  0  0  0
 43 44  1  0  0  0
 44112  1  0  0  0
 45 46  2  0  0  0
 45113  1  0  0  0
 46114  1  0  0  0
 47115  1  0  0  0
 47116  1  0  0  0
 48 56  1  0  0  0
 48 65  1  0  0  0
 48117  1  0  0  0
 49 50  1  0  0  0
 49 53  1  0  0  0
 49 64  1  0  0  0
 49118  1  0  0  0
 50 51  1  0  0  0
 50119  1  0  0  0
 50120  1  0  0  0
 51 52  1  0  0  0
 51121  1  0  0  0
 51122  1  0  0  0
 52123  1  0  0  0
 52124  1  0  0  0
 53 54  1  0  0  0
 54 55  2  0  0  0
 54125  1  0  0  0
 55 57  1  0  0  0
 55126  1  0  0  0
 56 69  2  0  0  0
 57 58  2  0  0  0
 57127  1  0  0  0
 58128  1  0  0  0
 59 60  1  0  0  0
 59 61  1  0  0  0
 59 62  1  0  0  0
 60129  1  0  0  0
 60130  1  0  0  0
 60131  1  0  0  0
 61132  1  0  0  0
 61133  1  0  0  0
 61134  1  0  0  0
 62135  1  0  0  0
 62136  1  0  0  0
 62137  1  0  0  0
 63 65  1  0  0  0
 63138  1  0  0  0
 63139  1  0  0  0
 63140  1  0  0  0
 64141  1  0  0  0
 65142  1  0  0  0
 68 81  1  0  0  0
 71 72  2  0  0  0
 71 73  1  0  0  0
 71 76  1  0  0  0
 72 74  1  0  0  0
 72 79  1  0  0  0
 73 75  2  0  0  0
 73 80  1  0  0  0
 74 77  1  0  0  0
 74 82  2  0  0  0
 75 78  1  0  0  0
 75 82  1  0  0  0
 76143  1  0  0  0
 76144  1  0  0  0
 76145  1  0  0  0
 77146  1  0  0  0
 77147  1  0  0  0
 77148  1  0  0  0
 78149  1  0  0  0
 78150  1  0  0  0
 78151  1  0  0  0
 79 81  1  0  0  0
 79152  1  0  0  0
 79153  1  0  0  0
 80 83  1  0  0  0
 80154  1  0  0  0
 80155  1  0  0  0
 81156  1  0  0  0
 81157  1  0  0  0
 83158  1  0  0  0
M  ISO  4   1 100  68 101  81 101  83 100
M  END
> <chiral flag>
0

> <version>
0

> <s_m_source_file>
/data/baiqing/PycharmProjects/Reinvent-master-3.2/result/LINK_invent/BTK/process_docking_weight1_custom_sum_contain_oxygen_bond_distance_aromatic_linkinvent_7_9_3/rearranged_h_0029.sdf

> <i_m_source_file_index>
20

> <r_mmod_Potential_Energy-OPLS-2005>
350.604095458984

> <r_mmod_Stretch_Energy-OPLS-2005>
285.612854003906

> <r_mmod_Bend_Energy-OPLS-2005>
260.602874755859

> <r_mmod_Torsional_Energy-OPLS-2005>
210.579055786133

> <r_mmod_Improper_Torsional_Energy-OPLS-2005>
5.74452304840088

> <r_mmod_Van_der_Waal_Energy-OPLS-2005>
136.520294189453

> <r_mmod_Electrostatic_Energy-OPLS-2005>
-523.74365234375

> <r_mmod_Solvation_Energy-OPLS-2005>
-226.056365966797

> <b_mmod_Minimization_Converged-OPLS-2005>
0

> <r_mmod_RMS_Derivative-OPLS-2005>
3.30436062812805

$$$$
20
                    3D
 Structure written by MMmdl.
179188  0  0  1  0            999 V2000
  -30.5590  -15.0552   20.3981 C   0  0  0  0  0  0
  -30.4217  -12.6664   19.5011 C   0  0  0  0  0  0
  -29.5117  -12.5437   18.2587 C   0  0  0  0  0  0
  -28.0545  -12.3138   18.6892 C   0  0  0  0  0  0
  -27.6180  -13.2665   19.8320 C   0  0  2  0  0  0
  -28.6633  -13.3712   20.9635 C   0  0  0  0  0  0
  -25.2422  -13.8263   20.5756 C   0  0  0  0  0  0
  -24.1752  -13.0451   20.9225 C   0  0  0  0  0  0
  -24.6391  -11.6945   20.8746 C   0  0  0  0  0  0
  -23.9079  -10.4300   21.0405 C   0  0  0  0  0  0
  -24.3619   -9.4211   21.9186 C   0  0  0  0  0  0
  -23.6290   -8.2251   22.0761 C   0  0  0  0  0  0
  -22.4279   -8.0276   21.3543 C   0  0  0  0  0  0
  -21.9908   -9.0249   20.4653 C   0  0  0  0  0  0
  -22.7239  -10.2132   20.3060 C   0  0  0  0  0  0
  -21.6857   -6.0717   22.5269 C   0  0  0  0  0  0
  -21.4026   -6.5630   23.8196 C   0  0  0  0  0  0
  -21.3661   -5.6791   24.9162 C   0  0  0  0  0  0
  -21.6044   -4.3049   24.7230 C   0  0  0  0  0  0
  -21.8820   -3.8132   23.4350 C   0  0  0  0  0  0
  -21.9195   -4.6944   22.3397 C   0  0  0  0  0  0
  -22.7777  -13.5204   21.1881 C   0  0  0  0  0  0
  -22.1661   -4.2118   21.0977 F   0  0  0  0  0  0
  -21.5626   -3.4540   25.7751 F   0  0  0  0  0  0
  -29.9147  -13.8079   20.3315 N   0  0  0  0  0  0
  -26.2848  -12.9519   20.3289 N   0  0  0  0  0  0
  -25.9339  -11.6626   20.5762 N   0  0  0  0  0  0
  -22.0436  -12.8176   22.0432 N   0  0  0  0  0  0
  -25.4110  -15.1993   20.4248 N   0  0  0  0  0  0
  -31.7714  -15.0057   20.1504 O   0  0  0  0  0  0
  -21.6649   -6.8859   21.4228 O   0  0  0  0  0  0
  -22.3445  -14.5501   20.6727 O   0  0  0  0  0  0
  -24.6523  -31.8364   23.1818 C   0  0  0  0  0  0
  -25.9266  -32.4638   23.8239 C   0  0  1  0  0  0
  -27.2049  -27.0445   20.1615 C   0  0  0  0  0  0
  -25.5983  -33.8449   24.2162 N   0  0  0  0  0  0
  -23.4596  -30.4516   21.5306 C   0  0  2  0  0  0
  -24.9045  -28.8638   20.1109 C   0  0  0  0  0  0
  -22.7595  -29.4493   22.4836 C   0  0  0  0  0  0
  -18.0302  -28.1367   22.8451 C   0  0  0  0  0  0
  -24.1494  -36.7239   23.2648 C   0  0  0  0  0  0
  -26.0183  -30.6777   21.3946 C   0  0  0  0  0  0
  -26.0872  -29.2805   20.7356 C   0  0  0  0  0  0
  -27.2371  -28.3906   20.7414 C   0  0  0  0  0  0
  -25.9923  -26.7503   19.4970 C   0  0  0  0  0  0
  -24.8725  -27.6136   19.4762 C   0  0  0  0  0  0
  -23.6908  -29.7827   20.1504 C   0  0  0  0  0  0
  -25.4115  -36.2996   24.0316 C   0  0  1  0  0  0
  -20.5897  -28.3721   23.1192 C   0  0  2  0  0  0
  -20.6778  -26.9406   22.5388 C   0  0  0  0  0  0
  -19.5766  -26.6356   21.5184 C   0  0  0  0  0  0
  -18.1947  -26.7894   22.1591 C   0  0  0  0  0  0
  -19.1557  -28.8855   23.2806 C   0  0  0  0  0  0
  -18.9486  -30.1435   23.8842 C   0  0  0  0  0  0
  -17.6498  -30.6575   24.0530 C   0  0  0  0  0  0
  -25.9075  -34.9375   23.5049 C   0  0  0  0  0  0
  -16.5384  -29.9056   23.6327 C   0  0  0  0  0  0
  -16.7293  -28.6471   23.0356 C   0  0  0  0  0  0
  -26.4549  -31.6538   25.0728 C   0  0  0  0  0  0
  -25.3718  -31.3745   26.1412 C   0  0  0  0  0  0
  -27.0432  -30.2923   24.6368 C   0  0  0  0  0  0
  -27.6024  -32.4356   25.7535 C   0  0  0  0  0  0
  -27.5571  -37.1759   24.8464 C   0  0  0  0  0  0
  -21.4277  -29.3054   22.3588 N   0  0  0  0  0  0
  -26.4273  -37.3725   23.9417 N   0  0  0  0  0  0
  -24.7304  -31.0112   22.0918 N   0  0  0  0  0  0
  -23.4171  -28.8025   23.3017 O   0  0  0  0  0  0
  -28.2333  -26.0056   20.2131 O   0  0  0  0  0  0
  -26.5680  -34.8908   22.4644 O   0  0  0  0  0  0
  -23.5618  -32.1291   23.6994 O   0  0  0  0  0  0
  -28.0021  -20.2587   26.5385 C   0  0  0  0  0  0
  -28.5028  -20.4566   25.2375 C   0  0  0  0  0  0
  -28.0812  -21.6080   24.5168 C   0  0  0  0  0  0
  -27.1738  -22.4896   25.1580 C   0  0  0  0  0  0
  -27.1073  -21.1891   27.0693 C   0  0  0  0  0  0
  -29.7935  -19.0097   19.3982 C   0  0  0  0  0  0
  -28.4365  -18.5202   21.2044 C   0  0  0  0  0  0
  -30.5354  -17.5501   19.6071 C   0  0  0  0  0  0
  -29.1405  -17.0596   21.4341 C   0  0  0  0  0  0
  -29.2236  -19.8225   20.6482 C   0  0  0  0  0  0
  -26.6658  -23.7624   24.5022 C   0  0  0  0  0  0
  -30.9283  -19.6994   25.1352 C   0  0  0  0  0  0
  -29.4871  -19.4309   24.6901 C   0  0  0  0  0  0
  -28.6188  -21.9225   23.1164 C   0  0  0  0  0  0
  -27.6705  -21.5251   21.9559 C   0  0  0  0  0  0
  -28.8945  -23.0067   20.2514 C   0  0  0  0  0  0
  -27.9087  -24.4416   20.2330 C   0  0  0  0  0  0
  -28.3876  -21.3755   20.5854 C   0  0  1  0  0  0
  -26.6985  -22.2777   26.4057 N   0  0  0  0  0  0
  -29.9006  -16.3581   20.3335 N   0  0  0  0  0  0
  -26.5928  -21.0292   28.3440 N   0  0  0  0  0  0
  -31.4550  -12.8074   19.1787 H   0  0  0  0  0  0
  -30.4206  -11.7394   20.0766 H   0  0  0  0  0  0
  -29.8499  -11.7273   17.6198 H   0  0  0  0  0  0
  -29.5803  -13.4535   17.6593 H   0  0  0  0  0  0
  -27.9756  -11.2789   19.0237 H   0  0  0  0  0  0
  -27.3834  -12.4103   17.8354 H   0  0  0  0  0  0
  -27.5567  -14.2531   19.3720 H   0  0  0  0  0  0
  -28.7882  -12.4232   21.4884 H   0  0  0  0  0  0
  -28.3463  -14.0972   21.7109 H   0  0  0  0  0  0
  -25.2756   -9.5696   22.4766 H   0  0  0  0  0  0
  -23.9987   -7.4655   22.7506 H   0  0  0  0  0  0
  -21.0823   -8.8768   19.8980 H   0  0  0  0  0  0
  -22.3673  -10.9667   19.6178 H   0  0  0  0  0  0
  -21.2033   -7.6146   23.9682 H   0  0  0  0  0  0
  -21.1481   -6.0533   25.9060 H   0  0  0  0  0  0
  -22.0601   -2.7593   23.2866 H   0  0  0  0  0  0
  -22.4076  -11.9825   22.4783 H   0  0  0  0  0  0
  -21.1076  -13.1215   22.2702 H   0  0  0  0  0  0
  -24.6490  -15.8561   20.5506 H   0  0  0  0  0  0
  -26.2754  -15.6431   20.1432 H   0  0  0  0  0  0
  -26.7319  -32.5209   23.0932 H   0  0  0  0  0  0
  -25.0085  -33.9541   25.0281 H   0  0  0  0  0  0
  -22.7686  -31.2802   21.3733 H   0  0  0  0  0  0
  -23.3770  -35.9558   23.3276 H   0  0  0  0  0  0
  -24.3586  -36.8926   22.2074 H   0  0  0  0  0  0
  -23.7234  -37.6407   23.6731 H   0  0  0  0  0  0
  -26.1827  -31.4265   20.6196 H   0  0  0  0  0  0
  -26.8846  -30.7269   22.0412 H   0  0  0  0  0  0
  -28.1344  -28.7055   21.2556 H   0  0  0  0  0  0
  -25.8664  -25.8026   18.9981 H   0  0  0  0  0  0
  -23.9703  -27.2871   18.9766 H   0  0  0  0  0  0
  -23.8473  -30.5615   19.4032 H   0  0  0  0  0  0
  -22.8006  -29.2393   19.8279 H   0  0  0  0  0  0
  -25.1287  -36.1811   25.0801 H   0  0  0  0  0  0
  -20.9974  -28.3340   24.1317 H   0  0  0  0  0  0
  -20.5654  -26.2336   23.3620 H   0  0  0  0  0  0
  -21.6650  -26.7395   22.1198 H   0  0  0  0  0  0
  -19.6962  -25.6256   21.1250 H   0  0  0  0  0  0
  -19.6719  -27.3124   20.6677 H   0  0  0  0  0  0
  -17.4212  -26.6614   21.4003 H   0  0  0  0  0  0
  -18.0350  -26.0027   22.8980 H   0  0  0  0  0  0
  -19.7987  -30.7210   24.2221 H   0  0  0  0  0  0
  -17.5082  -31.6259   24.5119 H   0  0  0  0  0  0
  -15.5381  -30.2948   23.7707 H   0  0  0  0  0  0
  -15.8680  -28.0778   22.7111 H   0  0  0  0  0  0
  -24.5911  -30.7071   25.7748 H   0  0  0  0  0  0
  -24.8884  -32.2925   26.4767 H   0  0  0  0  0  0
  -25.7987  -30.8981   27.0250 H   0  0  0  0  0  0
  -26.3068  -29.6610   24.1379 H   0  0  0  0  0  0
  -27.4003  -29.7253   25.4974 H   0  0  0  0  0  0
  -27.8997  -30.4125   23.9734 H   0  0  0  0  0  0
  -27.2563  -33.3702   26.1967 H   0  0  0  0  0  0
  -28.3892  -32.6857   25.0411 H   0  0  0  0  0  0
  -28.0625  -31.8598   26.5576 H   0  0  0  0  0  0
  -28.2517  -38.0123   24.7517 H   0  0  0  0  0  0
  -28.1127  -36.2627   24.6252 H   0  0  0  0  0  0
  -27.2290  -37.1337   25.8871 H   0  0  0  0  0  0
  -20.9513  -29.8824   21.6794 H   0  0  0  0  0  0
  -26.0138  -38.2783   24.1467 H   0  0  0  0  0  0
  -28.3092  -19.4005   27.1191 H   0  0  0  0  0  0
  -28.9737  -18.8620   18.6943 H   0  0  0  0  0  0
  -30.4887  -19.6628   18.8673 H   0  0  0  0  0  0
  -27.9887  -18.7483   22.1656 H   0  0  0  0  0  0
  -27.5743  -18.3592   20.5550 H   0  0  0  0  0  0
  -31.4839  -17.7445   20.1117 H   0  0  0  0  0  0
  -30.8191  -17.1871   18.6171 H   0  0  0  0  0  0
  -28.3650  -16.3760   21.7774 H   0  0  0  0  0  0
  -29.8300  -17.1535   22.2749 H   0  0  0  0  0  0
  -30.0747  -19.9772   21.3116 H   0  0  0  0  0  0
  -26.1792  -23.5447   23.5537 H   0  0  0  0  0  0
  -27.4778  -24.4702   24.3311 H   0  0  0  0  0  0
  -25.9296  -24.2595   25.1329 H   0  0  0  0  0  0
  -31.6038  -18.9402   24.7388 H   0  0  0  0  0  0
  -31.0155  -19.6839   26.2217 H   0  0  0  0  0  0
  -31.2732  -20.6724   24.7857 H   0  0  0  0  0  0
  -29.4505  -19.3924   23.6086 H   0  0  0  0  0  0
  -29.1801  -18.4376   25.0188 H   0  0  0  0  0  0
  -29.5922  -21.4563   22.9816 H   0  0  0  0  0  0
  -28.8419  -22.9886   23.0653 H   0  0  0  0  0  0
  -26.8692  -22.2546   21.8705 H   0  0  0  0  0  0
  -27.1296  -20.6174   22.2054 H   0  0  0  0  0  0
  -29.7114  -23.2210   20.9374 H   0  0  0  0  0  0
  -29.3882  -22.9732   19.2813 H   0  0  0  0  0  0
  -27.2511  -24.3513   21.0972 H   0  0  0  0  0  0
  -27.2583  -24.2709   19.3762 H   0  0  0  0  0  0
  -27.5986  -21.1987   19.8525 H   0  0  0  0  0  0
  -26.7690  -20.1863   28.8782 H   0  0  0  0  0  0
  -25.8611  -21.6337   28.6972 H   0  0  0  0  0  0
  1 25  1  0  0  0
  1 30  2  0  0  0
  1 90  1  0  0  0
  2  3  1  0  0  0
  2 25  1  0  0  0
  2 92  1  0  0  0
  2 93  1  0  0  0
  3  4  1  0  0  0
  3 94  1  0  0  0
  3 95  1  0  0  0
  4  5  1  0  0  0
  4 96  1  0  0  0
  4 97  1  0  0  0
  5  6  1  0  0  0
  5 26  1  0  0  0
  5 98  1  0  0  0
  6 25  1  0  0  0
  6 99  1  0  0  0
  6100  1  0  0  0
  7  8  2  0  0  0
  7 26  1  0  0  0
  7 29  1  0  0  0
  8  9  1  0  0  0
  8 22  1  0  0  0
  9 10  1  0  0  0
  9 27  2  0  0  0
 10 11  2  0  0  0
 10 15  1  0  0  0
 11 12  1  0  0  0
 11101  1  0  0  0
 12 13  2  0  0  0
 12102  1  0  0  0
 13 14  1  0  0  0
 13 31  1  0  0  0
 14 15  2  0  0  0
 14103  1  0  0  0
 15104  1  0  0  0
 16 17  2  0  0  0
 16 21  1  0  0  0
 16 31  1  0  0  0
 17 18  1  0  0  0
 17105  1  0  0  0
 18 19  2  0  0  0
 18106  1  0  0  0
 19 20  1  0  0  0
 19 24  1  0  0  0
 20 21  2  0  0  0
 20107  1  0  0  0
 21 23  1  0  0  0
 22 28  1  0  0  0
 22 32  2  0  0  0
 26 27  1  0  0  0
 28108  1  0  0  0
 28109  1  0  0  0
 29110  1  0  0  0
 29111  1  0  0  0
 33 34  1  0  0  0
 33 66  1  0  0  0
 33 70  2  0  0  0
 34 36  1  0  0  0
 34 59  1  0  0  0
 34112  1  0  0  0
 35 44  2  0  0  0
 35 45  1  0  0  0
 35 68  1  0  0  0
 36 56  1  0  0  0
 36113  1  0  0  0
 37 39  1  0  0  0
 37 47  1  0  0  0
 37 66  1  0  0  0
 37114  1  0  0  0
 38 43  2  0  0  0
 38 46  1  0  0  0
 38 47  1  0  0  0
 39 64  1  0  0  0
 39 67  2  0  0  0
 40 52  1  0  0  0
 40 53  2  0  0  0
 40 58  1  0  0  0
 41115  1  0  0  0
 41116  1  0  0  0
 41117  1  0  0  0
 41 48  1  0  0  0
 42 43  1  0  0  0
 42 66  1  0  0  0
 42118  1  0  0  0
 42119  1  0  0  0
 43 44  1  0  0  0
 44120  1  0  0  0
 45 46  2  0  0  0
 45121  1  0  0  0
 46122  1  0  0  0
 47123  1  0  0  0
 47124  1  0  0  0
 48 56  1  0  0  0
 48 65  1  0  0  0
 48125  1  0  0  0
 49 50  1  0  0  0
 49 53  1  0  0  0
 49 64  1  0  0  0
 49126  1  0  0  0
 50 51  1  0  0  0
 50127  1  0  0  0
 50128  1  0  0  0
 51 52  1  0  0  0
 51129  1  0  0  0
 51130  1  0  0  0
 52131  1  0  0  0
 52132  1  0  0  0
 53 54  1  0  0  0
 54 55  2  0  0  0
 54133  1  0  0  0
 55 57  1  0  0  0
 55134  1  0  0  0
 56 69  2  0  0  0
 57 58  2  0  0  0
 57135  1  0  0  0
 58136  1  0  0  0
 59 60  1  0  0  0
 59 61  1  0  0  0
 59 62  1  0  0  0
 60137  1  0  0  0
 60138  1  0  0  0
 60139  1  0  0  0
 61140  1  0  0  0
 61141  1  0  0  0
 61142  1  0  0  0
 62143  1  0  0  0
 62144  1  0  0  0
 62145  1  0  0  0
 63 65  1  0  0  0
 63146  1  0  0  0
 63147  1  0  0  0
 63148  1  0  0  0
 64149  1  0  0  0
 65150  1  0  0  0
 68 87  1  0  0  0
 71 72  2  0  0  0
 71 75  1  0  0  0
 71151  1  0  0  0
 72 73  1  0  0  0
 72 83  1  0  0  0
 73 74  2  0  0  0
 73 84  1  0  0  0
 74 81  1  0  0  0
 74 89  1  0  0  0
 75 89  2  0  0  0
 75 91  1  0  0  0
 76 78  1  0  0  0
 76152  1  0  0  0
 76153  1  0  0  0
 76 80  1  0  0  0
 77 79  1  0  0  0
 77 80  1  0  0  0
 77154  1  0  0  0
 77155  1  0  0  0
 78 90  1  0  0  0
 78156  1  0  0  0
 78157  1  0  0  0
 79 90  1  0  0  0
 79158  1  0  0  0
 79159  1  0  0  0
 80 88  1  0  0  0
 80160  1  0  0  0
 81161  1  0  0  0
 81162  1  0  0  0
 81163  1  0  0  0
 82 83  1  0  0  0
 82164  1  0  0  0
 82165  1  0  0  0
 82166  1  0  0  0
 83167  1  0  0  0
 83168  1  0  0  0
 84 85  1  0  0  0
 84169  1  0  0  0
 84170  1  0  0  0
 85171  1  0  0  0
 85172  1  0  0  0
 85 88  1  0  0  0
 86 87  1  0  0  0
 86 88  1  0  0  0
 86173  1  0  0  0
 86174  1  0  0  0
 87175  1  0  0  0
 87176  1  0  0  0
 88177  1  0  0  0
 91178  1  0  0  0
 91179  1  0  0  0
M  ISO  4   1 100  68 101  87 101  90 100
M  END
> <chiral flag>
0

> <version>
0

> <s_m_source_file>
/data/baiqing/PycharmProjects/Reinvent-master-3.2/result/LINK_invent/BTK/process_docking_weight1_custom_sum_contain_oxygen_bond_distance_aromatic_linkinvent_7_9_3/rearranged_h_0029.sdf

> <i_m_source_file_index>
21

> <r_mmod_Potential_Energy-OPLS-2005>
764.669860839844

> <r_mmod_Stretch_Energy-OPLS-2005>
385.482147216797

> <r_mmod_Bend_Energy-OPLS-2005>
407.668640136719

> <r_mmod_Torsional_Energy-OPLS-2005>
333.977508544922

> <r_mmod_Improper_Torsional_Energy-OPLS-2005>
15.1914186477661

> <r_mmod_Van_der_Waal_Energy-OPLS-2005>
140.069717407227

> <r_mmod_Electrostatic_Energy-OPLS-2005>
-572.882690429688

> <r_mmod_Solvation_Energy-OPLS-2005>
-221.311111450195

> <b_mmod_Minimization_Converged-OPLS-2005>
0

> <r_mmod_RMS_Derivative-OPLS-2005>
3.06114363670349

$$$$
21
                    3D
 Structure written by MMmdl.
170179  0  0  1  0            999 V2000
  -30.6536  -14.6229   20.5126 C   0  0  0  0  0  0
  -30.4335  -12.3864   19.4535 C   0  0  0  0  0  0
  -29.5044  -12.5012   18.2253 C   0  0  0  0  0  0
  -28.0281  -12.3422   18.6388 C   0  0  0  0  0  0
  -27.6528  -13.2186   19.8635 C   0  0  2  0  0  0
  -28.6984  -13.0842   20.9933 C   0  0  0  0  0  0
  -25.2560  -13.8180   20.5696 C   0  0  0  0  0  0
  -24.1826  -13.0443   20.9197 C   0  0  0  0  0  0
  -24.6397  -11.6913   20.8746 C   0  0  0  0  0  0
  -23.9064  -10.4295   21.0408 C   0  0  0  0  0  0
  -24.3614   -9.4211   21.9187 C   0  0  0  0  0  0
  -23.6293   -8.2243   22.0750 C   0  0  0  0  0  0
  -22.4277   -8.0280   21.3536 C   0  0  0  0  0  0
  -21.9912   -9.0253   20.4638 C   0  0  0  0  0  0
  -22.7236  -10.2137   20.3054 C   0  0  0  0  0  0
  -21.6853   -6.0734   22.5276 C   0  0  0  0  0  0
  -21.4014   -6.5635   23.8209 C   0  0  0  0  0  0
  -21.3660   -5.6790   24.9169 C   0  0  0  0  0  0
  -21.6046   -4.3053   24.7222 C   0  0  0  0  0  0
  -21.8819   -3.8147   23.4341 C   0  0  0  0  0  0
  -21.9194   -4.6964   22.3396 C   0  0  0  0  0  0
  -22.7847  -13.5235   21.1860 C   0  0  0  0  0  0
  -22.1663   -4.2151   21.0975 F   0  0  0  0  0  0
  -21.5632   -3.4539   25.7735 F   0  0  0  0  0  0
  -30.0135  -13.4151   20.4255 N   0  0  0  0  0  0
  -26.2991  -12.9364   20.3338 N   0  0  0  0  0  0
  -25.9331  -11.6519   20.5778 N   0  0  0  0  0  0
  -22.0490  -12.8213   22.0407 N   0  0  0  0  0  0
  -25.4267  -15.1899   20.4093 N   0  0  0  0  0  0
  -31.8169  -14.7615   20.1278 O   0  0  0  0  0  0
  -21.6639   -6.8878   21.4236 O   0  0  0  0  0  0
  -22.3531  -14.5546   20.6720 O   0  0  0  0  0  0
  -24.6277  -31.8606   23.2048 C   0  0  0  0  0  0
  -25.9130  -32.4777   23.8371 C   0  0  1  0  0  0
  -27.2188  -27.3186   20.1091 C   0  0  0  0  0  0
  -25.5944  -33.8576   24.2295 N   0  0  0  0  0  0
  -23.4201  -30.4880   21.5475 C   0  0  2  0  0  0
  -24.8654  -28.9502   20.1103 C   0  0  0  0  0  0
  -22.7482  -29.4636   22.4936 C   0  0  0  0  0  0
  -18.0290  -28.1382   22.8484 C   0  0  0  0  0  0
  -24.1493  -36.7290   23.2638 C   0  0  0  0  0  0
  -25.9642  -30.7914   21.3781 C   0  0  0  0  0  0
  -26.0370  -29.4216   20.7161 C   0  0  0  0  0  0
  -27.2175  -28.6181   20.7062 C   0  0  0  0  0  0
  -26.0202  -26.9093   19.4742 C   0  0  0  0  0  0
  -24.8597  -27.6999   19.4811 C   0  0  0  0  0  0
  -23.6335  -29.8292   20.1614 C   0  0  0  0  0  0
  -25.4115  -36.3074   24.0330 C   0  0  1  0  0  0
  -20.5893  -28.3687   23.1283 C   0  0  2  0  0  0
  -20.6782  -26.9406   22.5405 C   0  0  0  0  0  0
  -19.5752  -26.6377   21.5214 C   0  0  0  0  0  0
  -18.1928  -26.7927   22.1619 C   0  0  0  0  0  0
  -19.1542  -28.8854   23.2877 C   0  0  0  0  0  0
  -18.9464  -30.1462   23.8885 C   0  0  0  0  0  0
  -17.6460  -30.6582   24.0567 C   0  0  0  0  0  0
  -25.9055  -34.9443   23.5108 C   0  0  0  0  0  0
  -16.5355  -29.9074   23.6340 C   0  0  0  0  0  0
  -16.7275  -28.6502   23.0346 C   0  0  0  0  0  0
  -26.4508  -31.6585   25.0743 C   0  0  0  0  0  0
  -25.3733  -31.3701   26.1459 C   0  0  0  0  0  0
  -27.0368  -30.3013   24.6203 C   0  0  0  0  0  0
  -27.6068  -32.4322   25.7503 C   0  0  0  0  0  0
  -27.5581  -37.1797   24.8464 C   0  0  0  0  0  0
  -21.4194  -29.3048   22.3684 N   0  0  0  0  0  0
  -26.4291  -37.3769   23.9411 N   0  0  0  0  0  0
  -24.6897  -31.0624   22.1003 N   0  0  0  0  0  0
  -23.4208  -28.8154   23.2994 O   0  0  0  0  0  0
  -28.3248  -26.4487   20.1636 O   0  0  0  0  0  0
  -26.5608  -34.8911   22.4664 O   0  0  0  0  0  0
  -23.5447  -32.1398   23.7384 O   0  0  0  0  0  0
  -29.0903  -19.6997   24.3002 C   0  0  0  0  0  0
  -29.3608  -20.3147   23.0705 C   0  0  0  0  0  0
  -29.8179  -18.0935   22.0495 C   0  0  0  0  0  0
  -29.6364  -17.5222   23.3566 C   0  0  0  0  0  0
  -29.6531  -19.5419   21.9174 C   0  0  0  0  0  0
  -29.2225  -18.3204   24.4418 C   0  0  0  0  0  0
  -29.4121  -21.8357   23.0555 C   0  0  0  0  0  0
  -28.2415  -22.4780   22.3108 C   0  0  0  0  0  0
  -28.7828  -21.0182   20.1840 C   0  0  2  0  0  0
  -29.9241  -16.0627   23.6974 C   0  0  0  0  0  0
  -29.1044  -20.0323   17.8764 C   0  0  0  0  0  0
  -30.2615  -17.1684   20.8577 C   0  0  0  0  0  0
  -29.1036  -21.3266   18.7057 C   0  0  0  0  0  0
  -29.0993  -23.8563   20.4047 C   0  0  0  0  0  0
  -28.0262  -24.9949   20.0969 C   0  0  0  0  0  0
  -29.8946  -15.7043   20.8622 N   0  0  0  0  0  0
  -28.4597  -22.5356   20.8486 N   0  3  2  0  0  0
  -29.8799  -20.2860   20.7589 O   0  0  0  0  0  0
  -28.9975  -17.7724   25.6605 F   0  0  0  0  0  0
  -31.4755  -12.5022   19.1496 H   0  0  0  0  0  0
  -30.3630  -11.3941   19.9013 H   0  0  0  0  0  0
  -29.7666  -11.7470   17.4822 H   0  0  0  0  0  0
  -29.6477  -13.4692   17.7426 H   0  0  0  0  0  0
  -27.8642  -11.2897   18.8744 H   0  0  0  0  0  0
  -27.3728  -12.5689   17.7968 H   0  0  0  0  0  0
  -27.6696  -14.2520   19.5173 H   0  0  0  0  0  0
  -28.7081  -12.0681   21.3909 H   0  0  0  0  0  0
  -28.4464  -13.7301   21.8344 H   0  0  0  0  0  0
  -25.2757   -9.5693   22.4766 H   0  0  0  0  0  0
  -24.0005   -7.4636   22.7469 H   0  0  0  0  0  0
  -21.0849   -8.8772   19.8940 H   0  0  0  0  0  0
  -22.3697  -10.9677   19.6164 H   0  0  0  0  0  0
  -21.2001   -7.6145   23.9715 H   0  0  0  0  0  0
  -21.1486   -6.0517   25.9073 H   0  0  0  0  0  0
  -22.0599   -2.7612   23.2840 H   0  0  0  0  0  0
  -22.4103  -11.9861   22.4772 H   0  0  0  0  0  0
  -21.1106  -13.1223   22.2621 H   0  0  0  0  0  0
  -24.6580  -15.8431   20.5140 H   0  0  0  0  0  0
  -26.2720  -15.6274   20.0658 H   0  0  0  0  0  0
  -26.7196  -32.5440   23.1114 H   0  0  0  0  0  0
  -25.0120  -33.9724   25.0461 H   0  0  0  0  0  0
  -22.7139  -31.3091   21.4070 H   0  0  0  0  0  0
  -23.3757  -35.9619   23.3286 H   0  0  0  0  0  0
  -24.3587  -36.8925   22.2054 H   0  0  0  0  0  0
  -23.7245  -37.6488   23.6672 H   0  0  0  0  0  0
  -26.1007  -31.5575   20.6137 H   0  0  0  0  0  0
  -26.8438  -30.8350   22.0087 H   0  0  0  0  0  0
  -28.1136  -28.9743   21.1946 H   0  0  0  0  0  0
  -25.9329  -25.9620   18.9659 H   0  0  0  0  0  0
  -23.9633  -27.3361   18.9978 H   0  0  0  0  0  0
  -23.7485  -30.6079   19.4064 H   0  0  0  0  0  0
  -22.7541  -29.2579   19.8596 H   0  0  0  0  0  0
  -25.1293  -36.1919   25.0820 H   0  0  0  0  0  0
  -20.9991  -28.3252   24.1402 H   0  0  0  0  0  0
  -20.5695  -26.2283   23.3598 H   0  0  0  0  0  0
  -21.6646  -26.7436   22.1185 H   0  0  0  0  0  0
  -19.6913  -25.6290   21.1231 H   0  0  0  0  0  0
  -19.6696  -27.3200   20.6753 H   0  0  0  0  0  0
  -17.4202  -26.6693   21.4012 H   0  0  0  0  0  0
  -18.0320  -26.0059   22.9008 H   0  0  0  0  0  0
  -19.7938  -30.7293   24.2226 H   0  0  0  0  0  0
  -17.5008  -31.6258   24.5174 H   0  0  0  0  0  0
  -15.5354  -30.2965   23.7675 H   0  0  0  0  0  0
  -15.8676  -28.0824   22.7051 H   0  0  0  0  0  0
  -24.5938  -30.7017   25.7782 H   0  0  0  0  0  0
  -24.8893  -32.2858   26.4873 H   0  0  0  0  0  0
  -25.8061  -30.8890   27.0240 H   0  0  0  0  0  0
  -26.2960  -29.6737   24.1241 H   0  0  0  0  0  0
  -27.4090  -29.7290   25.4710 H   0  0  0  0  0  0
  -27.8806  -30.4310   23.9421 H   0  0  0  0  0  0
  -27.2702  -33.3647   26.2044 H   0  0  0  0  0  0
  -28.3892  -32.6841   25.0331 H   0  0  0  0  0  0
  -28.0717  -31.8465   26.5441 H   0  0  0  0  0  0
  -28.2577  -38.0114   24.7531 H   0  0  0  0  0  0
  -28.1098  -36.2645   24.6262 H   0  0  0  0  0  0
  -27.2299  -37.1414   25.8866 H   0  0  0  0  0  0
  -20.9366  -29.8779   21.6904 H   0  0  0  0  0  0
  -26.0166  -38.2840   24.1416 H   0  0  0  0  0  0
  -28.8357  -20.2879   25.1700 H   0  0  0  0  0  0
  -30.3647  -22.1630   22.6370 H   0  0  0  0  0  0
  -29.4139  -22.2024   24.0829 H   0  0  0  0  0  0
  -28.0771  -23.4861   22.6939 H   0  0  0  0  0  0
  -27.3235  -21.9298   22.5248 H   0  0  0  0  0  0
  -27.8733  -20.4192   20.2749 H   0  0  0  0  0  0
  -30.8713  -15.7372   23.2695 H   0  0  0  0  0  0
  -29.1175  -15.4164   23.3555 H   0  0  0  0  0  0
  -30.0209  -15.8978   24.7701 H   0  0  0  0  0  0
  -29.3650  -20.2388   16.8377 H   0  0  0  0  0  0
  -28.1242  -19.5531   17.8795 H   0  0  0  0  0  0
  -29.8305  -19.3129   18.2562 H   0  0  0  0  0  0
  -31.3453  -17.2630   20.7750 H   0  0  0  0  0  0
  -29.8604  -17.5951   19.9383 H   0  0  0  0  0  0
  -30.0850  -21.7959   18.6378 H   0  0  0  0  0  0
  -28.3586  -22.0129   18.3002 H   0  0  0  0  0  0
  -29.7696  -24.2014   21.1919 H   0  0  0  0  0  0
  -29.7378  -23.7381   19.5329 H   0  0  0  0  0  0
  -27.1872  -24.8282   20.7745 H   0  0  0  0  0  0
  -27.6586  -24.7740   19.0948 H   0  0  0  0  0  0
  -28.9397  -15.4981   21.1085 H   0  0  0  0  0  0
  -27.5167  -22.7144   20.5328 H   0  0  0  0  0  0
  1 25  1  0  0  0
  1 30  2  0  0  0
  1 86  1  0  0  0
  2  3  1  0  0  0
  2 25  1  0  0  0
  2 90  1  0  0  0
  2 91  1  0  0  0
  3  4  1  0  0  0
  3 92  1  0  0  0
  3 93  1  0  0  0
  4  5  1  0  0  0
  4 94  1  0  0  0
  4 95  1  0  0  0
  5  6  1  0  0  0
  5 26  1  0  0  0
  5 96  1  0  0  0
  6 25  1  0  0  0
  6 97  1  0  0  0
  6 98  1  0  0  0
  7  8  2  0  0  0
  7 26  1  0  0  0
  7 29  1  0  0  0
  8  9  1  0  0  0
  8 22  1  0  0  0
  9 10  1  0  0  0
  9 27  2  0  0  0
 10 11  2  0  0  0
 10 15  1  0  0  0
 11 12  1  0  0  0
 11 99  1  0  0  0
 12 13  2  0  0  0
 12100  1  0  0  0
 13 14  1  0  0  0
 13 31  1  0  0  0
 14 15  2  0  0  0
 14101  1  0  0  0
 15102  1  0  0  0
 16 17  2  0  0  0
 16 21  1  0  0  0
 16 31  1  0  0  0
 17 18  1  0  0  0
 17103  1  0  0  0
 18 19  2  0  0  0
 18104  1  0  0  0
 19 20  1  0  0  0
 19 24  1  0  0  0
 20 21  2  0  0  0
 20105  1  0  0  0
 21 23  1  0  0  0
 22 28  1  0  0  0
 22 32  2  0  0  0
 26 27  1  0  0  0
 28106  1  0  0  0
 28107  1  0  0  0
 29108  1  0  0  0
 29109  1  0  0  0
 33 34  1  0  0  0
 33 66  1  0  0  0
 33 70  2  0  0  0
 34 36  1  0  0  0
 34 59  1  0  0  0
 34110  1  0  0  0
 35 44  2  0  0  0
 35 45  1  0  0  0
 35 68  1  0  0  0
 36 56  1  0  0  0
 36111  1  0  0  0
 37 39  1  0  0  0
 37 47  1  0  0  0
 37 66  1  0  0  0
 37112  1  0  0  0
 38 43  2  0  0  0
 38 46  1  0  0  0
 38 47  1  0  0  0
 39 64  1  0  0  0
 39 67  2  0  0  0
 40 52  1  0  0  0
 40 53  2  0  0  0
 40 58  1  0  0  0
 41113  1  0  0  0
 41114  1  0  0  0
 41115  1  0  0  0
 41 48  1  0  0  0
 42 43  1  0  0  0
 42 66  1  0  0  0
 42116  1  0  0  0
 42117  1  0  0  0
 43 44  1  0  0  0
 44118  1  0  0  0
 45 46  2  0  0  0
 45119  1  0  0  0
 46120  1  0  0  0
 47121  1  0  0  0
 47122  1  0  0  0
 48 56  1  0  0  0
 48 65  1  0  0  0
 48123  1  0  0  0
 49 50  1  0  0  0
 49 53  1  0  0  0
 49 64  1  0  0  0
 49124  1  0  0  0
 50 51  1  0  0  0
 50125  1  0  0  0
 50126  1  0  0  0
 51 52  1  0  0  0
 51127  1  0  0  0
 51128  1  0  0  0
 52129  1  0  0  0
 52130  1  0  0  0
 53 54  1  0  0  0
 54 55  2  0  0  0
 54131  1  0  0  0
 55 57  1  0  0  0
 55132  1  0  0  0
 56 69  2  0  0  0
 57 58  2  0  0  0
 57133  1  0  0  0
 58134  1  0  0  0
 59 60  1  0  0  0
 59 61  1  0  0  0
 59 62  1  0  0  0
 60135  1  0  0  0
 60136  1  0  0  0
 60137  1  0  0  0
 61138  1  0  0  0
 61139  1  0  0  0
 61140  1  0  0  0
 62141  1  0  0  0
 62142  1  0  0  0
 62143  1  0  0  0
 63 65  1  0  0  0
 63144  1  0  0  0
 63145  1  0  0  0
 63146  1  0  0  0
 64147  1  0  0  0
 65148  1  0  0  0
 68 85  1  0  0  0
 71 72  2  0  0  0
 71 76  1  0  0  0
 71149  1  0  0  0
 72 75  1  0  0  0
 72 77  1  0  0  0
 73 74  1  0  0  0
 73 75  2  0  0  0
 73 82  1  0  0  0
 74 76  2  0  0  0
 74 80  1  0  0  0
 75 88  1  0  0  0
 76 89  1  0  0  0
 77 78  1  0  0  0
 77150  1  0  0  0
 77151  1  0  0  0
 78 87  1  0  0  0
 78152  1  0  0  0
 78153  1  0  0  0
 79 83  1  0  0  0
 79 87  1  0  0  0
 79 88  1  0  0  0
 79154  1  0  0  0
 80155  1  0  0  0
 80156  1  0  0  0
 80157  1  0  0  0
 81 83  1  0  0  0
 81158  1  0  0  0
 81159  1  0  0  0
 81160  1  0  0  0
 82 86  1  0  0  0
 82161  1  0  0  0
 82162  1  0  0  0
 83163  1  0  0  0
 83164  1  0  0  0
 84 85  1  0  0  0
 84165  1  0  0  0
 84166  1  0  0  0
 84 87  1  0  0  0
 85167  1  0  0  0
 85168  1  0  0  0
 86169  1  0  0  0
 87170  1  0  0  0
M  CHG  1  87   1
M  ISO  4   1 100  68 101  85 101  86 100
M  END
> <chiral flag>
0

> <version>
0

> <s_m_source_file>
/data/baiqing/PycharmProjects/Reinvent-master-3.2/result/LINK_invent/BTK/process_docking_weight1_custom_sum_contain_oxygen_bond_distance_aromatic_linkinvent_7_9_3/rearranged_h_0029.sdf

> <i_m_source_file_index>
22

> <r_mmod_Potential_Energy-OPLS-2005>
-10.8998603820801

> <r_mmod_Stretch_Energy-OPLS-2005>
98.8970718383789

> <r_mmod_Bend_Energy-OPLS-2005>
183.241943359375

> <r_mmod_Torsional_Energy-OPLS-2005>
274.887054443359

> <r_mmod_Improper_Torsional_Energy-OPLS-2005>
4.95689964294434

> <r_mmod_Van_der_Waal_Energy-OPLS-2005>
160.657012939453

> <r_mmod_Electrostatic_Energy-OPLS-2005>
-329.864929199219

> <r_mmod_Solvation_Energy-OPLS-2005>
-451.397003173828

> <b_mmod_Minimization_Converged-OPLS-2005>
0

> <r_mmod_RMS_Derivative-OPLS-2005>
1.12187719345093

$$$$
22
                    3D
 Structure written by MMmdl.
150158  0  0  1  0            999 V2000
  -30.4344  -15.1839   20.3815 C   0  0  0  0  0  0
  -30.4489  -12.7489   19.5144 C   0  0  0  0  0  0
  -29.5345  -12.5653   18.2766 C   0  0  0  0  0  0
  -28.0775  -12.3042   18.7015 C   0  0  0  0  0  0
  -27.6191  -13.2640   19.8279 C   0  0  2  0  0  0
  -28.6576  -13.3836   20.9632 C   0  0  0  0  0  0
  -25.2418  -13.8229   20.5725 C   0  0  0  0  0  0
  -24.1760  -13.0433   20.9249 C   0  0  0  0  0  0
  -24.6401  -11.6926   20.8760 C   0  0  0  0  0  0
  -23.9090  -10.4290   21.0407 C   0  0  0  0  0  0
  -24.3634   -9.4204   21.9185 C   0  0  0  0  0  0
  -23.6301   -8.2243   22.0755 C   0  0  0  0  0  0
  -22.4283   -8.0283   21.3544 C   0  0  0  0  0  0
  -21.9925   -9.0258   20.4647 C   0  0  0  0  0  0
  -22.7261  -10.2134   20.3055 C   0  0  0  0  0  0
  -21.6856   -6.0737   22.5279 C   0  0  0  0  0  0
  -21.4017   -6.5641   23.8212 C   0  0  0  0  0  0
  -21.3660   -5.6793   24.9175 C   0  0  0  0  0  0
  -21.6043   -4.3055   24.7226 C   0  0  0  0  0  0
  -21.8819   -3.8148   23.4347 C   0  0  0  0  0  0
  -21.9194   -4.6965   22.3403 C   0  0  0  0  0  0
  -22.7778  -13.5191   21.1898 C   0  0  0  0  0  0
  -22.1661   -4.2150   21.0980 F   0  0  0  0  0  0
  -21.5628   -3.4539   25.7738 F   0  0  0  0  0  0
  -29.9009  -13.8729   20.3474 N   0  0  0  0  0  0
  -26.2846  -12.9486   20.3217 N   0  0  0  0  0  0
  -25.9336  -11.6603   20.5725 N   0  0  0  0  0  0
  -22.0433  -12.8174   22.0453 N   0  0  0  0  0  0
  -25.4036  -15.1965   20.4139 N   0  0  0  0  0  0
  -31.6522  -15.2422   20.1611 O   0  0  0  0  0  0
  -21.6642   -6.8882   21.4241 O   0  0  0  0  0  0
  -22.3457  -14.5493   20.6739 O   0  0  0  0  0  0
  -24.6583  -31.8281   23.1741 C   0  0  0  0  0  0
  -25.9285  -32.4611   23.8188 C   0  0  1  0  0  0
  -27.2209  -26.9777   20.1790 C   0  0  0  0  0  0
  -25.5968  -33.8422   24.2095 N   0  0  0  0  0  0
  -23.4704  -30.4409   21.5227 C   0  0  2  0  0  0
  -24.9228  -28.8351   20.1144 C   0  0  0  0  0  0
  -22.7643  -29.4464   22.4803 C   0  0  0  0  0  0
  -18.0317  -28.1405   22.8468 C   0  0  0  0  0  0
  -24.1494  -36.7218   23.2646 C   0  0  0  0  0  0
  -26.0365  -30.6520   21.3955 C   0  0  0  0  0  0
  -26.1060  -29.2461   20.7407 C   0  0  0  0  0  0
  -27.2524  -28.3389   20.7458 C   0  0  0  0  0  0
  -26.0066  -26.7037   19.5115 C   0  0  0  0  0  0
  -24.8951  -27.5827   19.4804 C   0  0  0  0  0  0
  -23.7071  -29.7577   20.1483 C   0  0  0  0  0  0
  -25.4132  -36.2980   24.0302 C   0  0  1  0  0  0
  -20.5938  -28.3744   23.1199 C   0  0  2  0  0  0
  -20.6796  -26.9430   22.5402 C   0  0  0  0  0  0
  -19.5769  -26.6377   21.5213 C   0  0  0  0  0  0
  -18.1950  -26.7939   22.1621 C   0  0  0  0  0  0
  -19.1577  -28.8895   23.2821 C   0  0  0  0  0  0
  -18.9490  -30.1487   23.8853 C   0  0  0  0  0  0
  -17.6484  -30.6596   24.0555 C   0  0  0  0  0  0
  -25.9093  -34.9361   23.5018 C   0  0  0  0  0  0
  -16.5374  -29.9085   23.6341 C   0  0  0  0  0  0
  -16.7299  -28.6506   23.0358 C   0  0  0  0  0  0
  -26.4553  -31.6540   25.0697 C   0  0  0  0  0  0
  -25.3692  -31.3777   26.1362 C   0  0  0  0  0  0
  -27.0446  -30.2913   24.6396 C   0  0  0  0  0  0
  -27.6048  -32.4345   25.7498 C   0  0  0  0  0  0
  -27.5571  -37.1765   24.8465 C   0  0  0  0  0  0
  -21.4317  -29.3043   22.3555 N   0  0  0  0  0  0
  -26.4281  -37.3710   23.9408 N   0  0  0  0  0  0
  -24.7428  -30.9993   22.0849 N   0  0  0  0  0  0
  -23.4214  -28.8029   23.3023 O   0  0  0  0  0  0
  -28.2492  -25.9138   20.2328 O   0  0  0  0  0  0
  -26.5701  -34.8890   22.4612 O   0  0  0  0  0  0
  -23.5666  -32.1228   23.6867 O   0  0  0  0  0  0
  -28.7275  -20.2391   19.3184 C   0  0  0  0  0  0
  -28.9151  -18.7644   19.3345 C   0  0  0  0  0  0
  -29.1193  -21.2010   20.3354 C   0  0  0  0  0  0
  -29.5772  -17.9723   20.3669 C   0  0  0  0  0  0
  -29.7593  -20.3994   21.3817 C   0  0  0  0  0  0
  -29.9629  -18.9198   21.4018 C   0  0  0  0  0  0
  -28.3608  -17.9915   18.1514 C   0  0  0  0  0  0
  -29.1500  -22.9410   20.2194 C   0  0  0  0  0  0
  -28.0096  -24.2975   20.2306 C   0  0  0  0  0  0
  -29.5735  -16.3682   20.4456 N   0  0  0  0  0  0
  -30.3589  -21.2848   22.7443 Cl  0  0  0  0  0  0
  -30.7022  -18.2201   22.8026 Cl  0  0  0  0  0  0
  -31.4684  -12.9571   19.1866 H   0  0  0  0  0  0
  -30.5076  -11.8272   20.0957 H   0  0  0  0  0  0
  -29.8967  -11.7467   17.6531 H   0  0  0  0  0  0
  -29.5771  -13.4638   17.6591 H   0  0  0  0  0  0
  -28.0168  -11.2735   19.0533 H   0  0  0  0  0  0
  -27.4095  -12.3737   17.8422 H   0  0  0  0  0  0
  -27.5503  -14.2434   19.3536 H   0  0  0  0  0  0
  -28.8050  -12.4293   21.4712 H   0  0  0  0  0  0
  -28.3148  -14.0893   21.7216 H   0  0  0  0  0  0
  -25.2776   -9.5679   22.4765 H   0  0  0  0  0  0
  -24.0007   -7.4635   22.7476 H   0  0  0  0  0  0
  -21.0856   -8.8783   19.8952 H   0  0  0  0  0  0
  -22.3720  -10.9675   19.6167 H   0  0  0  0  0  0
  -21.2010   -7.6149   23.9716 H   0  0  0  0  0  0
  -21.1481   -6.0523   25.9077 H   0  0  0  0  0  0
  -22.0597   -2.7610   23.2847 H   0  0  0  0  0  0
  -22.4063  -11.9843   22.4843 H   0  0  0  0  0  0
  -21.1046  -13.1185   22.2656 H   0  0  0  0  0  0
  -24.6262  -15.8389   20.5232 H   0  0  0  0  0  0
  -26.2300  -15.6404   20.0391 H   0  0  0  0  0  0
  -26.7352  -32.5166   23.0905 H   0  0  0  0  0  0
  -25.0064  -33.9507   25.0210 H   0  0  0  0  0  0
  -22.7808  -31.2707   21.3548 H   0  0  0  0  0  0
  -23.3764  -35.9541   23.3282 H   0  0  0  0  0  0
  -24.3571  -36.8889   22.2065 H   0  0  0  0  0  0
  -23.7243  -37.6396   23.6719 H   0  0  0  0  0  0
  -26.2094  -31.3966   20.6171 H   0  0  0  0  0  0
  -26.8993  -30.7084   22.0473 H   0  0  0  0  0  0
  -28.1525  -28.6541   21.2549 H   0  0  0  0  0  0
  -25.8858  -25.7489   19.0221 H   0  0  0  0  0  0
  -23.9950  -27.2617   18.9742 H   0  0  0  0  0  0
  -23.8588  -30.5264   19.3897 H   0  0  0  0  0  0
  -22.8181  -29.2089   19.8324 H   0  0  0  0  0  0
  -25.1329  -36.1780   25.0793 H   0  0  0  0  0  0
  -21.0026  -28.3349   24.1323 H   0  0  0  0  0  0
  -20.5680  -26.2361   23.3638 H   0  0  0  0  0  0
  -21.6659  -26.7412   22.1206 H   0  0  0  0  0  0
  -19.6928  -25.6277   21.1268 H   0  0  0  0  0  0
  -19.6709  -27.3166   20.6727 H   0  0  0  0  0  0
  -17.4219  -26.6680   21.4026 H   0  0  0  0  0  0
  -18.0347  -26.0094   22.9030 H   0  0  0  0  0  0
  -19.7967  -30.7314   24.2204 H   0  0  0  0  0  0
  -17.5036  -31.6272   24.5165 H   0  0  0  0  0  0
  -15.5373  -30.2971   23.7693 H   0  0  0  0  0  0
  -15.8700  -28.0811   22.7097 H   0  0  0  0  0  0
  -24.5888  -30.7110   25.7675 H   0  0  0  0  0  0
  -24.8866  -32.2976   26.4672 H   0  0  0  0  0  0
  -25.7937  -30.9022   27.0214 H   0  0  0  0  0  0
  -26.3105  -29.6594   24.1386 H   0  0  0  0  0  0
  -27.3979  -29.7267   25.5034 H   0  0  0  0  0  0
  -27.9044  -30.4106   23.9800 H   0  0  0  0  0  0
  -27.2615  -33.3686   26.1959 H   0  0  0  0  0  0
  -28.3922  -32.6840   25.0374 H   0  0  0  0  0  0
  -28.0647  -31.8549   26.5511 H   0  0  0  0  0  0
  -28.2569  -38.0079   24.7512 H   0  0  0  0  0  0
  -28.1085  -36.2603   24.6295 H   0  0  0  0  0  0
  -27.2287  -37.1411   25.8867 H   0  0  0  0  0  0
  -20.9563  -29.8736   21.6691 H   0  0  0  0  0  0
  -26.0131  -38.2769   24.1417 H   0  0  0  0  0  0
  -28.2614  -20.6610   18.4387 H   0  0  0  0  0  0
  -28.0499  -18.6518   17.3416 H   0  0  0  0  0  0
  -27.4961  -17.4016   18.4558 H   0  0  0  0  0  0
  -29.1140  -17.3114   17.7520 H   0  0  0  0  0  0
  -29.6996  -23.0878   19.2900 H   0  0  0  0  0  0
  -29.8769  -23.2328   20.9748 H   0  0  0  0  0  0
  -27.3808  -24.1325   21.1057 H   0  0  0  0  0  0
  -27.3497  -24.1089   19.3849 H   0  0  0  0  0  0
  -28.6252  -16.0353   20.5148 H   0  0  0  0  0  0
  1 25  1  0  0  0
  1 30  2  0  0  0
  1 80  1  0  0  0
  2  3  1  0  0  0
  2 25  1  0  0  0
  2 83  1  0  0  0
  2 84  1  0  0  0
  3  4  1  0  0  0
  3 85  1  0  0  0
  3 86  1  0  0  0
  4  5  1  0  0  0
  4 87  1  0  0  0
  4 88  1  0  0  0
  5  6  1  0  0  0
  5 26  1  0  0  0
  5 89  1  0  0  0
  6 25  1  0  0  0
  6 90  1  0  0  0
  6 91  1  0  0  0
  7  8  2  0  0  0
  7 26  1  0  0  0
  7 29  1  0  0  0
  8  9  1  0  0  0
  8 22  1  0  0  0
  9 10  1  0  0  0
  9 27  2  0  0  0
 10 11  2  0  0  0
 10 15  1  0  0  0
 11 12  1  0  0  0
 11 92  1  0  0  0
 12 13  2  0  0  0
 12 93  1  0  0  0
 13 14  1  0  0  0
 13 31  1  0  0  0
 14 15  2  0  0  0
 14 94  1  0  0  0
 15 95  1  0  0  0
 16 17  2  0  0  0
 16 21  1  0  0  0
 16 31  1  0  0  0
 17 18  1  0  0  0
 17 96  1  0  0  0
 18 19  2  0  0  0
 18 97  1  0  0  0
 19 20  1  0  0  0
 19 24  1  0  0  0
 20 21  2  0  0  0
 20 98  1  0  0  0
 21 23  1  0  0  0
 22 28  1  0  0  0
 22 32  2  0  0  0
 26 27  1  0  0  0
 28 99  1  0  0  0
 28100  1  0  0  0
 29101  1  0  0  0
 29102  1  0  0  0
 33 34  1  0  0  0
 33 66  1  0  0  0
 33 70  2  0  0  0
 34 36  1  0  0  0
 34 59  1  0  0  0
 34103  1  0  0  0
 35 44  2  0  0  0
 35 45  1  0  0  0
 35 68  1  0  0  0
 36 56  1  0  0  0
 36104  1  0  0  0
 37 39  1  0  0  0
 37 47  1  0  0  0
 37 66  1  0  0  0
 37105  1  0  0  0
 38 43  2  0  0  0
 38 46  1  0  0  0
 38 47  1  0  0  0
 39 64  1  0  0  0
 39 67  2  0  0  0
 40 52  1  0  0  0
 40 53  2  0  0  0
 40 58  1  0  0  0
 41106  1  0  0  0
 41107  1  0  0  0
 41108  1  0  0  0
 41 48  1  0  0  0
 42 43  1  0  0  0
 42 66  1  0  0  0
 42109  1  0  0  0
 42110  1  0  0  0
 43 44  1  0  0  0
 44111  1  0  0  0
 45 46  2  0  0  0
 45112  1  0  0  0
 46113  1  0  0  0
 47114  1  0  0  0
 47115  1  0  0  0
 48 56  1  0  0  0
 48 65  1  0  0  0
 48116  1  0  0  0
 49 50  1  0  0  0
 49 53  1  0  0  0
 49 64  1  0  0  0
 49117  1  0  0  0
 50 51  1  0  0  0
 50118  1  0  0  0
 50119  1  0  0  0
 51 52  1  0  0  0
 51120  1  0  0  0
 51121  1  0  0  0
 52122  1  0  0  0
 52123  1  0  0  0
 53 54  1  0  0  0
 54 55  2  0  0  0
 54124  1  0  0  0
 55 57  1  0  0  0
 55125  1  0  0  0
 56 69  2  0  0  0
 57 58  2  0  0  0
 57126  1  0  0  0
 58127  1  0  0  0
 59 60  1  0  0  0
 59 61  1  0  0  0
 59 62  1  0  0  0
 60128  1  0  0  0
 60129  1  0  0  0
 60130  1  0  0  0
 61131  1  0  0  0
 61132  1  0  0  0
 61133  1  0  0  0
 62134  1  0  0  0
 62135  1  0  0  0
 62136  1  0  0  0
 63 65  1  0  0  0
 63137  1  0  0  0
 63138  1  0  0  0
 63139  1  0  0  0
 64140  1  0  0  0
 65141  1  0  0  0
 68 79  1  0  0  0
 71 72  2  0  0  0
 71 73  1  0  0  0
 71142  1  0  0  0
 72 74  1  0  0  0
 72 77  1  0  0  0
 73 75  2  0  0  0
 73 78  1  0  0  0
 74 76  2  0  0  0
 74 80  1  0  0  0
 75 76  1  0  0  0
 75 81  1  0  0  0
 76 82  1  0  0  0
 77143  1  0  0  0
 77144  1  0  0  0
 77145  1  0  0  0
 78 79  1  0  0  0
 78146  1  0  0  0
 78147  1  0  0  0
 79148  1  0  0  0
 79149  1  0  0  0
 80150  1  0  0  0
M  ISO  4   1 100  68 101  79 101  80 100
M  END
> <chiral flag>
0

> <version>
0

> <s_m_source_file>
/data/baiqing/PycharmProjects/Reinvent-master-3.2/result/LINK_invent/BTK/process_docking_weight1_custom_sum_contain_oxygen_bond_distance_aromatic_linkinvent_7_9_3/rearranged_h_0029.sdf

> <i_m_source_file_index>
23

> <r_mmod_Potential_Energy-OPLS-2005>
1043.02099609375

> <r_mmod_Stretch_Energy-OPLS-2005>
458.172882080078

> <r_mmod_Bend_Energy-OPLS-2005>
392.53759765625

> <r_mmod_Torsional_Energy-OPLS-2005>
247.284790039062

> <r_mmod_Improper_Torsional_Energy-OPLS-2005>
8.77538776397705

> <r_mmod_Van_der_Waal_Energy-OPLS-2005>
126.161628723145

> <r_mmod_Electrostatic_Energy-OPLS-2005>
-354.109771728516

> <r_mmod_Solvation_Energy-OPLS-2005>
-215.742874145508

> <b_mmod_Minimization_Converged-OPLS-2005>
0

> <r_mmod_RMS_Derivative-OPLS-2005>
0.263203620910645

$$$$
23
                    3D
 Structure written by MMmdl.
147155  0  0  1  0            999 V2000
  -30.4707  -15.1815   20.3815 C   0  0  0  0  0  0
  -30.4346  -12.7487   19.5211 C   0  0  0  0  0  0
  -29.5299  -12.5585   18.2794 C   0  0  0  0  0  0
  -28.0740  -12.3006   18.7047 C   0  0  0  0  0  0
  -27.6133  -13.2679   19.8250 C   0  0  2  0  0  0
  -28.6479  -13.4111   20.9607 C   0  0  0  0  0  0
  -25.2394  -13.8234   20.5740 C   0  0  0  0  0  0
  -24.1737  -13.0432   20.9248 C   0  0  0  0  0  0
  -24.6386  -11.6927   20.8756 C   0  0  0  0  0  0
  -23.9083  -10.4288   21.0407 C   0  0  0  0  0  0
  -24.3630   -9.4202   21.9184 C   0  0  0  0  0  0
  -23.6300   -8.2237   22.0748 C   0  0  0  0  0  0
  -22.4280   -8.0281   21.3542 C   0  0  0  0  0  0
  -21.9924   -9.0254   20.4642 C   0  0  0  0  0  0
  -22.7254  -10.2132   20.3053 C   0  0  0  0  0  0
  -21.6858   -6.0739   22.5284 C   0  0  0  0  0  0
  -21.4012   -6.5640   23.8216 C   0  0  0  0  0  0
  -21.3659   -5.6790   24.9177 C   0  0  0  0  0  0
  -21.6047   -4.3052   24.7226 C   0  0  0  0  0  0
  -21.8822   -3.8148   23.4345 C   0  0  0  0  0  0
  -21.9196   -4.6967   22.3405 C   0  0  0  0  0  0
  -22.7763  -13.5190   21.1909 C   0  0  0  0  0  0
  -22.1665   -4.2154   21.0982 F   0  0  0  0  0  0
  -21.5633   -3.4536   25.7736 F   0  0  0  0  0  0
  -29.8908  -13.8904   20.3382 N   0  0  0  0  0  0
  -26.2817  -12.9498   20.3216 N   0  0  0  0  0  0
  -25.9317  -11.6610   20.5716 N   0  0  0  0  0  0
  -22.0431  -12.8160   22.0465 N   0  0  0  0  0  0
  -25.4026  -15.1971   20.4186 N   0  0  0  0  0  0
  -31.6892  -15.1846   20.1613 O   0  0  0  0  0  0
  -21.6643   -6.8882   21.4242 O   0  0  0  0  0  0
  -22.3439  -14.5501   20.6768 O   0  0  0  0  0  0
  -24.6593  -31.8286   23.1764 C   0  0  0  0  0  0
  -25.9296  -32.4619   23.8203 C   0  0  1  0  0  0
  -27.2104  -26.9727   20.1746 C   0  0  0  0  0  0
  -25.5984  -33.8432   24.2118 N   0  0  0  0  0  0
  -23.4710  -30.4440   21.5245 C   0  0  2  0  0  0
  -24.9238  -28.8453   20.1104 C   0  0  0  0  0  0
  -22.7643  -29.4464   22.4791 C   0  0  0  0  0  0
  -18.0321  -28.1414   22.8482 C   0  0  0  0  0  0
  -24.1479  -36.7177   23.2647 C   0  0  0  0  0  0
  -26.0389  -30.6496   21.4017 C   0  0  0  0  0  0
  -26.1071  -29.2455   20.7431 C   0  0  0  0  0  0
  -27.2477  -28.3287   20.7548 C   0  0  0  0  0  0
  -25.9999  -26.7207   19.4890 C   0  0  0  0  0  0
  -24.8935  -27.6016   19.4636 C   0  0  0  0  0  0
  -23.7086  -29.7665   20.1481 C   0  0  0  0  0  0
  -25.4124  -36.2970   24.0308 C   0  0  1  0  0  0
  -20.5941  -28.3747   23.1203 C   0  0  2  0  0  0
  -20.6787  -26.9432   22.5407 C   0  0  0  0  0  0
  -19.5756  -26.6396   21.5216 C   0  0  0  0  0  0
  -18.1943  -26.7951   22.1636 C   0  0  0  0  0  0
  -19.1581  -28.8902   23.2829 C   0  0  0  0  0  0
  -18.9494  -30.1494   23.8862 C   0  0  0  0  0  0
  -17.6490  -30.6610   24.0558 C   0  0  0  0  0  0
  -25.9092  -34.9363   23.5027 C   0  0  0  0  0  0
  -16.5378  -29.9097   23.6353 C   0  0  0  0  0  0
  -16.7304  -28.6513   23.0385 C   0  0  0  0  0  0
  -26.4569  -31.6552   25.0715 C   0  0  0  0  0  0
  -25.3710  -31.3808   26.1382 C   0  0  0  0  0  0
  -27.0450  -30.2920   24.6420 C   0  0  0  0  0  0
  -27.6075  -32.4348   25.7515 C   0  0  0  0  0  0
  -27.5557  -37.1738   24.8474 C   0  0  0  0  0  0
  -21.4318  -29.3042   22.3544 N   0  0  0  0  0  0
  -26.4259  -37.3719   23.9425 N   0  0  0  0  0  0
  -24.7436  -30.9996   22.0881 N   0  0  0  0  0  0
  -23.4207  -28.8032   23.3015 O   0  0  0  0  0  0
  -28.1949  -25.8658   20.2636 O   0  0  0  0  0  0
  -26.5688  -34.8898   22.4613 O   0  0  0  0  0  0
  -23.5673  -32.1235   23.6890 O   0  0  0  0  0  0
  -30.0350  -20.7180   19.5567 C   0  0  0  0  0  0
  -27.9391  -21.6461   20.9957 C   0  0  0  0  0  0
  -29.4433  -19.6107   20.3036 C   0  0  0  0  0  0
  -28.5367  -22.7505   20.2424 C   0  0  0  0  0  0
  -28.3461  -20.2155   21.0433 C   0  0  0  0  0  0
  -29.6288  -22.1418   19.5074 C   0  0  0  0  0  0
  -30.1626  -18.0282   20.3477 C   0  0  0  0  0  0
  -27.8069  -24.3075   20.0110 C   0  0  0  0  0  0
  -29.7261  -16.4469   20.4655 N   0  0  0  0  0  0
  -27.6306  -19.4004   21.8533 F   0  0  0  0  0  0
  -30.3255  -22.9443   18.6685 F   0  0  0  0  0  0
  -31.4591  -12.9365   19.1972 H   0  0  0  0  0  0
  -30.4774  -11.8334   20.1135 H   0  0  0  0  0  0
  -29.8939  -11.7337   17.6658 H   0  0  0  0  0  0
  -29.5757  -13.4511   17.6541 H   0  0  0  0  0  0
  -28.0151  -11.2721   19.0629 H   0  0  0  0  0  0
  -27.4064  -12.3632   17.8441 H   0  0  0  0  0  0
  -27.5390  -14.2422   19.3407 H   0  0  0  0  0  0
  -28.7945  -12.4682   21.4902 H   0  0  0  0  0  0
  -28.3016  -14.1347   21.7002 H   0  0  0  0  0  0
  -25.2772   -9.5693   22.4760 H   0  0  0  0  0  0
  -24.0022   -7.4632   22.7459 H   0  0  0  0  0  0
  -21.0862   -8.8768   19.8942 H   0  0  0  0  0  0
  -22.3705  -10.9672   19.6163 H   0  0  0  0  0  0
  -21.1994   -7.6144   23.9723 H   0  0  0  0  0  0
  -21.1482   -6.0516   25.9082 H   0  0  0  0  0  0
  -22.0600   -2.7611   23.2842 H   0  0  0  0  0  0
  -22.4062  -11.9814   22.4825 H   0  0  0  0  0  0
  -21.1051  -13.1164   22.2693 H   0  0  0  0  0  0
  -24.6307  -15.8456   20.5343 H   0  0  0  0  0  0
  -26.2476  -15.6447   20.0892 H   0  0  0  0  0  0
  -26.7362  -32.5175   23.0917 H   0  0  0  0  0  0
  -25.0108  -33.9518   25.0251 H   0  0  0  0  0  0
  -22.7825  -31.2745   21.3592 H   0  0  0  0  0  0
  -23.3772  -35.9476   23.3300 H   0  0  0  0  0  0
  -24.3550  -36.8822   22.2063 H   0  0  0  0  0  0
  -23.7202  -37.6353   23.6693 H   0  0  0  0  0  0
  -26.2172  -31.3968   20.6272 H   0  0  0  0  0  0
  -26.9002  -30.7022   22.0555 H   0  0  0  0  0  0
  -28.1403  -28.6283   21.2859 H   0  0  0  0  0  0
  -25.8629  -25.7751   18.9876 H   0  0  0  0  0  0
  -23.9939  -27.2890   18.9517 H   0  0  0  0  0  0
  -23.8604  -30.5376   19.3924 H   0  0  0  0  0  0
  -22.8194  -29.2190   19.8312 H   0  0  0  0  0  0
  -25.1320  -36.1759   25.0798 H   0  0  0  0  0  0
  -21.0041  -28.3347   24.1318 H   0  0  0  0  0  0
  -20.5663  -26.2361   23.3643 H   0  0  0  0  0  0
  -21.6650  -26.7409   22.1202 H   0  0  0  0  0  0
  -19.6903  -25.6302   21.1258 H   0  0  0  0  0  0
  -19.6687  -27.3193   20.6732 H   0  0  0  0  0  0
  -17.4201  -26.6700   21.4049 H   0  0  0  0  0  0
  -18.0336  -26.0110   22.9054 H   0  0  0  0  0  0
  -19.7972  -30.7318   24.2218 H   0  0  0  0  0  0
  -17.5049  -31.6292   24.5159 H   0  0  0  0  0  0
  -15.5374  -30.2994   23.7712 H   0  0  0  0  0  0
  -15.8699  -28.0818   22.7144 H   0  0  0  0  0  0
  -24.5888  -30.7161   25.7704 H   0  0  0  0  0  0
  -24.8907  -32.3015   26.4700 H   0  0  0  0  0  0
  -25.7957  -30.9052   27.0229 H   0  0  0  0  0  0
  -26.3111  -29.6619   24.1383 H   0  0  0  0  0  0
  -27.3949  -29.7270   25.5068 H   0  0  0  0  0  0
  -27.9076  -30.4123   23.9862 H   0  0  0  0  0  0
  -27.2660  -33.3704   26.1960 H   0  0  0  0  0  0
  -28.3964  -32.6808   25.0394 H   0  0  0  0  0  0
  -28.0643  -31.8543   26.5540 H   0  0  0  0  0  0
  -28.2565  -38.0041   24.7545 H   0  0  0  0  0  0
  -28.1064  -36.2579   24.6280 H   0  0  0  0  0  0
  -27.2277  -37.1360   25.8875 H   0  0  0  0  0  0
  -20.9558  -29.8726   21.6680 H   0  0  0  0  0  0
  -26.0102  -38.2763   24.1492 H   0  0  0  0  0  0
  -30.8915  -20.4656   18.9499 H   0  0  0  0  0  0
  -27.0626  -21.8957   21.5745 H   0  0  0  0  0  0
  -30.8960  -18.1298   21.1469 H   0  0  0  0  0  0
  -30.7729  -18.0247   19.4439 H   0  0  0  0  0  0
  -26.8424  -24.1985   20.5067 H   0  0  0  0  0  0
  -27.5655  -24.2823   18.9490 H   0  0  0  0  0  0
  -28.7356  -16.3130   20.6028 H   0  0  0  0  0  0
  1 25  1  0  0  0
  1 30  2  0  0  0
  1 79  1  0  0  0
  2  3  1  0  0  0
  2 25  1  0  0  0
  2 82  1  0  0  0
  2 83  1  0  0  0
  3  4  1  0  0  0
  3 84  1  0  0  0
  3 85  1  0  0  0
  4  5  1  0  0  0
  4 86  1  0  0  0
  4 87  1  0  0  0
  5  6  1  0  0  0
  5 26  1  0  0  0
  5 88  1  0  0  0
  6 25  1  0  0  0
  6 89  1  0  0  0
  6 90  1  0  0  0
  7  8  2  0  0  0
  7 26  1  0  0  0
  7 29  1  0  0  0
  8  9  1  0  0  0
  8 22  1  0  0  0
  9 10  1  0  0  0
  9 27  2  0  0  0
 10 11  2  0  0  0
 10 15  1  0  0  0
 11 12  1  0  0  0
 11 91  1  0  0  0
 12 13  2  0  0  0
 12 92  1  0  0  0
 13 14  1  0  0  0
 13 31  1  0  0  0
 14 15  2  0  0  0
 14 93  1  0  0  0
 15 94  1  0  0  0
 16 17  2  0  0  0
 16 21  1  0  0  0
 16 31  1  0  0  0
 17 18  1  0  0  0
 17 95  1  0  0  0
 18 19  2  0  0  0
 18 96  1  0  0  0
 19 20  1  0  0  0
 19 24  1  0  0  0
 20 21  2  0  0  0
 20 97  1  0  0  0
 21 23  1  0  0  0
 22 28  1  0  0  0
 22 32  2  0  0  0
 26 27  1  0  0  0
 28 98  1  0  0  0
 28 99  1  0  0  0
 29100  1  0  0  0
 29101  1  0  0  0
 33 34  1  0  0  0
 33 66  1  0  0  0
 33 70  2  0  0  0
 34 36  1  0  0  0
 34 59  1  0  0  0
 34102  1  0  0  0
 35 44  2  0  0  0
 35 45  1  0  0  0
 35 68  1  0  0  0
 36 56  1  0  0  0
 36103  1  0  0  0
 37 39  1  0  0  0
 37 47  1  0  0  0
 37 66  1  0  0  0
 37104  1  0  0  0
 38 43  2  0  0  0
 38 46  1  0  0  0
 38 47  1  0  0  0
 39 64  1  0  0  0
 39 67  2  0  0  0
 40 52  1  0  0  0
 40 53  2  0  0  0
 40 58  1  0  0  0
 41105  1  0  0  0
 41106  1  0  0  0
 41107  1  0  0  0
 41 48  1  0  0  0
 42 43  1  0  0  0
 42 66  1  0  0  0
 42108  1  0  0  0
 42109  1  0  0  0
 43 44  1  0  0  0
 44110  1  0  0  0
 45 46  2  0  0  0
 45111  1  0  0  0
 46112  1  0  0  0
 47113  1  0  0  0
 47114  1  0  0  0
 48 56  1  0  0  0
 48 65  1  0  0  0
 48115  1  0  0  0
 49 50  1  0  0  0
 49 53  1  0  0  0
 49 64  1  0  0  0
 49116  1  0  0  0
 50 51  1  0  0  0
 50117  1  0  0  0
 50118  1  0  0  0
 51 52  1  0  0  0
 51119  1  0  0  0
 51120  1  0  0  0
 52121  1  0  0  0
 52122  1  0  0  0
 53 54  1  0  0  0
 54 55  2  0  0  0
 54123  1  0  0  0
 55 57  1  0  0  0
 55124  1  0  0  0
 56 69  2  0  0  0
 57 58  2  0  0  0
 57125  1  0  0  0
 58126  1  0  0  0
 59 60  1  0  0  0
 59 61  1  0  0  0
 59 62  1  0  0  0
 60127  1  0  0  0
 60128  1  0  0  0
 60129  1  0  0  0
 61130  1  0  0  0
 61131  1  0  0  0
 61132  1  0  0  0
 62133  1  0  0  0
 62134  1  0  0  0
 62135  1  0  0  0
 63 65  1  0  0  0
 63136  1  0  0  0
 63137  1  0  0  0
 63138  1  0  0  0
 64139  1  0  0  0
 65140  1  0  0  0
 68 78  1  0  0  0
 71 73  2  0  0  0
 71 76  1  0  0  0
 71141  1  0  0  0
 72 74  1  0  0  0
 72 75  2  0  0  0
 72142  1  0  0  0
 73 75  1  0  0  0
 73 77  1  0  0  0
 74 76  2  0  0  0
 74 78  1  0  0  0
 75 80  1  0  0  0
 76 81  1  0  0  0
 77 79  1  0  0  0
 77143  1  0  0  0
 77144  1  0  0  0
 78145  1  0  0  0
 78146  1  0  0  0
 79147  1  0  0  0
M  ISO  4   1 100  68 101  78 101  79 100
M  END
> <chiral flag>
0

> <version>
0

> <s_m_source_file>
/data/baiqing/PycharmProjects/Reinvent-master-3.2/result/LINK_invent/BTK/process_docking_weight1_custom_sum_contain_oxygen_bond_distance_aromatic_linkinvent_7_9_3/rearranged_h_0029.sdf

> <i_m_source_file_index>
24

> <r_mmod_Potential_Energy-OPLS-2005>
1009.37445068359

> <r_mmod_Stretch_Energy-OPLS-2005>
443.57421875

> <r_mmod_Bend_Energy-OPLS-2005>
420.573425292969

> <r_mmod_Torsional_Energy-OPLS-2005>
217.94255065918

> <r_mmod_Improper_Torsional_Energy-OPLS-2005>
7.88700866699219

> <r_mmod_Van_der_Waal_Energy-OPLS-2005>
132.064804077148

> <r_mmod_Electrostatic_Energy-OPLS-2005>
-392.613311767578

> <r_mmod_Solvation_Energy-OPLS-2005>
-208.086929321289

> <b_mmod_Minimization_Converged-OPLS-2005>
0

> <r_mmod_RMS_Derivative-OPLS-2005>
1.44339370727539

$$$$
24
                    3D
 Structure written by MMmdl.
162170  0  0  1  0            999 V2000
  -30.5562  -14.9331   20.4227 C   0  0  0  0  0  0
  -30.4351  -12.5773   19.5013 C   0  0  0  0  0  0
  -29.5198  -12.5285   18.2566 C   0  0  0  0  0  0
  -28.0514  -12.3213   18.6723 C   0  0  0  0  0  0
  -27.6293  -13.2514   19.8403 C   0  0  2  0  0  0
  -28.6713  -13.2757   20.9789 C   0  0  0  0  0  0
  -25.2447  -13.8225   20.5718 C   0  0  0  0  0  0
  -24.1773  -13.0441   20.9236 C   0  0  0  0  0  0
  -24.6396  -11.6929   20.8759 C   0  0  0  0  0  0
  -23.9085  -10.4294   21.0412 C   0  0  0  0  0  0
  -24.3633   -9.4205   21.9188 C   0  0  0  0  0  0
  -23.6301   -8.2243   22.0755 C   0  0  0  0  0  0
  -22.4279   -8.0285   21.3548 C   0  0  0  0  0  0
  -21.9923   -9.0261   20.4649 C   0  0  0  0  0  0
  -22.7258  -10.2138   20.3059 C   0  0  0  0  0  0
  -21.6854   -6.0741   22.5280 C   0  0  0  0  0  0
  -21.4015   -6.5643   23.8215 C   0  0  0  0  0  0
  -21.3660   -5.6795   24.9177 C   0  0  0  0  0  0
  -21.6043   -4.3057   24.7226 C   0  0  0  0  0  0
  -21.8819   -3.8150   23.4346 C   0  0  0  0  0  0
  -21.9191   -4.6968   22.3402 C   0  0  0  0  0  0
  -22.7790  -13.5203   21.1897 C   0  0  0  0  0  0
  -22.1659   -4.2154   21.0980 F   0  0  0  0  0  0
  -21.5629   -3.4539   25.7738 F   0  0  0  0  0  0
  -29.9498  -13.6790   20.3813 N   0  0  0  0  0  0
  -26.2879  -12.9467   20.3252 N   0  0  0  0  0  0
  -25.9329  -11.6592   20.5747 N   0  0  0  0  0  0
  -22.0446  -12.8185   22.0452 N   0  0  0  0  0  0
  -25.4093  -15.1958   20.4142 N   0  0  0  0  0  0
  -31.7572  -14.9876   20.1407 O   0  0  0  0  0  0
  -21.6640   -6.8885   21.4243 O   0  0  0  0  0  0
  -22.3470  -14.5510   20.6745 O   0  0  0  0  0  0
  -24.6429  -31.8441   23.1882 C   0  0  0  0  0  0
  -25.9204  -32.4691   23.8269 C   0  0  1  0  0  0
  -27.2141  -27.1337   20.1506 C   0  0  0  0  0  0
  -25.5942  -33.8497   24.2182 N   0  0  0  0  0  0
  -23.4462  -30.4636   21.5332 C   0  0  2  0  0  0
  -24.8960  -28.8924   20.1055 C   0  0  0  0  0  0
  -22.7562  -29.4546   22.4849 C   0  0  0  0  0  0
  -18.0308  -28.1394   22.8477 C   0  0  0  0  0  0
  -24.1486  -36.7261   23.2641 C   0  0  0  0  0  0
  -26.0019  -30.7158   21.3893 C   0  0  0  0  0  0
  -26.0710  -29.3269   20.7312 C   0  0  0  0  0  0
  -27.2286  -28.4613   20.7414 C   0  0  0  0  0  0
  -26.0201  -26.8112   19.4672 C   0  0  0  0  0  0
  -24.8841  -27.6489   19.4570 C   0  0  0  0  0  0
  -23.6717  -29.7937   20.1516 C   0  0  0  0  0  0
  -25.4119  -36.3028   24.0311 C   0  0  1  0  0  0
  -20.5919  -28.3722   23.1233 C   0  0  2  0  0  0
  -20.6794  -26.9426   22.5402 C   0  0  0  0  0  0
  -19.5770  -26.6379   21.5211 C   0  0  0  0  0  0
  -18.1950  -26.7934   22.1622 C   0  0  0  0  0  0
  -19.1564  -28.8877   23.2847 C   0  0  0  0  0  0
  -18.9480  -30.1470   23.8877 C   0  0  0  0  0  0
  -17.6477  -30.6590   24.0555 C   0  0  0  0  0  0
  -25.9071  -34.9403   23.5059 C   0  0  0  0  0  0
  -16.5366  -29.9084   23.6334 C   0  0  0  0  0  0
  -16.7294  -28.6502   23.0359 C   0  0  0  0  0  0
  -26.4524  -31.6563   25.0717 C   0  0  0  0  0  0
  -25.3697  -31.3759   26.1404 C   0  0  0  0  0  0
  -27.0399  -30.2959   24.6319 C   0  0  0  0  0  0
  -27.6049  -32.4339   25.7503 C   0  0  0  0  0  0
  -27.5574  -37.1783   24.8461 C   0  0  0  0  0  0
  -21.4256  -29.3046   22.3597 N   0  0  0  0  0  0
  -26.4283  -37.3741   23.9408 N   0  0  0  0  0  0
  -24.7165  -31.0296   22.0918 N   0  0  0  0  0  0
  -23.4208  -28.8102   23.3005 O   0  0  0  0  0  0
  -28.2610  -26.1448   20.2589 O   0  0  0  0  0  0
  -26.5664  -34.8902   22.4642 O   0  0  0  0  0  0
  -23.5549  -32.1322   23.7103 O   0  0  0  0  0  0
  -29.6871  -20.5797   20.1652 C   0  0  0  0  0  0
  -30.8009  -20.5687   19.2951 C   0  0  0  0  0  0
  -28.7770  -21.7422   19.8833 C   0  0  0  0  0  0
  -29.3241  -21.4108   17.5367 C   0  0  0  0  0  0
  -30.5799  -20.9058   17.9407 C   0  0  0  0  0  0
  -28.4029  -21.8250   18.5244 C   0  0  0  0  0  0
  -29.0308  -21.6460   16.0664 C   0  0  0  0  0  0
  -33.2264  -21.1767   19.7080 C   0  0  0  0  0  0
  -29.2520  -19.0294   20.5710 C   0  0  0  0  0  0
  -32.1644  -20.0699   19.7475 C   0  0  0  0  0  0
  -28.8558  -23.2673   20.5223 C   0  0  0  0  0  0
  -30.2073  -17.6420   20.3364 C   0  0  0  0  0  0
  -28.0623  -24.6363   19.9110 C   0  0  0  0  0  0
  -29.8001  -16.1302   20.5626 N   0  0  0  0  0  0
  -31.5559  -20.6977   17.0237 F   0  0  0  0  0  0
  -27.2942  -22.5125   18.1586 F   0  0  0  0  0  0
  -31.4714  -12.7243   19.1935 H   0  0  0  0  0  0
  -30.4165  -11.6249   20.0333 H   0  0  0  0  0  0
  -29.8352  -11.7299   17.5839 H   0  0  0  0  0  0
  -29.6154  -13.4589   17.6944 H   0  0  0  0  0  0
  -27.9409  -11.2793   18.9741 H   0  0  0  0  0  0
  -27.3903  -12.4612   17.8162 H   0  0  0  0  0  0
  -27.5940  -14.2552   19.4160 H   0  0  0  0  0  0
  -28.7522  -12.2998   21.4595 H   0  0  0  0  0  0
  -28.3745  -13.9814   21.7565 H   0  0  0  0  0  0
  -25.2775   -9.5678   22.4769 H   0  0  0  0  0  0
  -24.0005   -7.4633   22.7475 H   0  0  0  0  0  0
  -21.0853   -8.8789   19.8955 H   0  0  0  0  0  0
  -22.3719  -10.9681   19.6172 H   0  0  0  0  0  0
  -21.2009   -7.6151   23.9722 H   0  0  0  0  0  0
  -21.1483   -6.0523   25.9081 H   0  0  0  0  0  0
  -22.0597   -2.7612   23.2845 H   0  0  0  0  0  0
  -22.4062  -11.9839   22.4824 H   0  0  0  0  0  0
  -21.1070  -13.1214   22.2682 H   0  0  0  0  0  0
  -24.6368  -15.8437   20.5245 H   0  0  0  0  0  0
  -26.2474  -15.6390   20.0612 H   0  0  0  0  0  0
  -26.7268  -32.5297   23.0999 H   0  0  0  0  0  0
  -25.0032  -33.9604   25.0291 H   0  0  0  0  0  0
  -22.7483  -31.2896   21.3800 H   0  0  0  0  0  0
  -23.3744  -35.9595   23.3285 H   0  0  0  0  0  0
  -24.3564  -36.8922   22.2057 H   0  0  0  0  0  0
  -23.7248  -37.6454   23.6697 H   0  0  0  0  0  0
  -26.1575  -31.4686   20.6148 H   0  0  0  0  0  0
  -26.8715  -30.7662   22.0321 H   0  0  0  0  0  0
  -28.1193  -28.7832   21.2627 H   0  0  0  0  0  0
  -25.9236  -25.8694   18.9489 H   0  0  0  0  0  0
  -23.9906  -27.3165   18.9466 H   0  0  0  0  0  0
  -23.8040  -30.5678   19.3951 H   0  0  0  0  0  0
  -22.7861  -29.2343   19.8448 H   0  0  0  0  0  0
  -25.1308  -36.1850   25.0801 H   0  0  0  0  0  0
  -21.0015  -28.3321   24.1352 H   0  0  0  0  0  0
  -20.5698  -26.2337   23.3623 H   0  0  0  0  0  0
  -21.6663  -26.7439   22.1200 H   0  0  0  0  0  0
  -19.6931  -25.6283   21.1263 H   0  0  0  0  0  0
  -19.6710  -27.3168   20.6724 H   0  0  0  0  0  0
  -17.4222  -26.6671   21.4022 H   0  0  0  0  0  0
  -18.0350  -26.0079   22.9023 H   0  0  0  0  0  0
  -19.7955  -30.7285   24.2245 H   0  0  0  0  0  0
  -17.5033  -31.6271   24.5155 H   0  0  0  0  0  0
  -15.5368  -30.2981   23.7671 H   0  0  0  0  0  0
  -15.8692  -28.0809   22.7100 H   0  0  0  0  0  0
  -24.5885  -30.7100   25.7715 H   0  0  0  0  0  0
  -24.8871  -32.2943   26.4755 H   0  0  0  0  0  0
  -25.7965  -30.8978   27.0228 H   0  0  0  0  0  0
  -26.3023  -29.6657   24.1332 H   0  0  0  0  0  0
  -27.4009  -29.7284   25.4904 H   0  0  0  0  0  0
  -27.8932  -30.4184   23.9641 H   0  0  0  0  0  0
  -27.2643  -33.3663   26.2017 H   0  0  0  0  0  0
  -28.3897  -32.6864   25.0358 H   0  0  0  0  0  0
  -28.0681  -31.8511   26.5475 H   0  0  0  0  0  0
  -28.2576  -38.0093   24.7518 H   0  0  0  0  0  0
  -28.1090  -36.2622   24.6280 H   0  0  0  0  0  0
  -27.2291  -37.1420   25.8863 H   0  0  0  0  0  0
  -20.9464  -29.8748   21.6769 H   0  0  0  0  0  0
  -26.0145  -38.2806   24.1418 H   0  0  0  0  0  0
  -29.9460  -21.8589   15.5138 H   0  0  0  0  0  0
  -28.3575  -22.4916   15.9244 H   0  0  0  0  0  0
  -28.5675  -20.7611   15.6313 H   0  0  0  0  0  0
  -34.1899  -20.8031   20.0545 H   0  0  0  0  0  0
  -32.9456  -22.0135   20.3483 H   0  0  0  0  0  0
  -33.3671  -21.5617   18.6980 H   0  0  0  0  0  0
  -28.3083  -18.8540   20.0543 H   0  0  0  0  0  0
  -28.9866  -19.0646   21.6278 H   0  0  0  0  0  0
  -32.4737  -19.2309   19.1234 H   0  0  0  0  0  0
  -32.1023  -19.7077   20.7727 H   0  0  0  0  0  0
  -29.9181  -23.5090   20.5373 H   0  0  0  0  0  0
  -28.5772  -23.1723   21.5718 H   0  0  0  0  0  0
  -31.1033  -17.7630   20.9431 H   0  0  0  0  0  0
  -30.5533  -17.6749   19.3029 H   0  0  0  0  0  0
  -27.0074  -24.4074   20.0531 H   0  0  0  0  0  0
  -28.2223  -24.6251   18.8333 H   0  0  0  0  0  0
  -28.8225  -15.9797   20.7632 H   0  0  0  0  0  0
  1 25  1  0  0  0
  1 30  2  0  0  0
  1 84  1  0  0  0
  2  3  1  0  0  0
  2 25  1  0  0  0
  2 87  1  0  0  0
  2 88  1  0  0  0
  3  4  1  0  0  0
  3 89  1  0  0  0
  3 90  1  0  0  0
  4  5  1  0  0  0
  4 91  1  0  0  0
  4 92  1  0  0  0
  5  6  1  0  0  0
  5 26  1  0  0  0
  5 93  1  0  0  0
  6 25  1  0  0  0
  6 94  1  0  0  0
  6 95  1  0  0  0
  7  8  2  0  0  0
  7 26  1  0  0  0
  7 29  1  0  0  0
  8  9  1  0  0  0
  8 22  1  0  0  0
  9 10  1  0  0  0
  9 27  2  0  0  0
 10 11  2  0  0  0
 10 15  1  0  0  0
 11 12  1  0  0  0
 11 96  1  0  0  0
 12 13  2  0  0  0
 12 97  1  0  0  0
 13 14  1  0  0  0
 13 31  1  0  0  0
 14 15  2  0  0  0
 14 98  1  0  0  0
 15 99  1  0  0  0
 16 17  2  0  0  0
 16 21  1  0  0  0
 16 31  1  0  0  0
 17 18  1  0  0  0
 17100  1  0  0  0
 18 19  2  0  0  0
 18101  1  0  0  0
 19 20  1  0  0  0
 19 24  1  0  0  0
 20 21  2  0  0  0
 20102  1  0  0  0
 21 23  1  0  0  0
 22 28  1  0  0  0
 22 32  2  0  0  0
 26 27  1  0  0  0
 28103  1  0  0  0
 28104  1  0  0  0
 29105  1  0  0  0
 29106  1  0  0  0
 33 34  1  0  0  0
 33 66  1  0  0  0
 33 70  2  0  0  0
 34 36  1  0  0  0
 34 59  1  0  0  0
 34107  1  0  0  0
 35 44  2  0  0  0
 35 45  1  0  0  0
 35 68  1  0  0  0
 36 56  1  0  0  0
 36108  1  0  0  0
 37 39  1  0  0  0
 37 47  1  0  0  0
 37 66  1  0  0  0
 37109  1  0  0  0
 38 43  2  0  0  0
 38 46  1  0  0  0
 38 47  1  0  0  0
 39 64  1  0  0  0
 39 67  2  0  0  0
 40 52  1  0  0  0
 40 53  2  0  0  0
 40 58  1  0  0  0
 41110  1  0  0  0
 41111  1  0  0  0
 41112  1  0  0  0
 41 48  1  0  0  0
 42 43  1  0  0  0
 42 66  1  0  0  0
 42113  1  0  0  0
 42114  1  0  0  0
 43 44  1  0  0  0
 44115  1  0  0  0
 45 46  2  0  0  0
 45116  1  0  0  0
 46117  1  0  0  0
 47118  1  0  0  0
 47119  1  0  0  0
 48 56  1  0  0  0
 48 65  1  0  0  0
 48120  1  0  0  0
 49 50  1  0  0  0
 49 53  1  0  0  0
 49 64  1  0  0  0
 49121  1  0  0  0
 50 51  1  0  0  0
 50122  1  0  0  0
 50123  1  0  0  0
 51 52  1  0  0  0
 51124  1  0  0  0
 51125  1  0  0  0
 52126  1  0  0  0
 52127  1  0  0  0
 53 54  1  0  0  0
 54 55  2  0  0  0
 54128  1  0  0  0
 55 57  1  0  0  0
 55129  1  0  0  0
 56 69  2  0  0  0
 57 58  2  0  0  0
 57130  1  0  0  0
 58131  1  0  0  0
 59 60  1  0  0  0
 59 61  1  0  0  0
 59 62  1  0  0  0
 60132  1  0  0  0
 60133  1  0  0  0
 60134  1  0  0  0
 61135  1  0  0  0
 61136  1  0  0  0
 61137  1  0  0  0
 62138  1  0  0  0
 62139  1  0  0  0
 62140  1  0  0  0
 63 65  1  0  0  0
 63141  1  0  0  0
 63142  1  0  0  0
 63143  1  0  0  0
 64144  1  0  0  0
 65145  1  0  0  0
 68 83  1  0  0  0
 71 72  2  0  0  0
 71 73  1  0  0  0
 71 79  1  0  0  0
 72 75  1  0  0  0
 72 80  1  0  0  0
 73 76  2  0  0  0
 73 81  1  0  0  0
 74 75  2  0  0  0
 74 76  1  0  0  0
 74 77  1  0  0  0
 75 85  1  0  0  0
 76 86  1  0  0  0
 77146  1  0  0  0
 77147  1  0  0  0
 77148  1  0  0  0
 78 80  1  0  0  0
 78149  1  0  0  0
 78150  1  0  0  0
 78151  1  0  0  0
 79 82  1  0  0  0
 79152  1  0  0  0
 79153  1  0  0  0
 80154  1  0  0  0
 80155  1  0  0  0
 81 83  1  0  0  0
 81156  1  0  0  0
 81157  1  0  0  0
 82 84  1  0  0  0
 82158  1  0  0  0
 82159  1  0  0  0
 83160  1  0  0  0
 83161  1  0  0  0
 84162  1  0  0  0
M  ISO  4   1 100  68 101  83 101  84 100
M  END
> <chiral flag>
0

> <version>
0

> <s_m_source_file>
/data/baiqing/PycharmProjects/Reinvent-master-3.2/result/LINK_invent/BTK/process_docking_weight1_custom_sum_contain_oxygen_bond_distance_aromatic_linkinvent_7_9_3/rearranged_h_0029.sdf

> <i_m_source_file_index>
25

> <r_mmod_Potential_Energy-OPLS-2005>
753.3505859375

> <r_mmod_Stretch_Energy-OPLS-2005>
277.977630615234

> <r_mmod_Bend_Energy-OPLS-2005>
268.449768066406

> <r_mmod_Torsional_Energy-OPLS-2005>
436.486968994141

> <r_mmod_Improper_Torsional_Energy-OPLS-2005>
32.9365463256836

> <r_mmod_Van_der_Waal_Energy-OPLS-2005>
140.484161376953

> <r_mmod_Electrostatic_Energy-OPLS-2005>
-390.491790771484

> <r_mmod_Solvation_Energy-OPLS-2005>
-202.072509765625

> <b_mmod_Minimization_Converged-OPLS-2005>
0

> <r_mmod_RMS_Derivative-OPLS-2005>
0.831669986248016

$$$$
25
                    3D
 Structure written by MMmdl.
166175  0  0  1  0            999 V2000
  -30.8591  -14.2045   20.7991 C   0  0  0  0  0  0
  -30.4108  -12.2751   19.3428 C   0  0  0  0  0  0
  -29.4638  -12.5469   18.1661 C   0  0  0  0  0  0
  -27.9981  -12.3842   18.6014 C   0  0  0  0  0  0
  -27.6685  -13.2007   19.8756 C   0  0  2  0  0  0
  -28.7082  -12.9346   20.9858 C   0  0  0  0  0  0
  -25.2610  -13.8154   20.5669 C   0  0  0  0  0  0
  -24.1847  -13.0441   20.9159 C   0  0  0  0  0  0
  -24.6383  -11.6902   20.8712 C   0  0  0  0  0  0
  -23.9042  -10.4286   21.0393 C   0  0  0  0  0  0
  -24.3603   -9.4204   21.9178 C   0  0  0  0  0  0
  -23.6284   -8.2239   22.0752 C   0  0  0  0  0  0
  -22.4266   -8.0273   21.3545 C   0  0  0  0  0  0
  -21.9890   -9.0238   20.4647 C   0  0  0  0  0  0
  -22.7213  -10.2118   20.3045 C   0  0  0  0  0  0
  -21.6850   -6.0721   22.5279 C   0  0  0  0  0  0
  -21.4009   -6.5631   23.8210 C   0  0  0  0  0  0
  -21.3665   -5.6791   24.9177 C   0  0  0  0  0  0
  -21.6047   -4.3055   24.7228 C   0  0  0  0  0  0
  -21.8825   -3.8135   23.4351 C   0  0  0  0  0  0
  -21.9191   -4.6947   22.3404 C   0  0  0  0  0  0
  -22.7868  -13.5237   21.1829 C   0  0  0  0  0  0
  -22.1661   -4.2131   21.0983 F   0  0  0  0  0  0
  -21.5635   -3.4544   25.7746 F   0  0  0  0  0  0
  -30.0667  -13.1671   20.4537 N   0  0  0  0  0  0
  -26.3056  -12.9319   20.3372 N   0  0  0  0  0  0
  -25.9311  -11.6481   20.5749 N   0  0  0  0  0  0
  -22.0505  -12.8236   22.0391 N   0  0  0  0  0  0
  -25.4345  -15.1869   20.4078 N   0  0  0  0  0  0
  -31.7199  -14.7047   20.0664 O   0  0  0  0  0  0
  -21.6643   -6.8860   21.4238 O   0  0  0  0  0  0
  -22.3548  -14.5539   20.6678 O   0  0  0  0  0  0
  -24.6079  -31.8724   23.2139 C   0  0  0  0  0  0
  -25.8999  -32.4848   23.8417 C   0  0  1  0  0  0
  -27.2512  -27.5005   20.0859 C   0  0  0  0  0  0
  -25.5875  -33.8647   24.2350 N   0  0  0  0  0  0
  -23.3930  -30.4921   21.5540 C   0  0  2  0  0  0
  -24.8413  -28.9535   20.1263 C   0  0  0  0  0  0
  -22.7369  -29.4672   22.5057 C   0  0  0  0  0  0
  -18.0261  -28.1371   22.8488 C   0  0  0  0  0  0
  -24.1484  -36.7341   23.2633 C   0  0  0  0  0  0
  -25.9119  -30.8520   21.3588 C   0  0  0  0  0  0
  -25.9938  -29.4852   20.7188 C   0  0  0  0  0  0
  -27.2000  -28.7630   20.7009 C   0  0  0  0  0  0
  -26.0896  -26.9607   19.4937 C   0  0  0  0  0  0
  -24.8791  -27.6824   19.5198 C   0  0  0  0  0  0
  -23.5999  -29.8143   20.1715 C   0  0  0  0  0  0
  -25.4102  -36.3145   24.0341 C   0  0  1  0  0  0
  -20.5841  -28.3644   23.1343 C   0  0  2  0  0  0
  -20.6755  -26.9392   22.5425 C   0  0  0  0  0  0
  -19.5740  -26.6382   21.5213 C   0  0  0  0  0  0
  -18.1915  -26.7915   22.1620 C   0  0  0  0  0  0
  -19.1508  -28.8824   23.2906 C   0  0  0  0  0  0
  -18.9438  -30.1436   23.8904 C   0  0  0  0  0  0
  -17.6437  -30.6573   24.0562 C   0  0  0  0  0  0
  -25.9026  -34.9500   23.5144 C   0  0  0  0  0  0
  -16.5328  -29.9079   23.6323 C   0  0  0  0  0  0
  -16.7251  -28.6500   23.0328 C   0  0  0  0  0  0
  -26.4464  -31.6599   25.0717 C   0  0  0  0  0  0
  -25.3759  -31.3669   26.1486 C   0  0  0  0  0  0
  -27.0261  -30.3043   24.6039 C   0  0  0  0  0  0
  -27.6068  -32.4290   25.7466 C   0  0  0  0  0  0
  -27.5584  -37.1830   24.8464 C   0  0  0  0  0  0
  -21.4111  -29.3023   22.3766 N   0  0  0  0  0  0
  -26.4304  -37.3817   23.9402 N   0  0  0  0  0  0
  -24.6556  -31.0863   22.1018 N   0  0  0  0  0  0
  -23.4168  -28.8225   23.3087 O   0  0  0  0  0  0
  -28.4653  -26.8791   19.9723 O   0  0  0  0  0  0
  -26.5597  -34.8945   22.4707 O   0  0  0  0  0  0
  -23.5296  -32.1454   23.7582 O   0  0  0  0  0  0
  -31.4294  -17.8363   21.7652 C   0  0  0  0  0  0
  -28.7840  -18.2866   22.6064 C   0  0  0  0  0  0
  -30.7701  -16.8726   22.5531 C   0  0  0  0  0  0
  -29.4245  -19.2243   21.7718 C   0  0  0  0  0  0
  -29.4476  -17.1110   22.9966 C   0  0  0  0  0  0
  -30.7635  -19.0088   21.3704 C   0  0  0  0  0  0
  -28.1636  -23.9784   22.4888 C   0  0  0  0  0  0
  -29.5871  -23.3598   20.4905 C   0  0  0  0  0  0
  -27.6960  -25.2556   21.7714 C   0  0  0  0  0  0
  -29.1541  -24.6388   19.7694 C   0  0  0  0  0  0
  -28.4874  -22.8751   21.4608 C   0  0  1  0  0  0
  -28.7655  -25.7389   20.7641 C   0  0  2  0  0  0
  -31.4598  -15.5489   22.8150 C   0  0  0  0  0  0
  -28.6437  -20.4239   21.2774 C   0  0  0  0  0  0
  -30.7774  -14.4820   22.1032 N   0  0  0  0  0  0
  -28.8785  -21.6132   22.1182 N   0  3  0  0  0  0
  -28.5969  -15.9624   23.9698 Cl  0  0  0  0  0  0
  -31.6012  -20.1478   20.3762 Cl  0  0  0  0  0  0
  -31.4493  -12.3940   19.0258 H   0  0  0  0  0  0
  -30.3178  -11.2385   19.6703 H   0  0  0  0  0  0
  -29.6856  -11.8684   17.3410 H   0  0  0  0  0  0
  -29.6278  -13.5568   17.7858 H   0  0  0  0  0  0
  -27.8176  -11.3240   18.7830 H   0  0  0  0  0  0
  -27.3303  -12.6717   17.7893 H   0  0  0  0  0  0
  -27.7317  -14.2561   19.6076 H   0  0  0  0  0  0
  -28.6384  -11.9038   21.3363 H   0  0  0  0  0  0
  -28.4677  -13.5631   21.8449 H   0  0  0  0  0  0
  -25.2745   -9.5694   22.4750 H   0  0  0  0  0  0
  -23.9998   -7.4634   22.7475 H   0  0  0  0  0  0
  -21.0819   -8.8734   19.8966 H   0  0  0  0  0  0
  -22.3651  -10.9646   19.6148 H   0  0  0  0  0  0
  -21.1996   -7.6140   23.9702 H   0  0  0  0  0  0
  -21.1489   -6.0527   25.9080 H   0  0  0  0  0  0
  -22.0597   -2.7594   23.2858 H   0  0  0  0  0  0
  -22.4119  -11.9894   22.4787 H   0  0  0  0  0  0
  -21.1115  -13.1260   22.2589 H   0  0  0  0  0  0
  -24.6746  -15.8480   20.5267 H   0  0  0  0  0  0
  -26.3000  -15.6227   20.1152 H   0  0  0  0  0  0
  -26.7062  -32.5600   23.1188 H   0  0  0  0  0  0
  -25.0031  -33.9810   25.0502 H   0  0  0  0  0  0
  -22.6788  -31.3056   21.4123 H   0  0  0  0  0  0
  -23.3749  -35.9676   23.3336 H   0  0  0  0  0  0
  -24.3570  -36.8919   22.2040 H   0  0  0  0  0  0
  -23.7238  -37.6561   23.6616 H   0  0  0  0  0  0
  -26.0104  -31.6147   20.5852 H   0  0  0  0  0  0
  -26.8041  -30.9158   21.9690 H   0  0  0  0  0  0
  -28.0984  -29.1812   21.1351 H   0  0  0  0  0  0
  -26.1313  -26.0032   18.9949 H   0  0  0  0  0  0
  -23.9955  -27.2668   19.0556 H   0  0  0  0  0  0
  -23.7009  -30.5821   19.4032 H   0  0  0  0  0  0
  -22.7273  -29.2258   19.8837 H   0  0  0  0  0  0
  -25.1286  -36.2041   25.0840 H   0  0  0  0  0  0
  -20.9916  -28.3191   24.1472 H   0  0  0  0  0  0
  -20.5658  -26.2247   23.3603 H   0  0  0  0  0  0
  -21.6623  -26.7451   22.1208 H   0  0  0  0  0  0
  -19.6905  -25.6302   21.1224 H   0  0  0  0  0  0
  -19.6685  -27.3203   20.6752 H   0  0  0  0  0  0
  -17.4193  -26.6669   21.4017 H   0  0  0  0  0  0
  -18.0319  -26.0049   22.9011 H   0  0  0  0  0  0
  -19.7913  -30.7256   24.2269 H   0  0  0  0  0  0
  -17.4991  -31.6254   24.5165 H   0  0  0  0  0  0
  -15.5327  -30.2979   23.7636 H   0  0  0  0  0  0
  -15.8655  -28.0829   22.7019 H   0  0  0  0  0  0
  -24.5906  -30.7049   25.7813 H   0  0  0  0  0  0
  -24.8985  -32.2806   26.5030 H   0  0  0  0  0  0
  -25.8138  -30.8759   27.0182 H   0  0  0  0  0  0
  -26.2750  -29.6819   24.1147 H   0  0  0  0  0  0
  -27.4089  -29.7277   25.4468 H   0  0  0  0  0  0
  -27.8580  -30.4366   23.9114 H   0  0  0  0  0  0
  -27.2708  -33.3568   26.2107 H   0  0  0  0  0  0
  -28.3842  -32.6869   25.0261 H   0  0  0  0  0  0
  -28.0767  -31.8365   26.5326 H   0  0  0  0  0  0
  -28.2637  -38.0094   24.7502 H   0  0  0  0  0  0
  -28.1052  -36.2641   24.6319 H   0  0  0  0  0  0
  -27.2300  -37.1504   25.8864 H   0  0  0  0  0  0
  -20.9279  -29.8738   21.6979 H   0  0  0  0  0  0
  -26.0226  -38.2917   24.1381 H   0  0  0  0  0  0
  -32.4383  -17.6589   21.4209 H   0  0  0  0  0  0
  -27.7616  -18.4420   22.9206 H   0  0  0  0  0  0
  -27.3815  -23.6462   23.1734 H   0  0  0  0  0  0
  -29.0409  -24.1998   23.0999 H   0  0  0  0  0  0
  -30.5159  -23.5461   21.0326 H   0  0  0  0  0  0
  -29.8214  -22.6056   19.7403 H   0  0  0  0  0  0
  -27.4834  -26.0367   22.5030 H   0  0  0  0  0  0
  -26.7582  -25.0381   21.2611 H   0  0  0  0  0  0
  -28.3161  -24.4274   19.1034 H   0  0  0  0  0  0
  -29.9690  -24.9894   19.1348 H   0  0  0  0  0  0
  -27.5746  -22.6827   20.8904 H   0  0  0  0  0  0
  -29.6564  -26.0057   21.3346 H   0  0  0  0  0  0
  -31.4429  -15.3340   23.8843 H   0  0  0  0  0  0
  -32.5110  -15.5871   22.5225 H   0  0  0  0  0  0
  -27.5763  -20.1960   21.2670 H   0  0  0  0  0  0
  -28.9107  -20.6104   20.2369 H   0  0  0  0  0  0
  -30.1257  -13.9254   22.6350 H   0  0  0  0  0  0
  -28.3404  -21.4980   22.9620 H   0  0  0  0  0  0
  -29.8496  -21.6615   22.3797 H   0  0  0  0  0  0
  1 25  1  0  0  0
  1 30  2  0  0  0
  1 85  1  0  0  0
  2  3  1  0  0  0
  2 25  1  0  0  0
  2 89  1  0  0  0
  2 90  1  0  0  0
  3  4  1  0  0  0
  3 91  1  0  0  0
  3 92  1  0  0  0
  4  5  1  0  0  0
  4 93  1  0  0  0
  4 94  1  0  0  0
  5  6  1  0  0  0
  5 26  1  0  0  0
  5 95  1  0  0  0
  6 25  1  0  0  0
  6 96  1  0  0  0
  6 97  1  0  0  0
  7  8  2  0  0  0
  7 26  1  0  0  0
  7 29  1  0  0  0
  8  9  1  0  0  0
  8 22  1  0  0  0
  9 10  1  0  0  0
  9 27  2  0  0  0
 10 11  2  0  0  0
 10 15  1  0  0  0
 11 12  1  0  0  0
 11 98  1  0  0  0
 12 13  2  0  0  0
 12 99  1  0  0  0
 13 14  1  0  0  0
 13 31  1  0  0  0
 14 15  2  0  0  0
 14100  1  0  0  0
 15101  1  0  0  0
 16 17  2  0  0  0
 16 21  1  0  0  0
 16 31  1  0  0  0
 17 18  1  0  0  0
 17102  1  0  0  0
 18 19  2  0  0  0
 18103  1  0  0  0
 19 20  1  0  0  0
 19 24  1  0  0  0
 20 21  2  0  0  0
 20104  1  0  0  0
 21 23  1  0  0  0
 22 28  1  0  0  0
 22 32  2  0  0  0
 26 27  1  0  0  0
 28105  1  0  0  0
 28106  1  0  0  0
 29107  1  0  0  0
 29108  1  0  0  0
 33 34  1  0  0  0
 33 66  1  0  0  0
 33 70  2  0  0  0
 34 36  1  0  0  0
 34 59  1  0  0  0
 34109  1  0  0  0
 35 44  2  0  0  0
 35 45  1  0  0  0
 35 68  1  0  0  0
 36 56  1  0  0  0
 36110  1  0  0  0
 37 39  1  0  0  0
 37 47  1  0  0  0
 37 66  1  0  0  0
 37111  1  0  0  0
 38 43  2  0  0  0
 38 46  1  0  0  0
 38 47  1  0  0  0
 39 64  1  0  0  0
 39 67  2  0  0  0
 40 52  1  0  0  0
 40 53  2  0  0  0
 40 58  1  0  0  0
 41112  1  0  0  0
 41113  1  0  0  0
 41114  1  0  0  0
 41 48  1  0  0  0
 42 43  1  0  0  0
 42 66  1  0  0  0
 42115  1  0  0  0
 42116  1  0  0  0
 43 44  1  0  0  0
 44117  1  0  0  0
 45 46  2  0  0  0
 45118  1  0  0  0
 46119  1  0  0  0
 47120  1  0  0  0
 47121  1  0  0  0
 48 56  1  0  0  0
 48 65  1  0  0  0
 48122  1  0  0  0
 49 50  1  0  0  0
 49 53  1  0  0  0
 49 64  1  0  0  0
 49123  1  0  0  0
 50 51  1  0  0  0
 50124  1  0  0  0
 50125  1  0  0  0
 51 52  1  0  0  0
 51126  1  0  0  0
 51127  1  0  0  0
 52128  1  0  0  0
 52129  1  0  0  0
 53 54  1  0  0  0
 54 55  2  0  0  0
 54130  1  0  0  0
 55 57  1  0  0  0
 55131  1  0  0  0
 56 69  2  0  0  0
 57 58  2  0  0  0
 57132  1  0  0  0
 58133  1  0  0  0
 59 60  1  0  0  0
 59 61  1  0  0  0
 59 62  1  0  0  0
 60134  1  0  0  0
 60135  1  0  0  0
 60136  1  0  0  0
 61137  1  0  0  0
 61138  1  0  0  0
 61139  1  0  0  0
 62140  1  0  0  0
 62141  1  0  0  0
 62142  1  0  0  0
 63 65  1  0  0  0
 63143  1  0  0  0
 63144  1  0  0  0
 63145  1  0  0  0
 64146  1  0  0  0
 65147  1  0  0  0
 68 82  1  0  0  0
 71 73  2  0  0  0
 71 76  1  0  0  0
 71148  1  0  0  0
 72 74  1  0  0  0
 72 75  2  0  0  0
 72149  1  0  0  0
 73 75  1  0  0  0
 73 83  1  0  0  0
 74 76  2  0  0  0
 74 84  1  0  0  0
 75 87  1  0  0  0
 76 88  1  0  0  0
 77 79  1  0  0  0
 77 81  1  0  0  0
 77150  1  0  0  0
 77151  1  0  0  0
 78 80  1  0  0  0
 78 81  1  0  0  0
 78152  1  0  0  0
 78153  1  0  0  0
 79 82  1  0  0  0
 79154  1  0  0  0
 79155  1  0  0  0
 80 82  1  0  0  0
 80156  1  0  0  0
 80157  1  0  0  0
 81 86  1  0  0  0
 81158  1  0  0  0
 82159  1  0  0  0
 83 85  1  0  0  0
 83160  1  0  0  0
 83161  1  0  0  0
 84 86  1  0  0  0
 84162  1  0  0  0
 84163  1  0  0  0
 85164  1  0  0  0
 86165  1  0  0  0
 86166  1  0  0  0
M  CHG  1  86   1
M  ISO  4   1 100  68 101  82 101  85 100
M  END
> <chiral flag>
0

> <version>
0

> <s_m_source_file>
/data/baiqing/PycharmProjects/Reinvent-master-3.2/result/LINK_invent/BTK/process_docking_weight1_custom_sum_contain_oxygen_bond_distance_aromatic_linkinvent_7_9_3/rearranged_h_0029.sdf

> <i_m_source_file_index>
26

> <r_mmod_Potential_Energy-OPLS-2005>
-276.890594482422

> <r_mmod_Stretch_Energy-OPLS-2005>
29.7465400695801

> <r_mmod_Bend_Energy-OPLS-2005>
96.6603240966797

> <r_mmod_Torsional_Energy-OPLS-2005>
246.622329711914

> <r_mmod_Improper_Torsional_Energy-OPLS-2005>
5.29285001754761

> <r_mmod_Van_der_Waal_Energy-OPLS-2005>
146.724563598633

> <r_mmod_Electrostatic_Energy-OPLS-2005>
-356.37451171875

> <r_mmod_Solvation_Energy-OPLS-2005>
-459.728759765625

> <b_mmod_Minimization_Converged-OPLS-2005>
0

> <r_mmod_RMS_Derivative-OPLS-2005>
1.56722295284271

$$$$
26
                    3D
 Structure written by MMmdl.
168176  0  0  1  0            999 V2000
  -30.5456  -14.9367   20.4268 C   0  0  0  0  0  0
  -30.4403  -12.5828   19.4918 C   0  0  0  0  0  0
  -29.5194  -12.5292   18.2513 C   0  0  0  0  0  0
  -28.0522  -12.3175   18.6704 C   0  0  0  0  0  0
  -27.6295  -13.2477   19.8373 C   0  0  2  0  0  0
  -28.6734  -13.2708   20.9731 C   0  0  0  0  0  0
  -25.2459  -13.8212   20.5708 C   0  0  0  0  0  0
  -24.1779  -13.0437   20.9234 C   0  0  0  0  0  0
  -24.6395  -11.6923   20.8759 C   0  0  0  0  0  0
  -23.9079  -10.4293   21.0412 C   0  0  0  0  0  0
  -24.3627   -9.4205   21.9188 C   0  0  0  0  0  0
  -23.6299   -8.2241   22.0754 C   0  0  0  0  0  0
  -22.4280   -8.0281   21.3545 C   0  0  0  0  0  0
  -21.9920   -9.0256   20.4646 C   0  0  0  0  0  0
  -22.7251  -10.2135   20.3058 C   0  0  0  0  0  0
  -21.6854   -6.0735   22.5279 C   0  0  0  0  0  0
  -21.4015   -6.5640   23.8211 C   0  0  0  0  0  0
  -21.3661   -5.6793   24.9173 C   0  0  0  0  0  0
  -21.6042   -4.3055   24.7224 C   0  0  0  0  0  0
  -21.8820   -3.8147   23.4346 C   0  0  0  0  0  0
  -21.9194   -4.6963   22.3402 C   0  0  0  0  0  0
  -22.7798  -13.5207   21.1888 C   0  0  0  0  0  0
  -22.1662   -4.2149   21.0980 F   0  0  0  0  0  0
  -21.5630   -3.4538   25.7737 F   0  0  0  0  0  0
  -29.9486  -13.6799   20.3714 N   0  0  0  0  0  0
  -26.2885  -12.9447   20.3241 N   0  0  0  0  0  0
  -25.9327  -11.6577   20.5738 N   0  0  0  0  0  0
  -22.0453  -12.8191   22.0443 N   0  0  0  0  0  0
  -25.4111  -15.1937   20.4106 N   0  0  0  0  0  0
  -31.7540  -15.0028   20.1807 O   0  0  0  0  0  0
  -21.6641   -6.8879   21.4240 O   0  0  0  0  0  0
  -22.3475  -14.5509   20.6732 O   0  0  0  0  0  0
  -24.6446  -31.8443   23.1890 C   0  0  0  0  0  0
  -25.9217  -32.4697   23.8279 C   0  0  1  0  0  0
  -27.2114  -27.1287   20.1481 C   0  0  0  0  0  0
  -25.5961  -33.8503   24.2194 N   0  0  0  0  0  0
  -23.4479  -30.4653   21.5356 C   0  0  2  0  0  0
  -24.8954  -28.8935   20.1119 C   0  0  0  0  0  0
  -22.7573  -29.4551   22.4863 C   0  0  0  0  0  0
  -18.0306  -28.1397   22.8478 C   0  0  0  0  0  0
  -24.1491  -36.7253   23.2642 C   0  0  0  0  0  0
  -26.0057  -30.7154   21.3896 C   0  0  0  0  0  0
  -26.0753  -29.3268   20.7298 C   0  0  0  0  0  0
  -27.2356  -28.4620   20.7288 C   0  0  0  0  0  0
  -26.0030  -26.8027   19.4910 C   0  0  0  0  0  0
  -24.8730  -27.6450   19.4770 C   0  0  0  0  0  0
  -23.6740  -29.7974   20.1545 C   0  0  0  0  0  0
  -25.4124  -36.3033   24.0315 C   0  0  1  0  0  0
  -20.5919  -28.3725   23.1232 C   0  0  2  0  0  0
  -20.6791  -26.9428   22.5402 C   0  0  0  0  0  0
  -19.5763  -26.6383   21.5212 C   0  0  0  0  0  0
  -18.1944  -26.7936   22.1624 C   0  0  0  0  0  0
  -19.1562  -28.8880   23.2847 C   0  0  0  0  0  0
  -18.9478  -30.1474   23.8874 C   0  0  0  0  0  0
  -17.6474  -30.6593   24.0559 C   0  0  0  0  0  0
  -25.9076  -34.9408   23.5063 C   0  0  0  0  0  0
  -16.5365  -29.9085   23.6337 C   0  0  0  0  0  0
  -16.7290  -28.6503   23.0359 C   0  0  0  0  0  0
  -26.4532  -31.6566   25.0724 C   0  0  0  0  0  0
  -25.3710  -31.3756   26.1414 C   0  0  0  0  0  0
  -27.0401  -30.2962   24.6315 C   0  0  0  0  0  0
  -27.6058  -32.4337   25.7511 C   0  0  0  0  0  0
  -27.5578  -37.1783   24.8466 C   0  0  0  0  0  0
  -21.4265  -29.3052   22.3608 N   0  0  0  0  0  0
  -26.4287  -37.3748   23.9409 N   0  0  0  0  0  0
  -24.7195  -31.0294   22.0929 N   0  0  0  0  0  0
  -23.4212  -28.8098   23.3016 O   0  0  0  0  0  0
  -28.2593  -26.1342   20.2019 O   0  0  0  0  0  0
  -26.5661  -34.8906   22.4642 O   0  0  0  0  0  0
  -23.5563  -32.1324   23.7104 O   0  0  0  0  0  0
  -29.7066  -22.4154   17.6741 C   0  0  0  0  0  0
  -30.6239  -23.2516   18.3564 C   0  0  0  0  0  0
  -28.6165  -21.8627   18.3835 C   0  0  0  0  0  0
  -30.2553  -23.7584   19.6310 C   0  0  0  0  0  0
  -28.6706  -21.9328   19.7914 C   0  0  0  0  0  0
  -29.0045  -23.3523   20.1519 C   0  0  0  0  0  0
  -31.8691  -23.7445   17.6421 C   0  0  0  0  0  0
  -27.4405  -21.2561   17.6462 C   0  0  0  0  0  0
  -31.0273  -24.9022   20.2661 C   0  0  0  0  0  0
  -27.7065  -18.6057   20.6601 C   0  0  0  0  0  0
  -29.0842  -18.6501   18.5782 C   0  0  0  0  0  0
  -29.3940  -20.5690   20.4310 C   0  0  0  0  0  0
  -27.9295  -24.6051   20.1870 C   0  0  0  0  0  0
  -30.1000  -17.6595   20.6617 C   0  0  0  0  0  0
  -29.1071  -18.9071   20.0985 C   0  0  0  0  0  0
  -29.7618  -16.1148   20.5600 N   0  0  0  0  0  0
  -31.4736  -12.7425   19.1802 H   0  0  0  0  0  0
  -30.4323  -11.6301   20.0237 H   0  0  0  0  0  0
  -29.8362  -11.7324   17.5770 H   0  0  0  0  0  0
  -29.6085  -13.4603   17.6893 H   0  0  0  0  0  0
  -27.9457  -11.2758   18.9746 H   0  0  0  0  0  0
  -27.3889  -12.4540   17.8154 H   0  0  0  0  0  0
  -27.5941  -14.2510   19.4122 H   0  0  0  0  0  0
  -28.7580  -12.2940   21.4515 H   0  0  0  0  0  0
  -28.3762  -13.9730   21.7537 H   0  0  0  0  0  0
  -25.2771   -9.5682   22.4763 H   0  0  0  0  0  0
  -24.0007   -7.4631   22.7474 H   0  0  0  0  0  0
  -21.0852   -8.8778   19.8949 H   0  0  0  0  0  0
  -22.3710  -10.9676   19.6169 H   0  0  0  0  0  0
  -21.2007   -7.6147   23.9714 H   0  0  0  0  0  0
  -21.1484   -6.0523   25.9076 H   0  0  0  0  0  0
  -22.0597   -2.7610   23.2846 H   0  0  0  0  0  0
  -22.4080  -11.9857   22.4831 H   0  0  0  0  0  0
  -21.1067  -13.1202   22.2650 H   0  0  0  0  0  0
  -24.6370  -15.8406   20.5152 H   0  0  0  0  0  0
  -26.2425  -15.6307   20.0375 H   0  0  0  0  0  0
  -26.7282  -32.5298   23.1006 H   0  0  0  0  0  0
  -25.0088  -33.9618   25.0328 H   0  0  0  0  0  0
  -22.7505  -31.2917   21.3827 H   0  0  0  0  0  0
  -23.3762  -35.9575   23.3289 H   0  0  0  0  0  0
  -24.3574  -36.8902   22.2060 H   0  0  0  0  0  0
  -23.7235  -37.6440   23.6689 H   0  0  0  0  0  0
  -26.1642  -31.4700   20.6180 H   0  0  0  0  0  0
  -26.8751  -30.7633   22.0336 H   0  0  0  0  0  0
  -28.1349  -28.7898   21.2308 H   0  0  0  0  0  0
  -25.8865  -25.8582   18.9853 H   0  0  0  0  0  0
  -23.9738  -27.3097   18.9783 H   0  0  0  0  0  0
  -23.8124  -30.5732   19.4005 H   0  0  0  0  0  0
  -22.7877  -29.2420   19.8424 H   0  0  0  0  0  0
  -25.1311  -36.1861   25.0808 H   0  0  0  0  0  0
  -21.0009  -28.3316   24.1355 H   0  0  0  0  0  0
  -20.5686  -26.2340   23.3623 H   0  0  0  0  0  0
  -21.6656  -26.7436   22.1199 H   0  0  0  0  0  0
  -19.6925  -25.6289   21.1258 H   0  0  0  0  0  0
  -19.6698  -27.3179   20.6731 H   0  0  0  0  0  0
  -17.4214  -26.6681   21.4028 H   0  0  0  0  0  0
  -18.0343  -26.0083   22.9025 H   0  0  0  0  0  0
  -19.7952  -30.7297   24.2233 H   0  0  0  0  0  0
  -17.5026  -31.6270   24.5168 H   0  0  0  0  0  0
  -15.5364  -30.2979   23.7673 H   0  0  0  0  0  0
  -15.8691  -28.0812   22.7090 H   0  0  0  0  0  0
  -24.5901  -30.7093   25.7733 H   0  0  0  0  0  0
  -24.8885  -32.2936   26.4778 H   0  0  0  0  0  0
  -25.7988  -30.8971   27.0233 H   0  0  0  0  0  0
  -26.3025  -29.6680   24.1308 H   0  0  0  0  0  0
  -27.3995  -29.7266   25.4896 H   0  0  0  0  0  0
  -27.8941  -30.4197   23.9651 H   0  0  0  0  0  0
  -27.2649  -33.3660   26.2027 H   0  0  0  0  0  0
  -28.3899  -32.6864   25.0361 H   0  0  0  0  0  0
  -28.0692  -31.8505   26.5478 H   0  0  0  0  0  0
  -28.2584  -38.0091   24.7519 H   0  0  0  0  0  0
  -28.1084  -36.2620   24.6284 H   0  0  0  0  0  0
  -27.2294  -37.1421   25.8869 H   0  0  0  0  0  0
  -20.9478  -29.8762   21.6783 H   0  0  0  0  0  0
  -26.0153  -38.2815   24.1416 H   0  0  0  0  0  0
  -29.8192  -22.2283   16.6146 H   0  0  0  0  0  0
  -32.0316  -23.2023   16.7101 H   0  0  0  0  0  0
  -32.7520  -23.6032   18.2658 H   0  0  0  0  0  0
  -31.7807  -24.8048   17.4039 H   0  0  0  0  0  0
  -27.7719  -20.6317   16.8162 H   0  0  0  0  0  0
  -26.8217  -22.0521   17.2314 H   0  0  0  0  0  0
  -26.8089  -20.6691   18.3124 H   0  0  0  0  0  0
  -32.0777  -24.6384   20.3895 H   0  0  0  0  0  0
  -30.6295  -25.1430   21.2524 H   0  0  0  0  0  0
  -30.9653  -25.7978   19.6477 H   0  0  0  0  0  0
  -26.9675  -19.3182   20.2930 H   0  0  0  0  0  0
  -27.7002  -18.6653   21.7489 H   0  0  0  0  0  0
  -27.3617  -17.6097   20.3837 H   0  0  0  0  0  0
  -28.1134  -18.8524   18.1392 H   0  0  0  0  0  0
  -29.2808  -17.6060   18.3331 H   0  0  0  0  0  0
  -29.8393  -19.2427   18.0610 H   0  0  0  0  0  0
  -29.3094  -20.6886   21.5113 H   0  0  0  0  0  0
  -30.4564  -20.7219   20.2375 H   0  0  0  0  0  0
  -27.2707  -24.4196   21.0356 H   0  0  0  0  0  0
  -27.3267  -24.4127   19.3024 H   0  0  0  0  0  0
  -30.2650  -17.8440   21.7240 H   0  0  0  0  0  0
  -31.0848  -17.7920   20.2113 H   0  0  0  0  0  0
  -28.7805  -15.9134   20.6757 H   0  0  0  0  0  0
  1 25  1  0  0  0
  1 30  2  0  0  0
  1 86  1  0  0  0
  2  3  1  0  0  0
  2 25  1  0  0  0
  2 87  1  0  0  0
  2 88  1  0  0  0
  3  4  1  0  0  0
  3 89  1  0  0  0
  3 90  1  0  0  0
  4  5  1  0  0  0
  4 91  1  0  0  0
  4 92  1  0  0  0
  5  6  1  0  0  0
  5 26  1  0  0  0
  5 93  1  0  0  0
  6 25  1  0  0  0
  6 94  1  0  0  0
  6 95  1  0  0  0
  7  8  2  0  0  0
  7 26  1  0  0  0
  7 29  1  0  0  0
  8  9  1  0  0  0
  8 22  1  0  0  0
  9 10  1  0  0  0
  9 27  2  0  0  0
 10 11  2  0  0  0
 10 15  1  0  0  0
 11 12  1  0  0  0
 11 96  1  0  0  0
 12 13  2  0  0  0
 12 97  1  0  0  0
 13 14  1  0  0  0
 13 31  1  0  0  0
 14 15  2  0  0  0
 14 98  1  0  0  0
 15 99  1  0  0  0
 16 17  2  0  0  0
 16 21  1  0  0  0
 16 31  1  0  0  0
 17 18  1  0  0  0
 17100  1  0  0  0
 18 19  2  0  0  0
 18101  1  0  0  0
 19 20  1  0  0  0
 19 24  1  0  0  0
 20 21  2  0  0  0
 20102  1  0  0  0
 21 23  1  0  0  0
 22 28  1  0  0  0
 22 32  2  0  0  0
 26 27  1  0  0  0
 28103  1  0  0  0
 28104  1  0  0  0
 29105  1  0  0  0
 29106  1  0  0  0
 33 34  1  0  0  0
 33 66  1  0  0  0
 33 70  2  0  0  0
 34 36  1  0  0  0
 34 59  1  0  0  0
 34107  1  0  0  0
 35 44  2  0  0  0
 35 45  1  0  0  0
 35 68  1  0  0  0
 36 56  1  0  0  0
 36108  1  0  0  0
 37 39  1  0  0  0
 37 47  1  0  0  0
 37 66  1  0  0  0
 37109  1  0  0  0
 38 43  2  0  0  0
 38 46  1  0  0  0
 38 47  1  0  0  0
 39 64  1  0  0  0
 39 67  2  0  0  0
 40 52  1  0  0  0
 40 53  2  0  0  0
 40 58  1  0  0  0
 41110  1  0  0  0
 41111  1  0  0  0
 41112  1  0  0  0
 41 48  1  0  0  0
 42 43  1  0  0  0
 42 66  1  0  0  0
 42113  1  0  0  0
 42114  1  0  0  0
 43 44  1  0  0  0
 44115  1  0  0  0
 45 46  2  0  0  0
 45116  1  0  0  0
 46117  1  0  0  0
 47118  1  0  0  0
 47119  1  0  0  0
 48 56  1  0  0  0
 48 65  1  0  0  0
 48120  1  0  0  0
 49 50  1  0  0  0
 49 53  1  0  0  0
 49 64  1  0  0  0
 49121  1  0  0  0
 50 51  1  0  0  0
 50122  1  0  0  0
 50123  1  0  0  0
 51 52  1  0  0  0
 51124  1  0  0  0
 51125  1  0  0  0
 52126  1  0  0  0
 52127  1  0  0  0
 53 54  1  0  0  0
 54 55  2  0  0  0
 54128  1  0  0  0
 55 57  1  0  0  0
 55129  1  0  0  0
 56 69  2  0  0  0
 57 58  2  0  0  0
 57130  1  0  0  0
 58131  1  0  0  0
 59 60  1  0  0  0
 59 61  1  0  0  0
 59 62  1  0  0  0
 60132  1  0  0  0
 60133  1  0  0  0
 60134  1  0  0  0
 61135  1  0  0  0
 61136  1  0  0  0
 61137  1  0  0  0
 62138  1  0  0  0
 62139  1  0  0  0
 62140  1  0  0  0
 63 65  1  0  0  0
 63141  1  0  0  0
 63142  1  0  0  0
 63143  1  0  0  0
 64144  1  0  0  0
 65145  1  0  0  0
 68 83  1  0  0  0
 71 72  2  0  0  0
 71 73  1  0  0  0
 71146  1  0  0  0
 72 74  1  0  0  0
 72 77  1  0  0  0
 73 75  2  0  0  0
 73 78  1  0  0  0
 74 76  2  0  0  0
 74 79  1  0  0  0
 75 76  1  0  0  0
 75 82  1  0  0  0
 76 83  1  0  0  0
 77147  1  0  0  0
 77148  1  0  0  0
 77149  1  0  0  0
 78150  1  0  0  0
 78151  1  0  0  0
 78152  1  0  0  0
 79153  1  0  0  0
 79154  1  0  0  0
 79155  1  0  0  0
 80156  1  0  0  0
 80157  1  0  0  0
 80158  1  0  0  0
 80 85  1  0  0  0
 81 85  1  0  0  0
 81159  1  0  0  0
 81160  1  0  0  0
 81161  1  0  0  0
 82 85  1  0  0  0
 82162  1  0  0  0
 82163  1  0  0  0
 83164  1  0  0  0
 83165  1  0  0  0
 84 85  1  0  0  0
 84 86  1  0  0  0
 84166  1  0  0  0
 84167  1  0  0  0
 86168  1  0  0  0
M  ISO  4   1 100  68 101  83 101  86 100
M  END
> <chiral flag>
0

> <version>
0

> <s_m_source_file>
/data/baiqing/PycharmProjects/Reinvent-master-3.2/result/LINK_invent/BTK/process_docking_weight1_custom_sum_contain_oxygen_bond_distance_aromatic_linkinvent_7_9_3/rearranged_h_0029.sdf

> <i_m_source_file_index>
27

> <r_mmod_Potential_Energy-OPLS-2005>
816.319519042969

> <r_mmod_Stretch_Energy-OPLS-2005>
289.274291992188

> <r_mmod_Bend_Energy-OPLS-2005>
277.820343017578

> <r_mmod_Torsional_Energy-OPLS-2005>
493.761871337891

> <r_mmod_Improper_Torsional_Energy-OPLS-2005>
38.6865844726562

> <r_mmod_Van_der_Waal_Energy-OPLS-2005>
137.822998046875

> <r_mmod_Electrostatic_Energy-OPLS-2005>
-415.562835693359

> <r_mmod_Solvation_Energy-OPLS-2005>
-197.296295166016

> <b_mmod_Minimization_Converged-OPLS-2005>
0

> <r_mmod_RMS_Derivative-OPLS-2005>
0.392827898263931

$$$$
27
                    3D
 Structure written by MMmdl.
164172  0  0  1  0            999 V2000
  -30.6049  -14.4716   20.5350 C   0  0  0  0  0  0
  -30.4303  -12.2877   19.4118 C   0  0  0  0  0  0
  -29.4908  -12.4892   18.2013 C   0  0  0  0  0  0
  -28.0070  -12.3540   18.6105 C   0  0  0  0  0  0
  -27.6574  -13.1786   19.8773 C   0  0  2  0  0  0
  -28.6962  -12.9039   20.9889 C   0  0  0  0  0  0
  -25.2568  -13.8059   20.5627 C   0  0  0  0  0  0
  -24.1815  -13.0416   20.9179 C   0  0  0  0  0  0
  -24.6313  -11.6854   20.8744 C   0  0  0  0  0  0
  -23.8986  -10.4266   21.0425 C   0  0  0  0  0  0
  -24.3554   -9.4176   21.9197 C   0  0  0  0  0  0
  -23.6239   -8.2216   22.0758 C   0  0  0  0  0  0
  -22.4240   -8.0245   21.3528 C   0  0  0  0  0  0
  -21.9852   -9.0223   20.4651 C   0  0  0  0  0  0
  -22.7162  -10.2105   20.3062 C   0  0  0  0  0  0
  -21.6835   -6.0710   22.5285 C   0  0  0  0  0  0
  -21.3999   -6.5623   23.8214 C   0  0  0  0  0  0
  -21.3655   -5.6780   24.9178 C   0  0  0  0  0  0
  -21.6051   -4.3045   24.7233 C   0  0  0  0  0  0
  -21.8819   -3.8131   23.4354 C   0  0  0  0  0  0
  -21.9186   -4.6943   22.3407 C   0  0  0  0  0  0
  -22.7844  -13.5233   21.1857 C   0  0  0  0  0  0
  -22.1659   -4.2122   21.0984 F   0  0  0  0  0  0
  -21.5634   -3.4534   25.7750 F   0  0  0  0  0  0
  -30.0234  -13.2451   20.4476 N   0  0  0  0  0  0
  -26.2974  -12.9178   20.3325 N   0  0  0  0  0  0
  -25.9218  -11.6371   20.5765 N   0  0  0  0  0  0
  -22.0470  -12.8260   22.0411 N   0  0  0  0  0  0
  -25.4317  -15.1765   20.3934 N   0  0  0  0  0  0
  -31.7391  -14.7208   20.1095 O   0  0  0  0  0  0
  -21.6615   -6.8833   21.4235 O   0  0  0  0  0  0
  -22.3556  -14.5558   20.6701 O   0  0  0  0  0  0
  -24.6154  -31.8603   23.2080 C   0  0  0  0  0  0
  -25.9030  -32.4781   23.8415 C   0  0  1  0  0  0
  -27.2138  -27.4218   20.0743 C   0  0  0  0  0  0
  -25.5878  -33.8586   24.2353 N   0  0  0  0  0  0
  -23.3991  -30.4851   21.5545 C   0  0  2  0  0  0
  -24.8354  -28.9589   20.1192 C   0  0  0  0  0  0
  -22.7304  -29.4587   22.5032 C   0  0  0  0  0  0
  -17.9883  -28.1724   22.8395 C   0  0  0  0  0  0
  -24.1471  -36.7338   23.2652 C   0  0  0  0  0  0
  -25.9302  -30.8318   21.3496 C   0  0  0  0  0  0
  -26.0054  -29.4695   20.6939 C   0  0  0  0  0  0
  -27.2020  -28.7129   20.6555 C   0  0  0  0  0  0
  -26.0115  -26.9200   19.5284 C   0  0  0  0  0  0
  -24.8328  -27.6804   19.5406 C   0  0  0  0  0  0
  -23.5978  -29.8206   20.1724 C   0  0  0  0  0  0
  -25.4092  -36.3139   24.0372 C   0  0  1  0  0  0
  -20.5594  -28.3549   23.1218 C   0  0  2  0  0  0
  -20.6221  -26.9286   22.5330 C   0  0  0  0  0  0
  -19.5032  -26.6444   21.5131 C   0  0  0  0  0  0
  -18.1204  -26.8292   22.1365 C   0  0  0  0  0  0
  -19.1285  -28.8907   23.2894 C   0  0  0  0  0  0
  -18.9482  -30.1368   23.9245 C   0  0  0  0  0  0
  -17.6582  -30.6754   24.1012 C   0  0  0  0  0  0
  -25.9012  -34.9456   23.5159 C   0  0  0  0  0  0
  -16.5336  -29.9641   23.6526 C   0  0  0  0  0  0
  -16.6939  -28.7088   23.0353 C   0  0  0  0  0  0
  -26.4433  -31.6590   25.0753 C   0  0  0  0  0  0
  -25.3727  -31.3647   26.1531 C   0  0  0  0  0  0
  -27.0243  -30.3052   24.6067 C   0  0  0  0  0  0
  -27.6029  -32.4291   25.7500 C   0  0  0  0  0  0
  -27.5577  -37.1824   24.8469 C   0  0  0  0  0  0
  -21.4023  -29.2913   22.3754 N   0  0  0  0  0  0
  -26.4294  -37.3810   23.9405 N   0  0  0  0  0  0
  -24.6702  -31.0682   22.1009 N   0  0  0  0  0  0
  -23.4064  -28.8182   23.3126 O   0  0  0  0  0  0
  -28.3847  -26.6866   20.0397 O   0  0  0  0  0  0
  -26.5589  -34.8897   22.4698 O   0  0  0  0  0  0
  -23.5350  -32.1352   23.7521 O   0  0  0  0  0  0
  -27.1842  -21.7371   19.3192 C   0  0  0  0  0  0
  -25.0338  -20.8443   20.0236 C   0  0  0  0  0  0
  -26.5347  -22.8311   18.6722 C   0  0  0  0  0  0
  -25.1011  -22.8655   18.6451 C   0  0  0  0  0  0
  -26.4374  -20.7201   19.9684 C   0  0  0  0  0  0
  -24.3663  -21.8919   19.3685 C   0  0  0  0  0  0
  -24.3146  -23.9142   17.8706 C   0  0  0  0  0  0
  -27.3811  -23.9024   17.9603 C   0  0  0  0  0  0
  -28.5873  -24.5232   18.7231 C   0  0  0  0  0  0
  -28.3949  -17.5286   20.6746 C   0  0  0  0  0  0
  -28.3172  -19.0338   20.3041 C   0  0  0  0  0  0
  -29.7864  -16.8599   20.5326 C   0  0  0  0  0  0
  -28.3009  -25.2471   20.0681 C   0  0  0  0  0  0
  -26.9827  -19.5656   20.5734 N   0  0  0  0  0  0
  -29.7382  -15.4355   20.8927 N   0  0  0  0  0  0
  -22.6352  -21.9764   19.4759 Cl  0  0  0  0  0  0
  -31.4728  -12.4152   19.1128 H   0  0  0  0  0  0
  -30.3514  -11.2678   19.7909 H   0  0  0  0  0  0
  -29.7280  -11.7685   17.4172 H   0  0  0  0  0  0
  -29.6590  -13.4771   17.7650 H   0  0  0  0  0  0
  -27.8085  -11.2949   18.7905 H   0  0  0  0  0  0
  -27.3599  -12.6406   17.7798 H   0  0  0  0  0  0
  -27.7107  -14.2289   19.5925 H   0  0  0  0  0  0
  -28.6763  -11.8447   21.2552 H   0  0  0  0  0  0
  -28.4611  -13.4377   21.9095 H   0  0  0  0  0  0
  -25.2687   -9.5681   22.4770 H   0  0  0  0  0  0
  -23.9968   -7.4603   22.7459 H   0  0  0  0  0  0
  -21.0787   -8.8706   19.8945 H   0  0  0  0  0  0
  -22.3595  -10.9640   19.6180 H   0  0  0  0  0  0
  -21.1983   -7.6127   23.9703 H   0  0  0  0  0  0
  -21.1485   -6.0515   25.9077 H   0  0  0  0  0  0
  -22.0604   -2.7588   23.2866 H   0  0  0  0  0  0
  -22.4054  -11.9915   22.4818 H   0  0  0  0  0  0
  -21.1100  -13.1315   22.2635 H   0  0  0  0  0  0
  -24.6507  -15.8204   20.4495 H   0  0  0  0  0  0
  -26.2631  -15.5940   20.0015 H   0  0  0  0  0  0
  -26.7118  -32.5464   23.1191 H   0  0  0  0  0  0
  -25.0070  -33.9770   25.0547 H   0  0  0  0  0  0
  -22.6914  -31.3076   21.4183 H   0  0  0  0  0  0
  -23.3736  -35.9665   23.3327 H   0  0  0  0  0  0
  -24.3594  -36.8920   22.2068 H   0  0  0  0  0  0
  -23.7211  -37.6538   23.6629 H   0  0  0  0  0  0
  -26.0248  -31.5975   20.5816 H   0  0  0  0  0  0
  -26.8280  -30.8911   21.9555 H   0  0  0  0  0  0
  -28.1145  -29.1088   21.0836 H   0  0  0  0  0  0
  -25.9609  -25.9363   19.1074 H   0  0  0  0  0  0
  -23.9228  -27.2699   19.1288 H   0  0  0  0  0  0
  -23.6845  -30.5895   19.4044 H   0  0  0  0  0  0
  -22.7261  -29.2281   19.8911 H   0  0  0  0  0  0
  -25.1244  -36.2046   25.0881 H   0  0  0  0  0  0
  -20.9863  -28.3090   24.1296 H   0  0  0  0  0  0
  -21.6066  -26.7020   22.1223 H   0  0  0  0  0  0
  -20.4677  -26.2283   23.3535 H   0  0  0  0  0  0
  -19.5530  -25.6381   21.1073 H   0  0  0  0  0  0
  -19.6119  -27.3118   20.6628 H   0  0  0  0  0  0
  -17.3505  -26.7279   21.3643 H   0  0  0  0  0  0
  -17.9145  -26.0414   22.8616 H   0  0  0  0  0  0
  -19.8019  -30.6817   24.2924 H   0  0  0  0  0  0
  -17.5371  -31.6294   24.6024 H   0  0  0  0  0  0
  -15.5492  -30.3895   23.7880 H   0  0  0  0  0  0
  -15.8162  -28.1824   22.6953 H   0  0  0  0  0  0
  -24.5942  -30.6917   25.7911 H   0  0  0  0  0  0
  -24.8847  -32.2737   26.5026 H   0  0  0  0  0  0
  -25.8150  -30.8833   27.0264 H   0  0  0  0  0  0
  -26.2771  -29.6873   24.1051 H   0  0  0  0  0  0
  -27.3965  -29.7217   25.4504 H   0  0  0  0  0  0
  -27.8619  -30.4418   23.9233 H   0  0  0  0  0  0
  -27.2686  -33.3606   26.2064 H   0  0  0  0  0  0
  -28.3816  -32.6808   25.0300 H   0  0  0  0  0  0
  -28.0682  -31.8407   26.5404 H   0  0  0  0  0  0
  -28.2612  -38.0115   24.7500 H   0  0  0  0  0  0
  -28.1066  -36.2630   24.6304 H   0  0  0  0  0  0
  -27.2300  -37.1492   25.8884 H   0  0  0  0  0  0
  -20.9182  -29.8563   21.6947 H   0  0  0  0  0  0
  -26.0211  -38.2900   24.1364 H   0  0  0  0  0  0
  -28.2639  -21.6794   19.2802 H   0  0  0  0  0  0
  -24.4405  -20.1146   20.5599 H   0  0  0  0  0  0
  -24.8288  -24.3212   17.0045 H   0  0  0  0  0  0
  -24.0361  -24.7246   18.5413 H   0  0  0  0  0  0
  -23.3946  -23.4951   17.4556 H   0  0  0  0  0  0
  -27.7551  -23.4478   17.0447 H   0  0  0  0  0  0
  -26.7724  -24.7251   17.6184 H   0  0  0  0  0  0
  -29.1172  -25.2229   18.0726 H   0  0  0  0  0  0
  -29.2874  -23.7093   18.9155 H   0  0  0  0  0  0
  -27.6959  -16.9836   20.0416 H   0  0  0  0  0  0
  -28.0343  -17.4001   21.6971 H   0  0  0  0  0  0
  -28.5679  -19.1728   19.2501 H   0  0  0  0  0  0
  -29.0320  -19.6009   20.9036 H   0  0  0  0  0  0
  -30.5234  -17.3676   21.1545 H   0  0  0  0  0  0
  -30.1221  -16.9485   19.4966 H   0  0  0  0  0  0
  -29.0936  -24.9538   20.7555 H   0  0  0  0  0  0
  -27.3928  -24.8771   20.5392 H   0  0  0  0  0  0
  -26.3160  -18.8995   20.9582 H   0  0  0  0  0  0
  -28.8560  -15.0964   21.2473 H   0  0  0  0  0  0
  1 25  1  0  0  0
  1 30  2  0  0  0
  1 85  1  0  0  0
  2  3  1  0  0  0
  2 25  1  0  0  0
  2 87  1  0  0  0
  2 88  1  0  0  0
  3  4  1  0  0  0
  3 89  1  0  0  0
  3 90  1  0  0  0
  4  5  1  0  0  0
  4 91  1  0  0  0
  4 92  1  0  0  0
  5  6  1  0  0  0
  5 26  1  0  0  0
  5 93  1  0  0  0
  6 25  1  0  0  0
  6 94  1  0  0  0
  6 95  1  0  0  0
  7  8  2  0  0  0
  7 26  1  0  0  0
  7 29  1  0  0  0
  8  9  1  0  0  0
  8 22  1  0  0  0
  9 10  1  0  0  0
  9 27  2  0  0  0
 10 11  2  0  0  0
 10 15  1  0  0  0
 11 12  1  0  0  0
 11 96  1  0  0  0
 12 13  2  0  0  0
 12 97  1  0  0  0
 13 14  1  0  0  0
 13 31  1  0  0  0
 14 15  2  0  0  0
 14 98  1  0  0  0
 15 99  1  0  0  0
 16 17  2  0  0  0
 16 21  1  0  0  0
 16 31  1  0  0  0
 17 18  1  0  0  0
 17100  1  0  0  0
 18 19  2  0  0  0
 18101  1  0  0  0
 19 20  1  0  0  0
 19 24  1  0  0  0
 20 21  2  0  0  0
 20102  1  0  0  0
 21 23  1  0  0  0
 22 28  1  0  0  0
 22 32  2  0  0  0
 26 27  1  0  0  0
 28103  1  0  0  0
 28104  1  0  0  0
 29105  1  0  0  0
 29106  1  0  0  0
 33 34  1  0  0  0
 33 66  1  0  0  0
 33 70  2  0  0  0
 34 36  1  0  0  0
 34 59  1  0  0  0
 34107  1  0  0  0
 35 44  2  0  0  0
 35 45  1  0  0  0
 35 68  1  0  0  0
 36 56  1  0  0  0
 36108  1  0  0  0
 37 39  1  0  0  0
 37 47  1  0  0  0
 37 66  1  0  0  0
 37109  1  0  0  0
 38 43  2  0  0  0
 38 46  1  0  0  0
 38 47  1  0  0  0
 39 64  1  0  0  0
 39 67  2  0  0  0
 40 52  1  0  0  0
 40 53  2  0  0  0
 40 58  1  0  0  0
 41110  1  0  0  0
 41111  1  0  0  0
 41112  1  0  0  0
 41 48  1  0  0  0
 42 43  1  0  0  0
 42 66  1  0  0  0
 42113  1  0  0  0
 42114  1  0  0  0
 43 44  1  0  0  0
 44115  1  0  0  0
 45 46  2  0  0  0
 45116  1  0  0  0
 46117  1  0  0  0
 47118  1  0  0  0
 47119  1  0  0  0
 48 56  1  0  0  0
 48 65  1  0  0  0
 48120  1  0  0  0
 49 50  1  0  0  0
 49 53  1  0  0  0
 49 64  1  0  0  0
 49121  1  0  0  0
 50 51  1  0  0  0
 50122  1  0  0  0
 50123  1  0  0  0
 51 52  1  0  0  0
 51124  1  0  0  0
 51125  1  0  0  0
 52126  1  0  0  0
 52127  1  0  0  0
 53 54  1  0  0  0
 54 55  2  0  0  0
 54128  1  0  0  0
 55 57  1  0  0  0
 55129  1  0  0  0
 56 69  2  0  0  0
 57 58  2  0  0  0
 57130  1  0  0  0
 58131  1  0  0  0
 59 60  1  0  0  0
 59 61  1  0  0  0
 59 62  1  0  0  0
 60132  1  0  0  0
 60133  1  0  0  0
 60134  1  0  0  0
 61135  1  0  0  0
 61136  1  0  0  0
 61137  1  0  0  0
 62138  1  0  0  0
 62139  1  0  0  0
 62140  1  0  0  0
 63 65  1  0  0  0
 63141  1  0  0  0
 63142  1  0  0  0
 63143  1  0  0  0
 64144  1  0  0  0
 65145  1  0  0  0
 68 83  1  0  0  0
 71 73  2  0  0  0
 71 75  1  0  0  0
 71146  1  0  0  0
 72 75  2  0  0  0
 72 76  1  0  0  0
 72147  1  0  0  0
 73 74  1  0  0  0
 73 78  1  0  0  0
 74 76  2  0  0  0
 74 77  1  0  0  0
 75 84  1  0  0  0
 76 86  1  0  0  0
 77148  1  0  0  0
 77149  1  0  0  0
 77150  1  0  0  0
 78 79  1  0  0  0
 78151  1  0  0  0
 78152  1  0  0  0
 79 83  1  0  0  0
 79153  1  0  0  0
 79154  1  0  0  0
 80 81  1  0  0  0
 80 82  1  0  0  0
 80155  1  0  0  0
 80156  1  0  0  0
 81 84  1  0  0  0
 81157  1  0  0  0
 81158  1  0  0  0
 82 85  1  0  0  0
 82159  1  0  0  0
 82160  1  0  0  0
 83161  1  0  0  0
 83162  1  0  0  0
 84163  1  0  0  0
 85164  1  0  0  0
M  ISO  4   1 100  68 101  83 101  85 100
M  END
> <chiral flag>
0

> <version>
0

> <s_m_source_file>
/data/baiqing/PycharmProjects/Reinvent-master-3.2/result/LINK_invent/BTK/process_docking_weight1_custom_sum_contain_oxygen_bond_distance_aromatic_linkinvent_7_9_3/rearranged_h_0029.sdf

> <i_m_source_file_index>
28

> <r_mmod_Potential_Energy-OPLS-2005>
-19.1825656890869

> <r_mmod_Stretch_Energy-OPLS-2005>
45.042797088623

> <r_mmod_Bend_Energy-OPLS-2005>
128.203582763672

> <r_mmod_Torsional_Energy-OPLS-2005>
212.630981445312

> <r_mmod_Improper_Torsional_Energy-OPLS-2005>
8.46960735321045

> <r_mmod_Van_der_Waal_Energy-OPLS-2005>
147.945358276367

> <r_mmod_Electrostatic_Energy-OPLS-2005>
-362.700897216797

> <r_mmod_Solvation_Energy-OPLS-2005>
-218.572952270508

> <b_mmod_Minimization_Converged-OPLS-2005>
0

> <r_mmod_RMS_Derivative-OPLS-2005>
10.3371953964233

$$$$
28
                    3D
 Structure written by MMmdl.
159167  0  0  1  0            999 V2000
  -30.4182  -15.3251   20.3584 C   0  0  0  0  0  0
  -30.4362  -12.8478   19.5388 C   0  0  0  0  0  0
  -29.5399  -12.5906   18.2997 C   0  0  0  0  0  0
  -28.0912  -12.3019   18.7267 C   0  0  0  0  0  0
  -27.6101  -13.2818   19.8249 C   0  0  2  0  0  0
  -28.6393  -13.4811   20.9599 C   0  0  0  0  0  0
  -25.2378  -13.8257   20.5759 C   0  0  0  0  0  0
  -24.1736  -13.0438   20.9266 C   0  0  0  0  0  0
  -24.6398  -11.6937   20.8763 C   0  0  0  0  0  0
  -23.9095  -10.4293   21.0402 C   0  0  0  0  0  0
  -24.3637   -9.4207   21.9182 C   0  0  0  0  0  0
  -23.6305   -8.2244   22.0753 C   0  0  0  0  0  0
  -22.4287   -8.0282   21.3544 C   0  0  0  0  0  0
  -21.9928   -9.0257   20.4644 C   0  0  0  0  0  0
  -22.7264  -10.2133   20.3053 C   0  0  0  0  0  0
  -21.6857   -6.0737   22.5278 C   0  0  0  0  0  0
  -21.4017   -6.5640   23.8212 C   0  0  0  0  0  0
  -21.3661   -5.6794   24.9174 C   0  0  0  0  0  0
  -21.6044   -4.3056   24.7225 C   0  0  0  0  0  0
  -21.8818   -3.8147   23.4346 C   0  0  0  0  0  0
  -21.9194   -4.6964   22.3402 C   0  0  0  0  0  0
  -22.7752  -13.5183   21.1909 C   0  0  0  0  0  0
  -22.1662   -4.2149   21.0980 F   0  0  0  0  0  0
  -21.5629   -3.4539   25.7737 F   0  0  0  0  0  0
  -29.8670  -14.0039   20.3351 N   0  0  0  0  0  0
  -26.2809  -12.9543   20.3230 N   0  0  0  0  0  0
  -25.9337  -11.6640   20.5721 N   0  0  0  0  0  0
  -22.0412  -12.8162   22.0461 N   0  0  0  0  0  0
  -25.4002  -15.1993   20.4193 N   0  0  0  0  0  0
  -31.6339  -15.3175   20.1120 O   0  0  0  0  0  0
  -21.6645   -6.8882   21.4241 O   0  0  0  0  0  0
  -22.3429  -14.5483   20.6746 O   0  0  0  0  0  0
  -24.6681  -31.8187   23.1670 C   0  0  0  0  0  0
  -25.9342  -32.4560   23.8150 C   0  0  1  0  0  0
  -27.2179  -26.8736   20.1714 C   0  0  0  0  0  0
  -25.5990  -33.8377   24.2048 N   0  0  0  0  0  0
  -23.4845  -30.4311   21.5176 C   0  0  2  0  0  0
  -24.9372  -28.8156   20.1066 C   0  0  0  0  0  0
  -22.7693  -29.4420   22.4758 C   0  0  0  0  0  0
  -18.0329  -28.1412   22.8466 C   0  0  0  0  0  0
  -24.1495  -36.7190   23.2648 C   0  0  0  0  0  0
  -26.0581  -30.6065   21.4070 C   0  0  0  0  0  0
  -26.1225  -29.1936   20.7466 C   0  0  0  0  0  0
  -27.2483  -28.2434   20.7590 C   0  0  0  0  0  0
  -25.9947  -26.6689   19.4871 C   0  0  0  0  0  0
  -24.9024  -27.5738   19.4582 C   0  0  0  0  0  0
  -23.7261  -29.7486   20.1433 C   0  0  0  0  0  0
  -25.4139  -36.2948   24.0295 C   0  0  1  0  0  0
  -20.5958  -28.3761   23.1174 C   0  0  2  0  0  0
  -20.6803  -26.9437   22.5399 C   0  0  0  0  0  0
  -19.5775  -26.6376   21.5213 C   0  0  0  0  0  0
  -18.1959  -26.7945   22.1622 C   0  0  0  0  0  0
  -19.1593  -28.8908   23.2806 C   0  0  0  0  0  0
  -18.9502  -30.1497   23.8844 C   0  0  0  0  0  0
  -17.6494  -30.6600   24.0556 C   0  0  0  0  0  0
  -25.9109  -34.9333   23.4995 C   0  0  0  0  0  0
  -16.5383  -29.9087   23.6346 C   0  0  0  0  0  0
  -16.7311  -28.6507   23.0365 C   0  0  0  0  0  0
  -26.4572  -31.6526   25.0703 C   0  0  0  0  0  0
  -25.3680  -31.3794   26.1345 C   0  0  0  0  0  0
  -27.0478  -30.2881   24.6485 C   0  0  0  0  0  0
  -27.6051  -32.4350   25.7509 C   0  0  0  0  0  0
  -27.5569  -37.1754   24.8467 C   0  0  0  0  0  0
  -21.4356  -29.3042   22.3511 N   0  0  0  0  0  0
  -26.4278  -37.3691   23.9409 N   0  0  0  0  0  0
  -24.7589  -30.9803   22.0834 N   0  0  0  0  0  0
  -23.4217  -28.7991   23.3018 O   0  0  0  0  0  0
  -28.2129  -25.7454   20.3292 O   0  0  0  0  0  0
  -26.5725  -34.8879   22.4595 O   0  0  0  0  0  0
  -23.5739  -32.1186   23.6730 O   0  0  0  0  0  0
  -27.9536  -21.0873   22.3741 C   0  0  0  0  0  0
  -29.1226  -21.2218   19.9563 C   0  0  0  0  0  0
  -28.4965  -19.8720   21.8518 C   0  0  0  0  0  0
  -27.9706  -22.3685   21.7419 C   0  0  0  0  0  0
  -29.1404  -19.7998   20.5894 C   0  0  0  0  0  0
  -28.5545  -22.5796   20.4697 C   0  0  0  0  0  0
  -28.3876  -18.6228   22.7093 C   0  0  0  0  0  0
  -27.3246  -23.5376   22.4646 C   0  0  0  0  0  0
  -29.8328  -24.4307   19.1552 C   0  0  0  0  0  0
  -27.4984  -23.9820   18.5228 C   0  0  0  0  0  0
  -29.8599  -18.2533   20.0944 C   0  0  0  0  0  0
  -28.4275  -24.1852   19.7268 C   0  0  0  0  0  0
  -29.6551  -16.6109   20.4549 N   0  0  0  0  0  0
  -31.4541  -13.0531   19.2055 H   0  0  0  0  0  0
  -30.5108  -11.9502   20.1548 H   0  0  0  0  0  0
  -29.9314  -11.7601   17.7105 H   0  0  0  0  0  0
  -29.5610  -13.4666   17.6495 H   0  0  0  0  0  0
  -28.0581  -11.2811   19.1092 H   0  0  0  0  0  0
  -27.4234  -12.3286   17.8647 H   0  0  0  0  0  0
  -27.5179  -14.2422   19.3164 H   0  0  0  0  0  0
  -28.8186  -12.5539   21.5062 H   0  0  0  0  0  0
  -28.2655  -14.2030   21.6876 H   0  0  0  0  0  0
  -25.2777   -9.5683   22.4765 H   0  0  0  0  0  0
  -24.0010   -7.4636   22.7476 H   0  0  0  0  0  0
  -21.0859   -8.8777   19.8950 H   0  0  0  0  0  0
  -22.3717  -10.9673   19.6165 H   0  0  0  0  0  0
  -21.2010   -7.6148   23.9715 H   0  0  0  0  0  0
  -21.1485   -6.0524   25.9077 H   0  0  0  0  0  0
  -22.0596   -2.7609   23.2845 H   0  0  0  0  0  0
  -22.4049  -11.9835   22.4853 H   0  0  0  0  0  0
  -21.1020  -13.1164   22.2661 H   0  0  0  0  0  0
  -24.6263  -15.8458   20.5276 H   0  0  0  0  0  0
  -26.2337  -15.6397   20.0534 H   0  0  0  0  0  0
  -26.7413  -32.5077   23.0863 H   0  0  0  0  0  0
  -25.0082  -33.9446   25.0163 H   0  0  0  0  0  0
  -22.8007  -31.2650   21.3459 H   0  0  0  0  0  0
  -23.3771  -35.9506   23.3274 H   0  0  0  0  0  0
  -24.3569  -36.8874   22.2068 H   0  0  0  0  0  0
  -23.7239  -37.6361   23.6731 H   0  0  0  0  0  0
  -26.2483  -31.3463   20.6285 H   0  0  0  0  0  0
  -26.9147  -30.6604   22.0669 H   0  0  0  0  0  0
  -28.1377  -28.5294   21.3027 H   0  0  0  0  0  0
  -25.7957  -25.7277   19.0127 H   0  0  0  0  0  0
  -23.9991  -27.2713   18.9461 H   0  0  0  0  0  0
  -23.8846  -30.5178   19.3866 H   0  0  0  0  0  0
  -22.8342  -29.2069   19.8234 H   0  0  0  0  0  0
  -25.1341  -36.1734   25.0785 H   0  0  0  0  0  0
  -21.0052  -28.3372   24.1295 H   0  0  0  0  0  0
  -20.5676  -26.2383   23.3646 H   0  0  0  0  0  0
  -21.6666  -26.7403   22.1210 H   0  0  0  0  0  0
  -19.6932  -25.6273   21.1278 H   0  0  0  0  0  0
  -19.6711  -27.3159   20.6721 H   0  0  0  0  0  0
  -17.4227  -26.6689   21.4026 H   0  0  0  0  0  0
  -18.0351  -26.0101   22.9032 H   0  0  0  0  0  0
  -19.7977  -30.7330   24.2186 H   0  0  0  0  0  0
  -17.5045  -31.6274   24.5170 H   0  0  0  0  0  0
  -15.5381  -30.2972   23.7699 H   0  0  0  0  0  0
  -15.8712  -28.0807   22.7111 H   0  0  0  0  0  0
  -24.5886  -30.7118   25.7654 H   0  0  0  0  0  0
  -24.8843  -32.3000   26.4622 H   0  0  0  0  0  0
  -25.7896  -30.9063   27.0222 H   0  0  0  0  0  0
  -26.3161  -29.6539   24.1469 H   0  0  0  0  0  0
  -27.3956  -29.7270   25.5169 H   0  0  0  0  0  0
  -27.9125  -30.4044   23.9949 H   0  0  0  0  0  0
  -27.2611  -33.3703   26.1937 H   0  0  0  0  0  0
  -28.3939  -32.6826   25.0393 H   0  0  0  0  0  0
  -28.0634  -31.8577   26.5548 H   0  0  0  0  0  0
  -28.2567  -38.0069   24.7517 H   0  0  0  0  0  0
  -28.1085  -36.2594   24.6294 H   0  0  0  0  0  0
  -27.2283  -37.1394   25.8869 H   0  0  0  0  0  0
  -20.9616  -29.8730   21.6634 H   0  0  0  0  0  0
  -26.0117  -38.2745   24.1417 H   0  0  0  0  0  0
  -27.4833  -21.0328   23.3466 H   0  0  0  0  0  0
  -29.5881  -21.2782   18.9826 H   0  0  0  0  0  0
  -27.9629  -18.8392   23.6901 H   0  0  0  0  0  0
  -29.3697  -18.1783   22.8722 H   0  0  0  0  0  0
  -27.7459  -17.8841   22.2288 H   0  0  0  0  0  0
  -26.8973  -23.2386   23.4222 H   0  0  0  0  0  0
  -26.5223  -23.9662   21.8629 H   0  0  0  0  0  0
  -28.0615  -24.3170   22.6607 H   0  0  0  0  0  0
  -30.1635  -23.6106   18.5175 H   0  0  0  0  0  0
  -30.5622  -24.5334   19.9587 H   0  0  0  0  0  0
  -29.8722  -25.3418   18.5569 H   0  0  0  0  0  0
  -27.8390  -23.1519   17.9032 H   0  0  0  0  0  0
  -27.4630  -24.8593   17.8772 H   0  0  0  0  0  0
  -26.4900  -23.7255   18.8464 H   0  0  0  0  0  0
  -30.9243  -18.4117   20.2698 H   0  0  0  0  0  0
  -29.7752  -18.2784   19.0077 H   0  0  0  0  0  0
  -28.6910  -16.4147   20.6779 H   0  0  0  0  0  0
  1 25  1  0  0  0
  1 30  2  0  0  0
  1 83  1  0  0  0
  2  3  1  0  0  0
  2 25  1  0  0  0
  2 84  1  0  0  0
  2 85  1  0  0  0
  3  4  1  0  0  0
  3 86  1  0  0  0
  3 87  1  0  0  0
  4  5  1  0  0  0
  4 88  1  0  0  0
  4 89  1  0  0  0
  5  6  1  0  0  0
  5 26  1  0  0  0
  5 90  1  0  0  0
  6 25  1  0  0  0
  6 91  1  0  0  0
  6 92  1  0  0  0
  7  8  2  0  0  0
  7 26  1  0  0  0
  7 29  1  0  0  0
  8  9  1  0  0  0
  8 22  1  0  0  0
  9 10  1  0  0  0
  9 27  2  0  0  0
 10 11  2  0  0  0
 10 15  1  0  0  0
 11 12  1  0  0  0
 11 93  1  0  0  0
 12 13  2  0  0  0
 12 94  1  0  0  0
 13 14  1  0  0  0
 13 31  1  0  0  0
 14 15  2  0  0  0
 14 95  1  0  0  0
 15 96  1  0  0  0
 16 17  2  0  0  0
 16 21  1  0  0  0
 16 31  1  0  0  0
 17 18  1  0  0  0
 17 97  1  0  0  0
 18 19  2  0  0  0
 18 98  1  0  0  0
 19 20  1  0  0  0
 19 24  1  0  0  0
 20 21  2  0  0  0
 20 99  1  0  0  0
 21 23  1  0  0  0
 22 28  1  0  0  0
 22 32  2  0  0  0
 26 27  1  0  0  0
 28100  1  0  0  0
 28101  1  0  0  0
 29102  1  0  0  0
 29103  1  0  0  0
 33 34  1  0  0  0
 33 66  1  0  0  0
 33 70  2  0  0  0
 34 36  1  0  0  0
 34 59  1  0  0  0
 34104  1  0  0  0
 35 44  2  0  0  0
 35 45  1  0  0  0
 35 68  1  0  0  0
 36 56  1  0  0  0
 36105  1  0  0  0
 37 39  1  0  0  0
 37 47  1  0  0  0
 37 66  1  0  0  0
 37106  1  0  0  0
 38 43  2  0  0  0
 38 46  1  0  0  0
 38 47  1  0  0  0
 39 64  1  0  0  0
 39 67  2  0  0  0
 40 52  1  0  0  0
 40 53  2  0  0  0
 40 58  1  0  0  0
 41107  1  0  0  0
 41108  1  0  0  0
 41109  1  0  0  0
 41 48  1  0  0  0
 42 43  1  0  0  0
 42 66  1  0  0  0
 42110  1  0  0  0
 42111  1  0  0  0
 43 44  1  0  0  0
 44112  1  0  0  0
 45 46  2  0  0  0
 45113  1  0  0  0
 46114  1  0  0  0
 47115  1  0  0  0
 47116  1  0  0  0
 48 56  1  0  0  0
 48 65  1  0  0  0
 48117  1  0  0  0
 49 50  1  0  0  0
 49 53  1  0  0  0
 49 64  1  0  0  0
 49118  1  0  0  0
 50 51  1  0  0  0
 50119  1  0  0  0
 50120  1  0  0  0
 51 52  1  0  0  0
 51121  1  0  0  0
 51122  1  0  0  0
 52123  1  0  0  0
 52124  1  0  0  0
 53 54  1  0  0  0
 54 55  2  0  0  0
 54125  1  0  0  0
 55 57  1  0  0  0
 55126  1  0  0  0
 56 69  2  0  0  0
 57 58  2  0  0  0
 57127  1  0  0  0
 58128  1  0  0  0
 59 60  1  0  0  0
 59 61  1  0  0  0
 59 62  1  0  0  0
 60129  1  0  0  0
 60130  1  0  0  0
 60131  1  0  0  0
 61132  1  0  0  0
 61133  1  0  0  0
 61134  1  0  0  0
 62135  1  0  0  0
 62136  1  0  0  0
 62137  1  0  0  0
 63 65  1  0  0  0
 63138  1  0  0  0
 63139  1  0  0  0
 63140  1  0  0  0
 64141  1  0  0  0
 65142  1  0  0  0
 68 82  1  0  0  0
 71 73  2  0  0  0
 71 74  1  0  0  0
 71143  1  0  0  0
 72 75  2  0  0  0
 72 76  1  0  0  0
 72144  1  0  0  0
 73 75  1  0  0  0
 73 77  1  0  0  0
 74 76  2  0  0  0
 74 78  1  0  0  0
 75 81  1  0  0  0
 76 82  1  0  0  0
 77145  1  0  0  0
 77146  1  0  0  0
 77147  1  0  0  0
 78148  1  0  0  0
 78149  1  0  0  0
 78150  1  0  0  0
 79151  1  0  0  0
 79152  1  0  0  0
 79153  1  0  0  0
 79 82  1  0  0  0
 80 82  1  0  0  0
 80154  1  0  0  0
 80155  1  0  0  0
 80156  1  0  0  0
 81 83  1  0  0  0
 81157  1  0  0  0
 81158  1  0  0  0
 83159  1  0  0  0
M  ISO  4   1 100  68 101  82 101  83 100
M  END
> <chiral flag>
0

> <version>
0

> <s_m_source_file>
/data/baiqing/PycharmProjects/Reinvent-master-3.2/result/LINK_invent/BTK/process_docking_weight1_custom_sum_contain_oxygen_bond_distance_aromatic_linkinvent_7_9_3/rearranged_h_0029.sdf

> <i_m_source_file_index>
29

> <r_mmod_Potential_Energy-OPLS-2005>
1391.67272949219

> <r_mmod_Stretch_Energy-OPLS-2005>
661.684631347656

> <r_mmod_Bend_Energy-OPLS-2005>
474.717529296875

> <r_mmod_Torsional_Energy-OPLS-2005>
215.042938232422

> <r_mmod_Improper_Torsional_Energy-OPLS-2005>
5.27596807479858

> <r_mmod_Van_der_Waal_Energy-OPLS-2005>
128.128662109375

> <r_mmod_Electrostatic_Energy-OPLS-2005>
-421.93408203125

> <r_mmod_Solvation_Energy-OPLS-2005>
-202.077377319336

> <b_mmod_Minimization_Converged-OPLS-2005>
0

> <r_mmod_RMS_Derivative-OPLS-2005>
0.319021672010422

$$$$
29
                    3D
 Structure written by MMmdl.
147155  0  0  1  0            999 V2000
  -30.4075  -15.3380   20.3687 C   0  0  0  0  0  0
  -30.4394  -12.8679   19.5106 C   0  0  0  0  0  0
  -29.5353  -12.5855   18.2835 C   0  0  0  0  0  0
  -28.0893  -12.2929   18.7212 C   0  0  0  0  0  0
  -27.6063  -13.2778   19.8139 C   0  0  2  0  0  0
  -28.6416  -13.4865   20.9383 C   0  0  0  0  0  0
  -25.2377  -13.8243   20.5753 C   0  0  0  0  0  0
  -24.1737  -13.0429   20.9269 C   0  0  0  0  0  0
  -24.6398  -11.6928   20.8766 C   0  0  0  0  0  0
  -23.9094  -10.4288   21.0408 C   0  0  0  0  0  0
  -24.3638   -9.4202   21.9186 C   0  0  0  0  0  0
  -23.6305   -8.2241   22.0755 C   0  0  0  0  0  0
  -22.4286   -8.0282   21.3545 C   0  0  0  0  0  0
  -21.9928   -9.0257   20.4645 C   0  0  0  0  0  0
  -22.7265  -10.2132   20.3055 C   0  0  0  0  0  0
  -21.6855   -6.0738   22.5279 C   0  0  0  0  0  0
  -21.4016   -6.5641   23.8213 C   0  0  0  0  0  0
  -21.3660   -5.6793   24.9174 C   0  0  0  0  0  0
  -21.6044   -4.3056   24.7225 C   0  0  0  0  0  0
  -21.8819   -3.8148   23.4345 C   0  0  0  0  0  0
  -21.9193   -4.6965   22.3402 C   0  0  0  0  0  0
  -22.7754  -13.5180   21.1912 C   0  0  0  0  0  0
  -22.1662   -4.2151   21.0979 F   0  0  0  0  0  0
  -21.5628   -3.4539   25.7737 F   0  0  0  0  0  0
  -29.8535  -14.0215   20.2923 N   0  0  0  0  0  0
  -26.2801  -12.9521   20.3202 N   0  0  0  0  0  0
  -25.9334  -11.6624   20.5711 N   0  0  0  0  0  0
  -22.0412  -12.8161   22.0465 N   0  0  0  0  0  0
  -25.3994  -15.1980   20.4187 N   0  0  0  0  0  0
  -31.6419  -15.3253   20.2451 O   0  0  0  0  0  0
  -21.6644   -6.8883   21.4242 O   0  0  0  0  0  0
  -22.3433  -14.5481   20.6750 O   0  0  0  0  0  0
  -24.6675  -31.8193   23.1665 C   0  0  0  0  0  0
  -25.9335  -32.4567   23.8148 C   0  0  1  0  0  0
  -27.2192  -26.8810   20.2005 C   0  0  0  0  0  0
  -25.5984  -33.8382   24.2051 N   0  0  0  0  0  0
  -23.4843  -30.4286   21.5177 C   0  0  2  0  0  0
  -24.9376  -28.8019   20.1221 C   0  0  0  0  0  0
  -22.7687  -29.4421   22.4779 C   0  0  0  0  0  0
  -18.0326  -28.1412   22.8465 C   0  0  0  0  0  0
  -24.1494  -36.7196   23.2648 C   0  0  0  0  0  0
  -26.0564  -30.6118   21.4025 C   0  0  0  0  0  0
  -26.1250  -29.1942   20.7534 C   0  0  0  0  0  0
  -27.2629  -28.2591   20.7594 C   0  0  0  0  0  0
  -25.9991  -26.6489   19.5270 C   0  0  0  0  0  0
  -24.9021  -27.5499   19.4875 C   0  0  0  0  0  0
  -23.7276  -29.7377   20.1478 C   0  0  0  0  0  0
  -25.4137  -36.2954   24.0296 C   0  0  1  0  0  0
  -20.5952  -28.3760   23.1180 C   0  0  2  0  0  0
  -20.6801  -26.9438   22.5402 C   0  0  0  0  0  0
  -19.5775  -26.6377   21.5215 C   0  0  0  0  0  0
  -18.1957  -26.7944   22.1622 C   0  0  0  0  0  0
  -19.1588  -28.8908   23.2808 C   0  0  0  0  0  0
  -18.9497  -30.1496   23.8846 C   0  0  0  0  0  0
  -17.6489  -30.6600   24.0554 C   0  0  0  0  0  0
  -25.9105  -34.9338   23.4997 C   0  0  0  0  0  0
  -16.5379  -29.9085   23.6345 C   0  0  0  0  0  0
  -16.7307  -28.6506   23.0364 C   0  0  0  0  0  0
  -26.4570  -31.6528   25.0695 C   0  0  0  0  0  0
  -25.3683  -31.3790   26.1341 C   0  0  0  0  0  0
  -27.0475  -30.2890   24.6458 C   0  0  0  0  0  0
  -27.6050  -32.4348   25.7504 C   0  0  0  0  0  0
  -27.5568  -37.1756   24.8467 C   0  0  0  0  0  0
  -21.4352  -29.3043   22.3525 N   0  0  0  0  0  0
  -26.4278  -37.3695   23.9408 N   0  0  0  0  0  0
  -24.7581  -30.9813   22.0824 N   0  0  0  0  0  0
  -23.4212  -28.7999   23.3044 O   0  0  0  0  0  0
  -28.2253  -25.7628   20.1865 O   0  0  0  0  0  0
  -26.5721  -34.8883   22.4597 O   0  0  0  0  0  0
  -23.5734  -32.1182   23.6730 O   0  0  0  0  0  0
  -29.1669  -19.9298   18.6801 C   0  0  0  0  0  0
  -28.8715  -21.1463   18.0014 C   0  0  0  0  0  0
  -29.2452  -19.8275   20.0846 C   0  0  0  0  0  0
  -28.5943  -22.5839   20.0221 C   0  0  0  0  0  0
  -28.6014  -22.4001   18.6211 C   0  0  0  0  0  0
  -28.9334  -21.2241   20.7089 C   0  0  0  0  0  0
  -29.8057  -18.2721   20.7270 C   0  0  0  0  0  0
  -28.0120  -24.1566   20.6003 C   0  0  0  0  0  0
  -29.6293  -16.6205   20.3871 N   0  0  0  0  0  0
  -28.3015  -23.4536   17.8236 F   0  0  0  0  0  0
  -28.9624  -21.2667   22.4341 Cl  0  0  0  0  0  0
  -31.4483  -13.0983   19.1657 H   0  0  0  0  0  0
  -30.5385  -11.9792   20.1361 H   0  0  0  0  0  0
  -29.9296  -11.7508   17.7022 H   0  0  0  0  0  0
  -29.5455  -13.4526   17.6214 H   0  0  0  0  0  0
  -28.0631  -11.2749   19.1118 H   0  0  0  0  0  0
  -27.4172  -12.3092   17.8623 H   0  0  0  0  0  0
  -27.5077  -14.2340   19.2985 H   0  0  0  0  0  0
  -28.8360  -12.5623   21.4845 H   0  0  0  0  0  0
  -28.2689  -14.2075   21.6676 H   0  0  0  0  0  0
  -25.2779   -9.5677   22.4767 H   0  0  0  0  0  0
  -24.0008   -7.4632   22.7477 H   0  0  0  0  0  0
  -21.0859   -8.8782   19.8950 H   0  0  0  0  0  0
  -22.3724  -10.9673   19.6167 H   0  0  0  0  0  0
  -21.2010   -7.6150   23.9717 H   0  0  0  0  0  0
  -21.1481   -6.0523   25.9077 H   0  0  0  0  0  0
  -22.0597   -2.7610   23.2845 H   0  0  0  0  0  0
  -22.4047  -11.9832   22.4857 H   0  0  0  0  0  0
  -21.1022  -13.1165   22.2666 H   0  0  0  0  0  0
  -24.6263  -15.8447   20.5322 H   0  0  0  0  0  0
  -26.2352  -15.6415   20.0626 H   0  0  0  0  0  0
  -26.7407  -32.5094   23.0863 H   0  0  0  0  0  0
  -25.0073  -33.9452   25.0163 H   0  0  0  0  0  0
  -22.8002  -31.2613   21.3415 H   0  0  0  0  0  0
  -23.3771  -35.9512   23.3273 H   0  0  0  0  0  0
  -24.3569  -36.8884   22.2070 H   0  0  0  0  0  0
  -23.7237  -37.6366   23.6733 H   0  0  0  0  0  0
  -26.2387  -31.3475   20.6180 H   0  0  0  0  0  0
  -26.9156  -30.6744   22.0583 H   0  0  0  0  0  0
  -28.1686  -28.5672   21.2625 H   0  0  0  0  0  0
  -25.8718  -25.6957   19.0334 H   0  0  0  0  0  0
  -24.0020  -27.2428   18.9729 H   0  0  0  0  0  0
  -23.8904  -30.5025   19.3875 H   0  0  0  0  0  0
  -22.8358  -29.1958   19.8281 H   0  0  0  0  0  0
  -25.1338  -36.1742   25.0787 H   0  0  0  0  0  0
  -21.0038  -28.3370   24.1305 H   0  0  0  0  0  0
  -20.5680  -26.2380   23.3646 H   0  0  0  0  0  0
  -21.6664  -26.7409   22.1210 H   0  0  0  0  0  0
  -19.6934  -25.6274   21.1279 H   0  0  0  0  0  0
  -19.6713  -27.3159   20.6722 H   0  0  0  0  0  0
  -17.4225  -26.6686   21.4027 H   0  0  0  0  0  0
  -18.0352  -26.0099   22.9032 H   0  0  0  0  0  0
  -19.7972  -30.7327   24.2192 H   0  0  0  0  0  0
  -17.5039  -31.6274   24.5166 H   0  0  0  0  0  0
  -15.5377  -30.2969   23.7699 H   0  0  0  0  0  0
  -15.8709  -28.0806   22.7109 H   0  0  0  0  0  0
  -24.5884  -30.7120   25.7647 H   0  0  0  0  0  0
  -24.8851  -32.2995   26.4628 H   0  0  0  0  0  0
  -25.7903  -30.9048   27.0211 H   0  0  0  0  0  0
  -26.3153  -29.6553   24.1442 H   0  0  0  0  0  0
  -27.3968  -29.7271   25.5130 H   0  0  0  0  0  0
  -27.9108  -30.4062   23.9905 H   0  0  0  0  0  0
  -27.2611  -33.3697   26.1940 H   0  0  0  0  0  0
  -28.3937  -32.6831   25.0389 H   0  0  0  0  0  0
  -28.0635  -31.8569   26.5539 H   0  0  0  0  0  0
  -28.2565  -38.0070   24.7511 H   0  0  0  0  0  0
  -28.1084  -36.2595   24.6298 H   0  0  0  0  0  0
  -27.2283  -37.1401   25.8869 H   0  0  0  0  0  0
  -20.9619  -29.8721   21.6635 H   0  0  0  0  0  0
  -26.0121  -38.2751   24.1416 H   0  0  0  0  0  0
  -29.3729  -19.0494   18.0875 H   0  0  0  0  0  0
  -28.8448  -21.1174   16.9215 H   0  0  0  0  0  0
  -29.5225  -18.3310   21.7781 H   0  0  0  0  0  0
  -30.8883  -18.3998   20.7505 H   0  0  0  0  0  0
  -28.2580  -24.1400   21.6618 H   0  0  0  0  0  0
  -26.9296  -24.0299   20.5875 H   0  0  0  0  0  0
  -28.6483  -16.3977   20.3102 H   0  0  0  0  0  0
  1 25  1  0  0  0
  1 30  2  0  0  0
  1 79  1  0  0  0
  2  3  1  0  0  0
  2 25  1  0  0  0
  2 82  1  0  0  0
  2 83  1  0  0  0
  3  4  1  0  0  0
  3 84  1  0  0  0
  3 85  1  0  0  0
  4  5  1  0  0  0
  4 86  1  0  0  0
  4 87  1  0  0  0
  5  6  1  0  0  0
  5 26  1  0  0  0
  5 88  1  0  0  0
  6 25  1  0  0  0
  6 89  1  0  0  0
  6 90  1  0  0  0
  7  8  2  0  0  0
  7 26  1  0  0  0
  7 29  1  0  0  0
  8  9  1  0  0  0
  8 22  1  0  0  0
  9 10  1  0  0  0
  9 27  2  0  0  0
 10 11  2  0  0  0
 10 15  1  0  0  0
 11 12  1  0  0  0
 11 91  1  0  0  0
 12 13  2  0  0  0
 12 92  1  0  0  0
 13 14  1  0  0  0
 13 31  1  0  0  0
 14 15  2  0  0  0
 14 93  1  0  0  0
 15 94  1  0  0  0
 16 17  2  0  0  0
 16 21  1  0  0  0
 16 31  1  0  0  0
 17 18  1  0  0  0
 17 95  1  0  0  0
 18 19  2  0  0  0
 18 96  1  0  0  0
 19 20  1  0  0  0
 19 24  1  0  0  0
 20 21  2  0  0  0
 20 97  1  0  0  0
 21 23  1  0  0  0
 22 28  1  0  0  0
 22 32  2  0  0  0
 26 27  1  0  0  0
 28 98  1  0  0  0
 28 99  1  0  0  0
 29100  1  0  0  0
 29101  1  0  0  0
 33 34  1  0  0  0
 33 66  1  0  0  0
 33 70  2  0  0  0
 34 36  1  0  0  0
 34 59  1  0  0  0
 34102  1  0  0  0
 35 44  2  0  0  0
 35 45  1  0  0  0
 35 68  1  0  0  0
 36 56  1  0  0  0
 36103  1  0  0  0
 37 39  1  0  0  0
 37 47  1  0  0  0
 37 66  1  0  0  0
 37104  1  0  0  0
 38 43  2  0  0  0
 38 46  1  0  0  0
 38 47  1  0  0  0
 39 64  1  0  0  0
 39 67  2  0  0  0
 40 52  1  0  0  0
 40 53  2  0  0  0
 40 58  1  0  0  0
 41105  1  0  0  0
 41106  1  0  0  0
 41107  1  0  0  0
 41 48  1  0  0  0
 42 43  1  0  0  0
 42 66  1  0  0  0
 42108  1  0  0  0
 42109  1  0  0  0
 43 44  1  0  0  0
 44110  1  0  0  0
 45 46  2  0  0  0
 45111  1  0  0  0
 46112  1  0  0  0
 47113  1  0  0  0
 47114  1  0  0  0
 48 56  1  0  0  0
 48 65  1  0  0  0
 48115  1  0  0  0
 49 50  1  0  0  0
 49 53  1  0  0  0
 49 64  1  0  0  0
 49116  1  0  0  0
 50 51  1  0  0  0
 50117  1  0  0  0
 50118  1  0  0  0
 51 52  1  0  0  0
 51119  1  0  0  0
 51120  1  0  0  0
 52121  1  0  0  0
 52122  1  0  0  0
 53 54  1  0  0  0
 54 55  2  0  0  0
 54123  1  0  0  0
 55 57  1  0  0  0
 55124  1  0  0  0
 56 69  2  0  0  0
 57 58  2  0  0  0
 57125  1  0  0  0
 58126  1  0  0  0
 59 60  1  0  0  0
 59 61  1  0  0  0
 59 62  1  0  0  0
 60127  1  0  0  0
 60128  1  0  0  0
 60129  1  0  0  0
 61130  1  0  0  0
 61131  1  0  0  0
 61132  1  0  0  0
 62133  1  0  0  0
 62134  1  0  0  0
 62135  1  0  0  0
 63 65  1  0  0  0
 63136  1  0  0  0
 63137  1  0  0  0
 63138  1  0  0  0
 64139  1  0  0  0
 65140  1  0  0  0
 68 78  1  0  0  0
 71 72  2  0  0  0
 71 73  1  0  0  0
 71141  1  0  0  0
 72 75  1  0  0  0
 72142  1  0  0  0
 73 76  2  0  0  0
 73 77  1  0  0  0
 74 75  2  0  0  0
 74 76  1  0  0  0
 74 78  1  0  0  0
 75 80  1  0  0  0
 76 81  1  0  0  0
 77 79  1  0  0  0
 77143  1  0  0  0
 77144  1  0  0  0
 78145  1  0  0  0
 78146  1  0  0  0
 79147  1  0  0  0
M  ISO  4   1 100  68 101  78 101  79 100
M  END
> <chiral flag>
0

> <version>
0

> <s_m_source_file>
/data/baiqing/PycharmProjects/Reinvent-master-3.2/result/LINK_invent/BTK/process_docking_weight1_custom_sum_contain_oxygen_bond_distance_aromatic_linkinvent_7_9_3/rearranged_h_0029.sdf

> <i_m_source_file_index>
30

> <r_mmod_Potential_Energy-OPLS-2005>
1412.82800292969

> <r_mmod_Stretch_Energy-OPLS-2005>
647.493774414062

> <r_mmod_Bend_Energy-OPLS-2005>
451.353485107422

> <r_mmod_Torsional_Energy-OPLS-2005>
238.138153076172

> <r_mmod_Improper_Torsional_Energy-OPLS-2005>
6.06003570556641

> <r_mmod_Van_der_Waal_Energy-OPLS-2005>
118.882995605469

> <r_mmod_Electrostatic_Energy-OPLS-2005>
-366.170104980469

> <r_mmod_Solvation_Energy-OPLS-2005>
-215.872985839844

> <b_mmod_Minimization_Converged-OPLS-2005>
0

> <r_mmod_RMS_Derivative-OPLS-2005>
0.0599736087024212

$$$$
30
                    3D
 Structure written by MMmdl.
172180  0  0  1  0            999 V2000
  -30.6918  -14.5366   20.5575 C   0  0  0  0  0  0
  -30.4227  -12.3483   19.4281 C   0  0  0  0  0  0
  -29.4935  -12.5050   18.2072 C   0  0  0  0  0  0
  -28.0177  -12.3561   18.6250 C   0  0  0  0  0  0
  -27.6553  -13.2147   19.8666 C   0  0  2  0  0  0
  -28.7003  -13.0402   20.9905 C   0  0  0  0  0  0
  -25.2569  -13.8172   20.5687 C   0  0  0  0  0  0
  -24.1831  -13.0436   20.9179 C   0  0  0  0  0  0
  -24.6398  -11.6908   20.8739 C   0  0  0  0  0  0
  -23.9067  -10.4289   21.0409 C   0  0  0  0  0  0
  -24.3617   -9.4204   21.9189 C   0  0  0  0  0  0
  -23.6290   -8.2242   22.0760 C   0  0  0  0  0  0
  -22.4277   -8.0280   21.3546 C   0  0  0  0  0  0
  -21.9911   -9.0253   20.4648 C   0  0  0  0  0  0
  -22.7239  -10.2130   20.3056 C   0  0  0  0  0  0
  -21.6851   -6.0732   22.5276 C   0  0  0  0  0  0
  -21.4014   -6.5638   23.8206 C   0  0  0  0  0  0
  -21.3658   -5.6793   24.9170 C   0  0  0  0  0  0
  -21.6043   -4.3054   24.7225 C   0  0  0  0  0  0
  -21.8819   -3.8144   23.4347 C   0  0  0  0  0  0
  -21.9195   -4.6961   22.3403 C   0  0  0  0  0  0
  -22.7856  -13.5231   21.1841 C   0  0  0  0  0  0
  -22.1662   -4.2147   21.0979 F   0  0  0  0  0  0
  -21.5629   -3.4539   25.7738 F   0  0  0  0  0  0
  -30.0197  -13.3569   20.4236 N   0  0  0  0  0  0
  -26.3001  -12.9354   20.3343 N   0  0  0  0  0  0
  -25.9326  -11.6506   20.5768 N   0  0  0  0  0  0
  -22.0497  -12.8222   22.0392 N   0  0  0  0  0  0
  -25.4287  -15.1892   20.4101 N   0  0  0  0  0  0
  -31.8375  -14.6904   20.1275 O   0  0  0  0  0  0
  -21.6640   -6.8877   21.4240 O   0  0  0  0  0  0
  -22.3541  -14.5538   20.6693 O   0  0  0  0  0  0
  -24.6203  -31.8642   23.2073 C   0  0  0  0  0  0
  -25.9076  -32.4800   23.8386 C   0  0  1  0  0  0
  -27.2245  -27.3812   20.1147 C   0  0  0  0  0  0
  -25.5919  -33.8603   24.2322 N   0  0  0  0  0  0
  -23.4111  -30.4884   21.5488 C   0  0  2  0  0  0
  -24.8579  -28.9506   20.1118 C   0  0  0  0  0  0
  -22.7436  -29.4644   22.4966 C   0  0  0  0  0  0
  -18.0275  -28.1370   22.8488 C   0  0  0  0  0  0
  -24.1487  -36.7295   23.2638 C   0  0  0  0  0  0
  -25.9451  -30.8158   21.3666 C   0  0  0  0  0  0
  -26.0227  -29.4472   20.7120 C   0  0  0  0  0  0
  -27.2136  -28.6731   20.7044 C   0  0  0  0  0  0
  -26.0462  -26.9217   19.4889 C   0  0  0  0  0  0
  -24.8672  -27.6905   19.4923 C   0  0  0  0  0  0
  -23.6219  -29.8231   20.1633 C   0  0  0  0  0  0
  -25.4108  -36.3102   24.0339 C   0  0  1  0  0  0
  -20.5869  -28.3673   23.1292 C   0  0  2  0  0  0
  -20.6764  -26.9407   22.5404 C   0  0  0  0  0  0
  -19.5745  -26.6383   21.5202 C   0  0  0  0  0  0
  -18.1921  -26.7917   22.1612 C   0  0  0  0  0  0
  -19.1525  -28.8837   23.2884 C   0  0  0  0  0  0
  -18.9454  -30.1438   23.8908 C   0  0  0  0  0  0
  -17.6460  -30.6581   24.0562 C   0  0  0  0  0  0
  -25.9043  -34.9465   23.5129 C   0  0  0  0  0  0
  -16.5347  -29.9085   23.6330 C   0  0  0  0  0  0
  -16.7263  -28.6494   23.0364 C   0  0  0  0  0  0
  -26.4489  -31.6581   25.0721 C   0  0  0  0  0  0
  -25.3747  -31.3666   26.1457 C   0  0  0  0  0  0
  -27.0329  -30.3026   24.6107 C   0  0  0  0  0  0
  -27.6069  -32.4292   25.7482 C   0  0  0  0  0  0
  -27.5578  -37.1801   24.8466 C   0  0  0  0  0  0
  -21.4157  -29.3037   22.3695 N   0  0  0  0  0  0
  -26.4289  -37.3792   23.9414 N   0  0  0  0  0  0
  -24.6774  -31.0706   22.0991 N   0  0  0  0  0  0
  -23.4179  -28.8184   23.3031 O   0  0  0  0  0  0
  -28.3447  -26.5607   20.1406 O   0  0  0  0  0  0
  -26.5602  -34.8923   22.4688 O   0  0  0  0  0  0
  -23.5383  -32.1422   23.7435 O   0  0  0  0  0  0
  -30.8165  -21.4803   20.7451 C   0  0  0  0  0  0
  -29.0837  -18.9456   20.9566 C   0  0  0  0  0  0
  -31.6361  -19.0688   20.8996 C   0  0  0  0  0  0
  -28.7872  -20.2385   20.1070 C   0  0  0  0  0  0
  -31.6712  -20.3772   20.0709 C   0  0  2  0  0  0
  -30.4035  -18.1569   20.6723 C   0  0  1  0  0  0
  -34.9228  -23.5916   17.6831 C   0  0  0  0  0  0
  -33.1363  -20.8288   19.8249 C   0  0  0  0  0  0
  -30.5840  -16.8622   21.5572 C   0  0  0  0  0  0
  -34.7670  -22.3712   18.5979 C   0  0  0  0  0  0
  -33.2953  -22.0148   18.8523 C   0  0  0  0  0  0
  -28.9372  -24.0397   20.1840 C   0  0  0  0  0  0
  -28.6501  -22.6744   20.9230 C   0  0  0  0  0  0
  -28.1438  -25.2584   20.7700 C   0  0  0  0  0  0
  -29.4799  -21.4877   20.5345 N   0  0  0  0  0  0
  -30.0038  -15.5783   21.0882 N   0  0  0  0  0  0
  -31.3748  -22.3482   21.4243 O   0  0  0  0  0  0
  -31.4658  -12.4525   19.1243 H   0  0  0  0  0  0
  -30.3354  -11.3466   19.8514 H   0  0  0  0  0  0
  -29.7416  -11.7638   17.4462 H   0  0  0  0  0  0
  -29.6498  -13.4816   17.7462 H   0  0  0  0  0  0
  -27.8422  -11.3020   18.8423 H   0  0  0  0  0  0
  -27.3619  -12.6065   17.7906 H   0  0  0  0  0  0
  -27.6856  -14.2564   19.5456 H   0  0  0  0  0  0
  -28.6944  -12.0142   21.3620 H   0  0  0  0  0  0
  -28.4575  -13.6668   21.8499 H   0  0  0  0  0  0
  -25.2760   -9.5678   22.4763 H   0  0  0  0  0  0
  -23.9993   -7.4638   22.7486 H   0  0  0  0  0  0
  -21.0839   -8.8774   19.8957 H   0  0  0  0  0  0
  -22.3702  -10.9671   19.6163 H   0  0  0  0  0  0
  -21.2007   -7.6146   23.9708 H   0  0  0  0  0  0
  -21.1479   -6.0525   25.9072 H   0  0  0  0  0  0
  -22.0603   -2.7608   23.2848 H   0  0  0  0  0  0
  -22.4109  -11.9871   22.4758 H   0  0  0  0  0  0
  -21.1119  -13.1251   22.2611 H   0  0  0  0  0  0
  -24.6624  -15.8450   20.5181 H   0  0  0  0  0  0
  -26.2814  -15.6276   20.0855 H   0  0  0  0  0  0
  -26.7141  -32.5505   23.1142 H   0  0  0  0  0  0
  -25.0101  -33.9763   25.0489 H   0  0  0  0  0  0
  -22.7028  -31.3069   21.4086 H   0  0  0  0  0  0
  -23.3755  -35.9623   23.3314 H   0  0  0  0  0  0
  -24.3579  -36.8903   22.2051 H   0  0  0  0  0  0
  -23.7234  -37.6499   23.6645 H   0  0  0  0  0  0
  -26.0629  -31.5795   20.5968 H   0  0  0  0  0  0
  -26.8306  -30.8699   21.9882 H   0  0  0  0  0  0
  -28.1104  -29.0482   21.1768 H   0  0  0  0  0  0
  -26.0336  -25.9544   19.0058 H   0  0  0  0  0  0
  -23.9746  -27.3055   19.0186 H   0  0  0  0  0  0
  -23.7338  -30.5997   19.4057 H   0  0  0  0  0  0
  -22.7442  -29.2465   19.8658 H   0  0  0  0  0  0
  -25.1283  -36.1965   25.0832 H   0  0  0  0  0  0
  -20.9957  -28.3247   24.1414 H   0  0  0  0  0  0
  -20.5661  -26.2287   23.3598 H   0  0  0  0  0  0
  -21.6634  -26.7438   22.1209 H   0  0  0  0  0  0
  -19.6918  -25.6296   21.1225 H   0  0  0  0  0  0
  -19.6688  -27.3195   20.6731 H   0  0  0  0  0  0
  -17.4196  -26.6664   21.4012 H   0  0  0  0  0  0
  -18.0324  -26.0045   22.8995 H   0  0  0  0  0  0
  -19.7934  -30.7233   24.2298 H   0  0  0  0  0  0
  -17.5024  -31.6270   24.5145 H   0  0  0  0  0  0
  -15.5353  -30.2998   23.7648 H   0  0  0  0  0  0
  -15.8654  -28.0812   22.7099 H   0  0  0  0  0  0
  -24.5959  -30.6967   25.7786 H   0  0  0  0  0  0
  -24.8876  -32.2800   26.4882 H   0  0  0  0  0  0
  -25.8100  -30.8863   27.0228 H   0  0  0  0  0  0
  -26.2882  -29.6763   24.1175 H   0  0  0  0  0  0
  -27.4127  -29.7275   25.4561 H   0  0  0  0  0  0
  -27.8705  -30.4353   23.9252 H   0  0  0  0  0  0
  -27.2726  -33.3616   26.2041 H   0  0  0  0  0  0
  -28.3891  -32.6801   25.0304 H   0  0  0  0  0  0
  -28.0718  -31.8411   26.5408 H   0  0  0  0  0  0
  -28.2591  -38.0103   24.7537 H   0  0  0  0  0  0
  -28.1084  -36.2639   24.6272 H   0  0  0  0  0  0
  -27.2296  -37.1429   25.8869 H   0  0  0  0  0  0
  -20.9324  -29.8769   21.6920 H   0  0  0  0  0  0
  -26.0177  -38.2867   24.1428 H   0  0  0  0  0  0
  -28.2607  -18.2499   20.7861 H   0  0  0  0  0  0
  -29.0263  -19.1962   22.0169 H   0  0  0  0  0  0
  -31.7256  -19.3068   21.9618 H   0  0  0  0  0  0
  -32.5271  -18.4861   20.6630 H   0  0  0  0  0  0
  -27.7109  -20.4036   20.1422 H   0  0  0  0  0  0
  -28.9944  -20.0485   19.0535 H   0  0  0  0  0  0
  -31.2603  -20.1717   19.0823 H   0  0  0  0  0  0
  -30.4087  -17.8543   19.6235 H   0  0  0  0  0  0
  -35.9752  -23.8100   17.5003 H   0  0  0  0  0  0
  -34.4750  -24.4808   18.1283 H   0  0  0  0  0  0
  -34.4465  -23.4258   16.7163 H   0  0  0  0  0  0
  -33.6979  -19.9876   19.4165 H   0  0  0  0  0  0
  -33.6131  -21.0652   20.7776 H   0  0  0  0  0  0
  -30.1828  -17.0572   22.5525 H   0  0  0  0  0  0
  -31.6476  -16.6885   21.7327 H   0  0  0  0  0  0
  -35.2684  -22.5699   19.5468 H   0  0  0  0  0  0
  -35.2804  -21.5182   18.1511 H   0  0  0  0  0  0
  -32.7842  -22.8949   19.2448 H   0  0  0  0  0  0
  -32.8110  -21.7767   17.9044 H   0  0  0  0  0  0
  -28.6901  -23.9290   19.1273 H   0  0  0  0  0  0
  -30.0008  -24.2741   20.2218 H   0  0  0  0  0  0
  -27.5907  -22.4469   20.8077 H   0  0  0  0  0  0
  -28.7858  -22.8250   21.9955 H   0  0  0  0  0  0
  -28.4263  -25.3759   21.8169 H   0  0  0  0  0  0
  -27.0901  -24.9801   20.8012 H   0  0  0  0  0  0
  -29.0476  -15.3897   21.3510 H   0  0  0  0  0  0
  1 25  1  0  0  0
  1 30  2  0  0  0
  1 86  1  0  0  0
  2  3  1  0  0  0
  2 25  1  0  0  0
  2 88  1  0  0  0
  2 89  1  0  0  0
  3  4  1  0  0  0
  3 90  1  0  0  0
  3 91  1  0  0  0
  4  5  1  0  0  0
  4 92  1  0  0  0
  4 93  1  0  0  0
  5  6  1  0  0  0
  5 26  1  0  0  0
  5 94  1  0  0  0
  6 25  1  0  0  0
  6 95  1  0  0  0
  6 96  1  0  0  0
  7  8  2  0  0  0
  7 26  1  0  0  0
  7 29  1  0  0  0
  8  9  1  0  0  0
  8 22  1  0  0  0
  9 10  1  0  0  0
  9 27  2  0  0  0
 10 11  2  0  0  0
 10 15  1  0  0  0
 11 12  1  0  0  0
 11 97  1  0  0  0
 12 13  2  0  0  0
 12 98  1  0  0  0
 13 14  1  0  0  0
 13 31  1  0  0  0
 14 15  2  0  0  0
 14 99  1  0  0  0
 15100  1  0  0  0
 16 17  2  0  0  0
 16 21  1  0  0  0
 16 31  1  0  0  0
 17 18  1  0  0  0
 17101  1  0  0  0
 18 19  2  0  0  0
 18102  1  0  0  0
 19 20  1  0  0  0
 19 24  1  0  0  0
 20 21  2  0  0  0
 20103  1  0  0  0
 21 23  1  0  0  0
 22 28  1  0  0  0
 22 32  2  0  0  0
 26 27  1  0  0  0
 28104  1  0  0  0
 28105  1  0  0  0
 29106  1  0  0  0
 29107  1  0  0  0
 33 34  1  0  0  0
 33 66  1  0  0  0
 33 70  2  0  0  0
 34 36  1  0  0  0
 34 59  1  0  0  0
 34108  1  0  0  0
 35 44  2  0  0  0
 35 45  1  0  0  0
 35 68  1  0  0  0
 36 56  1  0  0  0
 36109  1  0  0  0
 37 39  1  0  0  0
 37 47  1  0  0  0
 37 66  1  0  0  0
 37110  1  0  0  0
 38 43  2  0  0  0
 38 46  1  0  0  0
 38 47  1  0  0  0
 39 64  1  0  0  0
 39 67  2  0  0  0
 40 52  1  0  0  0
 40 53  2  0  0  0
 40 58  1  0  0  0
 41111  1  0  0  0
 41112  1  0  0  0
 41113  1  0  0  0
 41 48  1  0  0  0
 42 43  1  0  0  0
 42 66  1  0  0  0
 42114  1  0  0  0
 42115  1  0  0  0
 43 44  1  0  0  0
 44116  1  0  0  0
 45 46  2  0  0  0
 45117  1  0  0  0
 46118  1  0  0  0
 47119  1  0  0  0
 47120  1  0  0  0
 48 56  1  0  0  0
 48 65  1  0  0  0
 48121  1  0  0  0
 49 50  1  0  0  0
 49 53  1  0  0  0
 49 64  1  0  0  0
 49122  1  0  0  0
 50 51  1  0  0  0
 50123  1  0  0  0
 50124  1  0  0  0
 51 52  1  0  0  0
 51125  1  0  0  0
 51126  1  0  0  0
 52127  1  0  0  0
 52128  1  0  0  0
 53 54  1  0  0  0
 54 55  2  0  0  0
 54129  1  0  0  0
 55 57  1  0  0  0
 55130  1  0  0  0
 56 69  2  0  0  0
 57 58  2  0  0  0
 57131  1  0  0  0
 58132  1  0  0  0
 59 60  1  0  0  0
 59 61  1  0  0  0
 59 62  1  0  0  0
 60133  1  0  0  0
 60134  1  0  0  0
 60135  1  0  0  0
 61136  1  0  0  0
 61137  1  0  0  0
 61138  1  0  0  0
 62139  1  0  0  0
 62140  1  0  0  0
 62141  1  0  0  0
 63 65  1  0  0  0
 63142  1  0  0  0
 63143  1  0  0  0
 63144  1  0  0  0
 64145  1  0  0  0
 65146  1  0  0  0
 68 84  1  0  0  0
 71 75  1  0  0  0
 71 85  1  0  0  0
 71 87  2  0  0  0
 72 74  1  0  0  0
 72 76  1  0  0  0
 72147  1  0  0  0
 72148  1  0  0  0
 73 75  1  0  0  0
 73 76  1  0  0  0
 73149  1  0  0  0
 73150  1  0  0  0
 74 85  1  0  0  0
 74151  1  0  0  0
 74152  1  0  0  0
 75 78  1  0  0  0
 75153  1  0  0  0
 76 79  1  0  0  0
 76154  1  0  0  0
 77 80  1  0  0  0
 77155  1  0  0  0
 77156  1  0  0  0
 77157  1  0  0  0
 78 81  1  0  0  0
 78158  1  0  0  0
 78159  1  0  0  0
 79 86  1  0  0  0
 79160  1  0  0  0
 79161  1  0  0  0
 80 81  1  0  0  0
 80162  1  0  0  0
 80163  1  0  0  0
 81164  1  0  0  0
 81165  1  0  0  0
 82 83  1  0  0  0
 82 84  1  0  0  0
 82166  1  0  0  0
 82167  1  0  0  0
 83 85  1  0  0  0
 83168  1  0  0  0
 83169  1  0  0  0
 84170  1  0  0  0
 84171  1  0  0  0
 86172  1  0  0  0
M  ISO  4   1 100  68 101  84 101  86 100
M  END
> <chiral flag>
0

> <version>
0

> <s_m_source_file>
/data/baiqing/PycharmProjects/Reinvent-master-3.2/result/LINK_invent/BTK/process_docking_weight1_custom_sum_contain_oxygen_bond_distance_aromatic_linkinvent_7_9_3/rearranged_h_0029.sdf

> <i_m_source_file_index>
31

> <r_mmod_Potential_Energy-OPLS-2005>
48.9465179443359

> <r_mmod_Stretch_Energy-OPLS-2005>
58.6949996948242

> <r_mmod_Bend_Energy-OPLS-2005>
121.009552001953

> <r_mmod_Torsional_Energy-OPLS-2005>
266.011352539062

> <r_mmod_Improper_Torsional_Energy-OPLS-2005>
3.17691326141357

> <r_mmod_Van_der_Waal_Energy-OPLS-2005>
143.148513793945

> <r_mmod_Electrostatic_Energy-OPLS-2005>
-347.340026855469

> <r_mmod_Solvation_Energy-OPLS-2005>
-220.745223999023

> <b_mmod_Minimization_Converged-OPLS-2005>
0

> <r_mmod_RMS_Derivative-OPLS-2005>
0.853482902050018

$$$$
31
                    3D
 Structure written by MMmdl.
154163  0  0  1  0            999 V2000
  -30.4797  -15.1825   20.3828 C   0  0  0  0  0  0
  -30.4364  -12.7521   19.5160 C   0  0  0  0  0  0
  -29.5288  -12.5599   18.2768 C   0  0  0  0  0  0
  -28.0732  -12.3022   18.7037 C   0  0  0  0  0  0
  -27.6139  -13.2699   19.8237 C   0  0  2  0  0  0
  -28.6514  -13.4156   20.9568 C   0  0  0  0  0  0
  -25.2397  -13.8240   20.5743 C   0  0  0  0  0  0
  -24.1744  -13.0434   20.9256 C   0  0  0  0  0  0
  -24.6393  -11.6931   20.8760 C   0  0  0  0  0  0
  -23.9091  -10.4291   21.0407 C   0  0  0  0  0  0
  -24.3636   -9.4204   21.9184 C   0  0  0  0  0  0
  -23.6305   -8.2240   22.0753 C   0  0  0  0  0  0
  -22.4286   -8.0281   21.3546 C   0  0  0  0  0  0
  -21.9927   -9.0255   20.4645 C   0  0  0  0  0  0
  -22.7261  -10.2130   20.3055 C   0  0  0  0  0  0
  -21.6854   -6.0737   22.5281 C   0  0  0  0  0  0
  -21.4015   -6.5644   23.8215 C   0  0  0  0  0  0
  -21.3659   -5.6795   24.9176 C   0  0  0  0  0  0
  -21.6043   -4.3056   24.7227 C   0  0  0  0  0  0
  -21.8820   -3.8149   23.4348 C   0  0  0  0  0  0
  -21.9194   -4.6965   22.3404 C   0  0  0  0  0  0
  -22.7764  -13.5187   21.1906 C   0  0  0  0  0  0
  -22.1664   -4.2151   21.0981 F   0  0  0  0  0  0
  -21.5626   -3.4540   25.7740 F   0  0  0  0  0  0
  -29.8936  -13.8943   20.3317 N   0  0  0  0  0  0
  -26.2824  -12.9508   20.3220 N   0  0  0  0  0  0
  -25.9330  -11.6618   20.5727 N   0  0  0  0  0  0
  -22.0427  -12.8162   22.0459 N   0  0  0  0  0  0
  -25.4029  -15.1972   20.4178 N   0  0  0  0  0  0
  -31.7006  -15.1801   20.1779 O   0  0  0  0  0  0
  -21.6646   -6.8880   21.4243 O   0  0  0  0  0  0
  -22.3441  -14.5487   20.6747 O   0  0  0  0  0  0
  -24.6598  -31.8290   23.1761 C   0  0  0  0  0  0
  -25.9300  -32.4623   23.8201 C   0  0  1  0  0  0
  -27.2142  -26.9702   20.1630 C   0  0  0  0  0  0
  -25.5987  -33.8434   24.2110 N   0  0  0  0  0  0
  -23.4717  -30.4458   21.5246 C   0  0  2  0  0  0
  -24.9233  -28.8488   20.1094 C   0  0  0  0  0  0
  -22.7650  -29.4475   22.4788 C   0  0  0  0  0  0
  -18.0318  -28.1418   22.8476 C   0  0  0  0  0  0
  -24.1482  -36.7210   23.2644 C   0  0  0  0  0  0
  -26.0406  -30.6493   21.4006 C   0  0  0  0  0  0
  -26.1081  -29.2451   20.7412 C   0  0  0  0  0  0
  -27.2482  -28.3258   20.7489 C   0  0  0  0  0  0
  -25.9929  -26.7230   19.4907 C   0  0  0  0  0  0
  -24.8889  -27.6056   19.4655 C   0  0  0  0  0  0
  -23.7089  -29.7715   20.1473 C   0  0  0  0  0  0
  -25.4123  -36.2986   24.0307 C   0  0  1  0  0  0
  -20.5945  -28.3756   23.1196 C   0  0  2  0  0  0
  -20.6797  -26.9441   22.5402 C   0  0  0  0  0  0
  -19.5767  -26.6388   21.5218 C   0  0  0  0  0  0
  -18.1949  -26.7953   22.1628 C   0  0  0  0  0  0
  -19.1582  -28.8905   23.2823 C   0  0  0  0  0  0
  -18.9494  -30.1494   23.8862 C   0  0  0  0  0  0
  -17.6488  -30.6609   24.0561 C   0  0  0  0  0  0
  -25.9093  -34.9373   23.5024 C   0  0  0  0  0  0
  -16.5377  -29.9101   23.6348 C   0  0  0  0  0  0
  -16.7301  -28.6519   23.0371 C   0  0  0  0  0  0
  -26.4561  -31.6553   25.0710 C   0  0  0  0  0  0
  -25.3704  -31.3794   26.1377 C   0  0  0  0  0  0
  -27.0451  -30.2927   24.6410 C   0  0  0  0  0  0
  -27.6054  -32.4352   25.7518 C   0  0  0  0  0  0
  -27.5565  -37.1758   24.8462 C   0  0  0  0  0  0
  -21.4324  -29.3054   22.3546 N   0  0  0  0  0  0
  -26.4264  -37.3725   23.9422 N   0  0  0  0  0  0
  -24.7454  -30.9995   22.0880 N   0  0  0  0  0  0
  -23.4216  -28.8029   23.3004 O   0  0  0  0  0  0
  -28.2073  -25.8643   20.2546 O   0  0  0  0  0  0
  -26.5685  -34.8900   22.4606 O   0  0  0  0  0  0
  -23.5678  -32.1238   23.6881 O   0  0  0  0  0  0
  -29.8021  -20.5673   19.2691 C   0  0  0  0  0  0
  -28.2966  -21.8193   21.1670 C   0  0  0  0  0  0
  -29.4293  -21.9975   19.1610 C   0  0  0  0  0  0
  -28.6431  -22.7714   20.1159 C   0  0  0  0  0  0
  -29.4624  -19.6111   20.3094 C   0  0  0  0  0  0
  -28.6795  -20.3812   21.2726 C   0  0  0  0  0  0
  -29.8741  -22.6865   17.8759 C   0  0  0  0  0  0
  -29.4786  -24.1692   17.7511 C   0  0  0  0  0  0
  -28.0502  -24.4490   18.2390 C   0  0  0  0  0  0
  -27.9493  -24.3290   19.7738 C   0  0  2  0  0  0
  -30.1867  -18.0351   20.4410 C   0  0  0  0  0  0
  -29.7403  -16.4515   20.4593 N   0  0  0  0  0  0
  -28.1586  -19.5462   22.6903 Cl  0  0  0  0  0  0
  -31.4596  -12.9404   19.1882 H   0  0  0  0  0  0
  -30.4825  -11.8378   20.1099 H   0  0  0  0  0  0
  -29.8917  -11.7348   17.6626 H   0  0  0  0  0  0
  -29.5736  -13.4522   17.6503 H   0  0  0  0  0  0
  -28.0135  -11.2738   19.0618 H   0  0  0  0  0  0
  -27.4051  -12.3658   17.8440 H   0  0  0  0  0  0
  -27.5379  -14.2442   19.3394 H   0  0  0  0  0  0
  -28.7999  -12.4738   21.4872 H   0  0  0  0  0  0
  -28.3071  -14.1402   21.6964 H   0  0  0  0  0  0
  -25.2777   -9.5679   22.4765 H   0  0  0  0  0  0
  -24.0013   -7.4630   22.7472 H   0  0  0  0  0  0
  -21.0859   -8.8774   19.8950 H   0  0  0  0  0  0
  -22.3718  -10.9669   19.6165 H   0  0  0  0  0  0
  -21.2007   -7.6154   23.9718 H   0  0  0  0  0  0
  -21.1479   -6.0526   25.9078 H   0  0  0  0  0  0
  -22.0597   -2.7612   23.2848 H   0  0  0  0  0  0
  -22.4070  -11.9833   22.4844 H   0  0  0  0  0  0
  -21.1036  -13.1159   22.2666 H   0  0  0  0  0  0
  -24.6319  -15.8458   20.5346 H   0  0  0  0  0  0
  -26.2426  -15.6410   20.0706 H   0  0  0  0  0  0
  -26.7369  -32.5173   23.0917 H   0  0  0  0  0  0
  -25.0122  -33.9522   25.0254 H   0  0  0  0  0  0
  -22.7829  -31.2772   21.3604 H   0  0  0  0  0  0
  -23.3760  -35.9524   23.3289 H   0  0  0  0  0  0
  -24.3564  -36.8867   22.2061 H   0  0  0  0  0  0
  -23.7222  -37.6391   23.6703 H   0  0  0  0  0  0
  -26.2152  -31.3946   20.6231 H   0  0  0  0  0  0
  -26.9033  -30.7037   22.0526 H   0  0  0  0  0  0
  -28.1418  -28.6264   21.2772 H   0  0  0  0  0  0
  -25.8313  -25.7764   19.0009 H   0  0  0  0  0  0
  -23.9875  -27.2930   18.9565 H   0  0  0  0  0  0
  -23.8635  -30.5449   19.3942 H   0  0  0  0  0  0
  -22.8191  -29.2271   19.8266 H   0  0  0  0  0  0
  -25.1315  -36.1782   25.0798 H   0  0  0  0  0  0
  -21.0031  -28.3360   24.1319 H   0  0  0  0  0  0
  -20.5678  -26.2375   23.3641 H   0  0  0  0  0  0
  -21.6660  -26.7428   22.1203 H   0  0  0  0  0  0
  -19.6922  -25.6286   21.1275 H   0  0  0  0  0  0
  -19.6703  -27.3176   20.6730 H   0  0  0  0  0  0
  -17.4214  -26.6696   21.4034 H   0  0  0  0  0  0
  -18.0344  -26.0109   22.9039 H   0  0  0  0  0  0
  -19.7968  -30.7319   24.2213 H   0  0  0  0  0  0
  -17.5046  -31.6289   24.5167 H   0  0  0  0  0  0
  -15.5375  -30.2993   23.7703 H   0  0  0  0  0  0
  -15.8700  -28.0828   22.7114 H   0  0  0  0  0  0
  -24.5899  -30.7123   25.7699 H   0  0  0  0  0  0
  -24.8875  -32.2991   26.4686 H   0  0  0  0  0  0
  -25.7953  -30.9048   27.0230 H   0  0  0  0  0  0
  -26.3113  -29.6619   24.1377 H   0  0  0  0  0  0
  -27.3962  -29.7274   25.5051 H   0  0  0  0  0  0
  -27.9066  -30.4130   23.9839 H   0  0  0  0  0  0
  -27.2620  -33.3683   26.2000 H   0  0  0  0  0  0
  -28.3924  -32.6864   25.0396 H   0  0  0  0  0  0
  -28.0660  -31.8542   26.5519 H   0  0  0  0  0  0
  -28.2553  -38.0082   24.7540 H   0  0  0  0  0  0
  -28.1087  -36.2612   24.6243 H   0  0  0  0  0  0
  -27.2291  -37.1350   25.8866 H   0  0  0  0  0  0
  -20.9558  -29.8765   21.6707 H   0  0  0  0  0  0
  -26.0110  -38.2775   24.1465 H   0  0  0  0  0  0
  -30.4201  -20.1781   18.4712 H   0  0  0  0  0  0
  -27.6599  -22.1991   21.9526 H   0  0  0  0  0  0
  -29.4356  -22.1360   17.0424 H   0  0  0  0  0  0
  -30.9552  -22.5860   17.7704 H   0  0  0  0  0  0
  -29.5931  -24.4850   16.7134 H   0  0  0  0  0  0
  -30.1705  -24.7826   18.3298 H   0  0  0  0  0  0
  -27.3711  -23.7347   17.7706 H   0  0  0  0  0  0
  -27.7403  -25.4302   17.8844 H   0  0  0  0  0  0
  -26.9040  -24.1599   20.0321 H   0  0  0  0  0  0
  -30.7711  -18.1252   21.3570 H   0  0  0  0  0  0
  -30.9461  -18.0525   19.6588 H   0  0  0  0  0  0
  -28.7452  -16.3174   20.5581 H   0  0  0  0  0  0
  1 25  1  0  0  0
  1 30  2  0  0  0
  1 82  1  0  0  0
  2  3  1  0  0  0
  2 25  1  0  0  0
  2 84  1  0  0  0
  2 85  1  0  0  0
  3  4  1  0  0  0
  3 86  1  0  0  0
  3 87  1  0  0  0
  4  5  1  0  0  0
  4 88  1  0  0  0
  4 89  1  0  0  0
  5  6  1  0  0  0
  5 26  1  0  0  0
  5 90  1  0  0  0
  6 25  1  0  0  0
  6 91  1  0  0  0
  6 92  1  0  0  0
  7  8  2  0  0  0
  7 26  1  0  0  0
  7 29  1  0  0  0
  8  9  1  0  0  0
  8 22  1  0  0  0
  9 10  1  0  0  0
  9 27  2  0  0  0
 10 11  2  0  0  0
 10 15  1  0  0  0
 11 12  1  0  0  0
 11 93  1  0  0  0
 12 13  2  0  0  0
 12 94  1  0  0  0
 13 14  1  0  0  0
 13 31  1  0  0  0
 14 15  2  0  0  0
 14 95  1  0  0  0
 15 96  1  0  0  0
 16 17  2  0  0  0
 16 21  1  0  0  0
 16 31  1  0  0  0
 17 18  1  0  0  0
 17 97  1  0  0  0
 18 19  2  0  0  0
 18 98  1  0  0  0
 19 20  1  0  0  0
 19 24  1  0  0  0
 20 21  2  0  0  0
 20 99  1  0  0  0
 21 23  1  0  0  0
 22 28  1  0  0  0
 22 32  2  0  0  0
 26 27  1  0  0  0
 28100  1  0  0  0
 28101  1  0  0  0
 29102  1  0  0  0
 29103  1  0  0  0
 33 34  1  0  0  0
 33 66  1  0  0  0
 33 70  2  0  0  0
 34 36  1  0  0  0
 34 59  1  0  0  0
 34104  1  0  0  0
 35 44  2  0  0  0
 35 45  1  0  0  0
 35 68  1  0  0  0
 36 56  1  0  0  0
 36105  1  0  0  0
 37 39  1  0  0  0
 37 47  1  0  0  0
 37 66  1  0  0  0
 37106  1  0  0  0
 38 43  2  0  0  0
 38 46  1  0  0  0
 38 47  1  0  0  0
 39 64  1  0  0  0
 39 67  2  0  0  0
 40 52  1  0  0  0
 40 53  2  0  0  0
 40 58  1  0  0  0
 41107  1  0  0  0
 41108  1  0  0  0
 41109  1  0  0  0
 41 48  1  0  0  0
 42 43  1  0  0  0
 42 66  1  0  0  0
 42110  1  0  0  0
 42111  1  0  0  0
 43 44  1  0  0  0
 44112  1  0  0  0
 45 46  2  0  0  0
 45113  1  0  0  0
 46114  1  0  0  0
 47115  1  0  0  0
 47116  1  0  0  0
 48 56  1  0  0  0
 48 65  1  0  0  0
 48117  1  0  0  0
 49 50  1  0  0  0
 49 53  1  0  0  0
 49 64  1  0  0  0
 49118  1  0  0  0
 50 51  1  0  0  0
 50119  1  0  0  0
 50120  1  0  0  0
 51 52  1  0  0  0
 51121  1  0  0  0
 51122  1  0  0  0
 52123  1  0  0  0
 52124  1  0  0  0
 53 54  1  0  0  0
 54 55  2  0  0  0
 54125  1  0  0  0
 55 57  1  0  0  0
 55126  1  0  0  0
 56 69  2  0  0  0
 57 58  2  0  0  0
 57127  1  0  0  0
 58128  1  0  0  0
 59 60  1  0  0  0
 59 61  1  0  0  0
 59 62  1  0  0  0
 60129  1  0  0  0
 60130  1  0  0  0
 60131  1  0  0  0
 61132  1  0  0  0
 61133  1  0  0  0
 61134  1  0  0  0
 62135  1  0  0  0
 62136  1  0  0  0
 62137  1  0  0  0
 63 65  1  0  0  0
 63138  1  0  0  0
 63139  1  0  0  0
 63140  1  0  0  0
 64141  1  0  0  0
 65142  1  0  0  0
 68 80  1  0  0  0
 71 73  2  0  0  0
 71 75  1  0  0  0
 71143  1  0  0  0
 72 74  2  0  0  0
 72 76  1  0  0  0
 72144  1  0  0  0
 73 74  1  0  0  0
 73 77  1  0  0  0
 74 80  1  0  0  0
 75 76  2  0  0  0
 75 81  1  0  0  0
 76 83  1  0  0  0
 77 78  1  0  0  0
 77145  1  0  0  0
 77146  1  0  0  0
 78 79  1  0  0  0
 78147  1  0  0  0
 78148  1  0  0  0
 79 80  1  0  0  0
 79149  1  0  0  0
 79150  1  0  0  0
 80151  1  0  0  0
 81 82  1  0  0  0
 81152  1  0  0  0
 81153  1  0  0  0
 82154  1  0  0  0
M  ISO  4   1 100  68 101  80 101  82 100
M  END
> <chiral flag>
0

> <version>
0

> <s_m_source_file>
/data/baiqing/PycharmProjects/Reinvent-master-3.2/result/LINK_invent/BTK/process_docking_weight1_custom_sum_contain_oxygen_bond_distance_aromatic_linkinvent_7_9_3/rearranged_h_0029.sdf

> <i_m_source_file_index>
32

> <r_mmod_Potential_Energy-OPLS-2005>
1053.21594238281

> <r_mmod_Stretch_Energy-OPLS-2005>
455.030120849609

> <r_mmod_Bend_Energy-OPLS-2005>
420.490112304688

> <r_mmod_Torsional_Energy-OPLS-2005>
234.102096557617

> <r_mmod_Improper_Torsional_Energy-OPLS-2005>
9.99026584625244

> <r_mmod_Van_der_Waal_Energy-OPLS-2005>
137.804473876953

> <r_mmod_Electrostatic_Energy-OPLS-2005>
-384.396911621094

> <r_mmod_Solvation_Energy-OPLS-2005>
-207.853286743164

> <b_mmod_Minimization_Converged-OPLS-2005>
0

> <r_mmod_RMS_Derivative-OPLS-2005>
0.686583578586578

$$$$
32
                    3D
 Structure written by MMmdl.
149157  0  0  1  0            999 V2000
  -30.5528  -14.9625   20.4136 C   0  0  0  0  0  0
  -30.4352  -12.5965   19.4963 C   0  0  0  0  0  0
  -29.5183  -12.5267   18.2541 C   0  0  0  0  0  0
  -28.0529  -12.3113   18.6752 C   0  0  0  0  0  0
  -27.6262  -13.2501   19.8341 C   0  0  2  0  0  0
  -28.6702  -13.2957   20.9700 C   0  0  0  0  0  0
  -25.2447  -13.8219   20.5711 C   0  0  0  0  0  0
  -24.1771  -13.0440   20.9240 C   0  0  0  0  0  0
  -24.6391  -11.6927   20.8764 C   0  0  0  0  0  0
  -23.9077  -10.4295   21.0411 C   0  0  0  0  0  0
  -24.3627   -9.4207   21.9185 C   0  0  0  0  0  0
  -23.6299   -8.2242   22.0754 C   0  0  0  0  0  0
  -22.4280   -8.0282   21.3545 C   0  0  0  0  0  0
  -21.9919   -9.0257   20.4648 C   0  0  0  0  0  0
  -22.7250  -10.2135   20.3059 C   0  0  0  0  0  0
  -21.6855   -6.0737   22.5279 C   0  0  0  0  0  0
  -21.4016   -6.5640   23.8212 C   0  0  0  0  0  0
  -21.3660   -5.6792   24.9174 C   0  0  0  0  0  0
  -21.6044   -4.3055   24.7224 C   0  0  0  0  0  0
  -21.8819   -3.8147   23.4345 C   0  0  0  0  0  0
  -21.9192   -4.6964   22.3402 C   0  0  0  0  0  0
  -22.7791  -13.5210   21.1888 C   0  0  0  0  0  0
  -22.1661   -4.2151   21.0979 F   0  0  0  0  0  0
  -21.5629   -3.4538   25.7736 F   0  0  0  0  0  0
  -29.9417  -13.7075   20.3625 N   0  0  0  0  0  0
  -26.2870  -12.9455   20.3236 N   0  0  0  0  0  0
  -25.9323  -11.6584   20.5744 N   0  0  0  0  0  0
  -22.0438  -12.8201   22.0444 N   0  0  0  0  0  0
  -25.4092  -15.1949   20.4117 N   0  0  0  0  0  0
  -31.7666  -14.9764   20.1724 O   0  0  0  0  0  0
  -21.6643   -6.8880   21.4241 O   0  0  0  0  0  0
  -22.3477  -14.5511   20.6724 O   0  0  0  0  0  0
  -24.6449  -31.8426   23.1869 C   0  0  0  0  0  0
  -25.9215  -32.4686   23.8263 C   0  0  1  0  0  0
  -27.2142  -27.1205   20.1533 C   0  0  0  0  0  0
  -25.5955  -33.8492   24.2178 N   0  0  0  0  0  0
  -23.4490  -30.4621   21.5331 C   0  0  2  0  0  0
  -24.8977  -28.8863   20.1104 C   0  0  0  0  0  0
  -22.7575  -29.4541   22.4854 C   0  0  0  0  0  0
  -18.0307  -28.1397   22.8477 C   0  0  0  0  0  0
  -24.1493  -36.7253   23.2643 C   0  0  0  0  0  0
  -26.0062  -30.7117   21.3876 C   0  0  0  0  0  0
  -26.0766  -29.3217   20.7287 C   0  0  0  0  0  0
  -27.2362  -28.4561   20.7307 C   0  0  0  0  0  0
  -26.0077  -26.7902   19.4972 C   0  0  0  0  0  0
  -24.8771  -27.6347   19.4785 C   0  0  0  0  0  0
  -23.6757  -29.7908   20.1528 C   0  0  0  0  0  0
  -25.4125  -36.3026   24.0314 C   0  0  1  0  0  0
  -20.5920  -28.3725   23.1231 C   0  0  2  0  0  0
  -20.6791  -26.9427   22.5403 C   0  0  0  0  0  0
  -19.5763  -26.6380   21.5214 C   0  0  0  0  0  0
  -18.1945  -26.7934   22.1627 C   0  0  0  0  0  0
  -19.1564  -28.8879   23.2846 C   0  0  0  0  0  0
  -18.9479  -30.1475   23.8871 C   0  0  0  0  0  0
  -17.6475  -30.6592   24.0559 C   0  0  0  0  0  0
  -25.9076  -34.9402   23.5056 C   0  0  0  0  0  0
  -16.5366  -29.9084   23.6337 C   0  0  0  0  0  0
  -16.7291  -28.6503   23.0357 C   0  0  0  0  0  0
  -26.4529  -31.6560   25.0713 C   0  0  0  0  0  0
  -25.3708  -31.3757   26.1404 C   0  0  0  0  0  0
  -27.0399  -30.2954   24.6309 C   0  0  0  0  0  0
  -27.6053  -32.4334   25.7501 C   0  0  0  0  0  0
  -27.5575  -37.1783   24.8465 C   0  0  0  0  0  0
  -21.4266  -29.3048   22.3601 N   0  0  0  0  0  0
  -26.4287  -37.3741   23.9406 N   0  0  0  0  0  0
  -24.7201  -31.0271   22.0908 N   0  0  0  0  0  0
  -23.4211  -28.8090   23.3011 O   0  0  0  0  0  0
  -28.2616  -26.1249   20.2225 O   0  0  0  0  0  0
  -26.5666  -34.8903   22.4637 O   0  0  0  0  0  0
  -23.5564  -32.1309   23.7080 O   0  0  0  0  0  0
  -29.2195  -18.8357   20.3815 C   0  0  0  0  0  0
  -31.8346  -19.2869   20.7475 C   0  0  0  0  0  0
  -29.6122  -20.2809   20.4254 C   0  0  0  0  0  0
  -31.0091  -20.4274   20.6285 C   0  0  0  0  0  0
  -30.1397  -17.6651   20.5138 C   0  0  0  0  0  0
  -28.6235  -21.6155   20.2589 C   0  0  0  0  0  0
  -29.0106  -23.2757   20.3472 C   0  0  0  0  0  0
  -27.9670  -24.5903   20.1114 C   0  0  0  0  0  0
  -31.4354  -17.9937   20.6938 N   0  0  0  0  0  0
  -29.7838  -16.1692   20.4960 N   0  0  0  0  0  0
  -31.7897  -21.9638   20.7457 Cl  0  0  0  0  0  0
  -31.4693  -12.7463   19.1820 H   0  0  0  0  0  0
  -30.4256  -11.6505   20.0399 H   0  0  0  0  0  0
  -29.8400  -11.7237   17.5895 H   0  0  0  0  0  0
  -29.6037  -13.4517   17.6817 H   0  0  0  0  0  0
  -27.9535  -11.2717   18.9900 H   0  0  0  0  0  0
  -27.3883  -12.4346   17.8193 H   0  0  0  0  0  0
  -27.5835  -14.2479   19.3967 H   0  0  0  0  0  0
  -28.7623  -12.3260   21.4616 H   0  0  0  0  0  0
  -28.3687  -14.0075   21.7403 H   0  0  0  0  0  0
  -25.2768   -9.5685   22.4764 H   0  0  0  0  0  0
  -24.0008   -7.4634   22.7473 H   0  0  0  0  0  0
  -21.0847   -8.8778   19.8955 H   0  0  0  0  0  0
  -22.3703  -10.9677   19.6173 H   0  0  0  0  0  0
  -21.2010   -7.6148   23.9717 H   0  0  0  0  0  0
  -21.1482   -6.0522   25.9077 H   0  0  0  0  0  0
  -22.0597   -2.7609   23.2844 H   0  0  0  0  0  0
  -22.4059  -11.9873   22.4847 H   0  0  0  0  0  0
  -21.1051  -13.1222   22.2641 H   0  0  0  0  0  0
  -24.6334  -15.8403   20.5154 H   0  0  0  0  0  0
  -26.2393  -15.6353   20.0386 H   0  0  0  0  0  0
  -26.7279  -32.5286   23.0988 H   0  0  0  0  0  0
  -25.0073  -33.9603   25.0306 H   0  0  0  0  0  0
  -22.7523  -31.2886   21.3780 H   0  0  0  0  0  0
  -23.3758  -35.9582   23.3291 H   0  0  0  0  0  0
  -24.3576  -36.8901   22.2060 H   0  0  0  0  0  0
  -23.7246  -37.6444   23.6691 H   0  0  0  0  0  0
  -26.1644  -31.4655   20.6152 H   0  0  0  0  0  0
  -26.8757  -30.7612   22.0316 H   0  0  0  0  0  0
  -28.1340  -28.7848   21.2352 H   0  0  0  0  0  0
  -25.9008  -25.8343   19.0084 H   0  0  0  0  0  0
  -23.9773  -27.2960   18.9834 H   0  0  0  0  0  0
  -23.8139  -30.5648   19.3970 H   0  0  0  0  0  0
  -22.7898  -29.2344   19.8418 H   0  0  0  0  0  0
  -25.1315  -36.1850   25.0806 H   0  0  0  0  0  0
  -21.0013  -28.3317   24.1352 H   0  0  0  0  0  0
  -20.5688  -26.2339   23.3624 H   0  0  0  0  0  0
  -21.6656  -26.7433   22.1197 H   0  0  0  0  0  0
  -19.6924  -25.6285   21.1259 H   0  0  0  0  0  0
  -19.6697  -27.3177   20.6733 H   0  0  0  0  0  0
  -17.4213  -26.6675   21.4032 H   0  0  0  0  0  0
  -18.0347  -26.0084   22.9032 H   0  0  0  0  0  0
  -19.7954  -30.7300   24.2226 H   0  0  0  0  0  0
  -17.5027  -31.6270   24.5165 H   0  0  0  0  0  0
  -15.5364  -30.2976   23.7676 H   0  0  0  0  0  0
  -15.8693  -28.0814   22.7084 H   0  0  0  0  0  0
  -24.5882  -30.7115   25.7718 H   0  0  0  0  0  0
  -24.8905  -32.2944   26.4782 H   0  0  0  0  0  0
  -25.7981  -30.8951   27.0213 H   0  0  0  0  0  0
  -26.3022  -29.6668   24.1308 H   0  0  0  0  0  0
  -27.3995  -29.7264   25.4892 H   0  0  0  0  0  0
  -27.8937  -30.4184   23.9642 H   0  0  0  0  0  0
  -27.2637  -33.3652   26.2022 H   0  0  0  0  0  0
  -28.3893  -32.6868   25.0353 H   0  0  0  0  0  0
  -28.0689  -31.8499   26.5465 H   0  0  0  0  0  0
  -28.2584  -38.0088   24.7510 H   0  0  0  0  0  0
  -28.1080  -36.2616   24.6296 H   0  0  0  0  0  0
  -27.2291  -37.1433   25.8868 H   0  0  0  0  0  0
  -20.9479  -29.8758   21.6775 H   0  0  0  0  0  0
  -26.0151  -38.2808   24.1407 H   0  0  0  0  0  0
  -28.1697  -18.6224   20.2351 H   0  0  0  0  0  0
  -32.8954  -19.4221   20.8996 H   0  0  0  0  0  0
  -27.8255  -21.4553   20.9836 H   0  0  0  0  0  0
  -28.1404  -21.4734   19.2925 H   0  0  0  0  0  0
  -29.8150  -23.4368   19.6307 H   0  0  0  0  0  0
  -29.4607  -23.4307   21.3274 H   0  0  0  0  0  0
  -27.1191  -24.4157   20.7747 H   0  0  0  0  0  0
  -27.5728  -24.4445   19.1061 H   0  0  0  0  0  0
  -28.7945  -15.9917   20.5530 H   0  0  0  0  0  0
  1 25  1  0  0  0
  1 30  2  0  0  0
  1 80  1  0  0  0
  2  3  1  0  0  0
  2 25  1  0  0  0
  2 82  1  0  0  0
  2 83  1  0  0  0
  3  4  1  0  0  0
  3 84  1  0  0  0
  3 85  1  0  0  0
  4  5  1  0  0  0
  4 86  1  0  0  0
  4 87  1  0  0  0
  5  6  1  0  0  0
  5 26  1  0  0  0
  5 88  1  0  0  0
  6 25  1  0  0  0
  6 89  1  0  0  0
  6 90  1  0  0  0
  7  8  2  0  0  0
  7 26  1  0  0  0
  7 29  1  0  0  0
  8  9  1  0  0  0
  8 22  1  0  0  0
  9 10  1  0  0  0
  9 27  2  0  0  0
 10 11  2  0  0  0
 10 15  1  0  0  0
 11 12  1  0  0  0
 11 91  1  0  0  0
 12 13  2  0  0  0
 12 92  1  0  0  0
 13 14  1  0  0  0
 13 31  1  0  0  0
 14 15  2  0  0  0
 14 93  1  0  0  0
 15 94  1  0  0  0
 16 17  2  0  0  0
 16 21  1  0  0  0
 16 31  1  0  0  0
 17 18  1  0  0  0
 17 95  1  0  0  0
 18 19  2  0  0  0
 18 96  1  0  0  0
 19 20  1  0  0  0
 19 24  1  0  0  0
 20 21  2  0  0  0
 20 97  1  0  0  0
 21 23  1  0  0  0
 22 28  1  0  0  0
 22 32  2  0  0  0
 26 27  1  0  0  0
 28 98  1  0  0  0
 28 99  1  0  0  0
 29100  1  0  0  0
 29101  1  0  0  0
 33 34  1  0  0  0
 33 66  1  0  0  0
 33 70  2  0  0  0
 34 36  1  0  0  0
 34 59  1  0  0  0
 34102  1  0  0  0
 35 44  2  0  0  0
 35 45  1  0  0  0
 35 68  1  0  0  0
 36 56  1  0  0  0
 36103  1  0  0  0
 37 39  1  0  0  0
 37 47  1  0  0  0
 37 66  1  0  0  0
 37104  1  0  0  0
 38 43  2  0  0  0
 38 46  1  0  0  0
 38 47  1  0  0  0
 39 64  1  0  0  0
 39 67  2  0  0  0
 40 52  1  0  0  0
 40 53  2  0  0  0
 40 58  1  0  0  0
 41105  1  0  0  0
 41106  1  0  0  0
 41107  1  0  0  0
 41 48  1  0  0  0
 42 43  1  0  0  0
 42 66  1  0  0  0
 42108  1  0  0  0
 42109  1  0  0  0
 43 44  1  0  0  0
 44110  1  0  0  0
 45 46  2  0  0  0
 45111  1  0  0  0
 46112  1  0  0  0
 47113  1  0  0  0
 47114  1  0  0  0
 48 56  1  0  0  0
 48 65  1  0  0  0
 48115  1  0  0  0
 49 50  1  0  0  0
 49 53  1  0  0  0
 49 64  1  0  0  0
 49116  1  0  0  0
 50 51  1  0  0  0
 50117  1  0  0  0
 50118  1  0  0  0
 51 52  1  0  0  0
 51119  1  0  0  0
 51120  1  0  0  0
 52121  1  0  0  0
 52122  1  0  0  0
 53 54  1  0  0  0
 54 55  2  0  0  0
 54123  1  0  0  0
 55 57  1  0  0  0
 55124  1  0  0  0
 56 69  2  0  0  0
 57 58  2  0  0  0
 57125  1  0  0  0
 58126  1  0  0  0
 59 60  1  0  0  0
 59 61  1  0  0  0
 59 62  1  0  0  0
 60127  1  0  0  0
 60128  1  0  0  0
 60129  1  0  0  0
 61130  1  0  0  0
 61131  1  0  0  0
 61132  1  0  0  0
 62133  1  0  0  0
 62134  1  0  0  0
 62135  1  0  0  0
 63 65  1  0  0  0
 63136  1  0  0  0
 63137  1  0  0  0
 63138  1  0  0  0
 64139  1  0  0  0
 65140  1  0  0  0
 68 78  1  0  0  0
 71 73  2  0  0  0
 71 75  1  0  0  0
 71141  1  0  0  0
 72 74  2  0  0  0
 72 79  1  0  0  0
 72142  1  0  0  0
 73 74  1  0  0  0
 73 76  1  0  0  0
 74 81  1  0  0  0
 75 79  2  0  0  0
 75 80  1  0  0  0
 76 77  1  0  0  0
 76143  1  0  0  0
 76144  1  0  0  0
 77 78  1  0  0  0
 77145  1  0  0  0
 77146  1  0  0  0
 78147  1  0  0  0
 78148  1  0  0  0
 80149  1  0  0  0
M  ISO  4   1 100  68 101  78 101  80 100
M  END
> <chiral flag>
0

> <version>
0

> <s_m_source_file>
/data/baiqing/PycharmProjects/Reinvent-master-3.2/result/LINK_invent/BTK/process_docking_weight1_custom_sum_contain_oxygen_bond_distance_aromatic_linkinvent_7_9_3/rearranged_h_0029.sdf

> <i_m_source_file_index>
33

> <r_mmod_Potential_Energy-OPLS-2005>
415.91015625

> <r_mmod_Stretch_Energy-OPLS-2005>
282.343627929688

> <r_mmod_Bend_Energy-OPLS-2005>
258.282470703125

> <r_mmod_Torsional_Energy-OPLS-2005>
202.505752563477

> <r_mmod_Improper_Torsional_Energy-OPLS-2005>
5.26662397384644

> <r_mmod_Van_der_Waal_Energy-OPLS-2005>
139.756301879883

> <r_mmod_Electrostatic_Energy-OPLS-2005>
-436.182952880859

> <r_mmod_Solvation_Energy-OPLS-2005>
-239.276565551758

> <b_mmod_Minimization_Converged-OPLS-2005>
0

> <r_mmod_RMS_Derivative-OPLS-2005>
0.271165907382965

$$$$
33
                    3D
 Structure written by MMmdl.
156164  0  0  1  0            999 V2000
  -30.5911  -14.6805   20.5062 C   0  0  0  0  0  0
  -30.4456  -12.4178   19.4566 C   0  0  0  0  0  0
  -29.5121  -12.5171   18.2281 C   0  0  0  0  0  0
  -28.0350  -12.3468   18.6392 C   0  0  0  0  0  0
  -27.6534  -13.2163   19.8672 C   0  0  2  0  0  0
  -28.6986  -13.0679   20.9956 C   0  0  0  0  0  0
  -25.2502  -13.8122   20.5568 C   0  0  0  0  0  0
  -24.1799  -13.0403   20.9156 C   0  0  0  0  0  0
  -24.6393  -11.6885   20.8748 C   0  0  0  0  0  0
  -23.9065  -10.4276   21.0418 C   0  0  0  0  0  0
  -24.3616   -9.4193   21.9194 C   0  0  0  0  0  0
  -23.6289   -8.2230   22.0759 C   0  0  0  0  0  0
  -22.4273   -8.0271   21.3547 C   0  0  0  0  0  0
  -21.9911   -9.0244   20.4650 C   0  0  0  0  0  0
  -22.7239  -10.2122   20.3065 C   0  0  0  0  0  0
  -21.6845   -6.0733   22.5281 C   0  0  0  0  0  0
  -21.4004   -6.5639   23.8214 C   0  0  0  0  0  0
  -21.3660   -5.6792   24.9177 C   0  0  0  0  0  0
  -21.6048   -4.3057   24.7226 C   0  0  0  0  0  0
  -21.8817   -3.8147   23.4348 C   0  0  0  0  0  0
  -21.9190   -4.6963   22.3404 C   0  0  0  0  0  0
  -22.7827  -13.5207   21.1842 C   0  0  0  0  0  0
  -22.1659   -4.2151   21.0981 F   0  0  0  0  0  0
  -21.5637   -3.4540   25.7740 F   0  0  0  0  0  0
  -30.0111  -13.4357   20.4368 N   0  0  0  0  0  0
  -26.2982  -12.9333   20.3331 N   0  0  0  0  0  0
  -25.9332  -11.6491   20.5797 N   0  0  0  0  0  0
  -22.0482  -12.8207   22.0417 N   0  0  0  0  0  0
  -25.4092  -15.1808   20.3783 N   0  0  0  0  0  0
  -31.7439  -14.8613   20.1055 O   0  0  0  0  0  0
  -21.6632   -6.8872   21.4244 O   0  0  0  0  0  0
  -22.3508  -14.5519   20.6707 O   0  0  0  0  0  0
  -24.6272  -31.8576   23.1983 C   0  0  0  0  0  0
  -25.9113  -32.4761   23.8321 C   0  0  1  0  0  0
  -27.2343  -27.3041   20.1356 C   0  0  0  0  0  0
  -25.5928  -33.8559   24.2256 N   0  0  0  0  0  0
  -23.4216  -30.4766   21.5409 C   0  0  2  0  0  0
  -24.8699  -28.9137   20.1232 C   0  0  0  0  0  0
  -22.7477  -29.4613   22.4938 C   0  0  0  0  0  0
  -18.0295  -28.1383   22.8478 C   0  0  0  0  0  0
  -24.1495  -36.7285   23.2640 C   0  0  0  0  0  0
  -25.9609  -30.7843   21.3677 C   0  0  0  0  0  0
  -26.0369  -29.4048   20.7210 C   0  0  0  0  0  0
  -27.2235  -28.6145   20.7085 C   0  0  0  0  0  0
  -26.0438  -26.8518   19.5324 C   0  0  0  0  0  0
  -24.8749  -27.6428   19.5207 C   0  0  0  0  0  0
  -23.6386  -29.7979   20.1618 C   0  0  0  0  0  0
  -25.4116  -36.3069   24.0335 C   0  0  1  0  0  0
  -20.5888  -28.3685   23.1287 C   0  0  2  0  0  0
  -20.6783  -26.9407   22.5413 C   0  0  0  0  0  0
  -19.5762  -26.6379   21.5211 C   0  0  0  0  0  0
  -18.1939  -26.7924   22.1617 C   0  0  0  0  0  0
  -19.1545  -28.8850   23.2874 C   0  0  0  0  0  0
  -18.9467  -30.1451   23.8891 C   0  0  0  0  0  0
  -17.6466  -30.6582   24.0560 C   0  0  0  0  0  0
  -25.9055  -34.9441   23.5097 C   0  0  0  0  0  0
  -16.5358  -29.9078   23.6332 C   0  0  0  0  0  0
  -16.7280  -28.6502   23.0341 C   0  0  0  0  0  0
  -26.4497  -31.6580   25.0698 C   0  0  0  0  0  0
  -25.3729  -31.3730   26.1428 C   0  0  0  0  0  0
  -27.0340  -30.3011   24.6138 C   0  0  0  0  0  0
  -27.6054  -32.4319   25.7473 C   0  0  0  0  0  0
  -27.5578  -37.1795   24.8466 C   0  0  0  0  0  0
  -21.4192  -29.3037   22.3681 N   0  0  0  0  0  0
  -26.4290  -37.3763   23.9412 N   0  0  0  0  0  0
  -24.6885  -31.0571   22.0931 N   0  0  0  0  0  0
  -23.4201  -28.8160   23.3025 O   0  0  0  0  0  0
  -28.3955  -26.5249   20.0567 O   0  0  0  0  0  0
  -26.5613  -34.8917   22.4658 O   0  0  0  0  0  0
  -23.5436  -32.1378   23.7311 O   0  0  0  0  0  0
  -30.3697  -19.4655   20.1819 C   0  0  0  0  0  0
  -29.2430  -20.0960   20.7917 C   0  0  0  0  0  0
  -28.3092  -19.1947   21.3924 C   0  0  0  0  0  0
  -29.6820  -17.1563   20.8382 C   0  0  0  0  0  0
  -30.5816  -18.0453   20.1825 C   0  0  0  0  0  0
  -28.5549  -17.7784   21.4476 C   0  0  0  0  0  0
  -27.0378  -19.7510   22.0296 C   0  0  0  0  0  0
  -29.1288  -21.6807   20.9675 C   0  0  0  0  0  0
  -27.9739  -23.8515   19.8967 C   0  0  0  0  0  0
  -28.5093  -25.1599   20.6376 C   0  0  0  0  0  0
  -29.7615  -15.6844   20.9410 N   0  0  0  0  0  0
  -28.8339  -22.5800   19.7851 N   0  3  0  0  0  0
  -31.6786  -17.5607   19.5561 F   0  0  0  0  0  0
  -27.4725  -16.7555   22.3370 Cl  0  0  0  0  0  0
  -31.4850  -12.5570   19.1548 H   0  0  0  0  0  0
  -30.3946  -11.4215   19.8986 H   0  0  0  0  0  0
  -29.7823  -11.7627   17.4879 H   0  0  0  0  0  0
  -29.6476  -13.4842   17.7411 H   0  0  0  0  0  0
  -27.8782  -11.2930   18.8723 H   0  0  0  0  0  0
  -27.3795  -12.5721   17.7973 H   0  0  0  0  0  0
  -27.6707  -14.2526   19.5297 H   0  0  0  0  0  0
  -28.7218  -12.0405   21.3621 H   0  0  0  0  0  0
  -28.4328  -13.6789   21.8595 H   0  0  0  0  0  0
  -25.2759   -9.5668   22.4772 H   0  0  0  0  0  0
  -23.9997   -7.4618   22.7476 H   0  0  0  0  0  0
  -21.0846   -8.8761   19.8949 H   0  0  0  0  0  0
  -22.3699  -10.9664   19.6178 H   0  0  0  0  0  0
  -21.1984   -7.6144   23.9716 H   0  0  0  0  0  0
  -21.1489   -6.0523   25.9080 H   0  0  0  0  0  0
  -22.0596   -2.7611   23.2846 H   0  0  0  0  0  0
  -22.4104  -11.9867   22.4801 H   0  0  0  0  0  0
  -21.1109  -13.1243   22.2648 H   0  0  0  0  0  0
  -24.6436  -15.8313   20.5117 H   0  0  0  0  0  0
  -26.2752  -15.6355   20.1237 H   0  0  0  0  0  0
  -26.7176  -32.5433   23.1065 H   0  0  0  0  0  0
  -25.0109  -33.9701   25.0423 H   0  0  0  0  0  0
  -22.7165  -31.2967   21.3897 H   0  0  0  0  0  0
  -23.3757  -35.9616   23.3303 H   0  0  0  0  0  0
  -24.3591  -36.8905   22.2054 H   0  0  0  0  0  0
  -23.7251  -37.6488   23.6663 H   0  0  0  0  0  0
  -26.0881  -31.5414   20.5929 H   0  0  0  0  0  0
  -26.8437  -30.8410   21.9931 H   0  0  0  0  0  0
  -28.1308  -29.0007   21.1517 H   0  0  0  0  0  0
  -26.0182  -25.8837   19.0531 H   0  0  0  0  0  0
  -23.9796  -27.2614   19.0496 H   0  0  0  0  0  0
  -23.7617  -30.5667   19.3984 H   0  0  0  0  0  0
  -22.7592  -29.2253   19.8625 H   0  0  0  0  0  0
  -25.1298  -36.1917   25.0827 H   0  0  0  0  0  0
  -20.9975  -28.3254   24.1410 H   0  0  0  0  0  0
  -20.5690  -26.2285   23.3605 H   0  0  0  0  0  0
  -21.6651  -26.7439   22.1200 H   0  0  0  0  0  0
  -19.6929  -25.6291   21.1242 H   0  0  0  0  0  0
  -19.6714  -27.3187   20.6739 H   0  0  0  0  0  0
  -17.4212  -26.6681   21.4016 H   0  0  0  0  0  0
  -18.0335  -26.0062   22.9008 H   0  0  0  0  0  0
  -19.7944  -30.7268   24.2255 H   0  0  0  0  0  0
  -17.5024  -31.6265   24.5156 H   0  0  0  0  0  0
  -15.5359  -30.2976   23.7660 H   0  0  0  0  0  0
  -15.8681  -28.0824   22.7047 H   0  0  0  0  0  0
  -24.5902  -30.7081   25.7761 H   0  0  0  0  0  0
  -24.8924  -32.2898   26.4848 H   0  0  0  0  0  0
  -25.8053  -30.8912   27.0205 H   0  0  0  0  0  0
  -26.2901  -29.6759   24.1183 H   0  0  0  0  0  0
  -27.4078  -29.7272   25.4624 H   0  0  0  0  0  0
  -27.8751  -30.4321   23.9327 H   0  0  0  0  0  0
  -27.2667  -33.3630   26.2032 H   0  0  0  0  0  0
  -28.3872  -32.6864   25.0306 H   0  0  0  0  0  0
  -28.0705  -31.8452   26.5404 H   0  0  0  0  0  0
  -28.2587  -38.0096   24.7502 H   0  0  0  0  0  0
  -28.1083  -36.2624   24.6305 H   0  0  0  0  0  0
  -27.2297  -37.1453   25.8869 H   0  0  0  0  0  0
  -20.9374  -29.8740   21.6872 H   0  0  0  0  0  0
  -26.0175  -38.2843   24.1402 H   0  0  0  0  0  0
  -31.1225  -20.0831   19.7137 H   0  0  0  0  0  0
  -27.2344  -20.0868   23.0479 H   0  0  0  0  0  0
  -26.2301  -19.0217   22.0649 H   0  0  0  0  0  0
  -26.6399  -20.5877   21.4561 H   0  0  0  0  0  0
  -30.0796  -22.0175   21.3817 H   0  0  0  0  0  0
  -28.4121  -21.9180   21.7516 H   0  0  0  0  0  0
  -27.7676  -24.1444   18.8671 H   0  0  0  0  0  0
  -27.0012  -23.5828   20.3113 H   0  0  0  0  0  0
  -29.5812  -25.0232   20.7825 H   0  0  0  0  0  0
  -28.0993  -25.1834   21.6481 H   0  0  0  0  0  0
  -28.9208  -15.3033   21.3483 H   0  0  0  0  0  0
  -28.3586  -21.9893   19.1219 H   0  0  0  0  0  0
  -29.7147  -22.8173   19.3561 H   0  0  0  0  0  0
  1 25  1  0  0  0
  1 30  2  0  0  0
  1 81  1  0  0  0
  2  3  1  0  0  0
  2 25  1  0  0  0
  2 85  1  0  0  0
  2 86  1  0  0  0
  3  4  1  0  0  0
  3 87  1  0  0  0
  3 88  1  0  0  0
  4  5  1  0  0  0
  4 89  1  0  0  0
  4 90  1  0  0  0
  5  6  1  0  0  0
  5 26  1  0  0  0
  5 91  1  0  0  0
  6 25  1  0  0  0
  6 92  1  0  0  0
  6 93  1  0  0  0
  7  8  2  0  0  0
  7 26  1  0  0  0
  7 29  1  0  0  0
  8  9  1  0  0  0
  8 22  1  0  0  0
  9 10  1  0  0  0
  9 27  2  0  0  0
 10 11  2  0  0  0
 10 15  1  0  0  0
 11 12  1  0  0  0
 11 94  1  0  0  0
 12 13  2  0  0  0
 12 95  1  0  0  0
 13 14  1  0  0  0
 13 31  1  0  0  0
 14 15  2  0  0  0
 14 96  1  0  0  0
 15 97  1  0  0  0
 16 17  2  0  0  0
 16 21  1  0  0  0
 16 31  1  0  0  0
 17 18  1  0  0  0
 17 98  1  0  0  0
 18 19  2  0  0  0
 18 99  1  0  0  0
 19 20  1  0  0  0
 19 24  1  0  0  0
 20 21  2  0  0  0
 20100  1  0  0  0
 21 23  1  0  0  0
 22 28  1  0  0  0
 22 32  2  0  0  0
 26 27  1  0  0  0
 28101  1  0  0  0
 28102  1  0  0  0
 29103  1  0  0  0
 29104  1  0  0  0
 33 34  1  0  0  0
 33 66  1  0  0  0
 33 70  2  0  0  0
 34 36  1  0  0  0
 34 59  1  0  0  0
 34105  1  0  0  0
 35 44  2  0  0  0
 35 45  1  0  0  0
 35 68  1  0  0  0
 36 56  1  0  0  0
 36106  1  0  0  0
 37 39  1  0  0  0
 37 47  1  0  0  0
 37 66  1  0  0  0
 37107  1  0  0  0
 38 43  2  0  0  0
 38 46  1  0  0  0
 38 47  1  0  0  0
 39 64  1  0  0  0
 39 67  2  0  0  0
 40 52  1  0  0  0
 40 53  2  0  0  0
 40 58  1  0  0  0
 41108  1  0  0  0
 41109  1  0  0  0
 41110  1  0  0  0
 41 48  1  0  0  0
 42 43  1  0  0  0
 42 66  1  0  0  0
 42111  1  0  0  0
 42112  1  0  0  0
 43 44  1  0  0  0
 44113  1  0  0  0
 45 46  2  0  0  0
 45114  1  0  0  0
 46115  1  0  0  0
 47116  1  0  0  0
 47117  1  0  0  0
 48 56  1  0  0  0
 48 65  1  0  0  0
 48118  1  0  0  0
 49 50  1  0  0  0
 49 53  1  0  0  0
 49 64  1  0  0  0
 49119  1  0  0  0
 50 51  1  0  0  0
 50120  1  0  0  0
 50121  1  0  0  0
 51 52  1  0  0  0
 51122  1  0  0  0
 51123  1  0  0  0
 52124  1  0  0  0
 52125  1  0  0  0
 53 54  1  0  0  0
 54 55  2  0  0  0
 54126  1  0  0  0
 55 57  1  0  0  0
 55127  1  0  0  0
 56 69  2  0  0  0
 57 58  2  0  0  0
 57128  1  0  0  0
 58129  1  0  0  0
 59 60  1  0  0  0
 59 61  1  0  0  0
 59 62  1  0  0  0
 60130  1  0  0  0
 60131  1  0  0  0
 60132  1  0  0  0
 61133  1  0  0  0
 61134  1  0  0  0
 61135  1  0  0  0
 62136  1  0  0  0
 62137  1  0  0  0
 62138  1  0  0  0
 63 65  1  0  0  0
 63139  1  0  0  0
 63140  1  0  0  0
 63141  1  0  0  0
 64142  1  0  0  0
 65143  1  0  0  0
 68 80  1  0  0  0
 71 72  2  0  0  0
 71 75  1  0  0  0
 71144  1  0  0  0
 72 73  1  0  0  0
 72 78  1  0  0  0
 73 76  2  0  0  0
 73 77  1  0  0  0
 74 75  2  0  0  0
 74 76  1  0  0  0
 74 81  1  0  0  0
 75 83  1  0  0  0
 76 84  1  0  0  0
 77145  1  0  0  0
 77146  1  0  0  0
 77147  1  0  0  0
 78 82  1  0  0  0
 78148  1  0  0  0
 78149  1  0  0  0
 79 80  1  0  0  0
 79 82  1  0  0  0
 79150  1  0  0  0
 79151  1  0  0  0
 80152  1  0  0  0
 80153  1  0  0  0
 81154  1  0  0  0
 82155  1  0  0  0
 82156  1  0  0  0
M  CHG  1  82   1
M  ISO  4   1 100  68 101  80 101  81 100
M  END
> <chiral flag>
0

> <version>
0

> <s_m_source_file>
/data/baiqing/PycharmProjects/Reinvent-master-3.2/result/LINK_invent/BTK/process_docking_weight1_custom_sum_contain_oxygen_bond_distance_aromatic_linkinvent_7_9_3/rearranged_h_0029.sdf

> <i_m_source_file_index>
34

> <r_mmod_Potential_Energy-OPLS-2005>
-90.3946228027344

> <r_mmod_Stretch_Energy-OPLS-2005>
94.3543853759766

> <r_mmod_Bend_Energy-OPLS-2005>
190.464935302734

> <r_mmod_Torsional_Energy-OPLS-2005>
237.98991394043

> <r_mmod_Improper_Torsional_Energy-OPLS-2005>
4.07287979125977

> <r_mmod_Van_der_Waal_Energy-OPLS-2005>
138.259750366211

> <r_mmod_Electrostatic_Energy-OPLS-2005>
-323.698333740234

> <r_mmod_Solvation_Energy-OPLS-2005>
-484.601257324219

> <b_mmod_Minimization_Converged-OPLS-2005>
0

> <r_mmod_RMS_Derivative-OPLS-2005>
0.970918416976929

$$$$
34
                    3D
 Structure written by MMmdl.
149157  0  0  1  0            999 V2000
  -30.4659  -15.2036   20.3680 C   0  0  0  0  0  0
  -30.4396  -12.7650   19.5146 C   0  0  0  0  0  0
  -29.5321  -12.5549   18.2782 C   0  0  0  0  0  0
  -28.0799  -12.2915   18.7119 C   0  0  0  0  0  0
  -27.6142  -13.2677   19.8196 C   0  0  2  0  0  0
  -28.6495  -13.4233   20.9530 C   0  0  0  0  0  0
  -25.2410  -13.8224   20.5749 C   0  0  0  0  0  0
  -24.1753  -13.0430   20.9269 C   0  0  0  0  0  0
  -24.6396  -11.6925   20.8773 C   0  0  0  0  0  0
  -23.9092  -10.4288   21.0423 C   0  0  0  0  0  0
  -24.3641   -9.4198   21.9187 C   0  0  0  0  0  0
  -23.6312   -8.2241   22.0752 C   0  0  0  0  0  0
  -22.4290   -8.0290   21.3550 C   0  0  0  0  0  0
  -21.9940   -9.0258   20.4645 C   0  0  0  0  0  0
  -22.7274  -10.2132   20.3060 C   0  0  0  0  0  0
  -21.6847   -6.0756   22.5284 C   0  0  0  0  0  0
  -21.4005   -6.5651   23.8223 C   0  0  0  0  0  0
  -21.3656   -5.6800   24.9171 C   0  0  0  0  0  0
  -21.6046   -4.3067   24.7217 C   0  0  0  0  0  0
  -21.8818   -3.8168   23.4333 C   0  0  0  0  0  0
  -21.9193   -4.6987   22.3402 C   0  0  0  0  0  0
  -22.7772  -13.5190   21.1915 C   0  0  0  0  0  0
  -22.1664   -4.2177   21.0978 F   0  0  0  0  0  0
  -21.5622   -3.4548   25.7719 F   0  0  0  0  0  0
  -29.8895  -13.9079   20.3271 N   0  0  0  0  0  0
  -26.2829  -12.9492   20.3201 N   0  0  0  0  0  0
  -25.9328  -11.6601   20.5721 N   0  0  0  0  0  0
  -22.0430  -12.8161   22.0458 N   0  0  0  0  0  0
  -25.4070  -15.1962   20.4198 N   0  0  0  0  0  0
  -31.6869  -15.2021   20.1537 O   0  0  0  0  0  0
  -21.6645   -6.8897   21.4255 O   0  0  0  0  0  0
  -22.3444  -14.5487   20.6744 O   0  0  0  0  0  0
  -24.6595  -31.8290   23.1773 C   0  0  0  0  0  0
  -25.9290  -32.4631   23.8205 C   0  0  1  0  0  0
  -27.2068  -26.9636   20.1821 C   0  0  0  0  0  0
  -25.5964  -33.8434   24.2122 N   0  0  0  0  0  0
  -23.4703  -30.4451   21.5255 C   0  0  2  0  0  0
  -24.9200  -28.8404   20.1177 C   0  0  0  0  0  0
  -22.7639  -29.4478   22.4807 C   0  0  0  0  0  0
  -18.0311  -28.1421   22.8472 C   0  0  0  0  0  0
  -24.1477  -36.7220   23.2646 C   0  0  0  0  0  0
  -26.0385  -30.6467   21.4008 C   0  0  0  0  0  0
  -26.1059  -29.2389   20.7490 C   0  0  0  0  0  0
  -27.2483  -28.3235   20.7565 C   0  0  0  0  0  0
  -25.9947  -26.7168   19.4950 C   0  0  0  0  0  0
  -24.8882  -27.5974   19.4694 C   0  0  0  0  0  0
  -23.7074  -29.7660   20.1501 C   0  0  0  0  0  0
  -25.4117  -36.2987   24.0313 C   0  0  1  0  0  0
  -20.5932  -28.3755   23.1213 C   0  0  2  0  0  0
  -20.6780  -26.9446   22.5404 C   0  0  0  0  0  0
  -19.5749  -26.6394   21.5211 C   0  0  0  0  0  0
  -18.1938  -26.7960   22.1626 C   0  0  0  0  0  0
  -19.1574  -28.8908   23.2829 C   0  0  0  0  0  0
  -18.9484  -30.1506   23.8857 C   0  0  0  0  0  0
  -17.6471  -30.6608   24.0567 C   0  0  0  0  0  0
  -25.9078  -34.9377   23.5031 C   0  0  0  0  0  0
  -16.5362  -29.9102   23.6354 C   0  0  0  0  0  0
  -16.7296  -28.6523   23.0367 C   0  0  0  0  0  0
  -26.4553  -31.6555   25.0708 C   0  0  0  0  0  0
  -25.3700  -31.3791   26.1379 C   0  0  0  0  0  0
  -27.0433  -30.2931   24.6395 C   0  0  0  0  0  0
  -27.6069  -32.4333   25.7487 C   0  0  0  0  0  0
  -27.5566  -37.1770   24.8470 C   0  0  0  0  0  0
  -21.4315  -29.3053   22.3571 N   0  0  0  0  0  0
  -26.4264  -37.3724   23.9417 N   0  0  0  0  0  0
  -24.7440  -30.9993   22.0885 N   0  0  0  0  0  0
  -23.4211  -28.8038   23.3018 O   0  0  0  0  0  0
  -28.2011  -25.8626   20.2167 O   0  0  0  0  0  0
  -26.5672  -34.8901   22.4617 O   0  0  0  0  0  0
  -23.5687  -32.1228   23.6922 O   0  0  0  0  0  0
  -28.9022  -20.4074   19.1569 C   0  0  0  0  0  0
  -28.5209  -21.8402   19.1307 C   0  0  0  0  0  0
  -29.3745  -19.6443   20.3003 C   0  0  0  0  0  0
  -28.5744  -22.7420   20.2711 C   0  0  0  0  0  0
  -29.3903  -20.6230   21.3859 C   0  0  0  0  0  0
  -28.0125  -22.4086   17.8118 C   0  0  0  0  0  0
  -30.1249  -18.0653   20.2620 C   0  0  0  0  0  0
  -27.7971  -24.2943   20.4220 C   0  0  0  0  0  0
  -29.0045  -21.9960   21.3703 N   0  0  0  0  0  0
  -29.7185  -16.4724   20.4384 N   0  0  0  0  0  0
  -29.9861  -20.0725   22.9108 Cl  0  0  0  0  0  0
  -31.4605  -12.9604   19.1821 H   0  0  0  0  0  0
  -30.4951  -11.8535   20.1123 H   0  0  0  0  0  0
  -29.8998  -11.7227   17.6753 H   0  0  0  0  0  0
  -29.5709  -13.4387   17.6401 H   0  0  0  0  0  0
  -28.0355  -11.2705   19.0903 H   0  0  0  0  0  0
  -27.4082  -12.3289   17.8537 H   0  0  0  0  0  0
  -27.5361  -14.2370   19.3253 H   0  0  0  0  0  0
  -28.8063  -12.4848   21.4860 H   0  0  0  0  0  0
  -28.3011  -14.1467   21.6915 H   0  0  0  0  0  0
  -25.2785   -9.5669   22.4758 H   0  0  0  0  0  0
  -24.0028   -7.4626   22.7453 H   0  0  0  0  0  0
  -21.0880   -8.8774   19.8941 H   0  0  0  0  0  0
  -22.3741  -10.9668   19.6167 H   0  0  0  0  0  0
  -21.2000   -7.6158   23.9722 H   0  0  0  0  0  0
  -21.1471   -6.0530   25.9071 H   0  0  0  0  0  0
  -22.0602   -2.7638   23.2819 H   0  0  0  0  0  0
  -22.4066  -11.9839   22.4858 H   0  0  0  0  0  0
  -21.1025  -13.1137   22.2614 H   0  0  0  0  0  0
  -24.6384  -15.8491   20.5297 H   0  0  0  0  0  0
  -26.2507  -15.6349   20.0761 H   0  0  0  0  0  0
  -26.7352  -32.5176   23.0913 H   0  0  0  0  0  0
  -25.0095  -33.9502   25.0268 H   0  0  0  0  0  0
  -22.7822  -31.2774   21.3628 H   0  0  0  0  0  0
  -23.3742  -35.9551   23.3300 H   0  0  0  0  0  0
  -24.3562  -36.8858   22.2061 H   0  0  0  0  0  0
  -23.7217  -37.6406   23.6688 H   0  0  0  0  0  0
  -26.2080  -31.3826   20.6140 H   0  0  0  0  0  0
  -26.9052  -30.7078   22.0470 H   0  0  0  0  0  0
  -28.1506  -28.6326   21.2685 H   0  0  0  0  0  0
  -25.8656  -25.7807   18.9742 H   0  0  0  0  0  0
  -23.9886  -27.2889   18.9526 H   0  0  0  0  0  0
  -23.8702  -30.5366   19.3959 H   0  0  0  0  0  0
  -22.8155  -29.2242   19.8272 H   0  0  0  0  0  0
  -25.1314  -36.1796   25.0804 H   0  0  0  0  0  0
  -21.0026  -28.3340   24.1327 H   0  0  0  0  0  0
  -20.5648  -26.2378   23.3638 H   0  0  0  0  0  0
  -21.6652  -26.7409   22.1228 H   0  0  0  0  0  0
  -19.6874  -25.6286   21.1278 H   0  0  0  0  0  0
  -19.6681  -27.3190   20.6728 H   0  0  0  0  0  0
  -17.4210  -26.6738   21.4018 H   0  0  0  0  0  0
  -18.0316  -26.0104   22.9019 H   0  0  0  0  0  0
  -19.7941  -30.7358   24.2205 H   0  0  0  0  0  0
  -17.5011  -31.6276   24.5193 H   0  0  0  0  0  0
  -15.5364  -30.2995   23.7688 H   0  0  0  0  0  0
  -15.8697  -28.0842   22.7092 H   0  0  0  0  0  0
  -24.5912  -30.7086   25.7728 H   0  0  0  0  0  0
  -24.8834  -32.2987   26.4631 H   0  0  0  0  0  0
  -25.7966  -30.9092   27.0252 H   0  0  0  0  0  0
  -26.3086  -29.6631   24.1371 H   0  0  0  0  0  0
  -27.3962  -29.7245   25.5010 H   0  0  0  0  0  0
  -27.9038  -30.4134   23.9814 H   0  0  0  0  0  0
  -27.2675  -33.3696   26.1919 H   0  0  0  0  0  0
  -28.3957  -32.6780   25.0365 H   0  0  0  0  0  0
  -28.0657  -31.8528   26.5491 H   0  0  0  0  0  0
  -28.2602  -38.0056   24.7511 H   0  0  0  0  0  0
  -28.1033  -36.2577   24.6298 H   0  0  0  0  0  0
  -27.2292  -37.1460   25.8879 H   0  0  0  0  0  0
  -20.9564  -29.8781   21.6740 H   0  0  0  0  0  0
  -26.0110  -38.2778   24.1418 H   0  0  0  0  0  0
  -28.8455  -19.8717   18.2192 H   0  0  0  0  0  0
  -28.1877  -21.7271   16.9767 H   0  0  0  0  0  0
  -28.5145  -23.3487   17.5754 H   0  0  0  0  0  0
  -26.9394  -22.6009   17.8565 H   0  0  0  0  0  0
  -30.9831  -18.1754   20.9246 H   0  0  0  0  0  0
  -30.5787  -18.0641   19.2712 H   0  0  0  0  0  0
  -27.4688  -24.2874   21.4630 H   0  0  0  0  0  0
  -26.8698  -24.1445   19.8763 H   0  0  0  0  0  0
  -28.7298  -16.3215   20.5758 H   0  0  0  0  0  0
  1 25  1  0  0  0
  1 30  2  0  0  0
  1 80  1  0  0  0
  2  3  1  0  0  0
  2 25  1  0  0  0
  2 82  1  0  0  0
  2 83  1  0  0  0
  3  4  1  0  0  0
  3 84  1  0  0  0
  3 85  1  0  0  0
  4  5  1  0  0  0
  4 86  1  0  0  0
  4 87  1  0  0  0
  5  6  1  0  0  0
  5 26  1  0  0  0
  5 88  1  0  0  0
  6 25  1  0  0  0
  6 89  1  0  0  0
  6 90  1  0  0  0
  7  8  2  0  0  0
  7 26  1  0  0  0
  7 29  1  0  0  0
  8  9  1  0  0  0
  8 22  1  0  0  0
  9 10  1  0  0  0
  9 27  2  0  0  0
 10 11  2  0  0  0
 10 15  1  0  0  0
 11 12  1  0  0  0
 11 91  1  0  0  0
 12 13  2  0  0  0
 12 92  1  0  0  0
 13 14  1  0  0  0
 13 31  1  0  0  0
 14 15  2  0  0  0
 14 93  1  0  0  0
 15 94  1  0  0  0
 16 17  2  0  0  0
 16 21  1  0  0  0
 16 31  1  0  0  0
 17 18  1  0  0  0
 17 95  1  0  0  0
 18 19  2  0  0  0
 18 96  1  0  0  0
 19 20  1  0  0  0
 19 24  1  0  0  0
 20 21  2  0  0  0
 20 97  1  0  0  0
 21 23  1  0  0  0
 22 28  1  0  0  0
 22 32  2  0  0  0
 26 27  1  0  0  0
 28 98  1  0  0  0
 28 99  1  0  0  0
 29100  1  0  0  0
 29101  1  0  0  0
 33 34  1  0  0  0
 33 66  1  0  0  0
 33 70  2  0  0  0
 34 36  1  0  0  0
 34 59  1  0  0  0
 34102  1  0  0  0
 35 44  2  0  0  0
 35 45  1  0  0  0
 35 68  1  0  0  0
 36 56  1  0  0  0
 36103  1  0  0  0
 37 39  1  0  0  0
 37 47  1  0  0  0
 37 66  1  0  0  0
 37104  1  0  0  0
 38 43  2  0  0  0
 38 46  1  0  0  0
 38 47  1  0  0  0
 39 64  1  0  0  0
 39 67  2  0  0  0
 40 52  1  0  0  0
 40 53  2  0  0  0
 40 58  1  0  0  0
 41105  1  0  0  0
 41106  1  0  0  0
 41107  1  0  0  0
 41 48  1  0  0  0
 42 43  1  0  0  0
 42 66  1  0  0  0
 42108  1  0  0  0
 42109  1  0  0  0
 43 44  1  0  0  0
 44110  1  0  0  0
 45 46  2  0  0  0
 45111  1  0  0  0
 46112  1  0  0  0
 47113  1  0  0  0
 47114  1  0  0  0
 48 56  1  0  0  0
 48 65  1  0  0  0
 48115  1  0  0  0
 49 50  1  0  0  0
 49 53  1  0  0  0
 49 64  1  0  0  0
 49116  1  0  0  0
 50 51  1  0  0  0
 50117  1  0  0  0
 50118  1  0  0  0
 51 52  1  0  0  0
 51119  1  0  0  0
 51120  1  0  0  0
 52121  1  0  0  0
 52122  1  0  0  0
 53 54  1  0  0  0
 54 55  2  0  0  0
 54123  1  0  0  0
 55 57  1  0  0  0
 55124  1  0  0  0
 56 69  2  0  0  0
 57 58  2  0  0  0
 57125  1  0  0  0
 58126  1  0  0  0
 59 60  1  0  0  0
 59 61  1  0  0  0
 59 62  1  0  0  0
 60127  1  0  0  0
 60128  1  0  0  0
 60129  1  0  0  0
 61130  1  0  0  0
 61131  1  0  0  0
 61132  1  0  0  0
 62133  1  0  0  0
 62134  1  0  0  0
 62135  1  0  0  0
 63 65  1  0  0  0
 63136  1  0  0  0
 63137  1  0  0  0
 63138  1  0  0  0
 64139  1  0  0  0
 65140  1  0  0  0
 68 78  1  0  0  0
 71 72  2  0  0  0
 71 73  1  0  0  0
 71141  1  0  0  0
 72 74  1  0  0  0
 72 76  1  0  0  0
 73 75  2  0  0  0
 73 77  1  0  0  0
 74 78  1  0  0  0
 74 79  2  0  0  0
 75 79  1  0  0  0
 75 81  1  0  0  0
 76142  1  0  0  0
 76143  1  0  0  0
 76144  1  0  0  0
 77 80  1  0  0  0
 77145  1  0  0  0
 77146  1  0  0  0
 78147  1  0  0  0
 78148  1  0  0  0
 80149  1  0  0  0
M  ISO  4   1 100  68 101  78 101  80 100
M  END
> <chiral flag>
0

> <version>
0

> <s_m_source_file>
/data/baiqing/PycharmProjects/Reinvent-master-3.2/result/LINK_invent/BTK/process_docking_weight1_custom_sum_contain_oxygen_bond_distance_aromatic_linkinvent_7_9_3/rearranged_h_0029.sdf

> <i_m_source_file_index>
35

> <r_mmod_Potential_Energy-OPLS-2005>
970.853881835938

> <r_mmod_Stretch_Energy-OPLS-2005>
467.225372314453

> <r_mmod_Bend_Energy-OPLS-2005>
422.879638671875

> <r_mmod_Torsional_Energy-OPLS-2005>
234.893127441406

> <r_mmod_Improper_Torsional_Energy-OPLS-2005>
9.88507080078125

> <r_mmod_Van_der_Waal_Energy-OPLS-2005>
130.98274230957

> <r_mmod_Electrostatic_Energy-OPLS-2005>
-471.029663085938

> <r_mmod_Solvation_Energy-OPLS-2005>
-224.580871582031

> <b_mmod_Minimization_Converged-OPLS-2005>
0

> <r_mmod_RMS_Derivative-OPLS-2005>
2.95002293586731

$$$$
35
                    3D
 Structure written by MMmdl.
174184  0  0  1  0            999 V2000
  -30.1643  -15.3276   20.3709 C   0  0  0  0  0  0
  -30.4112  -12.8674   19.5212 C   0  0  0  0  0  0
  -29.5256  -12.5695   18.2850 C   0  0  0  0  0  0
  -28.0821  -12.2542   18.7193 C   0  0  0  0  0  0
  -27.5797  -13.2370   19.8071 C   0  0  2  0  0  0
  -28.5760  -13.4020   20.9612 C   0  0  0  0  0  0
  -25.2262  -13.8135   20.5646 C   0  0  0  0  0  0
  -24.1640  -13.0373   20.9280 C   0  0  0  0  0  0
  -24.6268  -11.6866   20.8800 C   0  0  0  0  0  0
  -23.8989  -10.4262   21.0462 C   0  0  0  0  0  0
  -24.3565   -9.4194   21.9230 C   0  0  0  0  0  0
  -23.6261   -8.2219   22.0776 C   0  0  0  0  0  0
  -22.4252   -8.0260   21.3553 C   0  0  0  0  0  0
  -21.9873   -9.0228   20.4653 C   0  0  0  0  0  0
  -22.7187  -10.2115   20.3083 C   0  0  0  0  0  0
  -21.6853   -6.0711   22.5268 C   0  0  0  0  0  0
  -21.4017   -6.5625   23.8195 C   0  0  0  0  0  0
  -21.3655   -5.6789   24.9163 C   0  0  0  0  0  0
  -21.6054   -4.3053   24.7231 C   0  0  0  0  0  0
  -21.8816   -3.8130   23.4356 C   0  0  0  0  0  0
  -21.9193   -4.6938   22.3403 C   0  0  0  0  0  0
  -22.7697  -13.5177   21.1937 C   0  0  0  0  0  0
  -22.1656   -4.2116   21.0983 F   0  0  0  0  0  0
  -21.5625   -3.4540   25.7747 F   0  0  0  0  0  0
  -29.7647  -13.9655   20.3325 N   0  0  0  0  0  0
  -26.2558  -12.9310   20.2988 N   0  0  0  0  0  0
  -25.9149  -11.6481   20.5637 N   0  0  0  0  0  0
  -22.0340  -12.8199   22.0495 N   0  0  0  0  0  0
  -25.3917  -15.1870   20.4007 N   0  0  0  0  0  0
  -31.3990  -15.4371   20.2293 O   0  0  0  0  0  0
  -21.6639   -6.8853   21.4234 O   0  0  0  0  0  0
  -22.3429  -14.5501   20.6794 O   0  0  0  0  0  0
  -24.5966  -31.8387   23.1758 C   0  0  0  0  0  0
  -25.8859  -32.4660   23.8076 C   0  0  1  0  0  0
  -28.1255  -27.3509   19.7936 C   0  0  0  0  0  0
  -25.5699  -33.8485   24.2032 N   0  0  0  0  0  0
  -23.3549  -30.3977   21.5653 C   0  0  2  0  0  0
  -24.5426  -28.4556   20.3803 C   0  0  0  0  0  0
  -22.7004  -29.4528   22.5725 C   0  0  0  0  0  0
  -18.0122  -28.1331   22.8533 C   0  0  0  0  0  0
  -24.1468  -36.7307   23.2649 C   0  0  0  0  0  0
  -25.8703  -30.6915   21.3612 C   0  0  0  0  0  0
  -25.9797  -29.2500   20.8702 C   0  0  0  0  0  0
  -27.5743  -28.7244   20.6179 C   0  0  0  0  0  0
  -27.1476  -26.4418   19.0562 C   0  0  0  0  0  0
  -24.6233  -26.8921   19.4556 C   0  0  0  0  0  0
  -23.4707  -29.5276   20.2723 C   0  0  0  0  0  0
  -25.4099  -36.3065   24.0324 C   0  0  1  0  0  0
  -20.5612  -28.3471   23.1693 C   0  0  2  0  0  0
  -20.6624  -26.9317   22.5550 C   0  0  0  0  0  0
  -19.5650  -26.6405   21.5261 C   0  0  0  0  0  0
  -18.1801  -26.7895   22.1628 C   0  0  0  0  0  0
  -19.1337  -28.8720   23.3094 C   0  0  0  0  0  0
  -18.9297  -30.1355   23.9055 C   0  0  0  0  0  0
  -17.6321  -30.6566   24.0589 C   0  0  0  0  0  0
  -25.9026  -34.9420   23.5047 C   0  0  0  0  0  0
  -16.5220  -29.9110   23.6272 C   0  0  0  0  0  0
  -16.7124  -28.6524   23.0285 C   0  0  0  0  0  0
  -26.4309  -31.6579   25.0521 C   0  0  0  0  0  0
  -25.3566  -31.3708   26.1287 C   0  0  0  0  0  0
  -27.0218  -30.3050   24.5978 C   0  0  0  0  0  0
  -27.5801  -32.4391   25.7321 C   0  0  0  0  0  0
  -27.5594  -37.1749   24.8411 C   0  0  0  0  0  0
  -21.3814  -29.2941   22.4329 N   0  0  0  0  0  0
  -26.4255  -37.3785   23.9438 N   0  0  0  0  0  0
  -24.6302  -30.9994   22.0893 N   0  0  0  0  0  0
  -23.3797  -28.8221   23.3839 O   0  0  0  0  0  0
  -28.7082  -26.1339   20.3090 O   0  0  0  0  0  0
  -26.5717  -34.8919   22.4693 O   0  0  0  0  0  0
  -23.5198  -32.1418   23.7083 O   0  0  0  0  0  0
  -30.7499  -22.2626   17.9065 C   0  0  0  0  0  0
  -28.5499  -22.7704   16.9977 C   0  0  0  0  0  0
  -30.7783  -21.0683   17.1546 C   0  0  0  0  0  0
  -28.5662  -21.5648   16.2699 C   0  0  0  0  0  0
  -25.9120  -25.0952   20.5738 C   0  0  0  0  0  0
  -29.6260  -23.1177   17.8416 C   0  0  0  0  0  0
  -26.0962  -23.6692   21.1766 C   0  0  0  0  0  0
  -29.6797  -20.7099   16.3516 C   0  0  0  0  0  0
  -26.7956  -22.7587   20.2851 C   0  0  0  0  0  0
  -25.7469  -24.6066   18.9968 C   0  0  0  0  0  0
  -26.1534  -26.8150   20.9499 C   0  0  0  0  0  0
  -25.7198  -27.2541   17.4249 C   0  0  0  0  0  0
  -25.8280  -23.3080   22.6031 C   0  0  0  0  0  0
  -25.6277  -27.8841   16.0529 C   0  0  0  0  0  0
  -29.6028  -24.4434   18.5971 C   0  0  0  0  0  0
  -27.7783  -21.2974   20.6134 C   0  0  0  0  0  0
  -27.8783  -19.5118   20.1901 C   0  0  0  0  0  0
  -29.1101  -18.1821   20.5322 C   0  0  0  0  0  0
  -28.5510  -24.6185   19.7440 C   0  0  2  0  0  0
  -25.4991  -25.5972   17.5847 N   0  0  0  0  0  0
  -26.1223  -28.2666   18.7207 N   0  0  0  0  0  0
  -27.0792  -23.9133   19.4399 N   0  0  0  0  0  0
  -29.1924  -16.4854   20.3939 N   0  0  0  0  0  0
  -29.6944  -19.5467   15.6596 F   0  0  0  0  0  0
  -26.4070  -27.0789   22.6819 Cl  0  0  0  0  0  0
  -31.3984  -13.1733   19.1752 H   0  0  0  0  0  0
  -30.5667  -11.9649   20.1145 H   0  0  0  0  0  0
  -29.9399  -11.7391   17.7115 H   0  0  0  0  0  0
  -29.5318  -13.4336   17.6194 H   0  0  0  0  0  0
  -28.0784  -11.2423   19.1286 H   0  0  0  0  0  0
  -27.4133  -12.2395   17.8569 H   0  0  0  0  0  0
  -27.4958  -14.1975   19.2995 H   0  0  0  0  0  0
  -28.7711  -12.4659   21.4892 H   0  0  0  0  0  0
  -28.1729  -14.0986   21.7000 H   0  0  0  0  0  0
  -25.2701   -9.5697   22.4815 H   0  0  0  0  0  0
  -23.9979   -7.4610   22.7492 H   0  0  0  0  0  0
  -21.0810   -8.8765   19.8937 H   0  0  0  0  0  0
  -22.3662  -10.9680   19.6197 H   0  0  0  0  0  0
  -21.2022   -7.6135   23.9691 H   0  0  0  0  0  0
  -21.1475   -6.0521   25.9061 H   0  0  0  0  0  0
  -22.0605   -2.7592   23.2872 H   0  0  0  0  0  0
  -22.3940  -11.9858   22.4906 H   0  0  0  0  0  0
  -21.0943  -13.1246   22.2616 H   0  0  0  0  0  0
  -24.6057  -15.8216   20.4910 H   0  0  0  0  0  0
  -26.1855  -15.6177   19.9485 H   0  0  0  0  0  0
  -26.6858  -32.5310   23.0749 H   0  0  0  0  0  0
  -24.9672  -33.9597   25.0043 H   0  0  0  0  0  0
  -22.6687  -31.2205   21.3592 H   0  0  0  0  0  0
  -23.3772  -35.9586   23.3186 H   0  0  0  0  0  0
  -24.3576  -36.9075   22.2086 H   0  0  0  0  0  0
  -23.7123  -37.6420   23.6774 H   0  0  0  0  0  0
  -25.9393  -31.3550   20.4985 H   0  0  0  0  0  0
  -26.7760  -30.8624   21.9297 H   0  0  0  0  0  0
  -28.3584  -29.3274   21.0487 H   0  0  0  0  0  0
  -27.6111  -25.9649   18.1943 H   0  0  0  0  0  0
  -23.7524  -26.4949   18.9457 H   0  0  0  0  0  0
  -23.7206  -30.1735   19.4309 H   0  0  0  0  0  0
  -22.5290  -29.0486   20.0005 H   0  0  0  0  0  0
  -25.1274  -36.1901   25.0814 H   0  0  0  0  0  0
  -20.9599  -28.2929   24.1845 H   0  0  0  0  0  0
  -20.5554  -26.2067   23.3627 H   0  0  0  0  0  0
  -21.6515  -26.7482   22.1328 H   0  0  0  0  0  0
  -19.6857  -25.6373   21.1154 H   0  0  0  0  0  0
  -19.6615  -27.3336   20.6884 H   0  0  0  0  0  0
  -17.4112  -26.6675   21.3983 H   0  0  0  0  0  0
  -18.0162  -25.9998   22.8968 H   0  0  0  0  0  0
  -19.7771  -30.7113   24.2527 H   0  0  0  0  0  0
  -17.4874  -31.6249   24.5175 H   0  0  0  0  0  0
  -15.5231  -30.3064   23.7475 H   0  0  0  0  0  0
  -15.8517  -28.0904   22.6887 H   0  0  0  0  0  0
  -24.5797  -30.6973   25.7655 H   0  0  0  0  0  0
  -24.8663  -32.2863   26.4604 H   0  0  0  0  0  0
  -25.7915  -30.9007   27.0126 H   0  0  0  0  0  0
  -26.2660  -29.6654   24.1421 H   0  0  0  0  0  0
  -27.4407  -29.7477   25.4368 H   0  0  0  0  0  0
  -27.8289  -30.4404   23.8786 H   0  0  0  0  0  0
  -27.2291  -33.3633   26.1935 H   0  0  0  0  0  0
  -28.3565  -32.7058   25.0147 H   0  0  0  0  0  0
  -28.0532  -31.8556   26.5229 H   0  0  0  0  0  0
  -28.2504  -38.0160   24.7669 H   0  0  0  0  0  0
  -28.1200  -36.2708   24.5971 H   0  0  0  0  0  0
  -27.2363  -37.1082   25.8814 H   0  0  0  0  0  0
  -20.9084  -29.8503   21.7356 H   0  0  0  0  0  0
  -26.0152  -38.2845   24.1534 H   0  0  0  0  0  0
  -31.6026  -22.5196   18.5205 H   0  0  0  0  0  0
  -27.7033  -23.4349   16.9113 H   0  0  0  0  0  0
  -31.6361  -20.4148   17.2002 H   0  0  0  0  0  0
  -27.7274  -21.2965   15.6457 H   0  0  0  0  0  0
  -26.7153  -23.4030   23.2245 H   0  0  0  0  0  0
  -25.4790  -22.2767   22.6803 H   0  0  0  0  0  0
  -25.0538  -23.9459   23.0291 H   0  0  0  0  0  0
  -25.5303  -27.1292   15.2724 H   0  0  0  0  0  0
  -26.5292  -28.4652   15.8480 H   0  0  0  0  0  0
  -24.7744  -28.5629   15.9991 H   0  0  0  0  0  0
  -29.4810  -25.2296   17.8571 H   0  0  0  0  0  0
  -30.5852  -24.6412   19.0327 H   0  0  0  0  0  0
  -27.7124  -21.2217   21.6991 H   0  0  0  0  0  0
  -28.8056  -21.6232   20.4630 H   0  0  0  0  0  0
  -27.7934  -19.4846   19.1061 H   0  0  0  0  0  0
  -26.9215  -19.1227   20.5410 H   0  0  0  0  0  0
  -29.3355  -18.3208   21.5893 H   0  0  0  0  0  0
  -29.9973  -18.5158   19.9983 H   0  0  0  0  0  0
  -28.9209  -24.0358   20.5891 H   0  0  0  0  0  0
  -28.2568  -16.1091   20.3493 H   0  0  0  0  0  0
  1 25  1  0  0  0
  1 30  2  0  0  0
  1 93  1  0  0  0
  2  3  1  0  0  0
  2 25  1  0  0  0
  2 96  1  0  0  0
  2 97  1  0  0  0
  3  4  1  0  0  0
  3 98  1  0  0  0
  3 99  1  0  0  0
  4  5  1  0  0  0
  4100  1  0  0  0
  4101  1  0  0  0
  5  6  1  0  0  0
  5 26  1  0  0  0
  5102  1  0  0  0
  6 25  1  0  0  0
  6103  1  0  0  0
  6104  1  0  0  0
  7  8  2  0  0  0
  7 26  1  0  0  0
  7 29  1  0  0  0
  8  9  1  0  0  0
  8 22  1  0  0  0
  9 10  1  0  0  0
  9 27  2  0  0  0
 10 11  2  0  0  0
 10 15  1  0  0  0
 11 12  1  0  0  0
 11105  1  0  0  0
 12 13  2  0  0  0
 12106  1  0  0  0
 13 14  1  0  0  0
 13 31  1  0  0  0
 14 15  2  0  0  0
 14107  1  0  0  0
 15108  1  0  0  0
 16 17  2  0  0  0
 16 21  1  0  0  0
 16 31  1  0  0  0
 17 18  1  0  0  0
 17109  1  0  0  0
 18 19  2  0  0  0
 18110  1  0  0  0
 19 20  1  0  0  0
 19 24  1  0  0  0
 20 21  2  0  0  0
 20111  1  0  0  0
 21 23  1  0  0  0
 22 28  1  0  0  0
 22 32  2  0  0  0
 26 27  1  0  0  0
 28112  1  0  0  0
 28113  1  0  0  0
 29114  1  0  0  0
 29115  1  0  0  0
 33 34  1  0  0  0
 33 66  1  0  0  0
 33 70  2  0  0  0
 34 36  1  0  0  0
 34 59  1  0  0  0
 34116  1  0  0  0
 35 44  2  0  0  0
 35 45  1  0  0  0
 35 68  1  0  0  0
 36 56  1  0  0  0
 36117  1  0  0  0
 37 39  1  0  0  0
 37 47  1  0  0  0
 37 66  1  0  0  0
 37118  1  0  0  0
 38 43  2  0  0  0
 38 46  1  0  0  0
 38 47  1  0  0  0
 39 64  1  0  0  0
 39 67  2  0  0  0
 40 52  1  0  0  0
 40 53  2  0  0  0
 40 58  1  0  0  0
 41119  1  0  0  0
 41120  1  0  0  0
 41121  1  0  0  0
 41 48  1  0  0  0
 42 43  1  0  0  0
 42 66  1  0  0  0
 42122  1  0  0  0
 42123  1  0  0  0
 43 44  1  0  0  0
 44124  1  0  0  0
 45 46  2  0  0  0
 45125  1  0  0  0
 46126  1  0  0  0
 47127  1  0  0  0
 47128  1  0  0  0
 48 56  1  0  0  0
 48 65  1  0  0  0
 48129  1  0  0  0
 49 50  1  0  0  0
 49 53  1  0  0  0
 49 64  1  0  0  0
 49130  1  0  0  0
 50 51  1  0  0  0
 50131  1  0  0  0
 50132  1  0  0  0
 51 52  1  0  0  0
 51133  1  0  0  0
 51134  1  0  0  0
 52135  1  0  0  0
 52136  1  0  0  0
 53 54  1  0  0  0
 54 55  2  0  0  0
 54137  1  0  0  0
 55 57  1  0  0  0
 55138  1  0  0  0
 56 69  2  0  0  0
 57 58  2  0  0  0
 57139  1  0  0  0
 58140  1  0  0  0
 59 60  1  0  0  0
 59 61  1  0  0  0
 59 62  1  0  0  0
 60141  1  0  0  0
 60142  1  0  0  0
 60143  1  0  0  0
 61144  1  0  0  0
 61145  1  0  0  0
 61146  1  0  0  0
 62147  1  0  0  0
 62148  1  0  0  0
 62149  1  0  0  0
 63 65  1  0  0  0
 63150  1  0  0  0
 63151  1  0  0  0
 63152  1  0  0  0
 64153  1  0  0  0
 65154  1  0  0  0
 68 89  1  0  0  0
 71 73  2  0  0  0
 71 76  1  0  0  0
 71155  1  0  0  0
 72 74  1  0  0  0
 72 76  2  0  0  0
 72156  1  0  0  0
 73 78  1  0  0  0
 73157  1  0  0  0
 74 78  2  0  0  0
 74158  1  0  0  0
 75 77  1  0  0  0
 75 80  2  0  0  0
 75 81  1  0  0  0
 76 85  1  0  0  0
 77 79  2  0  0  0
 77 83  1  0  0  0
 78 94  1  0  0  0
 79 86  1  0  0  0
 79 92  1  0  0  0
 80 90  1  0  0  0
 80 92  1  0  0  0
 81 91  2  0  0  0
 81 95  1  0  0  0
 82 84  1  0  0  0
 82 90  2  0  0  0
 82 91  1  0  0  0
 83159  1  0  0  0
 83160  1  0  0  0
 83161  1  0  0  0
 84162  1  0  0  0
 84163  1  0  0  0
 84164  1  0  0  0
 85165  1  0  0  0
 85166  1  0  0  0
 85 89  1  0  0  0
 86 87  1  0  0  0
 86167  1  0  0  0
 86168  1  0  0  0
 87 88  1  0  0  0
 87169  1  0  0  0
 87170  1  0  0  0
 88 93  1  0  0  0
 88171  1  0  0  0
 88172  1  0  0  0
 89 92  1  0  0  0
 89173  1  0  0  0
 93174  1  0  0  0
M  ISO  4   1 100  68 101  89 101  93 100
M  END
> <chiral flag>
0

> <version>
0

> <s_m_source_file>
/data/baiqing/PycharmProjects/Reinvent-master-3.2/result/LINK_invent/BTK/process_docking_weight1_custom_sum_contain_oxygen_bond_distance_aromatic_linkinvent_7_9_3/rearranged_h_0029.sdf

> <i_m_source_file_index>
36

> <r_mmod_Potential_Energy-OPLS-2005>
14960.76953125

> <r_mmod_Stretch_Energy-OPLS-2005>
9271.2236328125

> <r_mmod_Bend_Energy-OPLS-2005>
838.434875488281

> <r_mmod_Torsional_Energy-OPLS-2005>
661.847717285156

> <r_mmod_Improper_Torsional_Energy-OPLS-2005>
84.2419128417969

> <r_mmod_Van_der_Waal_Energy-OPLS-2005>
4082.68994140625

> <r_mmod_Electrostatic_Energy-OPLS-2005>
-567.168518066406

> <r_mmod_Solvation_Energy-OPLS-2005>
-230.568832397461

> <b_mmod_Minimization_Converged-OPLS-2005>
0

> <r_mmod_RMS_Derivative-OPLS-2005>
8.58305168151855

$$$$
36
                    3D
 Structure written by MMmdl.
172181  0  0  1  0            999 V2000
  -30.7019  -14.4554   20.6170 C   0  0  0  0  0  0
  -30.4224  -12.3210   19.4013 C   0  0  0  0  0  0
  -29.4885  -12.5268   18.1920 C   0  0  0  0  0  0
  -28.0110  -12.3733   18.6081 C   0  0  0  0  0  0
  -27.6580  -13.2045   19.8703 C   0  0  2  0  0  0
  -28.6976  -12.9688   20.9861 C   0  0  0  0  0  0
  -25.2565  -13.8157   20.5660 C   0  0  0  0  0  0
  -24.1808  -13.0445   20.9159 C   0  0  0  0  0  0
  -24.6349  -11.6907   20.8691 C   0  0  0  0  0  0
  -23.9016  -10.4302   21.0373 C   0  0  0  0  0  0
  -24.3586   -9.4228   21.9153 C   0  0  0  0  0  0
  -23.6278   -8.2255   22.0740 C   0  0  0  0  0  0
  -22.4254   -8.0273   21.3542 C   0  0  0  0  0  0
  -21.9873   -9.0236   20.4643 C   0  0  0  0  0  0
  -22.7187  -10.2124   20.3037 C   0  0  0  0  0  0
  -21.6862   -6.0727   22.5279 C   0  0  0  0  0  0
  -21.4030   -6.5637   23.8213 C   0  0  0  0  0  0
  -21.3655   -5.6790   24.9173 C   0  0  0  0  0  0
  -21.6035   -4.3050   24.7234 C   0  0  0  0  0  0
  -21.8822   -3.8144   23.4353 C   0  0  0  0  0  0
  -21.9197   -4.6959   22.3408 C   0  0  0  0  0  0
  -22.7834  -13.5245   21.1845 C   0  0  0  0  0  0
  -22.1667   -4.2145   21.0985 F   0  0  0  0  0  0
  -21.5623   -3.4533   25.7747 F   0  0  0  0  0  0
  -30.0266  -13.2895   20.4366 N   0  0  0  0  0  0
  -26.2982  -12.9318   20.3316 N   0  0  0  0  0  0
  -25.9266  -11.6478   20.5691 N   0  0  0  0  0  0
  -22.0475  -12.8222   22.0399 N   0  0  0  0  0  0
  -25.4345  -15.1873   20.4107 N   0  0  0  0  0  0
  -31.8151  -14.6690   20.1272 O   0  0  0  0  0  0
  -21.6643   -6.8854   21.4231 O   0  0  0  0  0  0
  -22.3506  -14.5550   20.6707 O   0  0  0  0  0  0
  -24.6172  -31.8674   23.2102 C   0  0  0  0  0  0
  -25.9058  -32.4820   23.8399 C   0  0  1  0  0  0
  -27.2256  -27.4062   20.0995 C   0  0  0  0  0  0
  -25.5905  -33.8621   24.2329 N   0  0  0  0  0  0
  -23.4053  -30.4927   21.5523 C   0  0  2  0  0  0
  -24.8498  -28.9587   20.1142 C   0  0  0  0  0  0
  -22.7423  -29.4655   22.4990 C   0  0  0  0  0  0
  -18.0277  -28.1375   22.8488 C   0  0  0  0  0  0
  -24.1487  -36.7310   23.2632 C   0  0  0  0  0  0
  -25.9386  -30.8229   21.3697 C   0  0  0  0  0  0
  -26.0128  -29.4573   20.7138 C   0  0  0  0  0  0
  -27.2045  -28.6902   20.7003 C   0  0  0  0  0  0
  -26.0457  -26.9435   19.4722 C   0  0  0  0  0  0
  -24.8625  -27.7024   19.4892 C   0  0  0  0  0  0
  -23.6139  -29.8293   20.1658 C   0  0  0  0  0  0
  -25.4103  -36.3109   24.0337 C   0  0  1  0  0  0
  -20.5867  -28.3663   23.1318 C   0  0  2  0  0  0
  -20.6769  -26.9399   22.5415 C   0  0  0  0  0  0
  -19.5746  -26.6386   21.5212 C   0  0  0  0  0  0
  -18.1924  -26.7918   22.1624 C   0  0  0  0  0  0
  -19.1525  -28.8839   23.2901 C   0  0  0  0  0  0
  -18.9450  -30.1439   23.8914 C   0  0  0  0  0  0
  -17.6456  -30.6578   24.0560 C   0  0  0  0  0  0
  -25.9035  -34.9477   23.5135 C   0  0  0  0  0  0
  -16.5344  -29.9081   23.6323 C   0  0  0  0  0  0
  -16.7263  -28.6495   23.0345 C   0  0  0  0  0  0
  -26.4469  -31.6602   25.0733 C   0  0  0  0  0  0
  -25.3732  -31.3751   26.1490 C   0  0  0  0  0  0
  -27.0270  -30.3023   24.6138 C   0  0  0  0  0  0
  -27.6065  -32.4304   25.7470 C   0  0  0  0  0  0
  -27.5589  -37.1799   24.8456 C   0  0  0  0  0  0
  -21.4151  -29.3030   22.3728 N   0  0  0  0  0  0
  -26.4286  -37.3799   23.9418 N   0  0  0  0  0  0
  -24.6719  -31.0756   22.1016 N   0  0  0  0  0  0
  -23.4192  -28.8191   23.3033 O   0  0  0  0  0  0
  -28.3872  -26.6489   20.1036 O   0  0  0  0  0  0
  -26.5601  -34.8925   22.4695 O   0  0  0  0  0  0
  -23.5362  -32.1447   23.7478 O   0  0  0  0  0  0
  -28.8257  -21.0505   21.4197 C   0  0  0  0  0  0
  -29.6087  -21.8876   18.8837 C   0  0  0  0  0  0
  -28.8078  -22.4407   21.1176 C   0  0  0  0  0  0
  -29.1994  -22.8746   19.8181 C   0  0  0  0  0  0
  -29.2122  -20.0721   20.4755 C   0  0  0  0  0  0
  -29.5983  -20.5107   19.1902 C   0  0  0  0  0  0
  -28.5450  -24.9100   21.8133 C   0  0  0  0  0  0
  -28.2763  -25.2169   20.3368 C   0  0  2  0  0  0
  -28.3079  -23.4253   22.1934 C   0  0  0  0  0  0
  -29.1987  -24.3715   19.4090 C   0  0  0  0  0  0
  -29.0304  -23.1846   23.5377 C   0  0  0  0  0  0
  -26.7958  -23.1892   22.4020 C   0  0  0  0  0  0
  -30.6518  -24.8890   19.4607 C   0  0  0  0  0  0
  -28.6750  -24.5550   17.9652 C   0  0  0  0  0  0
  -29.1672  -18.5796   20.8549 C   0  0  0  0  0  0
  -30.5554  -17.9009   20.9741 C   0  0  0  0  0  0
  -30.6346  -16.6349   21.8716 C   0  0  0  0  0  0
  -30.0523  -15.4005   21.3245 N   0  0  0  0  0  0
  -30.0406  -19.3849   17.9550 Cl  0  0  0  0  0  0
  -31.4651  -12.4352   19.0997 H   0  0  0  0  0  0
  -30.3348  -11.3033   19.7859 H   0  0  0  0  0  0
  -29.7284  -11.8182   17.3982 H   0  0  0  0  0  0
  -29.6479  -13.5202   17.7685 H   0  0  0  0  0  0
  -27.8225  -11.3156   18.7947 H   0  0  0  0  0  0
  -27.3592  -12.6560   17.7806 H   0  0  0  0  0  0
  -27.7083  -14.2549   19.5836 H   0  0  0  0  0  0
  -28.6774  -11.9253   21.3029 H   0  0  0  0  0  0
  -28.4511  -13.5446   21.8788 H   0  0  0  0  0  0
  -25.2744   -9.5731   22.4703 H   0  0  0  0  0  0
  -24.0030   -7.4644   22.7436 H   0  0  0  0  0  0
  -21.0817   -8.8716   19.8937 H   0  0  0  0  0  0
  -22.3622  -10.9642   19.6131 H   0  0  0  0  0  0
  -21.2032   -7.6148   23.9711 H   0  0  0  0  0  0
  -21.1464   -6.0525   25.9073 H   0  0  0  0  0  0
  -22.0601   -2.7607   23.2855 H   0  0  0  0  0  0
  -22.4124  -11.9920   22.4830 H   0  0  0  0  0  0
  -21.1081  -13.1204   22.2584 H   0  0  0  0  0  0
  -24.6783  -15.8531   20.5286 H   0  0  0  0  0  0
  -26.2945  -15.6174   20.0955 H   0  0  0  0  0  0
  -26.7125  -32.5517   23.1158 H   0  0  0  0  0  0
  -25.0052  -33.9780   25.0469 H   0  0  0  0  0  0
  -22.6952  -31.3102   21.4153 H   0  0  0  0  0  0
  -23.3762  -35.9628   23.3277 H   0  0  0  0  0  0
  -24.3599  -36.8941   22.2050 H   0  0  0  0  0  0
  -23.7222  -37.6502   23.6658 H   0  0  0  0  0  0
  -26.0608  -31.5909   20.6045 H   0  0  0  0  0  0
  -26.8235  -30.8716   21.9925 H   0  0  0  0  0  0
  -28.1023  -29.0708   21.1654 H   0  0  0  0  0  0
  -26.0223  -26.0011   18.9460 H   0  0  0  0  0  0
  -23.9729  -27.3196   19.0087 H   0  0  0  0  0  0
  -23.7249  -30.6066   19.4090 H   0  0  0  0  0  0
  -22.7362  -29.2529   19.8680 H   0  0  0  0  0  0
  -25.1273  -36.1975   25.0830 H   0  0  0  0  0  0
  -20.9955  -28.3222   24.1439 H   0  0  0  0  0  0
  -20.5673  -26.2262   23.3600 H   0  0  0  0  0  0
  -21.6639  -26.7439   22.1213 H   0  0  0  0  0  0
  -19.6907  -25.6300   21.1227 H   0  0  0  0  0  0
  -19.6677  -27.3206   20.6751 H   0  0  0  0  0  0
  -17.4189  -26.6663   21.4033 H   0  0  0  0  0  0
  -18.0325  -26.0060   22.9023 H   0  0  0  0  0  0
  -19.7929  -30.7254   24.2289 H   0  0  0  0  0  0
  -17.5006  -31.6263   24.5159 H   0  0  0  0  0  0
  -15.5347  -30.2984   23.7637 H   0  0  0  0  0  0
  -15.8662  -28.0819   22.7050 H   0  0  0  0  0  0
  -24.5848  -30.7161   25.7833 H   0  0  0  0  0  0
  -24.8988  -32.2932   26.4971 H   0  0  0  0  0  0
  -25.8063  -30.8875   27.0234 H   0  0  0  0  0  0
  -26.2813  -29.6805   24.1169 H   0  0  0  0  0  0
  -27.3984  -29.7246   25.4616 H   0  0  0  0  0  0
  -27.8686  -30.4306   23.9322 H   0  0  0  0  0  0
  -27.2720  -33.3612   26.2063 H   0  0  0  0  0  0
  -28.3854  -32.6852   25.0267 H   0  0  0  0  0  0
  -28.0756  -31.8414   26.5363 H   0  0  0  0  0  0
  -28.2592  -38.0112   24.7540 H   0  0  0  0  0  0
  -28.1099  -36.2653   24.6225 H   0  0  0  0  0  0
  -27.2325  -37.1384   25.8862 H   0  0  0  0  0  0
  -20.9313  -29.8754   21.6951 H   0  0  0  0  0  0
  -26.0181  -38.2872   24.1441 H   0  0  0  0  0  0
  -28.5068  -20.7167   22.3960 H   0  0  0  0  0  0
  -29.9302  -22.1705   17.8937 H   0  0  0  0  0  0
  -27.9373  -25.5579   22.4452 H   0  0  0  0  0  0
  -29.5753  -25.1868   22.0344 H   0  0  0  0  0  0
  -27.2649  -24.8620   20.1585 H   0  0  0  0  0  0
  -30.1124  -23.2672   23.4266 H   0  0  0  0  0  0
  -28.8215  -22.2038   23.9626 H   0  0  0  0  0  0
  -28.7220  -23.9176   24.2844 H   0  0  0  0  0  0
  -26.2351  -23.3152   21.4754 H   0  0  0  0  0  0
  -26.3774  -23.8804   23.1335 H   0  0  0  0  0  0
  -26.5908  -22.1799   22.7616 H   0  0  0  0  0  0
  -31.0961  -24.7624   20.4477 H   0  0  0  0  0  0
  -30.7090  -25.9482   19.2067 H   0  0  0  0  0  0
  -31.2893  -24.3531   18.7568 H   0  0  0  0  0  0
  -27.6874  -24.1123   17.8408 H   0  0  0  0  0  0
  -29.3341  -24.1159   17.2175 H   0  0  0  0  0  0
  -28.5919  -25.6121   17.7100 H   0  0  0  0  0  0
  -28.5514  -18.0408   20.1339 H   0  0  0  0  0  0
  -28.6436  -18.4871   21.8073 H   0  0  0  0  0  0
  -31.2337  -18.6286   21.4225 H   0  0  0  0  0  0
  -30.9667  -17.6918   19.9870 H   0  0  0  0  0  0
  -30.1529  -16.8369   22.8285 H   0  0  0  0  0  0
  -31.6827  -16.4428   22.1133 H   0  0  0  0  0  0
  -29.1277  -15.1526   21.6462 H   0  0  0  0  0  0
  1 25  1  0  0  0
  1 30  2  0  0  0
  1 88  1  0  0  0
  2  3  1  0  0  0
  2 25  1  0  0  0
  2 90  1  0  0  0
  2 91  1  0  0  0
  3  4  1  0  0  0
  3 92  1  0  0  0
  3 93  1  0  0  0
  4  5  1  0  0  0
  4 94  1  0  0  0
  4 95  1  0  0  0
  5  6  1  0  0  0
  5 26  1  0  0  0
  5 96  1  0  0  0
  6 25  1  0  0  0
  6 97  1  0  0  0
  6 98  1  0  0  0
  7  8  2  0  0  0
  7 26  1  0  0  0
  7 29  1  0  0  0
  8  9  1  0  0  0
  8 22  1  0  0  0
  9 10  1  0  0  0
  9 27  2  0  0  0
 10 11  2  0  0  0
 10 15  1  0  0  0
 11 12  1  0  0  0
 11 99  1  0  0  0
 12 13  2  0  0  0
 12100  1  0  0  0
 13 14  1  0  0  0
 13 31  1  0  0  0
 14 15  2  0  0  0
 14101  1  0  0  0
 15102  1  0  0  0
 16 17  2  0  0  0
 16 21  1  0  0  0
 16 31  1  0  0  0
 17 18  1  0  0  0
 17103  1  0  0  0
 18 19  2  0  0  0
 18104  1  0  0  0
 19 20  1  0  0  0
 19 24  1  0  0  0
 20 21  2  0  0  0
 20105  1  0  0  0
 21 23  1  0  0  0
 22 28  1  0  0  0
 22 32  2  0  0  0
 26 27  1  0  0  0
 28106  1  0  0  0
 28107  1  0  0  0
 29108  1  0  0  0
 29109  1  0  0  0
 33 34  1  0  0  0
 33 66  1  0  0  0
 33 70  2  0  0  0
 34 36  1  0  0  0
 34 59  1  0  0  0
 34110  1  0  0  0
 35 44  2  0  0  0
 35 45  1  0  0  0
 35 68  1  0  0  0
 36 56  1  0  0  0
 36111  1  0  0  0
 37 39  1  0  0  0
 37 47  1  0  0  0
 37 66  1  0  0  0
 37112  1  0  0  0
 38 43  2  0  0  0
 38 46  1  0  0  0
 38 47  1  0  0  0
 39 64  1  0  0  0
 39 67  2  0  0  0
 40 52  1  0  0  0
 40 53  2  0  0  0
 40 58  1  0  0  0
 41113  1  0  0  0
 41114  1  0  0  0
 41115  1  0  0  0
 41 48  1  0  0  0
 42 43  1  0  0  0
 42 66  1  0  0  0
 42116  1  0  0  0
 42117  1  0  0  0
 43 44  1  0  0  0
 44118  1  0  0  0
 45 46  2  0  0  0
 45119  1  0  0  0
 46120  1  0  0  0
 47121  1  0  0  0
 47122  1  0  0  0
 48 56  1  0  0  0
 48 65  1  0  0  0
 48123  1  0  0  0
 49 50  1  0  0  0
 49 53  1  0  0  0
 49 64  1  0  0  0
 49124  1  0  0  0
 50 51  1  0  0  0
 50125  1  0  0  0
 50126  1  0  0  0
 51 52  1  0  0  0
 51127  1  0  0  0
 51128  1  0  0  0
 52129  1  0  0  0
 52130  1  0  0  0
 53 54  1  0  0  0
 54 55  2  0  0  0
 54131  1  0  0  0
 55 57  1  0  0  0
 55132  1  0  0  0
 56 69  2  0  0  0
 57 58  2  0  0  0
 57133  1  0  0  0
 58134  1  0  0  0
 59 60  1  0  0  0
 59 61  1  0  0  0
 59 62  1  0  0  0
 60135  1  0  0  0
 60136  1  0  0  0
 60137  1  0  0  0
 61138  1  0  0  0
 61139  1  0  0  0
 61140  1  0  0  0
 62141  1  0  0  0
 62142  1  0  0  0
 62143  1  0  0  0
 63 65  1  0  0  0
 63144  1  0  0  0
 63145  1  0  0  0
 63146  1  0  0  0
 64147  1  0  0  0
 65148  1  0  0  0
 68 78  1  0  0  0
 71 73  2  0  0  0
 71 75  1  0  0  0
 71149  1  0  0  0
 72 74  2  0  0  0
 72 76  1  0  0  0
 72150  1  0  0  0
 73 74  1  0  0  0
 73 79  1  0  0  0
 74 80  1  0  0  0
 75 76  2  0  0  0
 75 85  1  0  0  0
 76 89  1  0  0  0
 77 78  1  0  0  0
 77 79  1  0  0  0
 77151  1  0  0  0
 77152  1  0  0  0
 78 80  1  0  0  0
 78153  1  0  0  0
 79 81  1  0  0  0
 79 82  1  0  0  0
 80 83  1  0  0  0
 80 84  1  0  0  0
 81154  1  0  0  0
 81155  1  0  0  0
 81156  1  0  0  0
 82157  1  0  0  0
 82158  1  0  0  0
 82159  1  0  0  0
 83160  1  0  0  0
 83161  1  0  0  0
 83162  1  0  0  0
 84163  1  0  0  0
 84164  1  0  0  0
 84165  1  0  0  0
 85 86  1  0  0  0
 85166  1  0  0  0
 85167  1  0  0  0
 86 87  1  0  0  0
 86168  1  0  0  0
 86169  1  0  0  0
 87 88  1  0  0  0
 87170  1  0  0  0
 87171  1  0  0  0
 88172  1  0  0  0
M  ISO  4   1 100  68 101  78 101  88 100
M  END
> <chiral flag>
0

> <version>
0

> <s_m_source_file>
/data/baiqing/PycharmProjects/Reinvent-master-3.2/result/LINK_invent/BTK/process_docking_weight1_custom_sum_contain_oxygen_bond_distance_aromatic_linkinvent_7_9_3/rearranged_h_0029.sdf

> <i_m_source_file_index>
37

> <r_mmod_Potential_Energy-OPLS-2005>
-42.3298988342285

> <r_mmod_Stretch_Energy-OPLS-2005>
46.7168807983398

> <r_mmod_Bend_Energy-OPLS-2005>
113.919044494629

> <r_mmod_Torsional_Energy-OPLS-2005>
226.912841796875

> <r_mmod_Improper_Torsional_Energy-OPLS-2005>
2.35786294937134

> <r_mmod_Van_der_Waal_Energy-OPLS-2005>
160.627532958984

> <r_mmod_Electrostatic_Energy-OPLS-2005>
-416.236968994141

> <r_mmod_Solvation_Energy-OPLS-2005>
-190.524810791016

> <b_mmod_Minimization_Converged-OPLS-2005>
0

> <r_mmod_RMS_Derivative-OPLS-2005>
1.82256805896759

$$$$
37
                    3D
 Structure written by MMmdl.
159167  0  0  1  0            999 V2000
  -30.7158  -14.5494   20.5450 C   0  0  0  0  0  0
  -30.4317  -12.3584   19.4161 C   0  0  0  0  0  0
  -29.4943  -12.5024   18.2011 C   0  0  0  0  0  0
  -28.0225  -12.3452   18.6300 C   0  0  0  0  0  0
  -27.6580  -13.2182   19.8621 C   0  0  2  0  0  0
  -28.7111  -13.0655   20.9821 C   0  0  0  0  0  0
  -25.2603  -13.8177   20.5702 C   0  0  0  0  0  0
  -24.1867  -13.0450   20.9199 C   0  0  0  0  0  0
  -24.6422  -11.6928   20.8750 C   0  0  0  0  0  0
  -23.9080  -10.4296   21.0402 C   0  0  0  0  0  0
  -24.3621   -9.4219   21.9189 C   0  0  0  0  0  0
  -23.6295   -8.2252   22.0760 C   0  0  0  0  0  0
  -22.4279   -8.0283   21.3534 C   0  0  0  0  0  0
  -21.9910   -9.0273   20.4644 C   0  0  0  0  0  0
  -22.7246  -10.2141   20.3062 C   0  0  0  0  0  0
  -21.6861   -6.0742   22.5292 C   0  0  0  0  0  0
  -21.4013   -6.5651   23.8231 C   0  0  0  0  0  0
  -21.3656   -5.6791   24.9190 C   0  0  0  0  0  0
  -21.6041   -4.3061   24.7226 C   0  0  0  0  0  0
  -21.8824   -3.8160   23.4350 C   0  0  0  0  0  0
  -21.9196   -4.6973   22.3413 C   0  0  0  0  0  0
  -22.7877  -13.5242   21.1867 C   0  0  0  0  0  0
  -22.1673   -4.2171   21.0985 F   0  0  0  0  0  0
  -21.5615   -3.4535   25.7737 F   0  0  0  0  0  0
  -30.0290  -13.3770   20.4042 N   0  0  0  0  0  0
  -26.3051  -12.9374   20.3353 N   0  0  0  0  0  0
  -25.9360  -11.6535   20.5781 N   0  0  0  0  0  0
  -22.0496  -12.8227   22.0384 N   0  0  0  0  0  0
  -25.4289  -15.1888   20.4080 N   0  0  0  0  0  0
  -31.8741  -14.6832   20.1484 O   0  0  0  0  0  0
  -21.6643   -6.8878   21.4248 O   0  0  0  0  0  0
  -22.3580  -14.5564   20.6726 O   0  0  0  0  0  0
  -24.6180  -31.8632   23.2026 C   0  0  0  0  0  0
  -25.9066  -32.4799   23.8352 C   0  0  1  0  0  0
  -27.2445  -27.3877   20.1113 C   0  0  0  0  0  0
  -25.5936  -33.8603   24.2310 N   0  0  0  0  0  0
  -23.4094  -30.4867   21.5421 C   0  0  2  0  0  0
  -24.8593  -28.9465   20.1101 C   0  0  0  0  0  0
  -22.7437  -29.4645   22.4924 C   0  0  0  0  0  0
  -18.0317  -28.1374   22.8474 C   0  0  0  0  0  0
  -24.1495  -36.7299   23.2652 C   0  0  0  0  0  0
  -25.9441  -30.8127   21.3675 C   0  0  0  0  0  0
  -26.0187  -29.4456   20.7156 C   0  0  0  0  0  0
  -27.2066  -28.6744   20.7157 C   0  0  0  0  0  0
  -26.0618  -26.9264   19.4826 C   0  0  0  0  0  0
  -24.8777  -27.6890   19.4923 C   0  0  0  0  0  0
  -23.6223  -29.8173   20.1579 C   0  0  0  0  0  0
  -25.4110  -36.3096   24.0327 C   0  0  1  0  0  0
  -20.5897  -28.3680   23.1302 C   0  0  2  0  0  0
  -20.6783  -26.9399   22.5425 C   0  0  0  0  0  0
  -19.5758  -26.6372   21.5229 C   0  0  0  0  0  0
  -18.1940  -26.7910   22.1620 C   0  0  0  0  0  0
  -19.1558  -28.8834   23.2890 C   0  0  0  0  0  0
  -18.9477  -30.1446   23.8891 C   0  0  0  0  0  0
  -17.6467  -30.6572   24.0562 C   0  0  0  0  0  0
  -25.9044  -34.9466   23.5104 C   0  0  0  0  0  0
  -16.5358  -29.9062   23.6348 C   0  0  0  0  0  0
  -16.7298  -28.6491   23.0339 C   0  0  0  0  0  0
  -26.4472  -31.6592   25.0702 C   0  0  0  0  0  0
  -25.3735  -31.3756   26.1463 C   0  0  0  0  0  0
  -27.0333  -30.3027   24.6138 C   0  0  0  0  0  0
  -27.6017  -32.4336   25.7485 C   0  0  0  0  0  0
  -27.5572  -37.1794   24.8471 C   0  0  0  0  0  0
  -21.4145  -29.3047   22.3680 N   0  0  0  0  0  0
  -26.4286  -37.3787   23.9413 N   0  0  0  0  0  0
  -24.6744  -31.0694   22.0953 N   0  0  0  0  0  0
  -23.4165  -28.8204   23.3003 O   0  0  0  0  0  0
  -28.4260  -26.6485   20.1704 O   0  0  0  0  0  0
  -26.5621  -34.8923   22.4679 O   0  0  0  0  0  0
  -23.5363  -32.1450   23.7395 O   0  0  0  0  0  0
  -31.8625  -18.1664   19.9697 C   0  0  0  0  0  0
  -30.8392  -18.1526   20.9336 C   0  0  0  0  0  0
  -31.8860  -20.6256   19.9272 C   0  0  0  0  0  0
  -30.7573  -20.6596   20.8002 C   0  0  0  0  0  0
  -32.3808  -19.3773   19.4721 C   0  0  0  0  0  0
  -30.2474  -19.4084   21.2989 C   0  0  0  0  0  0
  -32.6206  -21.9043   19.4937 C   0  0  0  0  0  0
  -30.5767  -16.8213   21.7005 C   0  0  0  0  0  0
  -30.2082  -22.0305   21.3103 C   0  0  0  0  0  0
  -29.2601  -24.3278   20.7732 C   0  0  0  0  0  0
  -28.5057  -25.2536   19.7555 C   0  0  0  0  0  0
  -30.0276  -15.6094   21.0344 N   0  0  0  0  0  0
  -29.5563  -22.9265   20.2967 N   0  3  0  0  0  0
  -33.6867  -19.2876   18.3400 Cl  0  0  0  0  0  0
  -28.9289  -19.4122   22.4225 Cl  0  0  0  0  0  0
  -31.4700  -12.4657   19.0968 H   0  0  0  0  0  0
  -30.3546  -11.3588   19.8438 H   0  0  0  0  0  0
  -29.7408  -11.7601   17.4420 H   0  0  0  0  0  0
  -29.6406  -13.4782   17.7341 H   0  0  0  0  0  0
  -27.8587  -11.2894   18.8628 H   0  0  0  0  0  0
  -27.3600  -12.5758   17.7973 H   0  0  0  0  0  0
  -27.6838  -14.2566   19.5271 H   0  0  0  0  0  0
  -28.7064  -12.0480   21.3796 H   0  0  0  0  0  0
  -28.4732  -13.7174   21.8224 H   0  0  0  0  0  0
  -25.2757   -9.5707   22.4761 H   0  0  0  0  0  0
  -24.0026   -7.4642   22.7471 H   0  0  0  0  0  0
  -21.0855   -8.8776   19.8941 H   0  0  0  0  0  0
  -22.3707  -10.9679   19.6170 H   0  0  0  0  0  0
  -21.2007   -7.6157   23.9743 H   0  0  0  0  0  0
  -21.1469   -6.0514   25.9083 H   0  0  0  0  0  0
  -22.0598   -2.7620   23.2847 H   0  0  0  0  0  0
  -22.4100  -11.9883   22.4772 H   0  0  0  0  0  0
  -21.1120  -13.1270   22.2599 H   0  0  0  0  0  0
  -24.6560  -15.8393   20.5054 H   0  0  0  0  0  0
  -26.2773  -15.6257   20.0693 H   0  0  0  0  0  0
  -26.7115  -32.5423   23.1109 H   0  0  0  0  0  0
  -25.0109  -33.9810   25.0448 H   0  0  0  0  0  0
  -22.7022  -31.3062   21.3948 H   0  0  0  0  0  0
  -23.3747  -35.9649   23.3334 H   0  0  0  0  0  0
  -24.3623  -36.8881   22.2076 H   0  0  0  0  0  0
  -23.7244  -37.6499   23.6661 H   0  0  0  0  0  0
  -26.0796  -31.5788   20.6010 H   0  0  0  0  0  0
  -26.8249  -30.8595   21.9957 H   0  0  0  0  0  0
  -28.0946  -29.0648   21.1978 H   0  0  0  0  0  0
  -26.0048  -25.9820   18.9693 H   0  0  0  0  0  0
  -23.9926  -27.2972   19.0137 H   0  0  0  0  0  0
  -23.7437  -30.5936   19.3997 H   0  0  0  0  0  0
  -22.7436  -29.2438   19.8564 H   0  0  0  0  0  0
  -25.1291  -36.1961   25.0813 H   0  0  0  0  0  0
  -21.0028  -28.3240   24.1404 H   0  0  0  0  0  0
  -20.5745  -26.2254   23.3600 H   0  0  0  0  0  0
  -21.6637  -26.7431   22.1166 H   0  0  0  0  0  0
  -19.6928  -25.6306   21.1206 H   0  0  0  0  0  0
  -19.6704  -27.3237   20.6802 H   0  0  0  0  0  0
  -17.4218  -26.6730   21.4004 H   0  0  0  0  0  0
  -18.0274  -26.0074   22.9022 H   0  0  0  0  0  0
  -19.7970  -30.7293   24.2180 H   0  0  0  0  0  0
  -17.5045  -31.6254   24.5199 H   0  0  0  0  0  0
  -15.5370  -30.2968   23.7672 H   0  0  0  0  0  0
  -15.8686  -28.0834   22.6972 H   0  0  0  0  0  0
  -24.5913  -30.7063   25.7855 H   0  0  0  0  0  0
  -24.8943  -32.2936   26.4853 H   0  0  0  0  0  0
  -25.8099  -30.8994   27.0248 H   0  0  0  0  0  0
  -26.2923  -29.6735   24.1201 H   0  0  0  0  0  0
  -27.4124  -29.7286   25.4613 H   0  0  0  0  0  0
  -27.8725  -30.4326   23.9302 H   0  0  0  0  0  0
  -27.2620  -33.3660   26.1981 H   0  0  0  0  0  0
  -28.3873  -32.6834   25.0350 H   0  0  0  0  0  0
  -28.0628  -31.8508   26.5473 H   0  0  0  0  0  0
  -28.2577  -38.0100   24.7528 H   0  0  0  0  0  0
  -28.1063  -36.2626   24.6275 H   0  0  0  0  0  0
  -27.2309  -37.1437   25.8879 H   0  0  0  0  0  0
  -20.9277  -29.8776   21.6918 H   0  0  0  0  0  0
  -26.0163  -38.2842   24.1412 H   0  0  0  0  0  0
  -32.3217  -17.2418   19.6586 H   0  0  0  0  0  0
  -32.5972  -22.6933   20.2437 H   0  0  0  0  0  0
  -32.2163  -22.3002   18.5637 H   0  0  0  0  0  0
  -33.6840  -21.7165   19.3308 H   0  0  0  0  0  0
  -29.9408  -17.0082   22.5646 H   0  0  0  0  0  0
  -31.5349  -16.5455   22.1475 H   0  0  0  0  0  0
  -31.0502  -22.5556   21.7639 H   0  0  0  0  0  0
  -29.5133  -21.9076   22.1378 H   0  0  0  0  0  0
  -28.6653  -24.2705   21.6867 H   0  0  0  0  0  0
  -30.1997  -24.8052   21.0531 H   0  0  0  0  0  0
  -27.5456  -24.7900   19.5462 H   0  0  0  0  0  0
  -29.0495  -25.2608   18.8116 H   0  0  0  0  0  0
  -29.0536  -15.4261   21.2165 H   0  0  0  0  0  0
  -28.6989  -22.4855   20.0062 H   0  0  0  0  0  0
  -30.1529  -22.9665   19.4839 H   0  0  0  0  0  0
  1 25  1  0  0  0
  1 30  2  0  0  0
  1 82  1  0  0  0
  2  3  1  0  0  0
  2 25  1  0  0  0
  2 86  1  0  0  0
  2 87  1  0  0  0
  3  4  1  0  0  0
  3 88  1  0  0  0
  3 89  1  0  0  0
  4  5  1  0  0  0
  4 90  1  0  0  0
  4 91  1  0  0  0
  5  6  1  0  0  0
  5 26  1  0  0  0
  5 92  1  0  0  0
  6 25  1  0  0  0
  6 93  1  0  0  0
  6 94  1  0  0  0
  7  8  2  0  0  0
  7 26  1  0  0  0
  7 29  1  0  0  0
  8  9  1  0  0  0
  8 22  1  0  0  0
  9 10  1  0  0  0
  9 27  2  0  0  0
 10 11  2  0  0  0
 10 15  1  0  0  0
 11 12  1  0  0  0
 11 95  1  0  0  0
 12 13  2  0  0  0
 12 96  1  0  0  0
 13 14  1  0  0  0
 13 31  1  0  0  0
 14 15  2  0  0  0
 14 97  1  0  0  0
 15 98  1  0  0  0
 16 17  2  0  0  0
 16 21  1  0  0  0
 16 31  1  0  0  0
 17 18  1  0  0  0
 17 99  1  0  0  0
 18 19  2  0  0  0
 18100  1  0  0  0
 19 20  1  0  0  0
 19 24  1  0  0  0
 20 21  2  0  0  0
 20101  1  0  0  0
 21 23  1  0  0  0
 22 28  1  0  0  0
 22 32  2  0  0  0
 26 27  1  0  0  0
 28102  1  0  0  0
 28103  1  0  0  0
 29104  1  0  0  0
 29105  1  0  0  0
 33 34  1  0  0  0
 33 66  1  0  0  0
 33 70  2  0  0  0
 34 36  1  0  0  0
 34 59  1  0  0  0
 34106  1  0  0  0
 35 44  2  0  0  0
 35 45  1  0  0  0
 35 68  1  0  0  0
 36 56  1  0  0  0
 36107  1  0  0  0
 37 39  1  0  0  0
 37 47  1  0  0  0
 37 66  1  0  0  0
 37108  1  0  0  0
 38 43  2  0  0  0
 38 46  1  0  0  0
 38 47  1  0  0  0
 39 64  1  0  0  0
 39 67  2  0  0  0
 40 52  1  0  0  0
 40 53  2  0  0  0
 40 58  1  0  0  0
 41109  1  0  0  0
 41110  1  0  0  0
 41111  1  0  0  0
 41 48  1  0  0  0
 42 43  1  0  0  0
 42 66  1  0  0  0
 42112  1  0  0  0
 42113  1  0  0  0
 43 44  1  0  0  0
 44114  1  0  0  0
 45 46  2  0  0  0
 45115  1  0  0  0
 46116  1  0  0  0
 47117  1  0  0  0
 47118  1  0  0  0
 48 56  1  0  0  0
 48 65  1  0  0  0
 48119  1  0  0  0
 49 50  1  0  0  0
 49 53  1  0  0  0
 49 64  1  0  0  0
 49120  1  0  0  0
 50 51  1  0  0  0
 50121  1  0  0  0
 50122  1  0  0  0
 51 52  1  0  0  0
 51123  1  0  0  0
 51124  1  0  0  0
 52125  1  0  0  0
 52126  1  0  0  0
 53 54  1  0  0  0
 54 55  2  0  0  0
 54127  1  0  0  0
 55 57  1  0  0  0
 55128  1  0  0  0
 56 69  2  0  0  0
 57 58  2  0  0  0
 57129  1  0  0  0
 58130  1  0  0  0
 59 60  1  0  0  0
 59 61  1  0  0  0
 59 62  1  0  0  0
 60131  1  0  0  0
 60132  1  0  0  0
 60133  1  0  0  0
 61134  1  0  0  0
 61135  1  0  0  0
 61136  1  0  0  0
 62137  1  0  0  0
 62138  1  0  0  0
 62139  1  0  0  0
 63 65  1  0  0  0
 63140  1  0  0  0
 63141  1  0  0  0
 63142  1  0  0  0
 64143  1  0  0  0
 65144  1  0  0  0
 68 81  1  0  0  0
 71 72  2  0  0  0
 71 75  1  0  0  0
 71145  1  0  0  0
 72 76  1  0  0  0
 72 78  1  0  0  0
 73 74  1  0  0  0
 73 75  2  0  0  0
 73 77  1  0  0  0
 74 76  2  0  0  0
 74 79  1  0  0  0
 75 84  1  0  0  0
 76 85  1  0  0  0
 77146  1  0  0  0
 77147  1  0  0  0
 77148  1  0  0  0
 78 82  1  0  0  0
 78149  1  0  0  0
 78150  1  0  0  0
 79 83  1  0  0  0
 79151  1  0  0  0
 79152  1  0  0  0
 80 81  1  0  0  0
 80 83  1  0  0  0
 80153  1  0  0  0
 80154  1  0  0  0
 81155  1  0  0  0
 81156  1  0  0  0
 82157  1  0  0  0
 83158  1  0  0  0
 83159  1  0  0  0
M  CHG  1  83   1
M  ISO  4   1 100  68 101  81 101  82 100
M  END
> <chiral flag>
0

> <version>
0

> <s_m_source_file>
/data/baiqing/PycharmProjects/Reinvent-master-3.2/result/LINK_invent/BTK/process_docking_weight1_custom_sum_contain_oxygen_bond_distance_aromatic_linkinvent_7_9_3/rearranged_h_0029.sdf

> <i_m_source_file_index>
38

> <r_mmod_Potential_Energy-OPLS-2005>
-207.99479675293

> <r_mmod_Stretch_Energy-OPLS-2005>
60.9339752197266

> <r_mmod_Bend_Energy-OPLS-2005>
130.048614501953

> <r_mmod_Torsional_Energy-OPLS-2005>
202.861801147461

> <r_mmod_Improper_Torsional_Energy-OPLS-2005>
5.26236009597778

> <r_mmod_Van_der_Waal_Energy-OPLS-2005>
154.473068237305

> <r_mmod_Electrostatic_Energy-OPLS-2005>
-323.158172607422

> <r_mmod_Solvation_Energy-OPLS-2005>
-464.499969482422

> <b_mmod_Minimization_Converged-OPLS-2005>
0

> <r_mmod_RMS_Derivative-OPLS-2005>
4.99892330169678

$$$$
38
                    3D
 Structure written by MMmdl.
165173  0  0  1  0            999 V2000
  -30.7203  -14.3935   20.6067 C   0  0  0  0  0  0
  -30.4239  -12.2709   19.4006 C   0  0  0  0  0  0
  -29.4935  -12.5134   18.1949 C   0  0  0  0  0  0
  -28.0123  -12.3878   18.6054 C   0  0  0  0  0  0
  -27.6716  -13.1972   19.8861 C   0  0  2  0  0  0
  -28.7104  -12.9225   20.9969 C   0  0  0  0  0  0
  -25.2641  -13.8148   20.5679 C   0  0  0  0  0  0
  -24.1868  -13.0444   20.9161 C   0  0  0  0  0  0
  -24.6399  -11.6900   20.8711 C   0  0  0  0  0  0
  -23.9055  -10.4295   21.0384 C   0  0  0  0  0  0
  -24.3616   -9.4219   21.9165 C   0  0  0  0  0  0
  -23.6293   -8.2255   22.0748 C   0  0  0  0  0  0
  -22.4273   -8.0288   21.3544 C   0  0  0  0  0  0
  -21.9903   -9.0256   20.4646 C   0  0  0  0  0  0
  -22.7226  -10.2137   20.3040 C   0  0  0  0  0  0
  -21.6858   -6.0729   22.5273 C   0  0  0  0  0  0
  -21.4015   -6.5628   23.8207 C   0  0  0  0  0  0
  -21.3662   -5.6782   24.9168 C   0  0  0  0  0  0
  -21.6050   -4.3046   24.7215 C   0  0  0  0  0  0
  -21.8822   -3.8135   23.4335 C   0  0  0  0  0  0
  -21.9203   -4.6956   22.3393 C   0  0  0  0  0  0
  -22.7895  -13.5256   21.1827 C   0  0  0  0  0  0
  -22.1668   -4.2137   21.0972 F   0  0  0  0  0  0
  -21.5642   -3.4533   25.7728 F   0  0  0  0  0  0
  -30.0499  -13.2235   20.4559 N   0  0  0  0  0  0
  -26.3078  -12.9299   20.3408 N   0  0  0  0  0  0
  -25.9327  -11.6465   20.5763 N   0  0  0  0  0  0
  -22.0524  -12.8250   22.0378 N   0  0  0  0  0  0
  -25.4390  -15.1868   20.4098 N   0  0  0  0  0  0
  -31.8016  -14.6220   20.0596 O   0  0  0  0  0  0
  -21.6654   -6.8876   21.4235 O   0  0  0  0  0  0
  -22.3588  -14.5564   20.6679 O   0  0  0  0  0  0
  -24.6105  -31.8704   23.2119 C   0  0  0  0  0  0
  -25.9011  -32.4841   23.8399 C   0  0  1  0  0  0
  -27.2419  -27.4730   20.0822 C   0  0  0  0  0  0
  -25.5892  -33.8640   24.2331 N   0  0  0  0  0  0
  -23.3947  -30.4927   21.5529 C   0  0  2  0  0  0
  -24.8387  -28.9590   20.1158 C   0  0  0  0  0  0
  -22.7379  -29.4665   22.5023 C   0  0  0  0  0  0
  -18.0257  -28.1379   22.8483 C   0  0  0  0  0  0
  -24.1488  -36.7326   23.2636 C   0  0  0  0  0  0
  -25.9173  -30.8448   21.3579 C   0  0  0  0  0  0
  -25.9931  -29.4801   20.7099 C   0  0  0  0  0  0
  -27.1920  -28.7419   20.6933 C   0  0  0  0  0  0
  -26.0670  -26.9499   19.4925 C   0  0  0  0  0  0
  -24.8681  -27.6904   19.5081 C   0  0  0  0  0  0
  -23.5993  -29.8222   20.1674 C   0  0  0  0  0  0
  -25.4111  -36.3129   24.0330 C   0  0  1  0  0  0
  -20.5845  -28.3659   23.1335 C   0  0  2  0  0  0
  -20.6752  -26.9403   22.5425 C   0  0  0  0  0  0
  -19.5738  -26.6388   21.5215 C   0  0  0  0  0  0
  -18.1912  -26.7916   22.1621 C   0  0  0  0  0  0
  -19.1508  -28.8829   23.2901 C   0  0  0  0  0  0
  -18.9443  -30.1438   23.8913 C   0  0  0  0  0  0
  -17.6451  -30.6584   24.0570 C   0  0  0  0  0  0
  -25.9038  -34.9493   23.5126 C   0  0  0  0  0  0
  -16.5341  -29.9093   23.6327 C   0  0  0  0  0  0
  -16.7248  -28.6511   23.0336 C   0  0  0  0  0  0
  -26.4451  -31.6608   25.0712 C   0  0  0  0  0  0
  -25.3737  -31.3688   26.1476 C   0  0  0  0  0  0
  -27.0265  -30.3061   24.6048 C   0  0  0  0  0  0
  -27.6047  -32.4305   25.7465 C   0  0  0  0  0  0
  -27.5581  -37.1816   24.8463 C   0  0  0  0  0  0
  -21.4114  -29.3029   22.3756 N   0  0  0  0  0  0
  -26.4296  -37.3814   23.9408 N   0  0  0  0  0  0
  -24.6588  -31.0832   22.1008 N   0  0  0  0  0  0
  -23.4166  -28.8206   23.3051 O   0  0  0  0  0  0
  -28.4557  -26.8261   20.0990 O   0  0  0  0  0  0
  -26.5604  -34.8935   22.4696 O   0  0  0  0  0  0
  -23.5309  -32.1445   23.7549 O   0  0  0  0  0  0
  -28.5318  -22.9413   17.6269 C   0  0  0  0  0  0
  -30.7853  -23.8645   17.6392 C   0  0  0  0  0  0
  -29.3941  -24.0444   17.7725 C   0  0  0  0  0  0
  -30.4562  -21.4637   17.2867 C   0  0  0  0  0  0
  -29.0537  -21.6558   17.3881 C   0  0  0  0  0  0
  -31.3155  -22.5845   17.3947 C   0  0  0  0  0  0
  -28.8376  -25.4036   18.1461 C   0  0  0  0  0  0
  -31.0511  -20.0654   17.1207 C   0  0  0  0  0  0
  -31.4907  -17.4131   20.8352 C   0  0  0  0  0  0
  -31.4608  -18.9523   20.8150 C   0  0  0  0  0  0
  -30.1500  -16.7900   21.2910 C   0  0  0  0  0  0
  -30.7741  -19.5511   19.5676 C   0  0  0  0  0  0
  -28.5648  -25.4817   19.6573 C   0  0  0  0  0  0
  -30.0462  -15.3251   21.2971 N   0  0  0  0  0  0
  -31.6568  -19.5542   18.3734 N   0  3  0  0  0  0
  -27.9437  -20.3342   17.2790 Cl  0  0  0  0  0  0
  -33.0329  -22.4063   17.2930 Cl  0  0  0  0  0  0
  -31.4686  -12.3690   19.0972 H   0  0  0  0  0  0
  -30.3177  -11.2478   19.7641 H   0  0  0  0  0  0
  -29.7197  -11.8063   17.3956 H   0  0  0  0  0  0
  -29.6783  -13.5065   17.7824 H   0  0  0  0  0  0
  -27.7988  -11.3305   18.7668 H   0  0  0  0  0  0
  -27.3709  -12.7053   17.7828 H   0  0  0  0  0  0
  -27.7354  -14.2539   19.6277 H   0  0  0  0  0  0
  -28.6729  -11.8734   21.2918 H   0  0  0  0  0  0
  -28.4710  -13.4785   21.9045 H   0  0  0  0  0  0
  -25.2763   -9.5709   22.4736 H   0  0  0  0  0  0
  -24.0013   -7.4651   22.7456 H   0  0  0  0  0  0
  -21.0843   -8.8762   19.8948 H   0  0  0  0  0  0
  -22.3673  -10.9675   19.6154 H   0  0  0  0  0  0
  -21.1989   -7.6132   23.9703 H   0  0  0  0  0  0
  -21.1497   -6.0509   25.9074 H   0  0  0  0  0  0
  -22.0601   -2.7595   23.2837 H   0  0  0  0  0  0
  -22.4131  -11.9922   22.4789 H   0  0  0  0  0  0
  -21.1137  -13.1278   22.2553 H   0  0  0  0  0  0
  -24.6740  -15.8436   20.5203 H   0  0  0  0  0  0
  -26.2981  -15.6263   20.1032 H   0  0  0  0  0  0
  -26.7080  -32.5557   23.1165 H   0  0  0  0  0  0
  -25.0053  -33.9815   25.0481 H   0  0  0  0  0  0
  -22.6822  -31.3083   21.4167 H   0  0  0  0  0  0
  -23.3744  -35.9670   23.3328 H   0  0  0  0  0  0
  -24.3583  -36.8917   22.2048 H   0  0  0  0  0  0
  -23.7240  -37.6537   23.6633 H   0  0  0  0  0  0
  -26.0201  -31.6056   20.5832 H   0  0  0  0  0  0
  -26.8108  -30.9030   21.9688 H   0  0  0  0  0  0
  -28.0860  -29.1448   21.1479 H   0  0  0  0  0  0
  -26.0574  -25.9846   19.0088 H   0  0  0  0  0  0
  -23.9797  -27.2822   19.0455 H   0  0  0  0  0  0
  -23.7033  -30.5964   19.4064 H   0  0  0  0  0  0
  -22.7247  -29.2389   19.8747 H   0  0  0  0  0  0
  -25.1283  -36.2003   25.0819 H   0  0  0  0  0  0
  -20.9921  -28.3221   24.1462 H   0  0  0  0  0  0
  -20.5663  -26.2268   23.3606 H   0  0  0  0  0  0
  -21.6624  -26.7457   22.1224 H   0  0  0  0  0  0
  -19.6913  -25.6303   21.1230 H   0  0  0  0  0  0
  -19.6684  -27.3215   20.6760 H   0  0  0  0  0  0
  -17.4188  -26.6659   21.4021 H   0  0  0  0  0  0
  -18.0319  -26.0051   22.9011 H   0  0  0  0  0  0
  -19.7930  -30.7240   24.2293 H   0  0  0  0  0  0
  -17.5018  -31.6267   24.5173 H   0  0  0  0  0  0
  -15.5347  -30.3015   23.7639 H   0  0  0  0  0  0
  -15.8641  -28.0854   22.7036 H   0  0  0  0  0  0
  -24.5923  -30.7019   25.7809 H   0  0  0  0  0  0
  -24.8913  -32.2832   26.4941 H   0  0  0  0  0  0
  -25.8111  -30.8851   27.0220 H   0  0  0  0  0  0
  -26.2780  -29.6847   24.1117 H   0  0  0  0  0  0
  -27.4066  -29.7269   25.4471 H   0  0  0  0  0  0
  -27.8602  -30.4392   23.9149 H   0  0  0  0  0  0
  -27.2688  -33.3593   26.2088 H   0  0  0  0  0  0
  -28.3833  -32.6884   25.0273 H   0  0  0  0  0  0
  -28.0742  -31.8396   26.5346 H   0  0  0  0  0  0
  -28.2607  -38.0104   24.7522 H   0  0  0  0  0  0
  -28.1062  -36.2641   24.6273 H   0  0  0  0  0  0
  -27.2303  -37.1447   25.8866 H   0  0  0  0  0  0
  -20.9270  -29.8753   21.6982 H   0  0  0  0  0  0
  -26.0189  -38.2892   24.1419 H   0  0  0  0  0  0
  -27.4630  -23.0688   17.7334 H   0  0  0  0  0  0
  -31.4588  -24.7013   17.7582 H   0  0  0  0  0  0
  -27.9316  -25.6043   17.5740 H   0  0  0  0  0  0
  -29.5560  -26.1731   17.8595 H   0  0  0  0  0  0
  -31.8172  -20.0945   16.3449 H   0  0  0  0  0  0
  -30.3129  -19.3508   16.7587 H   0  0  0  0  0  0
  -32.2793  -17.0825   21.5129 H   0  0  0  0  0  0
  -31.7738  -17.0652   19.8431 H   0  0  0  0  0  0
  -32.4761  -19.3439   20.8972 H   0  0  0  0  0  0
  -30.9493  -19.3061   21.7118 H   0  0  0  0  0  0
  -29.3348  -17.1585   20.6672 H   0  0  0  0  0  0
  -29.9248  -17.1303   22.3034 H   0  0  0  0  0  0
  -30.4909  -20.5776   19.8025 H   0  0  0  0  0  0
  -29.8458  -19.0233   19.3448 H   0  0  0  0  0  0
  -29.4269  -25.0737   20.1881 H   0  0  0  0  0  0
  -27.7178  -24.8646   19.9604 H   0  0  0  0  0  0
  -29.2062  -14.9684   21.7295 H   0  0  0  0  0  0
  -32.4667  -20.1223   18.5666 H   0  0  0  0  0  0
  -31.9831  -18.6185   18.1907 H   0  0  0  0  0  0
  1 25  1  0  0  0
  1 30  2  0  0  0
  1 84  1  0  0  0
  2  3  1  0  0  0
  2 25  1  0  0  0
  2 88  1  0  0  0
  2 89  1  0  0  0
  3  4  1  0  0  0
  3 90  1  0  0  0
  3 91  1  0  0  0
  4  5  1  0  0  0
  4 92  1  0  0  0
  4 93  1  0  0  0
  5  6  1  0  0  0
  5 26  1  0  0  0
  5 94  1  0  0  0
  6 25  1  0  0  0
  6 95  1  0  0  0
  6 96  1  0  0  0
  7  8  2  0  0  0
  7 26  1  0  0  0
  7 29  1  0  0  0
  8  9  1  0  0  0
  8 22  1  0  0  0
  9 10  1  0  0  0
  9 27  2  0  0  0
 10 11  2  0  0  0
 10 15  1  0  0  0
 11 12  1  0  0  0
 11 97  1  0  0  0
 12 13  2  0  0  0
 12 98  1  0  0  0
 13 14  1  0  0  0
 13 31  1  0  0  0
 14 15  2  0  0  0
 14 99  1  0  0  0
 15100  1  0  0  0
 16 17  2  0  0  0
 16 21  1  0  0  0
 16 31  1  0  0  0
 17 18  1  0  0  0
 17101  1  0  0  0
 18 19  2  0  0  0
 18102  1  0  0  0
 19 20  1  0  0  0
 19 24  1  0  0  0
 20 21  2  0  0  0
 20103  1  0  0  0
 21 23  1  0  0  0
 22 28  1  0  0  0
 22 32  2  0  0  0
 26 27  1  0  0  0
 28104  1  0  0  0
 28105  1  0  0  0
 29106  1  0  0  0
 29107  1  0  0  0
 33 34  1  0  0  0
 33 66  1  0  0  0
 33 70  2  0  0  0
 34 36  1  0  0  0
 34 59  1  0  0  0
 34108  1  0  0  0
 35 44  2  0  0  0
 35 45  1  0  0  0
 35 68  1  0  0  0
 36 56  1  0  0  0
 36109  1  0  0  0
 37 39  1  0  0  0
 37 47  1  0  0  0
 37 66  1  0  0  0
 37110  1  0  0  0
 38 43  2  0  0  0
 38 46  1  0  0  0
 38 47  1  0  0  0
 39 64  1  0  0  0
 39 67  2  0  0  0
 40 52  1  0  0  0
 40 53  2  0  0  0
 40 58  1  0  0  0
 41111  1  0  0  0
 41112  1  0  0  0
 41113  1  0  0  0
 41 48  1  0  0  0
 42 43  1  0  0  0
 42 66  1  0  0  0
 42114  1  0  0  0
 42115  1  0  0  0
 43 44  1  0  0  0
 44116  1  0  0  0
 45 46  2  0  0  0
 45117  1  0  0  0
 46118  1  0  0  0
 47119  1  0  0  0
 47120  1  0  0  0
 48 56  1  0  0  0
 48 65  1  0  0  0
 48121  1  0  0  0
 49 50  1  0  0  0
 49 53  1  0  0  0
 49 64  1  0  0  0
 49122  1  0  0  0
 50 51  1  0  0  0
 50123  1  0  0  0
 50124  1  0  0  0
 51 52  1  0  0  0
 51125  1  0  0  0
 51126  1  0  0  0
 52127  1  0  0  0
 52128  1  0  0  0
 53 54  1  0  0  0
 54 55  2  0  0  0
 54129  1  0  0  0
 55 57  1  0  0  0
 55130  1  0  0  0
 56 69  2  0  0  0
 57 58  2  0  0  0
 57131  1  0  0  0
 58132  1  0  0  0
 59 60  1  0  0  0
 59 61  1  0  0  0
 59 62  1  0  0  0
 60133  1  0  0  0
 60134  1  0  0  0
 60135  1  0  0  0
 61136  1  0  0  0
 61137  1  0  0  0
 61138  1  0  0  0
 62139  1  0  0  0
 62140  1  0  0  0
 62141  1  0  0  0
 63 65  1  0  0  0
 63142  1  0  0  0
 63143  1  0  0  0
 63144  1  0  0  0
 64145  1  0  0  0
 65146  1  0  0  0
 68 83  1  0  0  0
 71 73  2  0  0  0
 71 75  1  0  0  0
 71147  1  0  0  0
 72 73  1  0  0  0
 72 76  2  0  0  0
 72148  1  0  0  0
 73 77  1  0  0  0
 74 75  2  0  0  0
 74 76  1  0  0  0
 74 78  1  0  0  0
 75 86  1  0  0  0
 76 87  1  0  0  0
 77 83  1  0  0  0
 77149  1  0  0  0
 77150  1  0  0  0
 78 85  1  0  0  0
 78151  1  0  0  0
 78152  1  0  0  0
 79 80  1  0  0  0
 79 81  1  0  0  0
 79153  1  0  0  0
 79154  1  0  0  0
 80 82  1  0  0  0
 80155  1  0  0  0
 80156  1  0  0  0
 81 84  1  0  0  0
 81157  1  0  0  0
 81158  1  0  0  0
 82 85  1  0  0  0
 82159  1  0  0  0
 82160  1  0  0  0
 83161  1  0  0  0
 83162  1  0  0  0
 84163  1  0  0  0
 85164  1  0  0  0
 85165  1  0  0  0
M  CHG  1  85   1
M  ISO  4   1 100  68 101  83 101  84 100
M  END
> <chiral flag>
0

> <version>
0

> <s_m_source_file>
/data/baiqing/PycharmProjects/Reinvent-master-3.2/result/LINK_invent/BTK/process_docking_weight1_custom_sum_contain_oxygen_bond_distance_aromatic_linkinvent_7_9_3/rearranged_h_0029.sdf

> <i_m_source_file_index>
39

> <r_mmod_Potential_Energy-OPLS-2005>
-269.908508300781

> <r_mmod_Stretch_Energy-OPLS-2005>
32.8408012390137

> <r_mmod_Bend_Energy-OPLS-2005>
108.749954223633

> <r_mmod_Torsional_Energy-OPLS-2005>
194.210342407227

> <r_mmod_Improper_Torsional_Energy-OPLS-2005>
3.81600832939148

> <r_mmod_Van_der_Waal_Energy-OPLS-2005>
157.520233154297

> <r_mmod_Electrostatic_Energy-OPLS-2005>
-324.136108398438

> <r_mmod_Solvation_Energy-OPLS-2005>
-451.926910400391

> <b_mmod_Minimization_Converged-OPLS-2005>
0

> <r_mmod_RMS_Derivative-OPLS-2005>
1.77462089061737

$$$$
39
                    3D
 Structure written by MMmdl.
159167  0  0  1  0            999 V2000
  -30.3712  -15.4416   20.3574 C   0  0  0  0  0  0
  -30.4332  -12.9438   19.5188 C   0  0  0  0  0  0
  -29.5390  -12.6074   18.2963 C   0  0  0  0  0  0
  -28.0999  -12.2923   18.7374 C   0  0  0  0  0  0
  -27.6010  -13.2873   19.8121 C   0  0  2  0  0  0
  -28.6301  -13.5426   20.9339 C   0  0  0  0  0  0
  -25.2356  -13.8255   20.5770 C   0  0  0  0  0  0
  -24.1724  -13.0430   20.9277 C   0  0  0  0  0  0
  -24.6399  -11.6933   20.8768 C   0  0  0  0  0  0
  -23.9099  -10.4289   21.0405 C   0  0  0  0  0  0
  -24.3642   -9.4203   21.9185 C   0  0  0  0  0  0
  -23.6307   -8.2242   22.0755 C   0  0  0  0  0  0
  -22.4288   -8.0283   21.3545 C   0  0  0  0  0  0
  -21.9931   -9.0258   20.4645 C   0  0  0  0  0  0
  -22.7269  -10.2132   20.3054 C   0  0  0  0  0  0
  -21.6856   -6.0740   22.5280 C   0  0  0  0  0  0
  -21.4016   -6.5643   23.8212 C   0  0  0  0  0  0
  -21.3658   -5.6795   24.9174 C   0  0  0  0  0  0
  -21.6043   -4.3057   24.7224 C   0  0  0  0  0  0
  -21.8819   -3.8150   23.4345 C   0  0  0  0  0  0
  -21.9194   -4.6966   22.3402 C   0  0  0  0  0  0
  -22.7741  -13.5175   21.1916 C   0  0  0  0  0  0
  -22.1663   -4.2152   21.0980 F   0  0  0  0  0  0
  -21.5627   -3.4540   25.7736 F   0  0  0  0  0  0
  -29.8261  -14.1094   20.2807 N   0  0  0  0  0  0
  -26.2783  -12.9548   20.3212 N   0  0  0  0  0  0
  -25.9337  -11.6642   20.5710 N   0  0  0  0  0  0
  -22.0402  -12.8154   22.0468 N   0  0  0  0  0  0
  -25.3967  -15.1994   20.4211 N   0  0  0  0  0  0
  -31.6072  -15.4070   20.2368 O   0  0  0  0  0  0
  -21.6646   -6.8885   21.4243 O   0  0  0  0  0  0
  -22.3419  -14.5475   20.6754 O   0  0  0  0  0  0
  -24.6732  -31.8119   23.1607 C   0  0  0  0  0  0
  -25.9366  -32.4526   23.8111 C   0  0  1  0  0  0
  -27.2190  -26.8078   20.2172 C   0  0  0  0  0  0
  -25.5993  -33.8345   24.2011 N   0  0  0  0  0  0
  -23.4928  -30.4179   21.5130 C   0  0  2  0  0  0
  -24.9452  -28.7738   20.1257 C   0  0  0  0  0  0
  -22.7709  -29.4385   22.4761 C   0  0  0  0  0  0
  -18.0327  -28.1419   22.8464 C   0  0  0  0  0  0
  -24.1489  -36.7170   23.2651 C   0  0  0  0  0  0
  -26.0673  -30.5801   21.4077 C   0  0  0  0  0  0
  -26.1321  -29.1534   20.7642 C   0  0  0  0  0  0
  -27.2603  -28.1975   20.7741 C   0  0  0  0  0  0
  -26.0030  -26.6103   19.5220 C   0  0  0  0  0  0
  -24.9123  -27.5248   19.4824 C   0  0  0  0  0  0
  -23.7395  -29.7191   20.1463 C   0  0  0  0  0  0
  -25.4135  -36.2927   24.0293 C   0  0  1  0  0  0
  -20.5957  -28.3768   23.1170 C   0  0  2  0  0  0
  -20.6799  -26.9441   22.5405 C   0  0  0  0  0  0
  -19.5774  -26.6379   21.5217 C   0  0  0  0  0  0
  -18.1956  -26.7951   22.1621 C   0  0  0  0  0  0
  -19.1592  -28.8916   23.2800 C   0  0  0  0  0  0
  -18.9501  -30.1503   23.8840 C   0  0  0  0  0  0
  -17.6493  -30.6605   24.0556 C   0  0  0  0  0  0
  -25.9112  -34.9317   23.4979 C   0  0  0  0  0  0
  -16.5383  -29.9092   23.6350 C   0  0  0  0  0  0
  -16.7309  -28.6513   23.0367 C   0  0  0  0  0  0
  -26.4582  -31.6515   25.0686 C   0  0  0  0  0  0
  -25.3679  -31.3799   26.1322 C   0  0  0  0  0  0
  -27.0497  -30.2869   24.6498 C   0  0  0  0  0  0
  -27.6052  -32.4349   25.7497 C   0  0  0  0  0  0
  -27.5561  -37.1742   24.8469 C   0  0  0  0  0  0
  -21.4370  -29.3037   22.3504 N   0  0  0  0  0  0
  -26.4267  -37.3679   23.9415 N   0  0  0  0  0  0
  -24.7670  -30.9673   22.0802 N   0  0  0  0  0  0
  -23.4203  -28.7976   23.3060 O   0  0  0  0  0  0
  -28.2574  -25.6975   20.1851 O   0  0  0  0  0  0
  -26.5735  -34.8877   22.4585 O   0  0  0  0  0  0
  -23.5778  -32.1143   23.6634 O   0  0  0  0  0  0
  -27.8459  -21.0162   20.4774 C   0  0  0  0  0  0
  -29.7243  -23.1517   20.1308 C   0  0  0  0  0  0
  -29.2498  -20.1713   20.1459 C   0  0  1  0  0  0
  -28.3525  -24.0070   20.4924 C   0  0  2  0  0  0
  -30.1335  -21.5406   20.5432 C   0  0  0  0  0  0
  -27.4583  -22.6541   20.0664 C   0  0  2  0  0  0
  -31.5157  -21.3295   19.8910 C   0  0  0  0  0  0
  -30.3621  -21.5395   22.0715 C   0  0  0  0  0  0
  -26.0206  -22.8886   20.5508 C   0  0  0  0  0  0
  -29.8507  -18.4467   20.6480 C   0  0  0  0  0  0
  -29.6086  -16.7607   20.3769 N   0  0  0  0  0  0
  -27.3931  -22.6589   18.7327 F   0  0  0  0  0  0
  -31.4359  -13.1876   19.1653 H   0  0  0  0  0  0
  -30.5569  -12.0724   20.1640 H   0  0  0  0  0  0
  -29.9551  -11.7685   17.7369 H   0  0  0  0  0  0
  -29.5301  -13.4581   17.6131 H   0  0  0  0  0  0
  -28.0935  -11.2815   19.1470 H   0  0  0  0  0  0
  -27.4276  -12.2804   17.8787 H   0  0  0  0  0  0
  -27.4876  -14.2307   19.2764 H   0  0  0  0  0  0
  -28.8502  -12.6343   21.4969 H   0  0  0  0  0  0
  -28.2358  -14.2649   21.6505 H   0  0  0  0  0  0
  -25.2781   -9.5678   22.4768 H   0  0  0  0  0  0
  -24.0010   -7.4634   22.7478 H   0  0  0  0  0  0
  -21.0862   -8.8783   19.8950 H   0  0  0  0  0  0
  -22.3728  -10.9674   19.6166 H   0  0  0  0  0  0
  -21.2009   -7.6152   23.9717 H   0  0  0  0  0  0
  -21.1479   -6.0525   25.9076 H   0  0  0  0  0  0
  -22.0599   -2.7612   23.2844 H   0  0  0  0  0  0
  -22.4041  -11.9824   22.4854 H   0  0  0  0  0  0
  -21.1012  -13.1154   22.2673 H   0  0  0  0  0  0
  -24.6246  -15.8471   20.5361 H   0  0  0  0  0  0
  -26.2362  -15.6430   20.0741 H   0  0  0  0  0  0
  -26.7439  -32.5028   23.0821 H   0  0  0  0  0  0
  -25.0083  -33.9404   25.0125 H   0  0  0  0  0  0
  -22.8127  -31.2524   21.3302 H   0  0  0  0  0  0
  -23.3772  -35.9478   23.3272 H   0  0  0  0  0  0
  -24.3560  -36.8864   22.2072 H   0  0  0  0  0  0
  -23.7224  -37.6333   23.6742 H   0  0  0  0  0  0
  -26.2565  -31.3084   20.6180 H   0  0  0  0  0  0
  -26.9245  -30.6470   22.0655 H   0  0  0  0  0  0
  -28.1669  -28.5011   21.2782 H   0  0  0  0  0  0
  -25.8766  -25.6762   18.9950 H   0  0  0  0  0  0
  -24.0180  -27.2307   18.9505 H   0  0  0  0  0  0
  -23.9085  -30.4796   19.3833 H   0  0  0  0  0  0
  -22.8461  -29.1804   19.8257 H   0  0  0  0  0  0
  -25.1338  -36.1702   25.0783 H   0  0  0  0  0  0
  -21.0040  -28.3383   24.1295 H   0  0  0  0  0  0
  -20.5667  -26.2392   23.3655 H   0  0  0  0  0  0
  -21.6662  -26.7401   22.1218 H   0  0  0  0  0  0
  -19.6933  -25.6275   21.1281 H   0  0  0  0  0  0
  -19.6716  -27.3162   20.6724 H   0  0  0  0  0  0
  -17.4224  -26.6696   21.4025 H   0  0  0  0  0  0
  -18.0346  -26.0108   22.9031 H   0  0  0  0  0  0
  -19.7975  -30.7334   24.2184 H   0  0  0  0  0  0
  -17.5045  -31.6280   24.5170 H   0  0  0  0  0  0
  -15.5380  -30.2976   23.7711 H   0  0  0  0  0  0
  -15.8708  -28.0813   22.7118 H   0  0  0  0  0  0
  -24.5891  -30.7116   25.7630 H   0  0  0  0  0  0
  -24.8837  -32.3009   26.4577 H   0  0  0  0  0  0
  -25.7888  -30.9081   27.0211 H   0  0  0  0  0  0
  -26.3191  -29.6515   24.1484 H   0  0  0  0  0  0
  -27.3967  -29.7273   25.5195 H   0  0  0  0  0  0
  -27.9154  -30.4026   23.9975 H   0  0  0  0  0  0
  -27.2611  -33.3711   26.1904 H   0  0  0  0  0  0
  -28.3954  -32.6809   25.0391 H   0  0  0  0  0  0
  -28.0621  -31.8588   26.5555 H   0  0  0  0  0  0
  -28.2556  -38.0057   24.7516 H   0  0  0  0  0  0
  -28.1076  -36.2582   24.6293 H   0  0  0  0  0  0
  -27.2279  -37.1377   25.8872 H   0  0  0  0  0  0
  -20.9652  -29.8695   21.6588 H   0  0  0  0  0  0
  -26.0101  -38.2729   24.1435 H   0  0  0  0  0  0
  -27.6784  -20.9262   21.5504 H   0  0  0  0  0  0
  -27.0488  -20.4058   20.0527 H   0  0  0  0  0  0
  -30.5371  -23.7775   20.5000 H   0  0  0  0  0  0
  -29.8301  -23.2191   19.0471 H   0  0  0  0  0  0
  -29.2662  -20.1194   19.0565 H   0  0  0  0  0  0
  -28.3053  -24.0142   21.5818 H   0  0  0  0  0  0
  -31.4355  -21.2708   18.8049 H   0  0  0  0  0  0
  -32.0016  -20.4169   20.2330 H   0  0  0  0  0  0
  -32.2005  -22.1473   20.1191 H   0  0  0  0  0  0
  -29.4520  -21.7602   22.6280 H   0  0  0  0  0  0
  -31.0954  -22.2920   22.3643 H   0  0  0  0  0  0
  -30.7367  -20.5786   22.4249 H   0  0  0  0  0  0
  -25.9710  -22.8760   21.6399 H   0  0  0  0  0  0
  -25.3426  -22.1201   20.1796 H   0  0  0  0  0  0
  -25.6344  -23.8493   20.2189 H   0  0  0  0  0  0
  -29.8141  -18.4868   21.7366 H   0  0  0  0  0  0
  -30.9167  -18.4984   20.4332 H   0  0  0  0  0  0
  -28.6204  -16.5590   20.3220 H   0  0  0  0  0  0
  1 25  1  0  0  0
  1 30  2  0  0  0
  1 81  1  0  0  0
  2  3  1  0  0  0
  2 25  1  0  0  0
  2 83  1  0  0  0
  2 84  1  0  0  0
  3  4  1  0  0  0
  3 85  1  0  0  0
  3 86  1  0  0  0
  4  5  1  0  0  0
  4 87  1  0  0  0
  4 88  1  0  0  0
  5  6  1  0  0  0
  5 26  1  0  0  0
  5 89  1  0  0  0
  6 25  1  0  0  0
  6 90  1  0  0  0
  6 91  1  0  0  0
  7  8  2  0  0  0
  7 26  1  0  0  0
  7 29  1  0  0  0
  8  9  1  0  0  0
  8 22  1  0  0  0
  9 10  1  0  0  0
  9 27  2  0  0  0
 10 11  2  0  0  0
 10 15  1  0  0  0
 11 12  1  0  0  0
 11 92  1  0  0  0
 12 13  2  0  0  0
 12 93  1  0  0  0
 13 14  1  0  0  0
 13 31  1  0  0  0
 14 15  2  0  0  0
 14 94  1  0  0  0
 15 95  1  0  0  0
 16 17  2  0  0  0
 16 21  1  0  0  0
 16 31  1  0  0  0
 17 18  1  0  0  0
 17 96  1  0  0  0
 18 19  2  0  0  0
 18 97  1  0  0  0
 19 20  1  0  0  0
 19 24  1  0  0  0
 20 21  2  0  0  0
 20 98  1  0  0  0
 21 23  1  0  0  0
 22 28  1  0  0  0
 22 32  2  0  0  0
 26 27  1  0  0  0
 28 99  1  0  0  0
 28100  1  0  0  0
 29101  1  0  0  0
 29102  1  0  0  0
 33 34  1  0  0  0
 33 66  1  0  0  0
 33 70  2  0  0  0
 34 36  1  0  0  0
 34 59  1  0  0  0
 34103  1  0  0  0
 35 44  2  0  0  0
 35 45  1  0  0  0
 35 68  1  0  0  0
 36 56  1  0  0  0
 36104  1  0  0  0
 37 39  1  0  0  0
 37 47  1  0  0  0
 37 66  1  0  0  0
 37105  1  0  0  0
 38 43  2  0  0  0
 38 46  1  0  0  0
 38 47  1  0  0  0
 39 64  1  0  0  0
 39 67  2  0  0  0
 40 52  1  0  0  0
 40 53  2  0  0  0
 40 58  1  0  0  0
 41106  1  0  0  0
 41107  1  0  0  0
 41108  1  0  0  0
 41 48  1  0  0  0
 42 43  1  0  0  0
 42 66  1  0  0  0
 42109  1  0  0  0
 42110  1  0  0  0
 43 44  1  0  0  0
 44111  1  0  0  0
 45 46  2  0  0  0
 45112  1  0  0  0
 46113  1  0  0  0
 47114  1  0  0  0
 47115  1  0  0  0
 48 56  1  0  0  0
 48 65  1  0  0  0
 48116  1  0  0  0
 49 50  1  0  0  0
 49 53  1  0  0  0
 49 64  1  0  0  0
 49117  1  0  0  0
 50 51  1  0  0  0
 50118  1  0  0  0
 50119  1  0  0  0
 51 52  1  0  0  0
 51120  1  0  0  0
 51121  1  0  0  0
 52122  1  0  0  0
 52123  1  0  0  0
 53 54  1  0  0  0
 54 55  2  0  0  0
 54124  1  0  0  0
 55 57  1  0  0  0
 55125  1  0  0  0
 56 69  2  0  0  0
 57 58  2  0  0  0
 57126  1  0  0  0
 58127  1  0  0  0
 59 60  1  0  0  0
 59 61  1  0  0  0
 59 62  1  0  0  0
 60128  1  0  0  0
 60129  1  0  0  0
 60130  1  0  0  0
 61131  1  0  0  0
 61132  1  0  0  0
 61133  1  0  0  0
 62134  1  0  0  0
 62135  1  0  0  0
 62136  1  0  0  0
 63 65  1  0  0  0
 63137  1  0  0  0
 63138  1  0  0  0
 63139  1  0  0  0
 64140  1  0  0  0
 65141  1  0  0  0
 68 74  1  0  0  0
 71 73  1  0  0  0
 71 76  1  0  0  0
 71142  1  0  0  0
 71143  1  0  0  0
 72 74  1  0  0  0
 72 75  1  0  0  0
 72144  1  0  0  0
 72145  1  0  0  0
 73 75  1  0  0  0
 73 80  1  0  0  0
 73146  1  0  0  0
 74 76  1  0  0  0
 74147  1  0  0  0
 75 77  1  0  0  0
 75 78  1  0  0  0
 76 79  1  0  0  0
 76 82  1  0  0  0
 77148  1  0  0  0
 77149  1  0  0  0
 77150  1  0  0  0
 78151  1  0  0  0
 78152  1  0  0  0
 78153  1  0  0  0
 79154  1  0  0  0
 79155  1  0  0  0
 79156  1  0  0  0
 80 81  1  0  0  0
 80157  1  0  0  0
 80158  1  0  0  0
 81159  1  0  0  0
M  ISO  4   1 100  68 101  74 101  81 100
M  END
> <chiral flag>
0

> <version>
0

> <s_m_source_file>
/data/baiqing/PycharmProjects/Reinvent-master-3.2/result/LINK_invent/BTK/process_docking_weight1_custom_sum_contain_oxygen_bond_distance_aromatic_linkinvent_7_9_3/rearranged_h_0029.sdf

> <i_m_source_file_index>
40

> <r_mmod_Potential_Energy-OPLS-2005>
1915.98779296875

> <r_mmod_Stretch_Energy-OPLS-2005>
782.001770019531

> <r_mmod_Bend_Energy-OPLS-2005>
679.718872070312

> <r_mmod_Torsional_Energy-OPLS-2005>
267.254821777344

> <r_mmod_Improper_Torsional_Energy-OPLS-2005>
4.31791210174561

> <r_mmod_Van_der_Waal_Energy-OPLS-2005>
115.755149841309

> <r_mmod_Electrostatic_Energy-OPLS-2005>
-375.308471679688

> <r_mmod_Solvation_Energy-OPLS-2005>
-203.092651367188

> <b_mmod_Minimization_Converged-OPLS-2005>
0

> <r_mmod_RMS_Derivative-OPLS-2005>
0.286754220724106

$$$$
40
                    3D
 Structure written by MMmdl.
150158  0  0  1  0            999 V2000
  -30.4096  -15.3315   20.3753 C   0  0  0  0  0  0
  -30.4395  -12.8621   19.5134 C   0  0  0  0  0  0
  -29.5360  -12.5857   18.2843 C   0  0  0  0  0  0
  -28.0892  -12.2941   18.7211 C   0  0  0  0  0  0
  -27.6076  -13.2776   19.8159 C   0  0  2  0  0  0
  -28.6434  -13.4799   20.9413 C   0  0  0  0  0  0
  -25.2382  -13.8245   20.5753 C   0  0  0  0  0  0
  -24.1740  -13.0427   20.9264 C   0  0  0  0  0  0
  -24.6405  -11.6928   20.8772 C   0  0  0  0  0  0
  -23.9100  -10.4289   21.0414 C   0  0  0  0  0  0
  -24.3646   -9.4201   21.9188 C   0  0  0  0  0  0
  -23.6306   -8.2246   22.0763 C   0  0  0  0  0  0
  -22.4285   -8.0292   21.3556 C   0  0  0  0  0  0
  -21.9932   -9.0267   20.4653 C   0  0  0  0  0  0
  -22.7276  -10.2136   20.3059 C   0  0  0  0  0  0
  -21.6855   -6.0745   22.5276 C   0  0  0  0  0  0
  -21.4017   -6.5647   23.8211 C   0  0  0  0  0  0
  -21.3658   -5.6797   24.9171 C   0  0  0  0  0  0
  -21.6040   -4.3060   24.7218 C   0  0  0  0  0  0
  -21.8820   -3.8155   23.4336 C   0  0  0  0  0  0
  -21.9190   -4.6974   22.3395 C   0  0  0  0  0  0
  -22.7754  -13.5182   21.1899 C   0  0  0  0  0  0
  -22.1658   -4.2160   21.0972 F   0  0  0  0  0  0
  -21.5626   -3.4541   25.7730 F   0  0  0  0  0  0
  -29.8557  -14.0153   20.2974 N   0  0  0  0  0  0
  -26.2808  -12.9524   20.3215 N   0  0  0  0  0  0
  -25.9342  -11.6625   20.5725 N   0  0  0  0  0  0
  -22.0410  -12.8172   22.0455 N   0  0  0  0  0  0
  -25.4005  -15.1986   20.4195 N   0  0  0  0  0  0
  -31.6433  -15.3212   20.2462 O   0  0  0  0  0  0
  -21.6645   -6.8893   21.4242 O   0  0  0  0  0  0
  -22.3437  -14.5481   20.6732 O   0  0  0  0  0  0
  -24.6677  -31.8185   23.1652 C   0  0  0  0  0  0
  -25.9335  -32.4561   23.8138 C   0  0  1  0  0  0
  -27.2181  -26.8733   20.2016 C   0  0  0  0  0  0
  -25.5986  -33.8379   24.2032 N   0  0  0  0  0  0
  -23.4851  -30.4273   21.5166 C   0  0  2  0  0  0
  -24.9373  -28.7992   20.1207 C   0  0  0  0  0  0
  -22.7685  -29.4409   22.4771 C   0  0  0  0  0  0
  -18.0329  -28.1415   22.8467 C   0  0  0  0  0  0
  -24.1497  -36.7194   23.2650 C   0  0  0  0  0  0
  -26.0575  -30.6067   21.4030 C   0  0  0  0  0  0
  -26.1244  -29.1893   20.7547 C   0  0  0  0  0  0
  -27.2609  -28.2514   20.7623 C   0  0  0  0  0  0
  -25.9984  -26.6452   19.5253 C   0  0  0  0  0  0
  -24.9020  -27.5479   19.4859 C   0  0  0  0  0  0
  -23.7288  -29.7372   20.1465 C   0  0  0  0  0  0
  -25.4137  -36.2945   24.0290 C   0  0  1  0  0  0
  -20.5955  -28.3758   23.1190 C   0  0  2  0  0  0
  -20.6808  -26.9436   22.5410 C   0  0  0  0  0  0
  -19.5785  -26.6369   21.5224 C   0  0  0  0  0  0
  -18.1962  -26.7948   22.1616 C   0  0  0  0  0  0
  -19.1595  -28.8908   23.2816 C   0  0  0  0  0  0
  -18.9503  -30.1500   23.8853 C   0  0  0  0  0  0
  -17.6494  -30.6604   24.0560 C   0  0  0  0  0  0
  -25.9112  -34.9336   23.4987 C   0  0  0  0  0  0
  -16.5385  -29.9085   23.6357 C   0  0  0  0  0  0
  -16.7313  -28.6511   23.0370 C   0  0  0  0  0  0
  -26.4564  -31.6534   25.0698 C   0  0  0  0  0  0
  -25.3667  -31.3808   26.1337 C   0  0  0  0  0  0
  -27.0469  -30.2896   24.6470 C   0  0  0  0  0  0
  -27.6051  -32.4355   25.7497 C   0  0  0  0  0  0
  -27.5563  -37.1750   24.8462 C   0  0  0  0  0  0
  -21.4351  -29.3039   22.3529 N   0  0  0  0  0  0
  -26.4271  -37.3684   23.9407 N   0  0  0  0  0  0
  -24.7588  -30.9790   22.0816 N   0  0  0  0  0  0
  -23.4212  -28.7993   23.3043 O   0  0  0  0  0  0
  -28.2226  -25.7518   20.1980 O   0  0  0  0  0  0
  -26.5732  -34.8885   22.4588 O   0  0  0  0  0  0
  -23.5728  -32.1183   23.6702 O   0  0  0  0  0  0
  -29.3932  -19.9458   18.7047 C   0  0  0  0  0  0
  -29.2938  -19.8215   20.1012 C   0  0  0  0  0  0
  -28.8765  -22.4289   18.5984 C   0  0  0  0  0  0
  -28.6543  -22.5779   19.9976 C   0  0  0  0  0  0
  -29.2086  -21.1661   17.9970 C   0  0  0  0  0  0
  -28.8993  -21.2060   20.6997 C   0  0  0  0  0  0
  -28.7124  -23.6570   17.7091 C   0  0  0  0  0  0
  -29.7898  -18.2571   20.7692 C   0  0  0  0  0  0
  -27.9903  -24.1311   20.5553 C   0  0  0  0  0  0
  -29.6290  -16.6111   20.4017 N   0  0  0  0  0  0
  -29.4046  -21.0534   16.2814 Cl  0  0  0  0  0  0
  -28.7021  -21.2218   22.4135 Cl  0  0  0  0  0  0
  -31.4508  -13.0877   19.1731 H   0  0  0  0  0  0
  -30.5319  -11.9709   20.1362 H   0  0  0  0  0  0
  -29.9292  -11.7517   17.7014 H   0  0  0  0  0  0
  -29.5496  -13.4546   17.6250 H   0  0  0  0  0  0
  -28.0629  -11.2758   19.1110 H   0  0  0  0  0  0
  -27.4168  -12.3101   17.8625 H   0  0  0  0  0  0
  -27.5102  -14.2363   19.3048 H   0  0  0  0  0  0
  -28.8376  -12.5513   21.4810 H   0  0  0  0  0  0
  -28.2726  -14.1958   21.6767 H   0  0  0  0  0  0
  -25.2790   -9.5671   22.4769 H   0  0  0  0  0  0
  -24.0001   -7.4641   22.7492 H   0  0  0  0  0  0
  -21.0859   -8.8799   19.8963 H   0  0  0  0  0  0
  -22.3743  -10.9680   19.6173 H   0  0  0  0  0  0
  -21.2018   -7.6156   23.9717 H   0  0  0  0  0  0
  -21.1475   -6.0527   25.9073 H   0  0  0  0  0  0
  -22.0599   -2.7617   23.2832 H   0  0  0  0  0  0
  -22.4035  -11.9837   22.4844 H   0  0  0  0  0  0
  -21.1029  -13.1199   22.2667 H   0  0  0  0  0  0
  -24.6288  -15.8464   20.5351 H   0  0  0  0  0  0
  -26.2371  -15.6420   20.0647 H   0  0  0  0  0  0
  -26.7403  -32.5075   23.0848 H   0  0  0  0  0  0
  -25.0086  -33.9459   25.0151 H   0  0  0  0  0  0
  -22.8013  -31.2610   21.3410 H   0  0  0  0  0  0
  -23.3771  -35.9517   23.3279 H   0  0  0  0  0  0
  -24.3569  -36.8880   22.2071 H   0  0  0  0  0  0
  -23.7251  -37.6363   23.6744 H   0  0  0  0  0  0
  -26.2428  -31.3405   20.6170 H   0  0  0  0  0  0
  -26.9147  -30.6672   22.0610 H   0  0  0  0  0  0
  -28.1645  -28.5569   21.2711 H   0  0  0  0  0  0
  -25.8685  -25.6923   19.0316 H   0  0  0  0  0  0
  -24.0016  -27.2419   18.9701 H   0  0  0  0  0  0
  -23.8907  -30.5044   19.3883 H   0  0  0  0  0  0
  -22.8360  -29.1978   19.8251 H   0  0  0  0  0  0
  -25.1335  -36.1723   25.0779 H   0  0  0  0  0  0
  -21.0050  -28.3369   24.1308 H   0  0  0  0  0  0
  -20.5707  -26.2365   23.3649 H   0  0  0  0  0  0
  -21.6665  -26.7418   22.1206 H   0  0  0  0  0  0
  -19.6951  -25.6266   21.1289 H   0  0  0  0  0  0
  -19.6736  -27.3158   20.6745 H   0  0  0  0  0  0
  -17.4232  -26.6715   21.4009 H   0  0  0  0  0  0
  -18.0344  -26.0093   22.9015 H   0  0  0  0  0  0
  -19.7983  -30.7332   24.2184 H   0  0  0  0  0  0
  -17.5046  -31.6282   24.5166 H   0  0  0  0  0  0
  -15.5386  -30.2972   23.7703 H   0  0  0  0  0  0
  -15.8713  -28.0812   22.7108 H   0  0  0  0  0  0
  -24.5877  -30.7133   25.7630 H   0  0  0  0  0  0
  -24.8826  -32.3016   26.4608 H   0  0  0  0  0  0
  -25.7867  -30.9068   27.0221 H   0  0  0  0  0  0
  -26.3150  -29.6553   24.1456 H   0  0  0  0  0  0
  -27.3964  -29.7281   25.5147 H   0  0  0  0  0  0
  -27.9102  -30.4064   23.9918 H   0  0  0  0  0  0
  -27.2634  -33.3731   26.1894 H   0  0  0  0  0  0
  -28.3946  -32.6792   25.0377 H   0  0  0  0  0  0
  -28.0621  -31.8597   26.5551 H   0  0  0  0  0  0
  -28.2549  -38.0073   24.7500 H   0  0  0  0  0  0
  -28.1085  -36.2593   24.6290 H   0  0  0  0  0  0
  -27.2281  -37.1383   25.8866 H   0  0  0  0  0  0
  -20.9610  -29.8712   21.6637 H   0  0  0  0  0  0
  -26.0112  -38.2736   24.1430 H   0  0  0  0  0  0
  -29.6665  -19.0646   18.1413 H   0  0  0  0  0  0
  -27.6593  -23.8218   17.4828 H   0  0  0  0  0  0
  -29.2542  -23.5803   16.7682 H   0  0  0  0  0  0
  -29.1075  -24.5491   18.1910 H   0  0  0  0  0  0
  -29.4413  -18.3104   21.8011 H   0  0  0  0  0  0
  -30.8700  -18.3725   20.8651 H   0  0  0  0  0  0
  -28.1229  -24.0913   21.6359 H   0  0  0  0  0  0
  -26.9183  -23.9888   20.4251 H   0  0  0  0  0  0
  -28.6490  -16.3823   20.3313 H   0  0  0  0  0  0
  1 25  1  0  0  0
  1 30  2  0  0  0
  1 80  1  0  0  0
  2  3  1  0  0  0
  2 25  1  0  0  0
  2 83  1  0  0  0
  2 84  1  0  0  0
  3  4  1  0  0  0
  3 85  1  0  0  0
  3 86  1  0  0  0
  4  5  1  0  0  0
  4 87  1  0  0  0
  4 88  1  0  0  0
  5  6  1  0  0  0
  5 26  1  0  0  0
  5 89  1  0  0  0
  6 25  1  0  0  0
  6 90  1  0  0  0
  6 91  1  0  0  0
  7  8  2  0  0  0
  7 26  1  0  0  0
  7 29  1  0  0  0
  8  9  1  0  0  0
  8 22  1  0  0  0
  9 10  1  0  0  0
  9 27  2  0  0  0
 10 11  2  0  0  0
 10 15  1  0  0  0
 11 12  1  0  0  0
 11 92  1  0  0  0
 12 13  2  0  0  0
 12 93  1  0  0  0
 13 14  1  0  0  0
 13 31  1  0  0  0
 14 15  2  0  0  0
 14 94  1  0  0  0
 15 95  1  0  0  0
 16 17  2  0  0  0
 16 21  1  0  0  0
 16 31  1  0  0  0
 17 18  1  0  0  0
 17 96  1  0  0  0
 18 19  2  0  0  0
 18 97  1  0  0  0
 19 20  1  0  0  0
 19 24  1  0  0  0
 20 21  2  0  0  0
 20 98  1  0  0  0
 21 23  1  0  0  0
 22 28  1  0  0  0
 22 32  2  0  0  0
 26 27  1  0  0  0
 28 99  1  0  0  0
 28100  1  0  0  0
 29101  1  0  0  0
 29102  1  0  0  0
 33 34  1  0  0  0
 33 66  1  0  0  0
 33 70  2  0  0  0
 34 36  1  0  0  0
 34 59  1  0  0  0
 34103  1  0  0  0
 35 44  2  0  0  0
 35 45  1  0  0  0
 35 68  1  0  0  0
 36 56  1  0  0  0
 36104  1  0  0  0
 37 39  1  0  0  0
 37 47  1  0  0  0
 37 66  1  0  0  0
 37105  1  0  0  0
 38 43  2  0  0  0
 38 46  1  0  0  0
 38 47  1  0  0  0
 39 64  1  0  0  0
 39 67  2  0  0  0
 40 52  1  0  0  0
 40 53  2  0  0  0
 40 58  1  0  0  0
 41106  1  0  0  0
 41107  1  0  0  0
 41108  1  0  0  0
 41 48  1  0  0  0
 42 43  1  0  0  0
 42 66  1  0  0  0
 42109  1  0  0  0
 42110  1  0  0  0
 43 44  1  0  0  0
 44111  1  0  0  0
 45 46  2  0  0  0
 45112  1  0  0  0
 46113  1  0  0  0
 47114  1  0  0  0
 47115  1  0  0  0
 48 56  1  0  0  0
 48 65  1  0  0  0
 48116  1  0  0  0
 49 50  1  0  0  0
 49 53  1  0  0  0
 49 64  1  0  0  0
 49117  1  0  0  0
 50 51  1  0  0  0
 50118  1  0  0  0
 50119  1  0  0  0
 51 52  1  0  0  0
 51120  1  0  0  0
 51121  1  0  0  0
 52122  1  0  0  0
 52123  1  0  0  0
 53 54  1  0  0  0
 54 55  2  0  0  0
 54124  1  0  0  0
 55 57  1  0  0  0
 55125  1  0  0  0
 56 69  2  0  0  0
 57 58  2  0  0  0
 57126  1  0  0  0
 58127  1  0  0  0
 59 60  1  0  0  0
 59 61  1  0  0  0
 59 62  1  0  0  0
 60128  1  0  0  0
 60129  1  0  0  0
 60130  1  0  0  0
 61131  1  0  0  0
 61132  1  0  0  0
 61133  1  0  0  0
 62134  1  0  0  0
 62135  1  0  0  0
 62136  1  0  0  0
 63 65  1  0  0  0
 63137  1  0  0  0
 63138  1  0  0  0
 63139  1  0  0  0
 64140  1  0  0  0
 65141  1  0  0  0
 68 79  1  0  0  0
 71 72  2  0  0  0
 71 75  1  0  0  0
 71142  1  0  0  0
 72 76  1  0  0  0
 72 78  1  0  0  0
 73 74  1  0  0  0
 73 75  2  0  0  0
 73 77  1  0  0  0
 74 76  2  0  0  0
 74 79  1  0  0  0
 75 81  1  0  0  0
 76 82  1  0  0  0
 77143  1  0  0  0
 77144  1  0  0  0
 77145  1  0  0  0
 78 80  1  0  0  0
 78146  1  0  0  0
 78147  1  0  0  0
 79148  1  0  0  0
 79149  1  0  0  0
 80150  1  0  0  0
M  ISO  4   1 100  68 101  79 101  80 100
M  END
> <chiral flag>
0

> <version>
0

> <s_m_source_file>
/data/baiqing/PycharmProjects/Reinvent-master-3.2/result/LINK_invent/BTK/process_docking_weight1_custom_sum_contain_oxygen_bond_distance_aromatic_linkinvent_7_9_3/rearranged_h_0029.sdf

> <i_m_source_file_index>
41

> <r_mmod_Potential_Energy-OPLS-2005>
1410.50390625

> <r_mmod_Stretch_Energy-OPLS-2005>
652.761108398438

> <r_mmod_Bend_Energy-OPLS-2005>
451.785827636719

> <r_mmod_Torsional_Energy-OPLS-2005>
237.928817749023

> <r_mmod_Improper_Torsional_Energy-OPLS-2005>
5.99312210083008

> <r_mmod_Van_der_Waal_Energy-OPLS-2005>
125.068870544434

> <r_mmod_Electrostatic_Energy-OPLS-2005>
-383.690887451172

> <r_mmod_Solvation_Energy-OPLS-2005>
-213.013778686523

> <b_mmod_Minimization_Converged-OPLS-2005>
0

> <r_mmod_RMS_Derivative-OPLS-2005>
1.48291301727295

$$$$
41
                    3D
 Structure written by MMmdl.
163171  0  0  1  0            999 V2000
  -30.7437  -14.4088   20.6073 C   0  0  0  0  0  0
  -30.4029  -12.2832   19.4224 C   0  0  0  0  0  0
  -29.4953  -12.5280   18.1994 C   0  0  0  0  0  0
  -28.0156  -12.3853   18.6122 C   0  0  0  0  0  0
  -27.6592  -13.2205   19.8725 C   0  0  2  0  0  0
  -28.6957  -12.9897   20.9973 C   0  0  0  0  0  0
  -25.2595  -13.8140   20.5692 C   0  0  0  0  0  0
  -24.1830  -13.0381   20.9112 C   0  0  0  0  0  0
  -24.6406  -11.6853   20.8668 C   0  0  0  0  0  0
  -23.9065  -10.4228   21.0376 C   0  0  0  0  0  0
  -24.3608   -9.4143   21.9170 C   0  0  0  0  0  0
  -23.6261   -8.2185   22.0749 C   0  0  0  0  0  0
  -22.4254   -8.0237   21.3536 C   0  0  0  0  0  0
  -21.9890   -9.0198   20.4635 C   0  0  0  0  0  0
  -22.7226  -10.2067   20.3038 C   0  0  0  0  0  0
  -21.6848   -6.0702   22.5260 C   0  0  0  0  0  0
  -21.4016   -6.5618   23.8189 C   0  0  0  0  0  0
  -21.3661   -5.6783   24.9149 C   0  0  0  0  0  0
  -21.6059   -4.3053   24.7217 C   0  0  0  0  0  0
  -21.8811   -3.8124   23.4344 C   0  0  0  0  0  0
  -21.9177   -4.6923   22.3389 C   0  0  0  0  0  0
  -22.7867  -13.5196   21.1750 C   0  0  0  0  0  0
  -22.1668   -4.2117   21.0963 F   0  0  0  0  0  0
  -21.5622   -3.4530   25.7728 F   0  0  0  0  0  0
  -30.0392  -13.2602   20.4519 N   0  0  0  0  0  0
  -26.3025  -12.9341   20.3335 N   0  0  0  0  0  0
  -25.9356  -11.6481   20.5731 N   0  0  0  0  0  0
  -22.0543  -12.8186   22.0337 N   0  0  0  0  0  0
  -25.4348  -15.1812   20.4196 N   0  0  0  0  0  0
  -31.8325  -14.6283   20.0754 O   0  0  0  0  0  0
  -21.6616   -6.8841   21.4229 O   0  0  0  0  0  0
  -22.3541  -14.5502   20.6608 O   0  0  0  0  0  0
  -24.6176  -31.8723   23.2127 C   0  0  0  0  0  0
  -25.9030  -32.4856   23.8455 C   0  0  1  0  0  0
  -27.2390  -27.4607   20.0910 C   0  0  0  0  0  0
  -25.5868  -33.8658   24.2384 N   0  0  0  0  0  0
  -23.4063  -30.5013   21.5525 C   0  0  2  0  0  0
  -24.8462  -28.9606   20.1246 C   0  0  0  0  0  0
  -22.7394  -29.4783   22.4998 C   0  0  0  0  0  0
  -18.0265  -28.1320   22.8533 C   0  0  0  0  0  0
  -24.1460  -36.7341   23.2647 C   0  0  0  0  0  0
  -25.9309  -30.8487   21.3552 C   0  0  0  0  0  0
  -26.0095  -29.4815   20.7044 C   0  0  0  0  0  0
  -27.2123  -28.7424   20.6785 C   0  0  0  0  0  0
  -26.0552  -26.9439   19.5182 C   0  0  0  0  0  0
  -24.8618  -27.6871   19.5334 C   0  0  0  0  0  0
  -23.6081  -29.8261   20.1709 C   0  0  0  0  0  0
  -25.4069  -36.3159   24.0389 C   0  0  1  0  0  0
  -20.5856  -28.3724   23.1151 C   0  0  2  0  0  0
  -20.6876  -26.9567   22.4998 C   0  0  0  0  0  0
  -19.5639  -26.6260   21.5146 C   0  0  0  0  0  0
  -18.1884  -26.7843   22.1677 C   0  0  0  0  0  0
  -19.1502  -28.8827   23.2857 C   0  0  0  0  0  0
  -18.9443  -30.1478   23.8809 C   0  0  0  0  0  0
  -17.6442  -30.6633   24.0469 C   0  0  0  0  0  0
  -25.8985  -34.9496   23.5169 C   0  0  0  0  0  0
  -16.5352  -29.9110   23.6193 C   0  0  0  0  0  0
  -16.7261  -28.6450   23.0356 C   0  0  0  0  0  0
  -26.4454  -31.6619   25.0770 C   0  0  0  0  0  0
  -25.3765  -31.3665   26.1558 C   0  0  0  0  0  0
  -27.0271  -30.3090   24.6065 C   0  0  0  0  0  0
  -27.6055  -32.4329   25.7509 C   0  0  0  0  0  0
  -27.5581  -37.1820   24.8486 C   0  0  0  0  0  0
  -21.4104  -29.3306   22.3780 N   0  0  0  0  0  0
  -26.4284  -37.3839   23.9434 N   0  0  0  0  0  0
  -24.6709  -31.0871   22.0995 N   0  0  0  0  0  0
  -23.4168  -28.8195   23.2943 O   0  0  0  0  0  0
  -28.4166  -26.7483   20.0822 O   0  0  0  0  0  0
  -26.5584  -34.8943   22.4746 O   0  0  0  0  0  0
  -23.5368  -32.1431   23.7536 O   0  0  0  0  0  0
  -28.2217  -17.8865   21.6815 C   0  0  0  0  0  0
  -29.3790  -17.6218   20.9909 C   0  0  0  0  0  0
  -27.8607  -19.1801   19.8556 C   0  0  0  0  0  0
  -28.2816  -18.0792   24.2001 C   0  0  0  0  0  0
  -27.8402  -17.2539   22.9870 C   0  0  0  0  0  0
  -30.4904  -16.7383   21.4481 C   0  0  0  0  0  0
  -27.3360  -23.1353   20.0658 C   0  0  0  0  0  0
  -26.6125  -22.4640   18.8820 C   0  0  0  0  0  0
  -28.1736  -24.3461   19.5988 C   0  0  0  0  0  0
  -26.1470  -21.0202   19.1268 C   0  0  0  0  0  0
  -28.3548  -25.4416   20.6628 C   0  0  0  0  0  0
  -27.3976  -18.8339   21.0594 N   0  0  0  0  0  0
  -27.2463  -20.0751   18.9974 N   0  0  0  0  0  0
  -30.1079  -15.3428   21.3142 N   0  0  0  0  0  0
  -29.3938  -18.4238   19.4407 S   0  0  0  0  0  0
  -31.4617  -12.3215   19.1627 H   0  0  0  0  0  0
  -30.2312  -11.2858   19.8218 H   0  0  0  0  0  0
  -29.7364  -11.8143   17.4091 H   0  0  0  0  0  0
  -29.6769  -13.5209   17.7841 H   0  0  0  0  0  0
  -27.8339  -11.3300   18.8169 H   0  0  0  0  0  0
  -27.3635  -12.6537   17.7791 H   0  0  0  0  0  0
  -27.7028  -14.2724   19.5864 H   0  0  0  0  0  0
  -28.6512  -11.9589   21.3444 H   0  0  0  0  0  0
  -28.4531  -13.5924   21.8777 H   0  0  0  0  0  0
  -25.2750   -9.5570   22.4766 H   0  0  0  0  0  0
  -23.9923   -7.4569   22.7504 H   0  0  0  0  0  0
  -21.0808   -8.8702   19.8980 H   0  0  0  0  0  0
  -22.3676  -10.9582   19.6143 H   0  0  0  0  0  0
  -21.2044   -7.6132   23.9673 H   0  0  0  0  0  0
  -21.1518   -6.0527   25.9053 H   0  0  0  0  0  0
  -22.0603   -2.7582   23.2833 H   0  0  0  0  0  0
  -22.4241  -11.9845   22.4649 H   0  0  0  0  0  0
  -21.1176  -13.1189   22.2639 H   0  0  0  0  0  0
  -24.6755  -15.8421   20.5342 H   0  0  0  0  0  0
  -26.3058  -15.6118   20.1308 H   0  0  0  0  0  0
  -26.7132  -32.5597   23.1269 H   0  0  0  0  0  0
  -25.0033  -33.9821   25.0542 H   0  0  0  0  0  0
  -22.7020  -31.3238   21.4060 H   0  0  0  0  0  0
  -23.3732  -35.9672   23.3327 H   0  0  0  0  0  0
  -24.3564  -36.8913   22.2056 H   0  0  0  0  0  0
  -23.7181  -37.6546   23.6616 H   0  0  0  0  0  0
  -26.0346  -31.6111   20.5821 H   0  0  0  0  0  0
  -26.8236  -30.9128   21.9668 H   0  0  0  0  0  0
  -28.1168  -29.1413   21.1158 H   0  0  0  0  0  0
  -26.0314  -25.9706   19.0534 H   0  0  0  0  0  0
  -23.9644  -27.2746   19.0976 H   0  0  0  0  0  0
  -23.7120  -30.5904   19.4011 H   0  0  0  0  0  0
  -22.7352  -29.2405   19.8819 H   0  0  0  0  0  0
  -25.1221  -36.2075   25.0905 H   0  0  0  0  0  0
  -20.9977  -28.3104   24.1235 H   0  0  0  0  0  0
  -20.6424  -26.2265   23.3096 H   0  0  0  0  0  0
  -21.6582  -26.7964   22.0282 H   0  0  0  0  0  0
  -19.6786  -25.6093   21.1451 H   0  0  0  0  0  0
  -19.6355  -27.2771   20.6428 H   0  0  0  0  0  0
  -17.4112  -26.6628   21.4090 H   0  0  0  0  0  0
  -18.0257  -26.0036   22.9107 H   0  0  0  0  0  0
  -19.7968  -30.7304   24.2085 H   0  0  0  0  0  0
  -17.4974  -31.6371   24.4927 H   0  0  0  0  0  0
  -15.5349  -30.2988   23.7410 H   0  0  0  0  0  0
  -15.8649  -28.0693   22.7210 H   0  0  0  0  0  0
  -24.5966  -30.6971   25.7921 H   0  0  0  0  0  0
  -24.8937  -32.2772   26.5099 H   0  0  0  0  0  0
  -25.8206  -30.8814   27.0261 H   0  0  0  0  0  0
  -26.2771  -29.6890   24.1147 H   0  0  0  0  0  0
  -27.4094  -29.7304   25.4477 H   0  0  0  0  0  0
  -27.8588  -30.4464   23.9163 H   0  0  0  0  0  0
  -27.2695  -33.3619   26.2139 H   0  0  0  0  0  0
  -28.3820  -32.6902   25.0294 H   0  0  0  0  0  0
  -28.0763  -31.8419   26.5373 H   0  0  0  0  0  0
  -28.2623  -38.0096   24.7523 H   0  0  0  0  0  0
  -28.1046  -36.2625   24.6306 H   0  0  0  0  0  0
  -27.2320  -37.1490   25.8902 H   0  0  0  0  0  0
  -20.9247  -29.9359   21.7296 H   0  0  0  0  0  0
  -26.0194  -38.2946   24.1412 H   0  0  0  0  0  0
  -28.1652  -17.5046   25.1193 H   0  0  0  0  0  0
  -27.6850  -18.9866   24.2790 H   0  0  0  0  0  0
  -29.3324  -18.3636   24.1321 H   0  0  0  0  0  0
  -28.2757  -16.2574   23.0632 H   0  0  0  0  0  0
  -26.7630  -17.0898   23.0203 H   0  0  0  0  0  0
  -30.6570  -16.9143   22.5127 H   0  0  0  0  0  0
  -31.4312  -16.9827   20.9492 H   0  0  0  0  0  0
  -27.9762  -22.4273   20.5899 H   0  0  0  0  0  0
  -26.5793  -23.4477   20.7893 H   0  0  0  0  0  0
  -27.2290  -22.4996   17.9835 H   0  0  0  0  0  0
  -25.7449  -23.0796   18.6485 H   0  0  0  0  0  0
  -27.7274  -24.7754   18.7023 H   0  0  0  0  0  0
  -29.1562  -24.0017   19.2718 H   0  0  0  0  0  0
  -25.3911  -20.7628   18.3822 H   0  0  0  0  0  0
  -25.6693  -20.9242   20.1012 H   0  0  0  0  0  0
  -29.2948  -25.2705   21.1911 H   0  0  0  0  0  0
  -27.5720  -25.4042   21.4242 H   0  0  0  0  0  0
  -27.6194  -20.0184   18.0541 H   0  0  0  0  0  0
  -29.2115  -15.0774   21.6868 H   0  0  0  0  0  0
  1 25  1  0  0  0
  1 30  2  0  0  0
  1 84  1  0  0  0
  2  3  1  0  0  0
  2 25  1  0  0  0
  2 86  1  0  0  0
  2 87  1  0  0  0
  3  4  1  0  0  0
  3 88  1  0  0  0
  3 89  1  0  0  0
  4  5  1  0  0  0
  4 90  1  0  0  0
  4 91  1  0  0  0
  5  6  1  0  0  0
  5 26  1  0  0  0
  5 92  1  0  0  0
  6 25  1  0  0  0
  6 93  1  0  0  0
  6 94  1  0  0  0
  7  8  2  0  0  0
  7 26  1  0  0  0
  7 29  1  0  0  0
  8  9  1  0  0  0
  8 22  1  0  0  0
  9 10  1  0  0  0
  9 27  2  0  0  0
 10 11  2  0  0  0
 10 15  1  0  0  0
 11 12  1  0  0  0
 11 95  1  0  0  0
 12 13  2  0  0  0
 12 96  1  0  0  0
 13 14  1  0  0  0
 13 31  1  0  0  0
 14 15  2  0  0  0
 14 97  1  0  0  0
 15 98  1  0  0  0
 16 17  2  0  0  0
 16 21  1  0  0  0
 16 31  1  0  0  0
 17 18  1  0  0  0
 17 99  1  0  0  0
 18 19  2  0  0  0
 18100  1  0  0  0
 19 20  1  0  0  0
 19 24  1  0  0  0
 20 21  2  0  0  0
 20101  1  0  0  0
 21 23  1  0  0  0
 22 28  1  0  0  0
 22 32  2  0  0  0
 26 27  1  0  0  0
 28102  1  0  0  0
 28103  1  0  0  0
 29104  1  0  0  0
 29105  1  0  0  0
 33 34  1  0  0  0
 33 66  1  0  0  0
 33 70  2  0  0  0
 34 36  1  0  0  0
 34 59  1  0  0  0
 34106  1  0  0  0
 35 44  2  0  0  0
 35 45  1  0  0  0
 35 68  1  0  0  0
 36 56  1  0  0  0
 36107  1  0  0  0
 37 39  1  0  0  0
 37 47  1  0  0  0
 37 66  1  0  0  0
 37108  1  0  0  0
 38 43  2  0  0  0
 38 46  1  0  0  0
 38 47  1  0  0  0
 39 64  1  0  0  0
 39 67  2  0  0  0
 40 52  1  0  0  0
 40 53  2  0  0  0
 40 58  1  0  0  0
 41109  1  0  0  0
 41110  1  0  0  0
 41111  1  0  0  0
 41 48  1  0  0  0
 42 43  1  0  0  0
 42 66  1  0  0  0
 42112  1  0  0  0
 42113  1  0  0  0
 43 44  1  0  0  0
 44114  1  0  0  0
 45 46  2  0  0  0
 45115  1  0  0  0
 46116  1  0  0  0
 47117  1  0  0  0
 47118  1  0  0  0
 48 56  1  0  0  0
 48 65  1  0  0  0
 48119  1  0  0  0
 49 50  1  0  0  0
 49 53  1  0  0  0
 49 64  1  0  0  0
 49120  1  0  0  0
 50 51  1  0  0  0
 50121  1  0  0  0
 50122  1  0  0  0
 51 52  1  0  0  0
 51123  1  0  0  0
 51124  1  0  0  0
 52125  1  0  0  0
 52126  1  0  0  0
 53 54  1  0  0  0
 54 55  2  0  0  0
 54127  1  0  0  0
 55 57  1  0  0  0
 55128  1  0  0  0
 56 69  2  0  0  0
 57 58  2  0  0  0
 57129  1  0  0  0
 58130  1  0  0  0
 59 60  1  0  0  0
 59 61  1  0  0  0
 59 62  1  0  0  0
 60131  1  0  0  0
 60132  1  0  0  0
 60133  1  0  0  0
 61134  1  0  0  0
 61135  1  0  0  0
 61136  1  0  0  0
 62137  1  0  0  0
 62138  1  0  0  0
 62139  1  0  0  0
 63 65  1  0  0  0
 63140  1  0  0  0
 63141  1  0  0  0
 63142  1  0  0  0
 64143  1  0  0  0
 65144  1  0  0  0
 68 81  1  0  0  0
 71 72  2  0  0  0
 71 75  1  0  0  0
 71 82  1  0  0  0
 72 76  1  0  0  0
 72 85  1  0  0  0
 73 82  2  0  0  0
 73 83  1  0  0  0
 73 85  1  0  0  0
 74 75  1  0  0  0
 74145  1  0  0  0
 74146  1  0  0  0
 74147  1  0  0  0
 75148  1  0  0  0
 75149  1  0  0  0
 76 84  1  0  0  0
 76150  1  0  0  0
 76151  1  0  0  0
 77 78  1  0  0  0
 77 79  1  0  0  0
 77152  1  0  0  0
 77153  1  0  0  0
 78 80  1  0  0  0
 78154  1  0  0  0
 78155  1  0  0  0
 79 81  1  0  0  0
 79156  1  0  0  0
 79157  1  0  0  0
 80 83  1  0  0  0
 80158  1  0  0  0
 80159  1  0  0  0
 81160  1  0  0  0
 81161  1  0  0  0
 83162  1  0  0  0
 84163  1  0  0  0
M  ISO  4   1 100  68 101  81 101  84 100
M  END
> <chiral flag>
0

> <version>
0

> <s_m_source_file>
/data/baiqing/PycharmProjects/Reinvent-master-3.2/result/LINK_invent/BTK/process_docking_weight1_custom_sum_contain_oxygen_bond_distance_aromatic_linkinvent_7_9_3/rearranged_h_0029.sdf

> <i_m_source_file_index>
42

> <r_mmod_Potential_Energy-OPLS-2005>
-186.056350708008

> <r_mmod_Stretch_Energy-OPLS-2005>
30.1669788360596

> <r_mmod_Bend_Energy-OPLS-2005>
92.6949081420898

> <r_mmod_Torsional_Energy-OPLS-2005>
221.175552368164

> <r_mmod_Improper_Torsional_Energy-OPLS-2005>
2.68749499320984

> <r_mmod_Van_der_Waal_Energy-OPLS-2005>
120.546501159668

> <r_mmod_Electrostatic_Energy-OPLS-2005>
-445.389739990234

> <r_mmod_Solvation_Energy-OPLS-2005>
-216.764755249023

> <b_mmod_Minimization_Converged-OPLS-2005>
0

> <r_mmod_RMS_Derivative-OPLS-2005>
7.52620887756348

$$$$
42
                    3D
 Structure written by MMmdl.
150158  0  0  1  0            999 V2000
  -30.5911  -14.8500   20.4317 C   0  0  0  0  0  0
  -30.4315  -12.5214   19.4942 C   0  0  0  0  0  0
  -29.5195  -12.5215   18.2475 C   0  0  0  0  0  0
  -28.0444  -12.3379   18.6542 C   0  0  0  0  0  0
  -27.6340  -13.2503   19.8419 C   0  0  2  0  0  0
  -28.6761  -13.2354   20.9798 C   0  0  0  0  0  0
  -25.2451  -13.8225   20.5686 C   0  0  0  0  0  0
  -24.1769  -13.0450   20.9220 C   0  0  0  0  0  0
  -24.6404  -11.6941   20.8759 C   0  0  0  0  0  0
  -23.9093  -10.4302   21.0407 C   0  0  0  0  0  0
  -24.3644   -9.4215   21.9185 C   0  0  0  0  0  0
  -23.6307   -8.2250   22.0754 C   0  0  0  0  0  0
  -22.4288   -8.0286   21.3539 C   0  0  0  0  0  0
  -21.9929   -9.0269   20.4644 C   0  0  0  0  0  0
  -22.7262  -10.2148   20.3056 C   0  0  0  0  0  0
  -21.6866   -6.0738   22.5273 C   0  0  0  0  0  0
  -21.4023   -6.5634   23.8210 C   0  0  0  0  0  0
  -21.3666   -5.6783   24.9169 C   0  0  0  0  0  0
  -21.6050   -4.3048   24.7216 C   0  0  0  0  0  0
  -21.8813   -3.8144   23.4334 C   0  0  0  0  0  0
  -21.9191   -4.6962   22.3393 C   0  0  0  0  0  0
  -22.7781  -13.5216   21.1868 C   0  0  0  0  0  0
  -22.1651   -4.2149   21.0967 F   0  0  0  0  0  0
  -21.5637   -3.4525   25.7729 F   0  0  0  0  0  0
  -29.9638  -13.6147   20.3875 N   0  0  0  0  0  0
  -26.2898  -12.9470   20.3236 N   0  0  0  0  0  0
  -25.9336  -11.6603   20.5746 N   0  0  0  0  0  0
  -22.0421  -12.8223   22.0435 N   0  0  0  0  0  0
  -25.4091  -15.1956   20.4115 N   0  0  0  0  0  0
  -31.7904  -14.8992   20.1447 O   0  0  0  0  0  0
  -21.6642   -6.8891   21.4239 O   0  0  0  0  0  0
  -22.3464  -14.5510   20.6692 O   0  0  0  0  0  0
  -24.6370  -31.8486   23.1939 C   0  0  0  0  0  0
  -25.9160  -32.4728   23.8303 C   0  0  1  0  0  0
  -27.2138  -27.1904   20.1485 C   0  0  0  0  0  0
  -25.5925  -33.8533   24.2221 N   0  0  0  0  0  0
  -23.4381  -30.4693   21.5389 C   0  0  2  0  0  0
  -24.8868  -28.9059   20.1097 C   0  0  0  0  0  0
  -22.7535  -29.4554   22.4888 C   0  0  0  0  0  0
  -18.0290  -28.1393   22.8481 C   0  0  0  0  0  0
  -24.1487  -36.7278   23.2643 C   0  0  0  0  0  0
  -25.9889  -30.7416   21.3830 C   0  0  0  0  0  0
  -26.0611  -29.3574   20.7254 C   0  0  0  0  0  0
  -27.2269  -28.5138   20.7291 C   0  0  0  0  0  0
  -26.0160  -26.8255   19.4958 C   0  0  0  0  0  0
  -24.8740  -27.6522   19.4801 C   0  0  0  0  0  0
  -23.6614  -29.8022   20.1560 C   0  0  0  0  0  0
  -25.4120  -36.3064   24.0320 C   0  0  1  0  0  0
  -20.5898  -28.3708   23.1265 C   0  0  2  0  0  0
  -20.6781  -26.9416   22.5423 C   0  0  0  0  0  0
  -19.5759  -26.6377   21.5227 C   0  0  0  0  0  0
  -18.1934  -26.7936   22.1627 C   0  0  0  0  0  0
  -19.1544  -28.8869   23.2863 C   0  0  0  0  0  0
  -18.9459  -30.1469   23.8880 C   0  0  0  0  0  0
  -17.6457  -30.6593   24.0565 C   0  0  0  0  0  0
  -25.9060  -34.9429   23.5080 C   0  0  0  0  0  0
  -16.5350  -29.9087   23.6333 C   0  0  0  0  0  0
  -16.7275  -28.6507   23.0348 C   0  0  0  0  0  0
  -26.4500  -31.6578   25.0721 C   0  0  0  0  0  0
  -25.3692  -31.3747   26.1421 C   0  0  0  0  0  0
  -27.0357  -30.2991   24.6252 C   0  0  0  0  0  0
  -27.6042  -32.4325   25.7500 C   0  0  0  0  0  0
  -27.5579  -37.1796   24.8455 C   0  0  0  0  0  0
  -21.4230  -29.3040   22.3640 N   0  0  0  0  0  0
  -26.4293  -37.3766   23.9401 N   0  0  0  0  0  0
  -24.7075  -31.0391   22.0949 N   0  0  0  0  0  0
  -23.4199  -28.8092   23.3014 O   0  0  0  0  0  0
  -28.2833  -26.2460   20.2252 O   0  0  0  0  0  0
  -26.5646  -34.8905   22.4658 O   0  0  0  0  0  0
  -23.5503  -32.1327   23.7199 O   0  0  0  0  0  0
  -29.2023  -21.1391   21.6365 C   0  0  0  0  0  0
  -29.1919  -21.2008   19.2772 C   0  0  0  0  0  0
  -29.0866  -21.9744   20.4762 C   0  0  0  0  0  0
  -29.6787  -18.9610   20.4131 C   0  0  0  0  0  0
  -29.4879  -19.7191   21.6156 C   0  0  0  0  0  0
  -29.4696  -19.7768   19.2426 C   0  0  0  0  0  0
  -29.1457  -23.6091   20.5602 C   0  0  0  0  0  0
  -30.4112  -17.4909   20.3724 C   0  0  0  0  0  0
  -28.0307  -24.7344   20.1018 C   0  0  0  0  0  0
  -29.8602  -16.0469   20.5731 N   0  0  0  0  0  0
  -29.7164  -18.9299   23.1350 Cl  0  0  0  0  0  0
  -29.6497  -19.0615   17.6798 Cl  0  0  0  0  0  0
  -31.4729  -12.6490   19.1929 H   0  0  0  0  0  0
  -30.3873  -11.5602   20.0088 H   0  0  0  0  0  0
  -29.8217  -11.7286   17.5612 H   0  0  0  0  0  0
  -29.6364  -13.4599   17.7021 H   0  0  0  0  0  0
  -27.9074  -11.2917   18.9274 H   0  0  0  0  0  0
  -27.3927  -12.5164   17.7983 H   0  0  0  0  0  0
  -27.6124  -14.2659   19.4450 H   0  0  0  0  0  0
  -28.7371  -12.2501   21.4438 H   0  0  0  0  0  0
  -28.3950  -13.9318   21.7716 H   0  0  0  0  0  0
  -25.2803   -9.5678   22.4757 H   0  0  0  0  0  0
  -24.0012   -7.4647   22.7478 H   0  0  0  0  0  0
  -21.0858   -8.8808   19.8965 H   0  0  0  0  0  0
  -22.3736  -10.9691   19.6160 H   0  0  0  0  0  0
  -21.2019   -7.6142   23.9714 H   0  0  0  0  0  0
  -21.1497   -6.0510   25.9076 H   0  0  0  0  0  0
  -22.0592   -2.7604   23.2827 H   0  0  0  0  0  0
  -22.4046  -11.9915   22.4873 H   0  0  0  0  0  0
  -21.1026  -13.1245   22.2603 H   0  0  0  0  0  0
  -24.6375  -15.8442   20.5253 H   0  0  0  0  0  0
  -26.2471  -15.6405   20.0612 H   0  0  0  0  0  0
  -26.7225  -32.5353   23.1035 H   0  0  0  0  0  0
  -25.0040  -33.9649   25.0350 H   0  0  0  0  0  0
  -22.7387  -31.2947   21.3906 H   0  0  0  0  0  0
  -23.3757  -35.9599   23.3288 H   0  0  0  0  0  0
  -24.3588  -36.8927   22.2063 H   0  0  0  0  0  0
  -23.7225  -37.6466   23.6686 H   0  0  0  0  0  0
  -26.1314  -31.4968   20.6089 H   0  0  0  0  0  0
  -26.8655  -30.7962   22.0174 H   0  0  0  0  0  0
  -28.1231  -28.8513   21.2309 H   0  0  0  0  0  0
  -25.9302  -25.8661   19.0087 H   0  0  0  0  0  0
  -23.9764  -27.3050   18.9873 H   0  0  0  0  0  0
  -23.7940  -30.5793   19.4023 H   0  0  0  0  0  0
  -22.7765  -29.2434   19.8472 H   0  0  0  0  0  0
  -25.1308  -36.1910   25.0816 H   0  0  0  0  0  0
  -20.9989  -28.3295   24.1389 H   0  0  0  0  0  0
  -20.5693  -26.2309   23.3630 H   0  0  0  0  0  0
  -21.6641  -26.7438   22.1207 H   0  0  0  0  0  0
  -19.6918  -25.6283   21.1266 H   0  0  0  0  0  0
  -19.6708  -27.3181   20.6754 H   0  0  0  0  0  0
  -17.4209  -26.6676   21.4028 H   0  0  0  0  0  0
  -18.0327  -26.0090   22.9032 H   0  0  0  0  0  0
  -19.7930  -30.7294   24.2239 H   0  0  0  0  0  0
  -17.5004  -31.6274   24.5175 H   0  0  0  0  0  0
  -15.5349  -30.2984   23.7668 H   0  0  0  0  0  0
  -15.8671  -28.0834   22.7057 H   0  0  0  0  0  0
  -24.5865  -30.7111   25.7729 H   0  0  0  0  0  0
  -24.8879  -32.2921   26.4820 H   0  0  0  0  0  0
  -25.7968  -30.8925   27.0218 H   0  0  0  0  0  0
  -26.2961  -29.6731   24.1247 H   0  0  0  0  0  0
  -27.3992  -29.7271   25.4798 H   0  0  0  0  0  0
  -27.8852  -30.4260   23.9537 H   0  0  0  0  0  0
  -27.2652  -33.3634   26.2051 H   0  0  0  0  0  0
  -28.3863  -32.6868   25.0337 H   0  0  0  0  0  0
  -28.0693  -31.8466   26.5437 H   0  0  0  0  0  0
  -28.2581  -38.0110   24.7528 H   0  0  0  0  0  0
  -28.1090  -36.2641   24.6252 H   0  0  0  0  0  0
  -27.2294  -37.1408   25.8856 H   0  0  0  0  0  0
  -20.9424  -29.8763   21.6838 H   0  0  0  0  0  0
  -26.0166  -38.2832   24.1428 H   0  0  0  0  0  0
  -29.1615  -21.6177   22.6053 H   0  0  0  0  0  0
  -29.1430  -21.7253   18.3330 H   0  0  0  0  0  0
  -30.0676  -23.8770   20.0447 H   0  0  0  0  0  0
  -29.3585  -23.8291   21.6069 H   0  0  0  0  0  0
  -31.2189  -17.5749   21.1001 H   0  0  0  0  0  0
  -30.9466  -17.4554   19.4238 H   0  0  0  0  0  0
  -27.1191  -24.5144   20.6600 H   0  0  0  0  0  0
  -27.7938  -24.5391   19.0562 H   0  0  0  0  0  0
  -28.8760  -15.9591   20.7701 H   0  0  0  0  0  0
  1 25  1  0  0  0
  1 30  2  0  0  0
  1 80  1  0  0  0
  2  3  1  0  0  0
  2 25  1  0  0  0
  2 83  1  0  0  0
  2 84  1  0  0  0
  3  4  1  0  0  0
  3 85  1  0  0  0
  3 86  1  0  0  0
  4  5  1  0  0  0
  4 87  1  0  0  0
  4 88  1  0  0  0
  5  6  1  0  0  0
  5 26  1  0  0  0
  5 89  1  0  0  0
  6 25  1  0  0  0
  6 90  1  0  0  0
  6 91  1  0  0  0
  7  8  2  0  0  0
  7 26  1  0  0  0
  7 29  1  0  0  0
  8  9  1  0  0  0
  8 22  1  0  0  0
  9 10  1  0  0  0
  9 27  2  0  0  0
 10 11  2  0  0  0
 10 15  1  0  0  0
 11 12  1  0  0  0
 11 92  1  0  0  0
 12 13  2  0  0  0
 12 93  1  0  0  0
 13 14  1  0  0  0
 13 31  1  0  0  0
 14 15  2  0  0  0
 14 94  1  0  0  0
 15 95  1  0  0  0
 16 17  2  0  0  0
 16 21  1  0  0  0
 16 31  1  0  0  0
 17 18  1  0  0  0
 17 96  1  0  0  0
 18 19  2  0  0  0
 18 97  1  0  0  0
 19 20  1  0  0  0
 19 24  1  0  0  0
 20 21  2  0  0  0
 20 98  1  0  0  0
 21 23  1  0  0  0
 22 28  1  0  0  0
 22 32  2  0  0  0
 26 27  1  0  0  0
 28 99  1  0  0  0
 28100  1  0  0  0
 29101  1  0  0  0
 29102  1  0  0  0
 33 34  1  0  0  0
 33 66  1  0  0  0
 33 70  2  0  0  0
 34 36  1  0  0  0
 34 59  1  0  0  0
 34103  1  0  0  0
 35 44  2  0  0  0
 35 45  1  0  0  0
 35 68  1  0  0  0
 36 56  1  0  0  0
 36104  1  0  0  0
 37 39  1  0  0  0
 37 47  1  0  0  0
 37 66  1  0  0  0
 37105  1  0  0  0
 38 43  2  0  0  0
 38 46  1  0  0  0
 38 47  1  0  0  0
 39 64  1  0  0  0
 39 67  2  0  0  0
 40 52  1  0  0  0
 40 53  2  0  0  0
 40 58  1  0  0  0
 41106  1  0  0  0
 41107  1  0  0  0
 41108  1  0  0  0
 41 48  1  0  0  0
 42 43  1  0  0  0
 42 66  1  0  0  0
 42109  1  0  0  0
 42110  1  0  0  0
 43 44  1  0  0  0
 44111  1  0  0  0
 45 46  2  0  0  0
 45112  1  0  0  0
 46113  1  0  0  0
 47114  1  0  0  0
 47115  1  0  0  0
 48 56  1  0  0  0
 48 65  1  0  0  0
 48116  1  0  0  0
 49 50  1  0  0  0
 49 53  1  0  0  0
 49 64  1  0  0  0
 49117  1  0  0  0
 50 51  1  0  0  0
 50118  1  0  0  0
 50119  1  0  0  0
 51 52  1  0  0  0
 51120  1  0  0  0
 51121  1  0  0  0
 52122  1  0  0  0
 52123  1  0  0  0
 53 54  1  0  0  0
 54 55  2  0  0  0
 54124  1  0  0  0
 55 57  1  0  0  0
 55125  1  0  0  0
 56 69  2  0  0  0
 57 58  2  0  0  0
 57126  1  0  0  0
 58127  1  0  0  0
 59 60  1  0  0  0
 59 61  1  0  0  0
 59 62  1  0  0  0
 60128  1  0  0  0
 60129  1  0  0  0
 60130  1  0  0  0
 61131  1  0  0  0
 61132  1  0  0  0
 61133  1  0  0  0
 62134  1  0  0  0
 62135  1  0  0  0
 62136  1  0  0  0
 63 65  1  0  0  0
 63137  1  0  0  0
 63138  1  0  0  0
 63139  1  0  0  0
 64140  1  0  0  0
 65141  1  0  0  0
 68 79  1  0  0  0
 71 73  2  0  0  0
 71 75  1  0  0  0
 71142  1  0  0  0
 72 73  1  0  0  0
 72 76  2  0  0  0
 72143  1  0  0  0
 73 77  1  0  0  0
 74 75  2  0  0  0
 74 76  1  0  0  0
 74 78  1  0  0  0
 75 81  1  0  0  0
 76 82  1  0  0  0
 77 79  1  0  0  0
 77144  1  0  0  0
 77145  1  0  0  0
 78 80  1  0  0  0
 78146  1  0  0  0
 78147  1  0  0  0
 79148  1  0  0  0
 79149  1  0  0  0
 80150  1  0  0  0
M  ISO  4   1 100  68 101  79 101  80 100
M  END
> <chiral flag>
0

> <version>
0

> <s_m_source_file>
/data/baiqing/PycharmProjects/Reinvent-master-3.2/result/LINK_invent/BTK/process_docking_weight1_custom_sum_contain_oxygen_bond_distance_aromatic_linkinvent_7_9_3/rearranged_h_0029.sdf

> <i_m_source_file_index>
43

> <r_mmod_Potential_Energy-OPLS-2005>
350.174652099609

> <r_mmod_Stretch_Energy-OPLS-2005>
182.834915161133

> <r_mmod_Bend_Energy-OPLS-2005>
229.239868164062

> <r_mmod_Torsional_Energy-OPLS-2005>
224.670303344727

> <r_mmod_Improper_Torsional_Energy-OPLS-2005>
9.78382587432861

> <r_mmod_Van_der_Waal_Energy-OPLS-2005>
133.140899658203

> <r_mmod_Electrostatic_Energy-OPLS-2005>
-362.283416748047

> <r_mmod_Solvation_Energy-OPLS-2005>
-204.640426635742

> <b_mmod_Minimization_Converged-OPLS-2005>
0

> <r_mmod_RMS_Derivative-OPLS-2005>
1.88802683353424

$$$$
43
                    3D
 Structure written by MMmdl.
156164  0  0  1  0            999 V2000
  -30.6406  -14.6768   20.4445 C   0  0  0  0  0  0
  -30.4298  -12.4105   19.4536 C   0  0  0  0  0  0
  -29.5022  -12.4958   18.2216 C   0  0  0  0  0  0
  -28.0253  -12.3424   18.6371 C   0  0  0  0  0  0
  -27.6455  -13.2337   19.8501 C   0  0  2  0  0  0
  -28.6943  -13.1364   20.9817 C   0  0  0  0  0  0
  -25.2552  -13.8272   20.5750 C   0  0  0  0  0  0
  -24.1815  -13.0485   20.9214 C   0  0  0  0  0  0
  -24.6401  -11.6980   20.8720 C   0  0  0  0  0  0
  -23.9083  -10.4329   21.0356 C   0  0  0  0  0  0
  -24.3638   -9.4254   21.9136 C   0  0  0  0  0  0
  -23.6327   -8.2280   22.0720 C   0  0  0  0  0  0
  -22.4300   -8.0302   21.3538 C   0  0  0  0  0  0
  -21.9932   -9.0268   20.4624 C   0  0  0  0  0  0
  -22.7258  -10.2158   20.3015 C   0  0  0  0  0  0
  -21.6866   -6.0741   22.5288 C   0  0  0  0  0  0
  -21.4013   -6.5633   23.8225 C   0  0  0  0  0  0
  -21.3667   -5.6788   24.9183 C   0  0  0  0  0  0
  -21.6056   -4.3051   24.7231 C   0  0  0  0  0  0
  -21.8829   -3.8146   23.4351 C   0  0  0  0  0  0
  -21.9210   -4.6964   22.3414 C   0  0  0  0  0  0
  -22.7857  -13.5262   21.1905 C   0  0  0  0  0  0
  -22.1700   -4.2165   21.0989 F   0  0  0  0  0  0
  -21.5613   -3.4524   25.7733 F   0  0  0  0  0  0
  -30.0020  -13.4635   20.3984 N   0  0  0  0  0  0
  -26.2961  -12.9467   20.3306 N   0  0  0  0  0  0
  -25.9323  -11.6605   20.5730 N   0  0  0  0  0  0
  -22.0525  -12.8177   22.0428 N   0  0  0  0  0  0
  -25.4243  -15.2001   20.4316 N   0  0  0  0  0  0
  -31.8273  -14.7782   20.1268 O   0  0  0  0  0  0
  -21.6679   -6.8891   21.4244 O   0  0  0  0  0  0
  -22.3512  -14.5569   20.6798 O   0  0  0  0  0  0
  -24.6301  -31.8502   23.1935 C   0  0  0  0  0  0
  -25.9149  -32.4699   23.8270 C   0  0  1  0  0  0
  -27.2442  -27.2917   20.1071 C   0  0  0  0  0  0
  -25.5954  -33.8506   24.2181 N   0  0  0  0  0  0
  -23.4218  -30.4752   21.5305 C   0  0  2  0  0  0
  -24.8688  -28.9066   20.1079 C   0  0  0  0  0  0
  -22.7365  -29.4668   22.4817 C   0  0  0  0  0  0
  -18.0285  -28.1377   22.8438 C   0  0  0  0  0  0
  -24.1511  -36.7290   23.2645 C   0  0  0  0  0  0
  -25.9631  -30.7649   21.3677 C   0  0  0  0  0  0
  -26.0344  -29.3898   20.7138 C   0  0  0  0  0  0
  -27.2165  -28.5922   20.7044 C   0  0  0  0  0  0
  -26.0526  -26.8506   19.4891 C   0  0  0  0  0  0
  -24.8807  -27.6409   19.4919 C   0  0  0  0  0  0
  -23.6371  -29.7929   20.1523 C   0  0  0  0  0  0
  -25.4126  -36.3020   24.0314 C   0  0  1  0  0  0
  -20.5855  -28.3763   23.1183 C   0  0  2  0  0  0
  -20.6733  -26.9452   22.5412 C   0  0  0  0  0  0
  -19.5764  -26.6373   21.5178 C   0  0  0  0  0  0
  -18.1953  -26.7934   22.1543 C   0  0  0  0  0  0
  -19.1525  -28.8886   23.2816 C   0  0  0  0  0  0
  -18.9435  -30.1447   23.8898 C   0  0  0  0  0  0
  -17.6434  -30.6543   24.0560 C   0  0  0  0  0  0
  -25.9066  -34.9403   23.5036 C   0  0  0  0  0  0
  -16.5349  -29.9055   23.6252 C   0  0  0  0  0  0
  -16.7278  -28.6466   23.0292 C   0  0  0  0  0  0
  -26.4512  -31.6547   25.0671 C   0  0  0  0  0  0
  -25.3732  -31.3738   26.1393 C   0  0  0  0  0  0
  -27.0355  -30.2969   24.6136 C   0  0  0  0  0  0
  -27.6040  -32.4302   25.7473 C   0  0  0  0  0  0
  -27.5563  -37.1809   24.8466 C   0  0  0  0  0  0
  -21.4087  -29.3052   22.3461 N   0  0  0  0  0  0
  -26.4279  -37.3725   23.9406 N   0  0  0  0  0  0
  -24.6908  -31.0475   22.0896 N   0  0  0  0  0  0
  -23.4015  -28.8265   23.3006 O   0  0  0  0  0  0
  -28.4038  -26.4968   20.1791 O   0  0  0  0  0  0
  -26.5630  -34.8920   22.4604 O   0  0  0  0  0  0
  -23.5472  -32.1336   23.7266 O   0  0  0  0  0  0
  -29.5118  -19.8186   20.2351 C   0  0  0  0  0  0
  -28.0178  -18.1603   21.1865 C   0  0  0  0  0  0
  -29.2621  -18.4332   20.5965 C   0  0  0  0  0  0
  -28.5677  -20.9046   20.4423 C   0  0  0  0  0  0
  -27.3396  -20.5327   21.0639 C   0  0  0  0  0  0
  -27.0803  -19.1774   21.4197 C   0  0  0  0  0  0
  -26.2650  -21.5713   21.3126 C   0  0  0  0  0  0
  -28.8197  -22.3726   19.8436 C   0  0  0  0  0  0
  -30.2937  -17.2513   20.4044 C   0  0  0  0  0  0
  -28.3425  -23.7991   20.4856 C   0  0  0  0  0  0
  -28.5524  -25.1324   19.6047 C   0  0  0  0  0  0
  -29.8726  -15.8060   20.6219 N   0  0  0  0  0  0
  -25.5831  -18.6828   22.1352 Cl  0  0  0  0  0  0
  -31.4696  -12.5257   19.1422 H   0  0  0  0  0  0
  -30.3662  -11.4285   19.9255 H   0  0  0  0  0  0
  -29.7642  -11.7201   17.5019 H   0  0  0  0  0  0
  -29.6447  -13.4496   17.7108 H   0  0  0  0  0  0
  -27.8629  -11.2911   18.8820 H   0  0  0  0  0  0
  -27.3704  -12.5579   17.7929 H   0  0  0  0  0  0
  -27.6455  -14.2616   19.4881 H   0  0  0  0  0  0
  -28.7102  -12.1338   21.4131 H   0  0  0  0  0  0
  -28.4453  -13.8174   21.7970 H   0  0  0  0  0  0
  -25.2769   -9.5759   22.4721 H   0  0  0  0  0  0
  -24.0046   -7.4688   22.7437 H   0  0  0  0  0  0
  -21.0865   -8.8796   19.8933 H   0  0  0  0  0  0
  -22.3706  -10.9693   19.6132 H   0  0  0  0  0  0
  -21.1999   -7.6141   23.9729 H   0  0  0  0  0  0
  -21.1474   -6.0511   25.9095 H   0  0  0  0  0  0
  -22.0593   -2.7602   23.2861 H   0  0  0  0  0  0
  -22.4163  -11.9834   22.4776 H   0  0  0  0  0  0
  -21.1124  -13.1135   22.2603 H   0  0  0  0  0  0
  -24.6758  -15.8537   20.6303 H   0  0  0  0  0  0
  -26.2713  -15.6600   20.1223 H   0  0  0  0  0  0
  -26.7175  -32.5303   23.0962 H   0  0  0  0  0  0
  -25.0112  -33.9629   25.0331 H   0  0  0  0  0  0
  -22.7279  -31.3043   21.3782 H   0  0  0  0  0  0
  -23.3719  -35.9670   23.3289 H   0  0  0  0  0  0
  -24.3614  -36.8919   22.2060 H   0  0  0  0  0  0
  -23.7330  -37.6526   23.6678 H   0  0  0  0  0  0
  -26.0970  -31.5142   20.5888 H   0  0  0  0  0  0
  -26.8477  -30.8158   21.9886 H   0  0  0  0  0  0
  -28.1124  -28.9571   21.1873 H   0  0  0  0  0  0
  -26.0000  -25.8773   19.0218 H   0  0  0  0  0  0
  -23.9875  -27.2556   19.0196 H   0  0  0  0  0  0
  -23.7596  -30.5650   19.3920 H   0  0  0  0  0  0
  -22.7533  -29.2248   19.8551 H   0  0  0  0  0  0
  -25.1310  -36.1816   25.0796 H   0  0  0  0  0  0
  -20.9955  -28.3428   24.1296 H   0  0  0  0  0  0
  -20.5584  -26.2435   23.3692 H   0  0  0  0  0  0
  -21.6596  -26.7435   22.1255 H   0  0  0  0  0  0
  -19.6881  -25.6242   21.1246 H   0  0  0  0  0  0
  -19.6713  -27.3123   20.6673 H   0  0  0  0  0  0
  -17.4230  -26.6686   21.3943 H   0  0  0  0  0  0
  -18.0340  -26.0036   22.8908 H   0  0  0  0  0  0
  -19.7883  -30.7260   24.2274 H   0  0  0  0  0  0
  -17.4965  -31.6200   24.5180 H   0  0  0  0  0  0
  -15.5325  -30.2912   23.7508 H   0  0  0  0  0  0
  -15.8697  -28.0794   22.6966 H   0  0  0  0  0  0
  -24.5887  -30.7081   25.7759 H   0  0  0  0  0  0
  -24.8939  -32.2935   26.4779 H   0  0  0  0  0  0
  -25.8053  -30.8958   27.0191 H   0  0  0  0  0  0
  -26.2930  -29.6702   24.1158 H   0  0  0  0  0  0
  -27.4072  -29.7231   25.4637 H   0  0  0  0  0  0
  -27.8791  -30.4267   23.9343 H   0  0  0  0  0  0
  -27.2608  -33.3587   26.2063 H   0  0  0  0  0  0
  -28.3886  -32.6884   25.0341 H   0  0  0  0  0  0
  -28.0669  -31.8413   26.5403 H   0  0  0  0  0  0
  -28.2579  -38.0103   24.7456 H   0  0  0  0  0  0
  -28.1065  -36.2631   24.6327 H   0  0  0  0  0  0
  -27.2313  -37.1490   25.8883 H   0  0  0  0  0  0
  -20.9268  -29.8407   21.6362 H   0  0  0  0  0  0
  -26.0127  -38.2798   24.1337 H   0  0  0  0  0  0
  -30.4600  -20.0416   19.7615 H   0  0  0  0  0  0
  -27.7530  -17.1568   21.4782 H   0  0  0  0  0  0
  -25.3084  -21.1668   21.6298 H   0  0  0  0  0  0
  -26.0693  -22.1130   20.3876 H   0  0  0  0  0  0
  -26.5972  -22.2554   22.0936 H   0  0  0  0  0  0
  -28.3923  -22.3305   18.8413 H   0  0  0  0  0  0
  -29.8958  -22.4382   19.6649 H   0  0  0  0  0  0
  -30.7256  -17.3379   19.4056 H   0  0  0  0  0  0
  -31.1237  -17.4453   21.0846 H   0  0  0  0  0  0
  -28.8418  -23.9298   21.4446 H   0  0  0  0  0  0
  -27.2824  -23.8209   20.7253 H   0  0  0  0  0  0
  -27.9926  -25.0581   18.6749 H   0  0  0  0  0  0
  -29.5938  -25.1009   19.2766 H   0  0  0  0  0  0
  -28.9005  -15.6408   20.8304 H   0  0  0  0  0  0
  1 25  1  0  0  0
  1 30  2  0  0  0
  1 82  1  0  0  0
  2  3  1  0  0  0
  2 25  1  0  0  0
  2 84  1  0  0  0
  2 85  1  0  0  0
  3  4  1  0  0  0
  3 86  1  0  0  0
  3 87  1  0  0  0
  4  5  1  0  0  0
  4 88  1  0  0  0
  4 89  1  0  0  0
  5  6  1  0  0  0
  5 26  1  0  0  0
  5 90  1  0  0  0
  6 25  1  0  0  0
  6 91  1  0  0  0
  6 92  1  0  0  0
  7  8  2  0  0  0
  7 26  1  0  0  0
  7 29  1  0  0  0
  8  9  1  0  0  0
  8 22  1  0  0  0
  9 10  1  0  0  0
  9 27  2  0  0  0
 10 11  2  0  0  0
 10 15  1  0  0  0
 11 12  1  0  0  0
 11 93  1  0  0  0
 12 13  2  0  0  0
 12 94  1  0  0  0
 13 14  1  0  0  0
 13 31  1  0  0  0
 14 15  2  0  0  0
 14 95  1  0  0  0
 15 96  1  0  0  0
 16 17  2  0  0  0
 16 21  1  0  0  0
 16 31  1  0  0  0
 17 18  1  0  0  0
 17 97  1  0  0  0
 18 19  2  0  0  0
 18 98  1  0  0  0
 19 20  1  0  0  0
 19 24  1  0  0  0
 20 21  2  0  0  0
 20 99  1  0  0  0
 21 23  1  0  0  0
 22 28  1  0  0  0
 22 32  2  0  0  0
 26 27  1  0  0  0
 28100  1  0  0  0
 28101  1  0  0  0
 29102  1  0  0  0
 29103  1  0  0  0
 33 34  1  0  0  0
 33 66  1  0  0  0
 33 70  2  0  0  0
 34 36  1  0  0  0
 34 59  1  0  0  0
 34104  1  0  0  0
 35 44  2  0  0  0
 35 45  1  0  0  0
 35 68  1  0  0  0
 36 56  1  0  0  0
 36105  1  0  0  0
 37 39  1  0  0  0
 37 47  1  0  0  0
 37 66  1  0  0  0
 37106  1  0  0  0
 38 43  2  0  0  0
 38 46  1  0  0  0
 38 47  1  0  0  0
 39 64  1  0  0  0
 39 67  2  0  0  0
 40 52  1  0  0  0
 40 53  2  0  0  0
 40 58  1  0  0  0
 41107  1  0  0  0
 41108  1  0  0  0
 41109  1  0  0  0
 41 48  1  0  0  0
 42 43  1  0  0  0
 42 66  1  0  0  0
 42110  1  0  0  0
 42111  1  0  0  0
 43 44  1  0  0  0
 44112  1  0  0  0
 45 46  2  0  0  0
 45113  1  0  0  0
 46114  1  0  0  0
 47115  1  0  0  0
 47116  1  0  0  0
 48 56  1  0  0  0
 48 65  1  0  0  0
 48117  1  0  0  0
 49 50  1  0  0  0
 49 53  1  0  0  0
 49 64  1  0  0  0
 49118  1  0  0  0
 50 51  1  0  0  0
 50119  1  0  0  0
 50120  1  0  0  0
 51 52  1  0  0  0
 51121  1  0  0  0
 51122  1  0  0  0
 52123  1  0  0  0
 52124  1  0  0  0
 53 54  1  0  0  0
 54 55  2  0  0  0
 54125  1  0  0  0
 55 57  1  0  0  0
 55126  1  0  0  0
 56 69  2  0  0  0
 57 58  2  0  0  0
 57127  1  0  0  0
 58128  1  0  0  0
 59 60  1  0  0  0
 59 61  1  0  0  0
 59 62  1  0  0  0
 60129  1  0  0  0
 60130  1  0  0  0
 60131  1  0  0  0
 61132  1  0  0  0
 61133  1  0  0  0
 61134  1  0  0  0
 62135  1  0  0  0
 62136  1  0  0  0
 62137  1  0  0  0
 63 65  1  0  0  0
 63138  1  0  0  0
 63139  1  0  0  0
 63140  1  0  0  0
 64141  1  0  0  0
 65142  1  0  0  0
 68 81  1  0  0  0
 71 73  2  0  0  0
 71 74  1  0  0  0
 71143  1  0  0  0
 72 73  1  0  0  0
 72 76  2  0  0  0
 72144  1  0  0  0
 73 79  1  0  0  0
 74 75  2  0  0  0
 74 78  1  0  0  0
 75 76  1  0  0  0
 75 77  1  0  0  0
 76 83  1  0  0  0
 77145  1  0  0  0
 77146  1  0  0  0
 77147  1  0  0  0
 78 80  1  0  0  0
 78148  1  0  0  0
 78149  1  0  0  0
 79 82  1  0  0  0
 79150  1  0  0  0
 79151  1  0  0  0
 80 81  1  0  0  0
 80152  1  0  0  0
 80153  1  0  0  0
 81154  1  0  0  0
 81155  1  0  0  0
 82156  1  0  0  0
M  ISO  4   1 100  68 101  81 101  82 100
M  END
> <chiral flag>
0

> <version>
0

> <s_m_source_file>
/data/baiqing/PycharmProjects/Reinvent-master-3.2/result/LINK_invent/BTK/process_docking_weight1_custom_sum_contain_oxygen_bond_distance_aromatic_linkinvent_7_9_3/rearranged_h_0029.sdf

> <i_m_source_file_index>
44

> <r_mmod_Potential_Energy-OPLS-2005>
66.3555145263672

> <r_mmod_Stretch_Energy-OPLS-2005>
110.871643066406

> <r_mmod_Bend_Energy-OPLS-2005>
172.567749023438

> <r_mmod_Torsional_Energy-OPLS-2005>
193.797729492188

> <r_mmod_Improper_Torsional_Energy-OPLS-2005>
5.85963201522827

> <r_mmod_Van_der_Waal_Energy-OPLS-2005>
141.698104858398

> <r_mmod_Electrostatic_Energy-OPLS-2005>
-416.227325439453

> <r_mmod_Solvation_Energy-OPLS-2005>
-203.385772705078

> <b_mmod_Minimization_Converged-OPLS-2005>
0

> <r_mmod_RMS_Derivative-OPLS-2005>
6.05232954025269

$$$$
44
                    3D
 Structure written by MMmdl.
162170  0  0  1  0            999 V2000
  -30.6478  -14.5206   20.4993 C   0  0  0  0  0  0
  -30.4243  -12.3179   19.4284 C   0  0  0  0  0  0
  -29.4959  -12.4917   18.2072 C   0  0  0  0  0  0
  -28.0148  -12.3575   18.6177 C   0  0  0  0  0  0
  -27.6546  -13.2065   19.8666 C   0  0  2  0  0  0
  -28.6967  -13.0108   20.9905 C   0  0  0  0  0  0
  -25.2550  -13.8132   20.5617 C   0  0  0  0  0  0
  -24.1838  -13.0426   20.9192 C   0  0  0  0  0  0
  -24.6400  -11.6890   20.8764 C   0  0  0  0  0  0
  -23.9076  -10.4285   21.0433 C   0  0  0  0  0  0
  -24.3627   -9.4193   21.9201 C   0  0  0  0  0  0
  -23.6299   -8.2232   22.0763 C   0  0  0  0  0  0
  -22.4281   -8.0288   21.3552 C   0  0  0  0  0  0
  -21.9924   -9.0259   20.4649 C   0  0  0  0  0  0
  -22.7258  -10.2136   20.3067 C   0  0  0  0  0  0
  -21.6844   -6.0746   22.5279 C   0  0  0  0  0  0
  -21.4008   -6.5644   23.8216 C   0  0  0  0  0  0
  -21.3654   -5.6791   24.9178 C   0  0  0  0  0  0
  -21.6041   -4.3054   24.7221 C   0  0  0  0  0  0
  -21.8824   -3.8153   23.4340 C   0  0  0  0  0  0
  -21.9194   -4.6975   22.3398 C   0  0  0  0  0  0
  -22.7860  -13.5225   21.1839 C   0  0  0  0  0  0
  -22.1663   -4.2160   21.0977 F   0  0  0  0  0  0
  -21.5629   -3.4536   25.7735 F   0  0  0  0  0  0
  -30.0190  -13.3177   20.4301 N   0  0  0  0  0  0
  -26.2989  -12.9312   20.3315 N   0  0  0  0  0  0
  -25.9322  -11.6474   20.5772 N   0  0  0  0  0  0
  -22.0491  -12.8234   22.0393 N   0  0  0  0  0  0
  -25.4201  -15.1842   20.3885 N   0  0  0  0  0  0
  -31.8287  -14.6454   20.1664 O   0  0  0  0  0  0
  -21.6637   -6.8895   21.4245 O   0  0  0  0  0  0
  -22.3565  -14.5534   20.6676 O   0  0  0  0  0  0
  -24.6108  -31.8672   23.2051 C   0  0  0  0  0  0
  -25.9003  -32.4808   23.8348 C   0  0  1  0  0  0
  -27.2316  -27.4010   20.1080 C   0  0  0  0  0  0
  -25.5810  -33.8599   24.2262 N   0  0  0  0  0  0
  -23.4016  -30.4900   21.5440 C   0  0  2  0  0  0
  -24.8516  -28.9521   20.1076 C   0  0  0  0  0  0
  -22.7414  -29.4664   22.4942 C   0  0  0  0  0  0
  -18.0289  -28.1397   22.8507 C   0  0  0  0  0  0
  -24.1485  -36.7326   23.2639 C   0  0  0  0  0  0
  -25.9336  -30.8197   21.3702 C   0  0  0  0  0  0
  -26.0074  -29.4517   20.7151 C   0  0  0  0  0  0
  -27.1947  -28.6804   20.7183 C   0  0  0  0  0  0
  -26.0558  -26.9237   19.4866 C   0  0  0  0  0  0
  -24.8722  -27.6902   19.4854 C   0  0  0  0  0  0
  -23.6143  -29.8222   20.1574 C   0  0  0  0  0  0
  -25.4108  -36.3105   24.0318 C   0  0  1  0  0  0
  -20.5877  -28.3687   23.1317 C   0  0  2  0  0  0
  -20.6779  -26.9414   22.5428 C   0  0  0  0  0  0
  -19.5757  -26.6415   21.5219 C   0  0  0  0  0  0
  -18.1940  -26.7958   22.1637 C   0  0  0  0  0  0
  -19.1535  -28.8859   23.2919 C   0  0  0  0  0  0
  -18.9455  -30.1461   23.8928 C   0  0  0  0  0  0
  -17.6458  -30.6604   24.0584 C   0  0  0  0  0  0
  -25.9038  -34.9469   23.5121 C   0  0  0  0  0  0
  -16.5350  -29.9113   23.6313 C   0  0  0  0  0  0
  -16.7276  -28.6529   23.0330 C   0  0  0  0  0  0
  -26.4408  -31.6594   25.0696 C   0  0  0  0  0  0
  -25.3596  -31.3705   26.1386 C   0  0  0  0  0  0
  -27.0240  -30.3012   24.6117 C   0  0  0  0  0  0
  -27.6012  -32.4280   25.7445 C   0  0  0  0  0  0
  -27.5592  -37.1801   24.8449 C   0  0  0  0  0  0
  -21.4143  -29.3046   22.3699 N   0  0  0  0  0  0
  -26.4309  -37.3772   23.9378 N   0  0  0  0  0  0
  -24.6655  -31.0759   22.0958 N   0  0  0  0  0  0
  -23.4199  -28.8199   23.2968 O   0  0  0  0  0  0
  -28.4114  -26.6753   20.1684 O   0  0  0  0  0  0
  -26.5678  -34.8931   22.4733 O   0  0  0  0  0  0
  -23.5292  -32.1438   23.7427 O   0  0  0  0  0  0
  -30.3453  -19.7650   19.9212 C   0  0  0  0  0  0
  -31.1194  -17.4697   19.7620 C   0  0  0  0  0  0
  -31.3072  -18.8332   19.4941 C   0  0  0  0  0  0
  -29.1777  -19.3560   20.5993 C   0  0  0  0  0  0
  -29.0072  -17.9527   20.8823 C   0  0  0  0  0  0
  -29.9966  -16.9927   20.4795 C   0  0  0  0  0  0
  -27.7601  -17.4822   21.6286 C   0  0  0  0  0  0
  -28.1822  -20.4544   21.0719 C   0  0  0  0  0  0
  -27.9920  -24.1389   20.3168 C   0  0  0  0  0  0
  -28.7375  -22.7791   20.0533 C   0  0  0  0  0  0
  -28.5626  -25.3772   19.5482 C   0  0  0  0  0  0
  -32.5523  -19.2670   18.7380 C   0  0  0  0  0  0
  -29.8373  -15.5803   20.7725 N   0  0  0  0  0  0
  -27.8553  -21.5704   20.1280 N   0  3  0  0  0  0
  -32.6842  -20.5936   18.7132 F   0  0  0  0  0  0
  -33.6379  -18.7487   19.3139 F   0  0  0  0  0  0
  -32.4814  -18.8225   17.4836 F   0  0  0  0  0  0
  -31.4677  -12.4245   19.1245 H   0  0  0  0  0  0
  -30.3365  -11.3118   19.8393 H   0  0  0  0  0  0
  -29.7360  -11.7535   17.4408 H   0  0  0  0  0  0
  -29.6639  -13.4693   17.7526 H   0  0  0  0  0  0
  -27.8208  -11.3027   18.8161 H   0  0  0  0  0  0
  -27.3696  -12.6295   17.7817 H   0  0  0  0  0  0
  -27.6883  -14.2493   19.5523 H   0  0  0  0  0  0
  -28.6809  -11.9812   21.3505 H   0  0  0  0  0  0
  -28.4680  -13.6315   21.8586 H   0  0  0  0  0  0
  -25.2772   -9.5658   22.4774 H   0  0  0  0  0  0
  -23.9996   -7.4625   22.7484 H   0  0  0  0  0  0
  -21.0854   -8.8795   19.8953 H   0  0  0  0  0  0
  -22.3736  -10.9683   19.6178 H   0  0  0  0  0  0
  -21.1998   -7.6151   23.9725 H   0  0  0  0  0  0
  -21.1466   -6.0519   25.9081 H   0  0  0  0  0  0
  -22.0608   -2.7613   23.2836 H   0  0  0  0  0  0
  -22.4093  -11.9890   22.4780 H   0  0  0  0  0  0
  -21.1105  -13.1268   22.2575 H   0  0  0  0  0  0
  -24.6263  -15.8131   20.4466 H   0  0  0  0  0  0
  -26.2280  -15.6028   19.9472 H   0  0  0  0  0  0
  -26.7074  -32.5524   23.1117 H   0  0  0  0  0  0
  -24.9725  -33.9721   25.0236 H   0  0  0  0  0  0
  -22.6914  -31.3064   21.4023 H   0  0  0  0  0  0
  -23.3743  -35.9668   23.3293 H   0  0  0  0  0  0
  -24.3572  -36.8966   22.2059 H   0  0  0  0  0  0
  -23.7258  -37.6520   23.6697 H   0  0  0  0  0  0
  -26.0621  -31.5886   20.6075 H   0  0  0  0  0  0
  -26.8111  -30.8620   22.0026 H   0  0  0  0  0  0
  -28.0828  -29.0557   21.2071 H   0  0  0  0  0  0
  -26.0305  -25.9584   19.0046 H   0  0  0  0  0  0
  -23.9812  -27.3101   19.0062 H   0  0  0  0  0  0
  -23.7249  -30.5970   19.3984 H   0  0  0  0  0  0
  -22.7360  -29.2452   19.8601 H   0  0  0  0  0  0
  -25.1291  -36.1978   25.0812 H   0  0  0  0  0  0
  -20.9981  -28.3316   24.1435 H   0  0  0  0  0  0
  -20.5724  -26.2283   23.3616 H   0  0  0  0  0  0
  -21.6639  -26.7504   22.1171 H   0  0  0  0  0  0
  -19.6915  -25.6340   21.1218 H   0  0  0  0  0  0
  -19.6696  -27.3261   20.6778 H   0  0  0  0  0  0
  -17.4189  -26.6696   21.4070 H   0  0  0  0  0  0
  -18.0349  -26.0104   22.9036 H   0  0  0  0  0  0
  -19.7933  -30.7265   24.2318 H   0  0  0  0  0  0
  -17.5015  -31.6283   24.5204 H   0  0  0  0  0  0
  -15.5351  -30.3015   23.7629 H   0  0  0  0  0  0
  -15.8682  -28.0880   22.6987 H   0  0  0  0  0  0
  -24.5859  -30.6977   25.7665 H   0  0  0  0  0  0
  -24.8654  -32.2833   26.4722 H   0  0  0  0  0  0
  -25.7855  -30.8944   27.0225 H   0  0  0  0  0  0
  -26.2824  -29.6791   24.1081 H   0  0  0  0  0  0
  -27.3873  -29.7243   25.4638 H   0  0  0  0  0  0
  -27.8722  -30.4293   23.9375 H   0  0  0  0  0  0
  -27.2707  -33.3613   26.2011 H   0  0  0  0  0  0
  -28.3815  -32.6748   25.0238 H   0  0  0  0  0  0
  -28.0669  -31.8370   26.5336 H   0  0  0  0  0  0
  -28.2583  -38.0131   24.7508 H   0  0  0  0  0  0
  -28.1114  -36.2640   24.6265 H   0  0  0  0  0  0
  -27.2288  -37.1424   25.8851 H   0  0  0  0  0  0
  -20.9310  -29.8748   21.6902 H   0  0  0  0  0  0
  -26.0209  -38.2864   24.1361 H   0  0  0  0  0  0
  -30.5236  -20.8068   19.7159 H   0  0  0  0  0  0
  -31.8856  -16.8134   19.3866 H   0  0  0  0  0  0
  -27.5734  -18.0912   22.5128 H   0  0  0  0  0  0
  -27.8230  -16.4540   21.9801 H   0  0  0  0  0  0
  -26.8872  -17.5504   20.9781 H   0  0  0  0  0  0
  -28.4989  -20.8507   22.0359 H   0  0  0  0  0  0
  -27.2186  -19.9807   21.2569 H   0  0  0  0  0  0
  -28.0231  -24.3331   21.3910 H   0  0  0  0  0  0
  -26.9381  -24.0425   20.0568 H   0  0  0  0  0  0
  -29.5855  -22.6820   20.7353 H   0  0  0  0  0  0
  -29.1713  -22.7936   19.0519 H   0  0  0  0  0  0
  -28.1909  -25.3984   18.5226 H   0  0  0  0  0  0
  -29.6422  -25.2464   19.4517 H   0  0  0  0  0  0
  -28.9273  -15.3114   21.1117 H   0  0  0  0  0  0
  -26.9558  -21.9092   20.4267 H   0  0  0  0  0  0
  -27.7197  -21.1875   19.2068 H   0  0  0  0  0  0
  1 25  1  0  0  0
  1 30  2  0  0  0
  1 83  1  0  0  0
  2  3  1  0  0  0
  2 25  1  0  0  0
  2 88  1  0  0  0
  2 89  1  0  0  0
  3  4  1  0  0  0
  3 90  1  0  0  0
  3 91  1  0  0  0
  4  5  1  0  0  0
  4 92  1  0  0  0
  4 93  1  0  0  0
  5  6  1  0  0  0
  5 26  1  0  0  0
  5 94  1  0  0  0
  6 25  1  0  0  0
  6 95  1  0  0  0
  6 96  1  0  0  0
  7  8  2  0  0  0
  7 26  1  0  0  0
  7 29  1  0  0  0
  8  9  1  0  0  0
  8 22  1  0  0  0
  9 10  1  0  0  0
  9 27  2  0  0  0
 10 11  2  0  0  0
 10 15  1  0  0  0
 11 12  1  0  0  0
 11 97  1  0  0  0
 12 13  2  0  0  0
 12 98  1  0  0  0
 13 14  1  0  0  0
 13 31  1  0  0  0
 14 15  2  0  0  0
 14 99  1  0  0  0
 15100  1  0  0  0
 16 17  2  0  0  0
 16 21  1  0  0  0
 16 31  1  0  0  0
 17 18  1  0  0  0
 17101  1  0  0  0
 18 19  2  0  0  0
 18102  1  0  0  0
 19 20  1  0  0  0
 19 24  1  0  0  0
 20 21  2  0  0  0
 20103  1  0  0  0
 21 23  1  0  0  0
 22 28  1  0  0  0
 22 32  2  0  0  0
 26 27  1  0  0  0
 28104  1  0  0  0
 28105  1  0  0  0
 29106  1  0  0  0
 29107  1  0  0  0
 33 34  1  0  0  0
 33 66  1  0  0  0
 33 70  2  0  0  0
 34 36  1  0  0  0
 34 59  1  0  0  0
 34108  1  0  0  0
 35 44  2  0  0  0
 35 45  1  0  0  0
 35 68  1  0  0  0
 36 56  1  0  0  0
 36109  1  0  0  0
 37 39  1  0  0  0
 37 47  1  0  0  0
 37 66  1  0  0  0
 37110  1  0  0  0
 38 43  2  0  0  0
 38 46  1  0  0  0
 38 47  1  0  0  0
 39 64  1  0  0  0
 39 67  2  0  0  0
 40 52  1  0  0  0
 40 53  2  0  0  0
 40 58  1  0  0  0
 41111  1  0  0  0
 41112  1  0  0  0
 41113  1  0  0  0
 41 48  1  0  0  0
 42 43  1  0  0  0
 42 66  1  0  0  0
 42114  1  0  0  0
 42115  1  0  0  0
 43 44  1  0  0  0
 44116  1  0  0  0
 45 46  2  0  0  0
 45117  1  0  0  0
 46118  1  0  0  0
 47119  1  0  0  0
 47120  1  0  0  0
 48 56  1  0  0  0
 48 65  1  0  0  0
 48121  1  0  0  0
 49 50  1  0  0  0
 49 53  1  0  0  0
 49 64  1  0  0  0
 49122  1  0  0  0
 50 51  1  0  0  0
 50123  1  0  0  0
 50124  1  0  0  0
 51 52  1  0  0  0
 51125  1  0  0  0
 51126  1  0  0  0
 52127  1  0  0  0
 52128  1  0  0  0
 53 54  1  0  0  0
 54 55  2  0  0  0
 54129  1  0  0  0
 55 57  1  0  0  0
 55130  1  0  0  0
 56 69  2  0  0  0
 57 58  2  0  0  0
 57131  1  0  0  0
 58132  1  0  0  0
 59 60  1  0  0  0
 59 61  1  0  0  0
 59 62  1  0  0  0
 60133  1  0  0  0
 60134  1  0  0  0
 60135  1  0  0  0
 61136  1  0  0  0
 61137  1  0  0  0
 61138  1  0  0  0
 62139  1  0  0  0
 62140  1  0  0  0
 62141  1  0  0  0
 63 65  1  0  0  0
 63142  1  0  0  0
 63143  1  0  0  0
 63144  1  0  0  0
 64145  1  0  0  0
 65146  1  0  0  0
 68 81  1  0  0  0
 71 73  2  0  0  0
 71 74  1  0  0  0
 71147  1  0  0  0
 72 73  1  0  0  0
 72 76  2  0  0  0
 72148  1  0  0  0
 73 82  1  0  0  0
 74 75  2  0  0  0
 74 78  1  0  0  0
 75 76  1  0  0  0
 75 77  1  0  0  0
 76 83  1  0  0  0
 77149  1  0  0  0
 77150  1  0  0  0
 77151  1  0  0  0
 78 84  1  0  0  0
 78152  1  0  0  0
 78153  1  0  0  0
 79 80  1  0  0  0
 79 81  1  0  0  0
 79154  1  0  0  0
 79155  1  0  0  0
 80 84  1  0  0  0
 80156  1  0  0  0
 80157  1  0  0  0
 81158  1  0  0  0
 81159  1  0  0  0
 82 85  1  0  0  0
 82 86  1  0  0  0
 82 87  1  0  0  0
 83160  1  0  0  0
 84161  1  0  0  0
 84162  1  0  0  0
M  CHG  1  84   1
M  ISO  4   1 100  68 101  81 101  83 100
M  END
> <chiral flag>
0

> <version>
0

> <s_m_source_file>
/data/baiqing/PycharmProjects/Reinvent-master-3.2/result/LINK_invent/BTK/process_docking_weight1_custom_sum_contain_oxygen_bond_distance_aromatic_linkinvent_7_9_3/rearranged_h_0029.sdf

> <i_m_source_file_index>
45

> <r_mmod_Potential_Energy-OPLS-2005>
-190.937545776367

> <r_mmod_Stretch_Energy-OPLS-2005>
53.0506286621094

> <r_mmod_Bend_Energy-OPLS-2005>
127.60668182373

> <r_mmod_Torsional_Energy-OPLS-2005>
224.673675537109

> <r_mmod_Improper_Torsional_Energy-OPLS-2005>
5.52501630783081

> <r_mmod_Van_der_Waal_Energy-OPLS-2005>
158.763488769531

> <r_mmod_Electrostatic_Energy-OPLS-2005>
-287.462371826172

> <r_mmod_Solvation_Energy-OPLS-2005>
-495.54296875

> <b_mmod_Minimization_Converged-OPLS-2005>
0

> <r_mmod_RMS_Derivative-OPLS-2005>
3.09778094291687

$$$$
45
                    3D
 Structure written by MMmdl.
153161  0  0  1  0            999 V2000
  -30.6292  -14.8729   20.4586 C   0  0  0  0  0  0
  -30.4377  -12.5484   19.4841 C   0  0  0  0  0  0
  -29.5196  -12.5127   18.2402 C   0  0  0  0  0  0
  -28.0533  -12.3029   18.6670 C   0  0  0  0  0  0
  -27.6347  -13.2450   19.8277 C   0  0  2  0  0  0
  -28.6817  -13.2913   20.9638 C   0  0  0  0  0  0
  -25.2518  -13.8224   20.5698 C   0  0  0  0  0  0
  -24.1819  -13.0449   20.9216 C   0  0  0  0  0  0
  -24.6437  -11.6932   20.8800 C   0  0  0  0  0  0
  -23.9097  -10.4305   21.0428 C   0  0  0  0  0  0
  -24.3636   -9.4212   21.9207 C   0  0  0  0  0  0
  -23.6297   -8.2255   22.0756 C   0  0  0  0  0  0
  -22.4293   -8.0312   21.3547 C   0  0  0  0  0  0
  -21.9944   -9.0285   20.4654 C   0  0  0  0  0  0
  -22.7268  -10.2153   20.3064 C   0  0  0  0  0  0
  -21.6861   -6.0765   22.5280 C   0  0  0  0  0  0
  -21.4006   -6.5652   23.8218 C   0  0  0  0  0  0
  -21.3658   -5.6790   24.9180 C   0  0  0  0  0  0
  -21.6040   -4.3055   24.7227 C   0  0  0  0  0  0
  -21.8815   -3.8148   23.4343 C   0  0  0  0  0  0
  -21.9182   -4.6977   22.3402 C   0  0  0  0  0  0
  -22.7826  -13.5235   21.1826 C   0  0  0  0  0  0
  -22.1664   -4.2184   21.0987 F   0  0  0  0  0  0
  -21.5646   -3.4525   25.7732 F   0  0  0  0  0  0
  -29.9698  -13.6555   20.3632 N   0  0  0  0  0  0
  -26.2943  -12.9451   20.3209 N   0  0  0  0  0  0
  -25.9379  -11.6587   20.5771 N   0  0  0  0  0  0
  -22.0465  -12.8267   22.0391 N   0  0  0  0  0  0
  -25.4146  -15.1936   20.4055 N   0  0  0  0  0  0
  -31.8348  -14.8900   20.1985 O   0  0  0  0  0  0
  -21.6632   -6.8933   21.4250 O   0  0  0  0  0  0
  -22.3524  -14.5536   20.6645 O   0  0  0  0  0  0
  -24.6385  -31.8482   23.1927 C   0  0  0  0  0  0
  -25.9178  -32.4722   23.8277 C   0  0  1  0  0  0
  -27.2196  -27.1899   20.1565 C   0  0  0  0  0  0
  -25.5989  -33.8529   24.2220 N   0  0  0  0  0  0
  -23.4350  -30.4725   21.5380 C   0  0  2  0  0  0
  -24.8848  -28.9055   20.1105 C   0  0  0  0  0  0
  -22.7519  -29.4570   22.4872 C   0  0  0  0  0  0
  -18.0296  -28.1381   22.8489 C   0  0  0  0  0  0
  -24.1485  -36.7247   23.2635 C   0  0  0  0  0  0
  -25.9861  -30.7435   21.3788 C   0  0  0  0  0  0
  -26.0605  -29.3562   20.7263 C   0  0  0  0  0  0
  -27.2280  -28.5159   20.7303 C   0  0  0  0  0  0
  -26.0182  -26.8228   19.5083 C   0  0  0  0  0  0
  -24.8752  -27.6487   19.4881 C   0  0  0  0  0  0
  -23.6585  -29.8039   20.1562 C   0  0  0  0  0  0
  -25.4128  -36.3036   24.0323 C   0  0  1  0  0  0
  -20.5903  -28.3707   23.1253 C   0  0  2  0  0  0
  -20.6779  -26.9418   22.5409 C   0  0  0  0  0  0
  -19.5756  -26.6395   21.5204 C   0  0  0  0  0  0
  -18.1929  -26.7928   22.1619 C   0  0  0  0  0  0
  -19.1551  -28.8871   23.2866 C   0  0  0  0  0  0
  -18.9475  -30.1464   23.8900 C   0  0  0  0  0  0
  -17.6471  -30.6586   24.0563 C   0  0  0  0  0  0
  -25.9084  -34.9419   23.5077 C   0  0  0  0  0  0
  -16.5363  -29.9078   23.6312 C   0  0  0  0  0  0
  -16.7287  -28.6486   23.0363 C   0  0  0  0  0  0
  -26.4535  -31.6569   25.0686 C   0  0  0  0  0  0
  -25.3748  -31.3755   26.1406 C   0  0  0  0  0  0
  -27.0406  -30.2984   24.6212 C   0  0  0  0  0  0
  -27.6081  -32.4300   25.7497 C   0  0  0  0  0  0
  -27.5569  -37.1789   24.8468 C   0  0  0  0  0  0
  -21.4216  -29.3047   22.3639 N   0  0  0  0  0  0
  -26.4268  -37.3768   23.9406 N   0  0  0  0  0  0
  -24.7053  -31.0410   22.0924 N   0  0  0  0  0  0
  -23.4198  -28.8113   23.2976 O   0  0  0  0  0  0
  -28.3055  -26.2593   20.2153 O   0  0  0  0  0  0
  -26.5633  -34.8905   22.4626 O   0  0  0  0  0  0
  -23.5534  -32.1333   23.7241 O   0  0  0  0  0  0
  -28.8948  -19.5660   20.0694 C   0  0  0  0  0  0
  -30.3960  -21.4910   21.3674 C   0  0  0  0  0  0
  -28.5872  -20.9917   19.9334 C   0  0  0  0  0  0
  -29.9995  -19.0356   20.8229 C   0  0  0  0  0  0
  -29.3486  -22.0374   20.5647 C   0  0  0  0  0  0
  -30.7197  -20.0918   21.4787 C   0  0  0  0  0  0
  -27.4244  -21.3910   19.0490 C   0  0  0  0  0  0
  -29.3242  -23.6616   20.3054 C   0  0  0  0  0  0
  -30.5838  -17.4957   20.8869 C   0  0  0  0  0  0
  -28.0781  -24.7384   20.2341 C   0  0  0  0  0  0
  -29.9433  -16.0908   20.6612 N   0  0  0  0  0  0
  -32.1239  -19.7146   22.4195 Cl  0  0  0  0  0  0
  -31.4763  -12.6853   19.1755 H   0  0  0  0  0  0
  -30.4045  -11.5957   20.0164 H   0  0  0  0  0  0
  -29.8275  -11.7168   17.5595 H   0  0  0  0  0  0
  -29.6186  -13.4410   17.6769 H   0  0  0  0  0  0
  -27.9526  -11.2643   18.9793 H   0  0  0  0  0  0
  -27.3853  -12.4271   17.8130 H   0  0  0  0  0  0
  -27.5922  -14.2385   19.3827 H   0  0  0  0  0  0
  -28.7561  -12.3378   21.4838 H   0  0  0  0  0  0
  -28.3926  -14.0336   21.7099 H   0  0  0  0  0  0
  -25.2792   -9.5665   22.4770 H   0  0  0  0  0  0
  -24.0001   -7.4652   22.7472 H   0  0  0  0  0  0
  -21.0879   -8.8798   19.8982 H   0  0  0  0  0  0
  -22.3743  -10.9684   19.6158 H   0  0  0  0  0  0
  -21.2001   -7.6155   23.9738 H   0  0  0  0  0  0
  -21.1476   -6.0523   25.9097 H   0  0  0  0  0  0
  -22.0585   -2.7611   23.2818 H   0  0  0  0  0  0
  -22.4068  -11.9939   22.4821 H   0  0  0  0  0  0
  -21.1083  -13.1296   22.2558 H   0  0  0  0  0  0
  -24.6287  -15.8312   20.4819 H   0  0  0  0  0  0
  -26.2466  -15.6376   20.0393 H   0  0  0  0  0  0
  -26.7251  -32.5359   23.1021 H   0  0  0  0  0  0
  -25.0160  -33.9648   25.0391 H   0  0  0  0  0  0
  -22.7326  -31.2956   21.3906 H   0  0  0  0  0  0
  -23.3763  -35.9555   23.3288 H   0  0  0  0  0  0
  -24.3561  -36.8877   22.2037 H   0  0  0  0  0  0
  -23.7212  -37.6448   23.6662 H   0  0  0  0  0  0
  -26.1260  -31.4978   20.6028 H   0  0  0  0  0  0
  -26.8624  -30.8049   22.0111 H   0  0  0  0  0  0
  -28.1237  -28.8594   21.2307 H   0  0  0  0  0  0
  -25.9367  -25.8658   19.0200 H   0  0  0  0  0  0
  -23.9763  -27.2970   18.9979 H   0  0  0  0  0  0
  -23.7915  -30.5816   19.4040 H   0  0  0  0  0  0
  -22.7722  -29.2480   19.8422 H   0  0  0  0  0  0
  -25.1310  -36.1859   25.0818 H   0  0  0  0  0  0
  -21.0012  -28.3283   24.1364 H   0  0  0  0  0  0
  -20.5656  -26.2301   23.3616 H   0  0  0  0  0  0
  -21.6636  -26.7399   22.1204 H   0  0  0  0  0  0
  -19.6883  -25.6306   21.1247 H   0  0  0  0  0  0
  -19.6688  -27.3194   20.6723 H   0  0  0  0  0  0
  -17.4188  -26.6688   21.4011 H   0  0  0  0  0  0
  -18.0319  -26.0070   22.9013 H   0  0  0  0  0  0
  -19.7972  -30.7277   24.2246 H   0  0  0  0  0  0
  -17.5040  -31.6264   24.5177 H   0  0  0  0  0  0
  -15.5365  -30.2989   23.7665 H   0  0  0  0  0  0
  -15.8678  -28.0823   22.7073 H   0  0  0  0  0  0
  -24.5938  -30.7087   25.7737 H   0  0  0  0  0  0
  -24.8929  -32.2943   26.4746 H   0  0  0  0  0  0
  -25.8047  -30.8990   27.0222 H   0  0  0  0  0  0
  -26.3005  -29.6714   24.1230 H   0  0  0  0  0  0
  -27.4096  -29.7267   25.4734 H   0  0  0  0  0  0
  -27.8868  -30.4260   23.9469 H   0  0  0  0  0  0
  -27.2702  -33.3622   26.2039 H   0  0  0  0  0  0
  -28.3953  -32.6818   25.0378 H   0  0  0  0  0  0
  -28.0694  -31.8437   26.5461 H   0  0  0  0  0  0
  -28.2607  -38.0068   24.7527 H   0  0  0  0  0  0
  -28.1053  -36.2615   24.6295 H   0  0  0  0  0  0
  -27.2293  -37.1438   25.8873 H   0  0  0  0  0  0
  -20.9368  -29.8775   21.6887 H   0  0  0  0  0  0
  -26.0145  -38.2832   24.1446 H   0  0  0  0  0  0
  -28.2902  -18.8563   19.5233 H   0  0  0  0  0  0
  -31.0387  -22.1901   21.8820 H   0  0  0  0  0  0
  -26.6376  -21.8579   19.6393 H   0  0  0  0  0  0
  -26.9932  -20.5280   18.5417 H   0  0  0  0  0  0
  -27.7478  -22.0980   18.2842 H   0  0  0  0  0  0
  -29.8524  -23.7698   19.3587 H   0  0  0  0  0  0
  -30.0177  -24.0790   21.0371 H   0  0  0  0  0  0
  -30.9792  -17.3876   21.8984 H   0  0  0  0  0  0
  -31.4771  -17.5225   20.2624 H   0  0  0  0  0  0
  -27.5151  -24.4736   19.3387 H   0  0  0  0  0  0
  -27.4140  -24.5349   21.0750 H   0  0  0  0  0  0
  -28.9445  -16.0303   20.7791 H   0  0  0  0  0  0
  1 25  1  0  0  0
  1 30  2  0  0  0
  1 81  1  0  0  0
  2  3  1  0  0  0
  2 25  1  0  0  0
  2 83  1  0  0  0
  2 84  1  0  0  0
  3  4  1  0  0  0
  3 85  1  0  0  0
  3 86  1  0  0  0
  4  5  1  0  0  0
  4 87  1  0  0  0
  4 88  1  0  0  0
  5  6  1  0  0  0
  5 26  1  0  0  0
  5 89  1  0  0  0
  6 25  1  0  0  0
  6 90  1  0  0  0
  6 91  1  0  0  0
  7  8  2  0  0  0
  7 26  1  0  0  0
  7 29  1  0  0  0
  8  9  1  0  0  0
  8 22  1  0  0  0
  9 10  1  0  0  0
  9 27  2  0  0  0
 10 11  2  0  0  0
 10 15  1  0  0  0
 11 12  1  0  0  0
 11 92  1  0  0  0
 12 13  2  0  0  0
 12 93  1  0  0  0
 13 14  1  0  0  0
 13 31  1  0  0  0
 14 15  2  0  0  0
 14 94  1  0  0  0
 15 95  1  0  0  0
 16 17  2  0  0  0
 16 21  1  0  0  0
 16 31  1  0  0  0
 17 18  1  0  0  0
 17 96  1  0  0  0
 18 19  2  0  0  0
 18 97  1  0  0  0
 19 20  1  0  0  0
 19 24  1  0  0  0
 20 21  2  0  0  0
 20 98  1  0  0  0
 21 23  1  0  0  0
 22 28  1  0  0  0
 22 32  2  0  0  0
 26 27  1  0  0  0
 28 99  1  0  0  0
 28100  1  0  0  0
 29101  1  0  0  0
 29102  1  0  0  0
 33 34  1  0  0  0
 33 66  1  0  0  0
 33 70  2  0  0  0
 34 36  1  0  0  0
 34 59  1  0  0  0
 34103  1  0  0  0
 35 44  2  0  0  0
 35 45  1  0  0  0
 35 68  1  0  0  0
 36 56  1  0  0  0
 36104  1  0  0  0
 37 39  1  0  0  0
 37 47  1  0  0  0
 37 66  1  0  0  0
 37105  1  0  0  0
 38 43  2  0  0  0
 38 46  1  0  0  0
 38 47  1  0  0  0
 39 64  1  0  0  0
 39 67  2  0  0  0
 40 52  1  0  0  0
 40 53  2  0  0  0
 40 58  1  0  0  0
 41106  1  0  0  0
 41107  1  0  0  0
 41108  1  0  0  0
 41 48  1  0  0  0
 42 43  1  0  0  0
 42 66  1  0  0  0
 42109  1  0  0  0
 42110  1  0  0  0
 43 44  1  0  0  0
 44111  1  0  0  0
 45 46  2  0  0  0
 45112  1  0  0  0
 46113  1  0  0  0
 47114  1  0  0  0
 47115  1  0  0  0
 48 56  1  0  0  0
 48 65  1  0  0  0
 48116  1  0  0  0
 49 50  1  0  0  0
 49 53  1  0  0  0
 49 64  1  0  0  0
 49117  1  0  0  0
 50 51  1  0  0  0
 50118  1  0  0  0
 50119  1  0  0  0
 51 52  1  0  0  0
 51120  1  0  0  0
 51121  1  0  0  0
 52122  1  0  0  0
 52123  1  0  0  0
 53 54  1  0  0  0
 54 55  2  0  0  0
 54124  1  0  0  0
 55 57  1  0  0  0
 55125  1  0  0  0
 56 69  2  0  0  0
 57 58  2  0  0  0
 57126  1  0  0  0
 58127  1  0  0  0
 59 60  1  0  0  0
 59 61  1  0  0  0
 59 62  1  0  0  0
 60128  1  0  0  0
 60129  1  0  0  0
 60130  1  0  0  0
 61131  1  0  0  0
 61132  1  0  0  0
 61133  1  0  0  0
 62134  1  0  0  0
 62135  1  0  0  0
 62136  1  0  0  0
 63 65  1  0  0  0
 63137  1  0  0  0
 63138  1  0  0  0
 63139  1  0  0  0
 64140  1  0  0  0
 65141  1  0  0  0
 68 80  1  0  0  0
 71 73  2  0  0  0
 71 74  1  0  0  0
 71142  1  0  0  0
 72 75  2  0  0  0
 72 76  1  0  0  0
 72143  1  0  0  0
 73 75  1  0  0  0
 73 77  1  0  0  0
 74 76  2  0  0  0
 74 79  1  0  0  0
 75 78  1  0  0  0
 76 82  1  0  0  0
 77144  1  0  0  0
 77145  1  0  0  0
 77146  1  0  0  0
 78 80  1  0  0  0
 78147  1  0  0  0
 78148  1  0  0  0
 79 81  1  0  0  0
 79149  1  0  0  0
 79150  1  0  0  0
 80151  1  0  0  0
 80152  1  0  0  0
 81153  1  0  0  0
M  ISO  4   1 100  68 101  80 101  81 100
M  END
> <chiral flag>
0

> <version>
0

> <s_m_source_file>
/data/baiqing/PycharmProjects/Reinvent-master-3.2/result/LINK_invent/BTK/process_docking_weight1_custom_sum_contain_oxygen_bond_distance_aromatic_linkinvent_7_9_3/rearranged_h_0029.sdf

> <i_m_source_file_index>
46

> <r_mmod_Potential_Energy-OPLS-2005>
353.121978759766

> <r_mmod_Stretch_Energy-OPLS-2005>
191.912536621094

> <r_mmod_Bend_Energy-OPLS-2005>
260.770263671875

> <r_mmod_Torsional_Energy-OPLS-2005>
210.929962158203

> <r_mmod_Improper_Torsional_Energy-OPLS-2005>
5.88522291183472

> <r_mmod_Van_der_Waal_Energy-OPLS-2005>
135.448059082031

> <r_mmod_Electrostatic_Energy-OPLS-2005>
-388.272583007812

> <r_mmod_Solvation_Energy-OPLS-2005>
-209.00700378418

> <b_mmod_Minimization_Converged-OPLS-2005>
0

> <r_mmod_RMS_Derivative-OPLS-2005>
5.37782526016235

$$$$
46
                    3D
 Structure written by MMmdl.
153162  0  0  1  0            999 V2000
  -30.5611  -15.0295   20.3486 C   0  0  0  0  0  0
  -30.4373  -12.6421   19.4725 C   0  0  0  0  0  0
  -29.5075  -12.5015   18.2464 C   0  0  0  0  0  0
  -28.0529  -12.2557   18.6919 C   0  0  0  0  0  0
  -27.6082  -13.2142   19.8235 C   0  0  2  0  0  0
  -28.6712  -13.3588   20.9365 C   0  0  0  0  0  0
  -25.2424  -13.8074   20.5805 C   0  0  0  0  0  0
  -24.1719  -13.0346   20.9289 C   0  0  0  0  0  0
  -24.6318  -11.6829   20.8819 C   0  0  0  0  0  0
  -23.9008  -10.4232   21.0447 C   0  0  0  0  0  0
  -24.3576   -9.4152   21.9212 C   0  0  0  0  0  0
  -23.6259   -8.2190   22.0762 C   0  0  0  0  0  0
  -22.4246   -8.0241   21.3545 C   0  0  0  0  0  0
  -21.9877   -9.0214   20.4650 C   0  0  0  0  0  0
  -22.7198  -10.2093   20.3074 C   0  0  0  0  0  0
  -21.6835   -6.0714   22.5280 C   0  0  0  0  0  0
  -21.4001   -6.5625   23.8211 C   0  0  0  0  0  0
  -21.3654   -5.6784   24.9176 C   0  0  0  0  0  0
  -21.6044   -4.3048   24.7231 C   0  0  0  0  0  0
  -21.8820   -3.8134   23.4354 C   0  0  0  0  0  0
  -21.9186   -4.6945   22.3407 C   0  0  0  0  0  0
  -22.7753  -13.5166   21.1907 C   0  0  0  0  0  0
  -22.1661   -4.2131   21.0985 F   0  0  0  0  0  0
  -21.5630   -3.4535   25.7747 F   0  0  0  0  0  0
  -29.9272  -13.7788   20.2916 N   0  0  0  0  0  0
  -26.2804  -12.9225   20.3338 N   0  0  0  0  0  0
  -25.9240  -11.6400   20.5833 N   0  0  0  0  0  0
  -22.0382  -12.8181   22.0461 N   0  0  0  0  0  0
  -25.4059  -15.1804   20.4249 N   0  0  0  0  0  0
  -31.7956  -15.0099   20.2853 O   0  0  0  0  0  0
  -21.6612   -6.8845   21.4238 O   0  0  0  0  0  0
  -22.3470  -14.5476   20.6730 O   0  0  0  0  0  0
  -24.6446  -31.8419   23.1855 C   0  0  0  0  0  0
  -25.9211  -32.4685   23.8255 C   0  0  1  0  0  0
  -27.2267  -27.1205   20.1535 C   0  0  0  0  0  0
  -25.5949  -33.8491   24.2171 N   0  0  0  0  0  0
  -23.4499  -30.4587   21.5311 C   0  0  2  0  0  0
  -24.9022  -28.8805   20.1094 C   0  0  0  0  0  0
  -22.7576  -29.4531   22.4850 C   0  0  0  0  0  0
  -18.0306  -28.1396   22.8479 C   0  0  0  0  0  0
  -24.1490  -36.7249   23.2643 C   0  0  0  0  0  0
  -26.0064  -30.7100   21.3875 C   0  0  0  0  0  0
  -26.0789  -29.3191   20.7293 C   0  0  0  0  0  0
  -27.2395  -28.4553   20.7340 C   0  0  0  0  0  0
  -26.0250  -26.7881   19.4893 C   0  0  0  0  0  0
  -24.8892  -27.6289   19.4739 C   0  0  0  0  0  0
  -23.6783  -29.7838   20.1518 C   0  0  0  0  0  0
  -25.4125  -36.3025   24.0313 C   0  0  1  0  0  0
  -20.5920  -28.3723   23.1232 C   0  0  2  0  0  0
  -20.6788  -26.9424   22.5405 C   0  0  0  0  0  0
  -19.5762  -26.6380   21.5212 C   0  0  0  0  0  0
  -18.1944  -26.7933   22.1625 C   0  0  0  0  0  0
  -19.1563  -28.8878   23.2847 C   0  0  0  0  0  0
  -18.9480  -30.1473   23.8874 C   0  0  0  0  0  0
  -17.6477  -30.6592   24.0558 C   0  0  0  0  0  0
  -25.9076  -34.9402   23.5054 C   0  0  0  0  0  0
  -16.5368  -29.9085   23.6337 C   0  0  0  0  0  0
  -16.7290  -28.6503   23.0360 C   0  0  0  0  0  0
  -26.4528  -31.6564   25.0707 C   0  0  0  0  0  0
  -25.3705  -31.3761   26.1395 C   0  0  0  0  0  0
  -27.0405  -30.2959   24.6308 C   0  0  0  0  0  0
  -27.6050  -32.4341   25.7497 C   0  0  0  0  0  0
  -27.5573  -37.1783   24.8468 C   0  0  0  0  0  0
  -21.4266  -29.3043   22.3599 N   0  0  0  0  0  0
  -26.4287  -37.3741   23.9405 N   0  0  0  0  0  0
  -24.7199  -31.0256   22.0897 N   0  0  0  0  0  0
  -23.4208  -28.8089   23.3017 O   0  0  0  0  0  0
  -28.2828  -26.1340   20.2414 O   0  0  0  0  0  0
  -26.5670  -34.8905   22.4637 O   0  0  0  0  0  0
  -23.5561  -32.1303   23.7066 O   0  0  0  0  0  0
  -29.6243  -20.5313   20.7126 C   0  0  0  0  0  0
  -28.1317  -21.3107   19.0101 C   0  0  0  0  0  0
  -29.5229  -19.1321   20.2211 C   0  0  0  0  0  0
  -28.9282  -21.6970   20.1064 C   0  0  0  0  0  0
  -28.7139  -19.0084   19.0917 C   0  0  0  0  0  0
  -30.2543  -17.7440   20.7357 C   0  0  0  0  0  0
  -28.6635  -17.6604   18.3883 C   0  0  0  0  0  0
  -28.7289  -16.4008   19.3024 C   0  0  0  0  0  0
  -29.0436  -23.3073   20.5128 C   0  0  0  0  0  0
  -28.0730  -24.6006   19.9888 C   0  0  0  0  0  0
  -28.0377  -20.0423   18.5247 N   0  0  0  0  0  0
  -29.8489  -16.2896   20.2625 N   0  0  0  0  0  0
  -31.4618  -12.8120   19.1379 H   0  0  0  0  0  0
  -30.4597  -11.7206   20.0566 H   0  0  0  0  0  0
  -29.8443  -11.6824   17.6094 H   0  0  0  0  0  0
  -29.5599  -13.4040   17.6360 H   0  0  0  0  0  0
  -27.9889  -11.2256   19.0445 H   0  0  0  0  0  0
  -27.3750  -12.3274   17.8403 H   0  0  0  0  0  0
  -27.4870  -14.1610   19.3232 H   0  0  0  0  0  0
  -28.7997  -12.4237   21.4834 H   0  0  0  0  0  0
  -28.3573  -14.1084   21.6648 H   0  0  0  0  0  0
  -25.2715   -9.5631   22.4793 H   0  0  0  0  0  0
  -23.9963   -7.4574   22.7476 H   0  0  0  0  0  0
  -21.0811   -8.8732   19.8954 H   0  0  0  0  0  0
  -22.3661  -10.9640   19.6189 H   0  0  0  0  0  0
  -21.1991   -7.6134   23.9709 H   0  0  0  0  0  0
  -21.1479   -6.0519   25.9078 H   0  0  0  0  0  0
  -22.0605   -2.7596   23.2863 H   0  0  0  0  0  0
  -22.3988  -11.9850   22.4870 H   0  0  0  0  0  0
  -21.1001  -13.1219   22.2654 H   0  0  0  0  0  0
  -24.6364  -15.8292   20.5502 H   0  0  0  0  0  0
  -26.2595  -15.6310   20.1281 H   0  0  0  0  0  0
  -26.7275  -32.5289   23.0982 H   0  0  0  0  0  0
  -25.0062  -33.9602   25.0296 H   0  0  0  0  0  0
  -22.7535  -31.2847   21.3734 H   0  0  0  0  0  0
  -23.3758  -35.9575   23.3299 H   0  0  0  0  0  0
  -24.3569  -36.8890   22.2059 H   0  0  0  0  0  0
  -23.7243  -37.6440   23.6689 H   0  0  0  0  0  0
  -26.1647  -31.4640   20.6152 H   0  0  0  0  0  0
  -26.8750  -30.7610   22.0323 H   0  0  0  0  0  0
  -28.1340  -28.7863   21.2430 H   0  0  0  0  0  0
  -25.9329  -25.8322   18.9957 H   0  0  0  0  0  0
  -23.9915  -27.2885   18.9761 H   0  0  0  0  0  0
  -23.8153  -30.5564   19.3943 H   0  0  0  0  0  0
  -22.7935  -29.2250   19.8419 H   0  0  0  0  0  0
  -25.1317  -36.1847   25.0805 H   0  0  0  0  0  0
  -21.0013  -28.3313   24.1353 H   0  0  0  0  0  0
  -20.5675  -26.2337   23.3626 H   0  0  0  0  0  0
  -21.6654  -26.7423   22.1207 H   0  0  0  0  0  0
  -19.6922  -25.6284   21.1257 H   0  0  0  0  0  0
  -19.6697  -27.3177   20.6730 H   0  0  0  0  0  0
  -17.4211  -26.6677   21.4030 H   0  0  0  0  0  0
  -18.0344  -26.0080   22.9027 H   0  0  0  0  0  0
  -19.7956  -30.7293   24.2234 H   0  0  0  0  0  0
  -17.5031  -31.6270   24.5163 H   0  0  0  0  0  0
  -15.5367  -30.2979   23.7673 H   0  0  0  0  0  0
  -15.8691  -28.0810   22.7093 H   0  0  0  0  0  0
  -24.5889  -30.7107   25.7709 H   0  0  0  0  0  0
  -24.8888  -32.2947   26.4755 H   0  0  0  0  0  0
  -25.7976  -30.8973   27.0214 H   0  0  0  0  0  0
  -26.3031  -29.6670   24.1305 H   0  0  0  0  0  0
  -27.3999  -29.7272   25.4894 H   0  0  0  0  0  0
  -27.8944  -30.4191   23.9644 H   0  0  0  0  0  0
  -27.2634  -33.3662   26.2011 H   0  0  0  0  0  0
  -28.3894  -32.6871   25.0351 H   0  0  0  0  0  0
  -28.0682  -31.8511   26.5467 H   0  0  0  0  0  0
  -28.2592  -38.0078   24.7505 H   0  0  0  0  0  0
  -28.1069  -36.2606   24.6311 H   0  0  0  0  0  0
  -27.2287  -37.1446   25.8871 H   0  0  0  0  0  0
  -20.9480  -29.8745   21.6765 H   0  0  0  0  0  0
  -26.0152  -38.2808   24.1405 H   0  0  0  0  0  0
  -30.2700  -20.7184   21.5586 H   0  0  0  0  0  0
  -27.5672  -22.0556   18.4685 H   0  0  0  0  0  0
  -30.1883  -17.7408   21.8239 H   0  0  0  0  0  0
  -31.3173  -17.8548   20.5175 H   0  0  0  0  0  0
  -29.4948  -17.6321   17.6827 H   0  0  0  0  0  0
  -27.7579  -17.6095   17.7818 H   0  0  0  0  0  0
  -28.7726  -15.5713   18.5995 H   0  0  0  0  0  0
  -27.8052  -16.3337   19.8717 H   0  0  0  0  0  0
  -30.0658  -23.5791   20.2499 H   0  0  0  0  0  0
  -29.0289  -23.3334   21.6025 H   0  0  0  0  0  0
  -27.0699  -24.3681   20.3469 H   0  0  0  0  0  0
  -28.0141  -24.5118   18.9038 H   0  0  0  0  0  0
  1 25  1  0  0  0
  1 30  2  0  0  0
  1 82  1  0  0  0
  2  3  1  0  0  0
  2 25  1  0  0  0
  2 83  1  0  0  0
  2 84  1  0  0  0
  3  4  1  0  0  0
  3 85  1  0  0  0
  3 86  1  0  0  0
  4  5  1  0  0  0
  4 87  1  0  0  0
  4 88  1  0  0  0
  5  6  1  0  0  0
  5 26  1  0  0  0
  5 89  1  0  0  0
  6 25  1  0  0  0
  6 90  1  0  0  0
  6 91  1  0  0  0
  7  8  2  0  0  0
  7 26  1  0  0  0
  7 29  1  0  0  0
  8  9  1  0  0  0
  8 22  1  0  0  0
  9 10  1  0  0  0
  9 27  2  0  0  0
 10 11  2  0  0  0
 10 15  1  0  0  0
 11 12  1  0  0  0
 11 92  1  0  0  0
 12 13  2  0  0  0
 12 93  1  0  0  0
 13 14  1  0  0  0
 13 31  1  0  0  0
 14 15  2  0  0  0
 14 94  1  0  0  0
 15 95  1  0  0  0
 16 17  2  0  0  0
 16 21  1  0  0  0
 16 31  1  0  0  0
 17 18  1  0  0  0
 17 96  1  0  0  0
 18 19  2  0  0  0
 18 97  1  0  0  0
 19 20  1  0  0  0
 19 24  1  0  0  0
 20 21  2  0  0  0
 20 98  1  0  0  0
 21 23  1  0  0  0
 22 28  1  0  0  0
 22 32  2  0  0  0
 26 27  1  0  0  0
 28 99  1  0  0  0
 28100  1  0  0  0
 29101  1  0  0  0
 29102  1  0  0  0
 33 34  1  0  0  0
 33 66  1  0  0  0
 33 70  2  0  0  0
 34 36  1  0  0  0
 34 59  1  0  0  0
 34103  1  0  0  0
 35 44  2  0  0  0
 35 45  1  0  0  0
 35 68  1  0  0  0
 36 56  1  0  0  0
 36104  1  0  0  0
 37 39  1  0  0  0
 37 47  1  0  0  0
 37 66  1  0  0  0
 37105  1  0  0  0
 38 43  2  0  0  0
 38 46  1  0  0  0
 38 47  1  0  0  0
 39 64  1  0  0  0
 39 67  2  0  0  0
 40 52  1  0  0  0
 40 53  2  0  0  0
 40 58  1  0  0  0
 41106  1  0  0  0
 41107  1  0  0  0
 41108  1  0  0  0
 41 48  1  0  0  0
 42 43  1  0  0  0
 42 66  1  0  0  0
 42109  1  0  0  0
 42110  1  0  0  0
 43 44  1  0  0  0
 44111  1  0  0  0
 45 46  2  0  0  0
 45112  1  0  0  0
 46113  1  0  0  0
 47114  1  0  0  0
 47115  1  0  0  0
 48 56  1  0  0  0
 48 65  1  0  0  0
 48116  1  0  0  0
 49 50  1  0  0  0
 49 53  1  0  0  0
 49 64  1  0  0  0
 49117  1  0  0  0
 50 51  1  0  0  0
 50118  1  0  0  0
 50119  1  0  0  0
 51 52  1  0  0  0
 51120  1  0  0  0
 51121  1  0  0  0
 52122  1  0  0  0
 52123  1  0  0  0
 53 54  1  0  0  0
 54 55  2  0  0  0
 54124  1  0  0  0
 55 57  1  0  0  0
 55125  1  0  0  0
 56 69  2  0  0  0
 57 58  2  0  0  0
 57126  1  0  0  0
 58127  1  0  0  0
 59 60  1  0  0  0
 59 61  1  0  0  0
 59 62  1  0  0  0
 60128  1  0  0  0
 60129  1  0  0  0
 60130  1  0  0  0
 61131  1  0  0  0
 61132  1  0  0  0
 61133  1  0  0  0
 62134  1  0  0  0
 62135  1  0  0  0
 62136  1  0  0  0
 63 65  1  0  0  0
 63137  1  0  0  0
 63138  1  0  0  0
 63139  1  0  0  0
 64140  1  0  0  0
 65141  1  0  0  0
 68 80  1  0  0  0
 71 73  2  0  0  0
 71 74  1  0  0  0
 71142  1  0  0  0
 72 74  2  0  0  0
 72 81  1  0  0  0
 72143  1  0  0  0
 73 75  1  0  0  0
 73 76  1  0  0  0
 74 79  1  0  0  0
 75 77  1  0  0  0
 75 81  2  0  0  0
 76 82  1  0  0  0
 76144  1  0  0  0
 76145  1  0  0  0
 77 78  1  0  0  0
 77146  1  0  0  0
 77147  1  0  0  0
 78 82  1  0  0  0
 78148  1  0  0  0
 78149  1  0  0  0
 79 80  1  0  0  0
 79150  1  0  0  0
 79151  1  0  0  0
 80152  1  0  0  0
 80153  1  0  0  0
M  ISO  4   1 100  68 101  80 101  82 100
M  END
> <chiral flag>
0

> <version>
0

> <s_m_source_file>
/data/baiqing/PycharmProjects/Reinvent-master-3.2/result/LINK_invent/BTK/process_docking_weight1_custom_sum_contain_oxygen_bond_distance_aromatic_linkinvent_7_9_3/rearranged_h_0029.sdf

> <i_m_source_file_index>
47

> <r_mmod_Potential_Energy-OPLS-2005>
558.416198730469

> <r_mmod_Stretch_Energy-OPLS-2005>
276.978302001953

> <r_mmod_Bend_Energy-OPLS-2005>
257.77783203125

> <r_mmod_Torsional_Energy-OPLS-2005>
290.246063232422

> <r_mmod_Improper_Torsional_Energy-OPLS-2005>
5.50232887268066

> <r_mmod_Van_der_Waal_Energy-OPLS-2005>
137.382019042969

> <r_mmod_Electrostatic_Energy-OPLS-2005>
-427.009918212891

> <r_mmod_Solvation_Energy-OPLS-2005>
-222.92414855957

> <b_mmod_Minimization_Converged-OPLS-2005>
0

> <r_mmod_RMS_Derivative-OPLS-2005>
0.511849045753479

$$$$
47
                    3D
 Structure written by MMmdl.
153161  0  0  1  0            999 V2000
  -30.5637  -14.8616   20.4225 C   0  0  0  0  0  0
  -30.4379  -12.5305   19.4777 C   0  0  0  0  0  0
  -29.5105  -12.5029   18.2408 C   0  0  0  0  0  0
  -28.0446  -12.3023   18.6669 C   0  0  0  0  0  0
  -27.6323  -13.2328   19.8383 C   0  0  2  0  0  0
  -28.6773  -13.2240   20.9738 C   0  0  0  0  0  0
  -25.2487  -13.8174   20.5718 C   0  0  0  0  0  0
  -24.1786  -13.0430   20.9259 C   0  0  0  0  0  0
  -24.6364  -11.6903   20.8758 C   0  0  0  0  0  0
  -23.9037  -10.4286   21.0405 C   0  0  0  0  0  0
  -24.3591   -9.4211   21.9187 C   0  0  0  0  0  0
  -23.6284   -8.2231   22.0745 C   0  0  0  0  0  0
  -22.4277   -8.0259   21.3528 C   0  0  0  0  0  0
  -21.9900   -9.0230   20.4632 C   0  0  0  0  0  0
  -22.7207  -10.2120   20.3050 C   0  0  0  0  0  0
  -21.6844   -6.0726   22.5280 C   0  0  0  0  0  0
  -21.4002   -6.5632   23.8213 C   0  0  0  0  0  0
  -21.3665   -5.6791   24.9181 C   0  0  0  0  0  0
  -21.6049   -4.3053   24.7230 C   0  0  0  0  0  0
  -21.8822   -3.8140   23.4356 C   0  0  0  0  0  0
  -21.9196   -4.6959   22.3411 C   0  0  0  0  0  0
  -22.7816  -13.5219   21.1924 C   0  0  0  0  0  0
  -22.1664   -4.2138   21.0993 F   0  0  0  0  0  0
  -21.5641   -3.4549   25.7746 F   0  0  0  0  0  0
  -29.9623  -13.6132   20.3793 N   0  0  0  0  0  0
  -26.2887  -12.9376   20.3237 N   0  0  0  0  0  0
  -25.9283  -11.6521   20.5717 N   0  0  0  0  0  0
  -22.0453  -12.8185   22.0457 N   0  0  0  0  0  0
  -25.4208  -15.1888   20.4131 N   0  0  0  0  0  0
  -31.7627  -14.9457   20.1424 O   0  0  0  0  0  0
  -21.6640   -6.8859   21.4231 O   0  0  0  0  0  0
  -22.3512  -14.5542   20.6795 O   0  0  0  0  0  0
  -24.6400  -31.8476   23.1919 C   0  0  0  0  0  0
  -25.9179  -32.4729   23.8299 C   0  0  1  0  0  0
  -27.2122  -27.1838   20.1483 C   0  0  0  0  0  0
  -25.5944  -33.8534   24.2221 N   0  0  0  0  0  0
  -23.4415  -30.4695   21.5362 C   0  0  2  0  0  0
  -24.8905  -28.9043   20.1115 C   0  0  0  0  0  0
  -22.7558  -29.4573   22.4875 C   0  0  0  0  0  0
  -18.0300  -28.1389   22.8482 C   0  0  0  0  0  0
  -24.1480  -36.7256   23.2644 C   0  0  0  0  0  0
  -25.9948  -30.7388   21.3818 C   0  0  0  0  0  0
  -26.0670  -29.3532   20.7268 C   0  0  0  0  0  0
  -27.2342  -28.5075   20.7311 C   0  0  0  0  0  0
  -26.0148  -26.8284   19.4929 C   0  0  0  0  0  0
  -24.8737  -27.6539   19.4789 C   0  0  0  0  0  0
  -23.6647  -29.7998   20.1545 C   0  0  0  0  0  0
  -25.4105  -36.3055   24.0330 C   0  0  1  0  0  0
  -20.5911  -28.3711   23.1235 C   0  0  2  0  0  0
  -20.6784  -26.9419   22.5398 C   0  0  0  0  0  0
  -19.5754  -26.6383   21.5208 C   0  0  0  0  0  0
  -18.1933  -26.7934   22.1620 C   0  0  0  0  0  0
  -19.1556  -28.8865   23.2856 C   0  0  0  0  0  0
  -18.9478  -30.1462   23.8884 C   0  0  0  0  0  0
  -17.6473  -30.6588   24.0560 C   0  0  0  0  0  0
  -25.9064  -34.9427   23.5079 C   0  0  0  0  0  0
  -16.5363  -29.9083   23.6336 C   0  0  0  0  0  0
  -16.7285  -28.6494   23.0367 C   0  0  0  0  0  0
  -26.4508  -31.6586   25.0727 C   0  0  0  0  0  0
  -25.3698  -31.3741   26.1428 C   0  0  0  0  0  0
  -27.0382  -30.3008   24.6263 C   0  0  0  0  0  0
  -27.6061  -32.4334   25.7496 C   0  0  0  0  0  0
  -27.5563  -37.1780   24.8472 C   0  0  0  0  0  0
  -21.4252  -29.3057   22.3634 N   0  0  0  0  0  0
  -26.4269  -37.3770   23.9428 N   0  0  0  0  0  0
  -24.7118  -31.0387   22.0926 N   0  0  0  0  0  0
  -23.4226  -28.8104   23.2997 O   0  0  0  0  0  0
  -28.2512  -26.2012   20.1722 O   0  0  0  0  0  0
  -26.5644  -34.8919   22.4664 O   0  0  0  0  0  0
  -23.5526  -32.1311   23.7169 O   0  0  0  0  0  0
  -29.1974  -22.5920   21.4609 C   0  0  0  0  0  0
  -28.5140  -23.3500   20.4548 C   0  0  0  0  0  0
  -28.1493  -22.5274   19.3350 C   0  0  0  0  0  0
  -28.9908  -20.3206   20.3503 C   0  0  0  0  0  0
  -29.4245  -21.1640   21.4202 C   0  0  0  0  0  0
  -28.3787  -21.0853   19.2884 C   0  0  0  0  0  0
  -27.3982  -23.1907   18.1882 C   0  0  0  0  0  0
  -28.9024  -18.6815   20.4655 C   0  0  0  0  0  0
  -27.9093  -24.8380   20.7814 C   0  0  0  0  0  0
  -30.1022  -17.5425   20.4022 C   0  0  0  0  0  0
  -29.7749  -16.0194   20.5613 N   0  0  0  0  0  0
  -30.1738  -20.4305   22.7929 Cl  0  0  0  0  0  0
  -27.7930  -20.2158   17.9087 Cl  0  0  0  0  0  0
  -31.4709  -12.6842   19.1627 H   0  0  0  0  0  0
  -30.4222  -11.5685   19.9925 H   0  0  0  0  0  0
  -29.8096  -11.6994   17.5670 H   0  0  0  0  0  0
  -29.6100  -13.4309   17.6741 H   0  0  0  0  0  0
  -27.9420  -11.2616   18.9769 H   0  0  0  0  0  0
  -27.3751  -12.4314   17.8159 H   0  0  0  0  0  0
  -27.6072  -14.2399   19.4214 H   0  0  0  0  0  0
  -28.7461  -12.2359   21.4329 H   0  0  0  0  0  0
  -28.3899  -13.9152   21.7680 H   0  0  0  0  0  0
  -25.2722   -9.5716   22.4784 H   0  0  0  0  0  0
  -24.0012   -7.4627   22.7453 H   0  0  0  0  0  0
  -21.0847   -8.8715   19.8929 H   0  0  0  0  0  0
  -22.3634  -10.9659   19.6173 H   0  0  0  0  0  0
  -21.1961   -7.6136   23.9706 H   0  0  0  0  0  0
  -21.1492   -6.0526   25.9082 H   0  0  0  0  0  0
  -22.0592   -2.7602   23.2858 H   0  0  0  0  0  0
  -22.4060  -11.9836   22.4835 H   0  0  0  0  0  0
  -21.1054  -13.1169   22.2624 H   0  0  0  0  0  0
  -24.6568  -15.8458   20.5301 H   0  0  0  0  0  0
  -26.2552  -15.6192   20.0373 H   0  0  0  0  0  0
  -26.7260  -32.5350   23.1040 H   0  0  0  0  0  0
  -25.0105  -33.9655   25.0381 H   0  0  0  0  0  0
  -22.7434  -31.2951   21.3824 H   0  0  0  0  0  0
  -23.3757  -35.9571   23.3293 H   0  0  0  0  0  0
  -24.3565  -36.8888   22.2062 H   0  0  0  0  0  0
  -23.7200  -37.6439   23.6673 H   0  0  0  0  0  0
  -26.1437  -31.4924   20.6061 H   0  0  0  0  0  0
  -26.8695  -30.7916   22.0180 H   0  0  0  0  0  0
  -28.1315  -28.8431   21.2312 H   0  0  0  0  0  0
  -25.9412  -25.8682   19.0044 H   0  0  0  0  0  0
  -23.9777  -27.3061   18.9834 H   0  0  0  0  0  0
  -23.7949  -30.5720   19.3955 H   0  0  0  0  0  0
  -22.7819  -29.2365   19.8464 H   0  0  0  0  0  0
  -25.1290  -36.1889   25.0816 H   0  0  0  0  0  0
  -21.0005  -28.3285   24.1351 H   0  0  0  0  0  0
  -20.5671  -26.2328   23.3617 H   0  0  0  0  0  0
  -21.6645  -26.7426   22.1188 H   0  0  0  0  0  0
  -19.6920  -25.6292   21.1239 H   0  0  0  0  0  0
  -19.6677  -27.3192   20.6734 H   0  0  0  0  0  0
  -17.4204  -26.6677   21.4026 H   0  0  0  0  0  0
  -18.0328  -26.0078   22.9014 H   0  0  0  0  0  0
  -19.7953  -30.7276   24.2251 H   0  0  0  0  0  0
  -17.5029  -31.6268   24.5164 H   0  0  0  0  0  0
  -15.5363  -30.2985   23.7669 H   0  0  0  0  0  0
  -15.8680  -28.0808   22.7108 H   0  0  0  0  0  0
  -24.5890  -30.7089   25.7728 H   0  0  0  0  0  0
  -24.8872  -32.2913   26.4823 H   0  0  0  0  0  0
  -25.7979  -30.8924   27.0230 H   0  0  0  0  0  0
  -26.2993  -29.6736   24.1269 H   0  0  0  0  0  0
  -27.4043  -29.7297   25.4805 H   0  0  0  0  0  0
  -27.8874  -30.4298   23.9545 H   0  0  0  0  0  0
  -27.2688  -33.3666   26.2012 H   0  0  0  0  0  0
  -28.3889  -32.6832   25.0324 H   0  0  0  0  0  0
  -28.0711  -31.8496   26.5451 H   0  0  0  0  0  0
  -28.2584  -38.0083   24.7537 H   0  0  0  0  0  0
  -28.1051  -36.2610   24.6263 H   0  0  0  0  0  0
  -27.2288  -37.1392   25.8879 H   0  0  0  0  0  0
  -20.9462  -29.8793   21.6829 H   0  0  0  0  0  0
  -26.0139  -38.2832   24.1452 H   0  0  0  0  0  0
  -29.4859  -23.1082   22.3648 H   0  0  0  0  0  0
  -26.3313  -22.9761   18.2577 H   0  0  0  0  0  0
  -27.7579  -22.8409   17.2207 H   0  0  0  0  0  0
  -27.5257  -24.2720   18.1881 H   0  0  0  0  0  0
  -28.1565  -18.3611   19.7408 H   0  0  0  0  0  0
  -28.3987  -18.5198   21.4195 H   0  0  0  0  0  0
  -28.0966  -24.9839   21.8458 H   0  0  0  0  0  0
  -26.8304  -24.6995   20.7413 H   0  0  0  0  0  0
  -30.8395  -17.7882   21.1672 H   0  0  0  0  0  0
  -30.6257  -17.6599   19.4522 H   0  0  0  0  0  0
  -28.8046  -15.8202   20.7537 H   0  0  0  0  0  0
  1 25  1  0  0  0
  1 30  2  0  0  0
  1 81  1  0  0  0
  2  3  1  0  0  0
  2 25  1  0  0  0
  2 84  1  0  0  0
  2 85  1  0  0  0
  3  4  1  0  0  0
  3 86  1  0  0  0
  3 87  1  0  0  0
  4  5  1  0  0  0
  4 88  1  0  0  0
  4 89  1  0  0  0
  5  6  1  0  0  0
  5 26  1  0  0  0
  5 90  1  0  0  0
  6 25  1  0  0  0
  6 91  1  0  0  0
  6 92  1  0  0  0
  7  8  2  0  0  0
  7 26  1  0  0  0
  7 29  1  0  0  0
  8  9  1  0  0  0
  8 22  1  0  0  0
  9 10  1  0  0  0
  9 27  2  0  0  0
 10 11  2  0  0  0
 10 15  1  0  0  0
 11 12  1  0  0  0
 11 93  1  0  0  0
 12 13  2  0  0  0
 12 94  1  0  0  0
 13 14  1  0  0  0
 13 31  1  0  0  0
 14 15  2  0  0  0
 14 95  1  0  0  0
 15 96  1  0  0  0
 16 17  2  0  0  0
 16 21  1  0  0  0
 16 31  1  0  0  0
 17 18  1  0  0  0
 17 97  1  0  0  0
 18 19  2  0  0  0
 18 98  1  0  0  0
 19 20  1  0  0  0
 19 24  1  0  0  0
 20 21  2  0  0  0
 20 99  1  0  0  0
 21 23  1  0  0  0
 22 28  1  0  0  0
 22 32  2  0  0  0
 26 27  1  0  0  0
 28100  1  0  0  0
 28101  1  0  0  0
 29102  1  0  0  0
 29103  1  0  0  0
 33 34  1  0  0  0
 33 66  1  0  0  0
 33 70  2  0  0  0
 34 36  1  0  0  0
 34 59  1  0  0  0
 34104  1  0  0  0
 35 44  2  0  0  0
 35 45  1  0  0  0
 35 68  1  0  0  0
 36 56  1  0  0  0
 36105  1  0  0  0
 37 39  1  0  0  0
 37 47  1  0  0  0
 37 66  1  0  0  0
 37106  1  0  0  0
 38 43  2  0  0  0
 38 46  1  0  0  0
 38 47  1  0  0  0
 39 64  1  0  0  0
 39 67  2  0  0  0
 40 52  1  0  0  0
 40 53  2  0  0  0
 40 58  1  0  0  0
 41107  1  0  0  0
 41108  1  0  0  0
 41109  1  0  0  0
 41 48  1  0  0  0
 42 43  1  0  0  0
 42 66  1  0  0  0
 42110  1  0  0  0
 42111  1  0  0  0
 43 44  1  0  0  0
 44112  1  0  0  0
 45 46  2  0  0  0
 45113  1  0  0  0
 46114  1  0  0  0
 47115  1  0  0  0
 47116  1  0  0  0
 48 56  1  0  0  0
 48 65  1  0  0  0
 48117  1  0  0  0
 49 50  1  0  0  0
 49 53  1  0  0  0
 49 64  1  0  0  0
 49118  1  0  0  0
 50 51  1  0  0  0
 50119  1  0  0  0
 50120  1  0  0  0
 51 52  1  0  0  0
 51121  1  0  0  0
 51122  1  0  0  0
 52123  1  0  0  0
 52124  1  0  0  0
 53 54  1  0  0  0
 54 55  2  0  0  0
 54125  1  0  0  0
 55 57  1  0  0  0
 55126  1  0  0  0
 56 69  2  0  0  0
 57 58  2  0  0  0
 57127  1  0  0  0
 58128  1  0  0  0
 59 60  1  0  0  0
 59 61  1  0  0  0
 59 62  1  0  0  0
 60129  1  0  0  0
 60130  1  0  0  0
 60131  1  0  0  0
 61132  1  0  0  0
 61133  1  0  0  0
 61134  1  0  0  0
 62135  1  0  0  0
 62136  1  0  0  0
 62137  1  0  0  0
 63 65  1  0  0  0
 63138  1  0  0  0
 63139  1  0  0  0
 63140  1  0  0  0
 64141  1  0  0  0
 65142  1  0  0  0
 68 79  1  0  0  0
 71 72  2  0  0  0
 71 75  1  0  0  0
 71143  1  0  0  0
 72 73  1  0  0  0
 72 79  1  0  0  0
 73 76  2  0  0  0
 73 77  1  0  0  0
 74 75  2  0  0  0
 74 76  1  0  0  0
 74 78  1  0  0  0
 75 82  1  0  0  0
 76 83  1  0  0  0
 77144  1  0  0  0
 77145  1  0  0  0
 77146  1  0  0  0
 78 80  1  0  0  0
 78147  1  0  0  0
 78148  1  0  0  0
 79149  1  0  0  0
 79150  1  0  0  0
 80 81  1  0  0  0
 80151  1  0  0  0
 80152  1  0  0  0
 81153  1  0  0  0
M  ISO  4   1 100  68 101  79 101  81 100
M  END
> <chiral flag>
0

> <version>
0

> <s_m_source_file>
/data/baiqing/PycharmProjects/Reinvent-master-3.2/result/LINK_invent/BTK/process_docking_weight1_custom_sum_contain_oxygen_bond_distance_aromatic_linkinvent_7_9_3/rearranged_h_0029.sdf

> <i_m_source_file_index>
48

> <r_mmod_Potential_Energy-OPLS-2005>
351.733276367188

> <r_mmod_Stretch_Energy-OPLS-2005>
189.289901733398

> <r_mmod_Bend_Energy-OPLS-2005>
224.07568359375

> <r_mmod_Torsional_Energy-OPLS-2005>
248.185424804688

> <r_mmod_Improper_Torsional_Energy-OPLS-2005>
10.2483720779419

> <r_mmod_Van_der_Waal_Energy-OPLS-2005>
134.589431762695

> <r_mmod_Electrostatic_Energy-OPLS-2005>
-392.769927978516

> <r_mmod_Solvation_Energy-OPLS-2005>
-209.239517211914

> <b_mmod_Minimization_Converged-OPLS-2005>
0

> <r_mmod_RMS_Derivative-OPLS-2005>
1.9970338344574

$$$$
48
                    3D
 Structure written by MMmdl.
147155  0  0  1  0            999 V2000
  -30.3617  -15.4136   20.2868 C   0  0  0  0  0  0
  -30.4423  -12.9206   19.5122 C   0  0  0  0  0  0
  -29.5441  -12.6061   18.2867 C   0  0  0  0  0  0
  -28.1020  -12.2959   18.7241 C   0  0  0  0  0  0
  -27.6047  -13.2865   19.8066 C   0  0  2  0  0  0
  -28.6341  -13.5223   20.9345 C   0  0  0  0  0  0
  -25.2367  -13.8268   20.5715 C   0  0  0  0  0  0
  -24.1732  -13.0441   20.9254 C   0  0  0  0  0  0
  -24.6381  -11.6940   20.8751 C   0  0  0  0  0  0
  -23.9068  -10.4307   21.0408 C   0  0  0  0  0  0
  -24.3620   -9.4225   21.9182 C   0  0  0  0  0  0
  -23.6303   -8.2259   22.0746 C   0  0  0  0  0  0
  -22.4283   -8.0283   21.3541 C   0  0  0  0  0  0
  -21.9915   -9.0274   20.4666 C   0  0  0  0  0  0
  -22.7231  -10.2151   20.3079 C   0  0  0  0  0  0
  -21.6853   -6.0733   22.5273 C   0  0  0  0  0  0
  -21.4016   -6.5636   23.8201 C   0  0  0  0  0  0
  -21.3660   -5.6778   24.9174 C   0  0  0  0  0  0
  -21.6047   -4.3050   24.7210 C   0  0  0  0  0  0
  -21.8825   -3.8129   23.4336 C   0  0  0  0  0  0
  -21.9190   -4.6963   22.3381 C   0  0  0  0  0  0
  -22.7749  -13.5220   21.1867 C   0  0  0  0  0  0
  -22.1660   -4.2150   21.0958 F   0  0  0  0  0  0
  -21.5641   -3.4522   25.7726 F   0  0  0  0  0  0
  -29.8451  -14.0732   20.2926 N   0  0  0  0  0  0
  -26.2791  -12.9557   20.3129 N   0  0  0  0  0  0
  -25.9320  -11.6640   20.5667 N   0  0  0  0  0  0
  -22.0355  -12.8281   22.0446 N   0  0  0  0  0  0
  -25.4014  -15.2006   20.4126 N   0  0  0  0  0  0
  -31.5856  -15.4186   20.0792 O   0  0  0  0  0  0
  -21.6637   -6.8887   21.4233 O   0  0  0  0  0  0
  -22.3445  -14.5488   20.6625 O   0  0  0  0  0  0
  -24.6688  -31.8183   23.1680 C   0  0  0  0  0  0
  -25.9364  -32.4556   23.8149 C   0  0  1  0  0  0
  -27.2176  -26.8701   20.1630 C   0  0  0  0  0  0
  -25.6004  -33.8376   24.2044 N   0  0  0  0  0  0
  -23.4823  -30.4293   21.5195 C   0  0  2  0  0  0
  -24.9341  -28.8060   20.1057 C   0  0  0  0  0  0
  -22.7688  -29.4410   22.4785 C   0  0  0  0  0  0
  -18.0300  -28.1399   22.8440 C   0  0  0  0  0  0
  -24.1503  -36.7177   23.2649 C   0  0  0  0  0  0
  -26.0560  -30.6034   21.4056 C   0  0  0  0  0  0
  -26.1212  -29.1904   20.7402 C   0  0  0  0  0  0
  -27.2511  -28.2436   20.7462 C   0  0  0  0  0  0
  -26.0003  -26.6567   19.4749 C   0  0  0  0  0  0
  -24.9028  -27.5622   19.4526 C   0  0  0  0  0  0
  -23.7205  -29.7419   20.1460 C   0  0  0  0  0  0
  -25.4156  -36.2945   24.0297 C   0  0  1  0  0  0
  -20.5930  -28.3743   23.1185 C   0  0  2  0  0  0
  -20.6780  -26.9407   22.5437 C   0  0  0  0  0  0
  -19.5788  -26.6351   21.5211 C   0  0  0  0  0  0
  -18.1948  -26.7938   22.1578 C   0  0  0  0  0  0
  -19.1565  -28.8894   23.2793 C   0  0  0  0  0  0
  -18.9474  -30.1477   23.8835 C   0  0  0  0  0  0
  -17.6477  -30.6602   24.0524 C   0  0  0  0  0  0
  -25.9112  -34.9331   23.4996 C   0  0  0  0  0  0
  -16.5360  -29.9079   23.6340 C   0  0  0  0  0  0
  -16.7284  -28.6488   23.0368 C   0  0  0  0  0  0
  -26.4580  -31.6525   25.0714 C   0  0  0  0  0  0
  -25.3682  -31.3830   26.1360 C   0  0  0  0  0  0
  -27.0466  -30.2859   24.6544 C   0  0  0  0  0  0
  -27.6083  -32.4346   25.7499 C   0  0  0  0  0  0
  -27.5594  -37.1753   24.8461 C   0  0  0  0  0  0
  -21.4342  -29.3015   22.3533 N   0  0  0  0  0  0
  -26.4295  -37.3694   23.9406 N   0  0  0  0  0  0
  -24.7581  -30.9795   22.0836 N   0  0  0  0  0  0
  -23.4210  -28.7997   23.3060 O   0  0  0  0  0  0
  -28.2106  -25.7350   20.2550 O   0  0  0  0  0  0
  -26.5721  -34.8878   22.4587 O   0  0  0  0  0  0
  -23.5761  -32.1190   23.6744 O   0  0  0  0  0  0
  -28.8980  -19.4918   20.7258 C   0  0  0  0  0  0
  -29.5610  -18.3258   20.1195 C   0  0  0  0  0  0
  -30.1618  -19.1180   19.0596 C   0  0  0  0  0  0
  -31.0210  -18.6279   17.9187 C   0  0  0  0  0  0
  -28.8270  -22.5248   20.5698 C   0  0  0  0  0  0
  -28.0887  -24.0850   19.9074 C   0  0  0  0  0  0
  -29.8962  -20.4817   19.0890 N   0  0  0  0  0  0
  -29.0610  -20.8724   20.1196 N   0  0  0  0  0  0
  -29.5500  -16.6850   20.3806 N   0  0  0  0  0  0
  -31.4386  -13.1749   19.1486 H   0  0  0  0  0  0
  -30.5774  -12.0448   20.1463 H   0  0  0  0  0  0
  -29.9633  -11.7772   17.7129 H   0  0  0  0  0  0
  -29.5412  -13.4657   17.6144 H   0  0  0  0  0  0
  -28.0872  -11.2830   19.1242 H   0  0  0  0  0  0
  -27.4332  -12.2930   17.8627 H   0  0  0  0  0  0
  -27.4957  -14.2376   19.2791 H   0  0  0  0  0  0
  -28.8373  -12.6121   21.5007 H   0  0  0  0  0  0
  -28.2419  -14.2555   21.6427 H   0  0  0  0  0  0
  -25.2793   -9.5708   22.4709 H   0  0  0  0  0  0
  -24.0031   -7.4655   22.7464 H   0  0  0  0  0  0
  -21.0833   -8.8802   19.8983 H   0  0  0  0  0  0
  -22.3700  -10.9686   19.6176 H   0  0  0  0  0  0
  -21.2004   -7.6146   23.9716 H   0  0  0  0  0  0
  -21.1481   -6.0500   25.9072 H   0  0  0  0  0  0
  -22.0601   -2.7595   23.2806 H   0  0  0  0  0  0
  -22.3954  -12.0058   22.5037 H   0  0  0  0  0  0
  -21.0940  -13.1357   22.2512 H   0  0  0  0  0  0
  -24.6283  -15.8517   20.5143 H   0  0  0  0  0  0
  -26.2386  -15.6330   20.0442 H   0  0  0  0  0  0
  -26.7449  -32.5065   23.0869 H   0  0  0  0  0  0
  -25.0089  -33.9442   25.0154 H   0  0  0  0  0  0
  -22.7957  -31.2632   21.3510 H   0  0  0  0  0  0
  -23.3794  -35.9477   23.3299 H   0  0  0  0  0  0
  -24.3553  -36.8842   22.2061 H   0  0  0  0  0  0
  -23.7238  -37.6353   23.6716 H   0  0  0  0  0  0
  -26.2559  -31.3540   20.6384 H   0  0  0  0  0  0
  -26.9042  -30.6452   22.0773 H   0  0  0  0  0  0
  -28.1424  -28.5382   21.2794 H   0  0  0  0  0  0
  -25.8596  -25.7103   18.9744 H   0  0  0  0  0  0
  -24.0010  -27.2649   18.9324 H   0  0  0  0  0  0
  -23.8680  -30.5101   19.3860 H   0  0  0  0  0  0
  -22.8265  -29.1993   19.8324 H   0  0  0  0  0  0
  -25.1363  -36.1735   25.0789 H   0  0  0  0  0  0
  -20.9990  -28.3371   24.1321 H   0  0  0  0  0  0
  -20.5601  -26.2375   23.3694 H   0  0  0  0  0  0
  -21.6660  -26.7366   22.1301 H   0  0  0  0  0  0
  -19.6957  -25.6237   21.1298 H   0  0  0  0  0  0
  -19.6762  -27.3111   20.6704 H   0  0  0  0  0  0
  -17.4244  -26.6672   21.3952 H   0  0  0  0  0  0
  -18.0305  -26.0086   22.8968 H   0  0  0  0  0  0
  -19.7951  -30.7273   24.2221 H   0  0  0  0  0  0
  -17.5028  -31.6280   24.5134 H   0  0  0  0  0  0
  -15.5354  -30.2954   23.7728 H   0  0  0  0  0  0
  -15.8667  -28.0776   22.7163 H   0  0  0  0  0  0
  -24.5902  -30.7118   25.7706 H   0  0  0  0  0  0
  -24.8809  -32.3028   26.4594 H   0  0  0  0  0  0
  -25.7886  -30.9155   27.0267 H   0  0  0  0  0  0
  -26.3147  -29.6524   24.1518 H   0  0  0  0  0  0
  -27.3878  -29.7264   25.5267 H   0  0  0  0  0  0
  -27.9146  -30.3982   24.0048 H   0  0  0  0  0  0
  -27.2665  -33.3702   26.1943 H   0  0  0  0  0  0
  -28.3941  -32.6824   25.0347 H   0  0  0  0  0  0
  -28.0696  -31.8556   26.5513 H   0  0  0  0  0  0
  -28.2627  -38.0040   24.7488 H   0  0  0  0  0  0
  -28.1074  -36.2568   24.6298 H   0  0  0  0  0  0
  -27.2302  -37.1419   25.8862 H   0  0  0  0  0  0
  -20.9648  -29.8670   21.6599 H   0  0  0  0  0  0
  -26.0150  -38.2764   24.1382 H   0  0  0  0  0  0
  -28.3024  -19.4569   21.6269 H   0  0  0  0  0  0
  -32.0755  -18.6096   18.1960 H   0  0  0  0  0  0
  -30.9351  -19.2826   17.0485 H   0  0  0  0  0  0
  -30.7405  -17.6254   17.5909 H   0  0  0  0  0  0
  -28.3781  -22.4489   21.5605 H   0  0  0  0  0  0
  -29.8470  -22.8476   20.7819 H   0  0  0  0  0  0
  -27.0153  -23.9005   19.9560 H   0  0  0  0  0  0
  -28.3011  -24.0523   18.8371 H   0  0  0  0  0  0
  -28.6267  -16.3985   20.6677 H   0  0  0  0  0  0
  1 25  1  0  0  0
  1 30  2  0  0  0
  1 79  1  0  0  0
  2  3  1  0  0  0
  2 25  1  0  0  0
  2 80  1  0  0  0
  2 81  1  0  0  0
  3  4  1  0  0  0
  3 82  1  0  0  0
  3 83  1  0  0  0
  4  5  1  0  0  0
  4 84  1  0  0  0
  4 85  1  0  0  0
  5  6  1  0  0  0
  5 26  1  0  0  0
  5 86  1  0  0  0
  6 25  1  0  0  0
  6 87  1  0  0  0
  6 88  1  0  0  0
  7  8  2  0  0  0
  7 26  1  0  0  0
  7 29  1  0  0  0
  8  9  1  0  0  0
  8 22  1  0  0  0
  9 10  1  0  0  0
  9 27  2  0  0  0
 10 11  2  0  0  0
 10 15  1  0  0  0
 11 12  1  0  0  0
 11 89  1  0  0  0
 12 13  2  0  0  0
 12 90  1  0  0  0
 13 14  1  0  0  0
 13 31  1  0  0  0
 14 15  2  0  0  0
 14 91  1  0  0  0
 15 92  1  0  0  0
 16 17  2  0  0  0
 16 21  1  0  0  0
 16 31  1  0  0  0
 17 18  1  0  0  0
 17 93  1  0  0  0
 18 19  2  0  0  0
 18 94  1  0  0  0
 19 20  1  0  0  0
 19 24  1  0  0  0
 20 21  2  0  0  0
 20 95  1  0  0  0
 21 23  1  0  0  0
 22 28  1  0  0  0
 22 32  2  0  0  0
 26 27  1  0  0  0
 28 96  1  0  0  0
 28 97  1  0  0  0
 29 98  1  0  0  0
 29 99  1  0  0  0
 33 34  1  0  0  0
 33 66  1  0  0  0
 33 70  2  0  0  0
 34 36  1  0  0  0
 34 59  1  0  0  0
 34100  1  0  0  0
 35 44  2  0  0  0
 35 45  1  0  0  0
 35 68  1  0  0  0
 36 56  1  0  0  0
 36101  1  0  0  0
 37 39  1  0  0  0
 37 47  1  0  0  0
 37 66  1  0  0  0
 37102  1  0  0  0
 38 43  2  0  0  0
 38 46  1  0  0  0
 38 47  1  0  0  0
 39 64  1  0  0  0
 39 67  2  0  0  0
 40 52  1  0  0  0
 40 53  2  0  0  0
 40 58  1  0  0  0
 41103  1  0  0  0
 41104  1  0  0  0
 41105  1  0  0  0
 41 48  1  0  0  0
 42 43  1  0  0  0
 42 66  1  0  0  0
 42106  1  0  0  0
 42107  1  0  0  0
 43 44  1  0  0  0
 44108  1  0  0  0
 45 46  2  0  0  0
 45109  1  0  0  0
 46110  1  0  0  0
 47111  1  0  0  0
 47112  1  0  0  0
 48 56  1  0  0  0
 48 65  1  0  0  0
 48113  1  0  0  0
 49 50  1  0  0  0
 49 53  1  0  0  0
 49 64  1  0  0  0
 49114  1  0  0  0
 50 51  1  0  0  0
 50115  1  0  0  0
 50116  1  0  0  0
 51 52  1  0  0  0
 51117  1  0  0  0
 51118  1  0  0  0
 52119  1  0  0  0
 52120  1  0  0  0
 53 54  1  0  0  0
 54 55  2  0  0  0
 54121  1  0  0  0
 55 57  1  0  0  0
 55122  1  0  0  0
 56 69  2  0  0  0
 57 58  2  0  0  0
 57123  1  0  0  0
 58124  1  0  0  0
 59 60  1  0  0  0
 59 61  1  0  0  0
 59 62  1  0  0  0
 60125  1  0  0  0
 60126  1  0  0  0
 60127  1  0  0  0
 61128  1  0  0  0
 61129  1  0  0  0
 61130  1  0  0  0
 62131  1  0  0  0
 62132  1  0  0  0
 62133  1  0  0  0
 63 65  1  0  0  0
 63134  1  0  0  0
 63135  1  0  0  0
 63136  1  0  0  0
 64137  1  0  0  0
 65138  1  0  0  0
 68 76  1  0  0  0
 71 72  2  0  0  0
 71 78  1  0  0  0
 71139  1  0  0  0
 72 73  1  0  0  0
 72 79  1  0  0  0
 73 74  1  0  0  0
 73 77  2  0  0  0
 74140  1  0  0  0
 74141  1  0  0  0
 74142  1  0  0  0
 75 76  1  0  0  0
 75 78  1  0  0  0
 75143  1  0  0  0
 75144  1  0  0  0
 76145  1  0  0  0
 76146  1  0  0  0
 77 78  1  0  0  0
 79147  1  0  0  0
M  ISO  4   1 100  68 101  76 101  79 100
M  END
> <chiral flag>
0

> <version>
0

> <s_m_source_file>
/data/baiqing/PycharmProjects/Reinvent-master-3.2/result/LINK_invent/BTK/process_docking_weight1_custom_sum_contain_oxygen_bond_distance_aromatic_linkinvent_7_9_3/rearranged_h_0029.sdf

> <i_m_source_file_index>
49

> <r_mmod_Potential_Energy-OPLS-2005>
1540.00366210938

> <r_mmod_Stretch_Energy-OPLS-2005>
698.827209472656

> <r_mmod_Bend_Energy-OPLS-2005>
513.888122558594

> <r_mmod_Torsional_Energy-OPLS-2005>
240.371505737305

> <r_mmod_Improper_Torsional_Energy-OPLS-2005>
5.31313371658325

> <r_mmod_Van_der_Waal_Energy-OPLS-2005>
103.272994995117

> <r_mmod_Electrostatic_Energy-OPLS-2005>
-389.005981445312

> <r_mmod_Solvation_Energy-OPLS-2005>
-233.686569213867

> <b_mmod_Minimization_Converged-OPLS-2005>
0

> <r_mmod_RMS_Derivative-OPLS-2005>
4.71791362762451

$$$$
49
                    3D
 Structure written by MMmdl.
151159  0  0  1  0            999 V2000
  -30.3746  -15.3520   20.3739 C   0  0  0  0  0  0
  -30.4403  -12.8769   19.5205 C   0  0  0  0  0  0
  -29.5384  -12.5953   18.2907 C   0  0  0  0  0  0
  -28.0913  -12.2955   18.7223 C   0  0  0  0  0  0
  -27.6048  -13.2757   19.8186 C   0  0  2  0  0  0
  -28.6362  -13.4777   20.9472 C   0  0  0  0  0  0
  -25.2366  -13.8229   20.5765 C   0  0  0  0  0  0
  -24.1718  -13.0426   20.9255 C   0  0  0  0  0  0
  -24.6366  -11.6919   20.8751 C   0  0  0  0  0  0
  -23.9068  -10.4284   21.0405 C   0  0  0  0  0  0
  -24.3619   -9.4212   21.9189 C   0  0  0  0  0  0
  -23.6294   -8.2242   22.0759 C   0  0  0  0  0  0
  -22.4283   -8.0273   21.3539 C   0  0  0  0  0  0
  -21.9914   -9.0243   20.4644 C   0  0  0  0  0  0
  -22.7238  -10.2127   20.3056 C   0  0  0  0  0  0
  -21.6855   -6.0735   22.5274 C   0  0  0  0  0  0
  -21.4016   -6.5637   23.8212 C   0  0  0  0  0  0
  -21.3664   -5.6794   24.9172 C   0  0  0  0  0  0
  -21.6043   -4.3051   24.7229 C   0  0  0  0  0  0
  -21.8816   -3.8143   23.4347 C   0  0  0  0  0  0
  -21.9194   -4.6956   22.3406 C   0  0  0  0  0  0
  -22.7743  -13.5190   21.1901 C   0  0  0  0  0  0
  -22.1663   -4.2141   21.0983 F   0  0  0  0  0  0
  -21.5629   -3.4539   25.7744 F   0  0  0  0  0  0
  -29.8459  -14.0231   20.3060 N   0  0  0  0  0  0
  -26.2782  -12.9496   20.3212 N   0  0  0  0  0  0
  -25.9304  -11.6601   20.5704 N   0  0  0  0  0  0
  -22.0396  -12.8177   22.0453 N   0  0  0  0  0  0
  -25.3997  -15.1969   20.4247 N   0  0  0  0  0  0
  -31.6093  -15.3622   20.2356 O   0  0  0  0  0  0
  -21.6636   -6.8869   21.4242 O   0  0  0  0  0  0
  -22.3440  -14.5494   20.6733 O   0  0  0  0  0  0
  -24.6711  -31.8131   23.1626 C   0  0  0  0  0  0
  -25.9372  -32.4502   23.8128 C   0  0  1  0  0  0
  -27.2299  -26.8613   20.1946 C   0  0  0  0  0  0
  -25.5997  -33.8318   24.2013 N   0  0  0  0  0  0
  -23.4918  -30.4228   21.5085 C   0  0  2  0  0  0
  -24.9478  -28.7911   20.1153 C   0  0  0  0  0  0
  -22.7729  -29.4379   22.4702 C   0  0  0  0  0  0
  -18.0341  -28.1406   22.8448 C   0  0  0  0  0  0
  -24.1491  -36.7168   23.2654 C   0  0  0  0  0  0
  -26.0655  -30.6015   21.4008 C   0  0  0  0  0  0
  -26.1341  -29.1820   20.7463 C   0  0  0  0  0  0
  -27.2723  -28.2443   20.7491 C   0  0  0  0  0  0
  -26.0083  -26.6351   19.5192 C   0  0  0  0  0  0
  -24.9131  -27.5402   19.4772 C   0  0  0  0  0  0
  -23.7398  -29.7281   20.1397 C   0  0  0  0  0  0
  -25.4129  -36.2887   24.0284 C   0  0  1  0  0  0
  -20.5968  -28.3757   23.1129 C   0  0  2  0  0  0
  -20.6790  -26.9425   22.5375 C   0  0  0  0  0  0
  -19.5757  -26.6361   21.5187 C   0  0  0  0  0  0
  -18.1950  -26.7931   22.1609 C   0  0  0  0  0  0
  -19.1608  -28.8902   23.2784 C   0  0  0  0  0  0
  -18.9521  -30.1487   23.8836 C   0  0  0  0  0  0
  -17.6511  -30.6589   24.0536 C   0  0  0  0  0  0
  -25.9110  -34.9283   23.4972 C   0  0  0  0  0  0
  -16.5391  -29.9075   23.6332 C   0  0  0  0  0  0
  -16.7326  -28.6499   23.0358 C   0  0  0  0  0  0
  -26.4594  -31.6504   25.0708 C   0  0  0  0  0  0
  -25.3715  -31.3780   26.1365 C   0  0  0  0  0  0
  -27.0500  -30.2847   24.6530 C   0  0  0  0  0  0
  -27.6034  -32.4378   25.7531 C   0  0  0  0  0  0
  -27.5544  -37.1738   24.8471 C   0  0  0  0  0  0
  -21.4386  -29.3037   22.3474 N   0  0  0  0  0  0
  -26.4252  -37.3644   23.9418 N   0  0  0  0  0  0
  -24.7641  -30.9754   22.0765 N   0  0  0  0  0  0
  -23.4237  -28.7928   23.2964 O   0  0  0  0  0  0
  -28.2431  -25.7416   20.2207 O   0  0  0  0  0  0
  -26.5716  -34.8837   22.4570 O   0  0  0  0  0  0
  -23.5766  -32.1113   23.6696 O   0  0  0  0  0  0
  -29.0747  -19.4900   19.7339 C   0  0  0  0  0  0
  -29.5621  -18.2353   20.4932 C   0  0  0  0  0  0
  -29.1266  -20.8220   20.3779 C   0  0  0  0  0  0
  -29.8504  -18.9198   21.6513 C   0  0  0  0  0  0
  -29.2999  -22.6659   18.4768 C   0  0  0  0  0  0
  -29.8384  -21.2016   22.7687 C   0  0  0  0  0  0
  -28.0470  -24.0710   20.3691 C   0  0  0  0  0  0
  -29.0522  -22.5754   19.9888 C   0  0  1  0  0  0
  -29.5991  -20.3378   21.6269 N   0  0  0  0  0  0
  -29.5461  -16.6016   20.2915 N   0  0  0  0  0  0
  -30.4271  -18.1662   23.0889 Cl  0  0  0  0  0  0
  -31.4478  -13.1192   19.1810 H   0  0  0  0  0  0
  -30.5449  -11.9871   20.1442 H   0  0  0  0  0  0
  -29.9396  -11.7676   17.7044 H   0  0  0  0  0  0
  -29.5446  -13.4688   17.6366 H   0  0  0  0  0  0
  -28.0634  -11.2748   19.1066 H   0  0  0  0  0  0
  -27.4219  -12.3178   17.8608 H   0  0  0  0  0  0
  -27.5073  -14.2343   19.3083 H   0  0  0  0  0  0
  -28.8323  -12.5473   21.4830 H   0  0  0  0  0  0
  -28.2575  -14.1876   21.6857 H   0  0  0  0  0  0
  -25.2759   -9.5697   22.4771 H   0  0  0  0  0  0
  -23.9996   -7.4646   22.7489 H   0  0  0  0  0  0
  -21.0843   -8.8759   19.8959 H   0  0  0  0  0  0
  -22.3684  -10.9663   19.6165 H   0  0  0  0  0  0
  -21.2008   -7.6146   23.9711 H   0  0  0  0  0  0
  -21.1492   -6.0524   25.9075 H   0  0  0  0  0  0
  -22.0592   -2.7602   23.2852 H   0  0  0  0  0  0
  -22.4014  -11.9837   22.4836 H   0  0  0  0  0  0
  -21.1017  -13.1201   22.2660 H   0  0  0  0  0  0
  -24.6294  -15.8453   20.5473 H   0  0  0  0  0  0
  -26.2444  -15.6473   20.1021 H   0  0  0  0  0  0
  -26.7448  -32.4996   23.0858 H   0  0  0  0  0  0
  -25.0077  -33.9377   25.0106 H   0  0  0  0  0  0
  -22.8099  -31.2559   21.3260 H   0  0  0  0  0  0
  -23.3726  -35.9523   23.3297 H   0  0  0  0  0  0
  -24.3554  -36.8848   22.2069 H   0  0  0  0  0  0
  -23.7293  -37.6363   23.6749 H   0  0  0  0  0  0
  -26.2585  -31.3416   20.6247 H   0  0  0  0  0  0
  -26.9194  -30.6559   22.0668 H   0  0  0  0  0  0
  -28.1805  -28.5608   21.2428 H   0  0  0  0  0  0
  -25.8782  -25.6843   19.0225 H   0  0  0  0  0  0
  -24.0159  -27.2384   18.9550 H   0  0  0  0  0  0
  -23.9097  -30.4890   19.3775 H   0  0  0  0  0  0
  -22.8516  -29.1842   19.8152 H   0  0  0  0  0  0
  -25.1339  -36.1638   25.0768 H   0  0  0  0  0  0
  -21.0067  -28.3370   24.1254 H   0  0  0  0  0  0
  -20.5592  -26.2407   23.3646 H   0  0  0  0  0  0
  -21.6655  -26.7320   22.1236 H   0  0  0  0  0  0
  -19.6912  -25.6258   21.1270 H   0  0  0  0  0  0
  -19.6693  -27.3124   20.6678 H   0  0  0  0  0  0
  -17.4210  -26.6667   21.4021 H   0  0  0  0  0  0
  -18.0357  -26.0082   22.9021 H   0  0  0  0  0  0
  -19.8005  -30.7303   24.2188 H   0  0  0  0  0  0
  -17.5069  -31.6267   24.5157 H   0  0  0  0  0  0
  -15.5390  -30.2959   23.7691 H   0  0  0  0  0  0
  -15.8726  -28.0787   22.7105 H   0  0  0  0  0  0
  -24.5918  -30.7105   25.7704 H   0  0  0  0  0  0
  -24.8891  -32.2976   26.4666 H   0  0  0  0  0  0
  -25.7945  -30.9048   27.0238 H   0  0  0  0  0  0
  -26.3187  -29.6506   24.1515 H   0  0  0  0  0  0
  -27.3943  -29.7253   25.5244 H   0  0  0  0  0  0
  -27.9167  -30.3981   24.0018 H   0  0  0  0  0  0
  -27.2544  -33.3738   26.1923 H   0  0  0  0  0  0
  -28.3940  -32.6873   25.0436 H   0  0  0  0  0  0
  -28.0615  -31.8658   26.5622 H   0  0  0  0  0  0
  -28.2530  -38.0055   24.7453 H   0  0  0  0  0  0
  -28.1062  -36.2566   24.6358 H   0  0  0  0  0  0
  -27.2262  -37.1447   25.8875 H   0  0  0  0  0  0
  -20.9672  -29.8781   21.6624 H   0  0  0  0  0  0
  -26.0065  -38.2684   24.1433 H   0  0  0  0  0  0
  -28.7248  -19.4121   18.7142 H   0  0  0  0  0  0
  -30.1866  -22.0968   18.1982 H   0  0  0  0  0  0
  -29.4686  -23.6950   18.1554 H   0  0  0  0  0  0
  -28.4580  -22.2744   17.9077 H   0  0  0  0  0  0
  -30.8955  -21.4634   22.8206 H   0  0  0  0  0  0
  -29.5469  -20.7003   23.6933 H   0  0  0  0  0  0
  -29.2431  -22.1095   22.6828 H   0  0  0  0  0  0
  -27.8508  -23.9732   21.4383 H   0  0  0  0  0  0
  -27.0778  -23.8669   19.9178 H   0  0  0  0  0  0
  -29.9962  -22.9119   20.4180 H   0  0  0  0  0  0
  -28.5989  -16.3009   20.1215 H   0  0  0  0  0  0
  1 25  1  0  0  0
  1 30  2  0  0  0
  1 80  1  0  0  0
  2  3  1  0  0  0
  2 25  1  0  0  0
  2 82  1  0  0  0
  2 83  1  0  0  0
  3  4  1  0  0  0
  3 84  1  0  0  0
  3 85  1  0  0  0
  4  5  1  0  0  0
  4 86  1  0  0  0
  4 87  1  0  0  0
  5  6  1  0  0  0
  5 26  1  0  0  0
  5 88  1  0  0  0
  6 25  1  0  0  0
  6 89  1  0  0  0
  6 90  1  0  0  0
  7  8  2  0  0  0
  7 26  1  0  0  0
  7 29  1  0  0  0
  8  9  1  0  0  0
  8 22  1  0  0  0
  9 10  1  0  0  0
  9 27  2  0  0  0
 10 11  2  0  0  0
 10 15  1  0  0  0
 11 12  1  0  0  0
 11 91  1  0  0  0
 12 13  2  0  0  0
 12 92  1  0  0  0
 13 14  1  0  0  0
 13 31  1  0  0  0
 14 15  2  0  0  0
 14 93  1  0  0  0
 15 94  1  0  0  0
 16 17  2  0  0  0
 16 21  1  0  0  0
 16 31  1  0  0  0
 17 18  1  0  0  0
 17 95  1  0  0  0
 18 19  2  0  0  0
 18 96  1  0  0  0
 19 20  1  0  0  0
 19 24  1  0  0  0
 20 21  2  0  0  0
 20 97  1  0  0  0
 21 23  1  0  0  0
 22 28  1  0  0  0
 22 32  2  0  0  0
 26 27  1  0  0  0
 28 98  1  0  0  0
 28 99  1  0  0  0
 29100  1  0  0  0
 29101  1  0  0  0
 33 34  1  0  0  0
 33 66  1  0  0  0
 33 70  2  0  0  0
 34 36  1  0  0  0
 34 59  1  0  0  0
 34102  1  0  0  0
 35 44  2  0  0  0
 35 45  1  0  0  0
 35 68  1  0  0  0
 36 56  1  0  0  0
 36103  1  0  0  0
 37 39  1  0  0  0
 37 47  1  0  0  0
 37 66  1  0  0  0
 37104  1  0  0  0
 38 43  2  0  0  0
 38 46  1  0  0  0
 38 47  1  0  0  0
 39 64  1  0  0  0
 39 67  2  0  0  0
 40 52  1  0  0  0
 40 53  2  0  0  0
 40 58  1  0  0  0
 41105  1  0  0  0
 41106  1  0  0  0
 41107  1  0  0  0
 41 48  1  0  0  0
 42 43  1  0  0  0
 42 66  1  0  0  0
 42108  1  0  0  0
 42109  1  0  0  0
 43 44  1  0  0  0
 44110  1  0  0  0
 45 46  2  0  0  0
 45111  1  0  0  0
 46112  1  0  0  0
 47113  1  0  0  0
 47114  1  0  0  0
 48 56  1  0  0  0
 48 65  1  0  0  0
 48115  1  0  0  0
 49 50  1  0  0  0
 49 53  1  0  0  0
 49 64  1  0  0  0
 49116  1  0  0  0
 50 51  1  0  0  0
 50117  1  0  0  0
 50118  1  0  0  0
 51 52  1  0  0  0
 51119  1  0  0  0
 51120  1  0  0  0
 52121  1  0  0  0
 52122  1  0  0  0
 53 54  1  0  0  0
 54 55  2  0  0  0
 54123  1  0  0  0
 55 57  1  0  0  0
 55124  1  0  0  0
 56 69  2  0  0  0
 57 58  2  0  0  0
 57125  1  0  0  0
 58126  1  0  0  0
 59 60  1  0  0  0
 59 61  1  0  0  0
 59 62  1  0  0  0
 60127  1  0  0  0
 60128  1  0  0  0
 60129  1  0  0  0
 61130  1  0  0  0
 61131  1  0  0  0
 61132  1  0  0  0
 62133  1  0  0  0
 62134  1  0  0  0
 62135  1  0  0  0
 63 65  1  0  0  0
 63136  1  0  0  0
 63137  1  0  0  0
 63138  1  0  0  0
 64139  1  0  0  0
 65140  1  0  0  0
 68 77  1  0  0  0
 71 72  1  0  0  0
 71 73  2  0  0  0
 71141  1  0  0  0
 72 74  2  0  0  0
 72 80  1  0  0  0
 73 78  1  0  0  0
 73 79  1  0  0  0
 74 79  1  0  0  0
 74 81  1  0  0  0
 75142  1  0  0  0
 75143  1  0  0  0
 75144  1  0  0  0
 75 78  1  0  0  0
 76 79  1  0  0  0
 76145  1  0  0  0
 76146  1  0  0  0
 76147  1  0  0  0
 77 78  1  0  0  0
 77148  1  0  0  0
 77149  1  0  0  0
 78150  1  0  0  0
 80151  1  0  0  0
M  ISO  4   1 100  68 101  77 101  80 100
M  END
> <chiral flag>
0

> <version>
0

> <s_m_source_file>
/data/baiqing/PycharmProjects/Reinvent-master-3.2/result/LINK_invent/BTK/process_docking_weight1_custom_sum_contain_oxygen_bond_distance_aromatic_linkinvent_7_9_3/rearranged_h_0029.sdf

> <i_m_source_file_index>
50

> <r_mmod_Potential_Energy-OPLS-2005>
1515.14904785156

> <r_mmod_Stretch_Energy-OPLS-2005>
675.743286132812

> <r_mmod_Bend_Energy-OPLS-2005>
498.341094970703

> <r_mmod_Torsional_Energy-OPLS-2005>
262.822418212891

> <r_mmod_Improper_Torsional_Energy-OPLS-2005>
10.3113117218018

> <r_mmod_Van_der_Waal_Energy-OPLS-2005>
103.115653991699

> <r_mmod_Electrostatic_Energy-OPLS-2005>
-381.354431152344

> <r_mmod_Solvation_Energy-OPLS-2005>
-212.363311767578

> <b_mmod_Minimization_Converged-OPLS-2005>
0

> <r_mmod_RMS_Derivative-OPLS-2005>
3.3086895942688

$$$$
50
                    3D
 Structure written by MMmdl.
150158  0  0  1  0            999 V2000
  -30.4000  -15.3295   20.3519 C   0  0  0  0  0  0
  -30.4429  -12.8470   19.5487 C   0  0  0  0  0  0
  -29.5485  -12.5835   18.3078 C   0  0  0  0  0  0
  -28.0959  -12.3029   18.7282 C   0  0  0  0  0  0
  -27.6124  -13.2804   19.8267 C   0  0  2  0  0  0
  -28.6387  -13.4709   20.9660 C   0  0  0  0  0  0
  -25.2389  -13.8277   20.5778 C   0  0  0  0  0  0
  -24.1749  -13.0454   20.9271 C   0  0  0  0  0  0
  -24.6410  -11.6955   20.8763 C   0  0  0  0  0  0
  -23.9107  -10.4308   21.0426 C   0  0  0  0  0  0
  -24.3641   -9.4211   21.9196 C   0  0  0  0  0  0
  -23.6287   -8.2267   22.0773 C   0  0  0  0  0  0
  -22.4258   -8.0313   21.3576 C   0  0  0  0  0  0
  -21.9910   -9.0292   20.4686 C   0  0  0  0  0  0
  -22.7272  -10.2145   20.3092 C   0  0  0  0  0  0
  -21.6850   -6.0745   22.5286 C   0  0  0  0  0  0
  -21.4026   -6.5649   23.8223 C   0  0  0  0  0  0
  -21.3648   -5.6795   24.9176 C   0  0  0  0  0  0
  -21.6036   -4.3061   24.7211 C   0  0  0  0  0  0
  -21.8810   -3.8159   23.4333 C   0  0  0  0  0  0
  -21.9187   -4.6979   22.3391 C   0  0  0  0  0  0
  -22.7740  -13.5207   21.1887 C   0  0  0  0  0  0
  -22.1656   -4.2180   21.0956 F   0  0  0  0  0  0
  -21.5607   -3.4537   25.7722 F   0  0  0  0  0  0
  -29.8681  -14.0001   20.3481 N   0  0  0  0  0  0
  -26.2823  -12.9560   20.3239 N   0  0  0  0  0  0
  -25.9342  -11.6658   20.5708 N   0  0  0  0  0  0
  -22.0370  -12.8221   22.0447 N   0  0  0  0  0  0
  -25.4032  -15.2013   20.4227 N   0  0  0  0  0  0
  -31.6107  -15.3385   20.0742 O   0  0  0  0  0  0
  -21.6641   -6.8899   21.4256 O   0  0  0  0  0  0
  -22.3428  -14.5482   20.6691 O   0  0  0  0  0  0
  -24.6667  -31.8168   23.1665 C   0  0  0  0  0  0
  -25.9323  -32.4544   23.8155 C   0  0  1  0  0  0
  -27.2113  -26.8814   20.1831 C   0  0  0  0  0  0
  -25.5964  -33.8358   24.2044 N   0  0  0  0  0  0
  -23.4857  -30.4260   21.5168 C   0  0  2  0  0  0
  -24.9382  -28.8095   20.1081 C   0  0  0  0  0  0
  -22.7702  -29.4382   22.4767 C   0  0  0  0  0  0
  -18.0326  -28.1407   22.8450 C   0  0  0  0  0  0
  -24.1515  -36.7206   23.2652 C   0  0  0  0  0  0
  -26.0563  -30.6086   21.4065 C   0  0  0  0  0  0
  -26.1210  -29.1946   20.7500 C   0  0  0  0  0  0
  -27.2493  -28.2498   20.7672 C   0  0  0  0  0  0
  -26.0041  -26.6655   19.4818 C   0  0  0  0  0  0
  -24.9082  -27.5672   19.4543 C   0  0  0  0  0  0
  -23.7272  -29.7410   20.1427 C   0  0  0  0  0  0
  -25.4154  -36.2949   24.0296 C   0  0  1  0  0  0
  -20.5955  -28.3746   23.1178 C   0  0  2  0  0  0
  -20.6803  -26.9421   22.5400 C   0  0  0  0  0  0
  -19.5778  -26.6367   21.5211 C   0  0  0  0  0  0
  -18.1962  -26.7927   22.1618 C   0  0  0  0  0  0
  -19.1591  -28.8900   23.2795 C   0  0  0  0  0  0
  -18.9489  -30.1485   23.8835 C   0  0  0  0  0  0
  -17.6483  -30.6578   24.0550 C   0  0  0  0  0  0
  -25.9105  -34.9314   23.5005 C   0  0  0  0  0  0
  -16.5376  -29.9065   23.6332 C   0  0  0  0  0  0
  -16.7306  -28.6494   23.0339 C   0  0  0  0  0  0
  -26.4550  -31.6505   25.0702 C   0  0  0  0  0  0
  -25.3653  -31.3784   26.1357 C   0  0  0  0  0  0
  -27.0451  -30.2856   24.6485 C   0  0  0  0  0  0
  -27.6054  -32.4312   25.7490 C   0  0  0  0  0  0
  -27.5579  -37.1770   24.8460 C   0  0  0  0  0  0
  -21.4363  -29.3022   22.3532 N   0  0  0  0  0  0
  -26.4296  -37.3677   23.9380 N   0  0  0  0  0  0
  -24.7571  -30.9805   22.0827 N   0  0  0  0  0  0
  -23.4229  -28.7947   23.3021 O   0  0  0  0  0  0
  -28.1843  -25.7399   20.3003 O   0  0  0  0  0  0
  -26.5728  -34.8867   22.4616 O   0  0  0  0  0  0
  -23.5714  -32.1155   23.6730 O   0  0  0  0  0  0
  -28.9586  -22.5742   21.8706 C   0  0  0  0  0  0
  -28.8232  -21.1719   19.9184 C   0  0  0  0  0  0
  -28.6323  -22.6015   20.5024 C   0  0  0  0  0  0
  -29.3686  -21.3975   22.5659 C   0  0  0  0  0  0
  -29.2689  -19.8391   20.5969 C   0  0  0  0  0  0
  -29.4898  -20.0945   21.9763 C   0  0  0  0  0  0
  -29.7197  -21.5645   24.0358 C   0  0  0  0  0  0
  -29.7093  -18.2290   19.9835 C   0  0  0  0  0  0
  -27.9839  -24.1324   19.8926 C   0  0  0  0  0  0
  -29.6197  -16.6043   20.4683 N   0  0  0  0  0  0
  -29.9706  -18.7727   22.9862 Cl  0  0  0  0  0  0
  -31.4588  -13.0604   19.2144 H   0  0  0  0  0  0
  -30.5273  -11.9505   20.1645 H   0  0  0  0  0  0
  -29.9389  -11.7457   17.7261 H   0  0  0  0  0  0
  -29.5822  -13.4503   17.6465 H   0  0  0  0  0  0
  -28.0556  -11.2788   19.1031 H   0  0  0  0  0  0
  -27.4316  -12.3376   17.8650 H   0  0  0  0  0  0
  -27.5245  -14.2420   19.3230 H   0  0  0  0  0  0
  -28.8103  -12.5372   21.5035 H   0  0  0  0  0  0
  -28.2634  -14.1874   21.6973 H   0  0  0  0  0  0
  -25.2794   -9.5661   22.4760 H   0  0  0  0  0  0
  -23.9988   -7.4650   22.7469 H   0  0  0  0  0  0
  -21.0848   -8.8839   19.8980 H   0  0  0  0  0  0
  -22.3770  -10.9682   19.6196 H   0  0  0  0  0  0
  -21.2066   -7.6166   23.9734 H   0  0  0  0  0  0
  -21.1458   -6.0527   25.9076 H   0  0  0  0  0  0
  -22.0602   -2.7624   23.2826 H   0  0  0  0  0  0
  -22.3950  -11.9910   22.4921 H   0  0  0  0  0  0
  -21.0996  -13.1295   22.2608 H   0  0  0  0  0  0
  -24.6396  -15.8530   20.5699 H   0  0  0  0  0  0
  -26.2306  -15.6433   20.0430 H   0  0  0  0  0  0
  -26.7396  -32.5071   23.0872 H   0  0  0  0  0  0
  -24.9999  -33.9409   25.0120 H   0  0  0  0  0  0
  -22.7999  -31.2568   21.3429 H   0  0  0  0  0  0
  -23.3760  -35.9558   23.3302 H   0  0  0  0  0  0
  -24.3598  -36.8853   22.2071 H   0  0  0  0  0  0
  -23.7298  -37.6406   23.6714 H   0  0  0  0  0  0
  -26.2435  -31.3493   20.6289 H   0  0  0  0  0  0
  -26.9122  -30.6642   22.0661 H   0  0  0  0  0  0
  -28.1370  -28.5356   21.3115 H   0  0  0  0  0  0
  -25.8652  -25.7199   18.9777 H   0  0  0  0  0  0
  -24.0106  -27.2689   18.9303 H   0  0  0  0  0  0
  -23.8873  -30.5070   19.3827 H   0  0  0  0  0  0
  -22.8359  -29.1959   19.8260 H   0  0  0  0  0  0
  -25.1363  -36.1754   25.0784 H   0  0  0  0  0  0
  -21.0019  -28.3348   24.1314 H   0  0  0  0  0  0
  -20.5683  -26.2356   23.3640 H   0  0  0  0  0  0
  -21.6666  -26.7398   22.1210 H   0  0  0  0  0  0
  -19.6941  -25.6268   21.1267 H   0  0  0  0  0  0
  -19.6706  -27.3150   20.6720 H   0  0  0  0  0  0
  -17.4224  -26.6639   21.4033 H   0  0  0  0  0  0
  -18.0365  -26.0098   22.9043 H   0  0  0  0  0  0
  -19.7966  -30.7323   24.2172 H   0  0  0  0  0  0
  -17.5027  -31.6248   24.5165 H   0  0  0  0  0  0
  -15.5371  -30.2941   23.7695 H   0  0  0  0  0  0
  -15.8706  -28.0795   22.7081 H   0  0  0  0  0  0
  -24.5808  -30.7172   25.7653 H   0  0  0  0  0  0
  -24.8884  -32.3000   26.4704 H   0  0  0  0  0  0
  -25.7864  -30.8969   27.0191 H   0  0  0  0  0  0
  -26.3123  -29.6498   24.1502 H   0  0  0  0  0  0
  -27.3946  -29.7272   25.5181 H   0  0  0  0  0  0
  -27.9088  -30.4006   23.9933 H   0  0  0  0  0  0
  -27.2623  -33.3630   26.2004 H   0  0  0  0  0  0
  -28.3901  -32.6827   25.0338 H   0  0  0  0  0  0
  -28.0691  -31.8472   26.5452 H   0  0  0  0  0  0
  -28.2596  -38.0062   24.7474 H   0  0  0  0  0  0
  -28.1072  -36.2586   24.6336 H   0  0  0  0  0  0
  -27.2281  -37.1482   25.8857 H   0  0  0  0  0  0
  -20.9637  -29.8709   21.6647 H   0  0  0  0  0  0
  -26.0148  -38.2749   24.1325 H   0  0  0  0  0  0
  -28.8686  -23.5018   22.4190 H   0  0  0  0  0  0
  -28.6141  -21.0935   18.8606 H   0  0  0  0  0  0
  -29.6179  -22.5972   24.3716 H   0  0  0  0  0  0
  -30.7547  -21.2673   24.2025 H   0  0  0  0  0  0
  -29.0813  -20.9406   24.6625 H   0  0  0  0  0  0
  -30.7797  -18.3420   19.7997 H   0  0  0  0  0  0
  -29.2761  -18.2170   18.9838 H   0  0  0  0  0  0
  -26.9102  -23.9719   19.9919 H   0  0  0  0  0  0
  -28.1529  -24.0940   18.8182 H   0  0  0  0  0  0
  -28.6850  -16.3867   20.7805 H   0  0  0  0  0  0
  1 25  1  0  0  0
  1 30  2  0  0  0
  1 80  1  0  0  0
  2  3  1  0  0  0
  2 25  1  0  0  0
  2 82  1  0  0  0
  2 83  1  0  0  0
  3  4  1  0  0  0
  3 84  1  0  0  0
  3 85  1  0  0  0
  4  5  1  0  0  0
  4 86  1  0  0  0
  4 87  1  0  0  0
  5  6  1  0  0  0
  5 26  1  0  0  0
  5 88  1  0  0  0
  6 25  1  0  0  0
  6 89  1  0  0  0
  6 90  1  0  0  0
  7  8  2  0  0  0
  7 26  1  0  0  0
  7 29  1  0  0  0
  8  9  1  0  0  0
  8 22  1  0  0  0
  9 10  1  0  0  0
  9 27  2  0  0  0
 10 11  2  0  0  0
 10 15  1  0  0  0
 11 12  1  0  0  0
 11 91  1  0  0  0
 12 13  2  0  0  0
 12 92  1  0  0  0
 13 14  1  0  0  0
 13 31  1  0  0  0
 14 15  2  0  0  0
 14 93  1  0  0  0
 15 94  1  0  0  0
 16 17  2  0  0  0
 16 21  1  0  0  0
 16 31  1  0  0  0
 17 18  1  0  0  0
 17 95  1  0  0  0
 18 19  2  0  0  0
 18 96  1  0  0  0
 19 20  1  0  0  0
 19 24  1  0  0  0
 20 21  2  0  0  0
 20 97  1  0  0  0
 21 23  1  0  0  0
 22 28  1  0  0  0
 22 32  2  0  0  0
 26 27  1  0  0  0
 28 98  1  0  0  0
 28 99  1  0  0  0
 29100  1  0  0  0
 29101  1  0  0  0
 33 34  1  0  0  0
 33 66  1  0  0  0
 33 70  2  0  0  0
 34 36  1  0  0  0
 34 59  1  0  0  0
 34102  1  0  0  0
 35 44  2  0  0  0
 35 45  1  0  0  0
 35 68  1  0  0  0
 36 56  1  0  0  0
 36103  1  0  0  0
 37 39  1  0  0  0
 37 47  1  0  0  0
 37 66  1  0  0  0
 37104  1  0  0  0
 38 43  2  0  0  0
 38 46  1  0  0  0
 38 47  1  0  0  0
 39 64  1  0  0  0
 39 67  2  0  0  0
 40 52  1  0  0  0
 40 53  2  0  0  0
 40 58  1  0  0  0
 41105  1  0  0  0
 41106  1  0  0  0
 41107  1  0  0  0
 41 48  1  0  0  0
 42 43  1  0  0  0
 42 66  1  0  0  0
 42108  1  0  0  0
 42109  1  0  0  0
 43 44  1  0  0  0
 44110  1  0  0  0
 45 46  2  0  0  0
 45111  1  0  0  0
 46112  1  0  0  0
 47113  1  0  0  0
 47114  1  0  0  0
 48 56  1  0  0  0
 48 65  1  0  0  0
 48115  1  0  0  0
 49 50  1  0  0  0
 49 53  1  0  0  0
 49 64  1  0  0  0
 49116  1  0  0  0
 50 51  1  0  0  0
 50117  1  0  0  0
 50118  1  0  0  0
 51 52  1  0  0  0
 51119  1  0  0  0
 51120  1  0  0  0
 52121  1  0  0  0
 52122  1  0  0  0
 53 54  1  0  0  0
 54 55  2  0  0  0
 54123  1  0  0  0
 55 57  1  0  0  0
 55124  1  0  0  0
 56 69  2  0  0  0
 57 58  2  0  0  0
 57125  1  0  0  0
 58126  1  0  0  0
 59 60  1  0  0  0
 59 61  1  0  0  0
 59 62  1  0  0  0
 60127  1  0  0  0
 60128  1  0  0  0
 60129  1  0  0  0
 61130  1  0  0  0
 61131  1  0  0  0
 61132  1  0  0  0
 62133  1  0  0  0
 62134  1  0  0  0
 62135  1  0  0  0
 63 65  1  0  0  0
 63136  1  0  0  0
 63137  1  0  0  0
 63138  1  0  0  0
 64139  1  0  0  0
 65140  1  0  0  0
 68 79  1  0  0  0
 71 73  2  0  0  0
 71 74  1  0  0  0
 71141  1  0  0  0
 72 73  1  0  0  0
 72 75  2  0  0  0
 72142  1  0  0  0
 73 79  1  0  0  0
 74 76  2  0  0  0
 74 77  1  0  0  0
 75 76  1  0  0  0
 75 78  1  0  0  0
 76 81  1  0  0  0
 77143  1  0  0  0
 77144  1  0  0  0
 77145  1  0  0  0
 78 80  1  0  0  0
 78146  1  0  0  0
 78147  1  0  0  0
 79148  1  0  0  0
 79149  1  0  0  0
 80150  1  0  0  0
M  ISO  4   1 100  68 101  79 101  80 100
M  END
> <chiral flag>
0

> <version>
0

> <s_m_source_file>
/data/baiqing/PycharmProjects/Reinvent-master-3.2/result/LINK_invent/BTK/process_docking_weight1_custom_sum_contain_oxygen_bond_distance_aromatic_linkinvent_7_9_3/rearranged_h_0029.sdf

> <i_m_source_file_index>
51

> <r_mmod_Potential_Energy-OPLS-2005>
1394.60424804688

> <r_mmod_Stretch_Energy-OPLS-2005>
648.426452636719

> <r_mmod_Bend_Energy-OPLS-2005>
440.15771484375

> <r_mmod_Torsional_Energy-OPLS-2005>
219.670227050781

> <r_mmod_Improper_Torsional_Energy-OPLS-2005>
5.91326522827148

> <r_mmod_Van_der_Waal_Energy-OPLS-2005>
127.523956298828

> <r_mmod_Electrostatic_Energy-OPLS-2005>
-370.491607666016

> <r_mmod_Solvation_Energy-OPLS-2005>
-211.118423461914

> <b_mmod_Minimization_Converged-OPLS-2005>
0

> <r_mmod_RMS_Derivative-OPLS-2005>
3.70600986480713

$$$$
51
                    3D
 Structure written by MMmdl.
147155  0  0  1  0            999 V2000
  -30.4406  -15.2815   20.3633 C   0  0  0  0  0  0
  -30.4329  -12.8175   19.5344 C   0  0  0  0  0  0
  -29.5350  -12.5832   18.2933 C   0  0  0  0  0  0
  -28.0873  -12.2961   18.7238 C   0  0  0  0  0  0
  -27.6107  -13.2764   19.8247 C   0  0  2  0  0  0
  -28.6407  -13.4660   20.9606 C   0  0  0  0  0  0
  -25.2384  -13.8244   20.5751 C   0  0  0  0  0  0
  -24.1733  -13.0436   20.9257 C   0  0  0  0  0  0
  -24.6388  -11.6933   20.8754 C   0  0  0  0  0  0
  -23.9084  -10.4293   21.0398 C   0  0  0  0  0  0
  -24.3623   -9.4212   21.9184 C   0  0  0  0  0  0
  -23.6300   -8.2242   22.0751 C   0  0  0  0  0  0
  -22.4282   -8.0274   21.3540 C   0  0  0  0  0  0
  -21.9921   -9.0251   20.4640 C   0  0  0  0  0  0
  -22.7251  -10.2133   20.3052 C   0  0  0  0  0  0
  -21.6858   -6.0737   22.5277 C   0  0  0  0  0  0
  -21.4016   -6.5640   23.8211 C   0  0  0  0  0  0
  -21.3662   -5.6791   24.9174 C   0  0  0  0  0  0
  -21.6043   -4.3054   24.7222 C   0  0  0  0  0  0
  -21.8820   -3.8151   23.4343 C   0  0  0  0  0  0
  -21.9198   -4.6967   22.3404 C   0  0  0  0  0  0
  -22.7758  -13.5196   21.1908 C   0  0  0  0  0  0
  -22.1665   -4.2153   21.0981 F   0  0  0  0  0  0
  -21.5631   -3.4541   25.7739 F   0  0  0  0  0  0
  -29.8746  -13.9721   20.3358 N   0  0  0  0  0  0
  -26.2811  -12.9520   20.3228 N   0  0  0  0  0  0
  -25.9323  -11.6624   20.5711 N   0  0  0  0  0  0
  -22.0410  -12.8180   22.0455 N   0  0  0  0  0  0
  -25.4022  -15.1978   20.4188 N   0  0  0  0  0  0
  -31.6570  -15.2706   20.1225 O   0  0  0  0  0  0
  -21.6639   -6.8878   21.4240 O   0  0  0  0  0  0
  -22.3456  -14.5514   20.6759 O   0  0  0  0  0  0
  -24.6656  -31.8216   23.1705 C   0  0  0  0  0  0
  -25.9343  -32.4577   23.8154 C   0  0  1  0  0  0
  -27.2184  -26.9142   20.1757 C   0  0  0  0  0  0
  -25.6005  -33.8388   24.2072 N   0  0  0  0  0  0
  -23.4799  -30.4349   21.5184 C   0  0  2  0  0  0
  -24.9351  -28.8235   20.1063 C   0  0  0  0  0  0
  -22.7677  -29.4441   22.4764 C   0  0  0  0  0  0
  -18.0327  -28.1428   22.8463 C   0  0  0  0  0  0
  -24.1484  -36.7182   23.2644 C   0  0  0  0  0  0
  -26.0502  -30.6222   21.4043 C   0  0  0  0  0  0
  -26.1179  -29.2119   20.7475 C   0  0  0  0  0  0
  -27.2511  -28.2769   20.7630 C   0  0  0  0  0  0
  -26.0121  -26.6944   19.4685 C   0  0  0  0  0  0
  -24.9094  -27.5856   19.4461 C   0  0  0  0  0  0
  -23.7214  -29.7527   20.1435 C   0  0  0  0  0  0
  -25.4128  -36.2951   24.0297 C   0  0  1  0  0  0
  -20.5952  -28.3772   23.1168 C   0  0  2  0  0  0
  -20.6797  -26.9450   22.5391 C   0  0  0  0  0  0
  -19.5773  -26.6397   21.5198 C   0  0  0  0  0  0
  -18.1957  -26.7962   22.1613 C   0  0  0  0  0  0
  -19.1588  -28.8921   23.2803 C   0  0  0  0  0  0
  -18.9502  -30.1509   23.8849 C   0  0  0  0  0  0
  -17.6496  -30.6611   24.0564 C   0  0  0  0  0  0
  -25.9097  -34.9338   23.4993 C   0  0  0  0  0  0
  -16.5383  -29.9102   23.6354 C   0  0  0  0  0  0
  -16.7308  -28.6521   23.0366 C   0  0  0  0  0  0
  -26.4590  -31.6526   25.0688 C   0  0  0  0  0  0
  -25.3716  -31.3785   26.1344 C   0  0  0  0  0  0
  -27.0487  -30.2892   24.6429 C   0  0  0  0  0  0
  -27.6082  -32.4336   25.7498 C   0  0  0  0  0  0
  -27.5561  -37.1749   24.8469 C   0  0  0  0  0  0
  -21.4341  -29.3051   22.3506 N   0  0  0  0  0  0
  -26.4263  -37.3702   23.9421 N   0  0  0  0  0  0
  -24.7535  -30.9861   22.0850 N   0  0  0  0  0  0
  -23.4210  -28.8004   23.3010 O   0  0  0  0  0  0
  -28.1867  -25.7750   20.2929 O   0  0  0  0  0  0
  -26.5694  -34.8881   22.4587 O   0  0  0  0  0  0
  -23.5727  -32.1202   23.6789 O   0  0  0  0  0  0
  -28.7892  -20.4086   21.5383 C   0  0  0  0  0  0
  -28.3966  -21.8766   21.4734 C   0  0  0  0  0  0
  -29.3058  -19.7611   20.3993 C   0  0  0  0  0  0
  -28.5652  -22.6515   20.3128 C   0  0  0  0  0  0
  -28.6366  -19.6236   22.8105 C   0  0  0  0  0  0
  -30.0268  -18.1765   20.1173 C   0  0  0  0  0  0
  -27.9086  -24.2126   19.8386 C   0  0  0  0  0  0
  -29.6960  -16.5689   20.4522 N   0  0  0  0  0  0
  -29.2660  -21.2619   19.2517 S   0  0  0  0  0  0
  -27.6761  -22.5577   22.8574 Cl  0  0  0  0  0  0
  -31.4546  -13.0116   19.2062 H   0  0  0  0  0  0
  -30.4914  -11.9135   20.1427 H   0  0  0  0  0  0
  -29.9178  -11.7584   17.6901 H   0  0  0  0  0  0
  -29.5573  -13.4678   17.6552 H   0  0  0  0  0  0
  -28.0547  -11.2755   19.1059 H   0  0  0  0  0  0
  -27.4167  -12.3228   17.8643 H   0  0  0  0  0  0
  -27.5219  -14.2382   19.3189 H   0  0  0  0  0  0
  -28.8082  -12.5385   21.5102 H   0  0  0  0  0  0
  -28.2733  -14.1952   21.6849 H   0  0  0  0  0  0
  -25.2754   -9.5707   22.4776 H   0  0  0  0  0  0
  -24.0013   -7.4643   22.7476 H   0  0  0  0  0  0
  -21.0854   -8.8770   19.8946 H   0  0  0  0  0  0
  -22.3695  -10.9673   19.6171 H   0  0  0  0  0  0
  -21.1995   -7.6146   23.9716 H   0  0  0  0  0  0
  -21.1484   -6.0520   25.9078 H   0  0  0  0  0  0
  -22.0592   -2.7613   23.2844 H   0  0  0  0  0  0
  -22.4030  -11.9840   22.4829 H   0  0  0  0  0  0
  -21.1023  -13.1198   22.2649 H   0  0  0  0  0  0
  -24.6312  -15.8470   20.5296 H   0  0  0  0  0  0
  -26.2437  -15.6407   20.0746 H   0  0  0  0  0  0
  -26.7411  -32.5123   23.0864 H   0  0  0  0  0  0
  -25.0136  -33.9446   25.0210 H   0  0  0  0  0  0
  -22.7945  -31.2683   21.3487 H   0  0  0  0  0  0
  -23.3760  -35.9495   23.3278 H   0  0  0  0  0  0
  -24.3557  -36.8854   22.2062 H   0  0  0  0  0  0
  -23.7214  -37.6353   23.6713 H   0  0  0  0  0  0
  -26.2304  -31.3636   20.6244 H   0  0  0  0  0  0
  -26.9099  -30.6798   22.0600 H   0  0  0  0  0  0
  -28.1399  -28.5680   21.3047 H   0  0  0  0  0  0
  -25.8737  -25.7568   18.9514 H   0  0  0  0  0  0
  -24.0140  -27.2850   18.9187 H   0  0  0  0  0  0
  -23.8808  -30.5230   19.3886 H   0  0  0  0  0  0
  -22.8306  -29.2098   19.8224 H   0  0  0  0  0  0
  -25.1323  -36.1733   25.0783 H   0  0  0  0  0  0
  -21.0048  -28.3393   24.1289 H   0  0  0  0  0  0
  -20.5666  -26.2391   23.3632 H   0  0  0  0  0  0
  -21.6660  -26.7416   22.1204 H   0  0  0  0  0  0
  -19.6920  -25.6295   21.1264 H   0  0  0  0  0  0
  -19.6717  -27.3171   20.6698 H   0  0  0  0  0  0
  -17.4222  -26.6708   21.4023 H   0  0  0  0  0  0
  -18.0362  -26.0118   22.9026 H   0  0  0  0  0  0
  -19.7977  -30.7336   24.2196 H   0  0  0  0  0  0
  -17.5048  -31.6288   24.5182 H   0  0  0  0  0  0
  -15.5381  -30.2986   23.7710 H   0  0  0  0  0  0
  -15.8708  -28.0820   22.7113 H   0  0  0  0  0  0
  -24.5925  -30.7099   25.7667 H   0  0  0  0  0  0
  -24.8878  -32.2983   26.4637 H   0  0  0  0  0  0
  -25.7959  -30.9057   27.0209 H   0  0  0  0  0  0
  -26.3158  -29.6573   24.1403 H   0  0  0  0  0  0
  -27.3979  -29.7258   25.5091 H   0  0  0  0  0  0
  -27.9116  -30.4073   23.9873 H   0  0  0  0  0  0
  -27.2663  -33.3700   26.1922 H   0  0  0  0  0  0
  -28.3985  -32.6790   25.0389 H   0  0  0  0  0  0
  -28.0642  -31.8551   26.5546 H   0  0  0  0  0  0
  -28.2559  -38.0064   24.7527 H   0  0  0  0  0  0
  -28.1073  -36.2591   24.6284 H   0  0  0  0  0  0
  -27.2277  -37.1381   25.8870 H   0  0  0  0  0  0
  -20.9600  -29.8728   21.6620 H   0  0  0  0  0  0
  -26.0101  -38.2749   24.1463 H   0  0  0  0  0  0
  -27.6096  -19.2794   22.9367 H   0  0  0  0  0  0
  -28.8958  -20.2188   23.6865 H   0  0  0  0  0  0
  -29.2836  -18.7465   22.8290 H   0  0  0  0  0  0
  -31.0371  -18.2714   20.5157 H   0  0  0  0  0  0
  -30.2008  -18.1468   19.0413 H   0  0  0  0  0  0
  -26.8384  -24.0920   20.0039 H   0  0  0  0  0  0
  -27.9996  -24.2477   18.7524 H   0  0  0  0  0  0
  -28.7200  -16.4144   20.6570 H   0  0  0  0  0  0
  1 25  1  0  0  0
  1 30  2  0  0  0
  1 78  1  0  0  0
  2  3  1  0  0  0
  2 25  1  0  0  0
  2 81  1  0  0  0
  2 82  1  0  0  0
  3  4  1  0  0  0
  3 83  1  0  0  0
  3 84  1  0  0  0
  4  5  1  0  0  0
  4 85  1  0  0  0
  4 86  1  0  0  0
  5  6  1  0  0  0
  5 26  1  0  0  0
  5 87  1  0  0  0
  6 25  1  0  0  0
  6 88  1  0  0  0
  6 89  1  0  0  0
  7  8  2  0  0  0
  7 26  1  0  0  0
  7 29  1  0  0  0
  8  9  1  0  0  0
  8 22  1  0  0  0
  9 10  1  0  0  0
  9 27  2  0  0  0
 10 11  2  0  0  0
 10 15  1  0  0  0
 11 12  1  0  0  0
 11 90  1  0  0  0
 12 13  2  0  0  0
 12 91  1  0  0  0
 13 14  1  0  0  0
 13 31  1  0  0  0
 14 15  2  0  0  0
 14 92  1  0  0  0
 15 93  1  0  0  0
 16 17  2  0  0  0
 16 21  1  0  0  0
 16 31  1  0  0  0
 17 18  1  0  0  0
 17 94  1  0  0  0
 18 19  2  0  0  0
 18 95  1  0  0  0
 19 20  1  0  0  0
 19 24  1  0  0  0
 20 21  2  0  0  0
 20 96  1  0  0  0
 21 23  1  0  0  0
 22 28  1  0  0  0
 22 32  2  0  0  0
 26 27  1  0  0  0
 28 97  1  0  0  0
 28 98  1  0  0  0
 29 99  1  0  0  0
 29100  1  0  0  0
 33 34  1  0  0  0
 33 66  1  0  0  0
 33 70  2  0  0  0
 34 36  1  0  0  0
 34 59  1  0  0  0
 34101  1  0  0  0
 35 44  2  0  0  0
 35 45  1  0  0  0
 35 68  1  0  0  0
 36 56  1  0  0  0
 36102  1  0  0  0
 37 39  1  0  0  0
 37 47  1  0  0  0
 37 66  1  0  0  0
 37103  1  0  0  0
 38 43  2  0  0  0
 38 46  1  0  0  0
 38 47  1  0  0  0
 39 64  1  0  0  0
 39 67  2  0  0  0
 40 52  1  0  0  0
 40 53  2  0  0  0
 40 58  1  0  0  0
 41104  1  0  0  0
 41105  1  0  0  0
 41106  1  0  0  0
 41 48  1  0  0  0
 42 43  1  0  0  0
 42 66  1  0  0  0
 42107  1  0  0  0
 42108  1  0  0  0
 43 44  1  0  0  0
 44109  1  0  0  0
 45 46  2  0  0  0
 45110  1  0  0  0
 46111  1  0  0  0
 47112  1  0  0  0
 47113  1  0  0  0
 48 56  1  0  0  0
 48 65  1  0  0  0
 48114  1  0  0  0
 49 50  1  0  0  0
 49 53  1  0  0  0
 49 64  1  0  0  0
 49115  1  0  0  0
 50 51  1  0  0  0
 50116  1  0  0  0
 50117  1  0  0  0
 51 52  1  0  0  0
 51118  1  0  0  0
 51119  1  0  0  0
 52120  1  0  0  0
 52121  1  0  0  0
 53 54  1  0  0  0
 54 55  2  0  0  0
 54122  1  0  0  0
 55 57  1  0  0  0
 55123  1  0  0  0
 56 69  2  0  0  0
 57 58  2  0  0  0
 57124  1  0  0  0
 58125  1  0  0  0
 59 60  1  0  0  0
 59 61  1  0  0  0
 59 62  1  0  0  0
 60126  1  0  0  0
 60127  1  0  0  0
 60128  1  0  0  0
 61129  1  0  0  0
 61130  1  0  0  0
 61131  1  0  0  0
 62132  1  0  0  0
 62133  1  0  0  0
 62134  1  0  0  0
 63 65  1  0  0  0
 63135  1  0  0  0
 63136  1  0  0  0
 63137  1  0  0  0
 64138  1  0  0  0
 65139  1  0  0  0
 68 77  1  0  0  0
 71 72  1  0  0  0
 71 73  2  0  0  0
 71 75  1  0  0  0
 72 74  2  0  0  0
 72 80  1  0  0  0
 73 76  1  0  0  0
 73 79  1  0  0  0
 74 77  1  0  0  0
 74 79  1  0  0  0
 75140  1  0  0  0
 75141  1  0  0  0
 75142  1  0  0  0
 76 78  1  0  0  0
 76143  1  0  0  0
 76144  1  0  0  0
 77145  1  0  0  0
 77146  1  0  0  0
 78147  1  0  0  0
M  ISO  4   1 100  68 101  77 101  78 100
M  END
> <chiral flag>
0

> <version>
0

> <s_m_source_file>
/data/baiqing/PycharmProjects/Reinvent-master-3.2/result/LINK_invent/BTK/process_docking_weight1_custom_sum_contain_oxygen_bond_distance_aromatic_linkinvent_7_9_3/rearranged_h_0029.sdf

> <i_m_source_file_index>
52

> <r_mmod_Potential_Energy-OPLS-2005>
1271.43298339844

> <r_mmod_Stretch_Energy-OPLS-2005>
565.380126953125

> <r_mmod_Bend_Energy-OPLS-2005>
481.414215087891

> <r_mmod_Torsional_Energy-OPLS-2005>
215.742279052734

> <r_mmod_Improper_Torsional_Energy-OPLS-2005>
7.75833940505981

> <r_mmod_Van_der_Waal_Energy-OPLS-2005>
109.21549987793

> <r_mmod_Electrostatic_Energy-OPLS-2005>
-378.798919677734

> <r_mmod_Solvation_Energy-OPLS-2005>
-212.441223144531

> <b_mmod_Minimization_Converged-OPLS-2005>
0

> <r_mmod_RMS_Derivative-OPLS-2005>
1.38481056690216

$$$$
52
                    3D
 Structure written by MMmdl.
166175  0  0  1  0            999 V2000
  -30.7946  -14.5430   20.5946 C   0  0  0  0  0  0
  -30.4086  -12.3714   19.4650 C   0  0  0  0  0  0
  -29.4976  -12.5532   18.2384 C   0  0  0  0  0  0
  -28.0220  -12.4063   18.6428 C   0  0  0  0  0  0
  -27.6593  -13.2524   19.8945 C   0  0  2  0  0  0
  -28.7099  -13.1288   21.0308 C   0  0  0  0  0  0
  -25.2491  -13.8255   20.5693 C   0  0  0  0  0  0
  -24.1756  -13.0429   20.9173 C   0  0  0  0  0  0
  -24.6386  -11.6940   20.8697 C   0  0  0  0  0  0
  -23.9056  -10.4312   21.0307 C   0  0  0  0  0  0
  -24.3603   -9.4252   21.9092 C   0  0  0  0  0  0
  -23.6283   -8.2290   22.0708 C   0  0  0  0  0  0
  -22.4269   -8.0286   21.3519 C   0  0  0  0  0  0
  -21.9914   -9.0237   20.4607 C   0  0  0  0  0  0
  -22.7225  -10.2128   20.2966 C   0  0  0  0  0  0
  -21.6906   -6.0685   22.5233 C   0  0  0  0  0  0
  -21.4067   -6.5582   23.8164 C   0  0  0  0  0  0
  -21.3683   -5.6727   24.9132 C   0  0  0  0  0  0
  -21.6058   -4.2987   24.7185 C   0  0  0  0  0  0
  -21.8832   -3.8090   23.4299 C   0  0  0  0  0  0
  -21.9207   -4.6911   22.3357 C   0  0  0  0  0  0
  -22.7766  -13.5187   21.1840 C   0  0  0  0  0  0
  -22.1649   -4.2101   21.0940 F   0  0  0  0  0  0
  -21.5661   -3.4462   25.7700 F   0  0  0  0  0  0
  -30.0452  -13.3994   20.4715 N   0  0  0  0  0  0
  -26.3006  -12.9526   20.3489 N   0  0  0  0  0  0
  -25.9347  -11.6634   20.5774 N   0  0  0  0  0  0
  -22.0419  -12.8159   22.0469 N   0  0  0  0  0  0
  -25.4144  -15.1950   20.4060 N   0  0  0  0  0  0
  -31.8439  -14.6744   19.9565 O   0  0  0  0  0  0
  -21.6683   -6.8832   21.4204 O   0  0  0  0  0  0
  -22.3365  -14.5405   20.6642 O   0  0  0  0  0  0
  -24.6267  -31.8549   23.2015 C   0  0  0  0  0  0
  -25.9117  -32.4714   23.8353 C   0  0  1  0  0  0
  -27.2109  -27.3267   20.1190 C   0  0  0  0  0  0
  -25.5974  -33.8535   24.2247 N   0  0  0  0  0  0
  -23.4161  -30.4817   21.5392 C   0  0  2  0  0  0
  -24.8616  -28.9344   20.1011 C   0  0  0  0  0  0
  -22.7445  -29.4641   22.4887 C   0  0  0  0  0  0
  -18.0283  -28.1417   22.8474 C   0  0  0  0  0  0
  -24.1495  -36.7281   23.2629 C   0  0  0  0  0  0
  -25.9547  -30.7793   21.3841 C   0  0  0  0  0  0
  -26.0237  -29.4144   20.7231 C   0  0  0  0  0  0
  -27.2025  -28.6149   20.7295 C   0  0  0  0  0  0
  -26.0285  -26.8884   19.4816 C   0  0  0  0  0  0
  -24.8615  -27.6792   19.4768 C   0  0  0  0  0  0
  -23.6299  -29.8148   20.1534 C   0  0  0  0  0  0
  -25.4123  -36.3031   24.0270 C   0  0  1  0  0  0
  -20.5888  -28.3721   23.1269 C   0  0  2  0  0  0
  -20.6825  -26.9461   22.5390 C   0  0  0  0  0  0
  -19.5823  -26.6408   21.5196 C   0  0  0  0  0  0
  -18.1979  -26.7965   22.1594 C   0  0  0  0  0  0
  -19.1544  -28.8891   23.2859 C   0  0  0  0  0  0
  -18.9484  -30.1497   23.8856 C   0  0  0  0  0  0
  -17.6498  -30.6617   24.0603 C   0  0  0  0  0  0
  -25.9052  -34.9406   23.5053 C   0  0  0  0  0  0
  -16.5369  -29.9113   23.6392 C   0  0  0  0  0  0
  -16.7276  -28.6543   23.0369 C   0  0  0  0  0  0
  -26.4538  -31.6528   25.0715 C   0  0  0  0  0  0
  -25.3734  -31.3675   26.1413 C   0  0  0  0  0  0
  -27.0407  -30.2929   24.6198 C   0  0  0  0  0  0
  -27.6106  -32.4282   25.7472 C   0  0  0  0  0  0
  -27.5549  -37.1807   24.8447 C   0  0  0  0  0  0
  -21.4154  -29.3075   22.3623 N   0  0  0  0  0  0
  -26.4274  -37.3745   23.9384 N   0  0  0  0  0  0
  -24.6814  -31.0606   22.0962 N   0  0  0  0  0  0
  -23.4149  -28.8171   23.2982 O   0  0  0  0  0  0
  -28.3345  -26.4994   20.1166 O   0  0  0  0  0  0
  -26.5617  -34.8904   22.4601 O   0  0  0  0  0  0
  -23.5437  -32.1364   23.7376 O   0  0  0  0  0  0
  -30.0065  -16.9764   20.9613 C   0  0  0  0  0  0
  -30.4815  -15.7373   21.4992 C   0  0  0  0  0  0
  -30.0311  -18.2195   21.6925 C   0  0  0  0  0  0
  -30.9806  -15.7882   22.8194 C   0  0  0  0  0  0
  -30.6000  -18.1209   23.0069 C   0  0  0  0  0  0
  -28.4549  -20.4267   21.7070 C   0  0  0  0  0  0
  -30.6542  -20.5305   20.5408 C   0  0  0  0  0  0
  -28.0469  -21.7995   21.0327 C   0  0  0  0  0  0
  -30.1241  -21.7577   19.7229 C   0  0  0  0  0  0
  -29.5373  -19.5592   20.9903 C   0  0  1  0  0  0
  -31.5421  -14.5523   23.5297 C   0  0  0  0  0  0
  -30.8663  -19.2840   23.9670 C   0  0  0  0  0  0
  -28.7912  -23.9212   19.7785 C   0  0  0  0  0  0
  -28.1845  -25.1220   20.6303 C   0  0  0  0  0  0
  -31.0346  -16.9437   23.5281 N   0  0  0  0  0  0
  -29.1829  -22.6286   20.5049 N   0  3  1  0  0  0
  -31.4561  -12.4247   19.1617 H   0  0  0  0  0  0
  -30.2905  -11.3711   19.8826 H   0  0  0  0  0  0
  -29.7491  -11.8277   17.4618 H   0  0  0  0  0  0
  -29.6649  -13.5413   17.8063 H   0  0  0  0  0  0
  -27.8315  -11.3502   18.8315 H   0  0  0  0  0  0
  -27.3742  -12.6859   17.8083 H   0  0  0  0  0  0
  -27.6782  -14.2949   19.5806 H   0  0  0  0  0  0
  -28.6921  -12.1253   21.4558 H   0  0  0  0  0  0
  -28.4777  -13.8164   21.8488 H   0  0  0  0  0  0
  -25.2725   -9.5754   22.4657 H   0  0  0  0  0  0
  -24.0014   -7.4687   22.7387 H   0  0  0  0  0  0
  -21.0890   -8.8670   19.8885 H   0  0  0  0  0  0
  -22.3610  -10.9615   19.6054 H   0  0  0  0  0  0
  -21.2076   -7.6094   23.9653 H   0  0  0  0  0  0
  -21.1513   -6.0456   25.9038 H   0  0  0  0  0  0
  -22.0615   -2.7552   23.2776 H   0  0  0  0  0  0
  -22.4059  -11.9882   22.4953 H   0  0  0  0  0  0
  -21.0972  -13.1064   22.2557 H   0  0  0  0  0  0
  -24.6458  -15.8557   20.4936 H   0  0  0  0  0  0
  -26.2845  -15.6397   20.1407 H   0  0  0  0  0  0
  -26.7149  -32.5323   23.1082 H   0  0  0  0  0  0
  -25.0221  -33.9712   25.0452 H   0  0  0  0  0  0
  -22.7128  -31.3017   21.3872 H   0  0  0  0  0  0
  -23.3735  -35.9642   23.3289 H   0  0  0  0  0  0
  -24.3571  -36.8926   22.2053 H   0  0  0  0  0  0
  -23.7309  -37.6481   23.6683 H   0  0  0  0  0  0
  -26.0947  -31.5399   20.6197 H   0  0  0  0  0  0
  -26.8395  -30.8183   22.0098 H   0  0  0  0  0  0
  -28.0891  -28.9591   21.2453 H   0  0  0  0  0  0
  -26.0052  -25.9287   18.9845 H   0  0  0  0  0  0
  -23.9693  -27.3147   18.9865 H   0  0  0  0  0  0
  -23.7398  -30.5802   19.3876 H   0  0  0  0  0  0
  -22.7554  -29.2345   19.8566 H   0  0  0  0  0  0
  -25.1329  -36.1884   25.0754 H   0  0  0  0  0  0
  -20.9968  -28.3353   24.1408 H   0  0  0  0  0  0
  -20.5831  -26.2328   23.3587 H   0  0  0  0  0  0
  -21.6683  -26.7599   22.1140 H   0  0  0  0  0  0
  -19.7029  -25.6315   21.1251 H   0  0  0  0  0  0
  -19.6793  -27.3223   20.6745 H   0  0  0  0  0  0
  -17.4271  -26.6692   21.3989 H   0  0  0  0  0  0
  -18.0376  -26.0111   22.9006 H   0  0  0  0  0  0
  -19.7956  -30.7317   24.2178 H   0  0  0  0  0  0
  -17.5066  -31.6291   24.5217 H   0  0  0  0  0  0
  -15.5387  -30.3047   23.7721 H   0  0  0  0  0  0
  -15.8648  -28.0859   22.7125 H   0  0  0  0  0  0
  -24.5932  -30.7029   25.7710 H   0  0  0  0  0  0
  -24.8914  -32.2839   26.4810 H   0  0  0  0  0  0
  -25.8036  -30.8828   27.0185 H   0  0  0  0  0  0
  -26.2965  -29.6639   24.1298 H   0  0  0  0  0  0
  -27.4140  -29.7278   25.4751 H   0  0  0  0  0  0
  -27.8827  -30.4160   23.9386 H   0  0  0  0  0  0
  -27.2672  -33.3583   26.2028 H   0  0  0  0  0  0
  -28.3907  -32.6853   25.0285 H   0  0  0  0  0  0
  -28.0746  -31.8386   26.5393 H   0  0  0  0  0  0
  -28.2582  -38.0108   24.7482 H   0  0  0  0  0  0
  -28.1025  -36.2629   24.6286 H   0  0  0  0  0  0
  -27.2213  -37.1431   25.8837 H   0  0  0  0  0  0
  -20.9305  -29.8677   21.6749 H   0  0  0  0  0  0
  -26.0127  -38.2774   24.1488 H   0  0  0  0  0  0
  -29.6746  -16.9616   19.9350 H   0  0  0  0  0  0
  -27.5586  -19.8196   21.7986 H   0  0  0  0  0  0
  -28.7205  -20.6447   22.7333 H   0  0  0  0  0  0
  -31.2391  -20.8788   21.3951 H   0  0  0  0  0  0
  -31.3571  -19.9864   19.9060 H   0  0  0  0  0  0
  -27.5265  -22.3946   21.7856 H   0  0  0  0  0  0
  -27.3203  -21.6134   20.2381 H   0  0  0  0  0  0
  -29.6602  -21.4160   18.7944 H   0  0  0  0  0  0
  -30.9850  -22.3364   19.3818 H   0  0  0  0  0  0
  -29.0593  -19.2239   20.0667 H   0  0  0  0  0  0
  -30.7423  -14.0087   24.0321 H   0  0  0  0  0  0
  -32.2735  -14.8127   24.2922 H   0  0  0  0  0  0
  -32.0491  -13.8594   22.8591 H   0  0  0  0  0  0
  -30.5623  -19.0407   24.9877 H   0  0  0  0  0  0
  -30.3936  -20.2237   23.7273 H   0  0  0  0  0  0
  -31.9331  -19.5010   24.0081 H   0  0  0  0  0  0
  -29.6943  -24.2944   19.2955 H   0  0  0  0  0  0
  -28.1088  -23.6841   18.9640 H   0  0  0  0  0  0
  -28.6760  -25.1375   21.6013 H   0  0  0  0  0  0
  -27.1439  -24.8865   20.8555 H   0  0  0  0  0  0
  -29.7255  -22.9117   21.3051 H   0  0  0  0  0  0
  1 25  1  0  0  0
  1 30  2  0  0  0
  1 72  1  0  0  0
  2  3  1  0  0  0
  2 25  1  0  0  0
  2 87  1  0  0  0
  2 88  1  0  0  0
  3  4  1  0  0  0
  3 89  1  0  0  0
  3 90  1  0  0  0
  4  5  1  0  0  0
  4 91  1  0  0  0
  4 92  1  0  0  0
  5  6  1  0  0  0
  5 26  1  0  0  0
  5 93  1  0  0  0
  6 25  1  0  0  0
  6 94  1  0  0  0
  6 95  1  0  0  0
  7  8  2  0  0  0
  7 26  1  0  0  0
  7 29  1  0  0  0
  8  9  1  0  0  0
  8 22  1  0  0  0
  9 10  1  0  0  0
  9 27  2  0  0  0
 10 11  2  0  0  0
 10 15  1  0  0  0
 11 12  1  0  0  0
 11 96  1  0  0  0
 12 13  2  0  0  0
 12 97  1  0  0  0
 13 14  1  0  0  0
 13 31  1  0  0  0
 14 15  2  0  0  0
 14 98  1  0  0  0
 15 99  1  0  0  0
 16 17  2  0  0  0
 16 21  1  0  0  0
 16 31  1  0  0  0
 17 18  1  0  0  0
 17100  1  0  0  0
 18 19  2  0  0  0
 18101  1  0  0  0
 19 20  1  0  0  0
 19 24  1  0  0  0
 20 21  2  0  0  0
 20102  1  0  0  0
 21 23  1  0  0  0
 22 28  1  0  0  0
 22 32  2  0  0  0
 26 27  1  0  0  0
 28103  1  0  0  0
 28104  1  0  0  0
 29105  1  0  0  0
 29106  1  0  0  0
 33 34  1  0  0  0
 33 66  1  0  0  0
 33 70  2  0  0  0
 34 36  1  0  0  0
 34 59  1  0  0  0
 34107  1  0  0  0
 35 44  2  0  0  0
 35 45  1  0  0  0
 35 68  1  0  0  0
 36 56  1  0  0  0
 36108  1  0  0  0
 37 39  1  0  0  0
 37 47  1  0  0  0
 37 66  1  0  0  0
 37109  1  0  0  0
 38 43  2  0  0  0
 38 46  1  0  0  0
 38 47  1  0  0  0
 39 64  1  0  0  0
 39 67  2  0  0  0
 40 52  1  0  0  0
 40 53  2  0  0  0
 40 58  1  0  0  0
 41110  1  0  0  0
 41111  1  0  0  0
 41112  1  0  0  0
 41 48  1  0  0  0
 42 43  1  0  0  0
 42 66  1  0  0  0
 42113  1  0  0  0
 42114  1  0  0  0
 43 44  1  0  0  0
 44115  1  0  0  0
 45 46  2  0  0  0
 45116  1  0  0  0
 46117  1  0  0  0
 47118  1  0  0  0
 47119  1  0  0  0
 48 56  1  0  0  0
 48 65  1  0  0  0
 48120  1  0  0  0
 49 50  1  0  0  0
 49 53  1  0  0  0
 49 64  1  0  0  0
 49121  1  0  0  0
 50 51  1  0  0  0
 50122  1  0  0  0
 50123  1  0  0  0
 51 52  1  0  0  0
 51124  1  0  0  0
 51125  1  0  0  0
 52126  1  0  0  0
 52127  1  0  0  0
 53 54  1  0  0  0
 54 55  2  0  0  0
 54128  1  0  0  0
 55 57  1  0  0  0
 55129  1  0  0  0
 56 69  2  0  0  0
 57 58  2  0  0  0
 57130  1  0  0  0
 58131  1  0  0  0
 59 60  1  0  0  0
 59 61  1  0  0  0
 59 62  1  0  0  0
 60132  1  0  0  0
 60133  1  0  0  0
 60134  1  0  0  0
 61135  1  0  0  0
 61136  1  0  0  0
 61137  1  0  0  0
 62138  1  0  0  0
 62139  1  0  0  0
 62140  1  0  0  0
 63 65  1  0  0  0
 63141  1  0  0  0
 63142  1  0  0  0
 63143  1  0  0  0
 64144  1  0  0  0
 65145  1  0  0  0
 68 84  1  0  0  0
 71 72  2  0  0  0
 71 73  1  0  0  0
 71146  1  0  0  0
 72 74  1  0  0  0
 73 75  2  0  0  0
 73 80  1  0  0  0
 74 81  1  0  0  0
 74 85  2  0  0  0
 75 82  1  0  0  0
 75 85  1  0  0  0
 76 78  1  0  0  0
 76 80  1  0  0  0
 76147  1  0  0  0
 76148  1  0  0  0
 77 79  1  0  0  0
 77 80  1  0  0  0
 77149  1  0  0  0
 77150  1  0  0  0
 78 86  1  0  0  0
 78151  1  0  0  0
 78152  1  0  0  0
 79 86  1  0  0  0
 79153  1  0  0  0
 79154  1  0  0  0
 80155  1  0  0  0
 81156  1  0  0  0
 81157  1  0  0  0
 81158  1  0  0  0
 82159  1  0  0  0
 82160  1  0  0  0
 82161  1  0  0  0
 83 84  1  0  0  0
 83162  1  0  0  0
 83163  1  0  0  0
 83 86  1  0  0  0
 84164  1  0  0  0
 84165  1  0  0  0
 86166  1  0  0  0
M  CHG  1  86   1
M  ISO  4   1 100  68 101  72 100  84 101
M  END
> <chiral flag>
0

> <version>
0

> <s_m_source_file>
/data/baiqing/PycharmProjects/Reinvent-master-3.2/result/LINK_invent/BTK/process_docking_weight1_custom_sum_contain_oxygen_bond_distance_aromatic_linkinvent_7_9_3/rearranged_h_0029.sdf

> <i_m_source_file_index>
53

> <r_mmod_Potential_Energy-OPLS-2005>
-47.1518211364746

> <r_mmod_Stretch_Energy-OPLS-2005>
85.1478271484375

> <r_mmod_Bend_Energy-OPLS-2005>
164.501525878906

> <r_mmod_Torsional_Energy-OPLS-2005>
265.625701904297

> <r_mmod_Improper_Torsional_Energy-OPLS-2005>
4.60670518875122

> <r_mmod_Van_der_Waal_Energy-OPLS-2005>
141.157974243164

> <r_mmod_Electrostatic_Energy-OPLS-2005>
-315.100830078125

> <r_mmod_Solvation_Energy-OPLS-2005>
-431.006072998047

> <b_mmod_Minimization_Converged-OPLS-2005>
0

> <r_mmod_RMS_Derivative-OPLS-2005>
9.27579212188721

$$$$
53
                    3D
 Structure written by MMmdl.
156164  0  0  1  0            999 V2000
  -30.5593  -14.8943   20.4153 C   0  0  0  0  0  0
  -30.4443  -12.5475   19.4838 C   0  0  0  0  0  0
  -29.5181  -12.5260   18.2457 C   0  0  0  0  0  0
  -28.0496  -12.3197   18.6652 C   0  0  0  0  0  0
  -27.6314  -13.2404   19.8426 C   0  0  2  0  0  0
  -28.6834  -13.2375   20.9756 C   0  0  0  0  0  0
  -25.2277  -13.7937   20.5540 C   0  0  0  0  0  0
  -24.1690  -13.0223   20.9257 C   0  0  0  0  0  0
  -24.6395  -11.6768   20.8806 C   0  0  0  0  0  0
  -23.9081  -10.4181   21.0437 C   0  0  0  0  0  0
  -24.3618   -9.4112   21.9223 C   0  0  0  0  0  0
  -23.6279   -8.2162   22.0769 C   0  0  0  0  0  0
  -22.4267   -8.0224   21.3539 C   0  0  0  0  0  0
  -21.9911   -9.0201   20.4646 C   0  0  0  0  0  0
  -22.7253  -10.2065   20.3072 C   0  0  0  0  0  0
  -21.6828   -6.0708   22.5285 C   0  0  0  0  0  0
  -21.3990   -6.5620   23.8215 C   0  0  0  0  0  0
  -21.3659   -5.6780   24.9182 C   0  0  0  0  0  0
  -21.6048   -4.3043   24.7233 C   0  0  0  0  0  0
  -21.8821   -3.8128   23.4357 C   0  0  0  0  0  0
  -21.9185   -4.6940   22.3409 C   0  0  0  0  0  0
  -22.7723  -13.5054   21.1887 C   0  0  0  0  0  0
  -22.1661   -4.2129   21.0986 F   0  0  0  0  0  0
  -21.5642   -3.4535   25.7752 F   0  0  0  0  0  0
  -29.9715  -13.6337   20.3830 N   0  0  0  0  0  0
  -26.2871  -12.9322   20.3262 N   0  0  0  0  0  0
  -25.9355  -11.6459   20.5832 N   0  0  0  0  0  0
  -22.0374  -12.8088   22.0470 N   0  0  0  0  0  0
  -25.3462  -15.1540   20.3529 N   0  0  0  0  0  0
  -31.7568  -14.9809   20.1333 O   0  0  0  0  0  0
  -21.6608   -6.8838   21.4241 O   0  0  0  0  0  0
  -22.3438  -14.5378   20.6719 O   0  0  0  0  0  0
  -24.6367  -31.8502   23.1926 C   0  0  0  0  0  0
  -25.9164  -32.4729   23.8302 C   0  0  1  0  0  0
  -27.2351  -27.2113   20.1453 C   0  0  0  0  0  0
  -25.5930  -33.8534   24.2221 N   0  0  0  0  0  0
  -23.4381  -30.4683   21.5368 C   0  0  2  0  0  0
  -24.8897  -28.8971   20.1206 C   0  0  0  0  0  0
  -22.7532  -29.4581   22.4896 C   0  0  0  0  0  0
  -18.0300  -28.1381   22.8478 C   0  0  0  0  0  0
  -24.1488  -36.7276   23.2646 C   0  0  0  0  0  0
  -25.9880  -30.7480   21.3788 C   0  0  0  0  0  0
  -26.0639  -29.3619   20.7264 C   0  0  0  0  0  0
  -27.2414  -28.5366   20.7156 C   0  0  0  0  0  0
  -26.0341  -26.8184   19.5186 C   0  0  0  0  0  0
  -24.8827  -27.6345   19.5042 C   0  0  0  0  0  0
  -23.6626  -29.7918   20.1574 C   0  0  0  0  0  0
  -25.4121  -36.3057   24.0322 C   0  0  1  0  0  0
  -20.5913  -28.3708   23.1246 C   0  0  2  0  0  0
  -20.6797  -26.9406   22.5426 C   0  0  0  0  0  0
  -19.5763  -26.6358   21.5242 C   0  0  0  0  0  0
  -18.1944  -26.7917   22.1642 C   0  0  0  0  0  0
  -19.1560  -28.8860   23.2850 C   0  0  0  0  0  0
  -18.9474  -30.1460   23.8866 C   0  0  0  0  0  0
  -17.6477  -30.6577   24.0550 C   0  0  0  0  0  0
  -25.9061  -34.9428   23.5081 C   0  0  0  0  0  0
  -16.5360  -29.9076   23.6321 C   0  0  0  0  0  0
  -16.7284  -28.6487   23.0355 C   0  0  0  0  0  0
  -26.4514  -31.6572   25.0713 C   0  0  0  0  0  0
  -25.3717  -31.3739   26.1419 C   0  0  0  0  0  0
  -27.0370  -30.2982   24.6237 C   0  0  0  0  0  0
  -27.6048  -32.4333   25.7498 C   0  0  0  0  0  0
  -27.5577  -37.1798   24.8472 C   0  0  0  0  0  0
  -21.4235  -29.3056   22.3631 N   0  0  0  0  0  0
  -26.4294  -37.3756   23.9400 N   0  0  0  0  0  0
  -24.7071  -31.0417   22.0924 N   0  0  0  0  0  0
  -23.4200  -28.8144   23.3038 O   0  0  0  0  0  0
  -28.3331  -26.3034   20.1290 O   0  0  0  0  0  0
  -26.5646  -34.8915   22.4661 O   0  0  0  0  0  0
  -23.5501  -32.1339   23.7181 O   0  0  0  0  0  0
  -30.6150  -19.9397   20.5213 C   0  0  0  0  0  0
  -28.2785  -19.6678   20.4526 C   0  0  0  0  0  0
  -29.3404  -20.6025   20.5346 C   0  0  0  0  0  0
  -30.8114  -18.4931   20.4782 C   0  0  0  0  0  0
  -28.4573  -18.2377   20.4368 C   0  0  0  0  0  0
  -29.7208  -17.5478   20.4750 C   0  0  0  0  0  0
  -32.2406  -17.9904   20.4656 C   0  0  0  0  0  0
  -27.1966  -17.4224   20.4063 C   0  0  0  0  0  0
  -29.0816  -22.1629   20.9345 C   0  0  0  0  0  0
  -28.7965  -23.4821   19.9829 C   0  0  0  0  0  0
  -28.1913  -24.8746   20.6497 C   0  0  0  0  0  0
  -29.7139  -16.0163   20.5616 N   0  0  0  0  0  0
  -31.4799  -12.6946   19.1728 H   0  0  0  0  0  0
  -30.4225  -11.5869   19.9993 H   0  0  0  0  0  0
  -29.8258  -11.7389   17.5555 H   0  0  0  0  0  0
  -29.6158  -13.4653   17.6994 H   0  0  0  0  0  0
  -27.9368  -11.2750   18.9590 H   0  0  0  0  0  0
  -27.3875  -12.4668   17.8120 H   0  0  0  0  0  0
  -27.5957  -14.2488   19.4310 H   0  0  0  0  0  0
  -28.7553  -12.2515   21.4386 H   0  0  0  0  0  0
  -28.3955  -13.9265   21.7710 H   0  0  0  0  0  0
  -25.2749   -9.5590   22.4816 H   0  0  0  0  0  0
  -23.9972   -7.4550   22.7488 H   0  0  0  0  0  0
  -21.0845   -8.8727   19.8951 H   0  0  0  0  0  0
  -22.3725  -10.9614   19.6192 H   0  0  0  0  0  0
  -21.1960   -7.6126   23.9706 H   0  0  0  0  0  0
  -21.1491   -6.0516   25.9083 H   0  0  0  0  0  0
  -22.0601   -2.7592   23.2869 H   0  0  0  0  0  0
  -22.4003  -11.9761   22.4867 H   0  0  0  0  0  0
  -21.1001  -13.1135   22.2677 H   0  0  0  0  0  0
  -24.5173  -15.7376   20.3658 H   0  0  0  0  0  0
  -26.1018  -15.5534   19.8167 H   0  0  0  0  0  0
  -26.7241  -32.5363   23.1051 H   0  0  0  0  0  0
  -25.0050  -33.9654   25.0353 H   0  0  0  0  0  0
  -22.7391  -31.2917   21.3815 H   0  0  0  0  0  0
  -23.3741  -35.9613   23.3317 H   0  0  0  0  0  0
  -24.3570  -36.8890   22.2054 H   0  0  0  0  0  0
  -23.7244  -37.6481   23.6672 H   0  0  0  0  0  0
  -26.1296  -31.5034   20.6047 H   0  0  0  0  0  0
  -26.8638  -30.8033   22.0137 H   0  0  0  0  0  0
  -28.1468  -28.8969   21.1836 H   0  0  0  0  0  0
  -25.9819  -25.8502   19.0416 H   0  0  0  0  0  0
  -23.9853  -27.2734   19.0217 H   0  0  0  0  0  0
  -23.7985  -30.5642   19.4000 H   0  0  0  0  0  0
  -22.7793  -29.2296   19.8479 H   0  0  0  0  0  0
  -25.1303  -36.1912   25.0813 H   0  0  0  0  0  0
  -21.0011  -28.3299   24.1369 H   0  0  0  0  0  0
  -20.5710  -26.2325   23.3657 H   0  0  0  0  0  0
  -21.6664  -26.7429   22.1203 H   0  0  0  0  0  0
  -19.6923  -25.6263   21.1296 H   0  0  0  0  0  0
  -19.6707  -27.3155   20.6763 H   0  0  0  0  0  0
  -17.4200  -26.6625   21.4061 H   0  0  0  0  0  0
  -18.0340  -26.0089   22.9077 H   0  0  0  0  0  0
  -19.7945  -30.7295   24.2222 H   0  0  0  0  0  0
  -17.5042  -31.6259   24.5147 H   0  0  0  0  0  0
  -15.5365  -30.2970   23.7659 H   0  0  0  0  0  0
  -15.8690  -28.0782   22.7093 H   0  0  0  0  0  0
  -24.5906  -30.7074   25.7752 H   0  0  0  0  0  0
  -24.8888  -32.2904   26.4815 H   0  0  0  0  0  0
  -25.8019  -30.8943   27.0219 H   0  0  0  0  0  0
  -26.2964  -29.6721   24.1249 H   0  0  0  0  0  0
  -27.4022  -29.7263   25.4777 H   0  0  0  0  0  0
  -27.8859  -30.4237   23.9510 H   0  0  0  0  0  0
  -27.2643  -33.3652   26.2028 H   0  0  0  0  0  0
  -28.3890  -32.6864   25.0350 H   0  0  0  0  0  0
  -28.0685  -31.8487   26.5451 H   0  0  0  0  0  0
  -28.2609  -38.0079   24.7486 H   0  0  0  0  0  0
  -28.1054  -36.2606   24.6346 H   0  0  0  0  0  0
  -27.2287  -37.1510   25.8873 H   0  0  0  0  0  0
  -20.9424  -29.8764   21.6811 H   0  0  0  0  0  0
  -26.0176  -38.2836   24.1380 H   0  0  0  0  0  0
  -31.4903  -20.5689   20.6049 H   0  0  0  0  0  0
  -27.2711  -20.0627   20.4709 H   0  0  0  0  0  0
  -32.9577  -18.8051   20.5716 H   0  0  0  0  0  0
  -32.4509  -17.4898   19.5201 H   0  0  0  0  0  0
  -32.4137  -17.2870   21.2794 H   0  0  0  0  0  0
  -27.1851  -16.7400   21.2556 H   0  0  0  0  0  0
  -27.1585  -16.8631   19.4717 H   0  0  0  0  0  0
  -26.2975  -18.0361   20.4659 H   0  0  0  0  0  0
  -29.9207  -22.4332   21.5756 H   0  0  0  0  0  0
  -28.2377  -22.1197   21.6244 H   0  0  0  0  0  0
  -28.1040  -23.1836   19.1962 H   0  0  0  0  0  0
  -29.7261  -23.7251   19.4695 H   0  0  0  0  0  0
  -28.6410  -24.9306   21.6407 H   0  0  0  0  0  0
  -27.1368  -24.6944   20.8595 H   0  0  0  0  0  0
  -28.7801  -15.6746   20.7190 H   0  0  0  0  0  0
  1 25  1  0  0  0
  1 30  2  0  0  0
  1 82  1  0  0  0
  2  3  1  0  0  0
  2 25  1  0  0  0
  2 83  1  0  0  0
  2 84  1  0  0  0
  3  4  1  0  0  0
  3 85  1  0  0  0
  3 86  1  0  0  0
  4  5  1  0  0  0
  4 87  1  0  0  0
  4 88  1  0  0  0
  5  6  1  0  0  0
  5 26  1  0  0  0
  5 89  1  0  0  0
  6 25  1  0  0  0
  6 90  1  0  0  0
  6 91  1  0  0  0
  7  8  2  0  0  0
  7 26  1  0  0  0
  7 29  1  0  0  0
  8  9  1  0  0  0
  8 22  1  0  0  0
  9 10  1  0  0  0
  9 27  2  0  0  0
 10 11  2  0  0  0
 10 15  1  0  0  0
 11 12  1  0  0  0
 11 92  1  0  0  0
 12 13  2  0  0  0
 12 93  1  0  0  0
 13 14  1  0  0  0
 13 31  1  0  0  0
 14 15  2  0  0  0
 14 94  1  0  0  0
 15 95  1  0  0  0
 16 17  2  0  0  0
 16 21  1  0  0  0
 16 31  1  0  0  0
 17 18  1  0  0  0
 17 96  1  0  0  0
 18 19  2  0  0  0
 18 97  1  0  0  0
 19 20  1  0  0  0
 19 24  1  0  0  0
 20 21  2  0  0  0
 20 98  1  0  0  0
 21 23  1  0  0  0
 22 28  1  0  0  0
 22 32  2  0  0  0
 26 27  1  0  0  0
 28 99  1  0  0  0
 28100  1  0  0  0
 29101  1  0  0  0
 29102  1  0  0  0
 33 34  1  0  0  0
 33 66  1  0  0  0
 33 70  2  0  0  0
 34 36  1  0  0  0
 34 59  1  0  0  0
 34103  1  0  0  0
 35 44  2  0  0  0
 35 45  1  0  0  0
 35 68  1  0  0  0
 36 56  1  0  0  0
 36104  1  0  0  0
 37 39  1  0  0  0
 37 47  1  0  0  0
 37 66  1  0  0  0
 37105  1  0  0  0
 38 43  2  0  0  0
 38 46  1  0  0  0
 38 47  1  0  0  0
 39 64  1  0  0  0
 39 67  2  0  0  0
 40 52  1  0  0  0
 40 53  2  0  0  0
 40 58  1  0  0  0
 41106  1  0  0  0
 41107  1  0  0  0
 41108  1  0  0  0
 41 48  1  0  0  0
 42 43  1  0  0  0
 42 66  1  0  0  0
 42109  1  0  0  0
 42110  1  0  0  0
 43 44  1  0  0  0
 44111  1  0  0  0
 45 46  2  0  0  0
 45112  1  0  0  0
 46113  1  0  0  0
 47114  1  0  0  0
 47115  1  0  0  0
 48 56  1  0  0  0
 48 65  1  0  0  0
 48116  1  0  0  0
 49 50  1  0  0  0
 49 53  1  0  0  0
 49 64  1  0  0  0
 49117  1  0  0  0
 50 51  1  0  0  0
 50118  1  0  0  0
 50119  1  0  0  0
 51 52  1  0  0  0
 51120  1  0  0  0
 51121  1  0  0  0
 52122  1  0  0  0
 52123  1  0  0  0
 53 54  1  0  0  0
 54 55  2  0  0  0
 54124  1  0  0  0
 55 57  1  0  0  0
 55125  1  0  0  0
 56 69  2  0  0  0
 57 58  2  0  0  0
 57126  1  0  0  0
 58127  1  0  0  0
 59 60  1  0  0  0
 59 61  1  0  0  0
 59 62  1  0  0  0
 60128  1  0  0  0
 60129  1  0  0  0
 60130  1  0  0  0
 61131  1  0  0  0
 61132  1  0  0  0
 61133  1  0  0  0
 62134  1  0  0  0
 62135  1  0  0  0
 62136  1  0  0  0
 63 65  1  0  0  0
 63137  1  0  0  0
 63138  1  0  0  0
 63139  1  0  0  0
 64140  1  0  0  0
 65141  1  0  0  0
 68 81  1  0  0  0
 71 73  2  0  0  0
 71 74  1  0  0  0
 71142  1  0  0  0
 72 73  1  0  0  0
 72 75  2  0  0  0
 72143  1  0  0  0
 73 79  1  0  0  0
 74 76  2  0  0  0
 74 77  1  0  0  0
 75 76  1  0  0  0
 75 78  1  0  0  0
 76 82  1  0  0  0
 77144  1  0  0  0
 77145  1  0  0  0
 77146  1  0  0  0
 78147  1  0  0  0
 78148  1  0  0  0
 78149  1  0  0  0
 79 80  1  0  0  0
 79150  1  0  0  0
 79151  1  0  0  0
 80 81  1  0  0  0
 80152  1  0  0  0
 80153  1  0  0  0
 81154  1  0  0  0
 81155  1  0  0  0
 82156  1  0  0  0
M  ISO  4   1 100  68 101  81 101  82 100
M  END
> <chiral flag>
0

> <version>
0

> <s_m_source_file>
/data/baiqing/PycharmProjects/Reinvent-master-3.2/result/LINK_invent/BTK/process_docking_weight1_custom_sum_contain_oxygen_bond_distance_aromatic_linkinvent_7_9_3/rearranged_h_0029.sdf

> <i_m_source_file_index>
54

> <r_mmod_Potential_Energy-OPLS-2005>
359.792541503906

> <r_mmod_Stretch_Energy-OPLS-2005>
183.502502441406

> <r_mmod_Bend_Energy-OPLS-2005>
251.89192199707

> <r_mmod_Torsional_Energy-OPLS-2005>
243.429443359375

> <r_mmod_Improper_Torsional_Energy-OPLS-2005>
8.7867374420166

> <r_mmod_Van_der_Waal_Energy-OPLS-2005>
138.971343994141

> <r_mmod_Electrostatic_Energy-OPLS-2005>
-410.838806152344

> <r_mmod_Solvation_Energy-OPLS-2005>
-196.710922241211

> <b_mmod_Minimization_Converged-OPLS-2005>
0

> <r_mmod_RMS_Derivative-OPLS-2005>
1.8845442533493

$$$$
54
                    3D
 Structure written by MMmdl.
160168  0  0  1  0            999 V2000
  -30.5320  -14.9548   20.3994 C   0  0  0  0  0  0
  -30.4331  -12.5751   19.5259 C   0  0  0  0  0  0
  -29.5333  -12.5018   18.2709 C   0  0  0  0  0  0
  -28.0512  -12.3203   18.6618 C   0  0  0  0  0  0
  -27.6235  -13.2539   19.8271 C   0  0  2  0  0  0
  -28.6614  -13.2924   20.9691 C   0  0  0  0  0  0
  -25.2431  -13.8253   20.5695 C   0  0  0  0  0  0
  -24.1775  -13.0465   20.9257 C   0  0  0  0  0  0
  -24.6393  -11.6959   20.8775 C   0  0  0  0  0  0
  -23.9077  -10.4320   21.0418 C   0  0  0  0  0  0
  -24.3647   -9.4228   21.9167 C   0  0  0  0  0  0
  -23.6338   -8.2244   22.0735 C   0  0  0  0  0  0
  -22.4308   -8.0283   21.3549 C   0  0  0  0  0  0
  -21.9955   -9.0254   20.4644 C   0  0  0  0  0  0
  -22.7273  -10.2137   20.3052 C   0  0  0  0  0  0
  -21.6860   -6.0766   22.5299 C   0  0  0  0  0  0
  -21.4015   -6.5660   23.8230 C   0  0  0  0  0  0
  -21.3672   -5.6804   24.9194 C   0  0  0  0  0  0
  -21.6054   -4.3057   24.7229 C   0  0  0  0  0  0
  -21.8819   -3.8166   23.4338 C   0  0  0  0  0  0
  -21.9195   -4.6988   22.3399 C   0  0  0  0  0  0
  -22.7790  -13.5201   21.1933 C   0  0  0  0  0  0
  -22.1650   -4.2190   21.0978 F   0  0  0  0  0  0
  -21.5636   -3.4540   25.7730 F   0  0  0  0  0  0
  -29.9361  -13.6966   20.3679 N   0  0  0  0  0  0
  -26.2843  -12.9483   20.3178 N   0  0  0  0  0  0
  -25.9302  -11.6614   20.5732 N   0  0  0  0  0  0
  -22.0435  -12.8186   22.0477 N   0  0  0  0  0  0
  -25.4090  -15.1974   20.4130 N   0  0  0  0  0  0
  -31.7446  -15.0065   20.1644 O   0  0  0  0  0  0
  -21.6642   -6.8895   21.4252 O   0  0  0  0  0  0
  -22.3464  -14.5499   20.6777 O   0  0  0  0  0  0
  -24.6428  -31.8410   23.1879 C   0  0  0  0  0  0
  -25.9210  -32.4660   23.8262 C   0  0  1  0  0  0
  -27.2244  -27.1204   20.1237 C   0  0  0  0  0  0
  -25.5975  -33.8471   24.2175 N   0  0  0  0  0  0
  -23.4476  -30.4594   21.5341 C   0  0  2  0  0  0
  -24.8957  -28.8824   20.1101 C   0  0  0  0  0  0
  -22.7558  -29.4522   22.4864 C   0  0  0  0  0  0
  -18.0294  -28.1365   22.8452 C   0  0  0  0  0  0
  -24.1501  -36.7239   23.2644 C   0  0  0  0  0  0
  -26.0049  -30.7017   21.3956 C   0  0  0  0  0  0
  -26.0750  -29.3139   20.7287 C   0  0  0  0  0  0
  -27.2367  -28.4491   20.7236 C   0  0  0  0  0  0
  -26.0162  -26.7982   19.4646 C   0  0  0  0  0  0
  -24.8808  -27.6379   19.4642 C   0  0  0  0  0  0
  -23.6720  -29.7875   20.1544 C   0  0  0  0  0  0
  -25.4141  -36.2998   24.0296 C   0  0  1  0  0  0
  -20.5909  -28.3685   23.1220 C   0  0  2  0  0  0
  -20.6771  -26.9384   22.5397 C   0  0  0  0  0  0
  -19.5764  -26.6346   21.5190 C   0  0  0  0  0  0
  -18.1940  -26.7907   22.1595 C   0  0  0  0  0  0
  -19.1549  -28.8849   23.2824 C   0  0  0  0  0  0
  -18.9466  -30.1451   23.8844 C   0  0  0  0  0  0
  -17.6461  -30.6567   24.0537 C   0  0  0  0  0  0
  -25.9083  -34.9384   23.5039 C   0  0  0  0  0  0
  -16.5355  -29.9044   23.6335 C   0  0  0  0  0  0
  -16.7276  -28.6462   23.0356 C   0  0  0  0  0  0
  -26.4542  -31.6546   25.0727 C   0  0  0  0  0  0
  -25.3715  -31.3765   26.1416 C   0  0  0  0  0  0
  -27.0426  -30.2917   24.6390 C   0  0  0  0  0  0
  -27.6046  -32.4347   25.7528 C   0  0  0  0  0  0
  -27.5585  -37.1772   24.8455 C   0  0  0  0  0  0
  -21.4255  -29.3023   22.3609 N   0  0  0  0  0  0
  -26.4296  -37.3718   23.9397 N   0  0  0  0  0  0
  -24.7178  -31.0236   22.0928 N   0  0  0  0  0  0
  -23.4184  -28.8078   23.3028 O   0  0  0  0  0  0
  -28.2742  -26.1216   20.1837 O   0  0  0  0  0  0
  -26.5672  -34.8875   22.4616 O   0  0  0  0  0  0
  -23.5543  -32.1327   23.7077 O   0  0  0  0  0  0
  -29.4010  -20.4211   20.3802 C   0  0  0  0  0  0
  -27.8731  -19.8943   18.1804 C   0  0  0  0  0  0
  -28.7832  -21.6171   19.7317 C   0  0  0  0  0  0
  -29.3007  -18.9891   19.9572 C   0  0  0  0  0  0
  -28.0355  -21.2554   18.5685 C   0  0  0  0  0  0
  -28.5038  -18.7858   18.8096 C   0  0  0  0  0  0
  -28.5800  -15.9440   16.4562 C   0  0  0  0  0  0
  -28.9961  -23.2246   20.1762 C   0  0  0  0  0  0
  -30.1057  -17.6867   20.5973 C   0  0  0  0  0  0
  -28.0806  -17.3143   16.9425 C   0  0  0  0  0  0
  -28.0475  -24.6080   19.8298 C   0  0  0  0  0  0
  -27.4378  -22.3071   17.6388 C   0  0  0  0  0  0
  -29.7529  -16.1420   20.4998 N   0  0  0  0  0  0
  -28.4032  -17.4958   18.3202 O   0  0  0  0  0  0
  -26.3703  -22.8873   18.1853 F   0  0  0  0  0  0
  -27.0822  -21.8078   16.4536 F   0  0  0  0  0  0
  -31.4770  -12.7086   19.2387 H   0  0  0  0  0  0
  -30.3987  -11.6371   20.0852 H   0  0  0  0  0  0
  -29.8547  -11.6780   17.6336 H   0  0  0  0  0  0
  -29.6597  -13.4116   17.6826 H   0  0  0  0  0  0
  -27.9125  -11.2788   18.9530 H   0  0  0  0  0  0
  -27.4101  -12.4757   17.7927 H   0  0  0  0  0  0
  -27.5830  -14.2551   19.3970 H   0  0  0  0  0  0
  -28.7467  -12.3251   21.4664 H   0  0  0  0  0  0
  -28.3602  -14.0129   21.7303 H   0  0  0  0  0  0
  -25.2782   -9.5710   22.4754 H   0  0  0  0  0  0
  -24.0081   -7.4628   22.7435 H   0  0  0  0  0  0
  -21.0895   -8.8762   19.8946 H   0  0  0  0  0  0
  -22.3720  -10.9675   19.6170 H   0  0  0  0  0  0
  -21.1983   -7.6167   23.9764 H   0  0  0  0  0  0
  -21.1506   -6.0513   25.9112 H   0  0  0  0  0  0
  -22.0586   -2.7627   23.2813 H   0  0  0  0  0  0
  -22.4060  -11.9861   22.4863 H   0  0  0  0  0  0
  -21.1045  -13.1194   22.2695 H   0  0  0  0  0  0
  -24.6495  -15.8541   20.5530 H   0  0  0  0  0  0
  -26.2432  -15.6421   20.0531 H   0  0  0  0  0  0
  -26.7269  -32.5234   23.0972 H   0  0  0  0  0  0
  -25.0113  -33.9608   25.0317 H   0  0  0  0  0  0
  -22.7477  -31.2849   21.3823 H   0  0  0  0  0  0
  -23.3763  -35.9568   23.3276 H   0  0  0  0  0  0
  -24.3581  -36.8908   22.2063 H   0  0  0  0  0  0
  -23.7259  -37.6418   23.6717 H   0  0  0  0  0  0
  -26.1793  -31.4591   20.6293 H   0  0  0  0  0  0
  -26.8648  -30.7390   22.0511 H   0  0  0  0  0  0
  -28.1325  -28.7772   21.2339 H   0  0  0  0  0  0
  -25.9134  -25.8545   18.9517 H   0  0  0  0  0  0
  -23.9840  -27.3036   18.9614 H   0  0  0  0  0  0
  -23.8045  -30.5648   19.4002 H   0  0  0  0  0  0
  -22.7842  -29.2324   19.8465 H   0  0  0  0  0  0
  -25.1330  -36.1819   25.0786 H   0  0  0  0  0  0
  -20.9990  -28.3272   24.1344 H   0  0  0  0  0  0
  -20.5617  -26.2305   23.3622 H   0  0  0  0  0  0
  -21.6636  -26.7361   22.1228 H   0  0  0  0  0  0
  -19.6927  -25.6244   21.1250 H   0  0  0  0  0  0
  -19.6721  -27.3120   20.6692 H   0  0  0  0  0  0
  -17.4214  -26.6631   21.3994 H   0  0  0  0  0  0
  -18.0342  -26.0053   22.8987 H   0  0  0  0  0  0
  -19.7951  -30.7277   24.2173 H   0  0  0  0  0  0
  -17.5019  -31.6246   24.5134 H   0  0  0  0  0  0
  -15.5351  -30.2920   23.7703 H   0  0  0  0  0  0
  -15.8679  -28.0766   22.7098 H   0  0  0  0  0  0
  -24.5874  -30.7146   25.7728 H   0  0  0  0  0  0
  -24.8945  -32.2963   26.4796 H   0  0  0  0  0  0
  -25.7969  -30.8951   27.0222 H   0  0  0  0  0  0
  -26.3072  -29.6610   24.1379 H   0  0  0  0  0  0
  -27.3957  -29.7256   25.5016 H   0  0  0  0  0  0
  -27.9012  -30.4091   23.9778 H   0  0  0  0  0  0
  -27.2594  -33.3649   26.2048 H   0  0  0  0  0  0
  -28.3890  -32.6906   25.0397 H   0  0  0  0  0  0
  -28.0686  -31.8536   26.5498 H   0  0  0  0  0  0
  -28.2553  -38.0109   24.7502 H   0  0  0  0  0  0
  -28.1120  -36.2624   24.6273 H   0  0  0  0  0  0
  -27.2296  -37.1399   25.8855 H   0  0  0  0  0  0
  -20.9453  -29.8750   21.6815 H   0  0  0  0  0  0
  -26.0147  -38.2771   24.1415 H   0  0  0  0  0  0
  -30.0258  -20.6150   21.2384 H   0  0  0  0  0  0
  -27.2443  -19.6975   17.3252 H   0  0  0  0  0  0
  -29.5942  -15.7395   16.8006 H   0  0  0  0  0  0
  -28.6012  -15.9155   15.3658 H   0  0  0  0  0  0
  -27.9332  -15.1293   16.7891 H   0  0  0  0  0  0
  -29.9922  -23.4616   19.7993 H   0  0  0  0  0  0
  -29.1249  -23.2079   21.2595 H   0  0  0  0  0  0
  -30.1627  -17.8892   21.6666 H   0  0  0  0  0  0
  -31.1324  -17.7825   20.2396 H   0  0  0  0  0  0
  -27.0003  -17.3912   16.8073 H   0  0  0  0  0  0
  -28.5499  -18.0808   16.3245 H   0  0  0  0  0  0
  -27.0464  -24.3663   20.1869 H   0  0  0  0  0  0
  -27.9766  -24.6671   18.7469 H   0  0  0  0  0  0
  -28.1836  -23.0637   17.3945 H   0  0  0  0  0  0
  -28.7674  -15.9588   20.6064 H   0  0  0  0  0  0
  1 25  1  0  0  0
  1 30  2  0  0  0
  1 83  1  0  0  0
  2  3  1  0  0  0
  2 25  1  0  0  0
  2 87  1  0  0  0
  2 88  1  0  0  0
  3  4  1  0  0  0
  3 89  1  0  0  0
  3 90  1  0  0  0
  4  5  1  0  0  0
  4 91  1  0  0  0
  4 92  1  0  0  0
  5  6  1  0  0  0
  5 26  1  0  0  0
  5 93  1  0  0  0
  6 25  1  0  0  0
  6 94  1  0  0  0
  6 95  1  0  0  0
  7  8  2  0  0  0
  7 26  1  0  0  0
  7 29  1  0  0  0
  8  9  1  0  0  0
  8 22  1  0  0  0
  9 10  1  0  0  0
  9 27  2  0  0  0
 10 11  2  0  0  0
 10 15  1  0  0  0
 11 12  1  0  0  0
 11 96  1  0  0  0
 12 13  2  0  0  0
 12 97  1  0  0  0
 13 14  1  0  0  0
 13 31  1  0  0  0
 14 15  2  0  0  0
 14 98  1  0  0  0
 15 99  1  0  0  0
 16 17  2  0  0  0
 16 21  1  0  0  0
 16 31  1  0  0  0
 17 18  1  0  0  0
 17100  1  0  0  0
 18 19  2  0  0  0
 18101  1  0  0  0
 19 20  1  0  0  0
 19 24  1  0  0  0
 20 21  2  0  0  0
 20102  1  0  0  0
 21 23  1  0  0  0
 22 28  1  0  0  0
 22 32  2  0  0  0
 26 27  1  0  0  0
 28103  1  0  0  0
 28104  1  0  0  0
 29105  1  0  0  0
 29106  1  0  0  0
 33 34  1  0  0  0
 33 66  1  0  0  0
 33 70  2  0  0  0
 34 36  1  0  0  0
 34 59  1  0  0  0
 34107  1  0  0  0
 35 44  2  0  0  0
 35 45  1  0  0  0
 35 68  1  0  0  0
 36 56  1  0  0  0
 36108  1  0  0  0
 37 39  1  0  0  0
 37 47  1  0  0  0
 37 66  1  0  0  0
 37109  1  0  0  0
 38 43  2  0  0  0
 38 46  1  0  0  0
 38 47  1  0  0  0
 39 64  1  0  0  0
 39 67  2  0  0  0
 40 52  1  0  0  0
 40 53  2  0  0  0
 40 58  1  0  0  0
 41110  1  0  0  0
 41111  1  0  0  0
 41112  1  0  0  0
 41 48  1  0  0  0
 42 43  1  0  0  0
 42 66  1  0  0  0
 42113  1  0  0  0
 42114  1  0  0  0
 43 44  1  0  0  0
 44115  1  0  0  0
 45 46  2  0  0  0
 45116  1  0  0  0
 46117  1  0  0  0
 47118  1  0  0  0
 47119  1  0  0  0
 48 56  1  0  0  0
 48 65  1  0  0  0
 48120  1  0  0  0
 49 50  1  0  0  0
 49 53  1  0  0  0
 49 64  1  0  0  0
 49121  1  0  0  0
 50 51  1  0  0  0
 50122  1  0  0  0
 50123  1  0  0  0
 51 52  1  0  0  0
 51124  1  0  0  0
 51125  1  0  0  0
 52126  1  0  0  0
 52127  1  0  0  0
 53 54  1  0  0  0
 54 55  2  0  0  0
 54128  1  0  0  0
 55 57  1  0  0  0
 55129  1  0  0  0
 56 69  2  0  0  0
 57 58  2  0  0  0
 57130  1  0  0  0
 58131  1  0  0  0
 59 60  1  0  0  0
 59 61  1  0  0  0
 59 62  1  0  0  0
 60132  1  0  0  0
 60133  1  0  0  0
 60134  1  0  0  0
 61135  1  0  0  0
 61136  1  0  0  0
 61137  1  0  0  0
 62138  1  0  0  0
 62139  1  0  0  0
 62140  1  0  0  0
 63 65  1  0  0  0
 63141  1  0  0  0
 63142  1  0  0  0
 63143  1  0  0  0
 64144  1  0  0  0
 65145  1  0  0  0
 68 81  1  0  0  0
 71 73  2  0  0  0
 71 74  1  0  0  0
 71146  1  0  0  0
 72 75  2  0  0  0
 72 76  1  0  0  0
 72147  1  0  0  0
 73 75  1  0  0  0
 73 78  1  0  0  0
 74 76  2  0  0  0
 74 79  1  0  0  0
 75 82  1  0  0  0
 76 84  1  0  0  0
 77 80  1  0  0  0
 77148  1  0  0  0
 77149  1  0  0  0
 77150  1  0  0  0
 78 81  1  0  0  0
 78151  1  0  0  0
 78152  1  0  0  0
 79 83  1  0  0  0
 79153  1  0  0  0
 79154  1  0  0  0
 80 84  1  0  0  0
 80155  1  0  0  0
 80156  1  0  0  0
 81157  1  0  0  0
 81158  1  0  0  0
 82 85  1  0  0  0
 82 86  1  0  0  0
 82159  1  0  0  0
 83160  1  0  0  0
M  ISO  4   1 100  68 101  81 101  83 100
M  END
> <chiral flag>
0

> <version>
0

> <s_m_source_file>
/data/baiqing/PycharmProjects/Reinvent-master-3.2/result/LINK_invent/BTK/process_docking_weight1_custom_sum_contain_oxygen_bond_distance_aromatic_linkinvent_7_9_3/rearranged_h_0029.sdf

> <i_m_source_file_index>
55

> <r_mmod_Potential_Energy-OPLS-2005>
513.774597167969

> <r_mmod_Stretch_Energy-OPLS-2005>
290.711669921875

> <r_mmod_Bend_Energy-OPLS-2005>
275.062622070312

> <r_mmod_Torsional_Energy-OPLS-2005>
209.417907714844

> <r_mmod_Improper_Torsional_Energy-OPLS-2005>
4.81050395965576

> <r_mmod_Van_der_Waal_Energy-OPLS-2005>
135.035690307617

> <r_mmod_Electrostatic_Energy-OPLS-2005>
-394.284118652344

> <r_mmod_Solvation_Energy-OPLS-2005>
-210.717758178711

> <b_mmod_Minimization_Converged-OPLS-2005>
0

> <r_mmod_RMS_Derivative-OPLS-2005>
4.34222364425659

$$$$
55
                    3D
 Structure written by MMmdl.
159167  0  0  1  0            999 V2000
  -30.7194  -14.4639   20.5762 C   0  0  0  0  0  0
  -30.4172  -12.3042   19.4243 C   0  0  0  0  0  0
  -29.4896  -12.5005   18.2070 C   0  0  0  0  0  0
  -28.0121  -12.3660   18.6237 C   0  0  0  0  0  0
  -27.6609  -13.2085   19.8794 C   0  0  2  0  0  0
  -28.7057  -12.9997   20.9993 C   0  0  0  0  0  0
  -25.2576  -13.8159   20.5670 C   0  0  0  0  0  0
  -24.1835  -13.0424   20.9172 C   0  0  0  0  0  0
  -24.6397  -11.6892   20.8733 C   0  0  0  0  0  0
  -23.9068  -10.4273   21.0394 C   0  0  0  0  0  0
  -24.3614   -9.4197   21.9183 C   0  0  0  0  0  0
  -23.6288   -8.2236   22.0760 C   0  0  0  0  0  0
  -22.4278   -8.0270   21.3546 C   0  0  0  0  0  0
  -21.9907   -9.0243   20.4656 C   0  0  0  0  0  0
  -22.7229  -10.2121   20.3058 C   0  0  0  0  0  0
  -21.6859   -6.0724   22.5272 C   0  0  0  0  0  0
  -21.4012   -6.5634   23.8201 C   0  0  0  0  0  0
  -21.3658   -5.6787   24.9166 C   0  0  0  0  0  0
  -21.6050   -4.3054   24.7222 C   0  0  0  0  0  0
  -21.8816   -3.8139   23.4345 C   0  0  0  0  0  0
  -21.9189   -4.6952   22.3396 C   0  0  0  0  0  0
  -22.7860  -13.5233   21.1823 C   0  0  0  0  0  0
  -22.1668   -4.2135   21.0979 F   0  0  0  0  0  0
  -21.5630   -3.4544   25.7738 F   0  0  0  0  0  0
  -30.0350  -13.2961   20.4416 N   0  0  0  0  0  0
  -26.3025  -12.9336   20.3417 N   0  0  0  0  0  0
  -25.9336  -11.6497   20.5823 N   0  0  0  0  0  0
  -22.0504  -12.8227   22.0382 N   0  0  0  0  0  0
  -25.4270  -15.1866   20.3977 N   0  0  0  0  0  0
  -31.8447  -14.6348   20.1006 O   0  0  0  0  0  0
  -21.6647   -6.8867   21.4235 O   0  0  0  0  0  0
  -22.3549  -14.5542   20.6677 O   0  0  0  0  0  0
  -24.6171  -31.8680   23.2101 C   0  0  0  0  0  0
  -25.9058  -32.4818   23.8403 C   0  0  1  0  0  0
  -27.2205  -27.4016   20.1023 C   0  0  0  0  0  0
  -25.5901  -33.8618   24.2325 N   0  0  0  0  0  0
  -23.4057  -30.4954   21.5505 C   0  0  2  0  0  0
  -24.8506  -28.9649   20.1099 C   0  0  0  0  0  0
  -22.7426  -29.4679   22.4964 C   0  0  0  0  0  0
  -18.0297  -28.1346   22.8486 C   0  0  0  0  0  0
  -24.1486  -36.7318   23.2638 C   0  0  0  0  0  0
  -25.9394  -30.8224   21.3714 C   0  0  0  0  0  0
  -26.0135  -29.4577   20.7145 C   0  0  0  0  0  0
  -27.2008  -28.6841   20.7079 C   0  0  0  0  0  0
  -26.0419  -26.9543   19.4548 C   0  0  0  0  0  0
  -24.8620  -27.7151   19.4744 C   0  0  0  0  0  0
  -23.6162  -29.8348   20.1630 C   0  0  0  0  0  0
  -25.4111  -36.3109   24.0334 C   0  0  1  0  0  0
  -20.5888  -28.3676   23.1316 C   0  0  2  0  0  0
  -20.6810  -26.9411   22.5408 C   0  0  0  0  0  0
  -19.5778  -26.6360   21.5224 C   0  0  0  0  0  0
  -18.1955  -26.7894   22.1625 C   0  0  0  0  0  0
  -19.1531  -28.8822   23.2906 C   0  0  0  0  0  0
  -18.9435  -30.1419   23.8927 C   0  0  0  0  0  0
  -17.6431  -30.6555   24.0547 C   0  0  0  0  0  0
  -25.9037  -34.9474   23.5125 C   0  0  0  0  0  0
  -16.5341  -29.9050   23.6271 C   0  0  0  0  0  0
  -16.7281  -28.6464   23.0309 C   0  0  0  0  0  0
  -26.4478  -31.6595   25.0738 C   0  0  0  0  0  0
  -25.3736  -31.3709   26.1481 C   0  0  0  0  0  0
  -27.0310  -30.3027   24.6137 C   0  0  0  0  0  0
  -27.6050  -32.4323   25.7502 C   0  0  0  0  0  0
  -27.5578  -37.1818   24.8467 C   0  0  0  0  0  0
  -21.4146  -29.3072   22.3728 N   0  0  0  0  0  0
  -26.4295  -37.3794   23.9405 N   0  0  0  0  0  0
  -24.6719  -31.0763   22.1016 N   0  0  0  0  0  0
  -23.4197  -28.8191   23.2988 O   0  0  0  0  0  0
  -28.3638  -26.6162   20.1673 O   0  0  0  0  0  0
  -26.5597  -34.8925   22.4684 O   0  0  0  0  0  0
  -23.5352  -32.1444   23.7471 O   0  0  0  0  0  0
  -28.2063  -17.7377   21.6985 C   0  0  0  0  0  0
  -27.2953  -18.7818   21.9516 C   0  0  0  0  0  0
  -29.5554  -18.0174   21.3990 C   0  0  0  0  0  0
  -29.0722  -20.4489   21.6029 C   0  0  0  0  0  0
  -27.7252  -20.1280   21.9122 C   0  0  0  0  0  0
  -29.9802  -19.3774   21.3443 C   0  0  0  0  0  0
  -25.8513  -18.4384   22.2774 C   0  0  0  0  0  0
  -30.5648  -16.8766   21.1668 C   0  0  0  0  0  0
  -29.5347  -21.9276   21.6524 C   0  0  0  0  0  0
  -29.1463  -24.2976   20.8443 C   0  0  0  0  0  0
  -28.2001  -25.1842   19.9891 C   0  0  0  0  0  0
  -30.0509  -15.4923   21.1318 N   0  0  0  0  0  0
  -28.8674  -22.8330   20.6749 N   0  3  0  0  0  0
  -26.5882  -21.3916   22.2498 Cl  0  0  0  0  0  0
  -31.6398  -19.7146   20.9808 Cl  0  0  0  0  0  0
  -31.4622  -12.3930   19.1220 H   0  0  0  0  0  0
  -30.3113  -11.2948   19.8268 H   0  0  0  0  0  0
  -29.7248  -11.7685   17.4329 H   0  0  0  0  0  0
  -29.6584  -13.4820   17.7620 H   0  0  0  0  0  0
  -27.8202  -11.3104   18.8201 H   0  0  0  0  0  0
  -27.3604  -12.6447   17.7957 H   0  0  0  0  0  0
  -27.7016  -14.2553   19.5794 H   0  0  0  0  0  0
  -28.6836  -11.9674   21.3511 H   0  0  0  0  0  0
  -28.4738  -13.6112   21.8723 H   0  0  0  0  0  0
  -25.2757   -9.5668   22.4769 H   0  0  0  0  0  0
  -23.9996   -7.4629   22.7479 H   0  0  0  0  0  0
  -21.0841   -8.8738   19.8968 H   0  0  0  0  0  0
  -22.3671  -10.9657   19.6174 H   0  0  0  0  0  0
  -21.2003   -7.6141   23.9700 H   0  0  0  0  0  0
  -21.1506   -6.0523   25.9067 H   0  0  0  0  0  0
  -22.0600   -2.7604   23.2846 H   0  0  0  0  0  0
  -22.4130  -11.9902   22.4792 H   0  0  0  0  0  0
  -21.1121  -13.1246   22.2597 H   0  0  0  0  0  0
  -24.6367  -15.8204   20.4390 H   0  0  0  0  0  0
  -26.2597  -15.6184   20.0192 H   0  0  0  0  0  0
  -26.7130  -32.5518   23.1164 H   0  0  0  0  0  0
  -25.0046  -33.9785   25.0466 H   0  0  0  0  0  0
  -22.6981  -31.3148   21.4117 H   0  0  0  0  0  0
  -23.3735  -35.9658   23.3311 H   0  0  0  0  0  0
  -24.3581  -36.8923   22.2048 H   0  0  0  0  0  0
  -23.7251  -37.6536   23.6644 H   0  0  0  0  0  0
  -26.0615  -31.5897   20.6063 H   0  0  0  0  0  0
  -26.8242  -30.8711   21.9945 H   0  0  0  0  0  0
  -28.0939  -29.0533   21.1921 H   0  0  0  0  0  0
  -26.0018  -26.0153   18.9233 H   0  0  0  0  0  0
  -23.9721  -27.3400   18.9864 H   0  0  0  0  0  0
  -23.7287  -30.6111   19.4051 H   0  0  0  0  0  0
  -22.7404  -29.2572   19.8632 H   0  0  0  0  0  0
  -25.1284  -36.1976   25.0825 H   0  0  0  0  0  0
  -20.9991  -28.3238   24.1429 H   0  0  0  0  0  0
  -21.6695  -26.7490   22.1186 H   0  0  0  0  0  0
  -20.5745  -26.2285   23.3599 H   0  0  0  0  0  0
  -19.6931  -25.6270   21.1254 H   0  0  0  0  0  0
  -19.6718  -27.3170   20.6747 H   0  0  0  0  0  0
  -17.4232  -26.6649   21.4007 H   0  0  0  0  0  0
  -18.0329  -26.0032   22.9018 H   0  0  0  0  0  0
  -19.7900  -30.7224   24.2327 H   0  0  0  0  0  0
  -17.4965  -31.6222   24.5168 H   0  0  0  0  0  0
  -15.5336  -30.2952   23.7536 H   0  0  0  0  0  0
  -15.8708  -28.0773   22.7005 H   0  0  0  0  0  0
  -24.5908  -30.7058   25.7816 H   0  0  0  0  0  0
  -24.8925  -32.2865   26.4933 H   0  0  0  0  0  0
  -25.8085  -30.8878   27.0237 H   0  0  0  0  0  0
  -26.2862  -29.6806   24.1154 H   0  0  0  0  0  0
  -27.4026  -29.7260   25.4618 H   0  0  0  0  0  0
  -27.8726  -30.4341   23.9330 H   0  0  0  0  0  0
  -27.2660  -33.3611   26.2107 H   0  0  0  0  0  0
  -28.3840  -32.6904   25.0314 H   0  0  0  0  0  0
  -28.0730  -31.8425   26.5396 H   0  0  0  0  0  0
  -28.2605  -38.0105   24.7494 H   0  0  0  0  0  0
  -28.1064  -36.2637   24.6310 H   0  0  0  0  0  0
  -27.2296  -37.1488   25.8871 H   0  0  0  0  0  0
  -20.9265  -29.8856   21.7041 H   0  0  0  0  0  0
  -26.0183  -38.2872   24.1394 H   0  0  0  0  0  0
  -27.8564  -16.7163   21.7468 H   0  0  0  0  0  0
  -25.1849  -18.8077   21.4976 H   0  0  0  0  0  0
  -25.5562  -18.8866   23.2267 H   0  0  0  0  0  0
  -25.7018  -17.3624   22.3641 H   0  0  0  0  0  0
  -31.0781  -17.0850   20.2255 H   0  0  0  0  0  0
  -31.3257  -16.9326   21.9477 H   0  0  0  0  0  0
  -30.6110  -22.0233   21.5220 H   0  0  0  0  0  0
  -29.3353  -22.2906   22.6626 H   0  0  0  0  0  0
  -29.0152  -24.5677   21.8933 H   0  0  0  0  0  0
  -30.1871  -24.5064   20.5952 H   0  0  0  0  0  0
  -27.1945  -24.8672   20.2689 H   0  0  0  0  0  0
  -28.3279  -24.9536   18.9305 H   0  0  0  0  0  0
  -29.1307  -15.3104   21.4983 H   0  0  0  0  0  0
  -29.1205  -22.5447   19.7408 H   0  0  0  0  0  0
  -27.8757  -22.6776   20.7878 H   0  0  0  0  0  0
  1 25  1  0  0  0
  1 30  2  0  0  0
  1 82  1  0  0  0
  2  3  1  0  0  0
  2 25  1  0  0  0
  2 86  1  0  0  0
  2 87  1  0  0  0
  3  4  1  0  0  0
  3 88  1  0  0  0
  3 89  1  0  0  0
  4  5  1  0  0  0
  4 90  1  0  0  0
  4 91  1  0  0  0
  5  6  1  0  0  0
  5 26  1  0  0  0
  5 92  1  0  0  0
  6 25  1  0  0  0
  6 93  1  0  0  0
  6 94  1  0  0  0
  7  8  2  0  0  0
  7 26  1  0  0  0
  7 29  1  0  0  0
  8  9  1  0  0  0
  8 22  1  0  0  0
  9 10  1  0  0  0
  9 27  2  0  0  0
 10 11  2  0  0  0
 10 15  1  0  0  0
 11 12  1  0  0  0
 11 95  1  0  0  0
 12 13  2  0  0  0
 12 96  1  0  0  0
 13 14  1  0  0  0
 13 31  1  0  0  0
 14 15  2  0  0  0
 14 97  1  0  0  0
 15 98  1  0  0  0
 16 17  2  0  0  0
 16 21  1  0  0  0
 16 31  1  0  0  0
 17 18  1  0  0  0
 17 99  1  0  0  0
 18 19  2  0  0  0
 18100  1  0  0  0
 19 20  1  0  0  0
 19 24  1  0  0  0
 20 21  2  0  0  0
 20101  1  0  0  0
 21 23  1  0  0  0
 22 28  1  0  0  0
 22 32  2  0  0  0
 26 27  1  0  0  0
 28102  1  0  0  0
 28103  1  0  0  0
 29104  1  0  0  0
 29105  1  0  0  0
 33 34  1  0  0  0
 33 66  1  0  0  0
 33 70  2  0  0  0
 34 36  1  0  0  0
 34 59  1  0  0  0
 34106  1  0  0  0
 35 44  2  0  0  0
 35 45  1  0  0  0
 35 68  1  0  0  0
 36 56  1  0  0  0
 36107  1  0  0  0
 37 39  1  0  0  0
 37 47  1  0  0  0
 37 66  1  0  0  0
 37108  1  0  0  0
 38 43  2  0  0  0
 38 46  1  0  0  0
 38 47  1  0  0  0
 39 64  1  0  0  0
 39 67  2  0  0  0
 40 52  1  0  0  0
 40 53  2  0  0  0
 40 58  1  0  0  0
 41109  1  0  0  0
 41110  1  0  0  0
 41111  1  0  0  0
 41 48  1  0  0  0
 42 43  1  0  0  0
 42 66  1  0  0  0
 42112  1  0  0  0
 42113  1  0  0  0
 43 44  1  0  0  0
 44114  1  0  0  0
 45 46  2  0  0  0
 45115  1  0  0  0
 46116  1  0  0  0
 47117  1  0  0  0
 47118  1  0  0  0
 48 56  1  0  0  0
 48 65  1  0  0  0
 48119  1  0  0  0
 49 50  1  0  0  0
 49 53  1  0  0  0
 49 64  1  0  0  0
 49120  1  0  0  0
 50 51  1  0  0  0
 50121  1  0  0  0
 50122  1  0  0  0
 51 52  1  0  0  0
 51123  1  0  0  0
 51124  1  0  0  0
 52125  1  0  0  0
 52126  1  0  0  0
 53 54  1  0  0  0
 54 55  2  0  0  0
 54127  1  0  0  0
 55 57  1  0  0  0
 55128  1  0  0  0
 56 69  2  0  0  0
 57 58  2  0  0  0
 57129  1  0  0  0
 58130  1  0  0  0
 59 60  1  0  0  0
 59 61  1  0  0  0
 59 62  1  0  0  0
 60131  1  0  0  0
 60132  1  0  0  0
 60133  1  0  0  0
 61134  1  0  0  0
 61135  1  0  0  0
 61136  1  0  0  0
 62137  1  0  0  0
 62138  1  0  0  0
 62139  1  0  0  0
 63 65  1  0  0  0
 63140  1  0  0  0
 63141  1  0  0  0
 63142  1  0  0  0
 64143  1  0  0  0
 65144  1  0  0  0
 68 81  1  0  0  0
 71 72  2  0  0  0
 71 73  1  0  0  0
 71145  1  0  0  0
 72 75  1  0  0  0
 72 77  1  0  0  0
 73 76  2  0  0  0
 73 78  1  0  0  0
 74 75  2  0  0  0
 74 76  1  0  0  0
 74 79  1  0  0  0
 75 84  1  0  0  0
 76 85  1  0  0  0
 77146  1  0  0  0
 77147  1  0  0  0
 77148  1  0  0  0
 78 82  1  0  0  0
 78149  1  0  0  0
 78150  1  0  0  0
 79 83  1  0  0  0
 79151  1  0  0  0
 79152  1  0  0  0
 80 81  1  0  0  0
 80 83  1  0  0  0
 80153  1  0  0  0
 80154  1  0  0  0
 81155  1  0  0  0
 81156  1  0  0  0
 82157  1  0  0  0
 83158  1  0  0  0
 83159  1  0  0  0
M  CHG  1  83   1
M  ISO  4   1 100  68 101  81 101  82 100
M  END
> <chiral flag>
0

> <version>
0

> <s_m_source_file>
/data/baiqing/PycharmProjects/Reinvent-master-3.2/result/LINK_invent/BTK/process_docking_weight1_custom_sum_contain_oxygen_bond_distance_aromatic_linkinvent_7_9_3/rearranged_h_0029.sdf

> <i_m_source_file_index>
56

> <r_mmod_Potential_Energy-OPLS-2005>
-285.404449462891

> <r_mmod_Stretch_Energy-OPLS-2005>
45.06298828125

> <r_mmod_Bend_Energy-OPLS-2005>
96.6656036376953

> <r_mmod_Torsional_Energy-OPLS-2005>
186.204376220703

> <r_mmod_Improper_Torsional_Energy-OPLS-2005>
3.83633637428284

> <r_mmod_Van_der_Waal_Energy-OPLS-2005>
162.051818847656

> <r_mmod_Electrostatic_Energy-OPLS-2005>
-348.970550537109

> <r_mmod_Solvation_Energy-OPLS-2005>
-447.784362792969

> <b_mmod_Minimization_Converged-OPLS-2005>
0

> <r_mmod_RMS_Derivative-OPLS-2005>
2.25306439399719

$$$$
56
                    3D
 Structure written by MMmdl.
166174  0  0  1  0            999 V2000
  -30.7051  -14.6379   20.5937 C   0  0  0  0  0  0
  -30.4389  -12.4283   19.4651 C   0  0  0  0  0  0
  -29.5096  -12.5147   18.2365 C   0  0  0  0  0  0
  -28.0404  -12.3477   18.6611 C   0  0  0  0  0  0
  -27.6630  -13.2238   19.8832 C   0  0  2  0  0  0
  -28.7107  -13.1136   21.0178 C   0  0  0  0  0  0
  -25.2547  -13.8154   20.5629 C   0  0  0  0  0  0
  -24.1869  -13.0469   20.9112 C   0  0  0  0  0  0
  -24.6456  -11.6926   20.8793 C   0  0  0  0  0  0
  -23.9130  -10.4326   21.0432 C   0  0  0  0  0  0
  -24.3676   -9.4241   21.9211 C   0  0  0  0  0  0
  -23.6338   -8.2283   22.0790 C   0  0  0  0  0  0
  -22.4326   -8.0336   21.3557 C   0  0  0  0  0  0
  -21.9970   -9.0316   20.4663 C   0  0  0  0  0  0
  -22.7309  -10.2184   20.3078 C   0  0  0  0  0  0
  -21.6876   -6.0771   22.5271 C   0  0  0  0  0  0
  -21.4043   -6.5656   23.8214 C   0  0  0  0  0  0
  -21.3664   -5.6797   24.9153 C   0  0  0  0  0  0
  -21.6044   -4.3057   24.7197 C   0  0  0  0  0  0
  -21.8824   -3.8170   23.4313 C   0  0  0  0  0  0
  -21.9211   -4.6991   22.3383 C   0  0  0  0  0  0
  -22.7912  -13.5277   21.1776 C   0  0  0  0  0  0
  -22.1670   -4.2175   21.0951 F   0  0  0  0  0  0
  -21.5614   -3.4554   25.7708 F   0  0  0  0  0  0
  -30.0203  -13.4540   20.4448 N   0  0  0  0  0  0
  -26.3071  -12.9390   20.3456 N   0  0  0  0  0  0
  -25.9428  -11.6539   20.5966 N   0  0  0  0  0  0
  -22.0629  -12.8293   22.0331 N   0  0  0  0  0  0
  -25.4179  -15.1887   20.3994 N   0  0  0  0  0  0
  -31.8502  -14.7572   20.1507 O   0  0  0  0  0  0
  -21.6670   -6.8953   21.4265 O   0  0  0  0  0  0
  -22.3596  -14.5665   20.6765 O   0  0  0  0  0  0
  -24.6142  -31.8702   23.2047 C   0  0  0  0  0  0
  -25.8998  -32.4828   23.8388 C   0  0  1  0  0  0
  -27.2770  -27.4179   20.1170 C   0  0  0  0  0  0
  -25.5892  -33.8622   24.2341 N   0  0  0  0  0  0
  -23.4062  -30.4823   21.5439 C   0  0  2  0  0  0
  -24.8618  -28.9459   20.1092 C   0  0  0  0  0  0
  -22.7418  -29.4608   22.4971 C   0  0  0  0  0  0
  -18.0254  -28.1341   22.8447 C   0  0  0  0  0  0
  -24.1477  -36.7329   23.2649 C   0  0  0  0  0  0
  -25.9305  -30.8301   21.3616 C   0  0  0  0  0  0
  -26.0179  -29.4609   20.7087 C   0  0  0  0  0  0
  -27.2201  -28.7107   20.7009 C   0  0  0  0  0  0
  -26.0995  -26.9238   19.5042 C   0  0  0  0  0  0
  -24.9061  -27.6809   19.4939 C   0  0  0  0  0  0
  -23.6172  -29.8074   20.1615 C   0  0  0  0  0  0
  -25.4116  -36.3133   24.0356 C   0  0  1  0  0  0
  -20.5851  -28.3636   23.1307 C   0  0  2  0  0  0
  -20.6717  -26.9347   22.5426 C   0  0  0  0  0  0
  -19.5655  -26.6359   21.5219 C   0  0  0  0  0  0
  -18.1862  -26.7906   22.1581 C   0  0  0  0  0  0
  -19.1512  -28.8817   23.2835 C   0  0  0  0  0  0
  -18.9417  -30.1410   23.8863 C   0  0  0  0  0  0
  -17.6418  -30.6521   24.0552 C   0  0  0  0  0  0
  -25.9065  -34.9506   23.5168 C   0  0  0  0  0  0
  -16.5316  -29.8979   23.6395 C   0  0  0  0  0  0
  -16.7223  -28.6432   23.0341 C   0  0  0  0  0  0
  -26.4433  -31.6605   25.0724 C   0  0  0  0  0  0
  -25.3686  -31.3687   26.1457 C   0  0  0  0  0  0
  -27.0278  -30.3063   24.6089 C   0  0  0  0  0  0
  -27.6022  -32.4335   25.7455 C   0  0  0  0  0  0
  -27.5584  -37.1834   24.8476 C   0  0  0  0  0  0
  -21.4144  -29.2966   22.3692 N   0  0  0  0  0  0
  -26.4307  -37.3813   23.9416 N   0  0  0  0  0  0
  -24.6655  -31.0752   22.0941 N   0  0  0  0  0  0
  -23.4152  -28.8223   23.3082 O   0  0  0  0  0  0
  -28.4798  -26.7189   20.1702 O   0  0  0  0  0  0
  -26.5593  -34.8966   22.4711 O   0  0  0  0  0  0
  -23.5328  -32.1411   23.7470 O   0  0  0  0  0  0
  -30.1365  -19.7950   21.5392 C   0  0  0  0  0  0
  -29.9881  -18.4209   21.0206 C   0  0  0  0  0  0
  -29.3292  -20.6619   20.7955 C   0  0  0  0  0  0
  -29.1908  -18.6072   19.9236 C   0  0  0  0  0  0
  -32.0249  -19.3355   23.2977 C   0  0  0  0  0  0
  -30.2480  -21.0822   23.7730 C   0  0  0  0  0  0
  -27.8614  -20.4222   18.7504 C   0  0  0  0  0  0
  -30.6209  -17.0600   21.5150 C   0  0  0  0  0  0
  -28.9676  -22.1665   20.9226 C   0  0  0  0  0  0
  -29.6923  -24.6163   20.7652 C   0  0  0  0  0  0
  -28.5583  -25.2882   19.9092 C   0  0  0  0  0  0
  -31.0309  -20.3242   22.6763 C   0  0  0  0  0  0
  -28.7605  -19.9144   19.7778 N   0  0  0  0  0  0
  -30.0525  -15.7100   21.1455 N   0  0  0  0  0  0
  -30.0032  -23.1576   20.5179 N   0  3  0  0  0  0
  -28.7512  -17.4056   18.7632 Cl  0  0  0  0  0  0
  -31.4787  -12.5525   19.1647 H   0  0  0  0  0  0
  -30.3764  -11.4427   19.9235 H   0  0  0  0  0  0
  -29.7735  -11.7488   17.5054 H   0  0  0  0  0  0
  -29.6449  -13.4735   17.7348 H   0  0  0  0  0  0
  -27.8959  -11.2966   18.9146 H   0  0  0  0  0  0
  -27.3751  -12.5666   17.8250 H   0  0  0  0  0  0
  -27.6712  -14.2580   19.5343 H   0  0  0  0  0  0
  -28.7399  -12.1078   21.4435 H   0  0  0  0  0  0
  -28.4580  -13.7846   21.8389 H   0  0  0  0  0  0
  -25.2851   -9.5753   22.4752 H   0  0  0  0  0  0
  -24.0064   -7.4697   22.7539 H   0  0  0  0  0  0
  -21.0910   -8.8901   19.8949 H   0  0  0  0  0  0
  -22.3829  -10.9756   19.6181 H   0  0  0  0  0  0
  -21.2060   -7.6176   23.9705 H   0  0  0  0  0  0
  -21.1457   -6.0530   25.9040 H   0  0  0  0  0  0
  -22.0597   -2.7643   23.2805 H   0  0  0  0  0  0
  -22.4309  -11.9949   22.4680 H   0  0  0  0  0  0
  -21.1224  -13.1317   22.2463 H   0  0  0  0  0  0
  -24.6533  -15.8375   20.5463 H   0  0  0  0  0  0
  -26.2659  -15.6376   20.0778 H   0  0  0  0  0  0
  -26.7099  -32.5539   23.1186 H   0  0  0  0  0  0
  -25.0003  -33.9796   25.0456 H   0  0  0  0  0  0
  -22.6945  -31.3014   21.4047 H   0  0  0  0  0  0
  -23.3754  -35.9646   23.3338 H   0  0  0  0  0  0
  -24.3534  -36.8901   22.2052 H   0  0  0  0  0  0
  -23.7234  -37.6560   23.6610 H   0  0  0  0  0  0
  -26.0419  -31.5909   20.5901 H   0  0  0  0  0  0
  -26.8203  -30.8890   21.9772 H   0  0  0  0  0  0
  -28.1138  -29.1248   21.1550 H   0  0  0  0  0  0
  -26.0850  -25.9556   19.0290 H   0  0  0  0  0  0
  -24.0279  -27.2717   19.0178 H   0  0  0  0  0  0
  -23.7087  -30.5808   19.3964 H   0  0  0  0  0  0
  -22.7412  -29.2193   19.8773 H   0  0  0  0  0  0
  -25.1293  -36.2035   25.0849 H   0  0  0  0  0  0
  -20.9988  -28.3160   24.1431 H   0  0  0  0  0  0
  -20.5700  -26.2206   23.3634 H   0  0  0  0  0  0
  -21.6504  -26.7510   22.1058 H   0  0  0  0  0  0
  -19.6599  -27.3155   20.6733 H   0  0  0  0  0  0
  -19.6788  -25.6234   21.1280 H   0  0  0  0  0  0
  -17.4186  -26.6709   21.3919 H   0  0  0  0  0  0
  -18.0195  -26.0071   22.8990 H   0  0  0  0  0  0
  -19.7917  -30.7261   24.2167 H   0  0  0  0  0  0
  -17.4922  -31.6198   24.5116 H   0  0  0  0  0  0
  -15.5344  -30.2891   23.7663 H   0  0  0  0  0  0
  -15.8599  -28.0798   22.7026 H   0  0  0  0  0  0
  -24.5896  -30.7004   25.7758 H   0  0  0  0  0  0
  -24.8821  -32.2820   26.4892 H   0  0  0  0  0  0
  -25.8042  -30.8848   27.0217 H   0  0  0  0  0  0
  -26.2813  -29.6832   24.1152 H   0  0  0  0  0  0
  -27.4066  -29.7298   25.4545 H   0  0  0  0  0  0
  -27.8637  -30.4402   23.9225 H   0  0  0  0  0  0
  -27.2658  -33.3655   26.2023 H   0  0  0  0  0  0
  -28.3797  -32.6884   25.0232 H   0  0  0  0  0  0
  -28.0715  -31.8453   26.5346 H   0  0  0  0  0  0
  -28.2659  -38.0070   24.7505 H   0  0  0  0  0  0
  -28.1035  -36.2632   24.6352 H   0  0  0  0  0  0
  -27.2292  -37.1560   25.8868 H   0  0  0  0  0  0
  -20.9357  -29.8628   21.6823 H   0  0  0  0  0  0
  -26.0229  -38.2919   24.1347 H   0  0  0  0  0  0
  -32.6181  -18.8160   22.5451 H   0  0  0  0  0  0
  -31.5317  -18.6082   23.9371 H   0  0  0  0  0  0
  -32.7493  -19.8642   23.9237 H   0  0  0  0  0  0
  -29.9732  -22.0862   23.4609 H   0  0  0  0  0  0
  -30.8497  -21.2319   24.6708 H   0  0  0  0  0  0
  -29.3424  -20.5627   24.0832 H   0  0  0  0  0  0
  -27.3916  -19.6052   18.2089 H   0  0  0  0  0  0
  -28.3927  -21.0860   18.0601 H   0  0  0  0  0  0
  -27.0413  -20.9658   19.2154 H   0  0  0  0  0  0
  -30.5706  -17.0766   22.6051 H   0  0  0  0  0  0
  -31.6800  -17.0714   21.2582 H   0  0  0  0  0  0
  -28.5903  -22.3777   21.9228 H   0  0  0  0  0  0
  -28.1265  -22.4289   20.2859 H   0  0  0  0  0  0
  -29.4803  -24.7625   21.8256 H   0  0  0  0  0  0
  -30.6223  -25.1560   20.5850 H   0  0  0  0  0  0
  -27.6074  -24.8156   20.1375 H   0  0  0  0  0  0
  -28.7493  -25.1411   18.8449 H   0  0  0  0  0  0
  -31.6797  -21.0612   22.2004 H   0  0  0  0  0  0
  -29.1120  -15.5332   21.4692 H   0  0  0  0  0  0
  -30.2298  -23.0184   19.5452 H   0  0  0  0  0  0
  -30.8338  -22.9428   21.0422 H   0  0  0  0  0  0
  1 25  1  0  0  0
  1 30  2  0  0  0
  1 84  1  0  0  0
  2  3  1  0  0  0
  2 25  1  0  0  0
  2 87  1  0  0  0
  2 88  1  0  0  0
  3  4  1  0  0  0
  3 89  1  0  0  0
  3 90  1  0  0  0
  4  5  1  0  0  0
  4 91  1  0  0  0
  4 92  1  0  0  0
  5  6  1  0  0  0
  5 26  1  0  0  0
  5 93  1  0  0  0
  6 25  1  0  0  0
  6 94  1  0  0  0
  6 95  1  0  0  0
  7  8  2  0  0  0
  7 26  1  0  0  0
  7 29  1  0  0  0
  8  9  1  0  0  0
  8 22  1  0  0  0
  9 10  1  0  0  0
  9 27  2  0  0  0
 10 11  2  0  0  0
 10 15  1  0  0  0
 11 12  1  0  0  0
 11 96  1  0  0  0
 12 13  2  0  0  0
 12 97  1  0  0  0
 13 14  1  0  0  0
 13 31  1  0  0  0
 14 15  2  0  0  0
 14 98  1  0  0  0
 15 99  1  0  0  0
 16 17  2  0  0  0
 16 21  1  0  0  0
 16 31  1  0  0  0
 17 18  1  0  0  0
 17100  1  0  0  0
 18 19  2  0  0  0
 18101  1  0  0  0
 19 20  1  0  0  0
 19 24  1  0  0  0
 20 21  2  0  0  0
 20102  1  0  0  0
 21 23  1  0  0  0
 22 28  1  0  0  0
 22 32  2  0  0  0
 26 27  1  0  0  0
 28103  1  0  0  0
 28104  1  0  0  0
 29105  1  0  0  0
 29106  1  0  0  0
 33 34  1  0  0  0
 33 66  1  0  0  0
 33 70  2  0  0  0
 34 36  1  0  0  0
 34 59  1  0  0  0
 34107  1  0  0  0
 35 44  2  0  0  0
 35 45  1  0  0  0
 35 68  1  0  0  0
 36 56  1  0  0  0
 36108  1  0  0  0
 37 39  1  0  0  0
 37 47  1  0  0  0
 37 66  1  0  0  0
 37109  1  0  0  0
 38 43  2  0  0  0
 38 46  1  0  0  0
 38 47  1  0  0  0
 39 64  1  0  0  0
 39 67  2  0  0  0
 40 52  1  0  0  0
 40 53  2  0  0  0
 40 58  1  0  0  0
 41110  1  0  0  0
 41111  1  0  0  0
 41112  1  0  0  0
 41 48  1  0  0  0
 42 43  1  0  0  0
 42 66  1  0  0  0
 42113  1  0  0  0
 42114  1  0  0  0
 43 44  1  0  0  0
 44115  1  0  0  0
 45 46  2  0  0  0
 45116  1  0  0  0
 46117  1  0  0  0
 47118  1  0  0  0
 47119  1  0  0  0
 48 56  1  0  0  0
 48 65  1  0  0  0
 48120  1  0  0  0
 49 50  1  0  0  0
 49 53  1  0  0  0
 49 64  1  0  0  0
 49121  1  0  0  0
 50 51  1  0  0  0
 50122  1  0  0  0
 50123  1  0  0  0
 51 52  1  0  0  0
 51124  1  0  0  0
 51125  1  0  0  0
 52126  1  0  0  0
 52127  1  0  0  0
 53 54  1  0  0  0
 54 55  2  0  0  0
 54128  1  0  0  0
 55 57  1  0  0  0
 55129  1  0  0  0
 56 69  2  0  0  0
 57 58  2  0  0  0
 57130  1  0  0  0
 58131  1  0  0  0
 59 60  1  0  0  0
 59 61  1  0  0  0
 59 62  1  0  0  0
 60132  1  0  0  0
 60133  1  0  0  0
 60134  1  0  0  0
 61135  1  0  0  0
 61136  1  0  0  0
 61137  1  0  0  0
 62138  1  0  0  0
 62139  1  0  0  0
 62140  1  0  0  0
 63 65  1  0  0  0
 63141  1  0  0  0
 63142  1  0  0  0
 63143  1  0  0  0
 64144  1  0  0  0
 65145  1  0  0  0
 68 81  1  0  0  0
 71 72  1  0  0  0
 71 73  2  0  0  0
 71 82  1  0  0  0
 72 74  2  0  0  0
 72 78  1  0  0  0
 73 79  1  0  0  0
 73 83  1  0  0  0
 74 83  1  0  0  0
 74 86  1  0  0  0
 75146  1  0  0  0
 75147  1  0  0  0
 75148  1  0  0  0
 75 82  1  0  0  0
 76 82  1  0  0  0
 76149  1  0  0  0
 76150  1  0  0  0
 76151  1  0  0  0
 77 83  1  0  0  0
 77152  1  0  0  0
 77153  1  0  0  0
 77154  1  0  0  0
 78 84  1  0  0  0
 78155  1  0  0  0
 78156  1  0  0  0
 79 85  1  0  0  0
 79157  1  0  0  0
 79158  1  0  0  0
 80 81  1  0  0  0
 80 85  1  0  0  0
 80159  1  0  0  0
 80160  1  0  0  0
 81161  1  0  0  0
 81162  1  0  0  0
 82163  1  0  0  0
 84164  1  0  0  0
 85165  1  0  0  0
 85166  1  0  0  0
M  CHG  1  85   1
M  ISO  4   1 100  68 101  81 101  84 100
M  END
> <chiral flag>
0

> <version>
0

> <s_m_source_file>
/data/baiqing/PycharmProjects/Reinvent-master-3.2/result/LINK_invent/BTK/process_docking_weight1_custom_sum_contain_oxygen_bond_distance_aromatic_linkinvent_7_9_3/rearranged_h_0029.sdf

> <i_m_source_file_index>
57

> <r_mmod_Potential_Energy-OPLS-2005>
-194.439575195312

> <r_mmod_Stretch_Energy-OPLS-2005>
73.2927474975586

> <r_mmod_Bend_Energy-OPLS-2005>
160.924530029297

> <r_mmod_Torsional_Energy-OPLS-2005>
196.933319091797

> <r_mmod_Improper_Torsional_Energy-OPLS-2005>
2.64783191680908

> <r_mmod_Van_der_Waal_Energy-OPLS-2005>
125.217910766602

> <r_mmod_Electrostatic_Energy-OPLS-2005>
-328.484405517578

> <r_mmod_Solvation_Energy-OPLS-2005>
-460.001586914062

> <b_mmod_Minimization_Converged-OPLS-2005>
0

> <r_mmod_RMS_Derivative-OPLS-2005>
9.16002559661865

$$$$
57
                    3D
 Structure written by MMmdl.
159167  0  0  1  0            999 V2000
  -30.7353  -14.4944   20.6294 C   0  0  0  0  0  0
  -30.4176  -12.3509   19.4351 C   0  0  0  0  0  0
  -29.4914  -12.5225   18.2148 C   0  0  0  0  0  0
  -28.0232  -12.3506   18.6351 C   0  0  0  0  0  0
  -27.6584  -13.2046   19.8739 C   0  0  2  0  0  0
  -28.6979  -13.0080   21.0020 C   0  0  0  0  0  0
  -25.2547  -13.8096   20.5545 C   0  0  0  0  0  0
  -24.1832  -13.0412   20.9095 C   0  0  0  0  0  0
  -24.6394  -11.6858   20.8699 C   0  0  0  0  0  0
  -23.9090  -10.4237   21.0377 C   0  0  0  0  0  0
  -24.3625   -9.4164   21.9172 C   0  0  0  0  0  0
  -23.6257   -8.2224   22.0769 C   0  0  0  0  0  0
  -22.4238   -8.0291   21.3580 C   0  0  0  0  0  0
  -21.9894   -9.0276   20.4680 C   0  0  0  0  0  0
  -22.7246  -10.2113   20.3074 C   0  0  0  0  0  0
  -21.6842   -6.0738   22.5292 C   0  0  0  0  0  0
  -21.4004   -6.5638   23.8221 C   0  0  0  0  0  0
  -21.3674   -5.6771   24.9180 C   0  0  0  0  0  0
  -21.6043   -4.3033   24.7203 C   0  0  0  0  0  0
  -21.8809   -3.8147   23.4315 C   0  0  0  0  0  0
  -21.9160   -4.6961   22.3379 C   0  0  0  0  0  0
  -22.7867  -13.5270   21.1726 C   0  0  0  0  0  0
  -22.1644   -4.2167   21.0956 F   0  0  0  0  0  0
  -21.5616   -3.4504   25.7701 F   0  0  0  0  0  0
  -30.0260  -13.3386   20.4622 N   0  0  0  0  0  0
  -26.3008  -12.9295   20.3305 N   0  0  0  0  0  0
  -25.9336  -11.6449   20.5740 N   0  0  0  0  0  0
  -22.0454  -12.8396   22.0329 N   0  0  0  0  0  0
  -25.4202  -15.1791   20.3779 N   0  0  0  0  0  0
  -31.8149  -14.6744   20.0613 O   0  0  0  0  0  0
  -21.6613   -6.8882   21.4265 O   0  0  0  0  0  0
  -22.3640  -14.5603   20.6526 O   0  0  0  0  0  0
  -24.6179  -31.8667   23.2067 C   0  0  0  0  0  0
  -25.9083  -32.4802   23.8358 C   0  0  1  0  0  0
  -27.2200  -27.4374   20.1024 C   0  0  0  0  0  0
  -25.5954  -33.8593   24.2303 N   0  0  0  0  0  0
  -23.3986  -30.4933   21.5506 C   0  0  2  0  0  0
  -24.8360  -28.9536   20.1170 C   0  0  0  0  0  0
  -22.7404  -29.4691   22.5030 C   0  0  0  0  0  0
  -18.0285  -28.1360   22.8471 C   0  0  0  0  0  0
  -24.1489  -36.7310   23.2632 C   0  0  0  0  0  0
  -25.9222  -30.8346   21.3536 C   0  0  0  0  0  0
  -25.9946  -29.4657   20.7109 C   0  0  0  0  0  0
  -27.1924  -28.7162   20.7010 C   0  0  0  0  0  0
  -26.0451  -26.9310   19.5081 C   0  0  0  0  0  0
  -24.8557  -27.6842   19.5136 C   0  0  0  0  0  0
  -23.6008  -29.8263   20.1636 C   0  0  0  0  0  0
  -25.4108  -36.3104   24.0340 C   0  0  1  0  0  0
  -20.5857  -28.3688   23.1358 C   0  0  2  0  0  0
  -20.6785  -26.9399   22.5488 C   0  0  0  0  0  0
  -19.5813  -26.6361   21.5236 C   0  0  0  0  0  0
  -18.1967  -26.7910   22.1578 C   0  0  0  0  0  0
  -19.1509  -28.8839   23.2894 C   0  0  0  0  0  0
  -18.9394  -30.1450   23.8875 C   0  0  0  0  0  0
  -17.6411  -30.6582   24.0550 C   0  0  0  0  0  0
  -25.9056  -34.9462   23.5118 C   0  0  0  0  0  0
  -16.5321  -29.9070   23.6284 C   0  0  0  0  0  0
  -16.7289  -28.6487   23.0299 C   0  0  0  0  0  0
  -26.4486  -31.6572   25.0660 C   0  0  0  0  0  0
  -25.3821  -31.3691   26.1466 C   0  0  0  0  0  0
  -27.0322  -30.3040   24.5991 C   0  0  0  0  0  0
  -27.6053  -32.4299   25.7439 C   0  0  0  0  0  0
  -27.5587  -37.1797   24.8466 C   0  0  0  0  0  0
  -21.4125  -29.3085   22.3792 N   0  0  0  0  0  0
  -26.4276  -37.3805   23.9436 N   0  0  0  0  0  0
  -24.6645  -31.0796   22.0954 N   0  0  0  0  0  0
  -23.4198  -28.8246   23.3078 O   0  0  0  0  0  0
  -28.3751  -26.6951   20.0989 O   0  0  0  0  0  0
  -26.5582  -34.8909   22.4663 O   0  0  0  0  0  0
  -23.5396  -32.1403   23.7504 O   0  0  0  0  0  0
  -30.3026  -18.2834   20.7679 C   0  0  0  0  0  0
  -28.0510  -19.8906   21.2309 C   0  0  0  0  0  0
  -30.3090  -19.6438   20.3701 C   0  0  0  0  0  0
  -29.1755  -17.6968   21.3859 C   0  0  0  0  0  0
  -29.1422  -20.4424   20.5187 C   0  0  0  0  0  0
  -28.0762  -18.5490   21.6852 C   0  0  0  0  0  0
  -31.5667  -20.1940   19.7222 C   0  0  0  0  0  0
  -29.1017  -16.1782   21.6735 C   0  0  0  0  0  0
  -28.9917  -21.8029   19.8018 C   0  0  0  0  0  0
  -28.3762  -24.2221   19.9097 C   0  0  0  0  0  0
  -28.2948  -25.4632   20.8288 C   0  0  0  0  0  0
  -30.3574  -15.4167   21.5413 N   0  0  0  0  0  0
  -28.7150  -22.9760   20.6613 N   0  3  0  0  0  0
  -26.7182  -17.9554   22.5764 Cl  0  0  0  0  0  0
  -31.4586  -12.4490   19.1219 H   0  0  0  0  0  0
  -30.3307  -11.3436   19.8439 H   0  0  0  0  0  0
  -29.7478  -11.8050   17.4332 H   0  0  0  0  0  0
  -29.6320  -13.5136   17.7807 H   0  0  0  0  0  0
  -27.8692  -11.2961   18.8641 H   0  0  0  0  0  0
  -27.3580  -12.5848   17.8026 H   0  0  0  0  0  0
  -27.6912  -14.2426   19.5493 H   0  0  0  0  0  0
  -28.6924  -11.9680   21.3379 H   0  0  0  0  0  0
  -28.4516  -13.6049   21.8778 H   0  0  0  0  0  0
  -25.2756   -9.5561   22.4779 H   0  0  0  0  0  0
  -23.9908   -7.4611   22.7528 H   0  0  0  0  0  0
  -21.0809   -8.8861   19.8993 H   0  0  0  0  0  0
  -22.3762  -10.9697   19.6209 H   0  0  0  0  0  0
  -21.2051   -7.6155   23.9741 H   0  0  0  0  0  0
  -21.1511   -6.0492   25.9071 H   0  0  0  0  0  0
  -22.0571   -2.7605   23.2803 H   0  0  0  0  0  0
  -22.3996  -12.0105   22.4844 H   0  0  0  0  0  0
  -21.1140  -13.1580   22.2559 H   0  0  0  0  0  0
  -24.6152  -15.7957   20.4030 H   0  0  0  0  0  0
  -26.2181  -15.5799   19.9050 H   0  0  0  0  0  0
  -26.7163  -32.5529   23.1126 H   0  0  0  0  0  0
  -25.0213  -33.9747   25.0534 H   0  0  0  0  0  0
  -22.6863  -31.3100   21.4162 H   0  0  0  0  0  0
  -23.3737  -35.9661   23.3283 H   0  0  0  0  0  0
  -24.3588  -36.8915   22.2043 H   0  0  0  0  0  0
  -23.7209  -37.6510   23.6634 H   0  0  0  0  0  0
  -26.0295  -31.5896   20.5749 H   0  0  0  0  0  0
  -26.8130  -30.8879   21.9681 H   0  0  0  0  0  0
  -28.0853  -29.1043   21.1662 H   0  0  0  0  0  0
  -26.0404  -25.9535   19.0478 H   0  0  0  0  0  0
  -23.9613  -27.2750   19.0598 H   0  0  0  0  0  0
  -23.7221  -30.5969   19.3992 H   0  0  0  0  0  0
  -22.7214  -29.2515   19.8709 H   0  0  0  0  0  0
  -25.1267  -36.1966   25.0828 H   0  0  0  0  0  0
  -20.9860  -28.3292   24.1510 H   0  0  0  0  0  0
  -20.5621  -26.2329   23.3715 H   0  0  0  0  0  0
  -21.6649  -26.7411   22.1298 H   0  0  0  0  0  0
  -19.6998  -25.6302   21.1202 H   0  0  0  0  0  0
  -19.6806  -27.3214   20.6775 H   0  0  0  0  0  0
  -17.4313  -26.6634   21.3939 H   0  0  0  0  0  0
  -18.0351  -26.0019   22.8954 H   0  0  0  0  0  0
  -19.7860  -30.7266   24.2269 H   0  0  0  0  0  0
  -17.4944  -31.6256   24.5155 H   0  0  0  0  0  0
  -15.5303  -30.2945   23.7588 H   0  0  0  0  0  0
  -15.8718  -28.0821   22.6944 H   0  0  0  0  0  0
  -24.5952  -30.7036   25.7865 H   0  0  0  0  0  0
  -24.9072  -32.2871   26.4962 H   0  0  0  0  0  0
  -25.8252  -30.8856   27.0196 H   0  0  0  0  0  0
  -26.2837  -29.6748   24.1130 H   0  0  0  0  0  0
  -27.4241  -29.7280   25.4391 H   0  0  0  0  0  0
  -27.8613  -30.4373   23.9023 H   0  0  0  0  0  0
  -27.2624  -33.3568   26.2059 H   0  0  0  0  0  0
  -28.3840  -32.6904   25.0256 H   0  0  0  0  0  0
  -28.0734  -31.8401   26.5324 H   0  0  0  0  0  0
  -28.2597  -38.0107   24.7532 H   0  0  0  0  0  0
  -28.1074  -36.2624   24.6261 H   0  0  0  0  0  0
  -27.2311  -37.1430   25.8871 H   0  0  0  0  0  0
  -20.9276  -29.8884   21.7091 H   0  0  0  0  0  0
  -26.0155  -38.2884   24.1468 H   0  0  0  0  0  0
  -31.1717  -17.6804   20.5534 H   0  0  0  0  0  0
  -27.1533  -20.4741   21.3867 H   0  0  0  0  0  0
  -32.3956  -19.4844   19.7636 H   0  0  0  0  0  0
  -31.8934  -21.1042   20.2253 H   0  0  0  0  0  0
  -31.3868  -20.4260   18.6747 H   0  0  0  0  0  0
  -28.3171  -15.7686   21.0383 H   0  0  0  0  0  0
  -28.7654  -16.0319   22.6983 H   0  0  0  0  0  0
  -28.1992  -21.6973   19.0599 H   0  0  0  0  0  0
  -29.8845  -22.0372   19.2288 H   0  0  0  0  0  0
  -29.1306  -24.4022   19.1406 H   0  0  0  0  0  0
  -27.4277  -24.0869   19.3922 H   0  0  0  0  0  0
  -29.1410  -25.4602   21.5139 H   0  0  0  0  0  0
  -27.3946  -25.4193   21.4463 H   0  0  0  0  0  0
  -31.1448  -15.9989   21.7816 H   0  0  0  0  0  0
  -29.5413  -23.1452   21.2132 H   0  0  0  0  0  0
  -27.9583  -22.7602   21.2877 H   0  0  0  0  0  0
  1 25  1  0  0  0
  1 30  2  0  0  0
  1 82  1  0  0  0
  2  3  1  0  0  0
  2 25  1  0  0  0
  2 85  1  0  0  0
  2 86  1  0  0  0
  3  4  1  0  0  0
  3 87  1  0  0  0
  3 88  1  0  0  0
  4  5  1  0  0  0
  4 89  1  0  0  0
  4 90  1  0  0  0
  5  6  1  0  0  0
  5 26  1  0  0  0
  5 91  1  0  0  0
  6 25  1  0  0  0
  6 92  1  0  0  0
  6 93  1  0  0  0
  7  8  2  0  0  0
  7 26  1  0  0  0
  7 29  1  0  0  0
  8  9  1  0  0  0
  8 22  1  0  0  0
  9 10  1  0  0  0
  9 27  2  0  0  0
 10 11  2  0  0  0
 10 15  1  0  0  0
 11 12  1  0  0  0
 11 94  1  0  0  0
 12 13  2  0  0  0
 12 95  1  0  0  0
 13 14  1  0  0  0
 13 31  1  0  0  0
 14 15  2  0  0  0
 14 96  1  0  0  0
 15 97  1  0  0  0
 16 17  2  0  0  0
 16 21  1  0  0  0
 16 31  1  0  0  0
 17 18  1  0  0  0
 17 98  1  0  0  0
 18 19  2  0  0  0
 18 99  1  0  0  0
 19 20  1  0  0  0
 19 24  1  0  0  0
 20 21  2  0  0  0
 20100  1  0  0  0
 21 23  1  0  0  0
 22 28  1  0  0  0
 22 32  2  0  0  0
 26 27  1  0  0  0
 28101  1  0  0  0
 28102  1  0  0  0
 29103  1  0  0  0
 29104  1  0  0  0
 33 34  1  0  0  0
 33 66  1  0  0  0
 33 70  2  0  0  0
 34 36  1  0  0  0
 34 59  1  0  0  0
 34105  1  0  0  0
 35 44  2  0  0  0
 35 45  1  0  0  0
 35 68  1  0  0  0
 36 56  1  0  0  0
 36106  1  0  0  0
 37 39  1  0  0  0
 37 47  1  0  0  0
 37 66  1  0  0  0
 37107  1  0  0  0
 38 43  2  0  0  0
 38 46  1  0  0  0
 38 47  1  0  0  0
 39 64  1  0  0  0
 39 67  2  0  0  0
 40 52  1  0  0  0
 40 53  2  0  0  0
 40 58  1  0  0  0
 41108  1  0  0  0
 41109  1  0  0  0
 41110  1  0  0  0
 41 48  1  0  0  0
 42 43  1  0  0  0
 42 66  1  0  0  0
 42111  1  0  0  0
 42112  1  0  0  0
 43 44  1  0  0  0
 44113  1  0  0  0
 45 46  2  0  0  0
 45114  1  0  0  0
 46115  1  0  0  0
 47116  1  0  0  0
 47117  1  0  0  0
 48 56  1  0  0  0
 48 65  1  0  0  0
 48118  1  0  0  0
 49 50  1  0  0  0
 49 53  1  0  0  0
 49 64  1  0  0  0
 49119  1  0  0  0
 50 51  1  0  0  0
 50120  1  0  0  0
 50121  1  0  0  0
 51 52  1  0  0  0
 51122  1  0  0  0
 51123  1  0  0  0
 52124  1  0  0  0
 52125  1  0  0  0
 53 54  1  0  0  0
 54 55  2  0  0  0
 54126  1  0  0  0
 55 57  1  0  0  0
 55127  1  0  0  0
 56 69  2  0  0  0
 57 58  2  0  0  0
 57128  1  0  0  0
 58129  1  0  0  0
 59 60  1  0  0  0
 59 61  1  0  0  0
 59 62  1  0  0  0
 60130  1  0  0  0
 60131  1  0  0  0
 60132  1  0  0  0
 61133  1  0  0  0
 61134  1  0  0  0
 61135  1  0  0  0
 62136  1  0  0  0
 62137  1  0  0  0
 62138  1  0  0  0
 63 65  1  0  0  0
 63139  1  0  0  0
 63140  1  0  0  0
 63141  1  0  0  0
 64142  1  0  0  0
 65143  1  0  0  0
 68 81  1  0  0  0
 71 73  2  0  0  0
 71 74  1  0  0  0
 71144  1  0  0  0
 72 75  2  0  0  0
 72 76  1  0  0  0
 72145  1  0  0  0
 73 75  1  0  0  0
 73 77  1  0  0  0
 74 76  2  0  0  0
 74 78  1  0  0  0
 75 79  1  0  0  0
 76 84  1  0  0  0
 77146  1  0  0  0
 77147  1  0  0  0
 77148  1  0  0  0
 78 82  1  0  0  0
 78149  1  0  0  0
 78150  1  0  0  0
 79 83  1  0  0  0
 79151  1  0  0  0
 79152  1  0  0  0
 80 81  1  0  0  0
 80 83  1  0  0  0
 80153  1  0  0  0
 80154  1  0  0  0
 81155  1  0  0  0
 81156  1  0  0  0
 82157  1  0  0  0
 83158  1  0  0  0
 83159  1  0  0  0
M  CHG  1  83   1
M  ISO  4   1 100  68 101  81 101  82 100
M  END
> <chiral flag>
0

> <version>
0

> <s_m_source_file>
/data/baiqing/PycharmProjects/Reinvent-master-3.2/result/LINK_invent/BTK/process_docking_weight1_custom_sum_contain_oxygen_bond_distance_aromatic_linkinvent_7_9_3/rearranged_h_0029.sdf

> <i_m_source_file_index>
58

> <r_mmod_Potential_Energy-OPLS-2005>
-189.02262878418

> <r_mmod_Stretch_Energy-OPLS-2005>
39.9812049865723

> <r_mmod_Bend_Energy-OPLS-2005>
115.594970703125

> <r_mmod_Torsional_Energy-OPLS-2005>
262.362884521484

> <r_mmod_Improper_Torsional_Energy-OPLS-2005>
8.22678661346436

> <r_mmod_Van_der_Waal_Energy-OPLS-2005>
144.96989440918

> <r_mmod_Electrostatic_Energy-OPLS-2005>
-319.760772705078

> <r_mmod_Solvation_Energy-OPLS-2005>
-454.536010742188

> <b_mmod_Minimization_Converged-OPLS-2005>
0

> <r_mmod_RMS_Derivative-OPLS-2005>
6.38258695602417

$$$$
58
                    3D
 Structure written by MMmdl.
142150  0  0  1  0            999 V2000
  -30.0703  -16.2323   20.2694 C   0  0  0  0  0  0
  -30.3746  -13.5171   19.5749 C   0  0  0  0  0  0
  -29.5798  -12.8279   18.4042 C   0  0  0  0  0  0
  -28.2018  -12.3410   18.8612 C   0  0  0  0  0  0
  -27.5796  -13.3806   19.8087 C   0  0  2  0  0  0
  -28.5390  -13.9547   20.8967 C   0  0  0  0  0  0
  -25.2226  -13.8399   20.5863 C   0  0  0  0  0  0
  -24.1684  -13.0452   20.9297 C   0  0  0  0  0  0
  -24.6483  -11.6993   20.8727 C   0  0  0  0  0  0
  -23.9195  -10.4307   21.0354 C   0  0  0  0  0  0
  -24.3701   -9.4219   21.9155 C   0  0  0  0  0  0
  -23.6338   -8.2271   22.0750 C   0  0  0  0  0  0
  -22.4316   -8.0309   21.3545 C   0  0  0  0  0  0
  -21.9978   -9.0287   20.4639 C   0  0  0  0  0  0
  -22.7344  -10.2145   20.3025 C   0  0  0  0  0  0
  -21.6871   -6.0751   22.5278 C   0  0  0  0  0  0
  -21.4027   -6.5647   23.8214 C   0  0  0  0  0  0
  -21.3662   -5.6797   24.9172 C   0  0  0  0  0  0
  -21.6043   -4.3060   24.7222 C   0  0  0  0  0  0
  -21.8816   -3.8155   23.4343 C   0  0  0  0  0  0
  -21.9198   -4.6975   22.3400 C   0  0  0  0  0  0
  -22.7679  -13.5124   21.1928 C   0  0  0  0  0  0
  -22.1663   -4.2157   21.0978 F   0  0  0  0  0  0
  -21.5625   -3.4541   25.7735 F   0  0  0  0  0  0
  -29.6415  -14.7485   20.2420 N   0  0  0  0  0  0
  -26.2762  -12.9877   20.3297 N   0  0  0  0  0  0
  -25.9460  -11.6862   20.5633 N   0  0  0  0  0  0
  -22.0373  -12.8086   22.0489 N   0  0  0  0  0  0
  -25.3713  -15.2158   20.4356 N   0  0  0  0  0  0
  -31.3074  -16.0629   20.0835 O   0  0  0  0  0  0
  -21.6664   -6.8909   21.4248 O   0  0  0  0  0  0
  -22.3325  -14.5416   20.6771 O   0  0  0  0  0  0
  -24.7229  -31.7507   23.1174 C   0  0  0  0  0  0
  -25.9607  -32.4226   23.7882 C   0  0  1  0  0  0
  -27.2501  -26.2889   20.2465 C   0  0  0  0  0  0
  -25.6011  -33.8076   24.1717 N   0  0  0  0  0  0
  -23.5689  -30.3328   21.4805 C   0  0  2  0  0  0
  -25.0337  -28.5880   20.1253 C   0  0  0  0  0  0
  -22.7944  -29.4047   22.4595 C   0  0  0  0  0  0
  -18.0362  -28.1439   22.8434 C   0  0  0  0  0  0
  -24.1498  -36.7048   23.2662 C   0  0  0  0  0  0
  -26.1639  -30.3441   21.4479 C   0  0  0  0  0  0
  -26.2254  -28.8634   20.8038 C   0  0  0  0  0  0
  -27.2932  -27.7539   20.8261 C   0  0  0  0  0  0
  -26.0282  -26.3347   19.4920 C   0  0  0  0  0  0
  -25.0000  -27.3543   19.4433 C   0  0  0  0  0  0
  -23.8468  -29.5917   20.1333 C   0  0  0  0  0  0
  -25.4163  -36.2757   24.0253 C   0  0  1  0  0  0
  -20.6016  -28.3817   23.1061 C   0  0  2  0  0  0
  -20.6808  -26.9440   22.5402 C   0  0  0  0  0  0
  -19.5785  -26.6350   21.5221 C   0  0  0  0  0  0
  -18.1973  -26.7951   22.1627 C   0  0  0  0  0  0
  -19.1638  -28.8963   23.2716 C   0  0  0  0  0  0
  -18.9536  -30.1536   23.8775 C   0  0  0  0  0  0
  -17.6523  -30.6613   24.0534 C   0  0  0  0  0  0
  -25.9168  -34.9155   23.4857 C   0  0  0  0  0  0
  -16.5409  -29.9086   23.6361 C   0  0  0  0  0  0
  -16.7339  -28.6512   23.0376 C   0  0  0  0  0  0
  -26.4660  -31.6446   25.0679 C   0  0  0  0  0  0
  -25.3619  -31.3866   26.1218 C   0  0  0  0  0  0
  -27.0671  -30.2747   24.6884 C   0  0  0  0  0  0
  -27.6018  -32.4418   25.7522 C   0  0  0  0  0  0
  -27.5552  -37.1675   24.8467 C   0  0  0  0  0  0
  -21.4554  -29.2980   22.3335 N   0  0  0  0  0  0
  -26.4255  -37.3564   23.9411 N   0  0  0  0  0  0
  -24.8470  -30.8530   22.0664 N   0  0  0  0  0  0
  -23.4190  -28.7718   23.3133 O   0  0  0  0  0  0
  -28.1385  -24.8703   20.3668 O   0  0  0  0  0  0
  -26.5875  -34.8810   22.4519 O   0  0  0  0  0  0
  -23.6160  -32.0777   23.5858 O   0  0  0  0  0  0
  -29.5456  -19.6417   19.9052 C   0  0  0  0  0  0
  -29.3338  -18.0405   20.4003 C   0  0  0  0  0  0
  -28.7163  -20.9554   20.3042 C   0  0  0  0  0  0
  -26.8222  -20.3490   21.8808 C   0  0  0  0  0  0
  -28.0974  -22.9483   19.9400 C   0  0  0  0  0  0
  -28.3003  -18.5533   21.1588 N   0  0  0  0  0  0
  -27.9827  -19.9855   21.0904 N   0  0  0  0  0  0
  -31.3259  -13.8427   19.1542 H   0  0  0  0  0  0
  -30.6608  -12.7794   20.3268 H   0  0  0  0  0  0
  -30.1536  -11.9985   17.9888 H   0  0  0  0  0  0
  -29.4541  -13.5485   17.5947 H   0  0  0  0  0  0
  -28.3303  -11.3974   19.3930 H   0  0  0  0  0  0
  -27.5528  -12.1373   18.0085 H   0  0  0  0  0  0
  -27.3700  -14.2208   19.1443 H   0  0  0  0  0  0
  -28.9075  -13.1748   21.5655 H   0  0  0  0  0  0
  -27.9885  -14.6458   21.5357 H   0  0  0  0  0  0
  -25.2842   -9.5688   22.4740 H   0  0  0  0  0  0
  -24.0029   -7.4673   22.7491 H   0  0  0  0  0  0
  -21.0900   -8.8826   19.8953 H   0  0  0  0  0  0
  -22.3806  -10.9681   19.6127 H   0  0  0  0  0  0
  -21.2026   -7.6157   23.9719 H   0  0  0  0  0  0
  -21.1483   -6.0526   25.9075 H   0  0  0  0  0  0
  -22.0591   -2.7616   23.2842 H   0  0  0  0  0  0
  -22.4052  -11.9782   22.4891 H   0  0  0  0  0  0
  -21.0971  -13.1051   22.2686 H   0  0  0  0  0  0
  -24.6008  -15.8608   20.5726 H   0  0  0  0  0  0
  -26.2272  -15.6785   20.1568 H   0  0  0  0  0  0
  -26.7737  -32.4609   23.0626 H   0  0  0  0  0  0
  -24.9985  -33.9049   24.9758 H   0  0  0  0  0  0
  -22.9186  -31.1807   21.2553 H   0  0  0  0  0  0
  -23.3790  -35.9345   23.3241 H   0  0  0  0  0  0
  -24.3548  -36.8819   22.2092 H   0  0  0  0  0  0
  -23.7234  -37.6177   23.6828 H   0  0  0  0  0  0
  -26.4125  -31.0411   20.6465 H   0  0  0  0  0  0
  -26.9984  -30.4242   22.1308 H   0  0  0  0  0  0
  -28.1739  -27.9841   21.4089 H   0  0  0  0  0  0
  -25.7952  -25.4308   18.9471 H   0  0  0  0  0  0
  -24.1161  -27.1276   18.8631 H   0  0  0  0  0  0
  -24.0528  -30.3355   19.3628 H   0  0  0  0  0  0
  -22.9439  -29.0778   19.7998 H   0  0  0  0  0  0
  -25.1392  -36.1460   25.0742 H   0  0  0  0  0  0
  -21.0086  -28.3470   24.1194 H   0  0  0  0  0  0
  -20.5644  -26.2452   23.3700 H   0  0  0  0  0  0
  -21.6663  -26.7321   22.1238 H   0  0  0  0  0  0
  -19.6935  -25.6229   21.1329 H   0  0  0  0  0  0
  -19.6729  -27.3094   20.6698 H   0  0  0  0  0  0
  -17.4235  -26.6670   21.4043 H   0  0  0  0  0  0
  -18.0368  -26.0130   22.9062 H   0  0  0  0  0  0
  -19.8013  -30.7380   24.2094 H   0  0  0  0  0  0
  -17.5072  -31.6284   24.5153 H   0  0  0  0  0  0
  -15.5403  -30.2954   23.7754 H   0  0  0  0  0  0
  -15.8738  -28.0791   22.7165 H   0  0  0  0  0  0
  -24.5790  -30.7268   25.7465 H   0  0  0  0  0  0
  -24.8843  -32.3129   26.4418 H   0  0  0  0  0  0
  -25.7684  -30.9119   27.0157 H   0  0  0  0  0  0
  -26.3468  -29.6218   24.1948 H   0  0  0  0  0  0
  -27.4007  -29.7374   25.5773 H   0  0  0  0  0  0
  -27.9480  -30.3795   24.0549 H   0  0  0  0  0  0
  -27.2478  -33.3802   26.1801 H   0  0  0  0  0  0
  -28.3971  -32.6860   25.0468 H   0  0  0  0  0  0
  -28.0543  -31.8774   26.5687 H   0  0  0  0  0  0
  -28.2505  -38.0029   24.7537 H   0  0  0  0  0  0
  -28.1113  -36.2546   24.6276 H   0  0  0  0  0  0
  -27.2261  -37.1273   25.8865 H   0  0  0  0  0  0
  -20.9960  -29.8567   21.6278 H   0  0  0  0  0  0
  -26.0044  -38.2593   24.1437 H   0  0  0  0  0  0
  -30.3255  -19.7997   19.1732 H   0  0  0  0  0  0
  -26.3273  -21.2213   21.4562 H   0  0  0  0  0  0
  -27.1299  -20.5795   22.9007 H   0  0  0  0  0  0
  -26.1026  -19.5295   21.9028 H   0  0  0  0  0  0
  -27.0145  -22.8328   19.9279 H   0  0  0  0  0  0
  -28.3314  -23.0387   18.8798 H   0  0  0  0  0  0
  1 25  1  0  0  0
  1 30  2  0  0  0
  1 72  1  0  0  0
  2  3  1  0  0  0
  2 25  1  0  0  0
  2 78  1  0  0  0
  2 79  1  0  0  0
  3  4  1  0  0  0
  3 80  1  0  0  0
  3 81  1  0  0  0
  4  5  1  0  0  0
  4 82  1  0  0  0
  4 83  1  0  0  0
  5  6  1  0  0  0
  5 26  1  0  0  0
  5 84  1  0  0  0
  6 25  1  0  0  0
  6 85  1  0  0  0
  6 86  1  0  0  0
  7  8  2  0  0  0
  7 26  1  0  0  0
  7 29  1  0  0  0
  8  9  1  0  0  0
  8 22  1  0  0  0
  9 10  1  0  0  0
  9 27  2  0  0  0
 10 11  2  0  0  0
 10 15  1  0  0  0
 11 12  1  0  0  0
 11 87  1  0  0  0
 12 13  2  0  0  0
 12 88  1  0  0  0
 13 14  1  0  0  0
 13 31  1  0  0  0
 14 15  2  0  0  0
 14 89  1  0  0  0
 15 90  1  0  0  0
 16 17  2  0  0  0
 16 21  1  0  0  0
 16 31  1  0  0  0
 17 18  1  0  0  0
 17 91  1  0  0  0
 18 19  2  0  0  0
 18 92  1  0  0  0
 19 20  1  0  0  0
 19 24  1  0  0  0
 20 21  2  0  0  0
 20 93  1  0  0  0
 21 23  1  0  0  0
 22 28  1  0  0  0
 22 32  2  0  0  0
 26 27  1  0  0  0
 28 94  1  0  0  0
 28 95  1  0  0  0
 29 96  1  0  0  0
 29 97  1  0  0  0
 33 34  1  0  0  0
 33 66  1  0  0  0
 33 70  2  0  0  0
 34 36  1  0  0  0
 34 59  1  0  0  0
 34 98  1  0  0  0
 35 44  2  0  0  0
 35 45  1  0  0  0
 35 68  1  0  0  0
 36 56  1  0  0  0
 36 99  1  0  0  0
 37 39  1  0  0  0
 37 47  1  0  0  0
 37 66  1  0  0  0
 37100  1  0  0  0
 38 43  2  0  0  0
 38 46  1  0  0  0
 38 47  1  0  0  0
 39 64  1  0  0  0
 39 67  2  0  0  0
 40 52  1  0  0  0
 40 53  2  0  0  0
 40 58  1  0  0  0
 41101  1  0  0  0
 41102  1  0  0  0
 41103  1  0  0  0
 41 48  1  0  0  0
 42 43  1  0  0  0
 42 66  1  0  0  0
 42104  1  0  0  0
 42105  1  0  0  0
 43 44  1  0  0  0
 44106  1  0  0  0
 45 46  2  0  0  0
 45107  1  0  0  0
 46108  1  0  0  0
 47109  1  0  0  0
 47110  1  0  0  0
 48 56  1  0  0  0
 48 65  1  0  0  0
 48111  1  0  0  0
 49 50  1  0  0  0
 49 53  1  0  0  0
 49 64  1  0  0  0
 49112  1  0  0  0
 50 51  1  0  0  0
 50113  1  0  0  0
 50114  1  0  0  0
 51 52  1  0  0  0
 51115  1  0  0  0
 51116  1  0  0  0
 52117  1  0  0  0
 52118  1  0  0  0
 53 54  1  0  0  0
 54 55  2  0  0  0
 54119  1  0  0  0
 55 57  1  0  0  0
 55120  1  0  0  0
 56 69  2  0  0  0
 57 58  2  0  0  0
 57121  1  0  0  0
 58122  1  0  0  0
 59 60  1  0  0  0
 59 61  1  0  0  0
 59 62  1  0  0  0
 60123  1  0  0  0
 60124  1  0  0  0
 60125  1  0  0  0
 61126  1  0  0  0
 61127  1  0  0  0
 61128  1  0  0  0
 62129  1  0  0  0
 62130  1  0  0  0
 62131  1  0  0  0
 63 65  1  0  0  0
 63132  1  0  0  0
 63133  1  0  0  0
 63134  1  0  0  0
 64135  1  0  0  0
 65136  1  0  0  0
 68 75  1  0  0  0
 71 72  1  0  0  0
 71 73  2  0  0  0
 71137  1  0  0  0
 72 76  2  0  0  0
 73 75  1  0  0  0
 73 77  1  0  0  0
 74 77  1  0  0  0
 74138  1  0  0  0
 74139  1  0  0  0
 74140  1  0  0  0
 75141  1  0  0  0
 75142  1  0  0  0
 76 77  1  0  0  0
M  ISO  4   1 100  68 101  72 100  75 101
M  END
> <chiral flag>
0

> <version>
0

> <s_m_source_file>
/data/baiqing/PycharmProjects/Reinvent-master-3.2/result/LINK_invent/BTK/process_docking_weight1_custom_sum_contain_oxygen_bond_distance_aromatic_linkinvent_7_9_3/rearranged_h_0029.sdf

> <i_m_source_file_index>
59

> <r_mmod_Potential_Energy-OPLS-2005>
5008.9423828125

> <r_mmod_Stretch_Energy-OPLS-2005>
2059.26513671875

> <r_mmod_Bend_Energy-OPLS-2005>
1061.99963378906

> <r_mmod_Torsional_Energy-OPLS-2005>
218.653335571289

> <r_mmod_Improper_Torsional_Energy-OPLS-2005>
3.75126051902771

> <r_mmod_Van_der_Waal_Energy-OPLS-2005>
113.563537597656

> <r_mmod_Electrostatic_Energy-OPLS-2005>
-244.516387939453

> <r_mmod_Solvation_Energy-OPLS-2005>
-214.230758666992

> <b_mmod_Minimization_Converged-OPLS-2005>
0

> <r_mmod_RMS_Derivative-OPLS-2005>
0.621501386165619

$$$$
59
                    3D
 Structure written by MMmdl.
167176  0  0  1  0            999 V2000
  -30.5748  -14.7447   20.4727 C   0  0  0  0  0  0
  -30.4460  -12.4561   19.4633 C   0  0  0  0  0  0
  -29.5143  -12.5272   18.2309 C   0  0  0  0  0  0
  -28.0388  -12.3476   18.6424 C   0  0  0  0  0  0
  -27.6496  -13.2254   19.8600 C   0  0  2  0  0  0
  -28.6971  -13.1191   20.9913 C   0  0  0  0  0  0
  -25.2567  -13.8193   20.5746 C   0  0  0  0  0  0
  -24.1832  -13.0440   20.9208 C   0  0  0  0  0  0
  -24.6411  -11.6914   20.8732 C   0  0  0  0  0  0
  -23.9087  -10.4291   21.0404 C   0  0  0  0  0  0
  -24.3635   -9.4207   21.9186 C   0  0  0  0  0  0
  -23.6300   -8.2248   22.0761 C   0  0  0  0  0  0
  -22.4281   -8.0288   21.3546 C   0  0  0  0  0  0
  -21.9925   -9.0264   20.4647 C   0  0  0  0  0  0
  -22.7260  -10.2138   20.3055 C   0  0  0  0  0  0
  -21.6856   -6.0740   22.5279 C   0  0  0  0  0  0
  -21.4016   -6.5645   23.8211 C   0  0  0  0  0  0
  -21.3655   -5.6800   24.9174 C   0  0  0  0  0  0
  -21.6045   -4.3063   24.7225 C   0  0  0  0  0  0
  -21.8819   -3.8150   23.4350 C   0  0  0  0  0  0
  -21.9193   -4.6966   22.3405 C   0  0  0  0  0  0
  -22.7855  -13.5231   21.1859 C   0  0  0  0  0  0
  -22.1662   -4.2152   21.0982 F   0  0  0  0  0  0
  -21.5623   -3.4547   25.7738 F   0  0  0  0  0  0
  -30.0002  -13.4932   20.4205 N   0  0  0  0  0  0
  -26.2981  -12.9383   20.3308 N   0  0  0  0  0  0
  -25.9339  -11.6529   20.5733 N   0  0  0  0  0  0
  -22.0501  -12.8204   22.0406 N   0  0  0  0  0  0
  -25.4290  -15.1925   20.4283 N   0  0  0  0  0  0
  -31.7488  -14.9077   20.1249 O   0  0  0  0  0  0
  -21.6637   -6.8887   21.4242 O   0  0  0  0  0  0
  -22.3539  -14.5533   20.6710 O   0  0  0  0  0  0
  -24.6320  -31.8530   23.1954 C   0  0  0  0  0  0
  -25.9138  -32.4738   23.8313 C   0  0  1  0  0  0
  -27.2280  -27.2476   20.1213 C   0  0  0  0  0  0
  -25.5928  -33.8544   24.2234 N   0  0  0  0  0  0
  -23.4295  -30.4745   21.5397 C   0  0  2  0  0  0
  -24.8757  -28.9161   20.1104 C   0  0  0  0  0  0
  -22.7505  -29.4590   22.4904 C   0  0  0  0  0  0
  -18.0295  -28.1388   22.8486 C   0  0  0  0  0  0
  -24.1493  -36.7283   23.2639 C   0  0  0  0  0  0
  -25.9757  -30.7617   21.3756 C   0  0  0  0  0  0
  -26.0477  -29.3831   20.7162 C   0  0  0  0  0  0
  -27.2216  -28.5618   20.7074 C   0  0  0  0  0  0
  -26.0242  -26.8469   19.5001 C   0  0  0  0  0  0
  -24.8700  -27.6563   19.4930 C   0  0  0  0  0  0
  -23.6475  -29.8050   20.1571 C   0  0  0  0  0  0
  -25.4120  -36.3062   24.0319 C   0  0  1  0  0  0
  -20.5898  -28.3703   23.1266 C   0  0  2  0  0  0
  -20.6781  -26.9417   22.5411 C   0  0  0  0  0  0
  -19.5758  -26.6382   21.5214 C   0  0  0  0  0  0
  -18.1939  -26.7931   22.1625 C   0  0  0  0  0  0
  -19.1548  -28.8863   23.2870 C   0  0  0  0  0  0
  -18.9468  -30.1465   23.8887 C   0  0  0  0  0  0
  -17.6467  -30.6587   24.0566 C   0  0  0  0  0  0
  -25.9061  -34.9432   23.5083 C   0  0  0  0  0  0
  -16.5358  -29.9086   23.6331 C   0  0  0  0  0  0
  -16.7283  -28.6504   23.0352 C   0  0  0  0  0  0
  -26.4496  -31.6570   25.0715 C   0  0  0  0  0  0
  -25.3706  -31.3725   26.1426 C   0  0  0  0  0  0
  -27.0345  -30.2984   24.6215 C   0  0  0  0  0  0
  -27.6039  -32.4313   25.7502 C   0  0  0  0  0  0
  -27.5580  -37.1795   24.8458 C   0  0  0  0  0  0
  -21.4210  -29.3045   22.3646 N   0  0  0  0  0  0
  -26.4288  -37.3765   23.9406 N   0  0  0  0  0  0
  -24.6984  -31.0485   22.0933 N   0  0  0  0  0  0
  -23.4198  -28.8133   23.3011 O   0  0  0  0  0  0
  -28.3592  -26.3927   20.2008 O   0  0  0  0  0  0
  -26.5644  -34.8909   22.4659 O   0  0  0  0  0  0
  -23.5467  -32.1359   23.7243 O   0  0  0  0  0  0
  -30.3428  -19.6407   20.9862 C   0  0  0  0  0  0
  -30.5429  -18.2224   21.1432 C   0  0  0  0  0  0
  -28.4918  -19.2211   19.5398 C   0  0  0  0  0  0
  -29.3011  -20.2042   20.1859 C   0  0  0  0  0  0
  -29.7158  -17.2526   20.5037 C   0  0  0  0  0  0
  -28.6804  -17.7962   19.6892 C   0  0  0  0  0  0
  -29.9966  -22.8108   20.6785 C   0  0  0  0  0  0
  -27.6284  -22.3544   20.0565 C   0  0  0  0  0  0
  -29.8489  -24.3521   20.2823 C   0  0  0  0  0  0
  -27.4388  -23.8968   20.4278 C   0  0  0  0  0  0
  -29.0880  -21.7836   19.9313 C   0  0  2  0  0  0
  -28.4523  -24.9284   19.8083 C   0  0  1  0  0  0
  -28.4323  -24.8873   18.2642 C   0  0  0  0  0  0
  -26.7278  -15.9943   17.1582 C   0  0  0  0  0  0
  -27.1517  -17.2572   17.9138 C   0  0  0  0  0  0
  -29.7257  -15.7927   20.7782 N   0  0  0  0  0  0
  -27.8727  -16.8618   19.0733 O   0  0  0  0  0  0
  -31.4843  -12.5995   19.1601 H   0  0  0  0  0  0
  -30.4014  -11.4684   19.9242 H   0  0  0  0  0  0
  -29.7936  -11.7678   17.4994 H   0  0  0  0  0  0
  -29.6391  -13.4908   17.7334 H   0  0  0  0  0  0
  -27.8884  -11.2949   18.8837 H   0  0  0  0  0  0
  -27.3835  -12.5641   17.7974 H   0  0  0  0  0  0
  -27.6530  -14.2535   19.5022 H   0  0  0  0  0  0
  -28.7332  -12.1042   21.3910 H   0  0  0  0  0  0
  -28.4296  -13.7595   21.8338 H   0  0  0  0  0  0
  -25.2791   -9.5672   22.4753 H   0  0  0  0  0  0
  -24.0003   -7.4643   22.7492 H   0  0  0  0  0  0
  -21.0854   -8.8792   19.8957 H   0  0  0  0  0  0
  -22.3734  -10.9679   19.6158 H   0  0  0  0  0  0
  -21.2014   -7.6156   23.9711 H   0  0  0  0  0  0
  -21.1476   -6.0534   25.9076 H   0  0  0  0  0  0
  -22.0602   -2.7613   23.2849 H   0  0  0  0  0  0
  -22.4127  -11.9860   22.4774 H   0  0  0  0  0  0
  -21.1122  -13.1216   22.2615 H   0  0  0  0  0  0
  -24.6610  -15.8438   20.5447 H   0  0  0  0  0  0
  -26.2703  -15.6349   20.0757 H   0  0  0  0  0  0
  -26.7200  -32.5378   23.1047 H   0  0  0  0  0  0
  -25.0041  -33.9678   25.0357 H   0  0  0  0  0  0
  -22.7266  -31.2968   21.3914 H   0  0  0  0  0  0
  -23.3758  -35.9608   23.3277 H   0  0  0  0  0  0
  -24.3578  -36.8942   22.2057 H   0  0  0  0  0  0
  -23.7240  -37.6471   23.6688 H   0  0  0  0  0  0
  -26.1154  -31.5216   20.6059 H   0  0  0  0  0  0
  -26.8525  -30.8106   22.0094 H   0  0  0  0  0  0
  -28.1204  -28.9180   21.1907 H   0  0  0  0  0  0
  -25.9305  -25.8840   19.0310 H   0  0  0  0  0  0
  -23.9694  -27.2893   19.0199 H   0  0  0  0  0  0
  -23.7725  -30.5795   19.3993 H   0  0  0  0  0  0
  -22.7654  -29.2389   19.8529 H   0  0  0  0  0  0
  -25.1300  -36.1901   25.0809 H   0  0  0  0  0  0
  -20.9998  -28.3290   24.1385 H   0  0  0  0  0  0
  -20.5686  -26.2312   23.3619 H   0  0  0  0  0  0
  -21.6650  -26.7438   22.1205 H   0  0  0  0  0  0
  -19.6922  -25.6292   21.1249 H   0  0  0  0  0  0
  -19.6696  -27.3186   20.6739 H   0  0  0  0  0  0
  -17.4209  -26.6681   21.4028 H   0  0  0  0  0  0
  -18.0339  -26.0075   22.9022 H   0  0  0  0  0  0
  -19.7943  -30.7286   24.2251 H   0  0  0  0  0  0
  -17.5019  -31.6267   24.5172 H   0  0  0  0  0  0
  -15.5358  -30.2983   23.7659 H   0  0  0  0  0  0
  -15.8684  -28.0819   22.7067 H   0  0  0  0  0  0
  -24.5893  -30.7061   25.7752 H   0  0  0  0  0  0
  -24.8879  -32.2895   26.4817 H   0  0  0  0  0  0
  -25.8017  -30.8928   27.0224 H   0  0  0  0  0  0
  -26.2938  -29.6727   24.1221 H   0  0  0  0  0  0
  -27.4000  -29.7248   25.4743 H   0  0  0  0  0  0
  -27.8822  -30.4247   23.9476 H   0  0  0  0  0  0
  -27.2640  -33.3623   26.2048 H   0  0  0  0  0  0
  -28.3874  -32.6853   25.0352 H   0  0  0  0  0  0
  -28.0671  -31.8453   26.5451 H   0  0  0  0  0  0
  -28.2573  -38.0116   24.7527 H   0  0  0  0  0  0
  -28.1104  -36.2645   24.6261 H   0  0  0  0  0  0
  -27.2297  -37.1412   25.8860 H   0  0  0  0  0  0
  -20.9397  -29.8768   21.6849 H   0  0  0  0  0  0
  -26.0164  -38.2833   24.1423 H   0  0  0  0  0  0
  -31.0150  -20.3065   21.5093 H   0  0  0  0  0  0
  -31.3313  -17.8839   21.8007 H   0  0  0  0  0  0
  -27.6915  -19.5869   18.9147 H   0  0  0  0  0  0
  -29.7993  -22.7110   21.7464 H   0  0  0  0  0  0
  -31.0415  -22.5272   20.5508 H   0  0  0  0  0  0
  -27.0969  -22.1406   19.1285 H   0  0  0  0  0  0
  -27.1030  -21.7812   20.8209 H   0  0  0  0  0  0
  -30.6018  -24.5897   19.5296 H   0  0  0  0  0  0
  -30.1634  -24.9233   21.1570 H   0  0  0  0  0  0
  -27.5095  -23.9880   21.5125 H   0  0  0  0  0  0
  -26.4114  -24.1702   20.2017 H   0  0  0  0  0  0
  -29.3614  -21.8936   18.8810 H   0  0  0  0  0  0
  -28.6911  -23.9001   17.8838 H   0  0  0  0  0  0
  -29.1597  -25.5868   17.8516 H   0  0  0  0  0  0
  -27.4687  -25.1410   17.8324 H   0  0  0  0  0  0
  -26.1858  -16.2501   16.2483 H   0  0  0  0  0  0
  -26.0758  -15.3640   17.7612 H   0  0  0  0  0  0
  -27.5954  -15.3997   16.8717 H   0  0  0  0  0  0
  -26.2744  -17.8407   18.1963 H   0  0  0  0  0  0
  -27.7720  -17.8694   17.2567 H   0  0  0  0  0  0
  -28.8016  -15.4384   20.9687 H   0  0  0  0  0  0
  1 25  1  0  0  0
  1 30  2  0  0  0
  1 86  1  0  0  0
  2  3  1  0  0  0
  2 25  1  0  0  0
  2 88  1  0  0  0
  2 89  1  0  0  0
  3  4  1  0  0  0
  3 90  1  0  0  0
  3 91  1  0  0  0
  4  5  1  0  0  0
  4 92  1  0  0  0
  4 93  1  0  0  0
  5  6  1  0  0  0
  5 26  1  0  0  0
  5 94  1  0  0  0
  6 25  1  0  0  0
  6 95  1  0  0  0
  6 96  1  0  0  0
  7  8  2  0  0  0
  7 26  1  0  0  0
  7 29  1  0  0  0
  8  9  1  0  0  0
  8 22  1  0  0  0
  9 10  1  0  0  0
  9 27  2  0  0  0
 10 11  2  0  0  0
 10 15  1  0  0  0
 11 12  1  0  0  0
 11 97  1  0  0  0
 12 13  2  0  0  0
 12 98  1  0  0  0
 13 14  1  0  0  0
 13 31  1  0  0  0
 14 15  2  0  0  0
 14 99  1  0  0  0
 15100  1  0  0  0
 16 17  2  0  0  0
 16 21  1  0  0  0
 16 31  1  0  0  0
 17 18  1  0  0  0
 17101  1  0  0  0
 18 19  2  0  0  0
 18102  1  0  0  0
 19 20  1  0  0  0
 19 24  1  0  0  0
 20 21  2  0  0  0
 20103  1  0  0  0
 21 23  1  0  0  0
 22 28  1  0  0  0
 22 32  2  0  0  0
 26 27  1  0  0  0
 28104  1  0  0  0
 28105  1  0  0  0
 29106  1  0  0  0
 29107  1  0  0  0
 33 34  1  0  0  0
 33 66  1  0  0  0
 33 70  2  0  0  0
 34 36  1  0  0  0
 34 59  1  0  0  0
 34108  1  0  0  0
 35 44  2  0  0  0
 35 45  1  0  0  0
 35 68  1  0  0  0
 36 56  1  0  0  0
 36109  1  0  0  0
 37 39  1  0  0  0
 37 47  1  0  0  0
 37 66  1  0  0  0
 37110  1  0  0  0
 38 43  2  0  0  0
 38 46  1  0  0  0
 38 47  1  0  0  0
 39 64  1  0  0  0
 39 67  2  0  0  0
 40 52  1  0  0  0
 40 53  2  0  0  0
 40 58  1  0  0  0
 41111  1  0  0  0
 41112  1  0  0  0
 41113  1  0  0  0
 41 48  1  0  0  0
 42 43  1  0  0  0
 42 66  1  0  0  0
 42114  1  0  0  0
 42115  1  0  0  0
 43 44  1  0  0  0
 44116  1  0  0  0
 45 46  2  0  0  0
 45117  1  0  0  0
 46118  1  0  0  0
 47119  1  0  0  0
 47120  1  0  0  0
 48 56  1  0  0  0
 48 65  1  0  0  0
 48121  1  0  0  0
 49 50  1  0  0  0
 49 53  1  0  0  0
 49 64  1  0  0  0
 49122  1  0  0  0
 50 51  1  0  0  0
 50123  1  0  0  0
 50124  1  0  0  0
 51 52  1  0  0  0
 51125  1  0  0  0
 51126  1  0  0  0
 52127  1  0  0  0
 52128  1  0  0  0
 53 54  1  0  0  0
 54 55  2  0  0  0
 54129  1  0  0  0
 55 57  1  0  0  0
 55130  1  0  0  0
 56 69  2  0  0  0
 57 58  2  0  0  0
 57131  1  0  0  0
 58132  1  0  0  0
 59 60  1  0  0  0
 59 61  1  0  0  0
 59 62  1  0  0  0
 60133  1  0  0  0
 60134  1  0  0  0
 60135  1  0  0  0
 61136  1  0  0  0
 61137  1  0  0  0
 61138  1  0  0  0
 62139  1  0  0  0
 62140  1  0  0  0
 62141  1  0  0  0
 63 65  1  0  0  0
 63142  1  0  0  0
 63143  1  0  0  0
 63144  1  0  0  0
 64145  1  0  0  0
 65146  1  0  0  0
 68 82  1  0  0  0
 71 72  2  0  0  0
 71 74  1  0  0  0
 71147  1  0  0  0
 72 75  1  0  0  0
 72148  1  0  0  0
 73 74  2  0  0  0
 73 76  1  0  0  0
 73149  1  0  0  0
 74 81  1  0  0  0
 75 76  2  0  0  0
 75 86  1  0  0  0
 76 87  1  0  0  0
 77 79  1  0  0  0
 77 81  1  0  0  0
 77150  1  0  0  0
 77151  1  0  0  0
 78 80  1  0  0  0
 78 81  1  0  0  0
 78152  1  0  0  0
 78153  1  0  0  0
 79 82  1  0  0  0
 79154  1  0  0  0
 79155  1  0  0  0
 80 82  1  0  0  0
 80156  1  0  0  0
 80157  1  0  0  0
 81158  1  0  0  0
 82 83  1  0  0  0
 83159  1  0  0  0
 83160  1  0  0  0
 83161  1  0  0  0
 84 85  1  0  0  0
 84162  1  0  0  0
 84163  1  0  0  0
 84164  1  0  0  0
 85 87  1  0  0  0
 85165  1  0  0  0
 85166  1  0  0  0
 86167  1  0  0  0
M  ISO  4   1 100  68 101  82 101  86 100
M  END
> <chiral flag>
0

> <version>
0

> <s_m_source_file>
/data/baiqing/PycharmProjects/Reinvent-master-3.2/result/LINK_invent/BTK/process_docking_weight1_custom_sum_contain_oxygen_bond_distance_aromatic_linkinvent_7_9_3/rearranged_h_0029.sdf

> <i_m_source_file_index>
60

> <r_mmod_Potential_Energy-OPLS-2005>
180.416519165039

> <r_mmod_Stretch_Energy-OPLS-2005>
123.40087890625

> <r_mmod_Bend_Energy-OPLS-2005>
208.397735595703

> <r_mmod_Torsional_Energy-OPLS-2005>
276.832855224609

> <r_mmod_Improper_Torsional_Energy-OPLS-2005>
5.99459171295166

> <r_mmod_Van_der_Waal_Energy-OPLS-2005>
132.819747924805

> <r_mmod_Electrostatic_Energy-OPLS-2005>
-459.203033447266

> <r_mmod_Solvation_Energy-OPLS-2005>
-192.709121704102

> <b_mmod_Minimization_Converged-OPLS-2005>
0

> <r_mmod_RMS_Derivative-OPLS-2005>
1.01746439933777

$$$$
60
                    3D
 Structure written by MMmdl.
156164  0  0  1  0            999 V2000
  -30.6294  -14.6860   20.4313 C   0  0  0  0  0  0
  -30.4241  -12.4130   19.4548 C   0  0  0  0  0  0
  -29.5012  -12.5071   18.2189 C   0  0  0  0  0  0
  -28.0188  -12.3662   18.6253 C   0  0  0  0  0  0
  -27.6457  -13.2348   19.8601 C   0  0  2  0  0  0
  -28.6993  -13.1365   20.9873 C   0  0  0  0  0  0
  -25.2501  -13.8190   20.5706 C   0  0  0  0  0  0
  -24.1817  -13.0413   20.9188 C   0  0  0  0  0  0
  -24.6404  -11.6884   20.8728 C   0  0  0  0  0  0
  -23.9092  -10.4274   21.0377 C   0  0  0  0  0  0
  -24.3649   -9.4184   21.9154 C   0  0  0  0  0  0
  -23.6315   -8.2224   22.0748 C   0  0  0  0  0  0
  -22.4293   -8.0251   21.3530 C   0  0  0  0  0  0
  -21.9920   -9.0234   20.4631 C   0  0  0  0  0  0
  -22.7269  -10.2105   20.3037 C   0  0  0  0  0  0
  -21.6859   -6.0706   22.5252 C   0  0  0  0  0  0
  -21.4027   -6.5620   23.8178 C   0  0  0  0  0  0
  -21.3665   -5.6781   24.9142 C   0  0  0  0  0  0
  -21.6050   -4.3042   24.7194 C   0  0  0  0  0  0
  -21.8829   -3.8118   23.4317 C   0  0  0  0  0  0
  -21.9203   -4.6935   22.3373 C   0  0  0  0  0  0
  -22.7835  -13.5177   21.1832 C   0  0  0  0  0  0
  -22.1665   -4.2111   21.0953 F   0  0  0  0  0  0
  -21.5631   -3.4527   25.7712 F   0  0  0  0  0  0
  -30.0019  -13.4667   20.3990 N   0  0  0  0  0  0
  -26.2981  -12.9448   20.3375 N   0  0  0  0  0  0
  -25.9359  -11.6557   20.5792 N   0  0  0  0  0  0
  -22.0540  -12.8184   22.0430 N   0  0  0  0  0  0
  -25.4072  -15.1941   20.4039 N   0  0  0  0  0  0
  -31.8175  -14.7932   20.1221 O   0  0  0  0  0  0
  -21.6654   -6.8850   21.4219 O   0  0  0  0  0  0
  -22.3494  -14.5475   20.6649 O   0  0  0  0  0  0
  -24.6252  -31.8620   23.2054 C   0  0  0  0  0  0
  -25.9125  -32.4777   23.8355 C   0  0  1  0  0  0
  -27.1872  -27.2967   20.1143 C   0  0  0  0  0  0
  -25.5964  -33.8598   24.2247 N   0  0  0  0  0  0
  -23.4147  -30.4926   21.5508 C   0  0  2  0  0  0
  -24.8501  -28.9501   20.1023 C   0  0  0  0  0  0
  -22.7433  -29.4633   22.4912 C   0  0  0  0  0  0
  -18.0315  -28.1373   22.8453 C   0  0  0  0  0  0
  -24.1479  -36.7276   23.2660 C   0  0  0  0  0  0
  -25.9604  -30.7841   21.3794 C   0  0  0  0  0  0
  -26.0204  -29.4137   20.7152 C   0  0  0  0  0  0
  -27.1885  -28.5971   20.7157 C   0  0  0  0  0  0
  -25.9985  -26.9027   19.4616 C   0  0  0  0  0  0
  -24.8428  -27.7033   19.4622 C   0  0  0  0  0  0
  -23.6246  -29.8366   20.1620 C   0  0  0  0  0  0
  -25.4110  -36.3090   24.0329 C   0  0  1  0  0  0
  -20.5911  -28.3643   23.1364 C   0  0  2  0  0  0
  -20.6845  -26.9403   22.5458 C   0  0  0  0  0  0
  -19.5820  -26.6275   21.5237 C   0  0  0  0  0  0
  -18.1979  -26.7912   22.1571 C   0  0  0  0  0  0
  -19.1570  -28.8801   23.2879 C   0  0  0  0  0  0
  -18.9496  -30.1430   23.8861 C   0  0  0  0  0  0
  -17.6504  -30.6624   24.0493 C   0  0  0  0  0  0
  -25.9060  -34.9468   23.5075 C   0  0  0  0  0  0
  -16.5418  -29.9095   23.6311 C   0  0  0  0  0  0
  -16.7333  -28.6499   23.0360 C   0  0  0  0  0  0
  -26.4492  -31.6618   25.0748 C   0  0  0  0  0  0
  -25.3705  -31.3761   26.1447 C   0  0  0  0  0  0
  -27.0353  -30.3018   24.6310 C   0  0  0  0  0  0
  -27.6057  -32.4341   25.7536 C   0  0  0  0  0  0
  -27.5561  -37.1833   24.8490 C   0  0  0  0  0  0
  -21.4155  -29.3052   22.3735 N   0  0  0  0  0  0
  -26.4286  -37.3778   23.9415 N   0  0  0  0  0  0
  -24.6855  -31.0642   22.1015 N   0  0  0  0  0  0
  -23.4207  -28.8138   23.2929 O   0  0  0  0  0  0
  -28.2826  -26.4192   20.2223 O   0  0  0  0  0  0
  -26.5645  -34.8965   22.4639 O   0  0  0  0  0  0
  -23.5427  -32.1445   23.7399 O   0  0  0  0  0  0
  -28.9350  -22.5259   20.0409 C   0  0  0  0  0  0
  -27.0552  -22.2407   22.0559 C   0  0  0  0  0  0
  -28.1571  -23.6969   20.4035 C   0  0  0  0  0  0
  -28.7895  -21.2200   20.6519 C   0  0  0  0  0  0
  -27.1623  -23.4903   21.4026 C   0  0  0  0  0  0
  -27.8457  -21.1289   21.6991 C   0  0  0  0  0  0
  -26.1194  -24.5375   21.7442 C   0  0  0  0  0  0
  -29.6457  -19.9597   20.2026 C   0  0  0  0  0  0
  -28.3178  -25.0619   19.5941 C   0  0  0  0  0  0
  -29.2655  -18.4490   20.6348 C   0  0  0  0  0  0
  -30.2383  -17.2418   20.2160 C   0  0  0  0  0  0
  -29.8497  -15.8144   20.5567 N   0  0  0  0  0  0
  -27.6522  -19.9712   22.3705 F   0  0  0  0  0  0
  -31.4675  -12.5203   19.1534 H   0  0  0  0  0  0
  -30.3399  -11.4292   19.9182 H   0  0  0  0  0  0
  -29.7616  -11.7367   17.4881 H   0  0  0  0  0  0
  -29.6494  -13.4687   17.7270 H   0  0  0  0  0  0
  -27.8353  -11.3128   18.8352 H   0  0  0  0  0  0
  -27.3734  -12.6209   17.7831 H   0  0  0  0  0  0
  -27.6434  -14.2671   19.5039 H   0  0  0  0  0  0
  -28.7297  -12.1352   21.4223 H   0  0  0  0  0  0
  -28.4589  -13.8192   21.8059 H   0  0  0  0  0  0
  -25.2813   -9.5636   22.4698 H   0  0  0  0  0  0
  -23.9976   -7.4638   22.7502 H   0  0  0  0  0  0
  -21.0815   -8.8799   19.8965 H   0  0  0  0  0  0
  -22.3765  -10.9630   19.6127 H   0  0  0  0  0  0
  -21.2051   -7.6130   23.9673 H   0  0  0  0  0  0
  -21.1483   -6.0503   25.9047 H   0  0  0  0  0  0
  -22.0619   -2.7572   23.2833 H   0  0  0  0  0  0
  -22.4231  -11.9891   22.4836 H   0  0  0  0  0  0
  -21.1130  -13.1133   22.2602 H   0  0  0  0  0  0
  -24.6175  -15.8235   20.4847 H   0  0  0  0  0  0
  -26.2301  -15.6478   20.0328 H   0  0  0  0  0  0
  -26.7197  -32.5435   23.1121 H   0  0  0  0  0  0
  -25.0117  -33.9742   25.0396 H   0  0  0  0  0  0
  -22.7038  -31.3107   21.4040 H   0  0  0  0  0  0
  -23.3747  -35.9601   23.3344 H   0  0  0  0  0  0
  -24.3571  -36.8883   22.2083 H   0  0  0  0  0  0
  -23.7269  -37.6508   23.6624 H   0  0  0  0  0  0
  -26.1137  -31.5502   20.6153 H   0  0  0  0  0  0
  -26.8380  -30.8139   22.0160 H   0  0  0  0  0  0
  -28.0806  -28.9449   21.2172 H   0  0  0  0  0  0
  -25.9045  -25.9440   18.9776 H   0  0  0  0  0  0
  -23.9477  -27.3439   18.9738 H   0  0  0  0  0  0
  -23.7426  -30.6176   19.4080 H   0  0  0  0  0  0
  -22.7367  -29.2767   19.8628 H   0  0  0  0  0  0
  -25.1310  -36.1926   25.0824 H   0  0  0  0  0  0
  -21.0023  -28.3134   24.1496 H   0  0  0  0  0  0
  -20.5763  -26.2279   23.3644 H   0  0  0  0  0  0
  -21.6761  -26.7488   22.1347 H   0  0  0  0  0  0
  -19.6993  -25.6180   21.1299 H   0  0  0  0  0  0
  -19.6753  -27.2941   20.6665 H   0  0  0  0  0  0
  -17.4297  -26.6680   21.3932 H   0  0  0  0  0  0
  -18.0259  -26.0052   22.8964 H   0  0  0  0  0  0
  -19.7987  -30.7229   24.2161 H   0  0  0  0  0  0
  -17.5078  -31.6365   24.4983 H   0  0  0  0  0  0
  -15.5417  -30.2956   23.7730 H   0  0  0  0  0  0
  -15.8699  -28.0790   22.7158 H   0  0  0  0  0  0
  -24.5902  -30.7068   25.7785 H   0  0  0  0  0  0
  -24.8844  -32.2910   26.4829 H   0  0  0  0  0  0
  -25.8040  -30.9013   27.0254 H   0  0  0  0  0  0
  -26.2965  -29.6755   24.1277 H   0  0  0  0  0  0
  -27.3922  -29.7329   25.4921 H   0  0  0  0  0  0
  -27.8878  -30.4265   23.9627 H   0  0  0  0  0  0
  -27.2674  -33.3650   26.2087 H   0  0  0  0  0  0
  -28.3902  -32.6891   25.0393 H   0  0  0  0  0  0
  -28.0633  -31.8467   26.5511 H   0  0  0  0  0  0
  -28.2637  -38.0079   24.7475 H   0  0  0  0  0  0
  -28.1014  -36.2634   24.6344 H   0  0  0  0  0  0
  -27.2289  -37.1514   25.8904 H   0  0  0  0  0  0
  -20.9184  -29.9007   21.7230 H   0  0  0  0  0  0
  -26.0160  -38.2861   24.1348 H   0  0  0  0  0  0
  -29.6566  -22.6372   19.2442 H   0  0  0  0  0  0
  -26.3218  -22.1034   22.8386 H   0  0  0  0  0  0
  -26.5574  -25.4884   22.0390 H   0  0  0  0  0  0
  -25.4724  -24.2073   22.5565 H   0  0  0  0  0  0
  -25.4650  -24.6812   20.8813 H   0  0  0  0  0  0
  -30.6618  -20.1530   20.5432 H   0  0  0  0  0  0
  -29.7042  -20.0055   19.1145 H   0  0  0  0  0  0
  -27.7006  -24.9994   18.7005 H   0  0  0  0  0  0
  -29.3265  -25.0189   19.1847 H   0  0  0  0  0  0
  -28.2582  -18.2380   20.2733 H   0  0  0  0  0  0
  -29.2156  -18.4043   21.7238 H   0  0  0  0  0  0
  -31.2164  -17.4323   20.6623 H   0  0  0  0  0  0
  -30.4060  -17.2824   19.1364 H   0  0  0  0  0  0
  -28.8733  -15.6462   20.7527 H   0  0  0  0  0  0
  1 25  1  0  0  0
  1 30  2  0  0  0
  1 82  1  0  0  0
  2  3  1  0  0  0
  2 25  1  0  0  0
  2 84  1  0  0  0
  2 85  1  0  0  0
  3  4  1  0  0  0
  3 86  1  0  0  0
  3 87  1  0  0  0
  4  5  1  0  0  0
  4 88  1  0  0  0
  4 89  1  0  0  0
  5  6  1  0  0  0
  5 26  1  0  0  0
  5 90  1  0  0  0
  6 25  1  0  0  0
  6 91  1  0  0  0
  6 92  1  0  0  0
  7  8  2  0  0  0
  7 26  1  0  0  0
  7 29  1  0  0  0
  8  9  1  0  0  0
  8 22  1  0  0  0
  9 10  1  0  0  0
  9 27  2  0  0  0
 10 11  2  0  0  0
 10 15  1  0  0  0
 11 12  1  0  0  0
 11 93  1  0  0  0
 12 13  2  0  0  0
 12 94  1  0  0  0
 13 14  1  0  0  0
 13 31  1  0  0  0
 14 15  2  0  0  0
 14 95  1  0  0  0
 15 96  1  0  0  0
 16 17  2  0  0  0
 16 21  1  0  0  0
 16 31  1  0  0  0
 17 18  1  0  0  0
 17 97  1  0  0  0
 18 19  2  0  0  0
 18 98  1  0  0  0
 19 20  1  0  0  0
 19 24  1  0  0  0
 20 21  2  0  0  0
 20 99  1  0  0  0
 21 23  1  0  0  0
 22 28  1  0  0  0
 22 32  2  0  0  0
 26 27  1  0  0  0
 28100  1  0  0  0
 28101  1  0  0  0
 29102  1  0  0  0
 29103  1  0  0  0
 33 34  1  0  0  0
 33 66  1  0  0  0
 33 70  2  0  0  0
 34 36  1  0  0  0
 34 59  1  0  0  0
 34104  1  0  0  0
 35 44  2  0  0  0
 35 45  1  0  0  0
 35 68  1  0  0  0
 36 56  1  0  0  0
 36105  1  0  0  0
 37 39  1  0  0  0
 37 47  1  0  0  0
 37 66  1  0  0  0
 37106  1  0  0  0
 38 43  2  0  0  0
 38 46  1  0  0  0
 38 47  1  0  0  0
 39 64  1  0  0  0
 39 67  2  0  0  0
 40 52  1  0  0  0
 40 53  2  0  0  0
 40 58  1  0  0  0
 41107  1  0  0  0
 41108  1  0  0  0
 41109  1  0  0  0
 41 48  1  0  0  0
 42 43  1  0  0  0
 42 66  1  0  0  0
 42110  1  0  0  0
 42111  1  0  0  0
 43 44  1  0  0  0
 44112  1  0  0  0
 45 46  2  0  0  0
 45113  1  0  0  0
 46114  1  0  0  0
 47115  1  0  0  0
 47116  1  0  0  0
 48 56  1  0  0  0
 48 65  1  0  0  0
 48117  1  0  0  0
 49 50  1  0  0  0
 49 53  1  0  0  0
 49 64  1  0  0  0
 49118  1  0  0  0
 50 51  1  0  0  0
 50119  1  0  0  0
 50120  1  0  0  0
 51 52  1  0  0  0
 51121  1  0  0  0
 51122  1  0  0  0
 52123  1  0  0  0
 52124  1  0  0  0
 53 54  1  0  0  0
 54 55  2  0  0  0
 54125  1  0  0  0
 55 57  1  0  0  0
 55126  1  0  0  0
 56 69  2  0  0  0
 57 58  2  0  0  0
 57127  1  0  0  0
 58128  1  0  0  0
 59 60  1  0  0  0
 59 61  1  0  0  0
 59 62  1  0  0  0
 60129  1  0  0  0
 60130  1  0  0  0
 60131  1  0  0  0
 61132  1  0  0  0
 61133  1  0  0  0
 61134  1  0  0  0
 62135  1  0  0  0
 62136  1  0  0  0
 62137  1  0  0  0
 63 65  1  0  0  0
 63138  1  0  0  0
 63139  1  0  0  0
 63140  1  0  0  0
 64141  1  0  0  0
 65142  1  0  0  0
 68 79  1  0  0  0
 71 73  2  0  0  0
 71 74  1  0  0  0
 71143  1  0  0  0
 72 75  2  0  0  0
 72 76  1  0  0  0
 72144  1  0  0  0
 73 75  1  0  0  0
 73 79  1  0  0  0
 74 76  2  0  0  0
 74 78  1  0  0  0
 75 77  1  0  0  0
 76 83  1  0  0  0
 77145  1  0  0  0
 77146  1  0  0  0
 77147  1  0  0  0
 78 80  1  0  0  0
 78148  1  0  0  0
 78149  1  0  0  0
 79150  1  0  0  0
 79151  1  0  0  0
 80 81  1  0  0  0
 80152  1  0  0  0
 80153  1  0  0  0
 81 82  1  0  0  0
 81154  1  0  0  0
 81155  1  0  0  0
 82156  1  0  0  0
M  ISO  4   1 100  68 101  79 101  82 100
M  END
> <chiral flag>
0

> <version>
0

> <s_m_source_file>
/data/baiqing/PycharmProjects/Reinvent-master-3.2/result/LINK_invent/BTK/process_docking_weight1_custom_sum_contain_oxygen_bond_distance_aromatic_linkinvent_7_9_3/rearranged_h_0029.sdf

> <i_m_source_file_index>
61

> <r_mmod_Potential_Energy-OPLS-2005>
144.861297607422

> <r_mmod_Stretch_Energy-OPLS-2005>
103.720527648926

> <r_mmod_Bend_Energy-OPLS-2005>
160.515762329102

> <r_mmod_Torsional_Energy-OPLS-2005>
211.053253173828

> <r_mmod_Improper_Torsional_Energy-OPLS-2005>
7.48538303375244

> <r_mmod_Van_der_Waal_Energy-OPLS-2005>
141.67431640625

> <r_mmod_Electrostatic_Energy-OPLS-2005>
-349.66015625

> <r_mmod_Solvation_Energy-OPLS-2005>
-198.442825317383

> <b_mmod_Minimization_Converged-OPLS-2005>
0

> <r_mmod_RMS_Derivative-OPLS-2005>
6.43847131729126

$$$$
61
                    3D
 Structure written by MMmdl.
146154  0  0  1  0            999 V2000
  -30.2591  -15.7732   20.3333 C   0  0  0  0  0  0
  -30.4226  -13.1791   19.5678 C   0  0  0  0  0  0
  -29.5744  -12.7057   18.3523 C   0  0  0  0  0  0
  -28.1575  -12.3130   18.7921 C   0  0  0  0  0  0
  -27.5993  -13.3243   19.8173 C   0  0  2  0  0  0
  -28.6013  -13.7083   20.9335 C   0  0  0  0  0  0
  -25.2329  -13.8330   20.5784 C   0  0  0  0  0  0
  -24.1741  -13.0475   20.9322 C   0  0  0  0  0  0
  -24.6464  -11.6981   20.8778 C   0  0  0  0  0  0
  -23.9177  -10.4307   21.0375 C   0  0  0  0  0  0
  -24.3683   -9.4208   21.9174 C   0  0  0  0  0  0
  -23.6317   -8.2254   22.0745 C   0  0  0  0  0  0
  -22.4291   -8.0308   21.3548 C   0  0  0  0  0  0
  -21.9967   -9.0302   20.4645 C   0  0  0  0  0  0
  -22.7331  -10.2166   20.3040 C   0  0  0  0  0  0
  -21.6863   -6.0748   22.5287 C   0  0  0  0  0  0
  -21.4012   -6.5642   23.8228 C   0  0  0  0  0  0
  -21.3665   -5.6786   24.9195 C   0  0  0  0  0  0
  -21.6042   -4.3051   24.7222 C   0  0  0  0  0  0
  -21.8824   -3.8154   23.4346 C   0  0  0  0  0  0
  -21.9201   -4.6980   22.3413 C   0  0  0  0  0  0
  -22.7734  -13.5211   21.1913 C   0  0  0  0  0  0
  -22.1656   -4.2181   21.0978 F   0  0  0  0  0  0
  -21.5642   -3.4531   25.7725 F   0  0  0  0  0  0
  -29.7555  -14.3796   20.2751 N   0  0  0  0  0  0
  -26.2809  -12.9690   20.3232 N   0  0  0  0  0  0
  -25.9414  -11.6760   20.5683 N   0  0  0  0  0  0
  -22.0311  -12.8239   22.0434 N   0  0  0  0  0  0
  -25.3931  -15.2054   20.4136 N   0  0  0  0  0  0
  -31.4959  -15.6629   20.1844 O   0  0  0  0  0  0
  -21.6651   -6.8896   21.4248 O   0  0  0  0  0  0
  -22.3439  -14.5513   20.6709 O   0  0  0  0  0  0
  -24.6883  -31.7907   23.1436 C   0  0  0  0  0  0
  -25.9456  -32.4413   23.7981 C   0  0  1  0  0  0
  -27.2158  -26.6005   20.2380 C   0  0  0  0  0  0
  -25.6021  -33.8239   24.1882 N   0  0  0  0  0  0
  -23.5175  -30.3889   21.5016 C   0  0  2  0  0  0
  -24.9745  -28.7103   20.1232 C   0  0  0  0  0  0
  -22.7792  -29.4262   22.4699 C   0  0  0  0  0  0
  -18.0324  -28.1448   22.8456 C   0  0  0  0  0  0
  -24.1501  -36.7133   23.2637 C   0  0  0  0  0  0
  -26.1014  -30.4998   21.4130 C   0  0  0  0  0  0
  -26.1682  -29.0493   20.7723 C   0  0  0  0  0  0
  -27.2697  -28.0270   20.7876 C   0  0  0  0  0  0
  -25.9908  -26.5022   19.5200 C   0  0  0  0  0  0
  -24.9329  -27.4670   19.4684 C   0  0  0  0  0  0
  -23.7754  -29.6771   20.1410 C   0  0  0  0  0  0
  -25.4140  -36.2851   24.0273 C   0  0  1  0  0  0
  -20.5960  -28.3803   23.1143 C   0  0  2  0  0  0
  -20.6787  -26.9463   22.5419 C   0  0  0  0  0  0
  -19.5763  -26.6385   21.5236 C   0  0  0  0  0  0
  -18.1943  -26.7962   22.1632 C   0  0  0  0  0  0
  -19.1591  -28.8953   23.2761 C   0  0  0  0  0  0
  -18.9503  -30.1519   23.8826 C   0  0  0  0  0  0
  -17.6492  -30.6629   24.0551 C   0  0  0  0  0  0
  -25.9146  -34.9257   23.4922 C   0  0  0  0  0  0
  -16.5376  -29.9122   23.6349 C   0  0  0  0  0  0
  -16.7302  -28.6546   23.0367 C   0  0  0  0  0  0
  -26.4641  -31.6446   25.0605 C   0  0  0  0  0  0
  -25.3718  -31.3794   26.1232 C   0  0  0  0  0  0
  -27.0524  -30.2749   24.6522 C   0  0  0  0  0  0
  -27.6069  -32.4295   25.7460 C   0  0  0  0  0  0
  -27.5585  -37.1666   24.8425 C   0  0  0  0  0  0
  -21.4426  -29.3035   22.3474 N   0  0  0  0  0  0
  -26.4228  -37.3651   23.9466 N   0  0  0  0  0  0
  -24.7946  -30.9272   22.0737 N   0  0  0  0  0  0
  -23.4194  -28.7837   23.3051 O   0  0  0  0  0  0
  -28.1628  -25.3338   20.3104 O   0  0  0  0  0  0
  -26.5793  -34.8870   22.4538 O   0  0  0  0  0  0
  -23.5896  -32.1023   23.6379 O   0  0  0  0  0  0
  -28.6273  -20.2673   20.3536 C   0  0  0  0  0  0
  -30.8852  -19.5771   20.1750 C   0  0  0  0  0  0
  -29.5999  -18.9546   20.3146 C   0  0  0  0  0  0
  -28.8818  -21.8814   20.3077 C   0  0  0  0  0  0
  -31.1150  -21.0136   20.2328 C   0  0  0  0  0  0
  -32.0900  -18.6717   19.9196 C   0  0  0  0  0  0
  -27.9203  -23.5384   20.2593 C   0  0  0  0  0  0
  -30.2194  -22.0535   20.2845 N   0  0  0  0  0  0
  -29.4947  -17.1802   20.3769 N   0  0  0  0  0  0
  -32.7378  -21.6089   20.2819 Cl  0  0  0  0  0  0
  -31.4178  -13.4446   19.2078 H   0  0  0  0  0  0
  -30.5964  -12.3492   20.2572 H   0  0  0  0  0  0
  -30.0606  -11.8692   17.8469 H   0  0  0  0  0  0
  -29.5250  -13.5162   17.6258 H   0  0  0  0  0  0
  -28.2062  -11.3231   19.2500 H   0  0  0  0  0  0
  -27.4987  -12.2181   17.9283 H   0  0  0  0  0  0
  -27.4455  -14.2314   19.2325 H   0  0  0  0  0  0
  -28.8894  -12.8434   21.5316 H   0  0  0  0  0  0
  -28.1400  -14.4138   21.6259 H   0  0  0  0  0  0
  -25.2808   -9.5703   22.4789 H   0  0  0  0  0  0
  -24.0033   -7.4659   22.7470 H   0  0  0  0  0  0
  -21.0891   -8.8839   19.8946 H   0  0  0  0  0  0
  -22.3778  -10.9713   19.6167 H   0  0  0  0  0  0
  -21.1971   -7.6140   23.9757 H   0  0  0  0  0  0
  -21.1481   -6.0493   25.9103 H   0  0  0  0  0  0
  -22.0583   -2.7615   23.2838 H   0  0  0  0  0  0
  -22.3849  -11.9969   22.4995 H   0  0  0  0  0  0
  -21.0889  -13.1264   22.2474 H   0  0  0  0  0  0
  -24.6111  -15.8436   20.5041 H   0  0  0  0  0  0
  -26.2132  -15.6311   20.0019 H   0  0  0  0  0  0
  -26.7516  -32.4856   23.0675 H   0  0  0  0  0  0
  -25.0036  -33.9280   24.9952 H   0  0  0  0  0  0
  -22.8486  -31.2289   21.3048 H   0  0  0  0  0  0
  -23.3831  -35.9380   23.3106 H   0  0  0  0  0  0
  -24.3593  -36.9015   22.2089 H   0  0  0  0  0  0
  -23.7194  -37.6225   23.6846 H   0  0  0  0  0  0
  -26.2968  -31.2203   20.6161 H   0  0  0  0  0  0
  -26.9597  -30.5809   22.0696 H   0  0  0  0  0  0
  -28.1731  -28.2994   21.3163 H   0  0  0  0  0  0
  -25.8048  -25.5647   19.0139 H   0  0  0  0  0  0
  -24.0327  -27.2038   18.9297 H   0  0  0  0  0  0
  -23.9647  -30.4375   19.3828 H   0  0  0  0  0  0
  -22.8755  -29.1578   19.8009 H   0  0  0  0  0  0
  -25.1337  -36.1545   25.0748 H   0  0  0  0  0  0
  -21.0024  -28.3443   24.1269 H   0  0  0  0  0  0
  -20.5634  -26.2443   23.3683 H   0  0  0  0  0  0
  -21.6643  -26.7348   22.1247 H   0  0  0  0  0  0
  -19.6908  -25.6274   21.1317 H   0  0  0  0  0  0
  -19.6709  -27.3152   20.6726 H   0  0  0  0  0  0
  -17.4196  -26.6691   21.4054 H   0  0  0  0  0  0
  -18.0312  -26.0123   22.9039 H   0  0  0  0  0  0
  -19.7991  -30.7335   24.2174 H   0  0  0  0  0  0
  -17.5062  -31.6311   24.5170 H   0  0  0  0  0  0
  -15.5384  -30.3006   23.7721 H   0  0  0  0  0  0
  -15.8698  -28.0833   22.7124 H   0  0  0  0  0  0
  -24.5928  -30.7106   25.7590 H   0  0  0  0  0  0
  -24.8898  -32.3019   26.4435 H   0  0  0  0  0  0
  -25.7924  -30.9126   27.0143 H   0  0  0  0  0  0
  -26.3206  -29.6399   24.1517 H   0  0  0  0  0  0
  -27.3930  -29.7144   25.5242 H   0  0  0  0  0  0
  -27.9222  -30.3851   24.0050 H   0  0  0  0  0  0
  -27.2599  -33.3681   26.1798 H   0  0  0  0  0  0
  -28.4045  -32.6707   25.0418 H   0  0  0  0  0  0
  -28.0546  -31.8543   26.5586 H   0  0  0  0  0  0
  -28.2397  -38.0154   24.7666 H   0  0  0  0  0  0
  -28.1272  -36.2678   24.5961 H   0  0  0  0  0  0
  -27.2325  -37.0952   25.8819 H   0  0  0  0  0  0
  -20.9724  -29.8742   21.6585 H   0  0  0  0  0  0
  -26.0025  -38.2646   24.1637 H   0  0  0  0  0  0
  -27.5753  -20.0239   20.4232 H   0  0  0  0  0  0
  -31.8316  -17.9401   19.1534 H   0  0  0  0  0  0
  -32.3887  -18.1576   20.8344 H   0  0  0  0  0  0
  -32.9665  -19.1775   19.5166 H   0  0  0  0  0  0
  -27.2079  -23.3891   21.0703 H   0  0  0  0  0  0
  -27.3039  -23.4241   19.3686 H   0  0  0  0  0  0
  -28.5228  -16.9315   20.4968 H   0  0  0  0  0  0
  1 25  1  0  0  0
  1 30  2  0  0  0
  1 79  1  0  0  0
  2  3  1  0  0  0
  2 25  1  0  0  0
  2 81  1  0  0  0
  2 82  1  0  0  0
  3  4  1  0  0  0
  3 83  1  0  0  0
  3 84  1  0  0  0
  4  5  1  0  0  0
  4 85  1  0  0  0
  4 86  1  0  0  0
  5  6  1  0  0  0
  5 26  1  0  0  0
  5 87  1  0  0  0
  6 25  1  0  0  0
  6 88  1  0  0  0
  6 89  1  0  0  0
  7  8  2  0  0  0
  7 26  1  0  0  0
  7 29  1  0  0  0
  8  9  1  0  0  0
  8 22  1  0  0  0
  9 10  1  0  0  0
  9 27  2  0  0  0
 10 11  2  0  0  0
 10 15  1  0  0  0
 11 12  1  0  0  0
 11 90  1  0  0  0
 12 13  2  0  0  0
 12 91  1  0  0  0
 13 14  1  0  0  0
 13 31  1  0  0  0
 14 15  2  0  0  0
 14 92  1  0  0  0
 15 93  1  0  0  0
 16 17  2  0  0  0
 16 21  1  0  0  0
 16 31  1  0  0  0
 17 18  1  0  0  0
 17 94  1  0  0  0
 18 19  2  0  0  0
 18 95  1  0  0  0
 19 20  1  0  0  0
 19 24  1  0  0  0
 20 21  2  0  0  0
 20 96  1  0  0  0
 21 23  1  0  0  0
 22 28  1  0  0  0
 22 32  2  0  0  0
 26 27  1  0  0  0
 28 97  1  0  0  0
 28 98  1  0  0  0
 29 99  1  0  0  0
 29100  1  0  0  0
 33 34  1  0  0  0
 33 66  1  0  0  0
 33 70  2  0  0  0
 34 36  1  0  0  0
 34 59  1  0  0  0
 34101  1  0  0  0
 35 44  2  0  0  0
 35 45  1  0  0  0
 35 68  1  0  0  0
 36 56  1  0  0  0
 36102  1  0  0  0
 37 39  1  0  0  0
 37 47  1  0  0  0
 37 66  1  0  0  0
 37103  1  0  0  0
 38 43  2  0  0  0
 38 46  1  0  0  0
 38 47  1  0  0  0
 39 64  1  0  0  0
 39 67  2  0  0  0
 40 52  1  0  0  0
 40 53  2  0  0  0
 40 58  1  0  0  0
 41104  1  0  0  0
 41105  1  0  0  0
 41106  1  0  0  0
 41 48  1  0  0  0
 42 43  1  0  0  0
 42 66  1  0  0  0
 42107  1  0  0  0
 42108  1  0  0  0
 43 44  1  0  0  0
 44109  1  0  0  0
 45 46  2  0  0  0
 45110  1  0  0  0
 46111  1  0  0  0
 47112  1  0  0  0
 47113  1  0  0  0
 48 56  1  0  0  0
 48 65  1  0  0  0
 48114  1  0  0  0
 49 50  1  0  0  0
 49 53  1  0  0  0
 49 64  1  0  0  0
 49115  1  0  0  0
 50 51  1  0  0  0
 50116  1  0  0  0
 50117  1  0  0  0
 51 52  1  0  0  0
 51118  1  0  0  0
 51119  1  0  0  0
 52120  1  0  0  0
 52121  1  0  0  0
 53 54  1  0  0  0
 54 55  2  0  0  0
 54122  1  0  0  0
 55 57  1  0  0  0
 55123  1  0  0  0
 56 69  2  0  0  0
 57 58  2  0  0  0
 57124  1  0  0  0
 58125  1  0  0  0
 59 60  1  0  0  0
 59 61  1  0  0  0
 59 62  1  0  0  0
 60126  1  0  0  0
 60127  1  0  0  0
 60128  1  0  0  0
 61129  1  0  0  0
 61130  1  0  0  0
 61131  1  0  0  0
 62132  1  0  0  0
 62133  1  0  0  0
 62134  1  0  0  0
 63 65  1  0  0  0
 63135  1  0  0  0
 63136  1  0  0  0
 63137  1  0  0  0
 64138  1  0  0  0
 65139  1  0  0  0
 68 77  1  0  0  0
 71 73  2  0  0  0
 71 74  1  0  0  0
 71140  1  0  0  0
 72 73  1  0  0  0
 72 75  2  0  0  0
 72 76  1  0  0  0
 73 79  1  0  0  0
 74 77  1  0  0  0
 74 78  2  0  0  0
 75 78  1  0  0  0
 75 80  1  0  0  0
 76141  1  0  0  0
 76142  1  0  0  0
 76143  1  0  0  0
 77144  1  0  0  0
 77145  1  0  0  0
 79146  1  0  0  0
M  ISO  4   1 100  68 101  77 101  79 100
M  END
> <chiral flag>
0

> <version>
0

> <s_m_source_file>
/data/baiqing/PycharmProjects/Reinvent-master-3.2/result/LINK_invent/BTK/process_docking_weight1_custom_sum_contain_oxygen_bond_distance_aromatic_linkinvent_7_9_3/rearranged_h_0029.sdf

> <i_m_source_file_index>
62

> <r_mmod_Potential_Energy-OPLS-2005>
2708.3125

> <r_mmod_Stretch_Energy-OPLS-2005>
1275.27197265625

> <r_mmod_Bend_Energy-OPLS-2005>
666.16943359375

> <r_mmod_Torsional_Energy-OPLS-2005>
221.436721801758

> <r_mmod_Improper_Torsional_Energy-OPLS-2005>
4.069495677948

> <r_mmod_Van_der_Waal_Energy-OPLS-2005>
140.817687988281

> <r_mmod_Electrostatic_Energy-OPLS-2005>
-481.079833984375

> <r_mmod_Solvation_Energy-OPLS-2005>
-230.207855224609

> <b_mmod_Minimization_Converged-OPLS-2005>
0

> <r_mmod_RMS_Derivative-OPLS-2005>
5.28931856155396

$$$$
62
                    3D
 Structure written by MMmdl.
159168  0  0  1  0            999 V2000
  -30.5934  -14.8710   20.4276 C   0  0  0  0  0  0
  -30.4279  -12.5364   19.4862 C   0  0  0  0  0  0
  -29.5137  -12.5216   18.2416 C   0  0  0  0  0  0
  -28.0394  -12.3387   18.6511 C   0  0  0  0  0  0
  -27.6299  -13.2528   19.8378 C   0  0  2  0  0  0
  -28.6754  -13.2517   20.9743 C   0  0  0  0  0  0
  -25.2479  -13.8239   20.5745 C   0  0  0  0  0  0
  -24.1803  -13.0449   20.9231 C   0  0  0  0  0  0
  -24.6409  -11.6930   20.8748 C   0  0  0  0  0  0
  -23.9087  -10.4311   21.0419 C   0  0  0  0  0  0
  -24.3646   -9.4226   21.9189 C   0  0  0  0  0  0
  -23.6323   -8.2259   22.0759 C   0  0  0  0  0  0
  -22.4292   -8.0299   21.3568 C   0  0  0  0  0  0
  -21.9942   -9.0253   20.4647 C   0  0  0  0  0  0
  -22.7268  -10.2135   20.3056 C   0  0  0  0  0  0
  -21.6865   -6.0758   22.5289 C   0  0  0  0  0  0
  -21.4011   -6.5654   23.8221 C   0  0  0  0  0  0
  -21.3670   -5.6809   24.9185 C   0  0  0  0  0  0
  -21.6034   -4.3066   24.7227 C   0  0  0  0  0  0
  -21.8824   -3.8167   23.4351 C   0  0  0  0  0  0
  -21.9199   -4.6992   22.3412 C   0  0  0  0  0  0
  -22.7837  -13.5203   21.1902 C   0  0  0  0  0  0
  -22.1687   -4.2185   21.0992 F   0  0  0  0  0  0
  -21.5626   -3.4538   25.7741 F   0  0  0  0  0  0
  -29.9620  -13.6337   20.3809 N   0  0  0  0  0  0
  -26.2904  -12.9471   20.3253 N   0  0  0  0  0  0
  -25.9337  -11.6601   20.5717 N   0  0  0  0  0  0
  -22.0494  -12.8155   22.0433 N   0  0  0  0  0  0
  -25.4151  -15.1964   20.4200 N   0  0  0  0  0  0
  -31.7933  -14.9120   20.1390 O   0  0  0  0  0  0
  -21.6651   -6.8902   21.4253 O   0  0  0  0  0  0
  -22.3521  -14.5518   20.6768 O   0  0  0  0  0  0
  -24.6406  -31.8457   23.1921 C   0  0  0  0  0  0
  -25.9188  -32.4706   23.8298 C   0  0  1  0  0  0
  -27.2303  -27.1863   20.1407 C   0  0  0  0  0  0
  -25.5944  -33.8512   24.2216 N   0  0  0  0  0  0
  -23.4424  -30.4642   21.5372 C   0  0  2  0  0  0
  -24.8931  -28.8957   20.1141 C   0  0  0  0  0  0
  -22.7549  -29.4550   22.4902 C   0  0  0  0  0  0
  -18.0293  -28.1391   22.8482 C   0  0  0  0  0  0
  -24.1494  -36.7272   23.2645 C   0  0  0  0  0  0
  -25.9942  -30.7385   21.3804 C   0  0  0  0  0  0
  -26.0680  -29.3521   20.7249 C   0  0  0  0  0  0
  -27.2378  -28.5125   20.7205 C   0  0  0  0  0  0
  -26.0275  -26.8138   19.5022 C   0  0  0  0  0  0
  -24.8817  -27.6384   19.4896 C   0  0  0  0  0  0
  -23.6670  -29.7912   20.1569 C   0  0  0  0  0  0
  -25.4119  -36.3041   24.0326 C   0  0  1  0  0  0
  -20.5910  -28.3708   23.1266 C   0  0  2  0  0  0
  -20.6778  -26.9416   22.5416 C   0  0  0  0  0  0
  -19.5752  -26.6382   21.5218 C   0  0  0  0  0  0
  -18.1931  -26.7932   22.1621 C   0  0  0  0  0  0
  -19.1549  -28.8873   23.2862 C   0  0  0  0  0  0
  -18.9460  -30.1477   23.8876 C   0  0  0  0  0  0
  -17.6456  -30.6589   24.0560 C   0  0  0  0  0  0
  -25.9071  -34.9408   23.5081 C   0  0  0  0  0  0
  -16.5352  -29.9083   23.6337 C   0  0  0  0  0  0
  -16.7279  -28.6507   23.0353 C   0  0  0  0  0  0
  -26.4514  -31.6556   25.0718 C   0  0  0  0  0  0
  -25.3717  -31.3739   26.1428 C   0  0  0  0  0  0
  -27.0366  -30.2954   24.6275 C   0  0  0  0  0  0
  -27.6066  -32.4292   25.7510 C   0  0  0  0  0  0
  -27.5577  -37.1796   24.8459 C   0  0  0  0  0  0
  -21.4245  -29.3031   22.3650 N   0  0  0  0  0  0
  -26.4285  -37.3747   23.9417 N   0  0  0  0  0  0
  -24.7124  -31.0356   22.0930 N   0  0  0  0  0  0
  -23.4211  -28.8089   23.3033 O   0  0  0  0  0  0
  -28.3135  -26.2515   20.1946 O   0  0  0  0  0  0
  -26.5643  -34.8902   22.4653 O   0  0  0  0  0  0
  -23.5533  -32.1301   23.7169 O   0  0  0  0  0  0
  -29.7212  -19.7683   21.6294 C   0  0  0  0  0  0
  -29.3685  -19.8715   19.3149 C   0  0  0  0  0  0
  -29.4865  -21.2026   21.6813 C   0  0  0  0  0  0
  -29.7071  -19.0136   20.4177 C   0  0  0  0  0  0
  -29.1799  -21.9769   20.5087 C   0  0  0  0  0  0
  -30.6260  -23.1764   22.6820 C   0  0  0  0  0  0
  -29.9176  -24.1938   21.7811 C   0  0  0  0  0  0
  -29.7007  -21.9871   22.9754 C   0  0  2  0  0  0
  -29.2812  -23.6323   20.4807 C   0  0  2  0  0  0
  -30.2137  -21.1768   24.1782 C   0  0  0  0  0  0
  -30.3818  -17.5205   20.2404 C   0  0  0  0  0  0
  -28.0939  -24.7253   20.1009 C   0  0  0  0  0  0
  -29.1247  -21.2419   19.3510 N   0  0  0  0  0  0
  -29.8676  -16.0783   20.5624 N   0  0  0  0  0  0
  -31.4682  -12.6639   19.1784 H   0  0  0  0  0  0
  -30.3899  -11.5768   20.0036 H   0  0  0  0  0  0
  -29.8086  -11.7254   17.5569 H   0  0  0  0  0  0
  -29.6279  -13.4583   17.6937 H   0  0  0  0  0  0
  -27.8969  -11.2890   18.9157 H   0  0  0  0  0  0
  -27.3888  -12.5243   17.7961 H   0  0  0  0  0  0
  -27.6003  -14.2632   19.4280 H   0  0  0  0  0  0
  -28.7399  -12.2701   21.4445 H   0  0  0  0  0  0
  -28.3910  -13.9570   21.7573 H   0  0  0  0  0  0
  -25.2803   -9.5698   22.4747 H   0  0  0  0  0  0
  -24.0055   -7.4631   22.7442 H   0  0  0  0  0  0
  -21.0901   -8.8757   19.8910 H   0  0  0  0  0  0
  -22.3750  -10.9668   19.6152 H   0  0  0  0  0  0
  -21.1987   -7.6163   23.9740 H   0  0  0  0  0  0
  -21.1499   -6.0537   25.9089 H   0  0  0  0  0  0
  -22.0583   -2.7629   23.2837 H   0  0  0  0  0  0
  -22.4183  -11.9827   22.4786 H   0  0  0  0  0  0
  -21.1081  -13.1132   22.2616 H   0  0  0  0  0  0
  -24.6429  -15.8446   20.5305 H   0  0  0  0  0  0
  -26.2545  -15.6386   20.0690 H   0  0  0  0  0  0
  -26.7265  -32.5329   23.1048 H   0  0  0  0  0  0
  -25.0051  -33.9629   25.0333 H   0  0  0  0  0  0
  -22.7431  -31.2892   21.3834 H   0  0  0  0  0  0
  -23.3745  -35.9610   23.3283 H   0  0  0  0  0  0
  -24.3585  -36.8921   22.2061 H   0  0  0  0  0  0
  -23.7255  -37.6473   23.6686 H   0  0  0  0  0  0
  -26.1381  -31.4954   20.6086 H   0  0  0  0  0  0
  -26.8684  -30.7926   22.0177 H   0  0  0  0  0  0
  -28.1361  -28.8585   21.2115 H   0  0  0  0  0  0
  -25.9495  -25.8524   19.0170 H   0  0  0  0  0  0
  -23.9831  -27.2842   19.0013 H   0  0  0  0  0  0
  -23.8013  -30.5642   19.3998 H   0  0  0  0  0  0
  -22.7844  -29.2295   19.8462 H   0  0  0  0  0  0
  -25.1308  -36.1869   25.0816 H   0  0  0  0  0  0
  -20.9985  -28.3278   24.1396 H   0  0  0  0  0  0
  -20.5669  -26.2315   23.3626 H   0  0  0  0  0  0
  -21.6647  -26.7428   22.1211 H   0  0  0  0  0  0
  -19.6911  -25.6286   21.1261 H   0  0  0  0  0  0
  -19.6692  -27.3186   20.6741 H   0  0  0  0  0  0
  -17.4199  -26.6687   21.4020 H   0  0  0  0  0  0
  -18.0321  -26.0083   22.9027 H   0  0  0  0  0  0
  -19.7936  -30.7300   24.2238 H   0  0  0  0  0  0
  -17.5004  -31.6262   24.5169 H   0  0  0  0  0  0
  -15.5349  -30.2967   23.7681 H   0  0  0  0  0  0
  -15.8681  -28.0821   22.7070 H   0  0  0  0  0  0
  -24.5887  -30.7101   25.7751 H   0  0  0  0  0  0
  -24.8913  -32.2914   26.4833 H   0  0  0  0  0  0
  -25.7999  -30.8914   27.0227 H   0  0  0  0  0  0
  -26.2968  -29.6690   24.1279 H   0  0  0  0  0  0
  -27.3983  -29.7243   25.4843 H   0  0  0  0  0  0
  -27.8878  -30.4195   23.9578 H   0  0  0  0  0  0
  -27.2683  -33.3604   26.2075 H   0  0  0  0  0  0
  -28.3896  -32.6831   25.0347 H   0  0  0  0  0  0
  -28.0719  -31.8413   26.5439 H   0  0  0  0  0  0
  -28.2580  -38.0106   24.7502 H   0  0  0  0  0  0
  -28.1088  -36.2633   24.6277 H   0  0  0  0  0  0
  -27.2303  -37.1435   25.8865 H   0  0  0  0  0  0
  -20.9464  -29.8751   21.6832 H   0  0  0  0  0  0
  -26.0148  -38.2826   24.1391 H   0  0  0  0  0  0
  -30.0308  -19.2434   22.5201 H   0  0  0  0  0  0
  -29.3799  -19.4521   18.3187 H   0  0  0  0  0  0
  -30.9121  -23.6759   23.6089 H   0  0  0  0  0  0
  -31.5547  -22.8389   22.2199 H   0  0  0  0  0  0
  -30.5917  -25.0182   21.5360 H   0  0  0  0  0  0
  -29.1310  -24.6445   22.3885 H   0  0  0  0  0  0
  -28.7245  -22.3784   23.2636 H   0  0  0  0  0  0
  -30.0410  -23.7861   19.7127 H   0  0  0  0  0  0
  -31.1909  -20.7359   23.9840 H   0  0  0  0  0  0
  -29.5218  -20.3792   24.4512 H   0  0  0  0  0  0
  -30.3141  -21.8152   25.0565 H   0  0  0  0  0  0
  -31.3331  -17.5991   20.7691 H   0  0  0  0  0  0
  -30.6757  -17.4726   19.1916 H   0  0  0  0  0  0
  -27.2385  -24.4920   20.7363 H   0  0  0  0  0  0
  -27.7730  -24.5017   19.0842 H   0  0  0  0  0  0
  -28.8832  -15.9799   20.7569 H   0  0  0  0  0  0
  1 25  1  0  0  0
  1 30  2  0  0  0
  1 84  1  0  0  0
  2  3  1  0  0  0
  2 25  1  0  0  0
  2 85  1  0  0  0
  2 86  1  0  0  0
  3  4  1  0  0  0
  3 87  1  0  0  0
  3 88  1  0  0  0
  4  5  1  0  0  0
  4 89  1  0  0  0
  4 90  1  0  0  0
  5  6  1  0  0  0
  5 26  1  0  0  0
  5 91  1  0  0  0
  6 25  1  0  0  0
  6 92  1  0  0  0
  6 93  1  0  0  0
  7  8  2  0  0  0
  7 26  1  0  0  0
  7 29  1  0  0  0
  8  9  1  0  0  0
  8 22  1  0  0  0
  9 10  1  0  0  0
  9 27  2  0  0  0
 10 11  2  0  0  0
 10 15  1  0  0  0
 11 12  1  0  0  0
 11 94  1  0  0  0
 12 13  2  0  0  0
 12 95  1  0  0  0
 13 14  1  0  0  0
 13 31  1  0  0  0
 14 15  2  0  0  0
 14 96  1  0  0  0
 15 97  1  0  0  0
 16 17  2  0  0  0
 16 21  1  0  0  0
 16 31  1  0  0  0
 17 18  1  0  0  0
 17 98  1  0  0  0
 18 19  2  0  0  0
 18 99  1  0  0  0
 19 20  1  0  0  0
 19 24  1  0  0  0
 20 21  2  0  0  0
 20100  1  0  0  0
 21 23  1  0  0  0
 22 28  1  0  0  0
 22 32  2  0  0  0
 26 27  1  0  0  0
 28101  1  0  0  0
 28102  1  0  0  0
 29103  1  0  0  0
 29104  1  0  0  0
 33 34  1  0  0  0
 33 66  1  0  0  0
 33 70  2  0  0  0
 34 36  1  0  0  0
 34 59  1  0  0  0
 34105  1  0  0  0
 35 44  2  0  0  0
 35 45  1  0  0  0
 35 68  1  0  0  0
 36 56  1  0  0  0
 36106  1  0  0  0
 37 39  1  0  0  0
 37 47  1  0  0  0
 37 66  1  0  0  0
 37107  1  0  0  0
 38 43  2  0  0  0
 38 46  1  0  0  0
 38 47  1  0  0  0
 39 64  1  0  0  0
 39 67  2  0  0  0
 40 52  1  0  0  0
 40 53  2  0  0  0
 40 58  1  0  0  0
 41108  1  0  0  0
 41109  1  0  0  0
 41110  1  0  0  0
 41 48  1  0  0  0
 42 43  1  0  0  0
 42 66  1  0  0  0
 42111  1  0  0  0
 42112  1  0  0  0
 43 44  1  0  0  0
 44113  1  0  0  0
 45 46  2  0  0  0
 45114  1  0  0  0
 46115  1  0  0  0
 47116  1  0  0  0
 47117  1  0  0  0
 48 56  1  0  0  0
 48 65  1  0  0  0
 48118  1  0  0  0
 49 50  1  0  0  0
 49 53  1  0  0  0
 49 64  1  0  0  0
 49119  1  0  0  0
 50 51  1  0  0  0
 50120  1  0  0  0
 50121  1  0  0  0
 51 52  1  0  0  0
 51122  1  0  0  0
 51123  1  0  0  0
 52124  1  0  0  0
 52125  1  0  0  0
 53 54  1  0  0  0
 54 55  2  0  0  0
 54126  1  0  0  0
 55 57  1  0  0  0
 55127  1  0  0  0
 56 69  2  0  0  0
 57 58  2  0  0  0
 57128  1  0  0  0
 58129  1  0  0  0
 59 60  1  0  0  0
 59 61  1  0  0  0
 59 62  1  0  0  0
 60130  1  0  0  0
 60131  1  0  0  0
 60132  1  0  0  0
 61133  1  0  0  0
 61134  1  0  0  0
 61135  1  0  0  0
 62136  1  0  0  0
 62137  1  0  0  0
 62138  1  0  0  0
 63 65  1  0  0  0
 63139  1  0  0  0
 63140  1  0  0  0
 63141  1  0  0  0
 64142  1  0  0  0
 65143  1  0  0  0
 68 82  1  0  0  0
 71 73  2  0  0  0
 71 74  1  0  0  0
 71144  1  0  0  0
 72 74  2  0  0  0
 72 83  1  0  0  0
 72145  1  0  0  0
 73 75  1  0  0  0
 73 78  1  0  0  0
 74 81  1  0  0  0
 75 79  1  0  0  0
 75 83  2  0  0  0
 76 77  1  0  0  0
 76 78  1  0  0  0
 76146  1  0  0  0
 76147  1  0  0  0
 77 79  1  0  0  0
 77148  1  0  0  0
 77149  1  0  0  0
 78 80  1  0  0  0
 78150  1  0  0  0
 79 82  1  0  0  0
 79151  1  0  0  0
 80152  1  0  0  0
 80153  1  0  0  0
 80154  1  0  0  0
 81 84  1  0  0  0
 81155  1  0  0  0
 81156  1  0  0  0
 82157  1  0  0  0
 82158  1  0  0  0
 84159  1  0  0  0
M  ISO  4   1 100  68 101  82 101  84 100
M  END
> <chiral flag>
0

> <version>
0

> <s_m_source_file>
/data/baiqing/PycharmProjects/Reinvent-master-3.2/result/LINK_invent/BTK/process_docking_weight1_custom_sum_contain_oxygen_bond_distance_aromatic_linkinvent_7_9_3/rearranged_h_0029.sdf

> <i_m_source_file_index>
63

> <r_mmod_Potential_Energy-OPLS-2005>
298.904541015625

> <r_mmod_Stretch_Energy-OPLS-2005>
206.107223510742

> <r_mmod_Bend_Energy-OPLS-2005>
249.560317993164

> <r_mmod_Torsional_Energy-OPLS-2005>
234.837997436523

> <r_mmod_Improper_Torsional_Energy-OPLS-2005>
11.3607473373413

> <r_mmod_Van_der_Waal_Energy-OPLS-2005>
143.912384033203

> <r_mmod_Electrostatic_Energy-OPLS-2005>
-467.124114990234

> <r_mmod_Solvation_Energy-OPLS-2005>
-222.125701904297

> <b_mmod_Minimization_Converged-OPLS-2005>
0

> <r_mmod_RMS_Derivative-OPLS-2005>
3.19508695602417

$$$$
63
                    3D
 Structure written by MMmdl.
153161  0  0  1  0            999 V2000
  -30.5187  -14.9614   20.4551 C   0  0  0  0  0  0
  -30.4381  -12.6158   19.4901 C   0  0  0  0  0  0
  -29.5186  -12.5433   18.2485 C   0  0  0  0  0  0
  -28.0386  -12.3556   18.6422 C   0  0  0  0  0  0
  -27.6237  -13.2618   19.8334 C   0  0  2  0  0  0
  -28.6610  -13.2530   20.9727 C   0  0  0  0  0  0
  -25.2394  -13.8231   20.5711 C   0  0  0  0  0  0
  -24.1699  -13.0431   20.9221 C   0  0  0  0  0  0
  -24.6361  -11.6924   20.8704 C   0  0  0  0  0  0
  -23.9039  -10.4265   21.0325 C   0  0  0  0  0  0
  -24.3599   -9.4202   21.9128 C   0  0  0  0  0  0
  -23.6297   -8.2224   22.0709 C   0  0  0  0  0  0
  -22.4269   -8.0242   21.3499 C   0  0  0  0  0  0
  -21.9864   -9.0218   20.4614 C   0  0  0  0  0  0
  -22.7193  -10.2098   20.3010 C   0  0  0  0  0  0
  -21.6848   -6.0718   22.5239 C   0  0  0  0  0  0
  -21.4040   -6.5616   23.8183 C   0  0  0  0  0  0
  -21.3660   -5.6766   24.9145 C   0  0  0  0  0  0
  -21.6036   -4.3024   24.7191 C   0  0  0  0  0  0
  -21.8820   -3.8127   23.4303 C   0  0  0  0  0  0
  -21.9190   -4.6953   22.3385 C   0  0  0  0  0  0
  -22.7717  -13.5148   21.1877 C   0  0  0  0  0  0
  -22.1661   -4.2140   21.0935 F   0  0  0  0  0  0
  -21.5649   -3.4524   25.7719 F   0  0  0  0  0  0
  -29.9314  -13.6948   20.3847 N   0  0  0  0  0  0
  -26.2808  -12.9505   20.3165 N   0  0  0  0  0  0
  -25.9277  -11.6619   20.5649 N   0  0  0  0  0  0
  -22.0388  -12.8164   22.0459 N   0  0  0  0  0  0
  -25.4065  -15.1960   20.4137 N   0  0  0  0  0  0
  -31.7185  -15.0238   20.1679 O   0  0  0  0  0  0
  -21.6634   -6.8842   21.4196 O   0  0  0  0  0  0
  -22.3347  -14.5452   20.6744 O   0  0  0  0  0  0
  -24.6484  -31.8403   23.1868 C   0  0  0  0  0  0
  -25.9245  -32.4669   23.8225 C   0  0  1  0  0  0
  -27.2150  -27.1113   20.1486 C   0  0  0  0  0  0
  -25.6024  -33.8485   24.2181 N   0  0  0  0  0  0
  -23.4497  -30.4636   21.5315 C   0  0  2  0  0  0
  -24.9032  -28.8911   20.1070 C   0  0  0  0  0  0
  -22.7586  -29.4511   22.4827 C   0  0  0  0  0  0
  -18.0312  -28.1367   22.8485 C   0  0  0  0  0  0
  -24.1506  -36.7204   23.2627 C   0  0  0  0  0  0
  -26.0072  -30.7060   21.3962 C   0  0  0  0  0  0
  -26.0794  -29.3168   20.7326 C   0  0  0  0  0  0
  -27.2373  -28.4470   20.7297 C   0  0  0  0  0  0
  -26.0146  -26.7934   19.4807 C   0  0  0  0  0  0
  -24.8891  -27.6470   19.4551 C   0  0  0  0  0  0
  -23.6796  -29.7992   20.1461 C   0  0  0  0  0  0
  -25.4150  -36.3022   24.0302 C   0  0  1  0  0  0
  -20.5929  -28.3699   23.1249 C   0  0  2  0  0  0
  -20.6813  -26.9410   22.5428 C   0  0  0  0  0  0
  -19.5782  -26.6374   21.5240 C   0  0  0  0  0  0
  -18.1947  -26.7910   22.1644 C   0  0  0  0  0  0
  -19.1567  -28.8858   23.2857 C   0  0  0  0  0  0
  -18.9491  -30.1460   23.8883 C   0  0  0  0  0  0
  -17.6495  -30.6582   24.0552 C   0  0  0  0  0  0
  -25.9111  -34.9395   23.5041 C   0  0  0  0  0  0
  -16.5380  -29.9068   23.6352 C   0  0  0  0  0  0
  -16.7303  -28.6479   23.0375 C   0  0  0  0  0  0
  -26.4537  -31.6537   25.0680 C   0  0  0  0  0  0
  -25.3725  -31.3756   26.1387 C   0  0  0  0  0  0
  -27.0408  -30.2931   24.6316 C   0  0  0  0  0  0
  -27.6070  -32.4266   25.7463 C   0  0  0  0  0  0
  -27.5581  -37.1799   24.8451 C   0  0  0  0  0  0
  -21.4276  -29.3026   22.3627 N   0  0  0  0  0  0
  -26.4298  -37.3761   23.9396 N   0  0  0  0  0  0
  -24.7207  -31.0264   22.0910 N   0  0  0  0  0  0
  -23.4253  -28.8093   23.2976 O   0  0  0  0  0  0
  -28.2608  -26.1092   20.1809 O   0  0  0  0  0  0
  -26.5676  -34.8889   22.4615 O   0  0  0  0  0  0
  -23.5621  -32.1276   23.7109 O   0  0  0  0  0  0
  -28.1007  -21.5617   21.9180 C   0  0  0  0  0  0
  -29.3891  -20.4092   20.2249 C   0  0  0  0  0  0
  -28.7970  -21.6939   20.6974 C   0  0  0  0  0  0
  -28.0090  -20.3351   22.6206 C   0  0  0  0  0  0
  -29.3082  -19.0767   20.8959 C   0  0  0  0  0  0
  -28.5798  -19.1236   22.1260 C   0  0  0  0  0  0
  -27.3338  -20.3516   23.9914 C   0  0  0  0  0  0
  -28.9616  -23.2202   20.0639 C   0  0  0  0  0  0
  -30.1134  -17.6869   20.4369 C   0  0  0  0  0  0
  -27.9708  -24.5711   20.3669 C   0  0  0  0  0  0
  -29.7516  -16.1493   20.6421 N   0  0  0  0  0  0
  -28.4250  -17.6946   23.0909 Cl  0  0  0  0  0  0
  -31.4567  -12.8192   19.1522 H   0  0  0  0  0  0
  -30.4930  -11.6597   20.0157 H   0  0  0  0  0  0
  -29.8412  -11.7401   17.5878 H   0  0  0  0  0  0
  -29.6281  -13.4682   17.6696 H   0  0  0  0  0  0
  -27.8695  -11.3048   18.8859 H   0  0  0  0  0  0
  -27.4027  -12.5772   17.7859 H   0  0  0  0  0  0
  -27.6033  -14.2793   19.4381 H   0  0  0  0  0  0
  -28.7442  -12.2583   21.4188 H   0  0  0  0  0  0
  -28.3548  -13.9264   21.7746 H   0  0  0  0  0  0
  -25.2766   -9.5753   22.4671 H   0  0  0  0  0  0
  -24.0040   -7.4627   22.7412 H   0  0  0  0  0  0
  -21.0817   -8.8724   19.8908 H   0  0  0  0  0  0
  -22.3630  -10.9635   19.6121 H   0  0  0  0  0  0
  -21.2043   -7.6139   23.9685 H   0  0  0  0  0  0
  -21.1491   -6.0492   25.9035 H   0  0  0  0  0  0
  -22.0607   -2.7601   23.2790 H   0  0  0  0  0  0
  -22.4032  -11.9912   22.4986 H   0  0  0  0  0  0
  -21.0961  -13.1087   22.2553 H   0  0  0  0  0  0
  -24.6683  -15.8667   20.5826 H   0  0  0  0  0  0
  -26.2424  -15.6203   20.0350 H   0  0  0  0  0  0
  -26.7283  -32.5259   23.0915 H   0  0  0  0  0  0
  -25.0254  -33.9572   25.0382 H   0  0  0  0  0  0
  -22.7569  -31.2939   21.3908 H   0  0  0  0  0  0
  -23.3804  -35.9497   23.3305 H   0  0  0  0  0  0
  -24.3582  -36.8844   22.2046 H   0  0  0  0  0  0
  -23.7245  -37.6400   23.6640 H   0  0  0  0  0  0
  -26.1943  -31.4722   20.6379 H   0  0  0  0  0  0
  -26.8597  -30.7371   22.0606 H   0  0  0  0  0  0
  -28.1347  -28.7812   21.2386 H   0  0  0  0  0  0
  -25.9194  -25.8489   18.9618 H   0  0  0  0  0  0
  -24.0016  -27.3317   18.9262 H   0  0  0  0  0  0
  -23.8233  -30.5793   19.3954 H   0  0  0  0  0  0
  -22.7908  -29.2496   19.8345 H   0  0  0  0  0  0
  -25.1366  -36.1822   25.0799 H   0  0  0  0  0  0
  -21.0049  -28.3256   24.1351 H   0  0  0  0  0  0
  -20.5781  -26.2271   23.3630 H   0  0  0  0  0  0
  -21.6679  -26.7441   22.1215 H   0  0  0  0  0  0
  -19.6952  -25.6286   21.1237 H   0  0  0  0  0  0
  -19.6716  -27.3196   20.6784 H   0  0  0  0  0  0
  -17.4266  -26.6684   21.3980 H   0  0  0  0  0  0
  -18.0320  -26.0013   22.9009 H   0  0  0  0  0  0
  -19.7953  -30.7259   24.2254 H   0  0  0  0  0  0
  -17.5046  -31.6261   24.5142 H   0  0  0  0  0  0
  -15.5381  -30.2986   23.7665 H   0  0  0  0  0  0
  -15.8693  -28.0800   22.7132 H   0  0  0  0  0  0
  -24.5892  -30.7110   25.7733 H   0  0  0  0  0  0
  -24.8927  -32.2975   26.4722 H   0  0  0  0  0  0
  -25.8044  -30.8999   27.0218 H   0  0  0  0  0  0
  -26.3041  -29.6652   24.1317 H   0  0  0  0  0  0
  -27.4010  -29.7243   25.4903 H   0  0  0  0  0  0
  -27.8954  -30.4150   23.9648 H   0  0  0  0  0  0
  -27.2671  -33.3576   26.1998 H   0  0  0  0  0  0
  -28.3912  -32.6834   25.0315 H   0  0  0  0  0  0
  -28.0688  -31.8416   26.5436 H   0  0  0  0  0  0
  -28.2622  -38.0081   24.7576 H   0  0  0  0  0  0
  -28.1085  -36.2658   24.6220 H   0  0  0  0  0  0
  -27.2293  -37.1386   25.8844 H   0  0  0  0  0  0
  -20.9488  -29.8736   21.6800 H   0  0  0  0  0  0
  -26.0156  -38.2816   24.1439 H   0  0  0  0  0  0
  -27.6505  -22.4427   22.3519 H   0  0  0  0  0  0
  -29.9672  -20.4491   19.3119 H   0  0  0  0  0  0
  -26.8985  -21.3222   24.2344 H   0  0  0  0  0  0
  -28.0617  -20.1417   24.7743 H   0  0  0  0  0  0
  -26.5361  -19.6101   24.0741 H   0  0  0  0  0  0
  -28.9833  -23.0864   18.9817 H   0  0  0  0  0  0
  -29.9890  -23.4990   20.2985 H   0  0  0  0  0  0
  -31.0922  -17.7748   20.9149 H   0  0  0  0  0  0
  -30.3362  -17.8086   19.3804 H   0  0  0  0  0  0
  -27.6978  -24.5006   21.4184 H   0  0  0  0  0  0
  -27.0463  -24.3436   19.8435 H   0  0  0  0  0  0
  -28.7828  -15.9878   20.8781 H   0  0  0  0  0  0
  1 25  1  0  0  0
  1 30  2  0  0  0
  1 81  1  0  0  0
  2  3  1  0  0  0
  2 25  1  0  0  0
  2 83  1  0  0  0
  2 84  1  0  0  0
  3  4  1  0  0  0
  3 85  1  0  0  0
  3 86  1  0  0  0
  4  5  1  0  0  0
  4 87  1  0  0  0
  4 88  1  0  0  0
  5  6  1  0  0  0
  5 26  1  0  0  0
  5 89  1  0  0  0
  6 25  1  0  0  0
  6 90  1  0  0  0
  6 91  1  0  0  0
  7  8  2  0  0  0
  7 26  1  0  0  0
  7 29  1  0  0  0
  8  9  1  0  0  0
  8 22  1  0  0  0
  9 10  1  0  0  0
  9 27  2  0  0  0
 10 11  2  0  0  0
 10 15  1  0  0  0
 11 12  1  0  0  0
 11 92  1  0  0  0
 12 13  2  0  0  0
 12 93  1  0  0  0
 13 14  1  0  0  0
 13 31  1  0  0  0
 14 15  2  0  0  0
 14 94  1  0  0  0
 15 95  1  0  0  0
 16 17  2  0  0  0
 16 21  1  0  0  0
 16 31  1  0  0  0
 17 18  1  0  0  0
 17 96  1  0  0  0
 18 19  2  0  0  0
 18 97  1  0  0  0
 19 20  1  0  0  0
 19 24  1  0  0  0
 20 21  2  0  0  0
 20 98  1  0  0  0
 21 23  1  0  0  0
 22 28  1  0  0  0
 22 32  2  0  0  0
 26 27  1  0  0  0
 28 99  1  0  0  0
 28100  1  0  0  0
 29101  1  0  0  0
 29102  1  0  0  0
 33 34  1  0  0  0
 33 66  1  0  0  0
 33 70  2  0  0  0
 34 36  1  0  0  0
 34 59  1  0  0  0
 34103  1  0  0  0
 35 44  2  0  0  0
 35 45  1  0  0  0
 35 68  1  0  0  0
 36 56  1  0  0  0
 36104  1  0  0  0
 37 39  1  0  0  0
 37 47  1  0  0  0
 37 66  1  0  0  0
 37105  1  0  0  0
 38 43  2  0  0  0
 38 46  1  0  0  0
 38 47  1  0  0  0
 39 64  1  0  0  0
 39 67  2  0  0  0
 40 52  1  0  0  0
 40 53  2  0  0  0
 40 58  1  0  0  0
 41106  1  0  0  0
 41107  1  0  0  0
 41108  1  0  0  0
 41 48  1  0  0  0
 42 43  1  0  0  0
 42 66  1  0  0  0
 42109  1  0  0  0
 42110  1  0  0  0
 43 44  1  0  0  0
 44111  1  0  0  0
 45 46  2  0  0  0
 45112  1  0  0  0
 46113  1  0  0  0
 47114  1  0  0  0
 47115  1  0  0  0
 48 56  1  0  0  0
 48 65  1  0  0  0
 48116  1  0  0  0
 49 50  1  0  0  0
 49 53  1  0  0  0
 49 64  1  0  0  0
 49117  1  0  0  0
 50 51  1  0  0  0
 50118  1  0  0  0
 50119  1  0  0  0
 51 52  1  0  0  0
 51120  1  0  0  0
 51121  1  0  0  0
 52122  1  0  0  0
 52123  1  0  0  0
 53 54  1  0  0  0
 54 55  2  0  0  0
 54124  1  0  0  0
 55 57  1  0  0  0
 55125  1  0  0  0
 56 69  2  0  0  0
 57 58  2  0  0  0
 57126  1  0  0  0
 58127  1  0  0  0
 59 60  1  0  0  0
 59 61  1  0  0  0
 59 62  1  0  0  0
 60128  1  0  0  0
 60129  1  0  0  0
 60130  1  0  0  0
 61131  1  0  0  0
 61132  1  0  0  0
 61133  1  0  0  0
 62134  1  0  0  0
 62135  1  0  0  0
 62136  1  0  0  0
 63 65  1  0  0  0
 63137  1  0  0  0
 63138  1  0  0  0
 63139  1  0  0  0
 64140  1  0  0  0
 65141  1  0  0  0
 68 80  1  0  0  0
 71 73  2  0  0  0
 71 74  1  0  0  0
 71142  1  0  0  0
 72 73  1  0  0  0
 72 75  2  0  0  0
 72143  1  0  0  0
 73 78  1  0  0  0
 74 76  2  0  0  0
 74 77  1  0  0  0
 75 76  1  0  0  0
 75 79  1  0  0  0
 76 82  1  0  0  0
 77144  1  0  0  0
 77145  1  0  0  0
 77146  1  0  0  0
 78 80  1  0  0  0
 78147  1  0  0  0
 78148  1  0  0  0
 79 81  1  0  0  0
 79149  1  0  0  0
 79150  1  0  0  0
 80151  1  0  0  0
 80152  1  0  0  0
 81153  1  0  0  0
M  ISO  4   1 100  68 101  80 101  81 100
M  END
> <chiral flag>
0

> <version>
0

> <s_m_source_file>
/data/baiqing/PycharmProjects/Reinvent-master-3.2/result/LINK_invent/BTK/process_docking_weight1_custom_sum_contain_oxygen_bond_distance_aromatic_linkinvent_7_9_3/rearranged_h_0029.sdf

> <i_m_source_file_index>
64

> <r_mmod_Potential_Energy-OPLS-2005>
519.219970703125

> <r_mmod_Stretch_Energy-OPLS-2005>
285.555572509766

> <r_mmod_Bend_Energy-OPLS-2005>
259.466461181641

> <r_mmod_Torsional_Energy-OPLS-2005>
216.214096069336

> <r_mmod_Improper_Torsional_Energy-OPLS-2005>
5.39691066741943

> <r_mmod_Van_der_Waal_Energy-OPLS-2005>
132.123092651367

> <r_mmod_Electrostatic_Energy-OPLS-2005>
-382.23876953125

> <r_mmod_Solvation_Energy-OPLS-2005>
-202.3466796875

> <b_mmod_Minimization_Converged-OPLS-2005>
0

> <r_mmod_RMS_Derivative-OPLS-2005>
8.49559497833252

$$$$
64
                    3D
 Structure written by MMmdl.
153161  0  0  1  0            999 V2000
  -30.4328  -15.1901   20.3864 C   0  0  0  0  0  0
  -30.4494  -12.7538   19.5250 C   0  0  0  0  0  0
  -29.5411  -12.5714   18.2821 C   0  0  0  0  0  0
  -28.0821  -12.3092   18.7007 C   0  0  0  0  0  0
  -27.6208  -13.2654   19.8299 C   0  0  2  0  0  0
  -28.6557  -13.3849   20.9692 C   0  0  0  0  0  0
  -25.2421  -13.8226   20.5693 C   0  0  0  0  0  0
  -24.1762  -13.0432   20.9220 C   0  0  0  0  0  0
  -24.6404  -11.6924   20.8737 C   0  0  0  0  0  0
  -23.9092  -10.4291   21.0397 C   0  0  0  0  0  0
  -24.3637   -9.4209   21.9179 C   0  0  0  0  0  0
  -23.6302   -8.2244   22.0762 C   0  0  0  0  0  0
  -22.4284   -8.0278   21.3546 C   0  0  0  0  0  0
  -21.9918   -9.0257   20.4655 C   0  0  0  0  0  0
  -22.7255  -10.2133   20.3059 C   0  0  0  0  0  0
  -21.6859   -6.0733   22.5272 C   0  0  0  0  0  0
  -21.4015   -6.5636   23.8203 C   0  0  0  0  0  0
  -21.3663   -5.6790   24.9167 C   0  0  0  0  0  0
  -21.6047   -4.3051   24.7213 C   0  0  0  0  0  0
  -21.8817   -3.8141   23.4333 C   0  0  0  0  0  0
  -21.9192   -4.6960   22.3391 C   0  0  0  0  0  0
  -22.7781  -13.5200   21.1863 C   0  0  0  0  0  0
  -22.1660   -4.2146   21.0970 F   0  0  0  0  0  0
  -21.5636   -3.4537   25.7729 F   0  0  0  0  0  0
  -29.9014  -13.8769   20.3610 N   0  0  0  0  0  0
  -26.2850  -12.9486   20.3199 N   0  0  0  0  0  0
  -25.9343  -11.6602   20.5707 N   0  0  0  0  0  0
  -22.0428  -12.8217   22.0433 N   0  0  0  0  0  0
  -25.4044  -15.1958   20.4109 N   0  0  0  0  0  0
  -31.6441  -15.2485   20.1309 O   0  0  0  0  0  0
  -21.6642   -6.8878   21.4238 O   0  0  0  0  0  0
  -22.3466  -14.5489   20.6680 O   0  0  0  0  0  0
  -24.6575  -31.8293   23.1740 C   0  0  0  0  0  0
  -25.9278  -32.4620   23.8198 C   0  0  1  0  0  0
  -27.2233  -26.9825   20.1770 C   0  0  0  0  0  0
  -25.5966  -33.8434   24.2105 N   0  0  0  0  0  0
  -23.4704  -30.4409   21.5232 C   0  0  2  0  0  0
  -24.9235  -28.8366   20.1134 C   0  0  0  0  0  0
  -22.7644  -29.4462   22.4809 C   0  0  0  0  0  0
  -18.0316  -28.1408   22.8470 C   0  0  0  0  0  0
  -24.1499  -36.7220   23.2645 C   0  0  0  0  0  0
  -26.0358  -30.6538   21.3958 C   0  0  0  0  0  0
  -26.1064  -29.2487   20.7401 C   0  0  0  0  0  0
  -27.2529  -28.3424   20.7449 C   0  0  0  0  0  0
  -26.0093  -26.7055   19.5099 C   0  0  0  0  0  0
  -24.8968  -27.5841   19.4795 C   0  0  0  0  0  0
  -23.7070  -29.7577   20.1487 C   0  0  0  0  0  0
  -25.4137  -36.2985   24.0299 C   0  0  1  0  0  0
  -20.5939  -28.3749   23.1207 C   0  0  2  0  0  0
  -20.6800  -26.9438   22.5409 C   0  0  0  0  0  0
  -19.5774  -26.6381   21.5218 C   0  0  0  0  0  0
  -18.1953  -26.7941   22.1622 C   0  0  0  0  0  0
  -19.1577  -28.8901   23.2826 C   0  0  0  0  0  0
  -18.9481  -30.1492   23.8854 C   0  0  0  0  0  0
  -17.6476  -30.6599   24.0557 C   0  0  0  0  0  0
  -25.9095  -34.9368   23.5023 C   0  0  0  0  0  0
  -16.5369  -29.9084   23.6347 C   0  0  0  0  0  0
  -16.7297  -28.6508   23.0357 C   0  0  0  0  0  0
  -26.4546  -31.6545   25.0706 C   0  0  0  0  0  0
  -25.3685  -31.3775   26.1369 C   0  0  0  0  0  0
  -27.0430  -30.2919   24.6397 C   0  0  0  0  0  0
  -27.6051  -32.4340   25.7502 C   0  0  0  0  0  0
  -27.5575  -37.1767   24.8458 C   0  0  0  0  0  0
  -21.4319  -29.3042   22.3561 N   0  0  0  0  0  0
  -26.4284  -37.3717   23.9404 N   0  0  0  0  0  0
  -24.7422  -30.9999   22.0853 N   0  0  0  0  0  0
  -23.4214  -28.8034   23.3034 O   0  0  0  0  0  0
  -28.2526  -25.9214   20.2369 O   0  0  0  0  0  0
  -26.5704  -34.8889   22.4616 O   0  0  0  0  0  0
  -23.5657  -32.1239   23.6863 O   0  0  0  0  0  0
  -29.0331  -20.2737   19.2438 C   0  0  0  0  0  0
  -29.6447  -18.9186   21.5391 C   0  0  0  0  0  0
  -29.1085  -21.2146   20.3548 C   0  0  0  0  0  0
  -29.2322  -18.7977   19.2701 C   0  0  0  0  0  0
  -29.4404  -20.3906   21.5153 C   0  0  0  0  0  0
  -29.5913  -17.9826   20.4269 C   0  0  0  0  0  0
  -29.0233  -18.0540   17.9642 C   0  0  0  0  0  0
  -29.6282  -21.1130   22.8380 C   0  0  0  0  0  0
  -29.1541  -22.9540   20.2777 C   0  0  0  0  0  0
  -28.0165  -24.3082   20.1884 C   0  0  0  0  0  0
  -29.5861  -16.3811   20.5307 N   0  0  0  0  0  0
  -31.4708  -12.9585   19.2027 H   0  0  0  0  0  0
  -30.5051  -11.8321   20.1060 H   0  0  0  0  0  0
  -29.9096  -11.7553   17.6589 H   0  0  0  0  0  0
  -29.5849  -13.4709   17.6665 H   0  0  0  0  0  0
  -28.0192  -11.2770   19.0484 H   0  0  0  0  0  0
  -27.4186  -12.3820   17.8385 H   0  0  0  0  0  0
  -27.5543  -14.2470   19.3596 H   0  0  0  0  0  0
  -28.8012  -12.4299   21.4763 H   0  0  0  0  0  0
  -28.3080  -14.0872   21.7280 H   0  0  0  0  0  0
  -25.2786   -9.5689   22.4748 H   0  0  0  0  0  0
  -24.0011   -7.4645   22.7492 H   0  0  0  0  0  0
  -21.0841   -8.8776   19.8969 H   0  0  0  0  0  0
  -22.3705  -10.9671   19.6167 H   0  0  0  0  0  0
  -21.2014   -7.6145   23.9706 H   0  0  0  0  0  0
  -21.1490   -6.0519   25.9072 H   0  0  0  0  0  0
  -22.0599   -2.7604   23.2824 H   0  0  0  0  0  0
  -22.4050  -11.9910   22.4882 H   0  0  0  0  0  0
  -21.1040  -13.1255   22.2604 H   0  0  0  0  0  0
  -24.6271  -15.8394   20.5149 H   0  0  0  0  0  0
  -26.2359  -15.6378   20.0433 H   0  0  0  0  0  0
  -26.7343  -32.5181   23.0918 H   0  0  0  0  0  0
  -25.0063  -33.9531   25.0218 H   0  0  0  0  0  0
  -22.7807  -31.2708   21.3556 H   0  0  0  0  0  0
  -23.3772  -35.9537   23.3274 H   0  0  0  0  0  0
  -24.3577  -36.8904   22.2065 H   0  0  0  0  0  0
  -23.7244  -37.6398   23.6720 H   0  0  0  0  0  0
  -26.2088  -31.4002   20.6189 H   0  0  0  0  0  0
  -26.8981  -30.7110   22.0483 H   0  0  0  0  0  0
  -28.1528  -28.6568   21.2549 H   0  0  0  0  0  0
  -25.8896  -25.7488   19.0234 H   0  0  0  0  0  0
  -23.9961  -27.2639   18.9737 H   0  0  0  0  0  0
  -23.8562  -30.5264   19.3904 H   0  0  0  0  0  0
  -22.8188  -29.2073   19.8336 H   0  0  0  0  0  0
  -25.1337  -36.1789   25.0789 H   0  0  0  0  0  0
  -21.0020  -28.3349   24.1332 H   0  0  0  0  0  0
  -20.5698  -26.2358   23.3641 H   0  0  0  0  0  0
  -21.6662  -26.7431   22.1205 H   0  0  0  0  0  0
  -19.6938  -25.6277   21.1283 H   0  0  0  0  0  0
  -19.6720  -27.3160   20.6724 H   0  0  0  0  0  0
  -17.4229  -26.6680   21.4023 H   0  0  0  0  0  0
  -18.0346  -26.0097   22.9031 H   0  0  0  0  0  0
  -19.7956  -30.7322   24.2204 H   0  0  0  0  0  0
  -17.5025  -31.6272   24.5162 H   0  0  0  0  0  0
  -15.5365  -30.2966   23.7699 H   0  0  0  0  0  0
  -15.8694  -28.0811   22.7090 H   0  0  0  0  0  0
  -24.5845  -30.7166   25.7654 H   0  0  0  0  0  0
  -24.8901  -32.2974   26.4738 H   0  0  0  0  0  0
  -25.7913  -30.8951   27.0189 H   0  0  0  0  0  0
  -26.3072  -29.6612   24.1394 H   0  0  0  0  0  0
  -27.3969  -29.7270   25.5031 H   0  0  0  0  0  0
  -27.9018  -30.4114   23.9790 H   0  0  0  0  0  0
  -27.2617  -33.3654   26.2015 H   0  0  0  0  0  0
  -28.3887  -32.6885   25.0354 H   0  0  0  0  0  0
  -28.0693  -31.8520   26.5474 H   0  0  0  0  0  0
  -28.2570  -38.0087   24.7517 H   0  0  0  0  0  0
  -28.1099  -36.2614   24.6271 H   0  0  0  0  0  0
  -27.2295  -37.1388   25.8863 H   0  0  0  0  0  0
  -20.9561  -29.8724   21.6690 H   0  0  0  0  0  0
  -26.0139  -38.2780   24.1413 H   0  0  0  0  0  0
  -28.8227  -20.7154   18.2798 H   0  0  0  0  0  0
  -29.8519  -18.4783   22.5040 H   0  0  0  0  0  0
  -28.8828  -18.7342   17.1234 H   0  0  0  0  0  0
  -28.1408  -17.4171   18.0336 H   0  0  0  0  0  0
  -29.8845  -17.4222   17.7456 H   0  0  0  0  0  0
  -29.5703  -20.4289   23.6856 H   0  0  0  0  0  0
  -28.8614  -21.8746   22.9803 H   0  0  0  0  0  0
  -30.6037  -21.5997   22.8653 H   0  0  0  0  0  0
  -29.8077  -23.1214   19.4213 H   0  0  0  0  0  0
  -29.7892  -23.2226   21.1203 H   0  0  0  0  0  0
  -27.2935  -24.1296   20.9842 H   0  0  0  0  0  0
  -27.4592  -24.1393   19.2672 H   0  0  0  0  0  0
  -28.6565  -16.0555   20.7475 H   0  0  0  0  0  0
  1 25  1  0  0  0
  1 30  2  0  0  0
  1 81  1  0  0  0
  2  3  1  0  0  0
  2 25  1  0  0  0
  2 82  1  0  0  0
  2 83  1  0  0  0
  3  4  1  0  0  0
  3 84  1  0  0  0
  3 85  1  0  0  0
  4  5  1  0  0  0
  4 86  1  0  0  0
  4 87  1  0  0  0
  5  6  1  0  0  0
  5 26  1  0  0  0
  5 88  1  0  0  0
  6 25  1  0  0  0
  6 89  1  0  0  0
  6 90  1  0  0  0
  7  8  2  0  0  0
  7 26  1  0  0  0
  7 29  1  0  0  0
  8  9  1  0  0  0
  8 22  1  0  0  0
  9 10  1  0  0  0
  9 27  2  0  0  0
 10 11  2  0  0  0
 10 15  1  0  0  0
 11 12  1  0  0  0
 11 91  1  0  0  0
 12 13  2  0  0  0
 12 92  1  0  0  0
 13 14  1  0  0  0
 13 31  1  0  0  0
 14 15  2  0  0  0
 14 93  1  0  0  0
 15 94  1  0  0  0
 16 17  2  0  0  0
 16 21  1  0  0  0
 16 31  1  0  0  0
 17 18  1  0  0  0
 17 95  1  0  0  0
 18 19  2  0  0  0
 18 96  1  0  0  0
 19 20  1  0  0  0
 19 24  1  0  0  0
 20 21  2  0  0  0
 20 97  1  0  0  0
 21 23  1  0  0  0
 22 28  1  0  0  0
 22 32  2  0  0  0
 26 27  1  0  0  0
 28 98  1  0  0  0
 28 99  1  0  0  0
 29100  1  0  0  0
 29101  1  0  0  0
 33 34  1  0  0  0
 33 66  1  0  0  0
 33 70  2  0  0  0
 34 36  1  0  0  0
 34 59  1  0  0  0
 34102  1  0  0  0
 35 44  2  0  0  0
 35 45  1  0  0  0
 35 68  1  0  0  0
 36 56  1  0  0  0
 36103  1  0  0  0
 37 39  1  0  0  0
 37 47  1  0  0  0
 37 66  1  0  0  0
 37104  1  0  0  0
 38 43  2  0  0  0
 38 46  1  0  0  0
 38 47  1  0  0  0
 39 64  1  0  0  0
 39 67  2  0  0  0
 40 52  1  0  0  0
 40 53  2  0  0  0
 40 58  1  0  0  0
 41105  1  0  0  0
 41106  1  0  0  0
 41107  1  0  0  0
 41 48  1  0  0  0
 42 43  1  0  0  0
 42 66  1  0  0  0
 42108  1  0  0  0
 42109  1  0  0  0
 43 44  1  0  0  0
 44110  1  0  0  0
 45 46  2  0  0  0
 45111  1  0  0  0
 46112  1  0  0  0
 47113  1  0  0  0
 47114  1  0  0  0
 48 56  1  0  0  0
 48 65  1  0  0  0
 48115  1  0  0  0
 49 50  1  0  0  0
 49 53  1  0  0  0
 49 64  1  0  0  0
 49116  1  0  0  0
 50 51  1  0  0  0
 50117  1  0  0  0
 50118  1  0  0  0
 51 52  1  0  0  0
 51119  1  0  0  0
 51120  1  0  0  0
 52121  1  0  0  0
 52122  1  0  0  0
 53 54  1  0  0  0
 54 55  2  0  0  0
 54123  1  0  0  0
 55 57  1  0  0  0
 55124  1  0  0  0
 56 69  2  0  0  0
 57 58  2  0  0  0
 57125  1  0  0  0
 58126  1  0  0  0
 59 60  1  0  0  0
 59 61  1  0  0  0
 59 62  1  0  0  0
 60127  1  0  0  0
 60128  1  0  0  0
 60129  1  0  0  0
 61130  1  0  0  0
 61131  1  0  0  0
 61132  1  0  0  0
 62133  1  0  0  0
 62134  1  0  0  0
 62135  1  0  0  0
 63 65  1  0  0  0
 63136  1  0  0  0
 63137  1  0  0  0
 63138  1  0  0  0
 64139  1  0  0  0
 65140  1  0  0  0
 68 80  1  0  0  0
 71 73  2  0  0  0
 71 74  1  0  0  0
 71141  1  0  0  0
 72 75  2  0  0  0
 72 76  1  0  0  0
 72142  1  0  0  0
 73 75  1  0  0  0
 73 79  1  0  0  0
 74 76  2  0  0  0
 74 77  1  0  0  0
 75 78  1  0  0  0
 76 81  1  0  0  0
 77143  1  0  0  0
 77144  1  0  0  0
 77145  1  0  0  0
 78146  1  0  0  0
 78147  1  0  0  0
 78148  1  0  0  0
 79 80  1  0  0  0
 79149  1  0  0  0
 79150  1  0  0  0
 80151  1  0  0  0
 80152  1  0  0  0
 81153  1  0  0  0
M  ISO  4   1 100  68 101  80 101  81 100
M  END
> <chiral flag>
0

> <version>
0

> <s_m_source_file>
/data/baiqing/PycharmProjects/Reinvent-master-3.2/result/LINK_invent/BTK/process_docking_weight1_custom_sum_contain_oxygen_bond_distance_aromatic_linkinvent_7_9_3/rearranged_h_0029.sdf

> <i_m_source_file_index>
65

> <r_mmod_Potential_Energy-OPLS-2005>
1022.21630859375

> <r_mmod_Stretch_Energy-OPLS-2005>
453.116027832031

> <r_mmod_Bend_Energy-OPLS-2005>
393.631103515625

> <r_mmod_Torsional_Energy-OPLS-2005>
249.855331420898

> <r_mmod_Improper_Torsional_Energy-OPLS-2005>
8.14629745483398

> <r_mmod_Van_der_Waal_Energy-OPLS-2005>
126.317161560059

> <r_mmod_Electrostatic_Energy-OPLS-2005>
-379.470703125

> <r_mmod_Solvation_Energy-OPLS-2005>
-209.341781616211

> <b_mmod_Minimization_Converged-OPLS-2005>
0

> <r_mmod_RMS_Derivative-OPLS-2005>
1.38970375061035

$$$$
65
                    3D
 Structure written by MMmdl.
149157  0  0  1  0            999 V2000
  -30.5693  -14.8692   20.4110 C   0  0  0  0  0  0
  -30.4306  -12.5366   19.4717 C   0  0  0  0  0  0
  -29.5024  -12.4993   18.2368 C   0  0  0  0  0  0
  -28.0375  -12.3005   18.6656 C   0  0  0  0  0  0
  -27.6278  -13.2364   19.8334 C   0  0  2  0  0  0
  -28.6737  -13.2420   20.9676 C   0  0  0  0  0  0
  -25.2471  -13.8204   20.5717 C   0  0  0  0  0  0
  -24.1779  -13.0439   20.9244 C   0  0  0  0  0  0
  -24.6379  -11.6920   20.8778 C   0  0  0  0  0  0
  -23.9066  -10.4290   21.0433 C   0  0  0  0  0  0
  -24.3622   -9.4203   21.9203 C   0  0  0  0  0  0
  -23.6303   -8.2233   22.0750 C   0  0  0  0  0  0
  -22.4285   -8.0279   21.3538 C   0  0  0  0  0  0
  -21.9932   -9.0250   20.4645 C   0  0  0  0  0  0
  -22.7254  -10.2130   20.3067 C   0  0  0  0  0  0
  -21.6853   -6.0747   22.5278 C   0  0  0  0  0  0
  -21.4003   -6.5653   23.8215 C   0  0  0  0  0  0
  -21.3646   -5.6806   24.9177 C   0  0  0  0  0  0
  -21.6041   -4.3070   24.7232 C   0  0  0  0  0  0
  -21.8820   -3.8157   23.4354 C   0  0  0  0  0  0
  -21.9194   -4.6969   22.3409 C   0  0  0  0  0  0
  -22.7803  -13.5215   21.1895 C   0  0  0  0  0  0
  -22.1666   -4.2160   21.0987 F   0  0  0  0  0  0
  -21.5623   -3.4549   25.7745 F   0  0  0  0  0  0
  -29.9532  -13.6276   20.3642 N   0  0  0  0  0  0
  -26.2878  -12.9408   20.3249 N   0  0  0  0  0  0
  -25.9302  -11.6547   20.5764 N   0  0  0  0  0  0
  -22.0449  -12.8177   22.0433 N   0  0  0  0  0  0
  -25.4187  -15.1928   20.4115 N   0  0  0  0  0  0
  -31.7741  -14.9233   20.1481 O   0  0  0  0  0  0
  -21.6641   -6.8875   21.4238 O   0  0  0  0  0  0
  -22.3483  -14.5524   20.6755 O   0  0  0  0  0  0
  -24.6407  -31.8476   23.1895 C   0  0  0  0  0  0
  -25.9198  -32.4720   23.8264 C   0  0  1  0  0  0
  -27.2104  -27.1658   20.1426 C   0  0  0  0  0  0
  -25.5961  -33.8520   24.2209 N   0  0  0  0  0  0
  -23.4378  -30.4684   21.5367 C   0  0  2  0  0  0
  -24.8840  -28.8983   20.1076 C   0  0  0  0  0  0
  -22.7520  -29.4583   22.4889 C   0  0  0  0  0  0
  -18.0287  -28.1391   22.8490 C   0  0  0  0  0  0
  -24.1473  -36.7216   23.2645 C   0  0  0  0  0  0
  -25.9885  -30.7320   21.3769 C   0  0  0  0  0  0
  -26.0598  -29.3429   20.7250 C   0  0  0  0  0  0
  -27.2210  -28.4893   20.7324 C   0  0  0  0  0  0
  -26.0157  -26.8221   19.4713 C   0  0  0  0  0  0
  -24.8745  -27.6509   19.4670 C   0  0  0  0  0  0
  -23.6584  -29.7960   20.1554 C   0  0  0  0  0  0
  -25.4106  -36.3032   24.0328 C   0  0  1  0  0  0
  -20.5899  -28.3724   23.1243 C   0  0  2  0  0  0
  -20.6779  -26.9433   22.5401 C   0  0  0  0  0  0
  -19.5759  -26.6394   21.5199 C   0  0  0  0  0  0
  -18.1931  -26.7940   22.1601 C   0  0  0  0  0  0
  -19.1545  -28.8872   23.2869 C   0  0  0  0  0  0
  -18.9475  -30.1461   23.8910 C   0  0  0  0  0  0
  -17.6483  -30.6613   24.0566 C   0  0  0  0  0  0
  -25.9070  -34.9422   23.5070 C   0  0  0  0  0  0
  -16.5373  -29.9105   23.6350 C   0  0  0  0  0  0
  -16.7275  -28.6510   23.0392 C   0  0  0  0  0  0
  -26.4559  -31.6565   25.0671 C   0  0  0  0  0  0
  -25.3761  -31.3673   26.1370 C   0  0  0  0  0  0
  -27.0451  -30.3003   24.6143 C   0  0  0  0  0  0
  -27.6114  -32.4317   25.7434 C   0  0  0  0  0  0
  -27.5561  -37.1751   24.8464 C   0  0  0  0  0  0
  -21.4223  -29.3070   22.3630 N   0  0  0  0  0  0
  -26.4238  -37.3775   23.9457 N   0  0  0  0  0  0
  -24.7091  -31.0347   22.0915 N   0  0  0  0  0  0
  -23.4180  -28.8138   23.3033 O   0  0  0  0  0  0
  -28.2708  -26.2048   20.2369 O   0  0  0  0  0  0
  -26.5652  -34.8924   22.4644 O   0  0  0  0  0  0
  -23.5535  -32.1331   23.7149 O   0  0  0  0  0  0
  -29.3130  -21.1211   21.6980 C   0  0  0  0  0  0
  -29.6017  -19.7053   21.6065 C   0  0  0  0  0  0
  -28.9673  -21.9800   20.5952 C   0  0  0  0  0  0
  -29.5984  -18.9733   20.3820 C   0  0  0  0  0  0
  -28.8933  -21.2320   19.3743 C   0  0  0  0  0  0
  -29.2011  -19.8088   19.2766 C   0  0  0  0  0  0
  -28.8413  -23.5743   20.8149 C   0  0  0  0  0  0
  -30.3105  -17.5057   20.1995 C   0  0  0  0  0  0
  -28.0921  -24.7018   19.8989 C   0  0  0  0  0  0
  -29.8179  -16.0596   20.5140 N   0  0  0  0  0  0
  -29.3481  -24.0327   21.8449 O   0  0  0  0  0  0
  -28.5760  -21.8965   18.2370 F   0  0  0  0  0  0
  -29.1725  -19.2457   18.0455 F   0  0  0  0  0  0
  -31.4624  -12.6863   19.1471 H   0  0  0  0  0  0
  -30.4201  -11.5784   19.9937 H   0  0  0  0  0  0
  -29.8036  -11.6952   17.5640 H   0  0  0  0  0  0
  -29.5995  -13.4247   17.6668 H   0  0  0  0  0  0
  -27.9295  -11.2603   18.9745 H   0  0  0  0  0  0
  -27.3679  -12.4306   17.8149 H   0  0  0  0  0  0
  -27.5979  -14.2406   19.4089 H   0  0  0  0  0  0
  -28.7477  -12.2612   21.4397 H   0  0  0  0  0  0
  -28.3895  -13.9471   21.7510 H   0  0  0  0  0  0
  -25.2763   -9.5691   22.4787 H   0  0  0  0  0  0
  -24.0020   -7.4624   22.7467 H   0  0  0  0  0  0
  -21.0862   -8.8774   19.8941 H   0  0  0  0  0  0
  -22.3725  -10.9676   19.6176 H   0  0  0  0  0  0
  -21.1983   -7.6159   23.9722 H   0  0  0  0  0  0
  -21.1463   -6.0537   25.9080 H   0  0  0  0  0  0
  -22.0605   -2.7625   23.2861 H   0  0  0  0  0  0
  -22.4061  -11.9828   22.4788 H   0  0  0  0  0  0
  -21.1059  -13.1178   22.2615 H   0  0  0  0  0  0
  -24.6522  -15.8501   20.5133 H   0  0  0  0  0  0
  -26.2642  -15.6265   20.0623 H   0  0  0  0  0  0
  -26.7238  -32.5360   23.0970 H   0  0  0  0  0  0
  -25.0147  -33.9625   25.0390 H   0  0  0  0  0  0
  -22.7404  -31.2944   21.3833 H   0  0  0  0  0  0
  -23.3789  -35.9487   23.3251 H   0  0  0  0  0  0
  -24.3569  -36.8897   22.2070 H   0  0  0  0  0  0
  -23.7141  -37.6355   23.6726 H   0  0  0  0  0  0
  -26.1230  -31.4836   20.5972 H   0  0  0  0  0  0
  -26.8671  -30.7954   22.0062 H   0  0  0  0  0  0
  -28.1140  -28.8218   21.2419 H   0  0  0  0  0  0
  -25.9270  -25.8804   18.9523 H   0  0  0  0  0  0
  -23.9794  -27.3082   18.9662 H   0  0  0  0  0  0
  -23.7852  -30.5693   19.3973 H   0  0  0  0  0  0
  -22.7720  -29.2370   19.8520 H   0  0  0  0  0  0
  -25.1274  -36.1839   25.0811 H   0  0  0  0  0  0
  -20.9982  -28.3313   24.1363 H   0  0  0  0  0  0
  -20.5665  -26.2344   23.3620 H   0  0  0  0  0  0
  -21.6643  -26.7445   22.1199 H   0  0  0  0  0  0
  -19.6931  -25.6307   21.1223 H   0  0  0  0  0  0
  -19.6683  -27.3205   20.6735 H   0  0  0  0  0  0
  -17.4196  -26.6730   21.3995 H   0  0  0  0  0  0
  -18.0309  -26.0053   22.8963 H   0  0  0  0  0  0
  -19.7963  -30.7258   24.2294 H   0  0  0  0  0  0
  -17.5053  -31.6300   24.5155 H   0  0  0  0  0  0
  -15.5381  -30.3024   23.7680 H   0  0  0  0  0  0
  -15.8662  -28.0813   22.7157 H   0  0  0  0  0  0
  -24.6017  -30.6931   25.7686 H   0  0  0  0  0  0
  -24.8844  -32.2807   26.4744 H   0  0  0  0  0  0
  -25.8080  -30.8913   27.0181 H   0  0  0  0  0  0
  -26.3045  -29.6692   24.1220 H   0  0  0  0  0  0
  -27.4244  -29.7317   25.4639 H   0  0  0  0  0  0
  -27.8856  -30.4323   23.9322 H   0  0  0  0  0  0
  -27.2779  -33.3713   26.1854 H   0  0  0  0  0  0
  -28.4008  -32.6712   25.0296 H   0  0  0  0  0  0
  -28.0680  -31.8516   26.5459 H   0  0  0  0  0  0
  -28.2530  -38.0112   24.7630 H   0  0  0  0  0  0
  -28.1114  -36.2648   24.6138 H   0  0  0  0  0  0
  -27.2297  -37.1175   25.8868 H   0  0  0  0  0  0
  -20.9431  -29.8780   21.6807 H   0  0  0  0  0  0
  -26.0090  -38.2809   24.1592 H   0  0  0  0  0  0
  -29.4037  -21.5758   22.6759 H   0  0  0  0  0  0
  -29.9124  -19.1879   22.5051 H   0  0  0  0  0  0
  -31.2515  -17.5992   20.7432 H   0  0  0  0  0  0
  -30.6184  -17.4710   19.1537 H   0  0  0  0  0  0
  -27.0365  -24.4404   19.9416 H   0  0  0  0  0  0
  -28.4034  -24.5557   18.8637 H   0  0  0  0  0  0
  -28.8256  -15.9463   20.6574 H   0  0  0  0  0  0
  1 25  1  0  0  0
  1 30  2  0  0  0
  1 80  1  0  0  0
  2  3  1  0  0  0
  2 25  1  0  0  0
  2 84  1  0  0  0
  2 85  1  0  0  0
  3  4  1  0  0  0
  3 86  1  0  0  0
  3 87  1  0  0  0
  4  5  1  0  0  0
  4 88  1  0  0  0
  4 89  1  0  0  0
  5  6  1  0  0  0
  5 26  1  0  0  0
  5 90  1  0  0  0
  6 25  1  0  0  0
  6 91  1  0  0  0
  6 92  1  0  0  0
  7  8  2  0  0  0
  7 26  1  0  0  0
  7 29  1  0  0  0
  8  9  1  0  0  0
  8 22  1  0  0  0
  9 10  1  0  0  0
  9 27  2  0  0  0
 10 11  2  0  0  0
 10 15  1  0  0  0
 11 12  1  0  0  0
 11 93  1  0  0  0
 12 13  2  0  0  0
 12 94  1  0  0  0
 13 14  1  0  0  0
 13 31  1  0  0  0
 14 15  2  0  0  0
 14 95  1  0  0  0
 15 96  1  0  0  0
 16 17  2  0  0  0
 16 21  1  0  0  0
 16 31  1  0  0  0
 17 18  1  0  0  0
 17 97  1  0  0  0
 18 19  2  0  0  0
 18 98  1  0  0  0
 19 20  1  0  0  0
 19 24  1  0  0  0
 20 21  2  0  0  0
 20 99  1  0  0  0
 21 23  1  0  0  0
 22 28  1  0  0  0
 22 32  2  0  0  0
 26 27  1  0  0  0
 28100  1  0  0  0
 28101  1  0  0  0
 29102  1  0  0  0
 29103  1  0  0  0
 33 34  1  0  0  0
 33 66  1  0  0  0
 33 70  2  0  0  0
 34 36  1  0  0  0
 34 59  1  0  0  0
 34104  1  0  0  0
 35 44  2  0  0  0
 35 45  1  0  0  0
 35 68  1  0  0  0
 36 56  1  0  0  0
 36105  1  0  0  0
 37 39  1  0  0  0
 37 47  1  0  0  0
 37 66  1  0  0  0
 37106  1  0  0  0
 38 43  2  0  0  0
 38 46  1  0  0  0
 38 47  1  0  0  0
 39 64  1  0  0  0
 39 67  2  0  0  0
 40 52  1  0  0  0
 40 53  2  0  0  0
 40 58  1  0  0  0
 41107  1  0  0  0
 41108  1  0  0  0
 41109  1  0  0  0
 41 48  1  0  0  0
 42 43  1  0  0  0
 42 66  1  0  0  0
 42110  1  0  0  0
 42111  1  0  0  0
 43 44  1  0  0  0
 44112  1  0  0  0
 45 46  2  0  0  0
 45113  1  0  0  0
 46114  1  0  0  0
 47115  1  0  0  0
 47116  1  0  0  0
 48 56  1  0  0  0
 48 65  1  0  0  0
 48117  1  0  0  0
 49 50  1  0  0  0
 49 53  1  0  0  0
 49 64  1  0  0  0
 49118  1  0  0  0
 50 51  1  0  0  0
 50119  1  0  0  0
 50120  1  0  0  0
 51 52  1  0  0  0
 51121  1  0  0  0
 51122  1  0  0  0
 52123  1  0  0  0
 52124  1  0  0  0
 53 54  1  0  0  0
 54 55  2  0  0  0
 54125  1  0  0  0
 55 57  1  0  0  0
 55126  1  0  0  0
 56 69  2  0  0  0
 57 58  2  0  0  0
 57127  1  0  0  0
 58128  1  0  0  0
 59 60  1  0  0  0
 59 61  1  0  0  0
 59 62  1  0  0  0
 60129  1  0  0  0
 60130  1  0  0  0
 60131  1  0  0  0
 61132  1  0  0  0
 61133  1  0  0  0
 61134  1  0  0  0
 62135  1  0  0  0
 62136  1  0  0  0
 62137  1  0  0  0
 63 65  1  0  0  0
 63138  1  0  0  0
 63139  1  0  0  0
 63140  1  0  0  0
 64141  1  0  0  0
 65142  1  0  0  0
 68 79  1  0  0  0
 71 72  2  0  0  0
 71 73  1  0  0  0
 71143  1  0  0  0
 72 74  1  0  0  0
 72144  1  0  0  0
 73 75  2  0  0  0
 73 77  1  0  0  0
 74 76  2  0  0  0
 74 78  1  0  0  0
 75 76  1  0  0  0
 75 82  1  0  0  0
 76 83  1  0  0  0
 77 79  1  0  0  0
 77 81  2  0  0  0
 78 80  1  0  0  0
 78145  1  0  0  0
 78146  1  0  0  0
 79147  1  0  0  0
 79148  1  0  0  0
 80149  1  0  0  0
M  ISO  4   1 100  68 101  79 101  80 100
M  END
> <chiral flag>
0

> <version>
0

> <s_m_source_file>
/data/baiqing/PycharmProjects/Reinvent-master-3.2/result/LINK_invent/BTK/process_docking_weight1_custom_sum_contain_oxygen_bond_distance_aromatic_linkinvent_7_9_3/rearranged_h_0029.sdf

> <i_m_source_file_index>
66

> <r_mmod_Potential_Energy-OPLS-2005>
396.835479736328

> <r_mmod_Stretch_Energy-OPLS-2005>
198.595352172852

> <r_mmod_Bend_Energy-OPLS-2005>
233.858871459961

> <r_mmod_Torsional_Energy-OPLS-2005>
241.218566894531

> <r_mmod_Improper_Torsional_Energy-OPLS-2005>
8.78593921661377

> <r_mmod_Van_der_Waal_Energy-OPLS-2005>
135.592300415039

> <r_mmod_Electrostatic_Energy-OPLS-2005>
-356.847595214844

> <r_mmod_Solvation_Energy-OPLS-2005>
-218.865158081055

> <b_mmod_Minimization_Converged-OPLS-2005>
0

> <r_mmod_RMS_Derivative-OPLS-2005>
2.61580848693848

$$$$
66
                    3D
 Structure written by MMmdl.
165173  0  0  1  0            999 V2000
  -30.7365  -14.3862   20.6440 C   0  0  0  0  0  0
  -30.4189  -12.2737   19.4121 C   0  0  0  0  0  0
  -29.4950  -12.5016   18.1996 C   0  0  0  0  0  0
  -28.0133  -12.3738   18.6076 C   0  0  0  0  0  0
  -27.6653  -13.2001   19.8741 C   0  0  2  0  0  0
  -28.6984  -12.9456   20.9911 C   0  0  0  0  0  0
  -25.2607  -13.8161   20.5636 C   0  0  0  0  0  0
  -24.1826  -13.0410   20.9141 C   0  0  0  0  0  0
  -24.6384  -11.6893   20.8640 C   0  0  0  0  0  0
  -23.9023  -10.4290   21.0329 C   0  0  0  0  0  0
  -24.3588   -9.4206   21.9106 C   0  0  0  0  0  0
  -23.6285   -8.2226   22.0708 C   0  0  0  0  0  0
  -22.4253   -8.0264   21.3536 C   0  0  0  0  0  0
  -21.9872   -9.0209   20.4620 C   0  0  0  0  0  0
  -22.7178  -10.2099   20.3016 C   0  0  0  0  0  0
  -21.6888   -6.0703   22.5293 C   0  0  0  0  0  0
  -21.4005   -6.5601   23.8219 C   0  0  0  0  0  0
  -21.3673   -5.6750   24.9187 C   0  0  0  0  0  0
  -21.6071   -4.3032   24.7246 C   0  0  0  0  0  0
  -21.8813   -3.8127   23.4368 C   0  0  0  0  0  0
  -21.9211   -4.6921   22.3424 C   0  0  0  0  0  0
  -22.7844  -13.5178   21.1891 C   0  0  0  0  0  0
  -22.1670   -4.2100   21.0991 F   0  0  0  0  0  0
  -21.5667   -3.4520   25.7776 F   0  0  0  0  0  0
  -30.0389  -13.2384   20.4556 N   0  0  0  0  0  0
  -26.3024  -12.9320   20.3321 N   0  0  0  0  0  0
  -25.9306  -11.6482   20.5631 N   0  0  0  0  0  0
  -22.0583  -12.8136   22.0493 N   0  0  0  0  0  0
  -25.4313  -15.1857   20.4099 N   0  0  0  0  0  0
  -31.8046  -14.6288   20.0713 O   0  0  0  0  0  0
  -21.6673   -6.8824   21.4237 O   0  0  0  0  0  0
  -22.3451  -14.5457   20.6787 O   0  0  0  0  0  0
  -24.6067  -31.8669   23.2112 C   0  0  0  0  0  0
  -25.8979  -32.4816   23.8367 C   0  0  1  0  0  0
  -27.2610  -27.4480   20.1057 C   0  0  0  0  0  0
  -25.5933  -33.8623   24.2339 N   0  0  0  0  0  0
  -23.3919  -30.4823   21.5523 C   0  0  2  0  0  0
  -24.8423  -28.9228   20.1348 C   0  0  0  0  0  0
  -22.7363  -29.4615   22.5082 C   0  0  0  0  0  0
  -18.0275  -28.1403   22.8545 C   0  0  0  0  0  0
  -24.1496  -36.7307   23.2636 C   0  0  0  0  0  0
  -25.9157  -30.8324   21.3525 C   0  0  0  0  0  0
  -26.0012  -29.4600   20.7138 C   0  0  0  0  0  0
  -27.2054  -28.7313   20.6902 C   0  0  0  0  0  0
  -26.0829  -26.9077   19.5382 C   0  0  0  0  0  0
  -24.8748  -27.6407   19.5573 C   0  0  0  0  0  0
  -23.6024  -29.7943   20.1736 C   0  0  0  0  0  0
  -25.4115  -36.3149   24.0361 C   0  0  1  0  0  0
  -20.5850  -28.3683   23.1435 C   0  0  2  0  0  0
  -20.6789  -26.9441   22.5499 C   0  0  0  0  0  0
  -19.5766  -26.6418   21.5279 C   0  0  0  0  0  0
  -18.1922  -26.7979   22.1638 C   0  0  0  0  0  0
  -19.1509  -28.8865   23.2970 C   0  0  0  0  0  0
  -18.9418  -30.1484   23.8980 C   0  0  0  0  0  0
  -17.6429  -30.6644   24.0576 C   0  0  0  0  0  0
  -25.9035  -34.9493   23.5126 C   0  0  0  0  0  0
  -16.5331  -29.9134   23.6352 C   0  0  0  0  0  0
  -16.7246  -28.6541   23.0387 C   0  0  0  0  0  0
  -26.4407  -31.6617   25.0705 C   0  0  0  0  0  0
  -25.3681  -31.3735   26.1489 C   0  0  0  0  0  0
  -27.0235  -30.3095   24.6067 C   0  0  0  0  0  0
  -27.6102  -32.4247   25.7398 C   0  0  0  0  0  0
  -27.5617  -37.1783   24.8443 C   0  0  0  0  0  0
  -21.4096  -29.3007   22.3827 N   0  0  0  0  0  0
  -26.4290  -37.3837   23.9449 N   0  0  0  0  0  0
  -24.6570  -31.0746   22.1019 N   0  0  0  0  0  0
  -23.4153  -28.8190   23.3130 O   0  0  0  0  0  0
  -28.4778  -26.8027   20.0858 O   0  0  0  0  0  0
  -26.5576  -34.8921   22.4683 O   0  0  0  0  0  0
  -23.5272  -32.1440   23.7524 O   0  0  0  0  0  0
  -30.4529  -22.7586   19.5468 C   0  0  0  0  0  0
  -28.2611  -22.2748   18.5850 C   0  0  0  0  0  0
  -29.2093  -23.2151   19.0393 C   0  0  0  0  0  0
  -30.7687  -21.3786   19.5875 C   0  0  0  0  0  0
  -28.5533  -20.8970   18.6264 C   0  0  0  0  0  0
  -29.8034  -20.4543   19.1114 C   0  0  0  0  0  0
  -28.9273  -24.7075   18.9133 C   0  0  0  0  0  0
  -32.2050  -20.9187   19.9096 C   0  0  0  0  0  0
  -31.6313  -17.0286   22.5610 C   0  0  0  0  0  0
  -32.5218  -18.2356   22.1669 C   0  0  0  0  0  0
  -30.5578  -16.7015   21.5043 C   0  0  0  0  0  0
  -31.8192  -19.6260   22.1089 C   0  0  0  0  0  0
  -28.5246  -25.3839   20.2426 C   0  0  0  0  0  0
  -30.1545  -15.2984   21.4394 N   0  0  0  0  0  0
  -32.5815  -20.6452   21.3284 N   0  3  0  0  0  0
  -27.3956  -19.7654   18.0201 Cl  0  0  0  0  0  0
  -30.2030  -18.7839   18.9810 Cl  0  0  0  0  0  0
  -31.4624  -12.3649   19.1059 H   0  0  0  0  0  0
  -30.3105  -11.2507   19.7869 H   0  0  0  0  0  0
  -29.7285  -11.7888   17.4065 H   0  0  0  0  0  0
  -29.6701  -13.4917   17.7812 H   0  0  0  0  0  0
  -27.8135  -11.3156   18.7814 H   0  0  0  0  0  0
  -27.3689  -12.6738   17.7803 H   0  0  0  0  0  0
  -27.7219  -14.2519   19.5923 H   0  0  0  0  0  0
  -28.6541  -11.9013   21.3030 H   0  0  0  0  0  0
  -28.4502  -13.5218   21.8806 H   0  0  0  0  0  0
  -25.2758   -9.5719   22.4595 H   0  0  0  0  0  0
  -24.0096   -7.4608   22.7373 H   0  0  0  0  0  0
  -21.0822   -8.8626   19.8899 H   0  0  0  0  0  0
  -22.3590  -10.9571   19.6084 H   0  0  0  0  0  0
  -21.1956   -7.6109   23.9688 H   0  0  0  0  0  0
  -21.1526   -6.0509   25.9071 H   0  0  0  0  0  0
  -22.0605   -2.7587   23.2900 H   0  0  0  0  0  0
  -22.4355  -11.9832   22.4819 H   0  0  0  0  0  0
  -21.1139  -13.1023   22.2729 H   0  0  0  0  0  0
  -24.6701  -15.8425   20.5354 H   0  0  0  0  0  0
  -26.2953  -15.6338   20.1285 H   0  0  0  0  0  0
  -26.7019  -32.5509   23.1089 H   0  0  0  0  0  0
  -25.0223  -33.9777   25.0583 H   0  0  0  0  0  0
  -22.6775  -31.2938   21.3988 H   0  0  0  0  0  0
  -23.3761  -35.9623   23.3345 H   0  0  0  0  0  0
  -24.3601  -36.8868   22.2038 H   0  0  0  0  0  0
  -23.7194  -37.6521   23.6580 H   0  0  0  0  0  0
  -26.0006  -31.5814   20.5659 H   0  0  0  0  0  0
  -26.8114  -30.9062   21.9550 H   0  0  0  0  0  0
  -28.1054  -29.1519   21.1153 H   0  0  0  0  0  0
  -26.0809  -25.9321   19.0776 H   0  0  0  0  0  0
  -23.9834  -27.1919   19.1395 H   0  0  0  0  0  0
  -23.7227  -30.5615   19.4104 H   0  0  0  0  0  0
  -22.7261  -29.2171   19.8670 H   0  0  0  0  0  0
  -25.1231  -36.2037   25.0838 H   0  0  0  0  0  0
  -20.9861  -28.3241   24.1561 H   0  0  0  0  0  0
  -20.5872  -26.2203   23.3620 H   0  0  0  0  0  0
  -21.6649  -26.7631   22.1159 H   0  0  0  0  0  0
  -19.6982  -25.6327   21.1286 H   0  0  0  0  0  0
  -19.6766  -27.3256   20.6847 H   0  0  0  0  0  0
  -17.4220  -26.6790   21.3988 H   0  0  0  0  0  0
  -18.0291  -26.0067   22.8978 H   0  0  0  0  0  0
  -19.7896  -30.7282   24.2359 H   0  0  0  0  0  0
  -17.4992  -31.6322   24.5141 H   0  0  0  0  0  0
  -15.5353  -30.3036   23.7684 H   0  0  0  0  0  0
  -15.8621  -28.0872   22.7104 H   0  0  0  0  0  0
  -24.5958  -30.6923   25.7902 H   0  0  0  0  0  0
  -24.8655  -32.2826   26.4816 H   0  0  0  0  0  0
  -25.8016  -30.9087   27.0347 H   0  0  0  0  0  0
  -26.2796  -29.6866   24.1099 H   0  0  0  0  0  0
  -27.4044  -29.7344   25.4507 H   0  0  0  0  0  0
  -27.8581  -30.4467   23.9185 H   0  0  0  0  0  0
  -27.2952  -33.3598   26.2016 H   0  0  0  0  0  0
  -28.3881  -32.6687   25.0155 H   0  0  0  0  0  0
  -28.0780  -31.8275   26.5232 H   0  0  0  0  0  0
  -28.2564  -38.0161   24.7655 H   0  0  0  0  0  0
  -28.1172  -36.2705   24.6032 H   0  0  0  0  0  0
  -27.2369  -37.1207   25.8849 H   0  0  0  0  0  0
  -20.9289  -29.8585   21.6910 H   0  0  0  0  0  0
  -26.0202  -38.2898   24.1557 H   0  0  0  0  0  0
  -31.2074  -23.4810   19.8279 H   0  0  0  0  0  0
  -27.3215  -22.5976   18.1559 H   0  0  0  0  0  0
  -28.1525  -24.8592   18.1647 H   0  0  0  0  0  0
  -29.8142  -25.1889   18.4994 H   0  0  0  0  0  0
  -32.8763  -21.7000   19.5491 H   0  0  0  0  0  0
  -32.4716  -20.0657   19.2915 H   0  0  0  0  0  0
  -31.1500  -17.1992   23.5250 H   0  0  0  0  0  0
  -32.2790  -16.1615   22.6999 H   0  0  0  0  0  0
  -32.9803  -18.0021   21.2040 H   0  0  0  0  0  0
  -33.3597  -18.2825   22.8713 H   0  0  0  0  0  0
  -30.9652  -16.9489   20.5315 H   0  0  0  0  0  0
  -29.6760  -17.3286   21.6575 H   0  0  0  0  0  0
  -31.7565  -20.0013   23.1336 H   0  0  0  0  0  0
  -30.7861  -19.5708   21.7674 H   0  0  0  0  0  0
  -29.2755  -25.1934   21.0116 H   0  0  0  0  0  0
  -27.5966  -24.9679   20.6351 H   0  0  0  0  0  0
  -29.2677  -15.0456   21.8534 H   0  0  0  0  0  0
  -32.5758  -21.5203   21.8296 H   0  0  0  0  0  0
  -33.5468  -20.3418   21.3063 H   0  0  0  0  0  0
  1 25  1  0  0  0
  1 30  2  0  0  0
  1 84  1  0  0  0
  2  3  1  0  0  0
  2 25  1  0  0  0
  2 88  1  0  0  0
  2 89  1  0  0  0
  3  4  1  0  0  0
  3 90  1  0  0  0
  3 91  1  0  0  0
  4  5  1  0  0  0
  4 92  1  0  0  0
  4 93  1  0  0  0
  5  6  1  0  0  0
  5 26  1  0  0  0
  5 94  1  0  0  0
  6 25  1  0  0  0
  6 95  1  0  0  0
  6 96  1  0  0  0
  7  8  2  0  0  0
  7 26  1  0  0  0
  7 29  1  0  0  0
  8  9  1  0  0  0
  8 22  1  0  0  0
  9 10  1  0  0  0
  9 27  2  0  0  0
 10 11  2  0  0  0
 10 15  1  0  0  0
 11 12  1  0  0  0
 11 97  1  0  0  0
 12 13  2  0  0  0
 12 98  1  0  0  0
 13 14  1  0  0  0
 13 31  1  0  0  0
 14 15  2  0  0  0
 14 99  1  0  0  0
 15100  1  0  0  0
 16 17  2  0  0  0
 16 21  1  0  0  0
 16 31  1  0  0  0
 17 18  1  0  0  0
 17101  1  0  0  0
 18 19  2  0  0  0
 18102  1  0  0  0
 19 20  1  0  0  0
 19 24  1  0  0  0
 20 21  2  0  0  0
 20103  1  0  0  0
 21 23  1  0  0  0
 22 28  1  0  0  0
 22 32  2  0  0  0
 26 27  1  0  0  0
 28104  1  0  0  0
 28105  1  0  0  0
 29106  1  0  0  0
 29107  1  0  0  0
 33 34  1  0  0  0
 33 66  1  0  0  0
 33 70  2  0  0  0
 34 36  1  0  0  0
 34 59  1  0  0  0
 34108  1  0  0  0
 35 44  2  0  0  0
 35 45  1  0  0  0
 35 68  1  0  0  0
 36 56  1  0  0  0
 36109  1  0  0  0
 37 39  1  0  0  0
 37 47  1  0  0  0
 37 66  1  0  0  0
 37110  1  0  0  0
 38 43  2  0  0  0
 38 46  1  0  0  0
 38 47  1  0  0  0
 39 64  1  0  0  0
 39 67  2  0  0  0
 40 52  1  0  0  0
 40 53  2  0  0  0
 40 58  1  0  0  0
 41111  1  0  0  0
 41112  1  0  0  0
 41113  1  0  0  0
 41 48  1  0  0  0
 42 43  1  0  0  0
 42 66  1  0  0  0
 42114  1  0  0  0
 42115  1  0  0  0
 43 44  1  0  0  0
 44116  1  0  0  0
 45 46  2  0  0  0
 45117  1  0  0  0
 46118  1  0  0  0
 47119  1  0  0  0
 47120  1  0  0  0
 48 56  1  0  0  0
 48 65  1  0  0  0
 48121  1  0  0  0
 49 50  1  0  0  0
 49 53  1  0  0  0
 49 64  1  0  0  0
 49122  1  0  0  0
 50 51  1  0  0  0
 50123  1  0  0  0
 50124  1  0  0  0
 51 52  1  0  0  0
 51125  1  0  0  0
 51126  1  0  0  0
 52127  1  0  0  0
 52128  1  0  0  0
 53 54  1  0  0  0
 54 55  2  0  0  0
 54129  1  0  0  0
 55 57  1  0  0  0
 55130  1  0  0  0
 56 69  2  0  0  0
 57 58  2  0  0  0
 57131  1  0  0  0
 58132  1  0  0  0
 59 60  1  0  0  0
 59 61  1  0  0  0
 59 62  1  0  0  0
 60133  1  0  0  0
 60134  1  0  0  0
 60135  1  0  0  0
 61136  1  0  0  0
 61137  1  0  0  0
 61138  1  0  0  0
 62139  1  0  0  0
 62140  1  0  0  0
 62141  1  0  0  0
 63 65  1  0  0  0
 63142  1  0  0  0
 63143  1  0  0  0
 63144  1  0  0  0
 64145  1  0  0  0
 65146  1  0  0  0
 68 83  1  0  0  0
 71 73  2  0  0  0
 71 74  1  0  0  0
 71147  1  0  0  0
 72 73  1  0  0  0
 72 75  2  0  0  0
 72148  1  0  0  0
 73 77  1  0  0  0
 74 76  2  0  0  0
 74 78  1  0  0  0
 75 76  1  0  0  0
 75 86  1  0  0  0
 76 87  1  0  0  0
 77 83  1  0  0  0
 77149  1  0  0  0
 77150  1  0  0  0
 78 85  1  0  0  0
 78151  1  0  0  0
 78152  1  0  0  0
 79 80  1  0  0  0
 79 81  1  0  0  0
 79153  1  0  0  0
 79154  1  0  0  0
 80 82  1  0  0  0
 80155  1  0  0  0
 80156  1  0  0  0
 81 84  1  0  0  0
 81157  1  0  0  0
 81158  1  0  0  0
 82 85  1  0  0  0
 82159  1  0  0  0
 82160  1  0  0  0
 83161  1  0  0  0
 83162  1  0  0  0
 84163  1  0  0  0
 85164  1  0  0  0
 85165  1  0  0  0
M  CHG  1  85   1
M  ISO  4   1 100  68 101  83 101  84 100
M  END
> <chiral flag>
0

> <version>
0

> <s_m_source_file>
/data/baiqing/PycharmProjects/Reinvent-master-3.2/result/LINK_invent/BTK/process_docking_weight1_custom_sum_contain_oxygen_bond_distance_aromatic_linkinvent_7_9_3/rearranged_h_0029.sdf

> <i_m_source_file_index>
67

> <r_mmod_Potential_Energy-OPLS-2005>
-237.217987060547

> <r_mmod_Stretch_Energy-OPLS-2005>
38.4908676147461

> <r_mmod_Bend_Energy-OPLS-2005>
111.6435546875

> <r_mmod_Torsional_Energy-OPLS-2005>
213.337905883789

> <r_mmod_Improper_Torsional_Energy-OPLS-2005>
4.367600440979

> <r_mmod_Van_der_Waal_Energy-OPLS-2005>
148.898635864258

> <r_mmod_Electrostatic_Energy-OPLS-2005>
-284.892761230469

> <r_mmod_Solvation_Energy-OPLS-2005>
-479.427703857422

> <b_mmod_Minimization_Converged-OPLS-2005>
0

> <r_mmod_RMS_Derivative-OPLS-2005>
8.59493541717529

$$$$
67
                    3D
 Structure written by MMmdl.
165173  0  0  1  0            999 V2000
  -30.7588  -14.3738   20.6778 C   0  0  0  0  0  0
  -30.4170  -12.2919   19.3981 C   0  0  0  0  0  0
  -29.4852  -12.5266   18.1944 C   0  0  0  0  0  0
  -28.0095  -12.3818   18.6102 C   0  0  0  0  0  0
  -27.6662  -13.2028   19.8810 C   0  0  2  0  0  0
  -28.7032  -12.9452   20.9964 C   0  0  0  0  0  0
  -25.2607  -13.8159   20.5681 C   0  0  0  0  0  0
  -24.1847  -13.0441   20.9164 C   0  0  0  0  0  0
  -24.6392  -11.6906   20.8724 C   0  0  0  0  0  0
  -23.9056  -10.4296   21.0398 C   0  0  0  0  0  0
  -24.3610   -9.4214   21.9177 C   0  0  0  0  0  0
  -23.6288   -8.2248   22.0754 C   0  0  0  0  0  0
  -22.4270   -8.0282   21.3544 C   0  0  0  0  0  0
  -21.9903   -9.0255   20.4646 C   0  0  0  0  0  0
  -22.7229  -10.2135   20.3051 C   0  0  0  0  0  0
  -21.6854   -6.0735   22.5279 C   0  0  0  0  0  0
  -21.4014   -6.5640   23.8211 C   0  0  0  0  0  0
  -21.3659   -5.6793   24.9173 C   0  0  0  0  0  0
  -21.6045   -4.3056   24.7225 C   0  0  0  0  0  0
  -21.8818   -3.8147   23.4348 C   0  0  0  0  0  0
  -21.9193   -4.6963   22.3403 C   0  0  0  0  0  0
  -22.7873  -13.5245   21.1834 C   0  0  0  0  0  0
  -22.1661   -4.2149   21.0980 F   0  0  0  0  0  0
  -21.5629   -3.4537   25.7739 F   0  0  0  0  0  0
  -30.0458  -13.2386   20.4602 N   0  0  0  0  0  0
  -26.3041  -12.9321   20.3380 N   0  0  0  0  0  0
  -25.9316  -11.6482   20.5754 N   0  0  0  0  0  0
  -22.0508  -12.8239   22.0389 N   0  0  0  0  0  0
  -25.4348  -15.1876   20.4101 N   0  0  0  0  0  0
  -31.7869  -14.6603   20.0563 O   0  0  0  0  0  0
  -21.6637   -6.8876   21.4241 O   0  0  0  0  0  0
  -22.3562  -14.5556   20.6691 O   0  0  0  0  0  0
  -24.6114  -31.8703   23.2129 C   0  0  0  0  0  0
  -25.9018  -32.4838   23.8413 C   0  0  1  0  0  0
  -27.2363  -27.4654   20.0888 C   0  0  0  0  0  0
  -25.5886  -33.8637   24.2347 N   0  0  0  0  0  0
  -23.3989  -30.4927   21.5532 C   0  0  2  0  0  0
  -24.8464  -28.9581   20.1191 C   0  0  0  0  0  0
  -22.7390  -29.4669   22.5020 C   0  0  0  0  0  0
  -18.0263  -28.1373   22.8493 C   0  0  0  0  0  0
  -24.1485  -36.7316   23.2639 C   0  0  0  0  0  0
  -25.9244  -30.8412   21.3653 C   0  0  0  0  0  0
  -26.0034  -29.4763   20.7163 C   0  0  0  0  0  0
  -27.2028  -28.7340   20.7043 C   0  0  0  0  0  0
  -26.0702  -26.9524   19.4869 C   0  0  0  0  0  0
  -24.8714  -27.6917   19.5056 C   0  0  0  0  0  0
  -23.6064  -29.8219   20.1686 C   0  0  0  0  0  0
  -25.4106  -36.3124   24.0345 C   0  0  1  0  0  0
  -20.5851  -28.3659   23.1328 C   0  0  2  0  0  0
  -20.6757  -26.9401   22.5421 C   0  0  0  0  0  0
  -19.5739  -26.6385   21.5214 C   0  0  0  0  0  0
  -18.1911  -26.7922   22.1619 C   0  0  0  0  0  0
  -19.1512  -28.8832   23.2901 C   0  0  0  0  0  0
  -18.9447  -30.1440   23.8914 C   0  0  0  0  0  0
  -17.6453  -30.6584   24.0570 C   0  0  0  0  0  0
  -25.9031  -34.9488   23.5143 C   0  0  0  0  0  0
  -16.5341  -29.9091   23.6331 C   0  0  0  0  0  0
  -16.7254  -28.6508   23.0354 C   0  0  0  0  0  0
  -26.4461  -31.6617   25.0736 C   0  0  0  0  0  0
  -25.3737  -31.3709   26.1496 C   0  0  0  0  0  0
  -27.0309  -30.3070   24.6103 C   0  0  0  0  0  0
  -27.6041  -32.4342   25.7487 C   0  0  0  0  0  0
  -27.5585  -37.1805   24.8462 C   0  0  0  0  0  0
  -21.4124  -29.3033   22.3746 N   0  0  0  0  0  0
  -26.4298  -37.3803   23.9412 N   0  0  0  0  0  0
  -24.6628  -31.0818   22.1024 N   0  0  0  0  0  0
  -23.4166  -28.8219   23.3060 O   0  0  0  0  0  0
  -28.3979  -26.7393   20.0460 O   0  0  0  0  0  0
  -26.5592  -34.8932   22.4703 O   0  0  0  0  0  0
  -23.5314  -32.1449   23.7534 O   0  0  0  0  0  0
  -28.5261  -19.8087   22.5510 C   0  0  0  0  0  0
  -28.9251  -18.9689   23.6009 C   0  0  0  0  0  0
  -28.4951  -21.1855   22.8112 C   0  0  0  0  0  0
  -29.2289  -20.7918   24.9433 C   0  0  0  0  0  0
  -29.6269  -21.3493   26.2918 C   0  0  0  0  0  0
  -26.7923  -21.7493   21.1927 C   0  0  0  0  0  0
  -28.9652  -17.4544   23.4614 C   0  0  0  0  0  0
  -30.3993  -16.8839   23.4446 C   0  0  0  0  0  0
  -28.1651  -24.4427   20.8672 C   0  0  0  0  0  0
  -30.8984  -16.4328   22.0614 C   0  0  0  0  0  0
  -28.3214  -23.5309   22.1004 C   0  0  0  0  0  0
  -28.5954  -25.8892   21.1729 C   0  0  0  0  0  0
  -29.2715  -19.4724   24.8009 N   0  0  0  0  0  0
  -28.8595  -21.6635   24.0129 N   0  0  0  0  0  0
  -30.2825  -15.1743   21.6408 N   0  0  0  0  0  0
  -28.0557  -22.1095   21.8382 N   0  0  0  0  0  0
  -31.4609  -12.3928   19.0949 H   0  0  0  0  0  0
  -30.3150  -11.2694   19.7650 H   0  0  0  0  0  0
  -29.7187  -11.8232   17.3942 H   0  0  0  0  0  0
  -29.6557  -13.5236   17.7853 H   0  0  0  0  0  0
  -27.8163  -11.3235   18.7891 H   0  0  0  0  0  0
  -27.3566  -12.6742   17.7873 H   0  0  0  0  0  0
  -27.7245  -14.2572   19.6094 H   0  0  0  0  0  0
  -28.6663  -11.9011   21.3112 H   0  0  0  0  0  0
  -28.4494  -13.5201   21.8872 H   0  0  0  0  0  0
  -25.2756   -9.5692   22.4749 H   0  0  0  0  0  0
  -24.0001   -7.4641   22.7474 H   0  0  0  0  0  0
  -21.0834   -8.8769   19.8952 H   0  0  0  0  0  0
  -22.3685  -10.9671   19.6159 H   0  0  0  0  0  0
  -21.2007   -7.6147   23.9715 H   0  0  0  0  0  0
  -21.1481   -6.0523   25.9077 H   0  0  0  0  0  0
  -22.0598   -2.7608   23.2847 H   0  0  0  0  0  0
  -22.4116  -11.9891   22.4765 H   0  0  0  0  0  0
  -21.1131  -13.1275   22.2599 H   0  0  0  0  0  0
  -24.6715  -15.8466   20.5176 H   0  0  0  0  0  0
  -26.2936  -15.6233   20.0974 H   0  0  0  0  0  0
  -26.7094  -32.5562   23.1184 H   0  0  0  0  0  0
  -25.0065  -33.9809   25.0512 H   0  0  0  0  0  0
  -22.6867  -31.3086   21.4136 H   0  0  0  0  0  0
  -23.3752  -35.9644   23.3319 H   0  0  0  0  0  0
  -24.3575  -36.8913   22.2048 H   0  0  0  0  0  0
  -23.7234  -37.6524   23.6644 H   0  0  0  0  0  0
  -26.0355  -31.6080   20.5975 H   0  0  0  0  0  0
  -26.8120  -30.8933   21.9843 H   0  0  0  0  0  0
  -28.1003  -29.1303   21.1589 H   0  0  0  0  0  0
  -26.0929  -25.9865   19.0025 H   0  0  0  0  0  0
  -23.9828  -27.2870   19.0409 H   0  0  0  0  0  0
  -23.7116  -30.5960   19.4075 H   0  0  0  0  0  0
  -22.7308  -29.2397   19.8759 H   0  0  0  0  0  0
  -25.1278  -36.1996   25.0839 H   0  0  0  0  0  0
  -20.9932  -28.3225   24.1453 H   0  0  0  0  0  0
  -20.5675  -26.2264   23.3603 H   0  0  0  0  0  0
  -21.6625  -26.7465   22.1202 H   0  0  0  0  0  0
  -19.6909  -25.6299   21.1237 H   0  0  0  0  0  0
  -19.6680  -27.3205   20.6751 H   0  0  0  0  0  0
  -17.4185  -26.6682   21.4014 H   0  0  0  0  0  0
  -18.0299  -26.0056   22.9008 H   0  0  0  0  0  0
  -19.7930  -30.7237   24.2296 H   0  0  0  0  0  0
  -17.5020  -31.6272   24.5155 H   0  0  0  0  0  0
  -15.5345  -30.3002   23.7649 H   0  0  0  0  0  0
  -15.8653  -28.0832   22.7066 H   0  0  0  0  0  0
  -24.5891  -30.7081   25.7828 H   0  0  0  0  0  0
  -24.8948  -32.2860   26.4993 H   0  0  0  0  0  0
  -25.8092  -30.8838   27.0230 H   0  0  0  0  0  0
  -26.2860  -29.6815   24.1173 H   0  0  0  0  0  0
  -27.4109  -29.7318   25.4555 H   0  0  0  0  0  0
  -27.8674  -30.4407   23.9238 H   0  0  0  0  0  0
  -27.2667  -33.3627   26.2108 H   0  0  0  0  0  0
  -28.3821  -32.6934   25.0294 H   0  0  0  0  0  0
  -28.0751  -31.8451   26.5368 H   0  0  0  0  0  0
  -28.2598  -38.0109   24.7535 H   0  0  0  0  0  0
  -28.1087  -36.2642   24.6262 H   0  0  0  0  0  0
  -27.2303  -37.1425   25.8864 H   0  0  0  0  0  0
  -20.9285  -29.8753   21.6969 H   0  0  0  0  0  0
  -26.0194  -38.2883   24.1421 H   0  0  0  0  0  0
  -28.2488  -19.4043   21.5877 H   0  0  0  0  0  0
  -30.6138  -20.9863   26.5778 H   0  0  0  0  0  0
  -28.9127  -21.0404   27.0546 H   0  0  0  0  0  0
  -29.6593  -22.4392   26.2812 H   0  0  0  0  0  0
  -26.9386  -21.6246   20.1199 H   0  0  0  0  0  0
  -26.0448  -22.5289   21.3425 H   0  0  0  0  0  0
  -26.3605  -20.8251   21.5800 H   0  0  0  0  0  0
  -28.4086  -17.1453   22.5760 H   0  0  0  0  0  0
  -28.4229  -17.0339   24.3091 H   0  0  0  0  0  0
  -30.4509  -16.0345   24.1269 H   0  0  0  0  0  0
  -31.0920  -17.6178   23.8595 H   0  0  0  0  0  0
  -27.1283  -24.4378   20.5332 H   0  0  0  0  0  0
  -28.7629  -24.0591   20.0396 H   0  0  0  0  0  0
  -31.9812  -16.3012   22.1080 H   0  0  0  0  0  0
  -30.7127  -17.2056   21.3131 H   0  0  0  0  0  0
  -27.6645  -23.8754   22.9011 H   0  0  0  0  0  0
  -29.3427  -23.6368   22.4712 H   0  0  0  0  0  0
  -29.6564  -25.9054   21.4226 H   0  0  0  0  0  0
  -28.0696  -26.2637   22.0543 H   0  0  0  0  0  0
  -29.4453  -14.8681   22.1136 H   0  0  0  0  0  0
  1 25  1  0  0  0
  1 30  2  0  0  0
  1 85  1  0  0  0
  2  3  1  0  0  0
  2 25  1  0  0  0
  2 87  1  0  0  0
  2 88  1  0  0  0
  3  4  1  0  0  0
  3 89  1  0  0  0
  3 90  1  0  0  0
  4  5  1  0  0  0
  4 91  1  0  0  0
  4 92  1  0  0  0
  5  6  1  0  0  0
  5 26  1  0  0  0
  5 93  1  0  0  0
  6 25  1  0  0  0
  6 94  1  0  0  0
  6 95  1  0  0  0
  7  8  2  0  0  0
  7 26  1  0  0  0
  7 29  1  0  0  0
  8  9  1  0  0  0
  8 22  1  0  0  0
  9 10  1  0  0  0
  9 27  2  0  0  0
 10 11  2  0  0  0
 10 15  1  0  0  0
 11 12  1  0  0  0
 11 96  1  0  0  0
 12 13  2  0  0  0
 12 97  1  0  0  0
 13 14  1  0  0  0
 13 31  1  0  0  0
 14 15  2  0  0  0
 14 98  1  0  0  0
 15 99  1  0  0  0
 16 17  2  0  0  0
 16 21  1  0  0  0
 16 31  1  0  0  0
 17 18  1  0  0  0
 17100  1  0  0  0
 18 19  2  0  0  0
 18101  1  0  0  0
 19 20  1  0  0  0
 19 24  1  0  0  0
 20 21  2  0  0  0
 20102  1  0  0  0
 21 23  1  0  0  0
 22 28  1  0  0  0
 22 32  2  0  0  0
 26 27  1  0  0  0
 28103  1  0  0  0
 28104  1  0  0  0
 29105  1  0  0  0
 29106  1  0  0  0
 33 34  1  0  0  0
 33 66  1  0  0  0
 33 70  2  0  0  0
 34 36  1  0  0  0
 34 59  1  0  0  0
 34107  1  0  0  0
 35 44  2  0  0  0
 35 45  1  0  0  0
 35 68  1  0  0  0
 36 56  1  0  0  0
 36108  1  0  0  0
 37 39  1  0  0  0
 37 47  1  0  0  0
 37 66  1  0  0  0
 37109  1  0  0  0
 38 43  2  0  0  0
 38 46  1  0  0  0
 38 47  1  0  0  0
 39 64  1  0  0  0
 39 67  2  0  0  0
 40 52  1  0  0  0
 40 53  2  0  0  0
 40 58  1  0  0  0
 41110  1  0  0  0
 41111  1  0  0  0
 41112  1  0  0  0
 41 48  1  0  0  0
 42 43  1  0  0  0
 42 66  1  0  0  0
 42113  1  0  0  0
 42114  1  0  0  0
 43 44  1  0  0  0
 44115  1  0  0  0
 45 46  2  0  0  0
 45116  1  0  0  0
 46117  1  0  0  0
 47118  1  0  0  0
 47119  1  0  0  0
 48 56  1  0  0  0
 48 65  1  0  0  0
 48120  1  0  0  0
 49 50  1  0  0  0
 49 53  1  0  0  0
 49 64  1  0  0  0
 49121  1  0  0  0
 50 51  1  0  0  0
 50122  1  0  0  0
 50123  1  0  0  0
 51 52  1  0  0  0
 51124  1  0  0  0
 51125  1  0  0  0
 52126  1  0  0  0
 52127  1  0  0  0
 53 54  1  0  0  0
 54 55  2  0  0  0
 54128  1  0  0  0
 55 57  1  0  0  0
 55129  1  0  0  0
 56 69  2  0  0  0
 57 58  2  0  0  0
 57130  1  0  0  0
 58131  1  0  0  0
 59 60  1  0  0  0
 59 61  1  0  0  0
 59 62  1  0  0  0
 60132  1  0  0  0
 60133  1  0  0  0
 60134  1  0  0  0
 61135  1  0  0  0
 61136  1  0  0  0
 61137  1  0  0  0
 62138  1  0  0  0
 62139  1  0  0  0
 62140  1  0  0  0
 63 65  1  0  0  0
 63141  1  0  0  0
 63142  1  0  0  0
 63143  1  0  0  0
 64144  1  0  0  0
 65145  1  0  0  0
 68 82  1  0  0  0
 71 72  2  0  0  0
 71 73  1  0  0  0
 71146  1  0  0  0
 72 77  1  0  0  0
 72 83  1  0  0  0
 73 84  2  0  0  0
 73 86  1  0  0  0
 74 75  1  0  0  0
 74 83  2  0  0  0
 74 84  1  0  0  0
 75147  1  0  0  0
 75148  1  0  0  0
 75149  1  0  0  0
 76 86  1  0  0  0
 76150  1  0  0  0
 76151  1  0  0  0
 76152  1  0  0  0
 77 78  1  0  0  0
 77153  1  0  0  0
 77154  1  0  0  0
 78 80  1  0  0  0
 78155  1  0  0  0
 78156  1  0  0  0
 79 81  1  0  0  0
 79 82  1  0  0  0
 79157  1  0  0  0
 79158  1  0  0  0
 80 85  1  0  0  0
 80159  1  0  0  0
 80160  1  0  0  0
 81 86  1  0  0  0
 81161  1  0  0  0
 81162  1  0  0  0
 82163  1  0  0  0
 82164  1  0  0  0
 85165  1  0  0  0
M  ISO  4   1 100  68 101  82 101  85 100
M  END
> <chiral flag>
0

> <version>
0

> <s_m_source_file>
/data/baiqing/PycharmProjects/Reinvent-master-3.2/result/LINK_invent/BTK/process_docking_weight1_custom_sum_contain_oxygen_bond_distance_aromatic_linkinvent_7_9_3/rearranged_h_0029.sdf

> <i_m_source_file_index>
68

> <r_mmod_Potential_Energy-OPLS-2005>
-620.224792480469

> <r_mmod_Stretch_Energy-OPLS-2005>
31.7309761047363

> <r_mmod_Bend_Energy-OPLS-2005>
92.6247329711914

> <r_mmod_Torsional_Energy-OPLS-2005>
225.345489501953

> <r_mmod_Improper_Torsional_Energy-OPLS-2005>
4.59526205062866

> <r_mmod_Van_der_Waal_Energy-OPLS-2005>
171.883224487305

> <r_mmod_Electrostatic_Energy-OPLS-2005>
-906.157348632812

> <r_mmod_Solvation_Energy-OPLS-2005>
-246.720245361328

> <b_mmod_Minimization_Converged-OPLS-2005>
0

> <r_mmod_RMS_Derivative-OPLS-2005>
0.904198706150055

$$$$
68
                    3D
 Structure written by MMmdl.
153161  0  0  1  0            999 V2000
  -30.5543  -14.9342   20.3999 C   0  0  0  0  0  0
  -30.4402  -12.5688   19.5015 C   0  0  0  0  0  0
  -29.5227  -12.5258   18.2574 C   0  0  0  0  0  0
  -28.0487  -12.3333   18.6616 C   0  0  0  0  0  0
  -27.6303  -13.2556   19.8343 C   0  0  2  0  0  0
  -28.6760  -13.2739   20.9708 C   0  0  0  0  0  0
  -25.2450  -13.8208   20.5708 C   0  0  0  0  0  0
  -24.1794  -13.0452   20.9250 C   0  0  0  0  0  0
  -24.6400  -11.6915   20.8743 C   0  0  0  0  0  0
  -23.9065  -10.4296   21.0400 C   0  0  0  0  0  0
  -24.3631   -9.4209   21.9170 C   0  0  0  0  0  0
  -23.6317   -8.2240   22.0729 C   0  0  0  0  0  0
  -22.4283   -8.0293   21.3557 C   0  0  0  0  0  0
  -21.9938   -9.0237   20.4633 C   0  0  0  0  0  0
  -22.7241  -10.2115   20.3049 C   0  0  0  0  0  0
  -21.6881   -6.0747   22.5270 C   0  0  0  0  0  0
  -21.4015   -6.5642   23.8198 C   0  0  0  0  0  0
  -21.3676   -5.6803   24.9171 C   0  0  0  0  0  0
  -21.6067   -4.3063   24.7232 C   0  0  0  0  0  0
  -21.8818   -3.8150   23.4345 C   0  0  0  0  0  0
  -21.9185   -4.6972   22.3397 C   0  0  0  0  0  0
  -22.7788  -13.5171   21.1885 C   0  0  0  0  0  0
  -22.1676   -4.2152   21.0981 F   0  0  0  0  0  0
  -21.5617   -3.4539   25.7737 F   0  0  0  0  0  0
  -29.9586  -13.6743   20.3775 N   0  0  0  0  0  0
  -26.2888  -12.9464   20.3208 N   0  0  0  0  0  0
  -25.9343  -11.6579   20.5727 N   0  0  0  0  0  0
  -22.0485  -12.8180   22.0441 N   0  0  0  0  0  0
  -25.4104  -15.1951   20.4066 N   0  0  0  0  0  0
  -31.7570  -14.9916   20.1243 O   0  0  0  0  0  0
  -21.6671   -6.8884   21.4229 O   0  0  0  0  0  0
  -22.3476  -14.5470   20.6704 O   0  0  0  0  0  0
  -24.6511  -31.8375   23.1853 C   0  0  0  0  0  0
  -25.9216  -32.4680   23.8261 C   0  0  1  0  0  0
  -27.2347  -27.1055   20.1562 C   0  0  0  0  0  0
  -25.5930  -33.8482   24.2160 N   0  0  0  0  0  0
  -23.4572  -30.4555   21.5292 C   0  0  2  0  0  0
  -24.9110  -28.8671   20.1211 C   0  0  0  0  0  0
  -22.7586  -29.4493   22.4825 C   0  0  0  0  0  0
  -18.0314  -28.1382   22.8453 C   0  0  0  0  0  0
  -24.1439  -36.7230   23.2644 C   0  0  0  0  0  0
  -26.0178  -30.6970   21.3942 C   0  0  0  0  0  0
  -26.0921  -29.3068   20.7358 C   0  0  0  0  0  0
  -27.2562  -28.4430   20.7321 C   0  0  0  0  0  0
  -26.0234  -26.7730   19.5094 C   0  0  0  0  0  0
  -24.8908  -27.6111   19.4960 C   0  0  0  0  0  0
  -23.6911  -29.7750   20.1552 C   0  0  0  0  0  0
  -25.4096  -36.3031   24.0322 C   0  0  1  0  0  0
  -20.5927  -28.3712   23.1229 C   0  0  2  0  0  0
  -20.6773  -26.9406   22.5424 C   0  0  0  0  0  0
  -19.5756  -26.6350   21.5219 C   0  0  0  0  0  0
  -18.1934  -26.7909   22.1624 C   0  0  0  0  0  0
  -19.1569  -28.8866   23.2817 C   0  0  0  0  0  0
  -18.9471  -30.1423   23.8874 C   0  0  0  0  0  0
  -17.6489  -30.6570   24.0555 C   0  0  0  0  0  0
  -25.9053  -34.9417   23.5062 C   0  0  0  0  0  0
  -16.5369  -29.9078   23.6369 C   0  0  0  0  0  0
  -16.7310  -28.6505   23.0381 C   0  0  0  0  0  0
  -26.4524  -31.6609   25.0744 C   0  0  0  0  0  0
  -25.3675  -31.3839   26.1414 C   0  0  0  0  0  0
  -27.0407  -30.2998   24.6382 C   0  0  0  0  0  0
  -27.6037  -32.4398   25.7520 C   0  0  0  0  0  0
  -27.5555  -37.1749   24.8472 C   0  0  0  0  0  0
  -21.4265  -29.3029   22.3549 N   0  0  0  0  0  0
  -26.4265  -37.3760   23.9423 N   0  0  0  0  0  0
  -24.7275  -31.0182   22.0912 N   0  0  0  0  0  0
  -23.4185  -28.8023   23.2993 O   0  0  0  0  0  0
  -28.2932  -26.1128   20.1879 O   0  0  0  0  0  0
  -26.5674  -34.8936   22.4638 O   0  0  0  0  0  0
  -23.5639  -32.1261   23.7066 O   0  0  0  0  0  0
  -29.4504  -20.4190   20.1302 C   0  0  0  0  0  0
  -28.6512  -18.9180   21.8605 C   0  0  0  0  0  0
  -29.3660  -19.0202   20.6581 C   0  0  0  0  0  0
  -28.9210  -21.6567   20.7831 C   0  0  0  0  0  0
  -28.3424  -21.3822   22.0582 C   0  0  0  0  0  0
  -28.1561  -20.0506   22.5396 C   0  0  0  0  0  0
  -27.9990  -22.5400   22.9800 C   0  0  0  0  0  0
  -29.1106  -23.2504   20.2931 C   0  0  0  0  0  0
  -30.0467  -17.6280   20.0655 C   0  0  0  0  0  0
  -28.0135  -24.5701   20.3413 C   0  0  0  0  0  0
  -29.7768  -16.1232   20.5026 N   0  0  0  0  0  0
  -27.3300  -19.7393   24.0304 Cl  0  0  0  0  0  0
  -31.4735  -12.7096   19.1917 H   0  0  0  0  0  0
  -30.4262  -11.6152   20.0311 H   0  0  0  0  0  0
  -29.8262  -11.7236   17.5817 H   0  0  0  0  0  0
  -29.6355  -13.4566   17.6991 H   0  0  0  0  0  0
  -27.9101  -11.2869   18.9391 H   0  0  0  0  0  0
  -27.4013  -12.5136   17.8025 H   0  0  0  0  0  0
  -27.5960  -14.2626   19.4162 H   0  0  0  0  0  0
  -28.7478  -12.2975   21.4524 H   0  0  0  0  0  0
  -28.3830  -13.9811   21.7487 H   0  0  0  0  0  0
  -25.2772   -9.5693   22.4757 H   0  0  0  0  0  0
  -24.0041   -7.4629   22.7438 H   0  0  0  0  0  0
  -21.0883   -8.8752   19.8934 H   0  0  0  0  0  0
  -22.3707  -10.9661   19.6175 H   0  0  0  0  0  0
  -21.2027   -7.6152   23.9707 H   0  0  0  0  0  0
  -21.1507   -6.0536   25.9078 H   0  0  0  0  0  0
  -22.0583   -2.7603   23.2838 H   0  0  0  0  0  0
  -22.4188  -11.9897   22.4885 H   0  0  0  0  0  0
  -21.1081  -13.1123   22.2596 H   0  0  0  0  0  0
  -24.6254  -15.8346   20.4836 H   0  0  0  0  0  0
  -26.2359  -15.6276   20.0129 H   0  0  0  0  0  0
  -26.7249  -32.5238   23.0962 H   0  0  0  0  0  0
  -25.0030  -33.9540   25.0298 H   0  0  0  0  0  0
  -22.7671  -31.2845   21.3670 H   0  0  0  0  0  0
  -23.3751  -35.9492   23.3314 H   0  0  0  0  0  0
  -24.3540  -36.8869   22.2052 H   0  0  0  0  0  0
  -23.7138  -37.6400   23.6715 H   0  0  0  0  0  0
  -26.1828  -31.4380   20.6144 H   0  0  0  0  0  0
  -26.8860  -30.7462   22.0410 H   0  0  0  0  0  0
  -28.1597  -28.7867   21.2210 H   0  0  0  0  0  0
  -25.9165  -25.8181   19.0215 H   0  0  0  0  0  0
  -23.9857  -27.2554   19.0213 H   0  0  0  0  0  0
  -23.8427  -30.5444   19.3987 H   0  0  0  0  0  0
  -22.8062  -29.2182   19.8433 H   0  0  0  0  0  0
  -25.1271  -36.1860   25.0825 H   0  0  0  0  0  0
  -21.0020  -28.3287   24.1350 H   0  0  0  0  0  0
  -20.5638  -26.2298   23.3626 H   0  0  0  0  0  0
  -21.6620  -26.7343   22.1211 H   0  0  0  0  0  0
  -19.6892  -25.6251   21.1251 H   0  0  0  0  0  0
  -19.6715  -27.3130   20.6738 H   0  0  0  0  0  0
  -17.4191  -26.6660   21.4031 H   0  0  0  0  0  0
  -18.0320  -26.0040   22.9033 H   0  0  0  0  0  0
  -19.7943  -30.7221   24.2251 H   0  0  0  0  0  0
  -17.5066  -31.6276   24.5068 H   0  0  0  0  0  0
  -15.5363  -30.2994   23.7705 H   0  0  0  0  0  0
  -15.8699  -28.0820   22.7184 H   0  0  0  0  0  0
  -24.5809  -30.7262   25.7744 H   0  0  0  0  0  0
  -24.8912  -32.3028   26.4822 H   0  0  0  0  0  0
  -25.7871  -30.9011   27.0238 H   0  0  0  0  0  0
  -26.3055  -29.6691   24.1356 H   0  0  0  0  0  0
  -27.3974  -29.7346   25.5016 H   0  0  0  0  0  0
  -27.9004  -30.4267   23.9763 H   0  0  0  0  0  0
  -27.2648  -33.3781   26.1961 H   0  0  0  0  0  0
  -28.3924  -32.6821   25.0366 H   0  0  0  0  0  0
  -28.0624  -31.8594   26.5548 H   0  0  0  0  0  0
  -28.2561  -38.0062   24.7575 H   0  0  0  0  0  0
  -28.1047  -36.2592   24.6233 H   0  0  0  0  0  0
  -27.2278  -37.1342   25.8877 H   0  0  0  0  0  0
  -20.9493  -29.8800   21.6762 H   0  0  0  0  0  0
  -26.0126  -38.2800   24.1537 H   0  0  0  0  0  0
  -29.9904  -20.5556   19.2000 H   0  0  0  0  0  0
  -28.5154  -17.9442   22.3092 H   0  0  0  0  0  0
  -27.8053  -22.2479   24.0075 H   0  0  0  0  0  0
  -27.1010  -23.0464   22.6420 H   0  0  0  0  0  0
  -28.8436  -23.2285   23.0382 H   0  0  0  0  0  0
  -29.4823  -23.1857   19.2717 H   0  0  0  0  0  0
  -29.9760  -23.5817   20.8647 H   0  0  0  0  0  0
  -31.1289  -17.7697   20.1273 H   0  0  0  0  0  0
  -29.8160  -17.6401   18.9993 H   0  0  0  0  0  0
  -27.5176  -24.5699   21.3038 H   0  0  0  0  0  0
  -27.2320  -24.2897   19.6372 H   0  0  0  0  0  0
  -28.8097  -15.9250   20.7058 H   0  0  0  0  0  0
  1 25  1  0  0  0
  1 30  2  0  0  0
  1 81  1  0  0  0
  2  3  1  0  0  0
  2 25  1  0  0  0
  2 83  1  0  0  0
  2 84  1  0  0  0
  3  4  1  0  0  0
  3 85  1  0  0  0
  3 86  1  0  0  0
  4  5  1  0  0  0
  4 87  1  0  0  0
  4 88  1  0  0  0
  5  6  1  0  0  0
  5 26  1  0  0  0
  5 89  1  0  0  0
  6 25  1  0  0  0
  6 90  1  0  0  0
  6 91  1  0  0  0
  7  8  2  0  0  0
  7 26  1  0  0  0
  7 29  1  0  0  0
  8  9  1  0  0  0
  8 22  1  0  0  0
  9 10  1  0  0  0
  9 27  2  0  0  0
 10 11  2  0  0  0
 10 15  1  0  0  0
 11 12  1  0  0  0
 11 92  1  0  0  0
 12 13  2  0  0  0
 12 93  1  0  0  0
 13 14  1  0  0  0
 13 31  1  0  0  0
 14 15  2  0  0  0
 14 94  1  0  0  0
 15 95  1  0  0  0
 16 17  2  0  0  0
 16 21  1  0  0  0
 16 31  1  0  0  0
 17 18  1  0  0  0
 17 96  1  0  0  0
 18 19  2  0  0  0
 18 97  1  0  0  0
 19 20  1  0  0  0
 19 24  1  0  0  0
 20 21  2  0  0  0
 20 98  1  0  0  0
 21 23  1  0  0  0
 22 28  1  0  0  0
 22 32  2  0  0  0
 26 27  1  0  0  0
 28 99  1  0  0  0
 28100  1  0  0  0
 29101  1  0  0  0
 29102  1  0  0  0
 33 34  1  0  0  0
 33 66  1  0  0  0
 33 70  2  0  0  0
 34 36  1  0  0  0
 34 59  1  0  0  0
 34103  1  0  0  0
 35 44  2  0  0  0
 35 45  1  0  0  0
 35 68  1  0  0  0
 36 56  1  0  0  0
 36104  1  0  0  0
 37 39  1  0  0  0
 37 47  1  0  0  0
 37 66  1  0  0  0
 37105  1  0  0  0
 38 43  2  0  0  0
 38 46  1  0  0  0
 38 47  1  0  0  0
 39 64  1  0  0  0
 39 67  2  0  0  0
 40 52  1  0  0  0
 40 53  2  0  0  0
 40 58  1  0  0  0
 41106  1  0  0  0
 41107  1  0  0  0
 41108  1  0  0  0
 41 48  1  0  0  0
 42 43  1  0  0  0
 42 66  1  0  0  0
 42109  1  0  0  0
 42110  1  0  0  0
 43 44  1  0  0  0
 44111  1  0  0  0
 45 46  2  0  0  0
 45112  1  0  0  0
 46113  1  0  0  0
 47114  1  0  0  0
 47115  1  0  0  0
 48 56  1  0  0  0
 48 65  1  0  0  0
 48116  1  0  0  0
 49 50  1  0  0  0
 49 53  1  0  0  0
 49 64  1  0  0  0
 49117  1  0  0  0
 50 51  1  0  0  0
 50118  1  0  0  0
 50119  1  0  0  0
 51 52  1  0  0  0
 51120  1  0  0  0
 51121  1  0  0  0
 52122  1  0  0  0
 52123  1  0  0  0
 53 54  1  0  0  0
 54 55  2  0  0  0
 54124  1  0  0  0
 55 57  1  0  0  0
 55125  1  0  0  0
 56 69  2  0  0  0
 57 58  2  0  0  0
 57126  1  0  0  0
 58127  1  0  0  0
 59 60  1  0  0  0
 59 61  1  0  0  0
 59 62  1  0  0  0
 60128  1  0  0  0
 60129  1  0  0  0
 60130  1  0  0  0
 61131  1  0  0  0
 61132  1  0  0  0
 61133  1  0  0  0
 62134  1  0  0  0
 62135  1  0  0  0
 62136  1  0  0  0
 63 65  1  0  0  0
 63137  1  0  0  0
 63138  1  0  0  0
 63139  1  0  0  0
 64140  1  0  0  0
 65141  1  0  0  0
 68 80  1  0  0  0
 71 73  2  0  0  0
 71 74  1  0  0  0
 71142  1  0  0  0
 72 73  1  0  0  0
 72 76  2  0  0  0
 72143  1  0  0  0
 73 79  1  0  0  0
 74 75  2  0  0  0
 74 78  1  0  0  0
 75 76  1  0  0  0
 75 77  1  0  0  0
 76 82  1  0  0  0
 77144  1  0  0  0
 77145  1  0  0  0
 77146  1  0  0  0
 78 80  1  0  0  0
 78147  1  0  0  0
 78148  1  0  0  0
 79 81  1  0  0  0
 79149  1  0  0  0
 79150  1  0  0  0
 80151  1  0  0  0
 80152  1  0  0  0
 81153  1  0  0  0
M  ISO  4   1 100  68 101  80 101  81 100
M  END
> <chiral flag>
0

> <version>
0

> <s_m_source_file>
/data/baiqing/PycharmProjects/Reinvent-master-3.2/result/LINK_invent/BTK/process_docking_weight1_custom_sum_contain_oxygen_bond_distance_aromatic_linkinvent_7_9_3/rearranged_h_0029.sdf

> <i_m_source_file_index>
69

> <r_mmod_Potential_Energy-OPLS-2005>
506.781982421875

> <r_mmod_Stretch_Energy-OPLS-2005>
294.247985839844

> <r_mmod_Bend_Energy-OPLS-2005>
263.129699707031

> <r_mmod_Torsional_Energy-OPLS-2005>
216.806045532227

> <r_mmod_Improper_Torsional_Energy-OPLS-2005>
7.14227724075317

> <r_mmod_Van_der_Waal_Energy-OPLS-2005>
137.734756469727

> <r_mmod_Electrostatic_Energy-OPLS-2005>
-401.149810791016

> <r_mmod_Solvation_Energy-OPLS-2005>
-209.635650634766

> <b_mmod_Minimization_Converged-OPLS-2005>
0

> <r_mmod_RMS_Derivative-OPLS-2005>
6.05747890472412

$$$$
69
                    3D
 Structure written by MMmdl.
161169  0  0  1  0            999 V2000
  -30.6741  -14.5989   20.5261 C   0  0  0  0  0  0
  -30.4243  -12.3797   19.4428 C   0  0  0  0  0  0
  -29.4978  -12.5076   18.2157 C   0  0  0  0  0  0
  -28.0208  -12.3561   18.6289 C   0  0  0  0  0  0
  -27.6515  -13.2227   19.8615 C   0  0  2  0  0  0
  -28.6967  -13.0844   20.9891 C   0  0  0  0  0  0
  -25.2568  -13.8193   20.5701 C   0  0  0  0  0  0
  -24.1836  -13.0439   20.9188 C   0  0  0  0  0  0
  -24.6412  -11.6914   20.8739 C   0  0  0  0  0  0
  -23.9082  -10.4293   21.0410 C   0  0  0  0  0  0
  -24.3625   -9.4202   21.9189 C   0  0  0  0  0  0
  -23.6298   -8.2239   22.0755 C   0  0  0  0  0  0
  -22.4278   -8.0282   21.3545 C   0  0  0  0  0  0
  -21.9915   -9.0260   20.4651 C   0  0  0  0  0  0
  -22.7246  -10.2138   20.3066 C   0  0  0  0  0  0
  -21.6849   -6.0738   22.5277 C   0  0  0  0  0  0
  -21.4009   -6.5647   23.8212 C   0  0  0  0  0  0
  -21.3657   -5.6800   24.9178 C   0  0  0  0  0  0
  -21.6042   -4.3060   24.7227 C   0  0  0  0  0  0
  -21.8826   -3.8153   23.4348 C   0  0  0  0  0  0
  -21.9196   -4.6967   22.3403 C   0  0  0  0  0  0
  -22.7859  -13.5219   21.1847 C   0  0  0  0  0  0
  -22.1672   -4.2158   21.0978 F   0  0  0  0  0  0
  -21.5621   -3.4543   25.7740 F   0  0  0  0  0  0
  -30.0101  -13.4088   20.4152 N   0  0  0  0  0  0
  -26.2990  -12.9379   20.3331 N   0  0  0  0  0  0
  -25.9339  -11.6526   20.5757 N   0  0  0  0  0  0
  -22.0527  -12.8194   22.0412 N   0  0  0  0  0  0
  -25.4304  -15.1906   20.4118 N   0  0  0  0  0  0
  -31.8438  -14.7189   20.1535 O   0  0  0  0  0  0
  -21.6636   -6.8875   21.4240 O   0  0  0  0  0  0
  -22.3535  -14.5529   20.6715 O   0  0  0  0  0  0
  -24.6251  -31.8638   23.2093 C   0  0  0  0  0  0
  -25.9106  -32.4802   23.8400 C   0  0  1  0  0  0
  -27.2039  -27.3190   20.1053 C   0  0  0  0  0  0
  -25.5932  -33.8604   24.2315 N   0  0  0  0  0  0
  -23.4181  -30.4939   21.5522 C   0  0  2  0  0  0
  -24.8638  -28.9709   20.1029 C   0  0  0  0  0  0
  -22.7474  -29.4643   22.4933 C   0  0  0  0  0  0
  -18.0284  -28.1380   22.8490 C   0  0  0  0  0  0
  -24.1492  -36.7298   23.2635 C   0  0  0  0  0  0
  -25.9641  -30.7913   21.3898 C   0  0  0  0  0  0
  -26.0347  -29.4240   20.7239 C   0  0  0  0  0  0
  -27.2068  -28.6062   20.7284 C   0  0  0  0  0  0
  -26.0190  -26.9614   19.4092 C   0  0  0  0  0  0
  -24.8591  -27.7445   19.4356 C   0  0  0  0  0  0
  -23.6327  -29.8465   20.1620 C   0  0  0  0  0  0
  -25.4117  -36.3093   24.0325 C   0  0  1  0  0  0
  -20.5888  -28.3690   23.1280 C   0  0  2  0  0  0
  -20.6777  -26.9413   22.5407 C   0  0  0  0  0  0
  -19.5747  -26.6382   21.5216 C   0  0  0  0  0  0
  -18.1928  -26.7923   22.1630 C   0  0  0  0  0  0
  -19.1536  -28.8851   23.2884 C   0  0  0  0  0  0
  -18.9458  -30.1453   23.8902 C   0  0  0  0  0  0
  -17.6456  -30.6586   24.0564 C   0  0  0  0  0  0
  -25.9053  -34.9460   23.5115 C   0  0  0  0  0  0
  -16.5349  -29.9081   23.6330 C   0  0  0  0  0  0
  -16.7270  -28.6496   23.0357 C   0  0  0  0  0  0
  -26.4492  -31.6593   25.0754 C   0  0  0  0  0  0
  -25.3721  -31.3731   26.1473 C   0  0  0  0  0  0
  -27.0332  -30.3010   24.6216 C   0  0  0  0  0  0
  -27.6056  -32.4325   25.7514 C   0  0  0  0  0  0
  -27.5586  -37.1801   24.8459 C   0  0  0  0  0  0
  -21.4184  -29.3044   22.3672 N   0  0  0  0  0  0
  -26.4296  -37.3785   23.9407 N   0  0  0  0  0  0
  -24.6877  -31.0650   22.1064 N   0  0  0  0  0  0
  -23.4203  -28.8158   23.2988 O   0  0  0  0  0  0
  -28.2680  -26.3964   20.2090 O   0  0  0  0  0  0
  -26.5611  -34.8912   22.4675 O   0  0  0  0  0  0
  -23.5413  -32.1446   23.7406 O   0  0  0  0  0  0
  -29.9347  -23.3532   19.8414 C   0  0  0  0  0  0
  -28.6764  -23.7120   20.3971 C   0  0  0  0  0  0
  -30.4654  -22.0370   20.0497 C   0  0  0  0  0  0
  -28.0485  -22.6990   21.1924 C   0  0  0  0  0  0
  -29.7487  -21.1003   20.8484 C   0  0  0  0  0  0
  -30.6804  -24.3875   19.0094 C   0  0  0  0  0  0
  -26.7547  -23.9201   23.0191 C   0  0  0  0  0  0
  -27.8897  -24.9906   19.9232 C   0  0  0  0  0  0
  -26.6980  -22.8966   21.8756 C   0  0  0  0  0  0
  -30.3249  -19.7048   21.2742 C   0  0  0  0  0  0
  -29.7259  -18.3483   20.7175 C   0  0  0  0  0  0
  -30.4890  -17.0575   21.2387 C   0  0  0  0  0  0
  -28.5798  -21.4657   21.4236 N   0  0  0  0  0  0
  -29.9539  -15.6932   20.9120 N   0  0  0  0  0  0
  -31.9753  -21.5737   19.3351 Cl  0  0  0  0  0  0
  -31.4665  -12.4867   19.1378 H   0  0  0  0  0  0
  -30.3459  -11.3873   19.8883 H   0  0  0  0  0  0
  -29.7545  -11.7563   17.4676 H   0  0  0  0  0  0
  -29.6496  -13.4777   17.7386 H   0  0  0  0  0  0
  -27.8473  -11.3027   18.8519 H   0  0  0  0  0  0
  -27.3677  -12.5996   17.7895 H   0  0  0  0  0  0
  -27.6708  -14.2591   19.5243 H   0  0  0  0  0  0
  -28.7013  -12.0687   21.3875 H   0  0  0  0  0  0
  -28.4493  -13.7355   21.8288 H   0  0  0  0  0  0
  -25.2783   -9.5665   22.4749 H   0  0  0  0  0  0
  -24.0014   -7.4622   22.7468 H   0  0  0  0  0  0
  -21.0848   -8.8770   19.8950 H   0  0  0  0  0  0
  -22.3714  -10.9669   19.6164 H   0  0  0  0  0  0
  -21.2004   -7.6155   23.9709 H   0  0  0  0  0  0
  -21.1466   -6.0537   25.9076 H   0  0  0  0  0  0
  -22.0611   -2.7616   23.2846 H   0  0  0  0  0  0
  -22.4178  -11.9841   22.4734 H   0  0  0  0  0  0
  -21.1156  -13.1203   22.2675 H   0  0  0  0  0  0
  -24.6673  -15.8502   20.5201 H   0  0  0  0  0  0
  -26.2832  -15.6229   20.0784 H   0  0  0  0  0  0
  -26.7167  -32.5475   23.1142 H   0  0  0  0  0  0
  -25.0082  -33.9770   25.0458 H   0  0  0  0  0  0
  -22.7105  -31.3148   21.4170 H   0  0  0  0  0  0
  -23.3760  -35.9626   23.3290 H   0  0  0  0  0  0
  -24.3597  -36.8930   22.2055 H   0  0  0  0  0  0
  -23.7231  -37.6491   23.6663 H   0  0  0  0  0  0
  -26.1031  -31.5606   20.6291 H   0  0  0  0  0  0
  -26.8421  -30.8321   22.0222 H   0  0  0  0  0  0
  -28.0930  -28.9377   21.2514 H   0  0  0  0  0  0
  -25.9307  -26.0499   18.8385 H   0  0  0  0  0  0
  -23.9699  -27.4058   18.9224 H   0  0  0  0  0  0
  -23.7484  -30.6317   19.4142 H   0  0  0  0  0  0
  -22.7540  -29.2764   19.8552 H   0  0  0  0  0  0
  -25.1294  -36.1957   25.0817 H   0  0  0  0  0  0
  -20.9981  -28.3260   24.1402 H   0  0  0  0  0  0
  -20.5698  -26.2291   23.3605 H   0  0  0  0  0  0
  -21.6642  -26.7449   22.1189 H   0  0  0  0  0  0
  -19.6913  -25.6294   21.1242 H   0  0  0  0  0  0
  -19.6685  -27.3197   20.6751 H   0  0  0  0  0  0
  -17.4199  -26.6673   21.4034 H   0  0  0  0  0  0
  -18.0332  -26.0066   22.9026 H   0  0  0  0  0  0
  -19.7935  -30.7270   24.2274 H   0  0  0  0  0  0
  -17.5010  -31.6269   24.5159 H   0  0  0  0  0  0
  -15.5351  -30.2984   23.7652 H   0  0  0  0  0  0
  -15.8670  -28.0816   22.7073 H   0  0  0  0  0  0
  -24.5891  -30.7094   25.7784 H   0  0  0  0  0  0
  -24.8922  -32.2903   26.4898 H   0  0  0  0  0  0
  -25.8038  -30.8894   27.0243 H   0  0  0  0  0  0
  -26.2913  -29.6765   24.1227 H   0  0  0  0  0  0
  -27.4001  -29.7261   25.4728 H   0  0  0  0  0  0
  -27.8800  -30.4282   23.9469 H   0  0  0  0  0  0
  -27.2669  -33.3623   26.2095 H   0  0  0  0  0  0
  -28.3856  -32.6892   25.0333 H   0  0  0  0  0  0
  -28.0732  -31.8450   26.5424 H   0  0  0  0  0  0
  -28.2581  -38.0119   24.7535 H   0  0  0  0  0  0
  -28.1102  -36.2651   24.6249 H   0  0  0  0  0  0
  -27.2307  -37.1403   25.8860 H   0  0  0  0  0  0
  -20.9352  -29.8790   21.6912 H   0  0  0  0  0  0
  -26.0178  -38.2857   24.1428 H   0  0  0  0  0  0
  -30.7862  -25.3072   19.5851 H   0  0  0  0  0  0
  -30.1300  -24.6195   18.0981 H   0  0  0  0  0  0
  -31.6843  -24.0824   18.7219 H   0  0  0  0  0  0
  -25.7791  -24.0198   23.4944 H   0  0  0  0  0  0
  -27.0515  -24.9078   22.6664 H   0  0  0  0  0  0
  -27.4722  -23.6132   23.7810 H   0  0  0  0  0  0
  -26.8856  -24.8416   20.2993 H   0  0  0  0  0  0
  -27.8084  -24.8937   18.8400 H   0  0  0  0  0  0
  -26.3602  -21.9444   22.2891 H   0  0  0  0  0  0
  -25.9331  -23.1583   21.1447 H   0  0  0  0  0  0
  -30.2450  -19.6698   22.3611 H   0  0  0  0  0  0
  -31.3982  -19.6970   21.0944 H   0  0  0  0  0  0
  -29.7552  -18.3679   19.6275 H   0  0  0  0  0  0
  -28.6740  -18.2952   20.9953 H   0  0  0  0  0  0
  -30.5209  -17.1051   22.3282 H   0  0  0  0  0  0
  -31.5289  -17.1297   20.9158 H   0  0  0  0  0  0
  -28.9788  -15.5276   21.1126 H   0  0  0  0  0  0
  1 25  1  0  0  0
  1 30  2  0  0  0
  1 84  1  0  0  0
  2  3  1  0  0  0
  2 25  1  0  0  0
  2 86  1  0  0  0
  2 87  1  0  0  0
  3  4  1  0  0  0
  3 88  1  0  0  0
  3 89  1  0  0  0
  4  5  1  0  0  0
  4 90  1  0  0  0
  4 91  1  0  0  0
  5  6  1  0  0  0
  5 26  1  0  0  0
  5 92  1  0  0  0
  6 25  1  0  0  0
  6 93  1  0  0  0
  6 94  1  0  0  0
  7  8  2  0  0  0
  7 26  1  0  0  0
  7 29  1  0  0  0
  8  9  1  0  0  0
  8 22  1  0  0  0
  9 10  1  0  0  0
  9 27  2  0  0  0
 10 11  2  0  0  0
 10 15  1  0  0  0
 11 12  1  0  0  0
 11 95  1  0  0  0
 12 13  2  0  0  0
 12 96  1  0  0  0
 13 14  1  0  0  0
 13 31  1  0  0  0
 14 15  2  0  0  0
 14 97  1  0  0  0
 15 98  1  0  0  0
 16 17  2  0  0  0
 16 21  1  0  0  0
 16 31  1  0  0  0
 17 18  1  0  0  0
 17 99  1  0  0  0
 18 19  2  0  0  0
 18100  1  0  0  0
 19 20  1  0  0  0
 19 24  1  0  0  0
 20 21  2  0  0  0
 20101  1  0  0  0
 21 23  1  0  0  0
 22 28  1  0  0  0
 22 32  2  0  0  0
 26 27  1  0  0  0
 28102  1  0  0  0
 28103  1  0  0  0
 29104  1  0  0  0
 29105  1  0  0  0
 33 34  1  0  0  0
 33 66  1  0  0  0
 33 70  2  0  0  0
 34 36  1  0  0  0
 34 59  1  0  0  0
 34106  1  0  0  0
 35 44  2  0  0  0
 35 45  1  0  0  0
 35 68  1  0  0  0
 36 56  1  0  0  0
 36107  1  0  0  0
 37 39  1  0  0  0
 37 47  1  0  0  0
 37 66  1  0  0  0
 37108  1  0  0  0
 38 43  2  0  0  0
 38 46  1  0  0  0
 38 47  1  0  0  0
 39 64  1  0  0  0
 39 67  2  0  0  0
 40 52  1  0  0  0
 40 53  2  0  0  0
 40 58  1  0  0  0
 41109  1  0  0  0
 41110  1  0  0  0
 41111  1  0  0  0
 41 48  1  0  0  0
 42 43  1  0  0  0
 42 66  1  0  0  0
 42112  1  0  0  0
 42113  1  0  0  0
 43 44  1  0  0  0
 44114  1  0  0  0
 45 46  2  0  0  0
 45115  1  0  0  0
 46116  1  0  0  0
 47117  1  0  0  0
 47118  1  0  0  0
 48 56  1  0  0  0
 48 65  1  0  0  0
 48119  1  0  0  0
 49 50  1  0  0  0
 49 53  1  0  0  0
 49 64  1  0  0  0
 49120  1  0  0  0
 50 51  1  0  0  0
 50121  1  0  0  0
 50122  1  0  0  0
 51 52  1  0  0  0
 51123  1  0  0  0
 51124  1  0  0  0
 52125  1  0  0  0
 52126  1  0  0  0
 53 54  1  0  0  0
 54 55  2  0  0  0
 54127  1  0  0  0
 55 57  1  0  0  0
 55128  1  0  0  0
 56 69  2  0  0  0
 57 58  2  0  0  0
 57129  1  0  0  0
 58130  1  0  0  0
 59 60  1  0  0  0
 59 61  1  0  0  0
 59 62  1  0  0  0
 60131  1  0  0  0
 60132  1  0  0  0
 60133  1  0  0  0
 61134  1  0  0  0
 61135  1  0  0  0
 61136  1  0  0  0
 62137  1  0  0  0
 62138  1  0  0  0
 62139  1  0  0  0
 63 65  1  0  0  0
 63140  1  0  0  0
 63141  1  0  0  0
 63142  1  0  0  0
 64143  1  0  0  0
 65144  1  0  0  0
 68 78  1  0  0  0
 71 72  2  0  0  0
 71 73  1  0  0  0
 71 76  1  0  0  0
 72 74  1  0  0  0
 72 78  1  0  0  0
 73 75  2  0  0  0
 73 85  1  0  0  0
 74 79  1  0  0  0
 74 83  2  0  0  0
 75 80  1  0  0  0
 75 83  1  0  0  0
 76145  1  0  0  0
 76146  1  0  0  0
 76147  1  0  0  0
 77 79  1  0  0  0
 77148  1  0  0  0
 77149  1  0  0  0
 77150  1  0  0  0
 78151  1  0  0  0
 78152  1  0  0  0
 79153  1  0  0  0
 79154  1  0  0  0
 80 81  1  0  0  0
 80155  1  0  0  0
 80156  1  0  0  0
 81 82  1  0  0  0
 81157  1  0  0  0
 81158  1  0  0  0
 82 84  1  0  0  0
 82159  1  0  0  0
 82160  1  0  0  0
 84161  1  0  0  0
M  ISO  4   1 100  68 101  78 101  84 100
M  END
> <chiral flag>
0

> <version>
0

> <s_m_source_file>
/data/baiqing/PycharmProjects/Reinvent-master-3.2/result/LINK_invent/BTK/process_docking_weight1_custom_sum_contain_oxygen_bond_distance_aromatic_linkinvent_7_9_3/rearranged_h_0029.sdf

> <i_m_source_file_index>
70

> <r_mmod_Potential_Energy-OPLS-2005>
-37.9571380615234

> <r_mmod_Stretch_Energy-OPLS-2005>
77.1290740966797

> <r_mmod_Bend_Energy-OPLS-2005>
141.871673583984

> <r_mmod_Torsional_Energy-OPLS-2005>
205.80094909668

> <r_mmod_Improper_Torsional_Energy-OPLS-2005>
6.08808088302612

> <r_mmod_Van_der_Waal_Energy-OPLS-2005>
168.200042724609

> <r_mmod_Electrostatic_Energy-OPLS-2005>
-476.772125244141

> <r_mmod_Solvation_Energy-OPLS-2005>
-213.180633544922

> <b_mmod_Minimization_Converged-OPLS-2005>
0

> <r_mmod_RMS_Derivative-OPLS-2005>
1.6750922203064

$$$$
70
                    3D
 Structure written by MMmdl.
157165  0  0  1  0            999 V2000
  -30.4095  -15.3636   20.3890 C   0  0  0  0  0  0
  -30.4439  -12.8808   19.5491 C   0  0  0  0  0  0
  -29.5471  -12.6111   18.3126 C   0  0  0  0  0  0
  -28.1024  -12.3081   18.7420 C   0  0  0  0  0  0
  -27.6119  -13.2897   19.8334 C   0  0  2  0  0  0
  -28.6413  -13.4994   20.9669 C   0  0  0  0  0  0
  -25.2353  -13.8271   20.5806 C   0  0  0  0  0  0
  -24.1732  -13.0446   20.9286 C   0  0  0  0  0  0
  -24.6405  -11.6940   20.8770 C   0  0  0  0  0  0
  -23.9096  -10.4306   21.0394 C   0  0  0  0  0  0
  -24.3630   -9.4216   21.9176 C   0  0  0  0  0  0
  -23.6299   -8.2252   22.0750 C   0  0  0  0  0  0
  -22.4280   -8.0291   21.3543 C   0  0  0  0  0  0
  -21.9919   -9.0269   20.4648 C   0  0  0  0  0  0
  -22.7256  -10.2142   20.3058 C   0  0  0  0  0  0
  -21.6858   -6.0735   22.5277 C   0  0  0  0  0  0
  -21.4022   -6.5632   23.8202 C   0  0  0  0  0  0
  -21.3659   -5.6787   24.9159 C   0  0  0  0  0  0
  -21.6049   -4.3046   24.7209 C   0  0  0  0  0  0
  -21.8815   -3.8143   23.4325 C   0  0  0  0  0  0
  -21.9196   -4.6967   22.3391 C   0  0  0  0  0  0
  -22.7732  -13.5168   21.1924 C   0  0  0  0  0  0
  -22.1664   -4.2149   21.0972 F   0  0  0  0  0  0
  -21.5620   -3.4527   25.7733 F   0  0  0  0  0  0
  -29.8643  -14.0364   20.3402 N   0  0  0  0  0  0
  -26.2819  -12.9589   20.3287 N   0  0  0  0  0  0
  -25.9356  -11.6670   20.5749 N   0  0  0  0  0  0
  -22.0392  -12.8178   22.0478 N   0  0  0  0  0  0
  -25.3912  -15.2032   20.4249 N   0  0  0  0  0  0
  -31.6325  -15.3549   20.1756 O   0  0  0  0  0  0
  -21.6648   -6.8881   21.4244 O   0  0  0  0  0  0
  -22.3424  -14.5481   20.6757 O   0  0  0  0  0  0
  -24.6653  -31.8149   23.1620 C   0  0  0  0  0  0
  -25.9295  -32.4559   23.8108 C   0  0  1  0  0  0
  -27.2627  -26.8390   20.2265 C   0  0  0  0  0  0
  -25.5945  -33.8382   24.2026 N   0  0  0  0  0  0
  -23.4913  -30.4082   21.5155 C   0  0  2  0  0  0
  -24.9611  -28.7759   20.1222 C   0  0  0  0  0  0
  -22.7705  -29.4297   22.4789 C   0  0  0  0  0  0
  -18.0325  -28.1353   22.8474 C   0  0  0  0  0  0
  -24.1504  -36.7178   23.2659 C   0  0  0  0  0  0
  -26.0605  -30.5921   21.4134 C   0  0  0  0  0  0
  -26.1407  -29.1681   20.7667 C   0  0  0  0  0  0
  -27.2744  -28.2220   20.7972 C   0  0  0  0  0  0
  -26.0505  -26.6198   19.5264 C   0  0  0  0  0  0
  -24.9465  -27.5211   19.4830 C   0  0  0  0  0  0
  -23.7450  -29.7096   20.1482 C   0  0  0  0  0  0
  -25.4154  -36.2958   24.0300 C   0  0  1  0  0  0
  -20.5942  -28.3675   23.1218 C   0  0  2  0  0  0
  -20.6790  -26.9343   22.5427 C   0  0  0  0  0  0
  -19.5786  -26.6322   21.5216 C   0  0  0  0  0  0
  -18.1959  -26.7893   22.1605 C   0  0  0  0  0  0
  -19.1588  -28.8840   23.2818 C   0  0  0  0  0  0
  -18.9504  -30.1442   23.8827 C   0  0  0  0  0  0
  -17.6496  -30.6565   24.0520 C   0  0  0  0  0  0
  -25.9101  -34.9342   23.4993 C   0  0  0  0  0  0
  -16.5383  -29.9035   23.6343 C   0  0  0  0  0  0
  -16.7308  -28.6447   23.0385 C   0  0  0  0  0  0
  -26.4534  -31.6540   25.0662 C   0  0  0  0  0  0
  -25.3627  -31.3833   26.1293 C   0  0  0  0  0  0
  -27.0454  -30.2903   24.6451 C   0  0  0  0  0  0
  -27.6021  -32.4369   25.7461 C   0  0  0  0  0  0
  -27.5573  -37.1748   24.8476 C   0  0  0  0  0  0
  -21.4361  -29.2956   22.3573 N   0  0  0  0  0  0
  -26.4298  -37.3678   23.9386 N   0  0  0  0  0  0
  -24.7598  -30.9667   22.0847 N   0  0  0  0  0  0
  -23.4213  -28.7884   23.3069 O   0  0  0  0  0  0
  -28.2799  -25.7151   20.3530 O   0  0  0  0  0  0
  -26.5738  -34.8892   22.4612 O   0  0  0  0  0  0
  -23.5686  -32.1177   23.6622 O   0  0  0  0  0  0
  -31.0150  -18.9708   20.3717 C   0  0  0  0  0  0
  -28.9226  -19.4861   20.5232 C   0  0  0  0  0  0
  -29.7797  -18.2830   20.4518 C   0  0  0  0  0  0
  -30.9259  -20.3637   20.5685 C   0  0  0  0  0  0
  -33.4546  -20.2314   21.0440 C   0  0  0  0  0  0
  -32.2320  -22.0411   22.0919 C   0  0  0  0  0  0
  -32.5687  -21.9719   19.5525 C   0  0  0  0  0  0
  -29.0939  -22.5446   20.8203 C   0  0  0  0  0  0
  -28.2380  -24.0295   20.0900 C   0  0  0  0  0  0
  -32.2252  -21.1647   20.8098 C   0  0  0  0  0  0
  -29.5599  -20.8767   20.5363 N   0  0  0  0  0  0
  -29.6161  -16.6414   20.4818 N   0  0  0  0  0  0
  -31.4588  -13.0994   19.2135 H   0  0  0  0  0  0
  -30.5327  -11.9876   20.1707 H   0  0  0  0  0  0
  -29.9489  -11.7887   17.7191 H   0  0  0  0  0  0
  -29.5544  -13.4924   17.6680 H   0  0  0  0  0  0
  -28.0837  -11.2921   19.1367 H   0  0  0  0  0  0
  -27.4330  -12.3205   17.8812 H   0  0  0  0  0  0
  -27.5165  -14.2484   19.3227 H   0  0  0  0  0  0
  -28.8293  -12.5776   21.5184 H   0  0  0  0  0  0
  -28.2649  -14.2214   21.6919 H   0  0  0  0  0  0
  -25.2762   -9.5699   22.4774 H   0  0  0  0  0  0
  -24.0001   -7.4645   22.7486 H   0  0  0  0  0  0
  -21.0842   -8.8797   19.8968 H   0  0  0  0  0  0
  -22.3700  -10.9683   19.6193 H   0  0  0  0  0  0
  -21.2017   -7.6140   23.9716 H   0  0  0  0  0  0
  -21.1484   -6.0508   25.9075 H   0  0  0  0  0  0
  -22.0594   -2.7606   23.2830 H   0  0  0  0  0  0
  -22.3999  -11.9834   22.4862 H   0  0  0  0  0  0
  -21.1022  -13.1216   22.2707 H   0  0  0  0  0  0
  -24.6079  -15.8372   20.5421 H   0  0  0  0  0  0
  -26.2137  -15.6568   20.0526 H   0  0  0  0  0  0
  -26.7366  -32.5092   23.0816 H   0  0  0  0  0  0
  -25.0014  -33.9469   25.0114 H   0  0  0  0  0  0
  -22.8054  -31.2364   21.3335 H   0  0  0  0  0  0
  -23.3786  -35.9490   23.3354 H   0  0  0  0  0  0
  -24.3558  -36.8806   22.2065 H   0  0  0  0  0  0
  -23.7262  -37.6371   23.6704 H   0  0  0  0  0  0
  -26.2391  -31.3262   20.6285 H   0  0  0  0  0  0
  -26.9176  -30.6645   22.0700 H   0  0  0  0  0  0
  -28.1548  -28.5174   21.3534 H   0  0  0  0  0  0
  -25.9228  -25.6597   19.0470 H   0  0  0  0  0  0
  -24.0498  -27.2030   18.9686 H   0  0  0  0  0  0
  -23.9036  -30.4758   19.3882 H   0  0  0  0  0  0
  -22.8561  -29.1605   19.8312 H   0  0  0  0  0  0
  -25.1362  -36.1768   25.0791 H   0  0  0  0  0  0
  -20.9999  -28.3259   24.1354 H   0  0  0  0  0  0
  -20.5667  -26.2251   23.3656 H   0  0  0  0  0  0
  -21.6664  -26.7318   22.1237 H   0  0  0  0  0  0
  -19.6954  -25.6223   21.1286 H   0  0  0  0  0  0
  -19.6775  -27.3108   20.6739 H   0  0  0  0  0  0
  -17.4240  -26.6654   21.3998 H   0  0  0  0  0  0
  -18.0315  -26.0029   22.8990 H   0  0  0  0  0  0
  -19.7994  -30.7253   24.2175 H   0  0  0  0  0  0
  -17.5070  -31.6269   24.5079 H   0  0  0  0  0  0
  -15.5384  -30.2907   23.7734 H   0  0  0  0  0  0
  -15.8714  -28.0748   22.7143 H   0  0  0  0  0  0
  -24.5826  -30.7181   25.7563 H   0  0  0  0  0  0
  -24.8782  -32.3049   26.4521 H   0  0  0  0  0  0
  -25.7787  -30.9102   27.0193 H   0  0  0  0  0  0
  -26.3128  -29.6556   24.1443 H   0  0  0  0  0  0
  -27.3959  -29.7298   25.5118 H   0  0  0  0  0  0
  -27.9084  -30.4084   23.9904 H   0  0  0  0  0  0
  -27.2604  -33.3745   26.1851 H   0  0  0  0  0  0
  -28.3902  -32.6810   25.0335 H   0  0  0  0  0  0
  -28.0601  -31.8622   26.5524 H   0  0  0  0  0  0
  -28.2591  -38.0031   24.7462 H   0  0  0  0  0  0
  -28.1079  -36.2556   24.6403 H   0  0  0  0  0  0
  -27.2268  -37.1484   25.8874 H   0  0  0  0  0  0
  -20.9607  -29.8644   21.6719 H   0  0  0  0  0  0
  -26.0181  -38.2751   24.1390 H   0  0  0  0  0  0
  -31.9441  -18.4278   20.2760 H   0  0  0  0  0  0
  -27.8461  -19.4770   20.6288 H   0  0  0  0  0  0
  -33.2784  -19.5186   21.8521 H   0  0  0  0  0  0
  -34.3545  -20.7843   21.3211 H   0  0  0  0  0  0
  -33.7331  -19.6641   20.1553 H   0  0  0  0  0  0
  -31.8372  -21.5026   22.9537 H   0  0  0  0  0  0
  -31.7177  -22.9893   22.0087 H   0  0  0  0  0  0
  -33.2474  -22.3285   22.3698 H   0  0  0  0  0  0
  -32.6812  -21.2900   18.7067 H   0  0  0  0  0  0
  -33.5129  -22.5076   19.6639 H   0  0  0  0  0  0
  -31.7944  -22.6877   19.2857 H   0  0  0  0  0  0
  -28.7223  -22.5210   21.8432 H   0  0  0  0  0  0
  -30.0584  -23.0140   20.9102 H   0  0  0  0  0  0
  -27.1728  -23.7916   20.1346 H   0  0  0  0  0  0
  -28.4658  -23.9585   19.0284 H   0  0  0  0  0  0
  -28.6491  -16.3819   20.6067 H   0  0  0  0  0  0
  1 25  1  0  0  0
  1 30  2  0  0  0
  1 82  1  0  0  0
  2  3  1  0  0  0
  2 25  1  0  0  0
  2 83  1  0  0  0
  2 84  1  0  0  0
  3  4  1  0  0  0
  3 85  1  0  0  0
  3 86  1  0  0  0
  4  5  1  0  0  0
  4 87  1  0  0  0
  4 88  1  0  0  0
  5  6  1  0  0  0
  5 26  1  0  0  0
  5 89  1  0  0  0
  6 25  1  0  0  0
  6 90  1  0  0  0
  6 91  1  0  0  0
  7  8  2  0  0  0
  7 26  1  0  0  0
  7 29  1  0  0  0
  8  9  1  0  0  0
  8 22  1  0  0  0
  9 10  1  0  0  0
  9 27  2  0  0  0
 10 11  2  0  0  0
 10 15  1  0  0  0
 11 12  1  0  0  0
 11 92  1  0  0  0
 12 13  2  0  0  0
 12 93  1  0  0  0
 13 14  1  0  0  0
 13 31  1  0  0  0
 14 15  2  0  0  0
 14 94  1  0  0  0
 15 95  1  0  0  0
 16 17  2  0  0  0
 16 21  1  0  0  0
 16 31  1  0  0  0
 17 18  1  0  0  0
 17 96  1  0  0  0
 18 19  2  0  0  0
 18 97  1  0  0  0
 19 20  1  0  0  0
 19 24  1  0  0  0
 20 21  2  0  0  0
 20 98  1  0  0  0
 21 23  1  0  0  0
 22 28  1  0  0  0
 22 32  2  0  0  0
 26 27  1  0  0  0
 28 99  1  0  0  0
 28100  1  0  0  0
 29101  1  0  0  0
 29102  1  0  0  0
 33 34  1  0  0  0
 33 66  1  0  0  0
 33 70  2  0  0  0
 34 36  1  0  0  0
 34 59  1  0  0  0
 34103  1  0  0  0
 35 44  2  0  0  0
 35 45  1  0  0  0
 35 68  1  0  0  0
 36 56  1  0  0  0
 36104  1  0  0  0
 37 39  1  0  0  0
 37 47  1  0  0  0
 37 66  1  0  0  0
 37105  1  0  0  0
 38 43  2  0  0  0
 38 46  1  0  0  0
 38 47  1  0  0  0
 39 64  1  0  0  0
 39 67  2  0  0  0
 40 52  1  0  0  0
 40 53  2  0  0  0
 40 58  1  0  0  0
 41106  1  0  0  0
 41107  1  0  0  0
 41108  1  0  0  0
 41 48  1  0  0  0
 42 43  1  0  0  0
 42 66  1  0  0  0
 42109  1  0  0  0
 42110  1  0  0  0
 43 44  1  0  0  0
 44111  1  0  0  0
 45 46  2  0  0  0
 45112  1  0  0  0
 46113  1  0  0  0
 47114  1  0  0  0
 47115  1  0  0  0
 48 56  1  0  0  0
 48 65  1  0  0  0
 48116  1  0  0  0
 49 50  1  0  0  0
 49 53  1  0  0  0
 49 64  1  0  0  0
 49117  1  0  0  0
 50 51  1  0  0  0
 50118  1  0  0  0
 50119  1  0  0  0
 51 52  1  0  0  0
 51120  1  0  0  0
 51121  1  0  0  0
 52122  1  0  0  0
 52123  1  0  0  0
 53 54  1  0  0  0
 54 55  2  0  0  0
 54124  1  0  0  0
 55 57  1  0  0  0
 55125  1  0  0  0
 56 69  2  0  0  0
 57 58  2  0  0  0
 57126  1  0  0  0
 58127  1  0  0  0
 59 60  1  0  0  0
 59 61  1  0  0  0
 59 62  1  0  0  0
 60128  1  0  0  0
 60129  1  0  0  0
 60130  1  0  0  0
 61131  1  0  0  0
 61132  1  0  0  0
 61133  1  0  0  0
 62134  1  0  0  0
 62135  1  0  0  0
 62136  1  0  0  0
 63 65  1  0  0  0
 63137  1  0  0  0
 63138  1  0  0  0
 63139  1  0  0  0
 64140  1  0  0  0
 65141  1  0  0  0
 68 79  1  0  0  0
 71 73  1  0  0  0
 71 74  2  0  0  0
 71142  1  0  0  0
 72 73  2  0  0  0
 72 81  1  0  0  0
 72143  1  0  0  0
 73 82  1  0  0  0
 74 80  1  0  0  0
 74 81  1  0  0  0
 75144  1  0  0  0
 75145  1  0  0  0
 75146  1  0  0  0
 75 80  1  0  0  0
 76 80  1  0  0  0
 76147  1  0  0  0
 76148  1  0  0  0
 76149  1  0  0  0
 77 80  1  0  0  0
 77150  1  0  0  0
 77151  1  0  0  0
 77152  1  0  0  0
 78 79  1  0  0  0
 78 81  1  0  0  0
 78153  1  0  0  0
 78154  1  0  0  0
 79155  1  0  0  0
 79156  1  0  0  0
 82157  1  0  0  0
M  ISO  4   1 100  68 101  79 101  82 100
M  END
> <chiral flag>
0

> <version>
0

> <s_m_source_file>
/data/baiqing/PycharmProjects/Reinvent-master-3.2/result/LINK_invent/BTK/process_docking_weight1_custom_sum_contain_oxygen_bond_distance_aromatic_linkinvent_7_9_3/rearranged_h_0029.sdf

> <i_m_source_file_index>
71

> <r_mmod_Potential_Energy-OPLS-2005>
1686.58020019531

> <r_mmod_Stretch_Energy-OPLS-2005>
757.934020996094

> <r_mmod_Bend_Energy-OPLS-2005>
577.344482421875

> <r_mmod_Torsional_Energy-OPLS-2005>
242.603530883789

> <r_mmod_Improper_Torsional_Energy-OPLS-2005>
7.57878875732422

> <r_mmod_Van_der_Waal_Energy-OPLS-2005>
123.197036743164

> <r_mmod_Electrostatic_Energy-OPLS-2005>
-390.480194091797

> <r_mmod_Solvation_Energy-OPLS-2005>
-212.774063110352

> <b_mmod_Minimization_Converged-OPLS-2005>
0

> <r_mmod_RMS_Derivative-OPLS-2005>
4.42734622955322

$$$$
71
                    3D
 Structure written by MMmdl.
150158  0  0  1  0            999 V2000
  -29.2868  -16.3848   20.3351 C   0  0  0  0  0  0
  -30.1660  -13.7452   19.5857 C   0  0  0  0  0  0
  -29.5086  -12.8914   18.4319 C   0  0  0  0  0  0
  -28.1595  -12.3049   18.8645 C   0  0  0  0  0  0
  -27.4731  -13.3172   19.7933 C   0  0  2  0  0  0
  -28.3349  -13.8654   20.9344 C   0  0  0  0  0  0
  -25.1757  -13.8192   20.5795 C   0  0  0  0  0  0
  -24.1284  -13.0308   20.9336 C   0  0  0  0  0  0
  -24.6056  -11.6837   20.8788 C   0  0  0  0  0  0
  -23.8887  -10.4215   21.0446 C   0  0  0  0  0  0
  -24.3523   -9.4157   21.9200 C   0  0  0  0  0  0
  -23.6248   -8.2166   22.0753 C   0  0  0  0  0  0
  -22.4228   -8.0202   21.3538 C   0  0  0  0  0  0
  -21.9823   -9.0144   20.4630 C   0  0  0  0  0  0
  -22.7104  -10.2038   20.3057 C   0  0  0  0  0  0
  -21.6826   -6.0701   22.5293 C   0  0  0  0  0  0
  -21.3998   -6.5626   23.8221 C   0  0  0  0  0  0
  -21.3654   -5.6784   24.9187 C   0  0  0  0  0  0
  -21.6041   -4.3047   24.7237 C   0  0  0  0  0  0
  -21.8820   -3.8129   23.4366 C   0  0  0  0  0  0
  -21.9187   -4.6937   22.3419 C   0  0  0  0  0  0
  -22.7372  -13.5073   21.2013 C   0  0  0  0  0  0
  -22.1656   -4.2137   21.0990 F   0  0  0  0  0  0
  -21.5632   -3.4533   25.7749 F   0  0  0  0  0  0
  -29.2118  -14.8387   20.2608 N   0  0  0  0  0  0
  -26.1968  -12.9420   20.2971 N   0  0  0  0  0  0
  -25.8914  -11.6506   20.5537 N   0  0  0  0  0  0
  -22.0080  -12.8076   22.0612 N   0  0  0  0  0  0
  -25.3426  -15.1963   20.4373 N   0  0  0  0  0  0
  -30.5615  -16.4050   20.2075 O   0  0  0  0  0  0
  -21.6599   -6.8813   21.4246 O   0  0  0  0  0  0
  -22.3096  -14.5396   20.6853 O   0  0  0  0  0  0
  -24.7345  -31.4396   22.6783 C   0  0  0  0  0  0
  -25.8791  -32.2804   23.5338 C   0  0  1  0  0  0
  -26.6126  -28.0758   21.5707 C   0  0  0  0  0  0
  -25.4562  -33.6708   23.9273 N   0  0  0  0  0  0
  -24.3951  -28.8641   20.6999 C   0  0  2  0  0  0
  -25.6608  -28.9777   19.2500 C   0  0  0  0  0  0
  -23.6586  -27.3182   22.6961 C   0  0  0  0  0  0
  -18.1767  -28.1231   22.7737 C   0  0  0  0  0  0
  -24.1387  -36.6600   23.2792 C   0  0  0  0  0  0
  -26.0094  -31.0468   20.6469 C   0  0  0  0  0  0
  -26.5448  -29.7809   20.0782 C   0  0  0  0  0  0
  -27.3616  -29.0984   20.9981 C   0  0  0  0  0  0
  -26.5369  -27.1071   20.4143 C   0  0  0  0  0  0
  -25.9822  -27.5901   19.1749 C   0  0  0  0  0  0
  -24.1661  -29.2383   19.2873 C   0  0  0  0  0  0
  -25.4093  -36.1900   24.0078 C   0  0  1  0  0  0
  -20.7756  -27.6598   23.5200 C   0  0  2  0  0  0
  -20.2468  -26.3191   23.0208 C   0  0  0  0  0  0
  -19.4958  -26.3763   21.6770 C   0  0  0  0  0  0
  -18.1061  -26.8249   22.0126 C   0  0  0  0  0  0
  -19.4363  -28.6489   23.2836 C   0  0  0  0  0  0
  -19.2513  -29.9275   23.9138 C   0  0  0  0  0  0
  -17.9796  -30.5699   24.0585 C   0  0  0  0  0  0
  -25.8967  -34.8378   23.4073 C   0  0  0  0  0  0
  -16.7929  -29.9652   23.6082 C   0  0  0  0  0  0
  -16.9105  -28.7344   22.9570 C   0  0  0  0  0  0
  -26.4084  -31.6240   24.9116 C   0  0  0  0  0  0
  -25.3179  -31.3972   25.9919 C   0  0  0  0  0  0
  -27.0711  -30.2649   24.6442 C   0  0  0  0  0  0
  -27.5192  -32.4877   25.5968 C   0  0  0  0  0  0
  -27.5381  -37.1308   24.8450 C   0  0  0  0  0  0
  -22.1272  -27.2529   22.8292 N   0  0  0  0  0  0
  -26.4028  -37.2945   23.9435 N   0  0  0  0  0  0
  -24.8629  -30.6275   21.3913 N   0  0  0  0  0  0
  -23.8961  -27.6703   23.8639 O   0  0  0  0  0  0
  -25.4227  -28.7519   22.5042 O   0  0  0  0  0  0
  -26.6583  -34.8642   22.4401 O   0  0  0  0  0  0
  -23.6519  -31.6560   23.2660 O   0  0  0  0  0  0
  -24.9983  -21.5663   20.9332 C   0  0  0  0  0  0
  -27.3915  -21.0998   20.0485 C   0  0  0  0  0  0
  -25.1359  -23.1031   20.5326 C   0  0  0  0  0  0
  -27.2288  -19.5605   20.4486 C   0  0  0  0  0  0
  -25.8135  -20.1321   20.8984 C   0  0  0  0  0  0
  -26.5586  -22.5374   20.0564 C   0  0  0  0  0  0
  -23.7657  -24.8443   20.5306 C   0  0  0  0  0  0
  -22.8045  -27.0086   20.5058 C   0  0  0  0  0  0
  -22.8904  -29.3302   22.0733 C   0  0  0  0  0  0
  -28.1625  -17.7637   20.4145 N   0  0  0  0  0  0
  -24.8272  -18.8542   21.5260 Cl  0  0  0  0  0  0
  -27.4767  -23.7786   19.2839 Cl  0  0  0  0  0  0
  -31.0326  -14.2488   19.1608 H   0  0  0  0  0  0
  -30.6058  -13.0895   20.3386 H   0  0  0  0  0  0
  -30.1838  -12.1048   18.0948 H   0  0  0  0  0  0
  -29.3431  -13.5436   17.5705 H   0  0  0  0  0  0
  -28.3241  -11.3680   19.3957 H   0  0  0  0  0  0
  -27.5378  -12.0678   17.9989 H   0  0  0  0  0  0
  -27.2523  -14.1426   19.1106 H   0  0  0  0  0  0
  -28.8333  -13.0771   21.5015 H   0  0  0  0  0  0
  -27.7372  -14.4156   21.6616 H   0  0  0  0  0  0
  -25.2662   -9.5684   22.4772 H   0  0  0  0  0  0
  -23.9976   -7.4568   22.7478 H   0  0  0  0  0  0
  -21.0753   -8.8627   19.8942 H   0  0  0  0  0  0
  -22.3544  -10.9569   19.6165 H   0  0  0  0  0  0
  -21.1980   -7.6135   23.9722 H   0  0  0  0  0  0
  -21.1478   -6.0516   25.9090 H   0  0  0  0  0  0
  -22.0606   -2.7598   23.2861 H   0  0  0  0  0  0
  -22.3738  -11.9741   22.4975 H   0  0  0  0  0  0
  -21.0693  -13.1087   22.2863 H   0  0  0  0  0  0
  -24.5988  -15.8548   20.6317 H   0  0  0  0  0  0
  -26.2042  -15.6524   20.1642 H   0  0  0  0  0  0
  -26.7712  -32.3955   22.9365 H   0  0  0  0  0  0
  -24.7792  -33.7183   24.6722 H   0  0  0  0  0  0
  -24.6163  -27.8726   20.8273 H   0  0  0  0  0  0
  -23.3577  -35.8983   23.3068 H   0  0  0  0  0  0
  -24.3405  -36.8802   22.2304 H   0  0  0  0  0  0
  -23.7233  -37.5591   23.7351 H   0  0  0  0  0  0
  -25.6613  -31.6804   19.8327 H   0  0  0  0  0  0
  -26.8079  -31.5952   21.1251 H   0  0  0  0  0  0
  -27.8128  -29.7449   21.7331 H   0  0  0  0  0  0
  -26.4007  -26.0506   20.6028 H   0  0  0  0  0  0
  -25.4432  -26.8954   18.5440 H   0  0  0  0  0  0
  -23.8920  -30.2844   19.1312 H   0  0  0  0  0  0
  -23.6816  -28.6350   18.5259 H   0  0  0  0  0  0
  -25.1459  -36.0205   25.0542 H   0  0  0  0  0  0
  -20.9462  -27.6154   24.5971 H   0  0  0  0  0  0
  -19.5315  -25.9881   23.7828 H   0  0  0  0  0  0
  -20.9194  -25.4511   23.0625 H   0  0  0  0  0  0
  -19.4648  -25.3970   21.1985 H   0  0  0  0  0  0
  -19.8892  -27.1000   20.9673 H   0  0  0  0  0  0
  -17.5523  -26.9819   21.0840 H   0  0  0  0  0  0
  -17.5501  -26.0799   22.5874 H   0  0  0  0  0  0
  -20.1089  -30.3886   24.3850 H   0  0  0  0  0  0
  -17.9211  -31.5125   24.5871 H   0  0  0  0  0  0
  -15.8319  -30.4403   23.7440 H   0  0  0  0  0  0
  -16.0176  -28.2585   22.5724 H   0  0  0  0  0  0
  -24.5449  -30.7095   25.6449 H   0  0  0  0  0  0
  -24.8282  -32.3316   26.2674 H   0  0  0  0  0  0
  -25.7404  -30.9743   26.9060 H   0  0  0  0  0  0
  -26.3288  -29.4922   24.4680 H   0  0  0  0  0  0
  -27.6385  -29.9219   25.5121 H   0  0  0  0  0  0
  -27.7670  -30.3082   23.8091 H   0  0  0  0  0  0
  -27.1424  -33.4542   25.9320 H   0  0  0  0  0  0
  -28.3506  -32.6835   24.9185 H   0  0  0  0  0  0
  -27.9278  -31.9992   26.4821 H   0  0  0  0  0  0
  -28.2170  -37.9791   24.7409 H   0  0  0  0  0  0
  -28.1050  -36.2238   24.6261 H   0  0  0  0  0  0
  -27.2138  -37.0913   25.8872 H   0  0  0  0  0  0
  -21.8410  -26.9168   21.9202 H   0  0  0  0  0  0
  -25.9575  -38.1828   24.1584 H   0  0  0  0  0  0
  -24.0120  -21.4093   21.3535 H   0  0  0  0  0  0
  -28.3586  -21.2614   19.5946 H   0  0  0  0  0  0
  -22.9443  -24.3452   21.0612 H   0  0  0  0  0  0
  -23.5603  -24.6820   19.4601 H   0  0  0  0  0  0
  -21.7707  -26.7103   20.4759 H   0  0  0  0  0  0
  -22.7595  -27.2308   19.4572 H   0  0  0  0  0  0
  -22.3581  -29.5228   23.0176 H   0  0  0  0  0  0
  -22.5428  -30.1757   21.4585 H   0  0  0  0  0  0
  -29.0351  -18.2457   20.2443 H   0  0  0  0  0  0
  1 25  1  0  0  0
  1 30  2  0  0  0
  1 80  1  0  0  0
  2  3  1  0  0  0
  2 25  1  0  0  0
  2 83  1  0  0  0
  2 84  1  0  0  0
  3  4  1  0  0  0
  3 85  1  0  0  0
  3 86  1  0  0  0
  4  5  1  0  0  0
  4 87  1  0  0  0
  4 88  1  0  0  0
  5  6  1  0  0  0
  5 26  1  0  0  0
  5 89  1  0  0  0
  6 25  1  0  0  0
  6 90  1  0  0  0
  6 91  1  0  0  0
  7  8  2  0  0  0
  7 26  1  0  0  0
  7 29  1  0  0  0
  8  9  1  0  0  0
  8 22  1  0  0  0
  9 10  1  0  0  0
  9 27  2  0  0  0
 10 11  2  0  0  0
 10 15  1  0  0  0
 11 12  1  0  0  0
 11 92  1  0  0  0
 12 13  2  0  0  0
 12 93  1  0  0  0
 13 14  1  0  0  0
 13 31  1  0  0  0
 14 15  2  0  0  0
 14 94  1  0  0  0
 15 95  1  0  0  0
 16 17  2  0  0  0
 16 21  1  0  0  0
 16 31  1  0  0  0
 17 18  1  0  0  0
 17 96  1  0  0  0
 18 19  2  0  0  0
 18 97  1  0  0  0
 19 20  1  0  0  0
 19 24  1  0  0  0
 20 21  2  0  0  0
 20 98  1  0  0  0
 21 23  1  0  0  0
 22 28  1  0  0  0
 22 32  2  0  0  0
 26 27  1  0  0  0
 28 99  1  0  0  0
 28100  1  0  0  0
 29101  1  0  0  0
 29102  1  0  0  0
 33 34  1  0  0  0
 33 66  1  0  0  0
 33 70  2  0  0  0
 34 36  1  0  0  0
 34 59  1  0  0  0
 34103  1  0  0  0
 35 44  2  0  0  0
 35 45  1  0  0  0
 35 68  1  0  0  0
 36 56  1  0  0  0
 36104  1  0  0  0
 37 39  1  0  0  0
 37 47  1  0  0  0
 37 66  1  0  0  0
 37105  1  0  0  0
 38 43  2  0  0  0
 38 46  1  0  0  0
 38 47  1  0  0  0
 39 64  1  0  0  0
 39 67  2  0  0  0
 40 52  1  0  0  0
 40 53  2  0  0  0
 40 58  1  0  0  0
 41106  1  0  0  0
 41107  1  0  0  0
 41108  1  0  0  0
 41 48  1  0  0  0
 42 43  1  0  0  0
 42 66  1  0  0  0
 42109  1  0  0  0
 42110  1  0  0  0
 43 44  1  0  0  0
 44111  1  0  0  0
 45 46  2  0  0  0
 45112  1  0  0  0
 46113  1  0  0  0
 47114  1  0  0  0
 47115  1  0  0  0
 48 56  1  0  0  0
 48 65  1  0  0  0
 48116  1  0  0  0
 49 50  1  0  0  0
 49 53  1  0  0  0
 49 64  1  0  0  0
 49117  1  0  0  0
 50 51  1  0  0  0
 50118  1  0  0  0
 50119  1  0  0  0
 51 52  1  0  0  0
 51120  1  0  0  0
 51121  1  0  0  0
 52122  1  0  0  0
 52123  1  0  0  0
 53 54  1  0  0  0
 54 55  2  0  0  0
 54124  1  0  0  0
 55 57  1  0  0  0
 55125  1  0  0  0
 56 69  2  0  0  0
 57 58  2  0  0  0
 57126  1  0  0  0
 58127  1  0  0  0
 59 60  1  0  0  0
 59 61  1  0  0  0
 59 62  1  0  0  0
 60128  1  0  0  0
 60129  1  0  0  0
 60130  1  0  0  0
 61131  1  0  0  0
 61132  1  0  0  0
 61133  1  0  0  0
 62134  1  0  0  0
 62135  1  0  0  0
 62136  1  0  0  0
 63 65  1  0  0  0
 63137  1  0  0  0
 63138  1  0  0  0
 63139  1  0  0  0
 64140  1  0  0  0
 65141  1  0  0  0
 68 79  1  0  0  0
 71 73  2  0  0  0
 71 75  1  0  0  0
 71142  1  0  0  0
 72 74  1  0  0  0
 72 76  2  0  0  0
 72143  1  0  0  0
 73 76  1  0  0  0
 73 77  1  0  0  0
 74 75  2  0  0  0
 74 80  1  0  0  0
 75 81  1  0  0  0
 76 82  1  0  0  0
 77 78  1  0  0  0
 77144  1  0  0  0
 77145  1  0  0  0
 78 79  1  0  0  0
 78146  1  0  0  0
 78147  1  0  0  0
 79148  1  0  0  0
 79149  1  0  0  0
 80150  1  0  0  0
M  ISO  4   1 100  68 101  79 101  80 100
M  END
> <chiral flag>
0

> <version>
0

> <s_m_source_file>
/data/baiqing/PycharmProjects/Reinvent-master-3.2/result/LINK_invent/BTK/process_docking_weight1_custom_sum_contain_oxygen_bond_distance_aromatic_linkinvent_7_9_3/rearranged_h_0029.sdf

> <i_m_source_file_index>
72

> <r_mmod_Potential_Energy-OPLS-2005>
21711.32421875

> <r_mmod_Stretch_Energy-OPLS-2005>
9433.552734375

> <r_mmod_Bend_Energy-OPLS-2005>
2627.18090820312

> <r_mmod_Torsional_Energy-OPLS-2005>
675.709655761719

> <r_mmod_Improper_Torsional_Energy-OPLS-2005>
130.000961303711

> <r_mmod_Van_der_Waal_Energy-OPLS-2005>
2656.11572265625

> <r_mmod_Electrostatic_Energy-OPLS-2005>
-379.788482666016

> <r_mmod_Solvation_Energy-OPLS-2005>
-214.983489990234

> <b_mmod_Minimization_Converged-OPLS-2005>
0

> <r_mmod_RMS_Derivative-OPLS-2005>
11.3256807327271

$$$$
72
                    3D
 Structure written by MMmdl.
149157  0  0  1  0            999 V2000
  -30.4340  -15.2011   20.3930 C   0  0  0  0  0  0
  -30.4473  -12.7562   19.5359 C   0  0  0  0  0  0
  -29.5403  -12.5706   18.2914 C   0  0  0  0  0  0
  -28.0829  -12.3040   18.7096 C   0  0  0  0  0  0
  -27.6189  -13.2672   19.8306 C   0  0  2  0  0  0
  -28.6521  -13.3930   20.9720 C   0  0  0  0  0  0
  -25.2375  -13.8202   20.5658 C   0  0  0  0  0  0
  -24.1739  -13.0413   20.9223 C   0  0  0  0  0  0
  -24.6396  -11.6914   20.8750 C   0  0  0  0  0  0
  -23.9089  -10.4280   21.0402 C   0  0  0  0  0  0
  -24.3633   -9.4195   21.9182 C   0  0  0  0  0  0
  -23.6300   -8.2233   22.0750 C   0  0  0  0  0  0
  -22.4278   -8.0275   21.3542 C   0  0  0  0  0  0
  -21.9920   -9.0246   20.4637 C   0  0  0  0  0  0
  -22.7259  -10.2122   20.3048 C   0  0  0  0  0  0
  -21.6851   -6.0735   22.5285 C   0  0  0  0  0  0
  -21.4011   -6.5634   23.8219 C   0  0  0  0  0  0
  -21.3658   -5.6788   24.9179 C   0  0  0  0  0  0
  -21.6043   -4.3053   24.7225 C   0  0  0  0  0  0
  -21.8818   -3.8146   23.4347 C   0  0  0  0  0  0
  -21.9187   -4.6964   22.3407 C   0  0  0  0  0  0
  -22.7759  -13.5168   21.1884 C   0  0  0  0  0  0
  -22.1659   -4.2151   21.0986 F   0  0  0  0  0  0
  -21.5627   -3.4534   25.7736 F   0  0  0  0  0  0
  -29.9013  -13.8845   20.3693 N   0  0  0  0  0  0
  -26.2839  -12.9490   20.3216 N   0  0  0  0  0  0
  -25.9344  -11.6606   20.5738 N   0  0  0  0  0  0
  -22.0428  -12.8158   22.0452 N   0  0  0  0  0  0
  -25.3915  -15.1917   20.4001 N   0  0  0  0  0  0
  -31.6423  -15.2487   20.1128 O   0  0  0  0  0  0
  -21.6636   -6.8879   21.4248 O   0  0  0  0  0  0
  -22.3425  -14.5470   20.6732 O   0  0  0  0  0  0
  -24.6558  -31.8284   23.1738 C   0  0  0  0  0  0
  -25.9273  -32.4595   23.8177 C   0  0  1  0  0  0
  -27.2152  -26.9706   20.1864 C   0  0  0  0  0  0
  -25.5973  -33.8405   24.2094 N   0  0  0  0  0  0
  -23.4661  -30.4393   21.5239 C   0  0  2  0  0  0
  -24.9183  -28.8327   20.1098 C   0  0  0  0  0  0
  -22.7627  -29.4431   22.4817 C   0  0  0  0  0  0
  -18.0311  -28.1340   22.8444 C   0  0  0  0  0  0
  -24.1499  -36.7211   23.2651 C   0  0  0  0  0  0
  -26.0311  -30.6467   21.3989 C   0  0  0  0  0  0
  -26.0992  -29.2419   20.7412 C   0  0  0  0  0  0
  -27.2428  -28.3311   20.7552 C   0  0  0  0  0  0
  -26.0079  -26.7018   19.5030 C   0  0  0  0  0  0
  -24.8941  -27.5812   19.4711 C   0  0  0  0  0  0
  -23.7016  -29.7571   20.1476 C   0  0  0  0  0  0
  -25.4139  -36.2968   24.0308 C   0  0  1  0  0  0
  -20.5926  -28.3679   23.1191 C   0  0  2  0  0  0
  -20.6769  -26.9366   22.5386 C   0  0  0  0  0  0
  -19.5763  -26.6331   21.5168 C   0  0  0  0  0  0
  -18.1941  -26.7870   22.1588 C   0  0  0  0  0  0
  -19.1571  -28.8834   23.2789 C   0  0  0  0  0  0
  -18.9493  -30.1427   23.8816 C   0  0  0  0  0  0
  -17.6492  -30.6542   24.0512 C   0  0  0  0  0  0
  -25.9097  -34.9352   23.5025 C   0  0  0  0  0  0
  -16.5382  -29.9025   23.6320 C   0  0  0  0  0  0
  -16.7294  -28.6439   23.0353 C   0  0  0  0  0  0
  -26.4550  -31.6523   25.0682 C   0  0  0  0  0  0
  -25.3688  -31.3761   26.1351 C   0  0  0  0  0  0
  -27.0460  -30.2890   24.6404 C   0  0  0  0  0  0
  -27.6027  -32.4356   25.7479 C   0  0  0  0  0  0
  -27.5573  -37.1776   24.8482 C   0  0  0  0  0  0
  -21.4304  -29.2996   22.3573 N   0  0  0  0  0  0
  -26.4295  -37.3692   23.9405 N   0  0  0  0  0  0
  -24.7375  -30.9983   22.0852 N   0  0  0  0  0  0
  -23.4210  -28.7996   23.3019 O   0  0  0  0  0  0
  -28.2339  -25.8977   20.2844 O   0  0  0  0  0  0
  -26.5692  -34.8881   22.4613 O   0  0  0  0  0  0
  -23.5645  -32.1260   23.6865 O   0  0  0  0  0  0
  -30.1789  -20.3599   19.9378 C   0  0  0  0  0  0
  -29.0557  -21.1636   20.4219 C   0  0  0  0  0  0
  -28.1394  -20.1821   20.9812 C   0  0  0  0  0  0
  -28.3622  -18.7094   21.0056 C   0  0  0  0  0  0
  -29.5297  -17.9964   20.4965 C   0  0  0  0  0  0
  -26.8689  -20.7158   21.6264 C   0  0  0  0  0  0
  -29.0484  -22.9037   20.5682 C   0  0  0  0  0  0
  -28.0273  -24.2851   20.1018 C   0  0  0  0  0  0
  -30.3998  -18.9499   19.9639 N   0  0  0  0  0  0
  -29.5968  -16.3924   20.5881 N   0  0  0  0  0  0
  -27.1438  -17.7179   21.7339 Cl  0  0  0  0  0  0
  -31.4708  -12.9550   19.2136 H   0  0  0  0  0  0
  -30.4993  -11.8348   20.1184 H   0  0  0  0  0  0
  -29.9089  -11.7558   17.6662 H   0  0  0  0  0  0
  -29.5820  -13.4720   17.6785 H   0  0  0  0  0  0
  -28.0247  -11.2747   19.0661 H   0  0  0  0  0  0
  -27.4185  -12.3654   17.8468 H   0  0  0  0  0  0
  -27.5484  -14.2446   19.3529 H   0  0  0  0  0  0
  -28.7969  -12.4390   21.4823 H   0  0  0  0  0  0
  -28.3009  -14.0963   21.7287 H   0  0  0  0  0  0
  -25.2778   -9.5665   22.4755 H   0  0  0  0  0  0
  -24.0003   -7.4621   22.7467 H   0  0  0  0  0  0
  -21.0853   -8.8770   19.8939 H   0  0  0  0  0  0
  -22.3725  -10.9658   19.6149 H   0  0  0  0  0  0
  -21.2011   -7.6138   23.9724 H   0  0  0  0  0  0
  -21.1478   -6.0515   25.9081 H   0  0  0  0  0  0
  -22.0597   -2.7608   23.2850 H   0  0  0  0  0  0
  -22.4072  -11.9839   22.4861 H   0  0  0  0  0  0
  -21.1037  -13.1158   22.2657 H   0  0  0  0  0  0
  -24.6178  -15.8332   20.5312 H   0  0  0  0  0  0
  -26.2355  -15.6569   20.0984 H   0  0  0  0  0  0
  -26.7326  -32.5147   23.0874 H   0  0  0  0  0  0
  -25.0098  -33.9493   25.0228 H   0  0  0  0  0  0
  -22.7721  -31.2656   21.3576 H   0  0  0  0  0  0
  -23.3759  -35.9547   23.3331 H   0  0  0  0  0  0
  -24.3558  -36.8835   22.2058 H   0  0  0  0  0  0
  -23.7281  -37.6421   23.6692 H   0  0  0  0  0  0
  -26.2132  -31.3954   20.6268 H   0  0  0  0  0  0
  -26.8903  -30.6951   22.0564 H   0  0  0  0  0  0
  -28.1363  -28.6404   21.2784 H   0  0  0  0  0  0
  -25.8928  -25.7450   19.0143 H   0  0  0  0  0  0
  -23.9950  -27.2590   18.9623 H   0  0  0  0  0  0
  -23.8516  -30.5294   19.3919 H   0  0  0  0  0  0
  -22.8111  -29.2114   19.8297 H   0  0  0  0  0  0
  -25.1332  -36.1780   25.0798 H   0  0  0  0  0  0
  -20.9990  -28.3258   24.1323 H   0  0  0  0  0  0
  -20.5592  -26.2290   23.3618 H   0  0  0  0  0  0
  -21.6642  -26.7303   22.1237 H   0  0  0  0  0  0
  -19.6923  -25.6230   21.1230 H   0  0  0  0  0  0
  -19.6707  -27.3104   20.6668 H   0  0  0  0  0  0
  -17.4204  -26.6592   21.3995 H   0  0  0  0  0  0
  -18.0346  -25.9999   22.8979 H   0  0  0  0  0  0
  -19.7990  -30.7219   24.2172 H   0  0  0  0  0  0
  -17.5062  -31.6233   24.5102 H   0  0  0  0  0  0
  -15.5376  -30.2894   23.7696 H   0  0  0  0  0  0
  -15.8695  -28.0725   22.7126 H   0  0  0  0  0  0
  -24.5865  -30.7117   25.7672 H   0  0  0  0  0  0
  -24.8882  -32.2956   26.4692 H   0  0  0  0  0  0
  -25.7915  -30.8987   27.0198 H   0  0  0  0  0  0
  -26.3136  -29.6547   24.1399 H   0  0  0  0  0  0
  -27.3995  -29.7255   25.5055 H   0  0  0  0  0  0
  -27.9061  -30.4078   23.9809 H   0  0  0  0  0  0
  -27.2576  -33.3709   26.1902 H   0  0  0  0  0  0
  -28.3890  -32.6858   25.0338 H   0  0  0  0  0  0
  -28.0633  -31.8605   26.5525 H   0  0  0  0  0  0
  -28.2601  -38.0054   24.7450 H   0  0  0  0  0  0
  -28.1062  -36.2577   24.6411 H   0  0  0  0  0  0
  -27.2277  -37.1522   25.8883 H   0  0  0  0  0  0
  -20.9536  -29.8758   21.6784 H   0  0  0  0  0  0
  -26.0159  -38.2769   24.1361 H   0  0  0  0  0  0
  -31.0186  -20.8996   19.5247 H   0  0  0  0  0  0
  -26.7804  -20.3698   22.6575 H   0  0  0  0  0  0
  -25.9951  -20.3688   21.0751 H   0  0  0  0  0  0
  -26.8369  -21.8046   21.6455 H   0  0  0  0  0  0
  -30.0333  -23.1777   20.1906 H   0  0  0  0  0  0
  -29.1495  -23.0313   21.6463 H   0  0  0  0  0  0
  -27.0496  -24.0825   20.5406 H   0  0  0  0  0  0
  -27.8666  -24.1672   19.0296 H   0  0  0  0  0  0
  -28.6934  -16.0698   20.8979 H   0  0  0  0  0  0
  1 25  1  0  0  0
  1 30  2  0  0  0
  1 80  1  0  0  0
  2  3  1  0  0  0
  2 25  1  0  0  0
  2 82  1  0  0  0
  2 83  1  0  0  0
  3  4  1  0  0  0
  3 84  1  0  0  0
  3 85  1  0  0  0
  4  5  1  0  0  0
  4 86  1  0  0  0
  4 87  1  0  0  0
  5  6  1  0  0  0
  5 26  1  0  0  0
  5 88  1  0  0  0
  6 25  1  0  0  0
  6 89  1  0  0  0
  6 90  1  0  0  0
  7  8  2  0  0  0
  7 26  1  0  0  0
  7 29  1  0  0  0
  8  9  1  0  0  0
  8 22  1  0  0  0
  9 10  1  0  0  0
  9 27  2  0  0  0
 10 11  2  0  0  0
 10 15  1  0  0  0
 11 12  1  0  0  0
 11 91  1  0  0  0
 12 13  2  0  0  0
 12 92  1  0  0  0
 13 14  1  0  0  0
 13 31  1  0  0  0
 14 15  2  0  0  0
 14 93  1  0  0  0
 15 94  1  0  0  0
 16 17  2  0  0  0
 16 21  1  0  0  0
 16 31  1  0  0  0
 17 18  1  0  0  0
 17 95  1  0  0  0
 18 19  2  0  0  0
 18 96  1  0  0  0
 19 20  1  0  0  0
 19 24  1  0  0  0
 20 21  2  0  0  0
 20 97  1  0  0  0
 21 23  1  0  0  0
 22 28  1  0  0  0
 22 32  2  0  0  0
 26 27  1  0  0  0
 28 98  1  0  0  0
 28 99  1  0  0  0
 29100  1  0  0  0
 29101  1  0  0  0
 33 34  1  0  0  0
 33 66  1  0  0  0
 33 70  2  0  0  0
 34 36  1  0  0  0
 34 59  1  0  0  0
 34102  1  0  0  0
 35 44  2  0  0  0
 35 45  1  0  0  0
 35 68  1  0  0  0
 36 56  1  0  0  0
 36103  1  0  0  0
 37 39  1  0  0  0
 37 47  1  0  0  0
 37 66  1  0  0  0
 37104  1  0  0  0
 38 43  2  0  0  0
 38 46  1  0  0  0
 38 47  1  0  0  0
 39 64  1  0  0  0
 39 67  2  0  0  0
 40 52  1  0  0  0
 40 53  2  0  0  0
 40 58  1  0  0  0
 41105  1  0  0  0
 41106  1  0  0  0
 41107  1  0  0  0
 41 48  1  0  0  0
 42 43  1  0  0  0
 42 66  1  0  0  0
 42108  1  0  0  0
 42109  1  0  0  0
 43 44  1  0  0  0
 44110  1  0  0  0
 45 46  2  0  0  0
 45111  1  0  0  0
 46112  1  0  0  0
 47113  1  0  0  0
 47114  1  0  0  0
 48 56  1  0  0  0
 48 65  1  0  0  0
 48115  1  0  0  0
 49 50  1  0  0  0
 49 53  1  0  0  0
 49 64  1  0  0  0
 49116  1  0  0  0
 50 51  1  0  0  0
 50117  1  0  0  0
 50118  1  0  0  0
 51 52  1  0  0  0
 51119  1  0  0  0
 51120  1  0  0  0
 52121  1  0  0  0
 52122  1  0  0  0
 53 54  1  0  0  0
 54 55  2  0  0  0
 54123  1  0  0  0
 55 57  1  0  0  0
 55124  1  0  0  0
 56 69  2  0  0  0
 57 58  2  0  0  0
 57125  1  0  0  0
 58126  1  0  0  0
 59 60  1  0  0  0
 59 61  1  0  0  0
 59 62  1  0  0  0
 60127  1  0  0  0
 60128  1  0  0  0
 60129  1  0  0  0
 61130  1  0  0  0
 61131  1  0  0  0
 61132  1  0  0  0
 62133  1  0  0  0
 62134  1  0  0  0
 62135  1  0  0  0
 63 65  1  0  0  0
 63136  1  0  0  0
 63137  1  0  0  0
 63138  1  0  0  0
 64139  1  0  0  0
 65140  1  0  0  0
 68 78  1  0  0  0
 71 72  2  0  0  0
 71 79  1  0  0  0
 71141  1  0  0  0
 72 73  1  0  0  0
 72 77  1  0  0  0
 73 74  2  0  0  0
 73 76  1  0  0  0
 74 75  1  0  0  0
 74 81  1  0  0  0
 75 79  2  0  0  0
 75 80  1  0  0  0
 76142  1  0  0  0
 76143  1  0  0  0
 76144  1  0  0  0
 77 78  1  0  0  0
 77145  1  0  0  0
 77146  1  0  0  0
 78147  1  0  0  0
 78148  1  0  0  0
 80149  1  0  0  0
M  ISO  4   1 100  68 101  78 101  80 100
M  END
> <chiral flag>
0

> <version>
0

> <s_m_source_file>
/data/baiqing/PycharmProjects/Reinvent-master-3.2/result/LINK_invent/BTK/process_docking_weight1_custom_sum_contain_oxygen_bond_distance_aromatic_linkinvent_7_9_3/rearranged_h_0029.sdf

> <i_m_source_file_index>
73

> <r_mmod_Potential_Energy-OPLS-2005>
921.65185546875

> <r_mmod_Stretch_Energy-OPLS-2005>
471.521850585938

> <r_mmod_Bend_Energy-OPLS-2005>
415.848052978516

> <r_mmod_Torsional_Energy-OPLS-2005>
205.878189086914

> <r_mmod_Improper_Torsional_Energy-OPLS-2005>
4.95035219192505

> <r_mmod_Van_der_Waal_Energy-OPLS-2005>
129.354721069336

> <r_mmod_Electrostatic_Energy-OPLS-2005>
-476.013397216797

> <r_mmod_Solvation_Energy-OPLS-2005>
-223.645080566406

> <b_mmod_Minimization_Converged-OPLS-2005>
0

> <r_mmod_RMS_Derivative-OPLS-2005>
2.08797955513

$$$$
73
                    3D
 Structure written by MMmdl.
167175  0  0  1  0            999 V2000
  -30.6856  -14.4810   20.5150 C   0  0  0  0  0  0
  -30.4212  -12.3009   19.4192 C   0  0  0  0  0  0
  -29.4899  -12.4982   18.2067 C   0  0  0  0  0  0
  -28.0126  -12.3550   18.6263 C   0  0  0  0  0  0
  -27.6610  -13.1833   19.8887 C   0  0  2  0  0  0
  -28.7115  -12.9954   21.0070 C   0  0  0  0  0  0
  -25.2608  -13.8077   20.5699 C   0  0  0  0  0  0
  -24.1847  -13.0425   20.9186 C   0  0  0  0  0  0
  -24.6372  -11.6874   20.8784 C   0  0  0  0  0  0
  -23.9032  -10.4298   21.0451 C   0  0  0  0  0  0
  -24.3590   -9.4210   21.9225 C   0  0  0  0  0  0
  -23.6275   -8.2243   22.0772 C   0  0  0  0  0  0
  -22.4260   -8.0291   21.3552 C   0  0  0  0  0  0
  -21.9903   -9.0276   20.4668 C   0  0  0  0  0  0
  -22.7214  -10.2158   20.3096 C   0  0  0  0  0  0
  -21.6860   -6.0757   22.5297 C   0  0  0  0  0  0
  -21.4002   -6.5659   23.8229 C   0  0  0  0  0  0
  -21.3638   -5.6807   24.9187 C   0  0  0  0  0  0
  -21.6026   -4.3072   24.7236 C   0  0  0  0  0  0
  -21.8798   -3.8165   23.4361 C   0  0  0  0  0  0
  -21.9196   -4.6984   22.3417 C   0  0  0  0  0  0
  -22.7883  -13.5295   21.1833 C   0  0  0  0  0  0
  -22.1661   -4.2170   21.0993 F   0  0  0  0  0  0
  -21.5620   -3.4551   25.7747 F   0  0  0  0  0  0
  -30.0341  -13.2927   20.4332 N   0  0  0  0  0  0
  -26.3028  -12.9202   20.3480 N   0  0  0  0  0  0
  -25.9288  -11.6394   20.5852 N   0  0  0  0  0  0
  -22.0470  -12.8349   22.0374 N   0  0  0  0  0  0
  -25.4356  -15.1788   20.4046 N   0  0  0  0  0  0
  -31.8400  -14.6432   20.1095 O   0  0  0  0  0  0
  -21.6621   -6.8899   21.4260 O   0  0  0  0  0  0
  -22.3629  -14.5654   20.6715 O   0  0  0  0  0  0
  -24.6128  -31.8728   23.2128 C   0  0  0  0  0  0
  -25.9044  -32.4829   23.8442 C   0  0  1  0  0  0
  -27.2413  -27.4511   20.0589 C   0  0  0  0  0  0
  -25.5877  -33.8639   24.2359 N   0  0  0  0  0  0
  -23.4028  -30.5014   21.5467 C   0  0  2  0  0  0
  -24.8508  -28.9681   20.1157 C   0  0  0  0  0  0
  -22.7410  -29.4753   22.4975 C   0  0  0  0  0  0
  -18.0290  -28.1404   22.8590 C   0  0  0  0  0  0
  -24.1481  -36.7330   23.2650 C   0  0  0  0  0  0
  -25.9397  -30.8315   21.3814 C   0  0  0  0  0  0
  -26.0121  -29.4716   20.7140 C   0  0  0  0  0  0
  -27.2081  -28.7163   20.6920 C   0  0  0  0  0  0
  -26.0511  -26.9515   19.4849 C   0  0  0  0  0  0
  -24.8640  -27.7031   19.5047 C   0  0  0  0  0  0
  -23.6139  -29.8336   20.1630 C   0  0  0  0  0  0
  -25.4103  -36.3128   24.0342 C   0  0  1  0  0  0
  -20.5884  -28.3748   23.1398 C   0  0  2  0  0  0
  -20.6701  -26.9456   22.5631 C   0  0  0  0  0  0
  -19.5844  -26.6760   21.5172 C   0  0  0  0  0  0
  -18.2037  -26.8006   22.1648 C   0  0  0  0  0  0
  -19.1529  -28.8889   23.2992 C   0  0  0  0  0  0
  -18.9425  -30.1499   23.8950 C   0  0  0  0  0  0
  -17.6412  -30.6633   24.0553 C   0  0  0  0  0  0
  -25.9040  -34.9483   23.5157 C   0  0  0  0  0  0
  -16.5316  -29.9113   23.6316 C   0  0  0  0  0  0
  -16.7259  -28.6493   23.0417 C   0  0  0  0  0  0
  -26.4479  -31.6618   25.0802 C   0  0  0  0  0  0
  -25.3745  -31.3736   26.1546 C   0  0  0  0  0  0
  -27.0341  -30.3024   24.6314 C   0  0  0  0  0  0
  -27.6051  -32.4372   25.7544 C   0  0  0  0  0  0
  -27.5578  -37.1818   24.8468 C   0  0  0  0  0  0
  -21.4152  -29.3020   22.3666 N   0  0  0  0  0  0
  -26.4301  -37.3796   23.9410 N   0  0  0  0  0  0
  -24.6675  -31.0879   22.0995 N   0  0  0  0  0  0
  -23.4187  -28.8367   23.3073 O   0  0  0  0  0  0
  -28.4054  -26.7120   20.0598 O   0  0  0  0  0  0
  -26.5654  -34.8930   22.4753 O   0  0  0  0  0  0
  -23.5316  -32.1487   23.7508 O   0  0  0  0  0  0
  -28.3340  -24.9503   18.3559 C   0  0  0  0  0  0
  -30.4609  -26.2459   17.2173 C   0  0  0  0  0  0
  -28.8727  -24.4143   17.1659 C   0  0  0  0  0  0
  -29.9702  -25.0882   16.5817 C   0  0  0  0  0  0
  -28.8703  -26.1425   18.8932 C   0  0  0  0  0  0
  -28.6318  -16.9332   18.5904 C   0  0  0  0  0  0
  -27.8854  -17.8509   20.8369 C   0  0  0  0  0  0
  -28.2374  -23.1980   16.4909 C   0  0  0  0  0  0
  -27.8343  -22.0293   17.4104 C   0  0  0  0  0  0
  -28.9987  -21.2910   18.1011 C   0  0  0  0  0  0
  -28.4734  -20.0995   18.9213 C   0  0  0  0  0  0
  -29.5693  -19.1258   19.4265 C   0  0  0  0  0  0
  -30.2286  -16.9447   20.5583 C   0  0  0  0  0  0
  -29.0695  -17.7136   19.8537 C   0  0  0  0  0  0
  -29.9330  -26.7677   18.3483 N   0  0  0  0  0  0
  -29.9149  -15.5332   20.8444 N   0  0  0  0  0  0
  -30.7175  -24.5500   15.1175 Cl  0  0  0  0  0  0
  -31.4622  -12.4023   19.1112 H   0  0  0  0  0  0
  -30.3211  -11.2926   19.8241 H   0  0  0  0  0  0
  -29.7286  -11.7730   17.4282 H   0  0  0  0  0  0
  -29.6546  -13.4825   17.7625 H   0  0  0  0  0  0
  -27.8238  -11.2989   18.8181 H   0  0  0  0  0  0
  -27.3557  -12.6278   17.7996 H   0  0  0  0  0  0
  -27.6935  -14.2211   19.5929 H   0  0  0  0  0  0
  -28.6981  -11.9703   21.3808 H   0  0  0  0  0  0
  -28.4843  -13.6268   21.8679 H   0  0  0  0  0  0
  -25.2708   -9.5706   22.4833 H   0  0  0  0  0  0
  -23.9976   -7.4650   22.7512 H   0  0  0  0  0  0
  -21.0816   -8.8798   19.9014 H   0  0  0  0  0  0
  -22.3643  -10.9715   19.6248 H   0  0  0  0  0  0
  -21.1965   -7.6163   23.9726 H   0  0  0  0  0  0
  -21.1482   -6.0550   25.9094 H   0  0  0  0  0  0
  -22.0587   -2.7627   23.2854 H   0  0  0  0  0  0
  -22.3994  -11.9992   22.4792 H   0  0  0  0  0  0
  -21.1134  -13.1529   22.2560 H   0  0  0  0  0  0
  -24.6661  -15.8329   20.4944 H   0  0  0  0  0  0
  -26.2832  -15.6104   20.0620 H   0  0  0  0  0  0
  -26.7147  -32.5543   23.1230 H   0  0  0  0  0  0
  -24.9874  -33.9804   25.0397 H   0  0  0  0  0  0
  -22.6915  -31.3193   21.3997 H   0  0  0  0  0  0
  -23.3718  -35.9681   23.3333 H   0  0  0  0  0  0
  -24.3544  -36.8937   22.2055 H   0  0  0  0  0  0
  -23.7260  -37.6556   23.6660 H   0  0  0  0  0  0
  -26.1003  -31.6080   20.6318 H   0  0  0  0  0  0
  -26.8076  -30.8506   22.0305 H   0  0  0  0  0  0
  -28.1074  -29.0919   21.1606 H   0  0  0  0  0  0
  -26.0170  -25.9822   19.0164 H   0  0  0  0  0  0
  -23.9698  -27.3025   19.0447 H   0  0  0  0  0  0
  -23.7139  -30.6016   19.3951 H   0  0  0  0  0  0
  -22.7394  -29.2497   19.8716 H   0  0  0  0  0  0
  -25.1264  -36.1989   25.0828 H   0  0  0  0  0  0
  -21.0059  -28.3453   24.1490 H   0  0  0  0  0  0
  -20.5124  -26.2402   23.3814 H   0  0  0  0  0  0
  -21.6668  -26.7265   22.1819 H   0  0  0  0  0  0
  -19.6753  -27.4005   20.7050 H   0  0  0  0  0  0
  -19.7113  -25.6876   21.0730 H   0  0  0  0  0  0
  -17.4261  -26.6684   21.4123 H   0  0  0  0  0  0
  -18.0629  -26.0059   22.8967 H   0  0  0  0  0  0
  -19.7896  -30.7320   24.2295 H   0  0  0  0  0  0
  -17.4960  -31.6355   24.5090 H   0  0  0  0  0  0
  -15.5315  -30.3054   23.7502 H   0  0  0  0  0  0
  -15.8653  -28.0818   22.7105 H   0  0  0  0  0  0
  -24.5888  -30.7133   25.7857 H   0  0  0  0  0  0
  -24.8982  -32.2904   26.5031 H   0  0  0  0  0  0
  -25.8057  -30.8856   27.0290 H   0  0  0  0  0  0
  -26.2941  -29.6767   24.1304 H   0  0  0  0  0  0
  -27.3944  -29.7299   25.4870 H   0  0  0  0  0  0
  -27.8859  -30.4253   23.9615 H   0  0  0  0  0  0
  -27.2645  -33.3642   26.2158 H   0  0  0  0  0  0
  -28.3813  -32.6987   25.0347 H   0  0  0  0  0  0
  -28.0797  -31.8511   26.5430 H   0  0  0  0  0  0
  -28.2613  -38.0103   24.7495 H   0  0  0  0  0  0
  -28.1063  -36.2636   24.6289 H   0  0  0  0  0  0
  -27.2318  -37.1466   25.8884 H   0  0  0  0  0  0
  -20.9393  -29.8461   21.6601 H   0  0  0  0  0  0
  -26.0193  -38.2894   24.1349 H   0  0  0  0  0  0
  -27.5024  -24.4613   18.8401 H   0  0  0  0  0  0
  -31.2985  -26.7761   16.7884 H   0  0  0  0  0  0
  -28.0763  -17.5378   17.8792 H   0  0  0  0  0  0
  -27.9742  -16.1072   18.8312 H   0  0  0  0  0  0
  -29.4871  -16.5304   18.0475 H   0  0  0  0  0  0
  -27.0104  -18.3021   20.3674 H   0  0  0  0  0  0
  -28.1547  -18.4730   21.6909 H   0  0  0  0  0  0
  -27.5651  -16.8885   21.2317 H   0  0  0  0  0  0
  -28.8895  -22.8036   15.7131 H   0  0  0  0  0  0
  -27.3514  -23.5555   15.9645 H   0  0  0  0  0  0
  -27.3097  -21.3003   16.7910 H   0  0  0  0  0  0
  -27.1022  -22.3611   18.1454 H   0  0  0  0  0  0
  -29.5725  -21.9729   18.7306 H   0  0  0  0  0  0
  -29.6876  -20.9224   17.3402 H   0  0  0  0  0  0
  -27.7600  -19.5656   18.2964 H   0  0  0  0  0  0
  -27.8902  -20.4826   19.7590 H   0  0  0  0  0  0
  -30.0920  -19.6052   20.2566 H   0  0  0  0  0  0
  -30.3221  -18.9944   18.6456 H   0  0  0  0  0  0
  -31.1133  -17.0111   19.9229 H   0  0  0  0  0  0
  -30.4999  -17.4434   21.4895 H   0  0  0  0  0  0
  -28.9791  -15.3288   21.1577 H   0  0  0  0  0  0
  1 25  1  0  0  0
  1 30  2  0  0  0
  1 86  1  0  0  0
  2  3  1  0  0  0
  2 25  1  0  0  0
  2 88  1  0  0  0
  2 89  1  0  0  0
  3  4  1  0  0  0
  3 90  1  0  0  0
  3 91  1  0  0  0
  4  5  1  0  0  0
  4 92  1  0  0  0
  4 93  1  0  0  0
  5  6  1  0  0  0
  5 26  1  0  0  0
  5 94  1  0  0  0
  6 25  1  0  0  0
  6 95  1  0  0  0
  6 96  1  0  0  0
  7  8  2  0  0  0
  7 26  1  0  0  0
  7 29  1  0  0  0
  8  9  1  0  0  0
  8 22  1  0  0  0
  9 10  1  0  0  0
  9 27  2  0  0  0
 10 11  2  0  0  0
 10 15  1  0  0  0
 11 12  1  0  0  0
 11 97  1  0  0  0
 12 13  2  0  0  0
 12 98  1  0  0  0
 13 14  1  0  0  0
 13 31  1  0  0  0
 14 15  2  0  0  0
 14 99  1  0  0  0
 15100  1  0  0  0
 16 17  2  0  0  0
 16 21  1  0  0  0
 16 31  1  0  0  0
 17 18  1  0  0  0
 17101  1  0  0  0
 18 19  2  0  0  0
 18102  1  0  0  0
 19 20  1  0  0  0
 19 24  1  0  0  0
 20 21  2  0  0  0
 20103  1  0  0  0
 21 23  1  0  0  0
 22 28  1  0  0  0
 22 32  2  0  0  0
 26 27  1  0  0  0
 28104  1  0  0  0
 28105  1  0  0  0
 29106  1  0  0  0
 29107  1  0  0  0
 33 34  1  0  0  0
 33 66  1  0  0  0
 33 70  2  0  0  0
 34 36  1  0  0  0
 34 59  1  0  0  0
 34108  1  0  0  0
 35 44  2  0  0  0
 35 45  1  0  0  0
 35 68  1  0  0  0
 36 56  1  0  0  0
 36109  1  0  0  0
 37 39  1  0  0  0
 37 47  1  0  0  0
 37 66  1  0  0  0
 37110  1  0  0  0
 38 43  2  0  0  0
 38 46  1  0  0  0
 38 47  1  0  0  0
 39 64  1  0  0  0
 39 67  2  0  0  0
 40 52  1  0  0  0
 40 53  2  0  0  0
 40 58  1  0  0  0
 41111  1  0  0  0
 41112  1  0  0  0
 41113  1  0  0  0
 41 48  1  0  0  0
 42 43  1  0  0  0
 42 66  1  0  0  0
 42114  1  0  0  0
 42115  1  0  0  0
 43 44  1  0  0  0
 44116  1  0  0  0
 45 46  2  0  0  0
 45117  1  0  0  0
 46118  1  0  0  0
 47119  1  0  0  0
 47120  1  0  0  0
 48 56  1  0  0  0
 48 65  1  0  0  0
 48121  1  0  0  0
 49 50  1  0  0  0
 49 53  1  0  0  0
 49 64  1  0  0  0
 49122  1  0  0  0
 50 51  1  0  0  0
 50123  1  0  0  0
 50124  1  0  0  0
 51 52  1  0  0  0
 51125  1  0  0  0
 51126  1  0  0  0
 52127  1  0  0  0
 52128  1  0  0  0
 53 54  1  0  0  0
 54 55  2  0  0  0
 54129  1  0  0  0
 55 57  1  0  0  0
 55130  1  0  0  0
 56 69  2  0  0  0
 57 58  2  0  0  0
 57131  1  0  0  0
 58132  1  0  0  0
 59 60  1  0  0  0
 59 61  1  0  0  0
 59 62  1  0  0  0
 60133  1  0  0  0
 60134  1  0  0  0
 60135  1  0  0  0
 61136  1  0  0  0
 61137  1  0  0  0
 61138  1  0  0  0
 62139  1  0  0  0
 62140  1  0  0  0
 62141  1  0  0  0
 63 65  1  0  0  0
 63142  1  0  0  0
 63143  1  0  0  0
 63144  1  0  0  0
 64145  1  0  0  0
 65146  1  0  0  0
 68 75  1  0  0  0
 71 73  2  0  0  0
 71 75  1  0  0  0
 71147  1  0  0  0
 72 74  2  0  0  0
 72 85  1  0  0  0
 72148  1  0  0  0
 73 74  1  0  0  0
 73 78  1  0  0  0
 74 87  1  0  0  0
 75 85  2  0  0  0
 76149  1  0  0  0
 76150  1  0  0  0
 76151  1  0  0  0
 76 84  1  0  0  0
 77 84  1  0  0  0
 77152  1  0  0  0
 77153  1  0  0  0
 77154  1  0  0  0
 78 79  1  0  0  0
 78155  1  0  0  0
 78156  1  0  0  0
 79 80  1  0  0  0
 79157  1  0  0  0
 79158  1  0  0  0
 80 81  1  0  0  0
 80159  1  0  0  0
 80160  1  0  0  0
 81 82  1  0  0  0
 81161  1  0  0  0
 81162  1  0  0  0
 82 84  1  0  0  0
 82163  1  0  0  0
 82164  1  0  0  0
 83 84  1  0  0  0
 83 86  1  0  0  0
 83165  1  0  0  0
 83166  1  0  0  0
 86167  1  0  0  0
M  ISO  4   1 100  68 101  75 101  86 100
M  END
> <chiral flag>
0

> <version>
0

> <s_m_source_file>
/data/baiqing/PycharmProjects/Reinvent-master-3.2/result/LINK_invent/BTK/process_docking_weight1_custom_sum_contain_oxygen_bond_distance_aromatic_linkinvent_7_9_3/rearranged_h_0029.sdf

> <i_m_source_file_index>
74

> <r_mmod_Potential_Energy-OPLS-2005>
-148.36051940918

> <r_mmod_Stretch_Energy-OPLS-2005>
36.9834289550781

> <r_mmod_Bend_Energy-OPLS-2005>
100.167976379395

> <r_mmod_Torsional_Energy-OPLS-2005>
239.608993530273

> <r_mmod_Improper_Torsional_Energy-OPLS-2005>
6.28862333297729

> <r_mmod_Van_der_Waal_Energy-OPLS-2005>
159.844802856445

> <r_mmod_Electrostatic_Energy-OPLS-2005>
-503.2802734375

> <r_mmod_Solvation_Energy-OPLS-2005>
-203.160614013672

> <b_mmod_Minimization_Converged-OPLS-2005>
0

> <r_mmod_RMS_Derivative-OPLS-2005>
4.18387985229492

$$$$
74
                    3D
 Structure written by MMmdl.
151159  0  0  1  0            999 V2000
  -30.3599  -15.3881   20.3031 C   0  0  0  0  0  0
  -30.4387  -12.8988   19.4824 C   0  0  0  0  0  0
  -29.5255  -12.5657   18.2736 C   0  0  0  0  0  0
  -28.0936  -12.2548   18.7457 C   0  0  0  0  0  0
  -27.6026  -13.2678   19.8072 C   0  0  2  0  0  0
  -28.6431  -13.5070   20.9201 C   0  0  0  0  0  0
  -25.2393  -13.8226   20.5783 C   0  0  0  0  0  0
  -24.1729  -13.0424   20.9265 C   0  0  0  0  0  0
  -24.6384  -11.6920   20.8775 C   0  0  0  0  0  0
  -23.9071  -10.4277   21.0395 C   0  0  0  0  0  0
  -24.3624   -9.4193   21.9182 C   0  0  0  0  0  0
  -23.6282   -8.2230   22.0754 C   0  0  0  0  0  0
  -22.4270   -8.0262   21.3538 C   0  0  0  0  0  0
  -21.9892   -9.0249   20.4666 C   0  0  0  0  0  0
  -22.7220  -10.2128   20.3067 C   0  0  0  0  0  0
  -21.6847   -6.0716   22.5266 C   0  0  0  0  0  0
  -21.4008   -6.5623   23.8194 C   0  0  0  0  0  0
  -21.3660   -5.6789   24.9169 C   0  0  0  0  0  0
  -21.6054   -4.3046   24.7224 C   0  0  0  0  0  0
  -21.8820   -3.8126   23.4341 C   0  0  0  0  0  0
  -21.9189   -4.6942   22.3398 C   0  0  0  0  0  0
  -22.7764  -13.5196   21.1917 C   0  0  0  0  0  0
  -22.1664   -4.2126   21.0977 F   0  0  0  0  0  0
  -21.5635   -3.4534   25.7744 F   0  0  0  0  0  0
  -29.8329  -14.0572   20.2463 N   0  0  0  0  0  0
  -26.2795  -12.9478   20.3235 N   0  0  0  0  0  0
  -25.9316  -11.6590   20.5724 N   0  0  0  0  0  0
  -22.0420  -12.8206   22.0477 N   0  0  0  0  0  0
  -25.4078  -15.1958   20.4280 N   0  0  0  0  0  0
  -31.5974  -15.3833   20.2235 O   0  0  0  0  0  0
  -21.6628   -6.8860   21.4231 O   0  0  0  0  0  0
  -22.3456  -14.5502   20.6753 O   0  0  0  0  0  0
  -24.6722  -31.8114   23.1631 C   0  0  0  0  0  0
  -25.9360  -32.4507   23.8139 C   0  0  1  0  0  0
  -27.1995  -26.8347   20.1678 C   0  0  0  0  0  0
  -25.5988  -33.8337   24.2026 N   0  0  0  0  0  0
  -23.4926  -30.4231   21.5121 C   0  0  2  0  0  0
  -24.9375  -28.7871   20.1139 C   0  0  0  0  0  0
  -22.7723  -29.4407   22.4718 C   0  0  0  0  0  0
  -18.0356  -28.1400   22.8467 C   0  0  0  0  0  0
  -24.1488  -36.7174   23.2664 C   0  0  0  0  0  0
  -26.0683  -30.5738   21.4224 C   0  0  0  0  0  0
  -26.1226  -29.1584   20.7610 C   0  0  0  0  0  0
  -27.2451  -28.2005   20.7648 C   0  0  0  0  0  0
  -25.9880  -26.6370   19.4712 C   0  0  0  0  0  0
  -24.8959  -27.5489   19.4542 C   0  0  0  0  0  0
  -23.7360  -29.7347   20.1411 C   0  0  0  0  0  0
  -25.4148  -36.2940   24.0299 C   0  0  1  0  0  0
  -20.5979  -28.3789   23.1136 C   0  0  2  0  0  0
  -20.6809  -26.9431   22.5444 C   0  0  0  0  0  0
  -19.5804  -26.6323   21.5235 C   0  0  0  0  0  0
  -18.1971  -26.7923   22.1613 C   0  0  0  0  0  0
  -19.1611  -28.8913   23.2779 C   0  0  0  0  0  0
  -18.9522  -30.1488   23.8840 C   0  0  0  0  0  0
  -17.6513  -30.6596   24.0534 C   0  0  0  0  0  0
  -25.9107  -34.9305   23.4986 C   0  0  0  0  0  0
  -16.5395  -29.9081   23.6333 C   0  0  0  0  0  0
  -16.7335  -28.6482   23.0377 C   0  0  0  0  0  0
  -26.4536  -31.6553   25.0778 C   0  0  0  0  0  0
  -25.3621  -31.3932   26.1436 C   0  0  0  0  0  0
  -27.0450  -30.2858   24.6758 C   0  0  0  0  0  0
  -27.6022  -32.4426   25.7553 C   0  0  0  0  0  0
  -27.5553  -37.1775   24.8504 C   0  0  0  0  0  0
  -21.4390  -29.3027   22.3445 N   0  0  0  0  0  0
  -26.4321  -37.3663   23.9355 N   0  0  0  0  0  0
  -24.7661  -30.9684   22.0825 N   0  0  0  0  0  0
  -23.4213  -28.7995   23.3004 O   0  0  0  0  0  0
  -28.2113  -25.7109   20.1468 O   0  0  0  0  0  0
  -26.5749  -34.8842   22.4589 O   0  0  0  0  0  0
  -23.5773  -32.1144   23.6652 O   0  0  0  0  0  0
  -28.9455  -23.0374   19.7527 C   0  0  0  0  0  0
  -28.5832  -21.5915   20.1666 C   0  0  0  0  0  0
  -27.4874  -21.9845   20.9308 C   0  0  0  0  0  0
  -28.1550  -24.1806   20.2327 C   0  0  0  0  0  0
  -26.5883  -20.9808   21.6036 C   0  0  0  0  0  0
  -26.1687  -24.0595   21.7418 C   0  0  0  0  0  0
  -29.6331  -18.3414   20.5569 C   0  0  0  0  0  0
  -29.0471  -19.8834   19.7377 C   0  0  0  0  0  0
  -27.2420  -23.4207   20.9918 N   0  0  0  0  0  0
  -29.5552  -16.6609   20.2471 N   0  0  0  0  0  0
  -27.9796  -19.4547   19.0609 F   0  0  0  0  0  0
  -30.0000  -20.1084   18.8335 F   0  0  0  0  0  0
  -31.4369  -13.1477   19.1179 H   0  0  0  0  0  0
  -30.5699  -12.0264   20.1228 H   0  0  0  0  0  0
  -29.9231  -11.7207   17.7087 H   0  0  0  0  0  0
  -29.5077  -13.4103   17.5828 H   0  0  0  0  0  0
  -28.1062  -11.2585   19.1922 H   0  0  0  0  0  0
  -27.4071  -12.2029   17.9000 H   0  0  0  0  0  0
  -27.4950  -14.2090   19.2656 H   0  0  0  0  0  0
  -28.8677  -12.5975   21.4787 H   0  0  0  0  0  0
  -28.2741  -14.2355   21.6443 H   0  0  0  0  0  0
  -25.2767   -9.5655   22.4764 H   0  0  0  0  0  0
  -23.9979   -7.4616   22.7485 H   0  0  0  0  0  0
  -21.0803   -8.8795   19.8985 H   0  0  0  0  0  0
  -22.3673  -10.9692   19.6195 H   0  0  0  0  0  0
  -21.2001   -7.6134   23.9694 H   0  0  0  0  0  0
  -21.1484   -6.0519   25.9080 H   0  0  0  0  0  0
  -22.0599   -2.7583   23.2855 H   0  0  0  0  0  0
  -22.4052  -11.9885   22.4884 H   0  0  0  0  0  0
  -21.1076  -13.1281   22.2747 H   0  0  0  0  0  0
  -24.6393  -15.8496   20.5420 H   0  0  0  0  0  0
  -26.2615  -15.6395   20.1185 H   0  0  0  0  0  0
  -26.7461  -32.4978   23.0865 H   0  0  0  0  0  0
  -25.0040  -33.9377   25.0125 H   0  0  0  0  0  0
  -22.8146  -31.2595   21.3319 H   0  0  0  0  0  0
  -23.3709  -35.9560   23.3481 H   0  0  0  0  0  0
  -24.3511  -36.8664   22.2046 H   0  0  0  0  0  0
  -23.7338  -37.6442   23.6626 H   0  0  0  0  0  0
  -26.2942  -31.3112   20.6513 H   0  0  0  0  0  0
  -26.9077  -30.6059   22.1052 H   0  0  0  0  0  0
  -28.1481  -28.4786   21.2888 H   0  0  0  0  0  0
  -25.8542  -25.6976   18.9527 H   0  0  0  0  0  0
  -23.9970  -27.2600   18.9259 H   0  0  0  0  0  0
  -23.9154  -30.4966   19.3808 H   0  0  0  0  0  0
  -22.8412  -29.2013   19.8156 H   0  0  0  0  0  0
  -25.1359  -36.1737   25.0810 H   0  0  0  0  0  0
  -21.0074  -28.3419   24.1244 H   0  0  0  0  0  0
  -20.5600  -26.2423   23.3716 H   0  0  0  0  0  0
  -21.6678  -26.7311   22.1300 H   0  0  0  0  0  0
  -19.6938  -25.6187   21.1364 H   0  0  0  0  0  0
  -19.6741  -27.3031   20.6677 H   0  0  0  0  0  0
  -17.4235  -26.6678   21.4006 H   0  0  0  0  0  0
  -18.0345  -26.0074   22.9022 H   0  0  0  0  0  0
  -19.8000  -30.7312   24.2168 H   0  0  0  0  0  0
  -17.5072  -31.6270   24.5134 H   0  0  0  0  0  0
  -15.5402  -30.2958   23.7678 H   0  0  0  0  0  0
  -15.8739  -28.0763   22.7147 H   0  0  0  0  0  0
  -24.5760  -30.7312   25.7773 H   0  0  0  0  0  0
  -24.8851  -32.3186   26.4689 H   0  0  0  0  0  0
  -25.7784  -30.9216   27.0355 H   0  0  0  0  0  0
  -26.3154  -29.6475   24.1758 H   0  0  0  0  0  0
  -27.3788  -29.7346   25.5572 H   0  0  0  0  0  0
  -27.9199  -30.3908   24.0337 H   0  0  0  0  0  0
  -27.2532  -33.3726   26.2055 H   0  0  0  0  0  0
  -28.3818  -32.7021   25.0379 H   0  0  0  0  0  0
  -28.0724  -31.8665   26.5537 H   0  0  0  0  0  0
  -28.2723  -37.9909   24.7290 H   0  0  0  0  0  0
  -28.0883  -36.2431   24.6655 H   0  0  0  0  0  0
  -27.2242  -37.1826   25.8911 H   0  0  0  0  0  0
  -20.9673  -29.8706   21.6551 H   0  0  0  0  0  0
  -26.0178  -38.2758   24.1219 H   0  0  0  0  0  0
  -29.7623  -23.2290   19.0721 H   0  0  0  0  0  0
  -26.0818  -20.3708   20.8548 H   0  0  0  0  0  0
  -25.8181  -21.4094   22.2407 H   0  0  0  0  0  0
  -27.1791  -20.2979   22.2164 H   0  0  0  0  0  0
  -25.9236  -23.4970   22.6389 H   0  0  0  0  0  0
  -25.2797  -24.1624   21.1171 H   0  0  0  0  0  0
  -26.4819  -25.0509   22.0680 H   0  0  0  0  0  0
  -29.1420  -18.3895   21.5292 H   0  0  0  0  0  0
  -30.6872  -18.5165   20.7724 H   0  0  0  0  0  0
  -28.5832  -16.4147   20.1065 H   0  0  0  0  0  0
  1 25  1  0  0  0
  1 30  2  0  0  0
  1 80  1  0  0  0
  2  3  1  0  0  0
  2 25  1  0  0  0
  2 83  1  0  0  0
  2 84  1  0  0  0
  3  4  1  0  0  0
  3 85  1  0  0  0
  3 86  1  0  0  0
  4  5  1  0  0  0
  4 87  1  0  0  0
  4 88  1  0  0  0
  5  6  1  0  0  0
  5 26  1  0  0  0
  5 89  1  0  0  0
  6 25  1  0  0  0
  6 90  1  0  0  0
  6 91  1  0  0  0
  7  8  2  0  0  0
  7 26  1  0  0  0
  7 29  1  0  0  0
  8  9  1  0  0  0
  8 22  1  0  0  0
  9 10  1  0  0  0
  9 27  2  0  0  0
 10 11  2  0  0  0
 10 15  1  0  0  0
 11 12  1  0  0  0
 11 92  1  0  0  0
 12 13  2  0  0  0
 12 93  1  0  0  0
 13 14  1  0  0  0
 13 31  1  0  0  0
 14 15  2  0  0  0
 14 94  1  0  0  0
 15 95  1  0  0  0
 16 17  2  0  0  0
 16 21  1  0  0  0
 16 31  1  0  0  0
 17 18  1  0  0  0
 17 96  1  0  0  0
 18 19  2  0  0  0
 18 97  1  0  0  0
 19 20  1  0  0  0
 19 24  1  0  0  0
 20 21  2  0  0  0
 20 98  1  0  0  0
 21 23  1  0  0  0
 22 28  1  0  0  0
 22 32  2  0  0  0
 26 27  1  0  0  0
 28 99  1  0  0  0
 28100  1  0  0  0
 29101  1  0  0  0
 29102  1  0  0  0
 33 34  1  0  0  0
 33 66  1  0  0  0
 33 70  2  0  0  0
 34 36  1  0  0  0
 34 59  1  0  0  0
 34103  1  0  0  0
 35 44  2  0  0  0
 35 45  1  0  0  0
 35 68  1  0  0  0
 36 56  1  0  0  0
 36104  1  0  0  0
 37 39  1  0  0  0
 37 47  1  0  0  0
 37 66  1  0  0  0
 37105  1  0  0  0
 38 43  2  0  0  0
 38 46  1  0  0  0
 38 47  1  0  0  0
 39 64  1  0  0  0
 39 67  2  0  0  0
 40 52  1  0  0  0
 40 53  2  0  0  0
 40 58  1  0  0  0
 41106  1  0  0  0
 41107  1  0  0  0
 41108  1  0  0  0
 41 48  1  0  0  0
 42 43  1  0  0  0
 42 66  1  0  0  0
 42109  1  0  0  0
 42110  1  0  0  0
 43 44  1  0  0  0
 44111  1  0  0  0
 45 46  2  0  0  0
 45112  1  0  0  0
 46113  1  0  0  0
 47114  1  0  0  0
 47115  1  0  0  0
 48 56  1  0  0  0
 48 65  1  0  0  0
 48116  1  0  0  0
 49 50  1  0  0  0
 49 53  1  0  0  0
 49 64  1  0  0  0
 49117  1  0  0  0
 50 51  1  0  0  0
 50118  1  0  0  0
 50119  1  0  0  0
 51 52  1  0  0  0
 51120  1  0  0  0
 51121  1  0  0  0
 52122  1  0  0  0
 52123  1  0  0  0
 53 54  1  0  0  0
 54 55  2  0  0  0
 54124  1  0  0  0
 55 57  1  0  0  0
 55125  1  0  0  0
 56 69  2  0  0  0
 57 58  2  0  0  0
 57126  1  0  0  0
 58127  1  0  0  0
 59 60  1  0  0  0
 59 61  1  0  0  0
 59 62  1  0  0  0
 60128  1  0  0  0
 60129  1  0  0  0
 60130  1  0  0  0
 61131  1  0  0  0
 61132  1  0  0  0
 61133  1  0  0  0
 62134  1  0  0  0
 62135  1  0  0  0
 62136  1  0  0  0
 63 65  1  0  0  0
 63137  1  0  0  0
 63138  1  0  0  0
 63139  1  0  0  0
 64140  1  0  0  0
 65141  1  0  0  0
 68 74  1  0  0  0
 71 72  1  0  0  0
 71 74  2  0  0  0
 71142  1  0  0  0
 72 73  2  0  0  0
 72 78  1  0  0  0
 73 75  1  0  0  0
 73 79  1  0  0  0
 74 79  1  0  0  0
 75143  1  0  0  0
 75144  1  0  0  0
 75145  1  0  0  0
 76 79  1  0  0  0
 76146  1  0  0  0
 76147  1  0  0  0
 76148  1  0  0  0
 77 78  1  0  0  0
 77 80  1  0  0  0
 77149  1  0  0  0
 77150  1  0  0  0
 78 81  1  0  0  0
 78 82  1  0  0  0
 80151  1  0  0  0
M  ISO  4   1 100  68 101  74 101  80 100
M  END
> <chiral flag>
0

> <version>
0

> <s_m_source_file>
/data/baiqing/PycharmProjects/Reinvent-master-3.2/result/LINK_invent/BTK/process_docking_weight1_custom_sum_contain_oxygen_bond_distance_aromatic_linkinvent_7_9_3/rearranged_h_0029.sdf

> <i_m_source_file_index>
75

> <r_mmod_Potential_Energy-OPLS-2005>
1470.47814941406

> <r_mmod_Stretch_Energy-OPLS-2005>
662.567626953125

> <r_mmod_Bend_Energy-OPLS-2005>
495.528167724609

> <r_mmod_Torsional_Energy-OPLS-2005>
231.360168457031

> <r_mmod_Improper_Torsional_Energy-OPLS-2005>
6.26790380477905

> <r_mmod_Van_der_Waal_Energy-OPLS-2005>
104.357856750488

> <r_mmod_Electrostatic_Energy-OPLS-2005>
-419.806396484375

> <r_mmod_Solvation_Energy-OPLS-2005>
-216.061141967773

> <b_mmod_Minimization_Converged-OPLS-2005>
0

> <r_mmod_RMS_Derivative-OPLS-2005>
5.44669914245605

$$$$
75
                    3D
 Structure written by MMmdl.
174183  0  0  1  0            999 V2000
  -30.8196  -14.2499   20.7381 C   0  0  0  0  0  0
  -30.4031  -12.2701   19.3450 C   0  0  0  0  0  0
  -29.4628  -12.5318   18.1576 C   0  0  0  0  0  0
  -27.9925  -12.3774   18.5898 C   0  0  0  0  0  0
  -27.6610  -13.1994   19.8632 C   0  0  2  0  0  0
  -28.6969  -12.9260   20.9717 C   0  0  0  0  0  0
  -25.2594  -13.8169   20.5658 C   0  0  0  0  0  0
  -24.1838  -13.0460   20.9165 C   0  0  0  0  0  0
  -24.6388  -11.6915   20.8721 C   0  0  0  0  0  0
  -23.9073  -10.4286   21.0394 C   0  0  0  0  0  0
  -24.3622   -9.4194   21.9165 C   0  0  0  0  0  0
  -23.6303   -8.2237   22.0746 C   0  0  0  0  0  0
  -22.4276   -8.0284   21.3550 C   0  0  0  0  0  0
  -21.9901   -9.0249   20.4653 C   0  0  0  0  0  0
  -22.7242  -10.2126   20.3049 C   0  0  0  0  0  0
  -21.6839   -6.0738   22.5281 C   0  0  0  0  0  0
  -21.4007   -6.5643   23.8214 C   0  0  0  0  0  0
  -21.3658   -5.6799   24.9175 C   0  0  0  0  0  0
  -21.6041   -4.3054   24.7226 C   0  0  0  0  0  0
  -21.8825   -3.8151   23.4334 C   0  0  0  0  0  0
  -21.9192   -4.6969   22.3399 C   0  0  0  0  0  0
  -22.7858  -13.5262   21.1841 C   0  0  0  0  0  0
  -22.1659   -4.2154   21.0971 F   0  0  0  0  0  0
  -21.5629   -3.4532   25.7739 F   0  0  0  0  0  0
  -30.0500  -13.1784   20.4395 N   0  0  0  0  0  0
  -26.3004  -12.9322   20.3291 N   0  0  0  0  0  0
  -25.9295  -11.6479   20.5701 N   0  0  0  0  0  0
  -22.0514  -12.8242   22.0404 N   0  0  0  0  0  0
  -25.4376  -15.1889   20.4135 N   0  0  0  0  0  0
  -31.7607  -14.6380   20.0363 O   0  0  0  0  0  0
  -21.6652   -6.8866   21.4239 O   0  0  0  0  0  0
  -22.3515  -14.5559   20.6680 O   0  0  0  0  0  0
  -24.6103  -31.8704   23.2118 C   0  0  0  0  0  0
  -25.9010  -32.4838   23.8387 C   0  0  1  0  0  0
  -27.2382  -27.4736   20.0926 C   0  0  0  0  0  0
  -25.5862  -33.8631   24.2300 N   0  0  0  0  0  0
  -23.3953  -30.4884   21.5574 C   0  0  2  0  0  0
  -24.8418  -28.9547   20.1240 C   0  0  0  0  0  0
  -22.7362  -29.4661   22.5102 C   0  0  0  0  0  0
  -18.0250  -28.1341   22.8488 C   0  0  0  0  0  0
  -24.1488  -36.7278   23.2631 C   0  0  0  0  0  0
  -25.9207  -30.8443   21.3695 C   0  0  0  0  0  0
  -25.9978  -29.4810   20.7154 C   0  0  0  0  0  0
  -27.2008  -28.7468   20.6998 C   0  0  0  0  0  0
  -26.0697  -26.9490   19.5067 C   0  0  0  0  0  0
  -24.8681  -27.6823   19.5264 C   0  0  0  0  0  0
  -23.5981  -29.8099   20.1751 C   0  0  0  0  0  0
  -25.4115  -36.3107   24.0340 C   0  0  1  0  0  0
  -20.5828  -28.3619   23.1338 C   0  0  2  0  0  0
  -20.6733  -26.9348   22.5451 C   0  0  0  0  0  0
  -19.5730  -26.6360   21.5205 C   0  0  0  0  0  0
  -18.1874  -26.7923   22.1547 C   0  0  0  0  0  0
  -19.1503  -28.8788   23.2910 C   0  0  0  0  0  0
  -18.9445  -30.1413   23.8903 C   0  0  0  0  0  0
  -17.6447  -30.6542   24.0559 C   0  0  0  0  0  0
  -25.9037  -34.9478   23.5121 C   0  0  0  0  0  0
  -16.5329  -29.9043   23.6357 C   0  0  0  0  0  0
  -16.7251  -28.6466   23.0371 C   0  0  0  0  0  0
  -26.4457  -31.6646   25.0729 C   0  0  0  0  0  0
  -25.3683  -31.3843   26.1468 C   0  0  0  0  0  0
  -27.0262  -30.3024   24.6217 C   0  0  0  0  0  0
  -27.6036  -32.4390   25.7459 C   0  0  0  0  0  0
  -27.5612  -37.1746   24.8399 C   0  0  0  0  0  0
  -21.4106  -29.2991   22.3766 N   0  0  0  0  0  0
  -26.4277  -37.3817   23.9425 N   0  0  0  0  0  0
  -24.6581  -31.0819   22.1022 N   0  0  0  0  0  0
  -23.4138  -28.8209   23.3141 O   0  0  0  0  0  0
  -28.4058  -26.7688   19.9734 O   0  0  0  0  0  0
  -26.5573  -34.8931   22.4675 O   0  0  0  0  0  0
  -23.5294  -32.1445   23.7509 O   0  0  0  0  0  0
  -28.4749  -24.7703   23.0679 C   0  0  0  0  0  0
  -28.0775  -22.6049   21.3348 C   0  0  0  0  0  0
  -28.5580  -24.9792   21.6739 C   0  0  0  0  0  0
  -28.1032  -22.3851   22.7277 C   0  0  0  0  0  0
  -28.3355  -23.8818   20.8010 C   0  0  0  0  0  0
  -28.2557  -23.4864   23.5978 C   0  0  0  0  0  0
  -31.3705  -17.0837   21.9202 C   0  0  0  0  0  0
  -32.1250  -18.1372   22.7296 C   0  0  0  0  0  0
  -30.7457  -15.9088   24.0843 C   0  0  0  0  0  0
  -31.3654  -17.0587   24.9044 C   0  0  1  0  0  0
  -31.3559  -15.7434   22.6764 C   0  0  1  0  0  0
  -31.4333  -18.3743   24.0874 C   0  0  2  0  0  0
  -31.2292  -18.2415   27.2125 C   0  0  0  0  0  0
  -29.0199  -26.3450   21.1800 C   0  0  0  0  0  0
  -28.1798  -20.9589   23.2571 C   0  0  0  0  0  0
  -30.6441  -17.1870   26.2643 C   0  0  0  0  0  0
  -30.5808  -14.7440   21.9544 N   0  0  0  0  0  0
  -30.0932  -18.9718   23.9295 N   0  0  0  0  0  0
  -30.2198  -20.2533   21.6909 O   0  0  0  0  0  0
  -30.7829  -21.4334   23.8655 O   0  0  0  0  0  0
  -29.9447  -20.4777   23.1195 S   0  0  0  0  0  0
  -28.4598  -24.0150   19.0787 Cl  0  0  0  0  0  0
  -28.2558  -23.2834   25.3115 Cl  0  0  0  0  0  0
  -31.4420  -12.3784   19.0288 H   0  0  0  0  0  0
  -30.3078  -11.2366   19.6808 H   0  0  0  0  0  0
  -29.6870  -11.8402   17.3431 H   0  0  0  0  0  0
  -29.6267  -13.5380   17.7646 H   0  0  0  0  0  0
  -27.8056  -11.3175   18.7691 H   0  0  0  0  0  0
  -27.3327  -12.6654   17.7686 H   0  0  0  0  0  0
  -27.7251  -14.2543   19.5935 H   0  0  0  0  0  0
  -28.6354  -11.8872   21.2957 H   0  0  0  0  0  0
  -28.4396  -13.5232   21.8446 H   0  0  0  0  0  0
  -25.2761   -9.5675   22.4728 H   0  0  0  0  0  0
  -24.0022   -7.4614   22.7431 H   0  0  0  0  0  0
  -21.0827   -8.8746   19.8946 H   0  0  0  0  0  0
  -22.3678  -10.9660   19.6151 H   0  0  0  0  0  0
  -21.1992   -7.6152   23.9724 H   0  0  0  0  0  0
  -21.1477   -6.0521   25.9077 H   0  0  0  0  0  0
  -22.0605   -2.7620   23.2842 H   0  0  0  0  0  0
  -22.4101  -11.9921   22.4863 H   0  0  0  0  0  0
  -21.1116  -13.1224   22.2576 H   0  0  0  0  0  0
  -24.6840  -15.8564   20.5304 H   0  0  0  0  0  0
  -26.3128  -15.6254   20.1544 H   0  0  0  0  0  0
  -26.7078  -32.5553   23.1156 H   0  0  0  0  0  0
  -25.0097  -33.9840   25.0493 H   0  0  0  0  0  0
  -22.6868  -31.3053   21.4148 H   0  0  0  0  0  0
  -23.3827  -35.9517   23.3192 H   0  0  0  0  0  0
  -24.3613  -36.8981   22.2045 H   0  0  0  0  0  0
  -23.7108  -37.6399   23.6719 H   0  0  0  0  0  0
  -26.0415  -31.6193   20.6118 H   0  0  0  0  0  0
  -26.8041  -30.8829   21.9962 H   0  0  0  0  0  0
  -28.1045  -29.1671   21.1215 H   0  0  0  0  0  0
  -26.0927  -25.9812   19.0305 H   0  0  0  0  0  0
  -23.9787  -27.2706   19.0751 H   0  0  0  0  0  0
  -23.6801  -30.5708   19.4001 H   0  0  0  0  0  0
  -22.7327  -29.2038   19.9013 H   0  0  0  0  0  0
  -25.1313  -36.1942   25.0844 H   0  0  0  0  0  0
  -20.9880  -28.3175   24.1471 H   0  0  0  0  0  0
  -20.5537  -26.2251   23.3661 H   0  0  0  0  0  0
  -21.6631  -26.7360   22.1307 H   0  0  0  0  0  0
  -19.6880  -25.6266   21.1236 H   0  0  0  0  0  0
  -19.6723  -27.3197   20.6752 H   0  0  0  0  0  0
  -17.4221  -26.6794   21.3858 H   0  0  0  0  0  0
  -18.0158  -26.0001   22.8844 H   0  0  0  0  0  0
  -19.7936  -30.7224   24.2261 H   0  0  0  0  0  0
  -17.5020  -31.6235   24.5126 H   0  0  0  0  0  0
  -15.5335  -30.2937   23.7695 H   0  0  0  0  0  0
  -15.8650  -28.0768   22.7108 H   0  0  0  0  0  0
  -24.6027  -30.6949   25.7891 H   0  0  0  0  0  0
  -24.8665  -32.3008   26.4565 H   0  0  0  0  0  0
  -25.7999  -30.9363   27.0423 H   0  0  0  0  0  0
  -26.2820  -29.6807   24.1220 H   0  0  0  0  0  0
  -27.3866  -29.7278   25.4763 H   0  0  0  0  0  0
  -27.8746  -30.4251   23.9486 H   0  0  0  0  0  0
  -27.2630  -33.3668   26.2087 H   0  0  0  0  0  0
  -28.3774  -32.7006   25.0223 H   0  0  0  0  0  0
  -28.0811  -31.8516   26.5317 H   0  0  0  0  0  0
  -28.2556  -38.0120   24.7655 H   0  0  0  0  0  0
  -28.1230  -36.2713   24.5995 H   0  0  0  0  0  0
  -27.2421  -37.1027   25.8809 H   0  0  0  0  0  0
  -20.9260  -29.8674   21.6963 H   0  0  0  0  0  0
  -26.0189  -38.2879   24.1571 H   0  0  0  0  0  0
  -28.6530  -25.5873   23.7466 H   0  0  0  0  0  0
  -27.9655  -21.7700   20.6545 H   0  0  0  0  0  0
  -31.8505  -16.9871   20.9479 H   0  0  0  0  0  0
  -30.3511  -17.4144   21.7208 H   0  0  0  0  0  0
  -32.2382  -19.0532   22.1549 H   0  0  0  0  0  0
  -33.1480  -17.7932   22.8876 H   0  0  0  0  0  0
  -29.6720  -16.0787   23.9985 H   0  0  0  0  0  0
  -30.8593  -14.9737   24.6362 H   0  0  0  0  0  0
  -32.3961  -16.7637   25.1139 H   0  0  0  0  0  0
  -32.3807  -15.3774   22.7755 H   0  0  0  0  0  0
  -32.0404  -19.0907   24.6426 H   0  0  0  0  0  0
  -30.7859  -18.1383   28.2046 H   0  0  0  0  0  0
  -31.0180  -19.2548   26.8706 H   0  0  0  0  0  0
  -32.3101  -18.1370   27.3161 H   0  0  0  0  0  0
  -30.0916  -26.2721   20.9966 H   0  0  0  0  0  0
  -28.9074  -27.0913   21.9665 H   0  0  0  0  0  0
  -27.6025  -20.2609   22.6552 H   0  0  0  0  0  0
  -27.8573  -20.8623   24.2926 H   0  0  0  0  0  0
  -30.6835  -16.2220   26.7709 H   0  0  0  0  0  0
  -29.5846  -17.3900   26.1080 H   0  0  0  0  0  0
  -29.8297  -14.2966   22.4579 H   0  0  0  0  0  0
  -29.6744  -19.0750   24.8571 H   0  0  0  0  0  0
  1 25  1  0  0  0
  1 30  2  0  0  0
  1 87  1  0  0  0
  2  3  1  0  0  0
  2 25  1  0  0  0
  2 94  1  0  0  0
  2 95  1  0  0  0
  3  4  1  0  0  0
  3 96  1  0  0  0
  3 97  1  0  0  0
  4  5  1  0  0  0
  4 98  1  0  0  0
  4 99  1  0  0  0
  5  6  1  0  0  0
  5 26  1  0  0  0
  5100  1  0  0  0
  6 25  1  0  0  0
  6101  1  0  0  0
  6102  1  0  0  0
  7  8  2  0  0  0
  7 26  1  0  0  0
  7 29  1  0  0  0
  8  9  1  0  0  0
  8 22  1  0  0  0
  9 10  1  0  0  0
  9 27  2  0  0  0
 10 11  2  0  0  0
 10 15  1  0  0  0
 11 12  1  0  0  0
 11103  1  0  0  0
 12 13  2  0  0  0
 12104  1  0  0  0
 13 14  1  0  0  0
 13 31  1  0  0  0
 14 15  2  0  0  0
 14105  1  0  0  0
 15106  1  0  0  0
 16 17  2  0  0  0
 16 21  1  0  0  0
 16 31  1  0  0  0
 17 18  1  0  0  0
 17107  1  0  0  0
 18 19  2  0  0  0
 18108  1  0  0  0
 19 20  1  0  0  0
 19 24  1  0  0  0
 20 21  2  0  0  0
 20109  1  0  0  0
 21 23  1  0  0  0
 22 28  1  0  0  0
 22 32  2  0  0  0
 26 27  1  0  0  0
 28110  1  0  0  0
 28111  1  0  0  0
 29112  1  0  0  0
 29113  1  0  0  0
 33 34  1  0  0  0
 33 66  1  0  0  0
 33 70  2  0  0  0
 34 36  1  0  0  0
 34 59  1  0  0  0
 34114  1  0  0  0
 35 44  2  0  0  0
 35 45  1  0  0  0
 35 68  1  0  0  0
 36 56  1  0  0  0
 36115  1  0  0  0
 37 39  1  0  0  0
 37 47  1  0  0  0
 37 66  1  0  0  0
 37116  1  0  0  0
 38 43  2  0  0  0
 38 46  1  0  0  0
 38 47  1  0  0  0
 39 64  1  0  0  0
 39 67  2  0  0  0
 40 52  1  0  0  0
 40 53  2  0  0  0
 40 58  1  0  0  0
 41117  1  0  0  0
 41118  1  0  0  0
 41119  1  0  0  0
 41 48  1  0  0  0
 42 43  1  0  0  0
 42 66  1  0  0  0
 42120  1  0  0  0
 42121  1  0  0  0
 43 44  1  0  0  0
 44122  1  0  0  0
 45 46  2  0  0  0
 45123  1  0  0  0
 46124  1  0  0  0
 47125  1  0  0  0
 47126  1  0  0  0
 48 56  1  0  0  0
 48 65  1  0  0  0
 48127  1  0  0  0
 49 50  1  0  0  0
 49 53  1  0  0  0
 49 64  1  0  0  0
 49128  1  0  0  0
 50 51  1  0  0  0
 50129  1  0  0  0
 50130  1  0  0  0
 51 52  1  0  0  0
 51131  1  0  0  0
 51132  1  0  0  0
 52133  1  0  0  0
 52134  1  0  0  0
 53 54  1  0  0  0
 54 55  2  0  0  0
 54135  1  0  0  0
 55 57  1  0  0  0
 55136  1  0  0  0
 56 69  2  0  0  0
 57 58  2  0  0  0
 57137  1  0  0  0
 58138  1  0  0  0
 59 60  1  0  0  0
 59 61  1  0  0  0
 59 62  1  0  0  0
 60139  1  0  0  0
 60140  1  0  0  0
 60141  1  0  0  0
 61142  1  0  0  0
 61143  1  0  0  0
 61144  1  0  0  0
 62145  1  0  0  0
 62146  1  0  0  0
 62147  1  0  0  0
 63 65  1  0  0  0
 63148  1  0  0  0
 63149  1  0  0  0
 63150  1  0  0  0
 64151  1  0  0  0
 65152  1  0  0  0
 68 84  1  0  0  0
 71 73  2  0  0  0
 71 76  1  0  0  0
 71153  1  0  0  0
 72 74  1  0  0  0
 72 75  2  0  0  0
 72154  1  0  0  0
 73 75  1  0  0  0
 73 84  1  0  0  0
 74 76  2  0  0  0
 74 85  1  0  0  0
 75 92  1  0  0  0
 76 93  1  0  0  0
 77 78  1  0  0  0
 77 81  1  0  0  0
 77155  1  0  0  0
 77156  1  0  0  0
 78 82  1  0  0  0
 78157  1  0  0  0
 78158  1  0  0  0
 79 80  1  0  0  0
 79 81  1  0  0  0
 79159  1  0  0  0
 79160  1  0  0  0
 80 82  1  0  0  0
 80 86  1  0  0  0
 80161  1  0  0  0
 81 87  1  0  0  0
 81162  1  0  0  0
 82 88  1  0  0  0
 82163  1  0  0  0
 83 86  1  0  0  0
 83164  1  0  0  0
 83165  1  0  0  0
 83166  1  0  0  0
 84167  1  0  0  0
 84168  1  0  0  0
 85169  1  0  0  0
 85170  1  0  0  0
 85 91  1  0  0  0
 86171  1  0  0  0
 86172  1  0  0  0
 87173  1  0  0  0
 88 91  1  0  0  0
 88174  1  0  0  0
 89 91  2  0  0  0
 90 91  2  0  0  0
M  ISO  4   1 100  68 101  84 101  87 100
M  END
> <chiral flag>
0

> <version>
0

> <s_m_source_file>
/data/baiqing/PycharmProjects/Reinvent-master-3.2/result/LINK_invent/BTK/process_docking_weight1_custom_sum_contain_oxygen_bond_distance_aromatic_linkinvent_7_9_3/rearranged_h_0029.sdf

> <i_m_source_file_index>
76

> <r_mmod_Potential_Energy-OPLS-2005>
-228.687210083008

> <r_mmod_Stretch_Energy-OPLS-2005>
31.5185775756836

> <r_mmod_Bend_Energy-OPLS-2005>
101.205139160156

> <r_mmod_Torsional_Energy-OPLS-2005>
266.716094970703

> <r_mmod_Improper_Torsional_Energy-OPLS-2005>
11.0748472213745

> <r_mmod_Van_der_Waal_Energy-OPLS-2005>
149.503173828125

> <r_mmod_Electrostatic_Energy-OPLS-2005>
-554.518310546875

> <r_mmod_Solvation_Energy-OPLS-2005>
-243.626007080078

> <b_mmod_Minimization_Converged-OPLS-2005>
0

> <r_mmod_RMS_Derivative-OPLS-2005>
5.60715055465698

$$$$
76
                    3D
 Structure written by MMmdl.
163171  0  0  1  0            999 V2000
  -30.7284  -14.4178   20.6467 C   0  0  0  0  0  0
  -30.4252  -12.3050   19.4047 C   0  0  0  0  0  0
  -29.4917  -12.5241   18.1979 C   0  0  0  0  0  0
  -28.0134  -12.3802   18.6100 C   0  0  0  0  0  0
  -27.6659  -13.2031   19.8792 C   0  0  2  0  0  0
  -28.7042  -12.9526   20.9943 C   0  0  0  0  0  0
  -25.2612  -13.8155   20.5664 C   0  0  0  0  0  0
  -24.1851  -13.0433   20.9148 C   0  0  0  0  0  0
  -24.6401  -11.6901   20.8712 C   0  0  0  0  0  0
  -23.9070  -10.4290   21.0397 C   0  0  0  0  0  0
  -24.3621   -9.4207   21.9177 C   0  0  0  0  0  0
  -23.6294   -8.2250   22.0754 C   0  0  0  0  0  0
  -22.4277   -8.0283   21.3547 C   0  0  0  0  0  0
  -21.9918   -9.0252   20.4648 C   0  0  0  0  0  0
  -22.7245  -10.2128   20.3045 C   0  0  0  0  0  0
  -21.6852   -6.0739   22.5277 C   0  0  0  0  0  0
  -21.4020   -6.5645   23.8207 C   0  0  0  0  0  0
  -21.3657   -5.6796   24.9171 C   0  0  0  0  0  0
  -21.6043   -4.3059   24.7227 C   0  0  0  0  0  0
  -21.8819   -3.8153   23.4345 C   0  0  0  0  0  0
  -21.9196   -4.6966   22.3403 C   0  0  0  0  0  0
  -22.7883  -13.5236   21.1825 C   0  0  0  0  0  0
  -22.1662   -4.2156   21.0977 F   0  0  0  0  0  0
  -21.5627   -3.4543   25.7744 F   0  0  0  0  0  0
  -30.0410  -13.2616   20.4531 N   0  0  0  0  0  0
  -26.3048  -12.9316   20.3373 N   0  0  0  0  0  0
  -25.9324  -11.6479   20.5745 N   0  0  0  0  0  0
  -22.0532  -12.8217   22.0384 N   0  0  0  0  0  0
  -25.4338  -15.1876   20.4094 N   0  0  0  0  0  0
  -31.8032  -14.6668   20.0916 O   0  0  0  0  0  0
  -21.6639   -6.8882   21.4240 O   0  0  0  0  0  0
  -22.3568  -14.5545   20.6686 O   0  0  0  0  0  0
  -24.6135  -31.8670   23.2138 C   0  0  0  0  0  0
  -25.9043  -32.4814   23.8420 C   0  0  1  0  0  0
  -27.2399  -27.4517   20.0808 C   0  0  0  0  0  0
  -25.5906  -33.8616   24.2360 N   0  0  0  0  0  0
  -23.3993  -30.4909   21.5530 C   0  0  2  0  0  0
  -24.8445  -28.9566   20.1168 C   0  0  0  0  0  0
  -22.7382  -29.4653   22.5008 C   0  0  0  0  0  0
  -18.0248  -28.1373   22.8503 C   0  0  0  0  0  0
  -24.1472  -36.7313   23.2640 C   0  0  0  0  0  0
  -25.9256  -30.8349   21.3641 C   0  0  0  0  0  0
  -26.0015  -29.4678   20.7167 C   0  0  0  0  0  0
  -27.1956  -28.7157   20.7086 C   0  0  0  0  0  0
  -26.0600  -26.9454   19.4884 C   0  0  0  0  0  0
  -24.8662  -27.6910   19.5056 C   0  0  0  0  0  0
  -23.6068  -29.8226   20.1665 C   0  0  0  0  0  0
  -25.4089  -36.3106   24.0347 C   0  0  1  0  0  0
  -20.5835  -28.3649   23.1320 C   0  0  2  0  0  0
  -20.6738  -26.9389   22.5408 C   0  0  0  0  0  0
  -19.5717  -26.6374   21.5209 C   0  0  0  0  0  0
  -18.1891  -26.7929   22.1614 C   0  0  0  0  0  0
  -19.1499  -28.8831   23.2904 C   0  0  0  0  0  0
  -18.9437  -30.1446   23.8897 C   0  0  0  0  0  0
  -17.6447  -30.6595   24.0560 C   0  0  0  0  0  0
  -25.9020  -34.9470   23.5140 C   0  0  0  0  0  0
  -16.5331  -29.9095   23.6338 C   0  0  0  0  0  0
  -16.7242  -28.6503   23.0374 C   0  0  0  0  0  0
  -26.4494  -31.6592   25.0731 C   0  0  0  0  0  0
  -25.3795  -31.3663   26.1505 C   0  0  0  0  0  0
  -27.0353  -30.3061   24.6080 C   0  0  0  0  0  0
  -27.6073  -32.4317   25.7484 C   0  0  0  0  0  0
  -27.5575  -37.1794   24.8463 C   0  0  0  0  0  0
  -21.4112  -29.3031   22.3749 N   0  0  0  0  0  0
  -26.4278  -37.3794   23.9429 N   0  0  0  0  0  0
  -24.6640  -31.0782   22.1032 N   0  0  0  0  0  0
  -23.4157  -28.8189   23.3042 O   0  0  0  0  0  0
  -28.4365  -26.7661   20.0743 O   0  0  0  0  0  0
  -26.5560  -34.8917   22.4690 O   0  0  0  0  0  0
  -23.5341  -32.1429   23.7550 O   0  0  0  0  0  0
  -28.6955  -23.6290   20.3540 C   0  0  0  0  0  0
  -28.3077  -24.4319   19.2421 C   0  0  0  0  0  0
  -28.1948  -22.3651   20.1971 C   0  0  0  0  0  0
  -27.5636  -23.6206   18.4226 C   0  0  0  0  0  0
  -26.9184  -23.9121   17.0991 C   0  0  0  0  0  0
  -26.7517  -21.2293   18.4453 C   0  0  0  0  0  0
  -28.7084  -25.8769   18.9901 C   0  0  0  0  0  0
  -28.3409  -21.1523   21.0811 C   0  0  0  0  0  0
  -29.2460  -20.0442   20.4990 C   0  0  0  0  0  0
  -29.4266  -18.8378   21.4454 C   0  0  0  0  0  0
  -30.3626  -17.7480   20.8795 C   0  0  0  0  0  0
  -30.6739  -16.6053   21.8774 C   0  0  0  0  0  0
  -27.4721  -22.3632   19.0103 N   0  0  0  0  0  0
  -30.1395  -15.3053   21.4635 N   0  0  0  0  0  0
  -31.4666  -12.4177   19.0983 H   0  0  0  0  0  0
  -30.3350  -11.2844   19.7807 H   0  0  0  0  0  0
  -29.7291  -11.8163   17.4028 H   0  0  0  0  0  0
  -29.6584  -13.5188   17.7809 H   0  0  0  0  0  0
  -27.8170  -11.3218   18.7880 H   0  0  0  0  0  0
  -27.3636  -12.6754   17.7850 H   0  0  0  0  0  0
  -27.7213  -14.2562   19.6049 H   0  0  0  0  0  0
  -28.6762  -11.9080   21.3078 H   0  0  0  0  0  0
  -28.4535  -13.5227   21.8894 H   0  0  0  0  0  0
  -25.2768   -9.5685   22.4742 H   0  0  0  0  0  0
  -24.0006   -7.4645   22.7475 H   0  0  0  0  0  0
  -21.0852   -8.8768   19.8949 H   0  0  0  0  0  0
  -22.3711  -10.9662   19.6150 H   0  0  0  0  0  0
  -21.2012   -7.6151   23.9718 H   0  0  0  0  0  0
  -21.1476   -6.0525   25.9074 H   0  0  0  0  0  0
  -22.0602   -2.7619   23.2844 H   0  0  0  0  0  0
  -22.4167  -11.9864   22.4739 H   0  0  0  0  0  0
  -21.1154  -13.1228   22.2610 H   0  0  0  0  0  0
  -24.6699  -15.8452   20.5212 H   0  0  0  0  0  0
  -26.2950  -15.6274   20.1082 H   0  0  0  0  0  0
  -26.7107  -32.5540   23.1179 H   0  0  0  0  0  0
  -25.0148  -33.9786   25.0571 H   0  0  0  0  0  0
  -22.6884  -31.3077   21.4139 H   0  0  0  0  0  0
  -23.3748  -35.9622   23.3256 H   0  0  0  0  0  0
  -24.3587  -36.8982   22.2067 H   0  0  0  0  0  0
  -23.7189  -37.6486   23.6688 H   0  0  0  0  0  0
  -26.0327  -31.5973   20.5912 H   0  0  0  0  0  0
  -26.8163  -30.8928   21.9779 H   0  0  0  0  0  0
  -28.0910  -29.1095   21.1696 H   0  0  0  0  0  0
  -26.0455  -25.9739   19.0179 H   0  0  0  0  0  0
  -23.9736  -27.2884   19.0455 H   0  0  0  0  0  0
  -23.7144  -30.5969   19.4056 H   0  0  0  0  0  0
  -22.7318  -29.2400   19.8724 H   0  0  0  0  0  0
  -25.1262  -36.1980   25.0837 H   0  0  0  0  0  0
  -20.9925  -28.3209   24.1441 H   0  0  0  0  0  0
  -20.5648  -26.2253   23.3581 H   0  0  0  0  0  0
  -21.6608  -26.7434   22.1202 H   0  0  0  0  0  0
  -19.6866  -25.6283   21.1237 H   0  0  0  0  0  0
  -19.6672  -27.3172   20.6730 H   0  0  0  0  0  0
  -17.4172  -26.6707   21.3999 H   0  0  0  0  0  0
  -18.0267  -26.0049   22.8981 H   0  0  0  0  0  0
  -19.7921  -30.7259   24.2261 H   0  0  0  0  0  0
  -17.5009  -31.6290   24.5139 H   0  0  0  0  0  0
  -15.5333  -30.3012   23.7656 H   0  0  0  0  0  0
  -15.8642  -28.0826   22.7108 H   0  0  0  0  0  0
  -24.5973  -30.6996   25.7862 H   0  0  0  0  0  0
  -24.8987  -32.2798   26.5011 H   0  0  0  0  0  0
  -25.8201  -30.8816   27.0230 H   0  0  0  0  0  0
  -26.2887  -29.6764   24.1233 H   0  0  0  0  0  0
  -27.4269  -29.7350   25.4506 H   0  0  0  0  0  0
  -27.8645  -30.4420   23.9134 H   0  0  0  0  0  0
  -27.2721  -33.3644   26.2033 H   0  0  0  0  0  0
  -28.3900  -32.6831   25.0314 H   0  0  0  0  0  0
  -28.0719  -31.8458   26.5422 H   0  0  0  0  0  0
  -28.2565  -38.0123   24.7577 H   0  0  0  0  0  0
  -28.1107  -36.2662   24.6219 H   0  0  0  0  0  0
  -27.2300  -37.1368   25.8865 H   0  0  0  0  0  0
  -20.9253  -29.8822   21.7044 H   0  0  0  0  0  0
  -26.0171  -38.2863   24.1466 H   0  0  0  0  0  0
  -29.3060  -23.9498   21.1872 H   0  0  0  0  0  0
  -27.3504  -24.7927   16.6250 H   0  0  0  0  0  0
  -25.8489  -24.0918   17.2167 H   0  0  0  0  0  0
  -27.0483  -23.0840   16.4022 H   0  0  0  0  0  0
  -26.4804  -20.5090   19.2156 H   0  0  0  0  0  0
  -27.3760  -20.7344   17.7005 H   0  0  0  0  0  0
  -25.8302  -21.5651   17.9694 H   0  0  0  0  0  0
  -28.2733  -26.2547   18.0649 H   0  0  0  0  0  0
  -29.7864  -25.8887   18.8281 H   0  0  0  0  0  0
  -27.3563  -20.7446   21.3125 H   0  0  0  0  0  0
  -28.7490  -21.4677   22.0433 H   0  0  0  0  0  0
  -30.2230  -20.4736   20.2741 H   0  0  0  0  0  0
  -28.8408  -19.6971   19.5482 H   0  0  0  0  0  0
  -28.4537  -18.3974   21.6664 H   0  0  0  0  0  0
  -29.8230  -19.1948   22.3966 H   0  0  0  0  0  0
  -31.3061  -18.2212   20.6010 H   0  0  0  0  0  0
  -29.9523  -17.3486   19.9507 H   0  0  0  0  0  0
  -30.2686  -16.8375   22.8630 H   0  0  0  0  0  0
  -31.7540  -16.5241   22.0202 H   0  0  0  0  0  0
  -29.2576  -15.0229   21.8655 H   0  0  0  0  0  0
  1 25  1  0  0  0
  1 30  2  0  0  0
  1 84  1  0  0  0
  2  3  1  0  0  0
  2 25  1  0  0  0
  2 85  1  0  0  0
  2 86  1  0  0  0
  3  4  1  0  0  0
  3 87  1  0  0  0
  3 88  1  0  0  0
  4  5  1  0  0  0
  4 89  1  0  0  0
  4 90  1  0  0  0
  5  6  1  0  0  0
  5 26  1  0  0  0
  5 91  1  0  0  0
  6 25  1  0  0  0
  6 92  1  0  0  0
  6 93  1  0  0  0
  7  8  2  0  0  0
  7 26  1  0  0  0
  7 29  1  0  0  0
  8  9  1  0  0  0
  8 22  1  0  0  0
  9 10  1  0  0  0
  9 27  2  0  0  0
 10 11  2  0  0  0
 10 15  1  0  0  0
 11 12  1  0  0  0
 11 94  1  0  0  0
 12 13  2  0  0  0
 12 95  1  0  0  0
 13 14  1  0  0  0
 13 31  1  0  0  0
 14 15  2  0  0  0
 14 96  1  0  0  0
 15 97  1  0  0  0
 16 17  2  0  0  0
 16 21  1  0  0  0
 16 31  1  0  0  0
 17 18  1  0  0  0
 17 98  1  0  0  0
 18 19  2  0  0  0
 18 99  1  0  0  0
 19 20  1  0  0  0
 19 24  1  0  0  0
 20 21  2  0  0  0
 20100  1  0  0  0
 21 23  1  0  0  0
 22 28  1  0  0  0
 22 32  2  0  0  0
 26 27  1  0  0  0
 28101  1  0  0  0
 28102  1  0  0  0
 29103  1  0  0  0
 29104  1  0  0  0
 33 34  1  0  0  0
 33 66  1  0  0  0
 33 70  2  0  0  0
 34 36  1  0  0  0
 34 59  1  0  0  0
 34105  1  0  0  0
 35 44  2  0  0  0
 35 45  1  0  0  0
 35 68  1  0  0  0
 36 56  1  0  0  0
 36106  1  0  0  0
 37 39  1  0  0  0
 37 47  1  0  0  0
 37 66  1  0  0  0
 37107  1  0  0  0
 38 43  2  0  0  0
 38 46  1  0  0  0
 38 47  1  0  0  0
 39 64  1  0  0  0
 39 67  2  0  0  0
 40 52  1  0  0  0
 40 53  2  0  0  0
 40 58  1  0  0  0
 41108  1  0  0  0
 41109  1  0  0  0
 41110  1  0  0  0
 41 48  1  0  0  0
 42 43  1  0  0  0
 42 66  1  0  0  0
 42111  1  0  0  0
 42112  1  0  0  0
 43 44  1  0  0  0
 44113  1  0  0  0
 45 46  2  0  0  0
 45114  1  0  0  0
 46115  1  0  0  0
 47116  1  0  0  0
 47117  1  0  0  0
 48 56  1  0  0  0
 48 65  1  0  0  0
 48118  1  0  0  0
 49 50  1  0  0  0
 49 53  1  0  0  0
 49 64  1  0  0  0
 49119  1  0  0  0
 50 51  1  0  0  0
 50120  1  0  0  0
 50121  1  0  0  0
 51 52  1  0  0  0
 51122  1  0  0  0
 51123  1  0  0  0
 52124  1  0  0  0
 52125  1  0  0  0
 53 54  1  0  0  0
 54 55  2  0  0  0
 54126  1  0  0  0
 55 57  1  0  0  0
 55127  1  0  0  0
 56 69  2  0  0  0
 57 58  2  0  0  0
 57128  1  0  0  0
 58129  1  0  0  0
 59 60  1  0  0  0
 59 61  1  0  0  0
 59 62  1  0  0  0
 60130  1  0  0  0
 60131  1  0  0  0
 60132  1  0  0  0
 61133  1  0  0  0
 61134  1  0  0  0
 61135  1  0  0  0
 62136  1  0  0  0
 62137  1  0  0  0
 62138  1  0  0  0
 63 65  1  0  0  0
 63139  1  0  0  0
 63140  1  0  0  0
 63141  1  0  0  0
 64142  1  0  0  0
 65143  1  0  0  0
 68 77  1  0  0  0
 71 72  1  0  0  0
 71 73  2  0  0  0
 71144  1  0  0  0
 72 74  2  0  0  0
 72 77  1  0  0  0
 73 78  1  0  0  0
 73 83  1  0  0  0
 74 75  1  0  0  0
 74 83  1  0  0  0
 75145  1  0  0  0
 75146  1  0  0  0
 75147  1  0  0  0
 76 83  1  0  0  0
 76148  1  0  0  0
 76149  1  0  0  0
 76150  1  0  0  0
 77151  1  0  0  0
 77152  1  0  0  0
 78 79  1  0  0  0
 78153  1  0  0  0
 78154  1  0  0  0
 79 80  1  0  0  0
 79155  1  0  0  0
 79156  1  0  0  0
 80 81  1  0  0  0
 80157  1  0  0  0
 80158  1  0  0  0
 81 82  1  0  0  0
 81159  1  0  0  0
 81160  1  0  0  0
 82 84  1  0  0  0
 82161  1  0  0  0
 82162  1  0  0  0
 84163  1  0  0  0
M  ISO  4   1 100  68 101  77 101  84 100
M  END
> <chiral flag>
0

> <version>
0

> <s_m_source_file>
/data/baiqing/PycharmProjects/Reinvent-master-3.2/result/LINK_invent/BTK/process_docking_weight1_custom_sum_contain_oxygen_bond_distance_aromatic_linkinvent_7_9_3/rearranged_h_0029.sdf

> <i_m_source_file_index>
77

> <r_mmod_Potential_Energy-OPLS-2005>
-100.150123596191

> <r_mmod_Stretch_Energy-OPLS-2005>
32.8928642272949

> <r_mmod_Bend_Energy-OPLS-2005>
96.6003036499023

> <r_mmod_Torsional_Energy-OPLS-2005>
215.719085693359

> <r_mmod_Improper_Torsional_Energy-OPLS-2005>
1.924396276474

> <r_mmod_Van_der_Waal_Energy-OPLS-2005>
128.937149047852

> <r_mmod_Electrostatic_Energy-OPLS-2005>
-370.935852050781

> <r_mmod_Solvation_Energy-OPLS-2005>
-213.704406738281

> <b_mmod_Minimization_Converged-OPLS-2005>
0

> <r_mmod_RMS_Derivative-OPLS-2005>
1.48435139656067

$$$$
77
                    3D
 Structure written by MMmdl.
147155  0  0  1  0            999 V2000
  -30.4328  -15.1903   20.3868 C   0  0  0  0  0  0
  -30.4563  -12.7575   19.5130 C   0  0  0  0  0  0
  -29.5458  -12.5778   18.2713 C   0  0  0  0  0  0
  -28.0835  -12.3142   18.6869 C   0  0  0  0  0  0
  -27.6171  -13.2692   19.8163 C   0  0  2  0  0  0
  -28.6552  -13.3836   20.9528 C   0  0  0  0  0  0
  -25.2378  -13.8172   20.5692 C   0  0  0  0  0  0
  -24.1738  -13.0375   20.9233 C   0  0  0  0  0  0
  -24.6402  -11.6883   20.8719 C   0  0  0  0  0  0
  -23.9083  -10.4259   21.0387 C   0  0  0  0  0  0
  -24.3622   -9.4181   21.9173 C   0  0  0  0  0  0
  -23.6293   -8.2223   22.0754 C   0  0  0  0  0  0
  -22.4277   -8.0260   21.3541 C   0  0  0  0  0  0
  -21.9912   -9.0226   20.4640 C   0  0  0  0  0  0
  -22.7249  -10.2100   20.3041 C   0  0  0  0  0  0
  -21.6847   -6.0722   22.5274 C   0  0  0  0  0  0
  -21.4007   -6.5621   23.8209 C   0  0  0  0  0  0
  -21.3665   -5.6773   24.9165 C   0  0  0  0  0  0
  -21.6053   -4.3040   24.7214 C   0  0  0  0  0  0
  -21.8819   -3.8132   23.4334 C   0  0  0  0  0  0
  -21.9183   -4.6947   22.3388 C   0  0  0  0  0  0
  -22.7753  -13.5151   21.1863 C   0  0  0  0  0  0
  -22.1654   -4.2139   21.0964 F   0  0  0  0  0  0
  -21.5638   -3.4519   25.7727 F   0  0  0  0  0  0
  -29.8996  -13.8792   20.3434 N   0  0  0  0  0  0
  -26.2828  -12.9479   20.3121 N   0  0  0  0  0  0
  -25.9345  -11.6588   20.5661 N   0  0  0  0  0  0
  -22.0367  -12.8204   22.0437 N   0  0  0  0  0  0
  -25.3892  -15.1895   20.4155 N   0  0  0  0  0  0
  -31.6524  -15.2511   20.1830 O   0  0  0  0  0  0
  -21.6625   -6.8870   21.4246 O   0  0  0  0  0  0
  -22.3449  -14.5429   20.6642 O   0  0  0  0  0  0
  -24.6578  -31.8280   23.1739 C   0  0  0  0  0  0
  -25.9277  -32.4617   23.8199 C   0  0  1  0  0  0
  -27.2231  -26.9828   20.1846 C   0  0  0  0  0  0
  -25.5969  -33.8434   24.2110 N   0  0  0  0  0  0
  -23.4701  -30.4379   21.5226 C   0  0  2  0  0  0
  -24.9250  -28.8355   20.1100 C   0  0  0  0  0  0
  -22.7635  -29.4449   22.4806 C   0  0  0  0  0  0
  -18.0299  -28.1416   22.8463 C   0  0  0  0  0  0
  -24.1496  -36.7233   23.2642 C   0  0  0  0  0  0
  -26.0349  -30.6531   21.3951 C   0  0  0  0  0  0
  -26.1044  -29.2472   20.7428 C   0  0  0  0  0  0
  -27.2496  -28.3408   20.7553 C   0  0  0  0  0  0
  -26.0176  -26.7071   19.5034 C   0  0  0  0  0  0
  -24.9035  -27.5841   19.4712 C   0  0  0  0  0  0
  -23.7060  -29.7533   20.1478 C   0  0  0  0  0  0
  -25.4139  -36.3007   24.0302 C   0  0  1  0  0  0
  -20.5928  -28.3755   23.1211 C   0  0  2  0  0  0
  -20.6803  -26.9447   22.5409 C   0  0  0  0  0  0
  -19.5786  -26.6382   21.5219 C   0  0  0  0  0  0
  -18.1954  -26.7949   22.1616 C   0  0  0  0  0  0
  -19.1561  -28.8902   23.2820 C   0  0  0  0  0  0
  -18.9476  -30.1498   23.8837 C   0  0  0  0  0  0
  -17.6474  -30.6604   24.0560 C   0  0  0  0  0  0
  -25.9095  -34.9375   23.5030 C   0  0  0  0  0  0
  -16.5364  -29.9095   23.6353 C   0  0  0  0  0  0
  -16.7282  -28.6523   23.0359 C   0  0  0  0  0  0
  -26.4553  -31.6541   25.0703 C   0  0  0  0  0  0
  -25.3703  -31.3759   26.1371 C   0  0  0  0  0  0
  -27.0430  -30.2913   24.6395 C   0  0  0  0  0  0
  -27.6062  -32.4324   25.7500 C   0  0  0  0  0  0
  -27.5577  -37.1781   24.8464 C   0  0  0  0  0  0
  -21.4308  -29.3033   22.3548 N   0  0  0  0  0  0
  -26.4300  -37.3726   23.9389 N   0  0  0  0  0  0
  -24.7416  -30.9997   22.0842 N   0  0  0  0  0  0
  -23.4200  -28.8012   23.3027 O   0  0  0  0  0  0
  -28.2455  -25.9197   20.2818 O   0  0  0  0  0  0
  -26.5703  -34.8899   22.4623 O   0  0  0  0  0  0
  -23.5661  -32.1211   23.6876 O   0  0  0  0  0  0
  -28.1656  -20.2279   20.0456 C   0  0  0  0  0  0
  -30.5186  -18.9762   20.7710 C   0  0  0  0  0  0
  -29.1456  -21.2243   20.4335 C   0  0  0  0  0  0
  -29.5328  -17.9814   20.3966 C   0  0  0  0  0  0
  -28.3437  -18.7518   20.0302 C   0  0  0  0  0  0
  -30.3388  -20.4508   20.7935 C   0  0  0  0  0  0
  -29.0488  -22.9555   20.6067 C   0  0  0  0  0  0
  -28.0548  -24.3153   20.0654 C   0  0  0  0  0  0
  -29.5664  -16.3741   20.4343 N   0  0  0  0  0  0
  -26.9785  -17.8374   19.5079 Cl  0  0  0  0  0  0
  -31.7074  -21.3489   21.3468 Cl  0  0  0  0  0  0
  -31.4762  -12.9723   19.1895 H   0  0  0  0  0  0
  -30.5187  -11.8357   20.0946 H   0  0  0  0  0  0
  -29.9174  -11.7685   17.6411 H   0  0  0  0  0  0
  -29.5899  -13.4853   17.6664 H   0  0  0  0  0  0
  -28.0199  -11.2811   19.0319 H   0  0  0  0  0  0
  -27.4263  -12.3904   17.8192 H   0  0  0  0  0  0
  -27.5454  -14.2511   19.3460 H   0  0  0  0  0  0
  -28.8020  -12.4255   21.4539 H   0  0  0  0  0  0
  -28.3106  -14.0836   21.7150 H   0  0  0  0  0  0
  -25.2779   -9.5652   22.4733 H   0  0  0  0  0  0
  -23.9981   -7.4631   22.7502 H   0  0  0  0  0  0
  -21.0829   -8.8745   19.8973 H   0  0  0  0  0  0
  -22.3715  -10.9615   19.6126 H   0  0  0  0  0  0
  -21.2004   -7.6133   23.9711 H   0  0  0  0  0  0
  -21.1498   -6.0500   25.9074 H   0  0  0  0  0  0
  -22.0603   -2.7593   23.2822 H   0  0  0  0  0  0
  -22.3963  -11.9926   22.4950 H   0  0  0  0  0  0
  -21.0962  -13.1262   22.2521 H   0  0  0  0  0  0
  -24.5970  -15.8151   20.5118 H   0  0  0  0  0  0
  -26.2001  -15.6520   20.0249 H   0  0  0  0  0  0
  -26.7342  -32.5175   23.0917 H   0  0  0  0  0  0
  -25.0086  -33.9524   25.0242 H   0  0  0  0  0  0
  -22.7810  -31.2677   21.3532 H   0  0  0  0  0  0
  -23.3775  -35.9548   23.3302 H   0  0  0  0  0  0
  -24.3564  -36.8880   22.2055 H   0  0  0  0  0  0
  -23.7239  -37.6417   23.6696 H   0  0  0  0  0  0
  -26.2080  -31.3953   20.6145 H   0  0  0  0  0  0
  -26.8982  -30.7102   22.0465 H   0  0  0  0  0  0
  -28.1430  -28.6524   21.2787 H   0  0  0  0  0  0
  -25.9078  -25.7488   19.0178 H   0  0  0  0  0  0
  -24.0064  -27.2621   18.9589 H   0  0  0  0  0  0
  -23.8509  -30.5183   19.3842 H   0  0  0  0  0  0
  -22.8201  -29.1965   19.8375 H   0  0  0  0  0  0
  -25.1337  -36.1828   25.0795 H   0  0  0  0  0  0
  -20.9999  -28.3361   24.1348 H   0  0  0  0  0  0
  -20.5731  -26.2353   23.3630 H   0  0  0  0  0  0
  -21.6669  -26.7466   22.1197 H   0  0  0  0  0  0
  -19.6968  -25.6283   21.1284 H   0  0  0  0  0  0
  -19.6751  -27.3161   20.6730 H   0  0  0  0  0  0
  -17.4240  -26.6668   21.4011 H   0  0  0  0  0  0
  -18.0363  -26.0096   22.9018 H   0  0  0  0  0  0
  -19.7949  -30.7332   24.2172 H   0  0  0  0  0  0
  -17.5031  -31.6276   24.5185 H   0  0  0  0  0  0
  -15.5375  -30.2996   23.7715 H   0  0  0  0  0  0
  -15.8675  -28.0844   22.7112 H   0  0  0  0  0  0
  -24.5906  -30.7087   25.7672 H   0  0  0  0  0  0
  -24.8875  -32.2949   26.4706 H   0  0  0  0  0  0
  -25.7965  -30.8981   27.0205 H   0  0  0  0  0  0
  -26.3072  -29.6602   24.1401 H   0  0  0  0  0  0
  -27.3966  -29.7261   25.5029 H   0  0  0  0  0  0
  -27.9019  -30.4090   23.9787 H   0  0  0  0  0  0
  -27.2651  -33.3662   26.1982 H   0  0  0  0  0  0
  -28.3935  -32.6817   25.0373 H   0  0  0  0  0  0
  -28.0669  -31.8510   26.5498 H   0  0  0  0  0  0
  -28.2601  -38.0071   24.7512 H   0  0  0  0  0  0
  -28.1078  -36.2608   24.6317 H   0  0  0  0  0  0
  -27.2291  -37.1449   25.8864 H   0  0  0  0  0  0
  -20.9557  -29.8682   21.6647 H   0  0  0  0  0  0
  -26.0172  -38.2801   24.1368 H   0  0  0  0  0  0
  -27.1941  -20.5966   19.7496 H   0  0  0  0  0  0
  -31.4790  -18.6030   21.0951 H   0  0  0  0  0  0
  -30.0468  -23.2731   20.3109 H   0  0  0  0  0  0
  -29.0556  -23.0694   21.6903 H   0  0  0  0  0  0
  -27.0454  -24.0968   20.4138 H   0  0  0  0  0  0
  -27.9967  -24.2121   18.9822 H   0  0  0  0  0  0
  -28.6169  -16.0315   20.4408 H   0  0  0  0  0  0
  1 25  1  0  0  0
  1 30  2  0  0  0
  1 79  1  0  0  0
  2  3  1  0  0  0
  2 25  1  0  0  0
  2 82  1  0  0  0
  2 83  1  0  0  0
  3  4  1  0  0  0
  3 84  1  0  0  0
  3 85  1  0  0  0
  4  5  1  0  0  0
  4 86  1  0  0  0
  4 87  1  0  0  0
  5  6  1  0  0  0
  5 26  1  0  0  0
  5 88  1  0  0  0
  6 25  1  0  0  0
  6 89  1  0  0  0
  6 90  1  0  0  0
  7  8  2  0  0  0
  7 26  1  0  0  0
  7 29  1  0  0  0
  8  9  1  0  0  0
  8 22  1  0  0  0
  9 10  1  0  0  0
  9 27  2  0  0  0
 10 11  2  0  0  0
 10 15  1  0  0  0
 11 12  1  0  0  0
 11 91  1  0  0  0
 12 13  2  0  0  0
 12 92  1  0  0  0
 13 14  1  0  0  0
 13 31  1  0  0  0
 14 15  2  0  0  0
 14 93  1  0  0  0
 15 94  1  0  0  0
 16 17  2  0  0  0
 16 21  1  0  0  0
 16 31  1  0  0  0
 17 18  1  0  0  0
 17 95  1  0  0  0
 18 19  2  0  0  0
 18 96  1  0  0  0
 19 20  1  0  0  0
 19 24  1  0  0  0
 20 21  2  0  0  0
 20 97  1  0  0  0
 21 23  1  0  0  0
 22 28  1  0  0  0
 22 32  2  0  0  0
 26 27  1  0  0  0
 28 98  1  0  0  0
 28 99  1  0  0  0
 29100  1  0  0  0
 29101  1  0  0  0
 33 34  1  0  0  0
 33 66  1  0  0  0
 33 70  2  0  0  0
 34 36  1  0  0  0
 34 59  1  0  0  0
 34102  1  0  0  0
 35 44  2  0  0  0
 35 45  1  0  0  0
 35 68  1  0  0  0
 36 56  1  0  0  0
 36103  1  0  0  0
 37 39  1  0  0  0
 37 47  1  0  0  0
 37 66  1  0  0  0
 37104  1  0  0  0
 38 43  2  0  0  0
 38 46  1  0  0  0
 38 47  1  0  0  0
 39 64  1  0  0  0
 39 67  2  0  0  0
 40 52  1  0  0  0
 40 53  2  0  0  0
 40 58  1  0  0  0
 41105  1  0  0  0
 41106  1  0  0  0
 41107  1  0  0  0
 41 48  1  0  0  0
 42 43  1  0  0  0
 42 66  1  0  0  0
 42108  1  0  0  0
 42109  1  0  0  0
 43 44  1  0  0  0
 44110  1  0  0  0
 45 46  2  0  0  0
 45111  1  0  0  0
 46112  1  0  0  0
 47113  1  0  0  0
 47114  1  0  0  0
 48 56  1  0  0  0
 48 65  1  0  0  0
 48115  1  0  0  0
 49 50  1  0  0  0
 49 53  1  0  0  0
 49 64  1  0  0  0
 49116  1  0  0  0
 50 51  1  0  0  0
 50117  1  0  0  0
 50118  1  0  0  0
 51 52  1  0  0  0
 51119  1  0  0  0
 51120  1  0  0  0
 52121  1  0  0  0
 52122  1  0  0  0
 53 54  1  0  0  0
 54 55  2  0  0  0
 54123  1  0  0  0
 55 57  1  0  0  0
 55124  1  0  0  0
 56 69  2  0  0  0
 57 58  2  0  0  0
 57125  1  0  0  0
 58126  1  0  0  0
 59 60  1  0  0  0
 59 61  1  0  0  0
 59 62  1  0  0  0
 60127  1  0  0  0
 60128  1  0  0  0
 60129  1  0  0  0
 61130  1  0  0  0
 61131  1  0  0  0
 61132  1  0  0  0
 62133  1  0  0  0
 62134  1  0  0  0
 62135  1  0  0  0
 63 65  1  0  0  0
 63136  1  0  0  0
 63137  1  0  0  0
 63138  1  0  0  0
 64139  1  0  0  0
 65140  1  0  0  0
 68 78  1  0  0  0
 71 73  2  0  0  0
 71 75  1  0  0  0
 71141  1  0  0  0
 72 74  1  0  0  0
 72 76  2  0  0  0
 72142  1  0  0  0
 73 76  1  0  0  0
 73 77  1  0  0  0
 74 75  2  0  0  0
 74 79  1  0  0  0
 75 80  1  0  0  0
 76 81  1  0  0  0
 77 78  1  0  0  0
 77143  1  0  0  0
 77144  1  0  0  0
 78145  1  0  0  0
 78146  1  0  0  0
 79147  1  0  0  0
M  ISO  4   1 100  68 101  78 101  79 100
M  END
> <chiral flag>
0

> <version>
0

> <s_m_source_file>
/data/baiqing/PycharmProjects/Reinvent-master-3.2/result/LINK_invent/BTK/process_docking_weight1_custom_sum_contain_oxygen_bond_distance_aromatic_linkinvent_7_9_3/rearranged_h_0029.sdf

> <i_m_source_file_index>
78

> <r_mmod_Potential_Energy-OPLS-2005>
1002.19122314453

> <r_mmod_Stretch_Energy-OPLS-2005>
450.683197021484

> <r_mmod_Bend_Energy-OPLS-2005>
415.337677001953

> <r_mmod_Torsional_Energy-OPLS-2005>
216.207763671875

> <r_mmod_Improper_Torsional_Energy-OPLS-2005>
5.68010663986206

> <r_mmod_Van_der_Waal_Energy-OPLS-2005>
124.128570556641

> <r_mmod_Electrostatic_Energy-OPLS-2005>
-390.233703613281

> <r_mmod_Solvation_Energy-OPLS-2005>
-204.531982421875

> <b_mmod_Minimization_Converged-OPLS-2005>
0

> <r_mmod_RMS_Derivative-OPLS-2005>
2.39136981964111

$$$$
78
                    3D
 Structure written by MMmdl.
161169  0  0  1  0            999 V2000
  -30.6806  -14.4473   20.5758 C   0  0  0  0  0  0
  -30.4346  -12.2886   19.4208 C   0  0  0  0  0  0
  -29.5044  -12.5189   18.2100 C   0  0  0  0  0  0
  -28.0213  -12.3828   18.6131 C   0  0  0  0  0  0
  -27.6702  -13.1974   19.8873 C   0  0  2  0  0  0
  -28.7104  -12.9338   21.0023 C   0  0  0  0  0  0
  -25.2619  -13.8140   20.5673 C   0  0  0  0  0  0
  -24.1855  -13.0430   20.9167 C   0  0  0  0  0  0
  -24.6396  -11.6896   20.8735 C   0  0  0  0  0  0
  -23.9056  -10.4298   21.0409 C   0  0  0  0  0  0
  -24.3616   -9.4216   21.9185 C   0  0  0  0  0  0
  -23.6296   -8.2250   22.0755 C   0  0  0  0  0  0
  -22.4280   -8.0283   21.3543 C   0  0  0  0  0  0
  -21.9910   -9.0259   20.4645 C   0  0  0  0  0  0
  -22.7232  -10.2141   20.3058 C   0  0  0  0  0  0
  -21.6850   -6.0736   22.5281 C   0  0  0  0  0  0
  -21.4005   -6.5638   23.8213 C   0  0  0  0  0  0
  -21.3670   -5.6790   24.9180 C   0  0  0  0  0  0
  -21.6055   -4.3055   24.7219 C   0  0  0  0  0  0
  -21.8816   -3.8143   23.4338 C   0  0  0  0  0  0
  -21.9189   -4.6967   22.3397 C   0  0  0  0  0  0
  -22.7879  -13.5243   21.1824 C   0  0  0  0  0  0
  -22.1661   -4.2157   21.0974 F   0  0  0  0  0  0
  -21.5641   -3.4536   25.7730 F   0  0  0  0  0  0
  -30.0518  -13.2461   20.4673 N   0  0  0  0  0  0
  -26.3064  -12.9292   20.3403 N   0  0  0  0  0  0
  -25.9324  -11.6460   20.5772 N   0  0  0  0  0  0
  -22.0497  -12.8259   22.0386 N   0  0  0  0  0  0
  -25.4313  -15.1865   20.4069 N   0  0  0  0  0  0
  -31.7787  -14.6969   20.0700 O   0  0  0  0  0  0
  -21.6638   -6.8886   21.4244 O   0  0  0  0  0  0
  -22.3580  -14.5548   20.6661 O   0  0  0  0  0  0
  -24.6125  -31.8687   23.2101 C   0  0  0  0  0  0
  -25.9030  -32.4825   23.8397 C   0  0  1  0  0  0
  -27.2482  -27.4507   20.0941 C   0  0  0  0  0  0
  -25.5898  -33.8623   24.2333 N   0  0  0  0  0  0
  -23.4006  -30.4899   21.5487 C   0  0  2  0  0  0
  -24.8495  -28.9558   20.1145 C   0  0  0  0  0  0
  -22.7400  -29.4658   22.4981 C   0  0  0  0  0  0
  -18.0274  -28.1373   22.8502 C   0  0  0  0  0  0
  -24.1477  -36.7312   23.2644 C   0  0  0  0  0  0
  -25.9272  -30.8386   21.3619 C   0  0  0  0  0  0
  -26.0059  -29.4738   20.7091 C   0  0  0  0  0  0
  -27.2040  -28.7283   20.6954 C   0  0  0  0  0  0
  -26.0705  -26.9403   19.4974 C   0  0  0  0  0  0
  -24.8763  -27.6880   19.5069 C   0  0  0  0  0  0
  -23.6087  -29.8180   20.1637 C   0  0  0  0  0  0
  -25.4097  -36.3109   24.0343 C   0  0  1  0  0  0
  -20.5862  -28.3649   23.1324 C   0  0  2  0  0  0
  -20.6759  -26.9386   22.5417 C   0  0  0  0  0  0
  -19.5736  -26.6382   21.5215 C   0  0  0  0  0  0
  -18.1914  -26.7923   22.1629 C   0  0  0  0  0  0
  -19.1523  -28.8824   23.2918 C   0  0  0  0  0  0
  -18.9456  -30.1439   23.8914 C   0  0  0  0  0  0
  -17.6455  -30.6580   24.0563 C   0  0  0  0  0  0
  -25.9021  -34.9475   23.5127 C   0  0  0  0  0  0
  -16.5345  -29.9078   23.6339 C   0  0  0  0  0  0
  -16.7262  -28.6502   23.0349 C   0  0  0  0  0  0
  -26.4465  -31.6614   25.0730 C   0  0  0  0  0  0
  -25.3747  -31.3712   26.1485 C   0  0  0  0  0  0
  -27.0305  -30.3052   24.6110 C   0  0  0  0  0  0
  -27.6047  -32.4328   25.7491 C   0  0  0  0  0  0
  -27.5571  -37.1811   24.8467 C   0  0  0  0  0  0
  -21.4126  -29.3029   22.3729 N   0  0  0  0  0  0
  -26.4286  -37.3788   23.9410 N   0  0  0  0  0  0
  -24.6647  -31.0802   22.0986 N   0  0  0  0  0  0
  -23.4183  -28.8204   23.3017 O   0  0  0  0  0  0
  -28.4467  -26.7650   20.1177 O   0  0  0  0  0  0
  -26.5578  -34.8920   22.4684 O   0  0  0  0  0  0
  -23.5328  -32.1426   23.7507 O   0  0  0  0  0  0
  -29.7726  -24.6517   20.2113 C   0  0  0  0  0  0
  -31.0674  -22.5893   20.5361 C   0  0  0  0  0  0
  -29.8465  -23.2376   20.2186 C   0  0  0  0  0  0
  -30.9526  -25.3605   20.5174 C   0  0  0  0  0  0
  -32.1723  -23.4126   20.8477 C   0  0  0  0  0  0
  -29.5563  -16.9257   19.1415 C   0  0  0  0  0  0
  -31.2166  -21.0573   20.4590 C   0  0  0  0  0  0
  -28.4566  -25.3600   19.8551 C   0  0  0  0  0  0
  -30.7339  -17.8238   21.2376 C   0  0  0  0  0  0
  -30.0361  -19.1622   21.6094 C   0  0  0  0  0  0
  -29.7152  -16.8017   20.6706 C   0  0  1  0  0  0
  -32.1118  -24.7567   20.8400 N   0  0  0  0  0  0
  -29.8979  -15.4049   21.0990 N   0  0  0  0  0  0
  -30.9323  -20.3390   21.7305 N   0  3  0  0  0  0
  -30.9764  -26.7149   20.4960 F   0  0  0  0  0  0
  -28.4413  -22.2977   19.8361 Cl  0  0  0  0  0  0
  -33.6967  -22.7184   21.2775 Cl  0  0  0  0  0  0
  -31.4808  -12.3948   19.1272 H   0  0  0  0  0  0
  -30.3313  -11.2676   19.7922 H   0  0  0  0  0  0
  -29.7430  -11.8166   17.4097 H   0  0  0  0  0  0
  -29.6793  -13.5161   17.8017 H   0  0  0  0  0  0
  -27.8177  -11.3248   18.7809 H   0  0  0  0  0  0
  -27.3791  -12.6881   17.7856 H   0  0  0  0  0  0
  -27.7241  -14.2515   19.6160 H   0  0  0  0  0  0
  -28.6771  -11.8871   21.3067 H   0  0  0  0  0  0
  -28.4703  -13.4981   21.9048 H   0  0  0  0  0  0
  -25.2775   -9.5703   22.4745 H   0  0  0  0  0  0
  -24.0015   -7.4650   22.7476 H   0  0  0  0  0  0
  -21.0838   -8.8774   19.8957 H   0  0  0  0  0  0
  -22.3693  -10.9678   19.6161 H   0  0  0  0  0  0
  -21.1987   -7.6143   23.9719 H   0  0  0  0  0  0
  -21.1505   -6.0517   25.9084 H   0  0  0  0  0  0
  -22.0583   -2.7604   23.2831 H   0  0  0  0  0  0
  -22.4087  -11.9938   22.4833 H   0  0  0  0  0  0
  -21.1108  -13.1307   22.2530 H   0  0  0  0  0  0
  -24.6561  -15.8330   20.5035 H   0  0  0  0  0  0
  -26.2779  -15.6314   20.0750 H   0  0  0  0  0  0
  -26.7098  -32.5542   23.1169 H   0  0  0  0  0  0
  -25.0082  -33.9791   25.0503 H   0  0  0  0  0  0
  -22.6899  -31.3070   21.4065 H   0  0  0  0  0  0
  -23.3732  -35.9652   23.3333 H   0  0  0  0  0  0
  -24.3568  -36.8899   22.2052 H   0  0  0  0  0  0
  -23.7242  -37.6529   23.6643 H   0  0  0  0  0  0
  -26.0400  -31.6071   20.5954 H   0  0  0  0  0  0
  -26.8149  -30.8904   21.9807 H   0  0  0  0  0  0
  -28.0966  -29.1281   21.1564 H   0  0  0  0  0  0
  -26.0578  -25.9735   19.0159 H   0  0  0  0  0  0
  -23.9868  -27.2838   19.0438 H   0  0  0  0  0  0
  -23.7100  -30.5905   19.4000 H   0  0  0  0  0  0
  -22.7364  -29.2302   19.8722 H   0  0  0  0  0  0
  -25.1277  -36.1976   25.0837 H   0  0  0  0  0  0
  -20.9972  -28.3207   24.1437 H   0  0  0  0  0  0
  -20.5659  -26.2249   23.3595 H   0  0  0  0  0  0
  -21.6625  -26.7421   22.1205 H   0  0  0  0  0  0
  -19.6889  -25.6302   21.1224 H   0  0  0  0  0  0
  -19.6680  -27.3210   20.6760 H   0  0  0  0  0  0
  -17.4187  -26.6691   21.4029 H   0  0  0  0  0  0
  -18.0313  -26.0052   22.9012 H   0  0  0  0  0  0
  -19.7924  -30.7261   24.2284 H   0  0  0  0  0  0
  -17.5002  -31.6262   24.5157 H   0  0  0  0  0  0
  -15.5343  -30.2978   23.7647 H   0  0  0  0  0  0
  -15.8669  -28.0822   22.7048 H   0  0  0  0  0  0
  -24.5911  -30.7077   25.7818 H   0  0  0  0  0  0
  -24.8949  -32.2867   26.4952 H   0  0  0  0  0  0
  -25.8098  -30.8871   27.0229 H   0  0  0  0  0  0
  -27.4052  -29.7295   25.4585 H   0  0  0  0  0  0
  -26.2862  -29.6817   24.1135 H   0  0  0  0  0  0
  -27.8702  -30.4379   23.9280 H   0  0  0  0  0  0
  -27.2681  -33.3619   26.2099 H   0  0  0  0  0  0
  -28.3847  -32.6891   25.0316 H   0  0  0  0  0  0
  -28.0723  -31.8436   26.5394 H   0  0  0  0  0  0
  -28.2606  -38.0091   24.7482 H   0  0  0  0  0  0
  -28.1044  -36.2617   24.6323 H   0  0  0  0  0  0
  -27.2289  -37.1507   25.8872 H   0  0  0  0  0  0
  -20.9270  -29.8755   21.6962 H   0  0  0  0  0  0
  -26.0172  -38.2871   24.1391 H   0  0  0  0  0  0
  -28.7937  -16.2467   18.7571 H   0  0  0  0  0  0
  -29.2600  -17.9351   18.8528 H   0  0  0  0  0  0
  -30.4879  -16.7038   18.6198 H   0  0  0  0  0  0
  -32.2220  -20.7907   20.1319 H   0  0  0  0  0  0
  -30.5821  -20.6838   19.6547 H   0  0  0  0  0  0
  -27.6578  -24.8913   20.4320 H   0  0  0  0  0  0
  -28.2453  -25.1882   18.7979 H   0  0  0  0  0  0
  -31.5247  -17.9914   20.5042 H   0  0  0  0  0  0
  -31.2261  -17.4191   22.1236 H   0  0  0  0  0  0
  -29.5430  -19.0258   22.5727 H   0  0  0  0  0  0
  -29.2319  -19.3962   20.9090 H   0  0  0  0  0  0
  -28.7414  -17.0499   21.0979 H   0  0  0  0  0  0
  -29.1036  -15.0267   21.5954 H   0  0  0  0  0  0
  -30.4783  -20.9781   22.3636 H   0  0  0  0  0  0
  -31.7941  -20.0591   22.1729 H   0  0  0  0  0  0
  1 25  1  0  0  0
  1 30  2  0  0  0
  1 83  1  0  0  0
  2  3  1  0  0  0
  2 25  1  0  0  0
  2 88  1  0  0  0
  2 89  1  0  0  0
  3  4  1  0  0  0
  3 90  1  0  0  0
  3 91  1  0  0  0
  4  5  1  0  0  0
  4 92  1  0  0  0
  4 93  1  0  0  0
  5  6  1  0  0  0
  5 26  1  0  0  0
  5 94  1  0  0  0
  6 25  1  0  0  0
  6 95  1  0  0  0
  6 96  1  0  0  0
  7  8  2  0  0  0
  7 26  1  0  0  0
  7 29  1  0  0  0
  8  9  1  0  0  0
  8 22  1  0  0  0
  9 10  1  0  0  0
  9 27  2  0  0  0
 10 11  2  0  0  0
 10 15  1  0  0  0
 11 12  1  0  0  0
 11 97  1  0  0  0
 12 13  2  0  0  0
 12 98  1  0  0  0
 13 14  1  0  0  0
 13 31  1  0  0  0
 14 15  2  0  0  0
 14 99  1  0  0  0
 15100  1  0  0  0
 16 17  2  0  0  0
 16 21  1  0  0  0
 16 31  1  0  0  0
 17 18  1  0  0  0
 17101  1  0  0  0
 18 19  2  0  0  0
 18102  1  0  0  0
 19 20  1  0  0  0
 19 24  1  0  0  0
 20 21  2  0  0  0
 20103  1  0  0  0
 21 23  1  0  0  0
 22 28  1  0  0  0
 22 32  2  0  0  0
 26 27  1  0  0  0
 28104  1  0  0  0
 28105  1  0  0  0
 29106  1  0  0  0
 29107  1  0  0  0
 33 34  1  0  0  0
 33 66  1  0  0  0
 33 70  2  0  0  0
 34 36  1  0  0  0
 34 59  1  0  0  0
 34108  1  0  0  0
 35 44  2  0  0  0
 35 45  1  0  0  0
 35 68  1  0  0  0
 36 56  1  0  0  0
 36109  1  0  0  0
 37 39  1  0  0  0
 37 47  1  0  0  0
 37 66  1  0  0  0
 37110  1  0  0  0
 38 43  2  0  0  0
 38 46  1  0  0  0
 38 47  1  0  0  0
 39 64  1  0  0  0
 39 67  2  0  0  0
 40 52  1  0  0  0
 40 53  2  0  0  0
 40 58  1  0  0  0
 41111  1  0  0  0
 41112  1  0  0  0
 41113  1  0  0  0
 41 48  1  0  0  0
 42 43  1  0  0  0
 42 66  1  0  0  0
 42114  1  0  0  0
 42115  1  0  0  0
 43 44  1  0  0  0
 44116  1  0  0  0
 45 46  2  0  0  0
 45117  1  0  0  0
 46118  1  0  0  0
 47119  1  0  0  0
 47120  1  0  0  0
 48 56  1  0  0  0
 48 65  1  0  0  0
 48121  1  0  0  0
 49 50  1  0  0  0
 49 53  1  0  0  0
 49 64  1  0  0  0
 49122  1  0  0  0
 50 51  1  0  0  0
 50123  1  0  0  0
 50124  1  0  0  0
 51 52  1  0  0  0
 51125  1  0  0  0
 51126  1  0  0  0
 52127  1  0  0  0
 52128  1  0  0  0
 53 54  1  0  0  0
 54 55  2  0  0  0
 54129  1  0  0  0
 55 57  1  0  0  0
 55130  1  0  0  0
 56 69  2  0  0  0
 57 58  2  0  0  0
 57131  1  0  0  0
 58132  1  0  0  0
 59 60  1  0  0  0
 59 61  1  0  0  0
 59 62  1  0  0  0
 60133  1  0  0  0
 60134  1  0  0  0
 60135  1  0  0  0
 61136  1  0  0  0
 61137  1  0  0  0
 61138  1  0  0  0
 62139  1  0  0  0
 62140  1  0  0  0
 62141  1  0  0  0
 63 65  1  0  0  0
 63142  1  0  0  0
 63143  1  0  0  0
 63144  1  0  0  0
 64145  1  0  0  0
 65146  1  0  0  0
 68 78  1  0  0  0
 71 73  2  0  0  0
 71 74  1  0  0  0
 71 78  1  0  0  0
 72 73  1  0  0  0
 72 75  2  0  0  0
 72 77  1  0  0  0
 73 86  1  0  0  0
 74 82  2  0  0  0
 74 85  1  0  0  0
 75 82  1  0  0  0
 75 87  1  0  0  0
 76147  1  0  0  0
 76148  1  0  0  0
 76149  1  0  0  0
 76 81  1  0  0  0
 77 84  1  0  0  0
 77150  1  0  0  0
 77151  1  0  0  0
 78152  1  0  0  0
 78153  1  0  0  0
 79 80  1  0  0  0
 79 81  1  0  0  0
 79154  1  0  0  0
 79155  1  0  0  0
 80 84  1  0  0  0
 80156  1  0  0  0
 80157  1  0  0  0
 81 83  1  0  0  0
 81158  1  0  0  0
 83159  1  0  0  0
 84160  1  0  0  0
 84161  1  0  0  0
M  CHG  1  84   1
M  ISO  4   1 100  68 101  78 101  83 100
M  END
> <chiral flag>
0

> <version>
0

> <s_m_source_file>
/data/baiqing/PycharmProjects/Reinvent-master-3.2/result/LINK_invent/BTK/process_docking_weight1_custom_sum_contain_oxygen_bond_distance_aromatic_linkinvent_7_9_3/rearranged_h_0029.sdf

> <i_m_source_file_index>
79

> <r_mmod_Potential_Energy-OPLS-2005>
-389.784729003906

> <r_mmod_Stretch_Energy-OPLS-2005>
37.9094505310059

> <r_mmod_Bend_Energy-OPLS-2005>
110.358772277832

> <r_mmod_Torsional_Energy-OPLS-2005>
229.267761230469

> <r_mmod_Improper_Torsional_Energy-OPLS-2005>
6.78887367248535

> <r_mmod_Van_der_Waal_Energy-OPLS-2005>
156.270263671875

> <r_mmod_Electrostatic_Energy-OPLS-2005>
-445.527954101562

> <r_mmod_Solvation_Energy-OPLS-2005>
-495.657318115234

> <b_mmod_Minimization_Converged-OPLS-2005>
0

> <r_mmod_RMS_Derivative-OPLS-2005>
1.66327905654907

$$$$
79
                    3D
 Structure written by MMmdl.
147155  0  0  1  0            999 V2000
  -30.2695  -15.7673   20.3077 C   0  0  0  0  0  0
  -30.4164  -13.1783   19.5396 C   0  0  0  0  0  0
  -29.5585  -12.6806   18.3396 C   0  0  0  0  0  0
  -28.1439  -12.2977   18.7934 C   0  0  0  0  0  0
  -27.5927  -13.3212   19.8083 C   0  0  2  0  0  0
  -28.6001  -13.7207   20.9159 C   0  0  0  0  0  0
  -25.2317  -13.8303   20.5817 C   0  0  0  0  0  0
  -24.1708  -13.0442   20.9296 C   0  0  0  0  0  0
  -24.6420  -11.6959   20.8769 C   0  0  0  0  0  0
  -23.9123  -10.4304   21.0408 C   0  0  0  0  0  0
  -24.3647   -9.4215   21.9193 C   0  0  0  0  0  0
  -23.6298   -8.2267   22.0765 C   0  0  0  0  0  0
  -22.4283   -8.0312   21.3561 C   0  0  0  0  0  0
  -21.9927   -9.0290   20.4663 C   0  0  0  0  0  0
  -22.7282  -10.2155   20.3068 C   0  0  0  0  0  0
  -21.6868   -6.0745   22.5283 C   0  0  0  0  0  0
  -21.4023   -6.5643   23.8217 C   0  0  0  0  0  0
  -21.3651   -5.6797   24.9179 C   0  0  0  0  0  0
  -21.6032   -4.3060   24.7224 C   0  0  0  0  0  0
  -21.8815   -3.8150   23.4347 C   0  0  0  0  0  0
  -21.9199   -4.6969   22.3404 C   0  0  0  0  0  0
  -22.7711  -13.5175   21.1916 C   0  0  0  0  0  0
  -22.1660   -4.2157   21.0976 F   0  0  0  0  0  0
  -21.5620   -3.4540   25.7727 F   0  0  0  0  0  0
  -29.7530  -14.3805   20.2468 N   0  0  0  0  0  0
  -26.2779  -12.9658   20.3241 N   0  0  0  0  0  0
  -25.9375  -11.6716   20.5689 N   0  0  0  0  0  0
  -22.0345  -12.8188   22.0470 N   0  0  0  0  0  0
  -25.3897  -15.2053   20.4269 N   0  0  0  0  0  0
  -31.5041  -15.6414   20.1844 O   0  0  0  0  0  0
  -21.6650   -6.8904   21.4251 O   0  0  0  0  0  0
  -22.3404  -14.5473   20.6743 O   0  0  0  0  0  0
  -24.6939  -31.7873   23.1443 C   0  0  0  0  0  0
  -25.9465  -32.4402   23.8038 C   0  0  1  0  0  0
  -27.2273  -26.6018   20.2253 C   0  0  0  0  0  0
  -25.6000  -33.8235   24.1906 N   0  0  0  0  0  0
  -23.5248  -30.3851   21.5004 C   0  0  2  0  0  0
  -24.9818  -28.7041   20.1247 C   0  0  0  0  0  0
  -22.7816  -29.4241   22.4687 C   0  0  0  0  0  0
  -18.0332  -28.1430   22.8432 C   0  0  0  0  0  0
  -24.1504  -36.7123   23.2655 C   0  0  0  0  0  0
  -26.1102  -30.4877   21.4233 C   0  0  0  0  0  0
  -26.1741  -29.0411   20.7753 C   0  0  0  0  0  0
  -27.2793  -28.0211   20.7887 C   0  0  0  0  0  0
  -26.0005  -26.4993   19.5160 C   0  0  0  0  0  0
  -24.9395  -27.4604   19.4708 C   0  0  0  0  0  0
  -23.7845  -29.6741   20.1405 C   0  0  0  0  0  0
  -25.4162  -36.2859   24.0270 C   0  0  1  0  0  0
  -20.5979  -28.3790   23.1112 C   0  0  2  0  0  0
  -20.6803  -26.9434   22.5402 C   0  0  0  0  0  0
  -19.5787  -26.6365   21.5211 C   0  0  0  0  0  0
  -18.1966  -26.7949   22.1608 C   0  0  0  0  0  0
  -19.1604  -28.8937   23.2748 C   0  0  0  0  0  0
  -18.9513  -30.1512   23.8813 C   0  0  0  0  0  0
  -17.6504  -30.6605   24.0541 C   0  0  0  0  0  0
  -25.9144  -34.9247   23.4938 C   0  0  0  0  0  0
  -16.5388  -29.9090   23.6348 C   0  0  0  0  0  0
  -16.7311  -28.6511   23.0363 C   0  0  0  0  0  0
  -26.4623  -31.6472   25.0693 C   0  0  0  0  0  0
  -25.3667  -31.3807   26.1294 C   0  0  0  0  0  0
  -27.0560  -30.2795   24.6653 C   0  0  0  0  0  0
  -27.6064  -32.4353   25.7504 C   0  0  0  0  0  0
  -27.5566  -37.1722   24.8474 C   0  0  0  0  0  0
  -21.4454  -29.3020   22.3433 N   0  0  0  0  0  0
  -26.4285  -37.3620   23.9390 N   0  0  0  0  0  0
  -24.8005  -30.9233   22.0748 N   0  0  0  0  0  0
  -23.4208  -28.7839   23.3066 O   0  0  0  0  0  0
  -28.1788  -25.3378   20.2782 O   0  0  0  0  0  0
  -26.5805  -34.8839   22.4572 O   0  0  0  0  0  0
  -23.5935  -32.0991   23.6341 O   0  0  0  0  0  0
  -28.6899  -20.2780   20.3086 C   0  0  0  0  0  0
  -28.9281  -21.8983   20.2351 C   0  0  0  0  0  0
  -31.2551  -20.9307   20.0342 C   0  0  0  0  0  0
  -29.6459  -18.9473   20.2658 C   0  0  0  0  0  0
  -30.3242  -22.0290   20.0868 C   0  0  0  0  0  0
  -30.9537  -19.5151   20.1194 C   0  0  0  0  0  0
  -32.7224  -21.3171   19.8519 C   0  0  0  0  0  0
  -27.9472  -23.5427   20.2409 C   0  0  0  0  0  0
  -29.5132  -17.1769   20.3276 N   0  0  0  0  0  0
  -30.8079  -23.2903   19.9822 F   0  0  0  0  0  0
  -32.3125  -18.4463   20.0286 Cl  0  0  0  0  0  0
  -31.4004  -13.4496   19.1556 H   0  0  0  0  0  0
  -30.6086  -12.3636   20.2395 H   0  0  0  0  0  0
  -30.0382  -11.8326   17.8492 H   0  0  0  0  0  0
  -29.4971  -13.4743   17.5938 H   0  0  0  0  0  0
  -28.2012  -11.3144   19.2625 H   0  0  0  0  0  0
  -27.4770  -12.1988   17.9371 H   0  0  0  0  0  0
  -27.4346  -14.2174   19.2065 H   0  0  0  0  0  0
  -28.8904  -12.8660   21.5281 H   0  0  0  0  0  0
  -28.1378  -14.4390   21.5952 H   0  0  0  0  0  0
  -25.2782   -9.5683   22.4783 H   0  0  0  0  0  0
  -23.9996   -7.4656   22.7485 H   0  0  0  0  0  0
  -21.0854   -8.8827   19.8970 H   0  0  0  0  0  0
  -22.3745  -10.9701   19.6185 H   0  0  0  0  0  0
  -21.2024   -7.6153   23.9722 H   0  0  0  0  0  0
  -21.1469   -6.0526   25.9082 H   0  0  0  0  0  0
  -22.0596   -2.7614   23.2845 H   0  0  0  0  0  0
  -22.3939  -11.9878   22.4929 H   0  0  0  0  0  0
  -21.0951  -13.1234   22.2604 H   0  0  0  0  0  0
  -24.6158  -15.8492   20.5511 H   0  0  0  0  0  0
  -26.2192  -15.6519   20.0595 H   0  0  0  0  0  0
  -26.7552  -32.4854   23.0755 H   0  0  0  0  0  0
  -25.0006  -33.9257   24.9961 H   0  0  0  0  0  0
  -22.8546  -31.2238   21.3029 H   0  0  0  0  0  0
  -23.3776  -35.9447   23.3299 H   0  0  0  0  0  0
  -24.3558  -36.8809   22.2075 H   0  0  0  0  0  0
  -23.7266  -37.6291   23.6756 H   0  0  0  0  0  0
  -26.3269  -31.2039   20.6292 H   0  0  0  0  0  0
  -26.9556  -30.5591   22.0951 H   0  0  0  0  0  0
  -28.1760  -28.2906   21.3282 H   0  0  0  0  0  0
  -25.8171  -25.5653   19.0049 H   0  0  0  0  0  0
  -24.0415  -27.1901   18.9328 H   0  0  0  0  0  0
  -23.9741  -30.4291   19.3764 H   0  0  0  0  0  0
  -22.8865  -29.1480   19.8125 H   0  0  0  0  0  0
  -25.1379  -36.1626   25.0758 H   0  0  0  0  0  0
  -21.0039  -28.3435   24.1246 H   0  0  0  0  0  0
  -20.5655  -26.2412   23.3672 H   0  0  0  0  0  0
  -21.6665  -26.7361   22.1232 H   0  0  0  0  0  0
  -19.6943  -25.6258   21.1288 H   0  0  0  0  0  0
  -19.6745  -27.3134   20.6711 H   0  0  0  0  0  0
  -17.4226  -26.6655   21.4022 H   0  0  0  0  0  0
  -18.0364  -26.0127   22.9041 H   0  0  0  0  0  0
  -19.7988  -30.7340   24.2164 H   0  0  0  0  0  0
  -17.5054  -31.6277   24.5157 H   0  0  0  0  0  0
  -15.5390  -30.2973   23.7731 H   0  0  0  0  0  0
  -15.8697  -28.0807   22.7146 H   0  0  0  0  0  0
  -24.5874  -30.7141   25.7577 H   0  0  0  0  0  0
  -24.8845  -32.3034   26.4530 H   0  0  0  0  0  0
  -25.7832  -30.9080   27.0199 H   0  0  0  0  0  0
  -26.3291  -29.6386   24.1650 H   0  0  0  0  0  0
  -27.3944  -29.7277   25.5434 H   0  0  0  0  0  0
  -27.9299  -30.3892   24.0226 H   0  0  0  0  0  0
  -27.2595  -33.3724   26.1881 H   0  0  0  0  0  0
  -28.3972  -32.6802   25.0394 H   0  0  0  0  0  0
  -28.0633  -31.8619   26.5584 H   0  0  0  0  0  0
  -28.2575  -38.0017   24.7474 H   0  0  0  0  0  0
  -28.1065  -36.2537   24.6374 H   0  0  0  0  0  0
  -27.2264  -37.1442   25.8870 H   0  0  0  0  0  0
  -20.9787  -29.8664   21.6469 H   0  0  0  0  0  0
  -26.0114  -38.2672   24.1371 H   0  0  0  0  0  0
  -27.6433  -20.0296   20.4026 H   0  0  0  0  0  0
  -32.8993  -22.3910   19.8659 H   0  0  0  0  0  0
  -33.0875  -20.9413   18.8959 H   0  0  0  0  0  0
  -33.3383  -20.8944   20.6451 H   0  0  0  0  0  0
  -27.2947  -23.3929   21.1010 H   0  0  0  0  0  0
  -27.2745  -23.4101   19.3938 H   0  0  0  0  0  0
  -28.5342  -16.9391   20.3782 H   0  0  0  0  0  0
  1 25  1  0  0  0
  1 30  2  0  0  0
  1 79  1  0  0  0
  2  3  1  0  0  0
  2 25  1  0  0  0
  2 82  1  0  0  0
  2 83  1  0  0  0
  3  4  1  0  0  0
  3 84  1  0  0  0
  3 85  1  0  0  0
  4  5  1  0  0  0
  4 86  1  0  0  0
  4 87  1  0  0  0
  5  6  1  0  0  0
  5 26  1  0  0  0
  5 88  1  0  0  0
  6 25  1  0  0  0
  6 89  1  0  0  0
  6 90  1  0  0  0
  7  8  2  0  0  0
  7 26  1  0  0  0
  7 29  1  0  0  0
  8  9  1  0  0  0
  8 22  1  0  0  0
  9 10  1  0  0  0
  9 27  2  0  0  0
 10 11  2  0  0  0
 10 15  1  0  0  0
 11 12  1  0  0  0
 11 91  1  0  0  0
 12 13  2  0  0  0
 12 92  1  0  0  0
 13 14  1  0  0  0
 13 31  1  0  0  0
 14 15  2  0  0  0
 14 93  1  0  0  0
 15 94  1  0  0  0
 16 17  2  0  0  0
 16 21  1  0  0  0
 16 31  1  0  0  0
 17 18  1  0  0  0
 17 95  1  0  0  0
 18 19  2  0  0  0
 18 96  1  0  0  0
 19 20  1  0  0  0
 19 24  1  0  0  0
 20 21  2  0  0  0
 20 97  1  0  0  0
 21 23  1  0  0  0
 22 28  1  0  0  0
 22 32  2  0  0  0
 26 27  1  0  0  0
 28 98  1  0  0  0
 28 99  1  0  0  0
 29100  1  0  0  0
 29101  1  0  0  0
 33 34  1  0  0  0
 33 66  1  0  0  0
 33 70  2  0  0  0
 34 36  1  0  0  0
 34 59  1  0  0  0
 34102  1  0  0  0
 35 44  2  0  0  0
 35 45  1  0  0  0
 35 68  1  0  0  0
 36 56  1  0  0  0
 36103  1  0  0  0
 37 39  1  0  0  0
 37 47  1  0  0  0
 37 66  1  0  0  0
 37104  1  0  0  0
 38 43  2  0  0  0
 38 46  1  0  0  0
 38 47  1  0  0  0
 39 64  1  0  0  0
 39 67  2  0  0  0
 40 52  1  0  0  0
 40 53  2  0  0  0
 40 58  1  0  0  0
 41105  1  0  0  0
 41106  1  0  0  0
 41107  1  0  0  0
 41 48  1  0  0  0
 42 43  1  0  0  0
 42 66  1  0  0  0
 42108  1  0  0  0
 42109  1  0  0  0
 43 44  1  0  0  0
 44110  1  0  0  0
 45 46  2  0  0  0
 45111  1  0  0  0
 46112  1  0  0  0
 47113  1  0  0  0
 47114  1  0  0  0
 48 56  1  0  0  0
 48 65  1  0  0  0
 48115  1  0  0  0
 49 50  1  0  0  0
 49 53  1  0  0  0
 49 64  1  0  0  0
 49116  1  0  0  0
 50 51  1  0  0  0
 50117  1  0  0  0
 50118  1  0  0  0
 51 52  1  0  0  0
 51119  1  0  0  0
 51120  1  0  0  0
 52121  1  0  0  0
 52122  1  0  0  0
 53 54  1  0  0  0
 54 55  2  0  0  0
 54123  1  0  0  0
 55 57  1  0  0  0
 55124  1  0  0  0
 56 69  2  0  0  0
 57 58  2  0  0  0
 57125  1  0  0  0
 58126  1  0  0  0
 59 60  1  0  0  0
 59 61  1  0  0  0
 59 62  1  0  0  0
 60127  1  0  0  0
 60128  1  0  0  0
 60129  1  0  0  0
 61130  1  0  0  0
 61131  1  0  0  0
 61132  1  0  0  0
 62133  1  0  0  0
 62134  1  0  0  0
 62135  1  0  0  0
 63 65  1  0  0  0
 63136  1  0  0  0
 63137  1  0  0  0
 63138  1  0  0  0
 64139  1  0  0  0
 65140  1  0  0  0
 68 78  1  0  0  0
 71 72  2  0  0  0
 71 74  1  0  0  0
 71141  1  0  0  0
 72 75  1  0  0  0
 72 78  1  0  0  0
 73 75  2  0  0  0
 73 76  1  0  0  0
 73 77  1  0  0  0
 74 76  2  0  0  0
 74 79  1  0  0  0
 75 80  1  0  0  0
 76 81  1  0  0  0
 77142  1  0  0  0
 77143  1  0  0  0
 77144  1  0  0  0
 78145  1  0  0  0
 78146  1  0  0  0
 79147  1  0  0  0
M  ISO  4   1 100  68 101  78 101  79 100
M  END
> <chiral flag>
0

> <version>
0

> <s_m_source_file>
/data/baiqing/PycharmProjects/Reinvent-master-3.2/result/LINK_invent/BTK/process_docking_weight1_custom_sum_contain_oxygen_bond_distance_aromatic_linkinvent_7_9_3/rearranged_h_0029.sdf

> <i_m_source_file_index>
80

> <r_mmod_Potential_Energy-OPLS-2005>
2808.17993164062

> <r_mmod_Stretch_Energy-OPLS-2005>
1272.56237792969

> <r_mmod_Bend_Energy-OPLS-2005>
648.566223144531

> <r_mmod_Torsional_Energy-OPLS-2005>
224.380081176758

> <r_mmod_Improper_Torsional_Energy-OPLS-2005>
3.82371497154236

> <r_mmod_Van_der_Waal_Energy-OPLS-2005>
143.885681152344

> <r_mmod_Electrostatic_Energy-OPLS-2005>
-372.296844482422

> <r_mmod_Solvation_Energy-OPLS-2005>
-221.573822021484

> <b_mmod_Minimization_Converged-OPLS-2005>
0

> <r_mmod_RMS_Derivative-OPLS-2005>
2.45270228385925

$$$$
80
                    3D
 Structure written by MMmdl.
156164  0  0  1  0            999 V2000
  -30.6411  -14.6999   20.4838 C   0  0  0  0  0  0
  -30.4327  -12.4299   19.4714 C   0  0  0  0  0  0
  -29.5119  -12.5002   18.2340 C   0  0  0  0  0  0
  -28.0377  -12.3300   18.6482 C   0  0  0  0  0  0
  -27.6473  -13.2291   19.8531 C   0  0  2  0  0  0
  -28.6916  -13.1530   20.9882 C   0  0  0  0  0  0
  -25.2532  -13.8190   20.5690 C   0  0  0  0  0  0
  -24.1823  -13.0438   20.9228 C   0  0  0  0  0  0
  -24.6412  -11.6911   20.8769 C   0  0  0  0  0  0
  -23.9080  -10.4282   21.0414 C   0  0  0  0  0  0
  -24.3621   -9.4191   21.9201 C   0  0  0  0  0  0
  -23.6283   -8.2232   22.0771 C   0  0  0  0  0  0
  -22.4266   -8.0281   21.3559 C   0  0  0  0  0  0
  -21.9910   -9.0254   20.4667 C   0  0  0  0  0  0
  -22.7246  -10.2129   20.3069 C   0  0  0  0  0  0
  -21.6853   -6.0725   22.5269 C   0  0  0  0  0  0
  -21.4016   -6.5629   23.8201 C   0  0  0  0  0  0
  -21.3664   -5.6789   24.9166 C   0  0  0  0  0  0
  -21.6043   -4.3049   24.7227 C   0  0  0  0  0  0
  -21.8822   -3.8139   23.4349 C   0  0  0  0  0  0
  -21.9189   -4.6951   22.3395 C   0  0  0  0  0  0
  -22.7839  -13.5237   21.1857 C   0  0  0  0  0  0
  -22.1658   -4.2129   21.0976 F   0  0  0  0  0  0
  -21.5616   -3.4534   25.7739 F   0  0  0  0  0  0
  -29.9994  -13.4877   20.4093 N   0  0  0  0  0  0
  -26.2969  -12.9402   20.3299 N   0  0  0  0  0  0
  -25.9350  -11.6546   20.5775 N   0  0  0  0  0  0
  -22.0477  -12.8241   22.0416 N   0  0  0  0  0  0
  -25.4193  -15.1900   20.3973 N   0  0  0  0  0  0
  -31.8219  -14.8021   20.1411 O   0  0  0  0  0  0
  -21.6641   -6.8873   21.4235 O   0  0  0  0  0  0
  -22.3534  -14.5534   20.6675 O   0  0  0  0  0  0
  -24.6273  -31.8545   23.1994 C   0  0  0  0  0  0
  -25.9099  -32.4752   23.8340 C   0  0  1  0  0  0
  -27.2277  -27.2967   20.1410 C   0  0  0  0  0  0
  -25.5913  -33.8559   24.2258 N   0  0  0  0  0  0
  -23.4244  -30.4748   21.5409 C   0  0  2  0  0  0
  -24.8740  -28.9212   20.1148 C   0  0  0  0  0  0
  -22.7471  -29.4610   22.4940 C   0  0  0  0  0  0
  -18.0298  -28.1362   22.8479 C   0  0  0  0  0  0
  -24.1496  -36.7291   23.2640 C   0  0  0  0  0  0
  -25.9633  -30.7834   21.3697 C   0  0  0  0  0  0
  -26.0422  -29.4057   20.7180 C   0  0  0  0  0  0
  -27.2256  -28.6079   20.7135 C   0  0  0  0  0  0
  -26.0394  -26.8584   19.5230 C   0  0  0  0  0  0
  -24.8762  -27.6552   19.5032 C   0  0  0  0  0  0
  -23.6405  -29.7996   20.1601 C   0  0  0  0  0  0
  -25.4123  -36.3075   24.0324 C   0  0  1  0  0  0
  -20.5886  -28.3698   23.1272 C   0  0  2  0  0  0
  -20.6800  -26.9426   22.5409 C   0  0  0  0  0  0
  -19.5771  -26.6357   21.5226 C   0  0  0  0  0  0
  -18.1953  -26.7897   22.1641 C   0  0  0  0  0  0
  -19.1540  -28.8845   23.2868 C   0  0  0  0  0  0
  -18.9461  -30.1434   23.8909 C   0  0  0  0  0  0
  -17.6460  -30.6557   24.0584 C   0  0  0  0  0  0
  -25.9056  -34.9437   23.5091 C   0  0  0  0  0  0
  -16.5353  -29.9061   23.6328 C   0  0  0  0  0  0
  -16.7287  -28.6479   23.0340 C   0  0  0  0  0  0
  -26.4489  -31.6569   25.0717 C   0  0  0  0  0  0
  -25.3721  -31.3710   26.1460 C   0  0  0  0  0  0
  -27.0339  -30.2995   24.6163 C   0  0  0  0  0  0
  -27.6070  -32.4297   25.7461 C   0  0  0  0  0  0
  -27.5578  -37.1799   24.8468 C   0  0  0  0  0  0
  -21.4184  -29.3093   22.3705 N   0  0  0  0  0  0
  -26.4298  -37.3767   23.9401 N   0  0  0  0  0  0
  -24.6906  -31.0552   22.0933 N   0  0  0  0  0  0
  -23.4197  -28.8129   23.3008 O   0  0  0  0  0  0
  -28.3447  -26.4470   20.1293 O   0  0  0  0  0  0
  -26.5617  -34.8912   22.4659 O   0  0  0  0  0  0
  -23.5433  -32.1333   23.7331 O   0  0  0  0  0  0
  -27.9415  -18.2195   20.9399 C   0  0  0  0  0  0
  -29.6812  -19.8855   20.6339 C   0  0  0  0  0  0
  -29.3081  -18.4855   20.7222 C   0  0  0  0  0  0
  -26.9991  -19.2632   21.0782 C   0  0  0  0  0  0
  -28.7421  -20.9843   20.7755 C   0  0  0  0  0  0
  -27.3881  -20.6252   20.9983 C   0  0  0  0  0  0
  -25.5498  -18.9027   21.3585 C   0  0  0  0  0  0
  -29.1787  -22.5079   20.9225 C   0  0  0  0  0  0
  -30.3373  -17.2795   20.6234 C   0  0  0  0  0  0
  -28.5864  -23.7308   20.0452 C   0  0  0  0  0  0
  -28.2504  -25.1176   20.7953 C   0  0  0  0  0  0
  -29.8923  -15.8287   20.7413 N   0  0  0  0  0  0
  -26.1918  -21.8534   21.2534 Cl  0  0  0  0  0  0
  -31.4748  -12.5432   19.1678 H   0  0  0  0  0  0
  -30.3635  -11.4516   19.9492 H   0  0  0  0  0  0
  -29.7910  -11.7266   17.5166 H   0  0  0  0  0  0
  -29.6475  -13.4549   17.7226 H   0  0  0  0  0  0
  -27.8896  -11.2816   18.9104 H   0  0  0  0  0  0
  -27.3819  -12.5267   17.7990 H   0  0  0  0  0  0
  -27.6476  -14.2529   19.4783 H   0  0  0  0  0  0
  -28.7176  -12.1580   21.4313 H   0  0  0  0  0  0
  -28.4336  -13.8401   21.7961 H   0  0  0  0  0  0
  -25.2770   -9.5636   22.4787 H   0  0  0  0  0  0
  -23.9963   -7.4626   22.7513 H   0  0  0  0  0  0
  -21.0832   -8.8797   19.8994 H   0  0  0  0  0  0
  -22.3723  -10.9669   19.6179 H   0  0  0  0  0  0
  -21.2024   -7.6140   23.9691 H   0  0  0  0  0  0
  -21.1485   -6.0526   25.9064 H   0  0  0  0  0  0
  -22.0602   -2.7596   23.2862 H   0  0  0  0  0  0
  -22.4064  -11.9891   22.4794 H   0  0  0  0  0  0
  -21.1111  -13.1300   22.2644 H   0  0  0  0  0  0
  -24.6252  -15.8190   20.4419 H   0  0  0  0  0  0
  -26.2211  -15.5985   19.9360 H   0  0  0  0  0  0
  -26.7155  -32.5437   23.1078 H   0  0  0  0  0  0
  -25.0089  -33.9727   25.0422 H   0  0  0  0  0  0
  -22.7201  -31.2954   21.3901 H   0  0  0  0  0  0
  -23.3763  -35.9619   23.3314 H   0  0  0  0  0  0
  -24.3582  -36.8904   22.2051 H   0  0  0  0  0  0
  -23.7254  -37.6496   23.6662 H   0  0  0  0  0  0
  -26.0969  -31.5442   20.5991 H   0  0  0  0  0  0
  -26.8411  -30.8357   22.0011 H   0  0  0  0  0  0
  -28.1269  -28.9789   21.1813 H   0  0  0  0  0  0
  -26.0125  -25.8815   19.0591 H   0  0  0  0  0  0
  -23.9807  -27.2809   19.0253 H   0  0  0  0  0  0
  -23.7547  -30.5677   19.3947 H   0  0  0  0  0  0
  -22.7637  -29.2186   19.8683 H   0  0  0  0  0  0
  -25.1296  -36.1930   25.0811 H   0  0  0  0  0  0
  -20.9961  -28.3264   24.1395 H   0  0  0  0  0  0
  -20.5753  -26.2312   23.3619 H   0  0  0  0  0  0
  -21.6661  -26.7501   22.1169 H   0  0  0  0  0  0
  -19.6944  -25.6259   21.1286 H   0  0  0  0  0  0
  -19.6675  -27.3143   20.6732 H   0  0  0  0  0  0
  -17.4207  -26.6620   21.4059 H   0  0  0  0  0  0
  -18.0360  -26.0061   22.9058 H   0  0  0  0  0  0
  -19.7940  -30.7232   24.2292 H   0  0  0  0  0  0
  -17.5026  -31.6225   24.5217 H   0  0  0  0  0  0
  -15.5351  -30.2968   23.7651 H   0  0  0  0  0  0
  -15.8690  -28.0800   22.7033 H   0  0  0  0  0  0
  -24.5866  -30.7104   25.7783 H   0  0  0  0  0  0
  -24.8963  -32.2880   26.4935 H   0  0  0  0  0  0
  -25.8032  -30.8840   27.0214 H   0  0  0  0  0  0
  -26.2927  -29.6767   24.1151 H   0  0  0  0  0  0
  -27.4031  -29.7245   25.4659 H   0  0  0  0  0  0
  -27.8784  -30.4283   23.9382 H   0  0  0  0  0  0
  -27.2725  -33.3665   26.1930 H   0  0  0  0  0  0
  -28.3912  -32.6737   25.0271 H   0  0  0  0  0  0
  -28.0678  -31.8468   26.5437 H   0  0  0  0  0  0
  -28.2590  -38.0097   24.7500 H   0  0  0  0  0  0
  -28.1071  -36.2627   24.6309 H   0  0  0  0  0  0
  -27.2294  -37.1460   25.8871 H   0  0  0  0  0  0
  -20.9390  -29.8839   21.6920 H   0  0  0  0  0  0
  -26.0189  -38.2849   24.1401 H   0  0  0  0  0  0
  -27.6063  -17.1968   21.0299 H   0  0  0  0  0  0
  -30.7275  -20.1254   20.4998 H   0  0  0  0  0  0
  -25.4236  -17.8322   21.5163 H   0  0  0  0  0  0
  -24.9142  -19.1987   20.5238 H   0  0  0  0  0  0
  -25.1915  -19.4051   22.2582 H   0  0  0  0  0  0
  -30.2665  -22.5461   20.8495 H   0  0  0  0  0  0
  -28.9826  -22.7450   21.9689 H   0  0  0  0  0  0
  -31.0963  -17.4423   21.3911 H   0  0  0  0  0  0
  -30.8613  -17.3853   19.6725 H   0  0  0  0  0  0
  -27.6867  -23.4063   19.5246 H   0  0  0  0  0  0
  -29.3009  -23.9348   19.2454 H   0  0  0  0  0  0
  -28.9470  -25.1954   21.6295 H   0  0  0  0  0  0
  -27.2763  -25.0158   21.2765 H   0  0  0  0  0  0
  -28.9266  -15.6721   20.9815 H   0  0  0  0  0  0
  1 25  1  0  0  0
  1 30  2  0  0  0
  1 82  1  0  0  0
  2  3  1  0  0  0
  2 25  1  0  0  0
  2 84  1  0  0  0
  2 85  1  0  0  0
  3  4  1  0  0  0
  3 86  1  0  0  0
  3 87  1  0  0  0
  4  5  1  0  0  0
  4 88  1  0  0  0
  4 89  1  0  0  0
  5  6  1  0  0  0
  5 26  1  0  0  0
  5 90  1  0  0  0
  6 25  1  0  0  0
  6 91  1  0  0  0
  6 92  1  0  0  0
  7  8  2  0  0  0
  7 26  1  0  0  0
  7 29  1  0  0  0
  8  9  1  0  0  0
  8 22  1  0  0  0
  9 10  1  0  0  0
  9 27  2  0  0  0
 10 11  2  0  0  0
 10 15  1  0  0  0
 11 12  1  0  0  0
 11 93  1  0  0  0
 12 13  2  0  0  0
 12 94  1  0  0  0
 13 14  1  0  0  0
 13 31  1  0  0  0
 14 15  2  0  0  0
 14 95  1  0  0  0
 15 96  1  0  0  0
 16 17  2  0  0  0
 16 21  1  0  0  0
 16 31  1  0  0  0
 17 18  1  0  0  0
 17 97  1  0  0  0
 18 19  2  0  0  0
 18 98  1  0  0  0
 19 20  1  0  0  0
 19 24  1  0  0  0
 20 21  2  0  0  0
 20 99  1  0  0  0
 21 23  1  0  0  0
 22 28  1  0  0  0
 22 32  2  0  0  0
 26 27  1  0  0  0
 28100  1  0  0  0
 28101  1  0  0  0
 29102  1  0  0  0
 29103  1  0  0  0
 33 34  1  0  0  0
 33 66  1  0  0  0
 33 70  2  0  0  0
 34 36  1  0  0  0
 34 59  1  0  0  0
 34104  1  0  0  0
 35 44  2  0  0  0
 35 45  1  0  0  0
 35 68  1  0  0  0
 36 56  1  0  0  0
 36105  1  0  0  0
 37 39  1  0  0  0
 37 47  1  0  0  0
 37 66  1  0  0  0
 37106  1  0  0  0
 38 43  2  0  0  0
 38 46  1  0  0  0
 38 47  1  0  0  0
 39 64  1  0  0  0
 39 67  2  0  0  0
 40 52  1  0  0  0
 40 53  2  0  0  0
 40 58  1  0  0  0
 41107  1  0  0  0
 41108  1  0  0  0
 41109  1  0  0  0
 41 48  1  0  0  0
 42 43  1  0  0  0
 42 66  1  0  0  0
 42110  1  0  0  0
 42111  1  0  0  0
 43 44  1  0  0  0
 44112  1  0  0  0
 45 46  2  0  0  0
 45113  1  0  0  0
 46114  1  0  0  0
 47115  1  0  0  0
 47116  1  0  0  0
 48 56  1  0  0  0
 48 65  1  0  0  0
 48117  1  0  0  0
 49 50  1  0  0  0
 49 53  1  0  0  0
 49 64  1  0  0  0
 49118  1  0  0  0
 50 51  1  0  0  0
 50119  1  0  0  0
 50120  1  0  0  0
 51 52  1  0  0  0
 51121  1  0  0  0
 51122  1  0  0  0
 52123  1  0  0  0
 52124  1  0  0  0
 53 54  1  0  0  0
 54 55  2  0  0  0
 54125  1  0  0  0
 55 57  1  0  0  0
 55126  1  0  0  0
 56 69  2  0  0  0
 57 58  2  0  0  0
 57127  1  0  0  0
 58128  1  0  0  0
 59 60  1  0  0  0
 59 61  1  0  0  0
 59 62  1  0  0  0
 60129  1  0  0  0
 60130  1  0  0  0
 60131  1  0  0  0
 61132  1  0  0  0
 61133  1  0  0  0
 61134  1  0  0  0
 62135  1  0  0  0
 62136  1  0  0  0
 62137  1  0  0  0
 63 65  1  0  0  0
 63138  1  0  0  0
 63139  1  0  0  0
 63140  1  0  0  0
 64141  1  0  0  0
 65142  1  0  0  0
 68 81  1  0  0  0
 71 73  2  0  0  0
 71 74  1  0  0  0
 71143  1  0  0  0
 72 73  1  0  0  0
 72 75  2  0  0  0
 72144  1  0  0  0
 73 79  1  0  0  0
 74 76  2  0  0  0
 74 77  1  0  0  0
 75 76  1  0  0  0
 75 78  1  0  0  0
 76 83  1  0  0  0
 77145  1  0  0  0
 77146  1  0  0  0
 77147  1  0  0  0
 78 80  1  0  0  0
 78148  1  0  0  0
 78149  1  0  0  0
 79 82  1  0  0  0
 79150  1  0  0  0
 79151  1  0  0  0
 80 81  1  0  0  0
 80152  1  0  0  0
 80153  1  0  0  0
 81154  1  0  0  0
 81155  1  0  0  0
 82156  1  0  0  0
M  ISO  4   1 100  68 101  81 101  82 100
M  END
> <chiral flag>
0

> <version>
0

> <s_m_source_file>
/data/baiqing/PycharmProjects/Reinvent-master-3.2/result/LINK_invent/BTK/process_docking_weight1_custom_sum_contain_oxygen_bond_distance_aromatic_linkinvent_7_9_3/rearranged_h_0029.sdf

> <i_m_source_file_index>
81

> <r_mmod_Potential_Energy-OPLS-2005>
79.1141586303711

> <r_mmod_Stretch_Energy-OPLS-2005>
104.536773681641

> <r_mmod_Bend_Energy-OPLS-2005>
147.993057250977

> <r_mmod_Torsional_Energy-OPLS-2005>
235.100463867188

> <r_mmod_Improper_Torsional_Energy-OPLS-2005>
6.70789194107056

> <r_mmod_Van_der_Waal_Energy-OPLS-2005>
132.595458984375

> <r_mmod_Electrostatic_Energy-OPLS-2005>
-410.796203613281

> <r_mmod_Solvation_Energy-OPLS-2005>
-201.222137451172

> <b_mmod_Minimization_Converged-OPLS-2005>
0

> <r_mmod_RMS_Derivative-OPLS-2005>
2.50521659851074

$$$$
81
                    3D
 Structure written by MMmdl.
159168  0  0  1  0            999 V2000
  -30.5459  -15.1587   20.3793 C   0  0  0  0  0  0
  -30.4088  -12.7384   19.5212 C   0  0  0  0  0  0
  -29.5158  -12.5639   18.2731 C   0  0  0  0  0  0
  -28.0616  -12.3097   18.6978 C   0  0  0  0  0  0
  -27.6058  -13.2790   19.8187 C   0  0  2  0  0  0
  -28.6406  -13.4498   20.9533 C   0  0  0  0  0  0
  -25.2360  -13.8260   20.5746 C   0  0  0  0  0  0
  -24.1717  -13.0441   20.9255 C   0  0  0  0  0  0
  -24.6373  -11.6941   20.8758 C   0  0  0  0  0  0
  -23.9066  -10.4292   21.0392 C   0  0  0  0  0  0
  -24.3610   -9.4213   21.9180 C   0  0  0  0  0  0
  -23.6298   -8.2243   22.0751 C   0  0  0  0  0  0
  -22.4288   -8.0267   21.3532 C   0  0  0  0  0  0
  -21.9911   -9.0235   20.4638 C   0  0  0  0  0  0
  -22.7233  -10.2123   20.3051 C   0  0  0  0  0  0
  -21.6860   -6.0724   22.5276 C   0  0  0  0  0  0
  -21.4018   -6.5631   23.8212 C   0  0  0  0  0  0
  -21.3666   -5.6785   24.9172 C   0  0  0  0  0  0
  -21.6053   -4.3045   24.7221 C   0  0  0  0  0  0
  -21.8816   -3.8133   23.4341 C   0  0  0  0  0  0
  -21.9192   -4.6953   22.3397 C   0  0  0  0  0  0
  -22.7736  -13.5203   21.1898 C   0  0  0  0  0  0
  -22.1667   -4.2137   21.0977 F   0  0  0  0  0  0
  -21.5627   -3.4535   25.7734 F   0  0  0  0  0  0
  -29.8869  -13.9060   20.3226 N   0  0  0  0  0  0
  -26.2785  -12.9542   20.3209 N   0  0  0  0  0  0
  -25.9317  -11.6645   20.5717 N   0  0  0  0  0  0
  -22.0379  -12.8204   22.0446 N   0  0  0  0  0  0
  -25.3999  -15.1991   20.4205 N   0  0  0  0  0  0
  -31.7635  -15.0450   20.1669 O   0  0  0  0  0  0
  -21.6645   -6.8871   21.4239 O   0  0  0  0  0  0
  -22.3426  -14.5514   20.6739 O   0  0  0  0  0  0
  -24.6565  -31.8318   23.1773 C   0  0  0  0  0  0
  -25.9284  -32.4626   23.8212 C   0  0  1  0  0  0
  -27.2029  -26.9977   20.1719 C   0  0  0  0  0  0
  -25.5988  -33.8437   24.2130 N   0  0  0  0  0  0
  -23.4658  -30.4481   21.5256 C   0  0  2  0  0  0
  -24.9154  -28.8523   20.1089 C   0  0  0  0  0  0
  -22.7630  -29.4484   22.4807 C   0  0  0  0  0  0
  -18.0313  -28.1402   22.8463 C   0  0  0  0  0  0
  -24.1497  -36.7221   23.2643 C   0  0  0  0  0  0
  -26.0312  -30.6613   21.3956 C   0  0  0  0  0  0
  -26.0981  -29.2588   20.7391 C   0  0  0  0  0  0
  -27.2406  -28.3501   20.7501 C   0  0  0  0  0  0
  -25.9971  -26.7329   19.4854 C   0  0  0  0  0  0
  -24.8862  -27.6080   19.4625 C   0  0  0  0  0  0
  -23.7001  -29.7720   20.1481 C   0  0  0  0  0  0
  -25.4132  -36.2988   24.0308 C   0  0  1  0  0  0
  -20.5931  -28.3740   23.1194 C   0  0  2  0  0  0
  -20.6793  -26.9429   22.5390 C   0  0  0  0  0  0
  -19.5769  -26.6375   21.5201 C   0  0  0  0  0  0
  -18.1952  -26.7939   22.1611 C   0  0  0  0  0  0
  -19.1571  -28.8888   23.2818 C   0  0  0  0  0  0
  -18.9491  -30.1481   23.8849 C   0  0  0  0  0  0
  -17.6486  -30.6594   24.0548 C   0  0  0  0  0  0
  -25.9098  -34.9367   23.5037 C   0  0  0  0  0  0
  -16.5375  -29.9083   23.6338 C   0  0  0  0  0  0
  -16.7293  -28.6503   23.0352 C   0  0  0  0  0  0
  -26.4559  -31.6530   25.0708 C   0  0  0  0  0  0
  -25.3711  -31.3758   26.1378 C   0  0  0  0  0  0
  -27.0433  -30.2905   24.6378 C   0  0  0  0  0  0
  -27.6072  -32.4312   25.7509 C   0  0  0  0  0  0
  -27.5573  -37.1770   24.8462 C   0  0  0  0  0  0
  -21.4305  -29.3046   22.3551 N   0  0  0  0  0  0
  -26.4281  -37.3719   23.9411 N   0  0  0  0  0  0
  -24.7385  -31.0055   22.0871 N   0  0  0  0  0  0
  -23.4219  -28.8048   23.3007 O   0  0  0  0  0  0
  -28.1940  -25.9107   20.2677 O   0  0  0  0  0  0
  -26.5686  -34.8883   22.4618 O   0  0  0  0  0  0
  -23.5651  -32.1253   23.6911 O   0  0  0  0  0  0
  -30.0879  -20.3117   21.0320 C   0  0  0  0  0  0
  -30.7038  -21.5997   21.2201 C   0  0  0  0  0  0
  -30.0184  -22.8472   20.9265 C   0  0  0  0  0  0
  -28.8378  -20.3130   20.4041 C   0  0  0  0  0  0
  -28.7024  -22.8847   20.3735 C   0  0  0  0  0  0
  -30.6030  -18.9449   21.6604 C   0  0  0  0  0  0
  -28.1854  -18.8229   20.2482 C   0  0  0  0  0  0
  -30.9854  -17.6607   20.7806 C   0  0  0  0  0  0
  -28.9064  -17.3414   19.8143 C   0  0  0  0  0  0
  -32.1320  -21.6548   21.7532 C   0  0  0  0  0  0
  -30.6898  -24.1886   21.2162 C   0  0  0  0  0  0
  -27.8470  -24.3454   20.0415 C   0  0  0  0  0  0
  -28.1851  -21.5667   20.1160 N   0  0  0  0  0  0
  -29.9955  -16.5233   20.5765 N   0  0  0  0  0  0
  -31.4432  -12.8750   19.2034 H   0  0  0  0  0  0
  -30.4122  -11.8260   20.1198 H   0  0  0  0  0  0
  -29.8790  -11.7424   17.6542 H   0  0  0  0  0  0
  -29.5689  -13.4633   17.6568 H   0  0  0  0  0  0
  -27.9975  -11.2804   19.0514 H   0  0  0  0  0  0
  -27.3927  -12.3766   17.8374 H   0  0  0  0  0  0
  -27.5222  -14.2493   19.3273 H   0  0  0  0  0  0
  -28.7825  -12.5237   21.5130 H   0  0  0  0  0  0
  -28.2971  -14.2015   21.6667 H   0  0  0  0  0  0
  -25.2743   -9.5716   22.4763 H   0  0  0  0  0  0
  -24.0000   -7.4641   22.7492 H   0  0  0  0  0  0
  -21.0827   -8.8752   19.8961 H   0  0  0  0  0  0
  -22.3669  -10.9650   19.6163 H   0  0  0  0  0  0
  -21.2016   -7.6140   23.9716 H   0  0  0  0  0  0
  -21.1502   -6.0510   25.9079 H   0  0  0  0  0  0
  -22.0592   -2.7597   23.2836 H   0  0  0  0  0  0
  -22.3988  -11.9861   22.4827 H   0  0  0  0  0  0
  -21.1002  -13.1249   22.2658 H   0  0  0  0  0  0
  -24.6272  -15.8472   20.5294 H   0  0  0  0  0  0
  -26.2511  -15.6413   20.1012 H   0  0  0  0  0  0
  -26.7353  -32.5189   23.0930 H   0  0  0  0  0  0
  -25.0103  -33.9532   25.0261 H   0  0  0  0  0  0
  -22.7756  -31.2791   21.3628 H   0  0  0  0  0  0
  -23.3767  -35.9541   23.3284 H   0  0  0  0  0  0
  -24.3576  -36.8879   22.2058 H   0  0  0  0  0  0
  -23.7238  -37.6405   23.6700 H   0  0  0  0  0  0
  -26.2007  -31.4063   20.6172 H   0  0  0  0  0  0
  -26.8963  -30.7175   22.0441 H   0  0  0  0  0  0
  -28.1360  -28.6554   21.2742 H   0  0  0  0  0  0
  -25.8712  -25.7851   18.9847 H   0  0  0  0  0  0
  -23.9862  -27.2928   18.9511 H   0  0  0  0  0  0
  -23.8510  -30.5447   19.3928 H   0  0  0  0  0  0
  -22.8105  -29.2255   19.8309 H   0  0  0  0  0  0
  -25.1321  -36.1800   25.0799 H   0  0  0  0  0  0
  -21.0020  -28.3341   24.1318 H   0  0  0  0  0  0
  -20.5667  -26.2365   23.3622 H   0  0  0  0  0  0
  -21.6663  -26.7417   22.1202 H   0  0  0  0  0  0
  -19.6936  -25.6276   21.1259 H   0  0  0  0  0  0
  -19.6709  -27.3157   20.6705 H   0  0  0  0  0  0
  -17.4219  -26.6662   21.4019 H   0  0  0  0  0  0
  -18.0365  -26.0093   22.9020 H   0  0  0  0  0  0
  -19.7970  -30.7301   24.2209 H   0  0  0  0  0  0
  -17.5041  -31.6269   24.5157 H   0  0  0  0  0  0
  -15.5373  -30.2967   23.7696 H   0  0  0  0  0  0
  -15.8695  -28.0804   22.7095 H   0  0  0  0  0  0
  -24.5901  -30.7097   25.7694 H   0  0  0  0  0  0
  -24.8882  -32.2944   26.4721 H   0  0  0  0  0  0
  -25.7958  -30.8980   27.0217 H   0  0  0  0  0  0
  -26.3070  -29.6598   24.1377 H   0  0  0  0  0  0
  -27.3982  -29.7243   25.5005 H   0  0  0  0  0  0
  -27.9015  -30.4099   23.9762 H   0  0  0  0  0  0
  -27.2666  -33.3647   26.1997 H   0  0  0  0  0  0
  -28.3940  -32.6804   25.0381 H   0  0  0  0  0  0
  -28.0680  -31.8487   26.5500 H   0  0  0  0  0  0
  -28.2562  -38.0091   24.7518 H   0  0  0  0  0  0
  -28.1094  -36.2616   24.6277 H   0  0  0  0  0  0
  -27.2291  -37.1401   25.8863 H   0  0  0  0  0  0
  -20.9550  -29.8755   21.6703 H   0  0  0  0  0  0
  -26.0134  -38.2781   24.1410 H   0  0  0  0  0  0
  -29.8598  -18.6305   22.3945 H   0  0  0  0  0  0
  -31.4622  -19.1601   22.2911 H   0  0  0  0  0  0
  -27.3717  -18.9662   19.5372 H   0  0  0  0  0  0
  -27.6741  -18.6455   21.1947 H   0  0  0  0  0  0
  -31.8458  -17.2313   21.2959 H   0  0  0  0  0  0
  -31.3875  -17.9826   19.8178 H   0  0  0  0  0  0
  -29.2815  -17.4703   18.7985 H   0  0  0  0  0  0
  -28.0801  -16.6400   19.6992 H   0  0  0  0  0  0
  -32.6838  -20.7322   21.5856 H   0  0  0  0  0  0
  -32.1376  -21.8762   22.8205 H   0  0  0  0  0  0
  -32.7124  -22.4187   21.2345 H   0  0  0  0  0  0
  -31.5062  -24.1294   21.9332 H   0  0  0  0  0  0
  -29.9828  -24.8931   21.6526 H   0  0  0  0  0  0
  -31.0776  -24.6233   20.2941 H   0  0  0  0  0  0
  -26.8804  -24.1993   20.5245 H   0  0  0  0  0  0
  -27.6359  -24.2743   18.9747 H   0  0  0  0  0  0
  1 25  1  0  0  0
  1 30  2  0  0  0
  1 84  1  0  0  0
  2  3  1  0  0  0
  2 25  1  0  0  0
  2 85  1  0  0  0
  2 86  1  0  0  0
  3  4  1  0  0  0
  3 87  1  0  0  0
  3 88  1  0  0  0
  4  5  1  0  0  0
  4 89  1  0  0  0
  4 90  1  0  0  0
  5  6  1  0  0  0
  5 26  1  0  0  0
  5 91  1  0  0  0
  6 25  1  0  0  0
  6 92  1  0  0  0
  6 93  1  0  0  0
  7  8  2  0  0  0
  7 26  1  0  0  0
  7 29  1  0  0  0
  8  9  1  0  0  0
  8 22  1  0  0  0
  9 10  1  0  0  0
  9 27  2  0  0  0
 10 11  2  0  0  0
 10 15  1  0  0  0
 11 12  1  0  0  0
 11 94  1  0  0  0
 12 13  2  0  0  0
 12 95  1  0  0  0
 13 14  1  0  0  0
 13 31  1  0  0  0
 14 15  2  0  0  0
 14 96  1  0  0  0
 15 97  1  0  0  0
 16 17  2  0  0  0
 16 21  1  0  0  0
 16 31  1  0  0  0
 17 18  1  0  0  0
 17 98  1  0  0  0
 18 19  2  0  0  0
 18 99  1  0  0  0
 19 20  1  0  0  0
 19 24  1  0  0  0
 20 21  2  0  0  0
 20100  1  0  0  0
 21 23  1  0  0  0
 22 28  1  0  0  0
 22 32  2  0  0  0
 26 27  1  0  0  0
 28101  1  0  0  0
 28102  1  0  0  0
 29103  1  0  0  0
 29104  1  0  0  0
 33 34  1  0  0  0
 33 66  1  0  0  0
 33 70  2  0  0  0
 34 36  1  0  0  0
 34 59  1  0  0  0
 34105  1  0  0  0
 35 44  2  0  0  0
 35 45  1  0  0  0
 35 68  1  0  0  0
 36 56  1  0  0  0
 36106  1  0  0  0
 37 39  1  0  0  0
 37 47  1  0  0  0
 37 66  1  0  0  0
 37107  1  0  0  0
 38 43  2  0  0  0
 38 46  1  0  0  0
 38 47  1  0  0  0
 39 64  1  0  0  0
 39 67  2  0  0  0
 40 52  1  0  0  0
 40 53  2  0  0  0
 40 58  1  0  0  0
 41108  1  0  0  0
 41109  1  0  0  0
 41110  1  0  0  0
 41 48  1  0  0  0
 42 43  1  0  0  0
 42 66  1  0  0  0
 42111  1  0  0  0
 42112  1  0  0  0
 43 44  1  0  0  0
 44113  1  0  0  0
 45 46  2  0  0  0
 45114  1  0  0  0
 46115  1  0  0  0
 47116  1  0  0  0
 47117  1  0  0  0
 48 56  1  0  0  0
 48 65  1  0  0  0
 48118  1  0  0  0
 49 50  1  0  0  0
 49 53  1  0  0  0
 49 64  1  0  0  0
 49119  1  0  0  0
 50 51  1  0  0  0
 50120  1  0  0  0
 50121  1  0  0  0
 51 52  1  0  0  0
 51122  1  0  0  0
 51123  1  0  0  0
 52124  1  0  0  0
 52125  1  0  0  0
 53 54  1  0  0  0
 54 55  2  0  0  0
 54126  1  0  0  0
 55 57  1  0  0  0
 55127  1  0  0  0
 56 69  2  0  0  0
 57 58  2  0  0  0
 57128  1  0  0  0
 58129  1  0  0  0
 59 60  1  0  0  0
 59 61  1  0  0  0
 59 62  1  0  0  0
 60130  1  0  0  0
 60131  1  0  0  0
 60132  1  0  0  0
 61133  1  0  0  0
 61134  1  0  0  0
 61135  1  0  0  0
 62136  1  0  0  0
 62137  1  0  0  0
 62138  1  0  0  0
 63 65  1  0  0  0
 63139  1  0  0  0
 63140  1  0  0  0
 63141  1  0  0  0
 64142  1  0  0  0
 65143  1  0  0  0
 68 82  1  0  0  0
 71 72  2  0  0  0
 71 74  1  0  0  0
 71 76  1  0  0  0
 72 73  1  0  0  0
 72 80  1  0  0  0
 73 75  2  0  0  0
 73 81  1  0  0  0
 74 77  1  0  0  0
 74 83  2  0  0  0
 75 82  1  0  0  0
 75 83  1  0  0  0
 76 78  1  0  0  0
 76144  1  0  0  0
 76145  1  0  0  0
 77 79  1  0  0  0
 77146  1  0  0  0
 77147  1  0  0  0
 78 84  1  0  0  0
 78148  1  0  0  0
 78149  1  0  0  0
 79 84  1  0  0  0
 79150  1  0  0  0
 79151  1  0  0  0
 80152  1  0  0  0
 80153  1  0  0  0
 80154  1  0  0  0
 81155  1  0  0  0
 81156  1  0  0  0
 81157  1  0  0  0
 82158  1  0  0  0
 82159  1  0  0  0
M  ISO  4   1 100  68 101  82 101  84 100
M  END
> <chiral flag>
0

> <version>
0

> <s_m_source_file>
/data/baiqing/PycharmProjects/Reinvent-master-3.2/result/LINK_invent/BTK/process_docking_weight1_custom_sum_contain_oxygen_bond_distance_aromatic_linkinvent_7_9_3/rearranged_h_0029.sdf

> <i_m_source_file_index>
82

> <r_mmod_Potential_Energy-OPLS-2005>
1006.52502441406

> <r_mmod_Stretch_Energy-OPLS-2005>
405.485107421875

> <r_mmod_Bend_Energy-OPLS-2005>
418.677581787109

> <r_mmod_Torsional_Energy-OPLS-2005>
326.047210693359

> <r_mmod_Improper_Torsional_Energy-OPLS-2005>
8.03682041168213

> <r_mmod_Van_der_Waal_Energy-OPLS-2005>
149.860992431641

> <r_mmod_Electrostatic_Energy-OPLS-2005>
-430.949645996094

> <r_mmod_Solvation_Energy-OPLS-2005>
-228.174438476562

> <b_mmod_Minimization_Converged-OPLS-2005>
0

> <r_mmod_RMS_Derivative-OPLS-2005>
1.83788931369781

$$$$
82
                    3D
 Structure written by MMmdl.
158166  0  0  1  0            999 V2000
  -30.3356  -15.7780   20.3353 C   0  0  0  0  0  0
  -30.3867  -13.2052   19.5120 C   0  0  0  0  0  0
  -29.5304  -12.6849   18.3235 C   0  0  0  0  0  0
  -28.1248  -12.2987   18.7914 C   0  0  0  0  0  0
  -27.5813  -13.3291   19.8044 C   0  0  2  0  0  0
  -28.5935  -13.7665   20.8967 C   0  0  0  0  0  0
  -25.2267  -13.8339   20.5867 C   0  0  0  0  0  0
  -24.1675  -13.0450   20.9320 C   0  0  0  0  0  0
  -24.6406  -11.6973   20.8778 C   0  0  0  0  0  0
  -23.9125  -10.4305   21.0387 C   0  0  0  0  0  0
  -24.3661   -9.4216   21.9167 C   0  0  0  0  0  0
  -23.6325   -8.2254   22.0740 C   0  0  0  0  0  0
  -22.4302   -8.0293   21.3536 C   0  0  0  0  0  0
  -21.9947   -9.0268   20.4634 C   0  0  0  0  0  0
  -22.7287  -10.2143   20.3043 C   0  0  0  0  0  0
  -21.6863   -6.0745   22.5278 C   0  0  0  0  0  0
  -21.4019   -6.5643   23.8211 C   0  0  0  0  0  0
  -21.3657   -5.6791   24.9170 C   0  0  0  0  0  0
  -21.6045   -4.3055   24.7218 C   0  0  0  0  0  0
  -21.8823   -3.8151   23.4337 C   0  0  0  0  0  0
  -21.9197   -4.6973   22.3396 C   0  0  0  0  0  0
  -22.7684  -13.5155   21.1940 C   0  0  0  0  0  0
  -22.1668   -4.2156   21.0974 F   0  0  0  0  0  0
  -21.5622   -3.4538   25.7728 F   0  0  0  0  0  0
  -29.7297  -14.4313   20.1990 N   0  0  0  0  0  0
  -26.2732  -12.9709   20.3309 N   0  0  0  0  0  0
  -25.9361  -11.6756   20.5731 N   0  0  0  0  0  0
  -22.0363  -12.8114   22.0488 N   0  0  0  0  0  0
  -25.3859  -15.2083   20.4307 N   0  0  0  0  0  0
  -31.5564  -15.5219   20.2493 O   0  0  0  0  0  0
  -21.6656   -6.8892   21.4242 O   0  0  0  0  0  0
  -22.3356  -14.5450   20.6773 O   0  0  0  0  0  0
  -24.6939  -31.7887   23.1431 C   0  0  0  0  0  0
  -25.9464  -32.4413   23.8021 C   0  0  1  0  0  0
  -27.2248  -26.5958   20.2342 C   0  0  0  0  0  0
  -25.6002  -33.8244   24.1897 N   0  0  0  0  0  0
  -23.5243  -30.3859   21.5001 C   0  0  2  0  0  0
  -24.9795  -28.7011   20.1289 C   0  0  0  0  0  0
  -22.7812  -29.4263   22.4693 C   0  0  0  0  0  0
  -18.0345  -28.1430   22.8451 C   0  0  0  0  0  0
  -24.1489  -36.7129   23.2658 C   0  0  0  0  0  0
  -26.1093  -30.4875   21.4215 C   0  0  0  0  0  0
  -26.1731  -29.0389   20.7780 C   0  0  0  0  0  0
  -27.2790  -28.0193   20.7884 C   0  0  0  0  0  0
  -25.9942  -26.4912   19.5316 C   0  0  0  0  0  0
  -24.9349  -27.4538   19.4806 C   0  0  0  0  0  0
  -23.7833  -29.6715   20.1418 C   0  0  0  0  0  0
  -25.4143  -36.2865   24.0280 C   0  0  1  0  0  0
  -20.5985  -28.3793   23.1125 C   0  0  2  0  0  0
  -20.6806  -26.9443   22.5405 C   0  0  0  0  0  0
  -19.5783  -26.6367   21.5219 C   0  0  0  0  0  0
  -18.1967  -26.7954   22.1622 C   0  0  0  0  0  0
  -19.1614  -28.8938   23.2762 C   0  0  0  0  0  0
  -18.9517  -30.1518   23.8811 C   0  0  0  0  0  0
  -17.6506  -30.6607   24.0549 C   0  0  0  0  0  0
  -25.9132  -34.9260   23.4935 C   0  0  0  0  0  0
  -16.5395  -29.9087   23.6356 C   0  0  0  0  0  0
  -16.7323  -28.6513   23.0367 C   0  0  0  0  0  0
  -26.4608  -31.6484   25.0681 C   0  0  0  0  0  0
  -25.3650  -31.3830   26.1278 C   0  0  0  0  0  0
  -27.0556  -30.2811   24.6653 C   0  0  0  0  0  0
  -27.6033  -32.4371   25.7504 C   0  0  0  0  0  0
  -27.5559  -37.1721   24.8467 C   0  0  0  0  0  0
  -21.4449  -29.3025   22.3440 N   0  0  0  0  0  0
  -26.4262  -37.3637   23.9414 N   0  0  0  0  0  0
  -24.8008  -30.9233   22.0740 N   0  0  0  0  0  0
  -23.4209  -28.7880   23.3085 O   0  0  0  0  0  0
  -28.1996  -25.3485   20.2307 O   0  0  0  0  0  0
  -26.5786  -34.8862   22.4561 O   0  0  0  0  0  0
  -23.5938  -32.1009   23.6320 O   0  0  0  0  0  0
  -30.8155  -19.3461   19.7441 C   0  0  0  0  0  0
  -29.2526  -19.9221   20.3188 C   0  0  0  0  0  0
  -31.8999  -18.2585   20.6692 C   0  0  0  0  0  0
  -28.6225  -18.9884   21.6679 C   0  0  0  0  0  0
  -31.2182  -17.5864   22.2392 C   0  0  0  0  0  0
  -27.2844  -19.3688   22.2555 C   0  0  0  0  0  0
  -28.8764  -21.7745   19.9202 C   0  0  0  0  0  0
  -32.0660  -17.8991   23.3856 C   0  0  0  0  0  0
  -31.8919  -19.3937   23.1821 C   0  0  0  0  0  0
  -30.8024  -19.6773   22.0381 C   0  0  0  0  0  0
  -28.1182  -23.5473   20.4694 C   0  0  0  0  0  0
  -29.5391  -17.9073   22.6544 N   0  0  0  0  0  0
  -29.8216  -17.3408   20.4708 N   0  0  0  0  0  0
  -33.5762  -18.1351   20.2610 Cl  0  0  0  0  0  0
  -30.5846  -12.4057   20.2283 H   0  0  0  0  0  0
  -31.3661  -13.4589   19.1074 H   0  0  0  0  0  0
  -30.0147  -11.8326   17.8455 H   0  0  0  0  0  0
  -29.4585  -13.4666   17.5657 H   0  0  0  0  0  0
  -28.1874  -11.3194   19.2676 H   0  0  0  0  0  0
  -27.4491  -12.1888   17.9422 H   0  0  0  0  0  0
  -27.4094  -14.2169   19.1943 H   0  0  0  0  0  0
  -28.1305  -14.4972   21.5616 H   0  0  0  0  0  0
  -28.9007  -12.9316   21.5282 H   0  0  0  0  0  0
  -25.2802   -9.5691   22.4746 H   0  0  0  0  0  0
  -24.0029   -7.4646   22.7463 H   0  0  0  0  0  0
  -21.0873   -8.8795   19.8943 H   0  0  0  0  0  0
  -22.3738  -10.9683   19.6158 H   0  0  0  0  0  0
  -21.2018   -7.6153   23.9718 H   0  0  0  0  0  0
  -21.1468   -6.0518   25.9071 H   0  0  0  0  0  0
  -22.0604   -2.7616   23.2834 H   0  0  0  0  0  0
  -22.4031  -11.9798   22.4873 H   0  0  0  0  0  0
  -21.0963  -13.1079   22.2688 H   0  0  0  0  0  0
  -24.6185  -15.8604   20.5490 H   0  0  0  0  0  0
  -26.2398  -15.6515   20.1173 H   0  0  0  0  0  0
  -26.7555  -32.4857   23.0737 H   0  0  0  0  0  0
  -25.0038  -33.9256   24.9977 H   0  0  0  0  0  0
  -22.8559  -31.2261   21.3007 H   0  0  0  0  0  0
  -23.3779  -35.9428   23.3255 H   0  0  0  0  0  0
  -24.3563  -36.8860   22.2087 H   0  0  0  0  0  0
  -23.7219  -37.6276   23.6782 H   0  0  0  0  0  0
  -26.3199  -31.2029   20.6257 H   0  0  0  0  0  0
  -26.9585  -30.5625   22.0890 H   0  0  0  0  0  0
  -28.1829  -28.2958   21.3123 H   0  0  0  0  0  0
  -25.8122  -25.5562   19.0204 H   0  0  0  0  0  0
  -24.0374  -27.1841   18.9409 H   0  0  0  0  0  0
  -23.9701  -30.4254   19.3761 H   0  0  0  0  0  0
  -22.8853  -29.1445   19.8147 H   0  0  0  0  0  0
  -25.1356  -36.1619   25.0772 H   0  0  0  0  0  0
  -21.0059  -28.3424   24.1254 H   0  0  0  0  0  0
  -20.5666  -26.2420   23.3676 H   0  0  0  0  0  0
  -21.6666  -26.7371   22.1229 H   0  0  0  0  0  0
  -19.6936  -25.6257   21.1303 H   0  0  0  0  0  0
  -19.6727  -27.3132   20.6716 H   0  0  0  0  0  0
  -17.4235  -26.6693   21.4026 H   0  0  0  0  0  0
  -18.0351  -26.0115   22.9039 H   0  0  0  0  0  0
  -19.7992  -30.7356   24.2143 H   0  0  0  0  0  0
  -17.5057  -31.6280   24.5167 H   0  0  0  0  0  0
  -15.5394  -30.2963   23.7727 H   0  0  0  0  0  0
  -15.8724  -28.0805   22.7126 H   0  0  0  0  0  0
  -24.5861  -30.7149   25.7581 H   0  0  0  0  0  0
  -24.8811  -32.3059   26.4485 H   0  0  0  0  0  0
  -25.7810  -30.9140   27.0204 H   0  0  0  0  0  0
  -26.3295  -29.6392   24.1654 H   0  0  0  0  0  0
  -27.3946  -29.7301   25.5437 H   0  0  0  0  0  0
  -27.9287  -30.3910   24.0219 H   0  0  0  0  0  0
  -27.2555  -33.3753   26.1842 H   0  0  0  0  0  0
  -28.3964  -32.6807   25.0419 H   0  0  0  0  0  0
  -28.0568  -31.8665   26.5619 H   0  0  0  0  0  0
  -28.2537  -38.0051   24.7525 H   0  0  0  0  0  0
  -28.1093  -36.2578   24.6279 H   0  0  0  0  0  0
  -27.2281  -37.1335   25.8869 H   0  0  0  0  0  0
  -20.9779  -29.8664   21.6473 H   0  0  0  0  0  0
  -26.0083  -38.2680   24.1439 H   0  0  0  0  0  0
  -31.2713  -19.8860   18.9274 H   0  0  0  0  0  0
  -26.7343  -20.0133   21.5698 H   0  0  0  0  0  0
  -26.6853  -18.4792   22.4500 H   0  0  0  0  0  0
  -27.4243  -19.9044   23.1945 H   0  0  0  0  0  0
  -28.4721  -21.6728   18.9133 H   0  0  0  0  0  0
  -29.9053  -22.0851   19.7408 H   0  0  0  0  0  0
  -33.0890  -17.5475   23.2481 H   0  0  0  0  0  0
  -31.6423  -17.5267   24.3181 H   0  0  0  0  0  0
  -32.8514  -19.8206   22.8843 H   0  0  0  0  0  0
  -31.6296  -19.8822   24.1217 H   0  0  0  0  0  0
  -31.2962  -20.5493   21.5715 H   0  0  0  0  0  0
  -30.1323  -20.3092   22.6480 H   0  0  0  0  0  0
  -28.3453  -23.5298   21.5351 H   0  0  0  0  0  0
  -27.0430  -23.3712   20.4439 H   0  0  0  0  0  0
  -28.8324  -17.4084   20.2833 H   0  0  0  0  0  0
  1 25  1  0  0  0
  1 30  2  0  0  0
  1 83  1  0  0  0
  2  3  1  0  0  0
  2 25  1  0  0  0
  2 85  1  0  0  0
  2 86  1  0  0  0
  3  4  1  0  0  0
  3 87  1  0  0  0
  3 88  1  0  0  0
  4  5  1  0  0  0
  4 89  1  0  0  0
  4 90  1  0  0  0
  5  6  1  0  0  0
  5 26  1  0  0  0
  5 91  1  0  0  0
  6 25  1  0  0  0
  6 92  1  0  0  0
  6 93  1  0  0  0
  7  8  2  0  0  0
  7 26  1  0  0  0
  7 29  1  0  0  0
  8  9  1  0  0  0
  8 22  1  0  0  0
  9 10  1  0  0  0
  9 27  2  0  0  0
 10 11  2  0  0  0
 10 15  1  0  0  0
 11 12  1  0  0  0
 11 94  1  0  0  0
 12 13  2  0  0  0
 12 95  1  0  0  0
 13 14  1  0  0  0
 13 31  1  0  0  0
 14 15  2  0  0  0
 14 96  1  0  0  0
 15 97  1  0  0  0
 16 17  2  0  0  0
 16 21  1  0  0  0
 16 31  1  0  0  0
 17 18  1  0  0  0
 17 98  1  0  0  0
 18 19  2  0  0  0
 18 99  1  0  0  0
 19 20  1  0  0  0
 19 24  1  0  0  0
 20 21  2  0  0  0
 20100  1  0  0  0
 21 23  1  0  0  0
 22 28  1  0  0  0
 22 32  2  0  0  0
 26 27  1  0  0  0
 28101  1  0  0  0
 28102  1  0  0  0
 29103  1  0  0  0
 29104  1  0  0  0
 33 34  1  0  0  0
 33 66  1  0  0  0
 33 70  2  0  0  0
 34 36  1  0  0  0
 34 59  1  0  0  0
 34105  1  0  0  0
 35 44  2  0  0  0
 35 45  1  0  0  0
 35 68  1  0  0  0
 36 56  1  0  0  0
 36106  1  0  0  0
 37 39  1  0  0  0
 37 47  1  0  0  0
 37 66  1  0  0  0
 37107  1  0  0  0
 38 43  2  0  0  0
 38 46  1  0  0  0
 38 47  1  0  0  0
 39 64  1  0  0  0
 39 67  2  0  0  0
 40 52  1  0  0  0
 40 53  2  0  0  0
 40 58  1  0  0  0
 41108  1  0  0  0
 41109  1  0  0  0
 41110  1  0  0  0
 41 48  1  0  0  0
 42 43  1  0  0  0
 42 66  1  0  0  0
 42111  1  0  0  0
 42112  1  0  0  0
 43 44  1  0  0  0
 44113  1  0  0  0
 45 46  2  0  0  0
 45114  1  0  0  0
 46115  1  0  0  0
 47116  1  0  0  0
 47117  1  0  0  0
 48 56  1  0  0  0
 48 65  1  0  0  0
 48118  1  0  0  0
 49 50  1  0  0  0
 49 53  1  0  0  0
 49 64  1  0  0  0
 49119  1  0  0  0
 50 51  1  0  0  0
 50120  1  0  0  0
 50121  1  0  0  0
 51 52  1  0  0  0
 51122  1  0  0  0
 51123  1  0  0  0
 52124  1  0  0  0
 52125  1  0  0  0
 53 54  1  0  0  0
 54 55  2  0  0  0
 54126  1  0  0  0
 55 57  1  0  0  0
 55127  1  0  0  0
 56 69  2  0  0  0
 57 58  2  0  0  0
 57128  1  0  0  0
 58129  1  0  0  0
 59 60  1  0  0  0
 59 61  1  0  0  0
 59 62  1  0  0  0
 60130  1  0  0  0
 60131  1  0  0  0
 60132  1  0  0  0
 61133  1  0  0  0
 61134  1  0  0  0
 61135  1  0  0  0
 62136  1  0  0  0
 62137  1  0  0  0
 62138  1  0  0  0
 63 65  1  0  0  0
 63139  1  0  0  0
 63140  1  0  0  0
 63141  1  0  0  0
 64142  1  0  0  0
 65143  1  0  0  0
 68 81  1  0  0  0
 71 72  2  0  0  0
 71 73  1  0  0  0
 71144  1  0  0  0
 72 74  1  0  0  0
 72 77  1  0  0  0
 73 75  2  0  0  0
 73 84  1  0  0  0
 74 76  1  0  0  0
 74 82  2  0  0  0
 75 78  1  0  0  0
 75 82  1  0  0  0
 76145  1  0  0  0
 76146  1  0  0  0
 76147  1  0  0  0
 77 81  1  0  0  0
 77148  1  0  0  0
 77149  1  0  0  0
 78 79  1  0  0  0
 78150  1  0  0  0
 78151  1  0  0  0
 79 80  1  0  0  0
 79152  1  0  0  0
 79153  1  0  0  0
 80 83  1  0  0  0
 80154  1  0  0  0
 80155  1  0  0  0
 81156  1  0  0  0
 81157  1  0  0  0
 83158  1  0  0  0
M  ISO  4   1 100  68 101  81 101  83 100
M  END
> <chiral flag>
0

> <version>
0

> <s_m_source_file>
/data/baiqing/PycharmProjects/Reinvent-master-3.2/result/LINK_invent/BTK/process_docking_weight1_custom_sum_contain_oxygen_bond_distance_aromatic_linkinvent_7_9_3/rearranged_h_0029.sdf

> <i_m_source_file_index>
83

> <r_mmod_Potential_Energy-OPLS-2005>
10106.740234375

> <r_mmod_Stretch_Energy-OPLS-2005>
6337.1572265625

> <r_mmod_Bend_Energy-OPLS-2005>
743.983642578125

> <r_mmod_Torsional_Energy-OPLS-2005>
360.472259521484

> <r_mmod_Improper_Torsional_Energy-OPLS-2005>
35.4947471618652

> <r_mmod_Van_der_Waal_Energy-OPLS-2005>
2206.62646484375

> <r_mmod_Electrostatic_Energy-OPLS-2005>
-458.409454345703

> <r_mmod_Solvation_Energy-OPLS-2005>
-224.387161254883

> <b_mmod_Minimization_Converged-OPLS-2005>
0

> <r_mmod_RMS_Derivative-OPLS-2005>
1.85595297813416

$$$$
83
                    3D
 Structure written by MMmdl.
156164  0  0  1  0            999 V2000
  -30.5341  -14.9471   20.4804 C   0  0  0  0  0  0
  -30.4378  -12.5882   19.5331 C   0  0  0  0  0  0
  -29.5424  -12.5583   18.2723 C   0  0  0  0  0  0
  -28.0622  -12.3634   18.6528 C   0  0  0  0  0  0
  -27.6335  -13.2595   19.8457 C   0  0  2  0  0  0
  -28.6628  -13.2573   20.9991 C   0  0  0  0  0  0
  -25.2445  -13.8235   20.5691 C   0  0  0  0  0  0
  -24.1777  -13.0441   20.9199 C   0  0  0  0  0  0
  -24.6406  -11.6933   20.8723 C   0  0  0  0  0  0
  -23.9092  -10.4285   21.0363 C   0  0  0  0  0  0
  -24.3640   -9.4199   21.9132 C   0  0  0  0  0  0
  -23.6319   -8.2232   22.0705 C   0  0  0  0  0  0
  -22.4294   -8.0267   21.3500 C   0  0  0  0  0  0
  -21.9941   -9.0248   20.4606 C   0  0  0  0  0  0
  -22.7264  -10.2120   20.3011 C   0  0  0  0  0  0
  -21.6873   -6.0739   22.5276 C   0  0  0  0  0  0
  -21.4028   -6.5640   23.8207 C   0  0  0  0  0  0
  -21.3659   -5.6773   24.9163 C   0  0  0  0  0  0
  -21.6057   -4.3045   24.7201 C   0  0  0  0  0  0
  -21.8816   -3.8135   23.4326 C   0  0  0  0  0  0
  -21.9193   -4.6964   22.3382 C   0  0  0  0  0  0
  -22.7775  -13.5200   21.1848 C   0  0  0  0  0  0
  -22.1647   -4.2134   21.0970 F   0  0  0  0  0  0
  -21.5629   -3.4522   25.7715 F   0  0  0  0  0  0
  -29.9478  -13.6800   20.4306 N   0  0  0  0  0  0
  -26.2891  -12.9493   20.3205 N   0  0  0  0  0  0
  -25.9350  -11.6603   20.5664 N   0  0  0  0  0  0
  -22.0443  -12.8190   22.0440 N   0  0  0  0  0  0
  -25.4134  -15.1961   20.4122 N   0  0  0  0  0  0
  -31.7127  -15.0221   20.1195 O   0  0  0  0  0  0
  -21.6652   -6.8878   21.4227 O   0  0  0  0  0  0
  -22.3438  -14.5475   20.6644 O   0  0  0  0  0  0
  -24.6472  -31.8401   23.1897 C   0  0  0  0  0  0
  -25.9222  -32.4687   23.8312 C   0  0  1  0  0  0
  -27.2126  -27.1044   20.1857 C   0  0  0  0  0  0
  -25.5946  -33.8498   24.2196 N   0  0  0  0  0  0
  -23.4517  -30.4574   21.5376 C   0  0  2  0  0  0
  -24.9035  -28.8796   20.1139 C   0  0  0  0  0  0
  -22.7602  -29.4485   22.4886 C   0  0  0  0  0  0
  -18.0303  -28.1330   22.8464 C   0  0  0  0  0  0
  -24.1490  -36.7242   23.2647 C   0  0  0  0  0  0
  -26.0117  -30.7061   21.3939 C   0  0  0  0  0  0
  -26.0816  -29.3140   20.7367 C   0  0  0  0  0  0
  -27.2400  -28.4465   20.7465 C   0  0  0  0  0  0
  -26.0156  -26.7821   19.5106 C   0  0  0  0  0  0
  -24.8876  -27.6294   19.4769 C   0  0  0  0  0  0
  -23.6816  -29.7876   20.1559 C   0  0  0  0  0  0
  -25.4122  -36.3043   24.0330 C   0  0  1  0  0  0
  -20.5920  -28.3656   23.1232 C   0  0  2  0  0  0
  -20.6750  -26.9351   22.5396 C   0  0  0  0  0  0
  -19.5744  -26.6303   21.5187 C   0  0  0  0  0  0
  -18.1929  -26.7877   22.1589 C   0  0  0  0  0  0
  -19.1556  -28.8819   23.2832 C   0  0  0  0  0  0
  -18.9461  -30.1408   23.8864 C   0  0  0  0  0  0
  -17.6449  -30.6546   24.0524 C   0  0  0  0  0  0
  -25.9080  -34.9408   23.5069 C   0  0  0  0  0  0
  -16.5345  -29.9027   23.6315 C   0  0  0  0  0  0
  -16.7276  -28.6427   23.0383 C   0  0  0  0  0  0
  -26.4532  -31.6571   25.0767 C   0  0  0  0  0  0
  -25.3694  -31.3763   26.1453 C   0  0  0  0  0  0
  -27.0378  -30.2969   24.6351 C   0  0  0  0  0  0
  -27.6096  -32.4318   25.7538 C   0  0  0  0  0  0
  -27.5582  -37.1786   24.8457 C   0  0  0  0  0  0
  -21.4290  -29.2997   22.3656 N   0  0  0  0  0  0
  -26.4290  -37.3749   23.9412 N   0  0  0  0  0  0
  -24.7236  -31.0247   22.0959 N   0  0  0  0  0  0
  -23.4247  -28.8018   23.3045 O   0  0  0  0  0  0
  -28.2583  -26.1051   20.2536 O   0  0  0  0  0  0
  -26.5659  -34.8915   22.4660 O   0  0  0  0  0  0
  -23.5569  -32.1290   23.7080 O   0  0  0  0  0  0
  -28.6772  -20.2887   23.0681 C   0  0  0  0  0  0
  -29.3115  -20.4028   20.4092 C   0  0  0  0  0  0
  -28.6382  -21.5552   22.4293 C   0  0  0  0  0  0
  -29.0566  -19.0794   22.4315 C   0  0  0  0  0  0
  -28.9188  -21.7020   21.0410 C   0  0  0  0  0  0
  -29.4130  -19.0562   21.0577 C   0  0  0  0  0  0
  -28.3644  -22.7527   23.3239 C   0  0  0  0  0  0
  -29.1408  -17.8366   23.3024 C   0  0  0  0  0  0
  -29.0047  -23.2369   20.3781 C   0  0  0  0  0  0
  -30.0214  -17.6590   20.3780 C   0  0  0  0  0  0
  -27.9665  -24.5849   20.5444 C   0  0  0  0  0  0
  -29.7736  -16.1283   20.7376 N   0  0  0  0  0  0
  -31.4812  -12.7344   19.2465 H   0  0  0  0  0  0
  -30.4105  -11.6261   20.0474 H   0  0  0  0  0  0
  -29.8752  -11.7666   17.5969 H   0  0  0  0  0  0
  -29.6586  -13.4977   17.7270 H   0  0  0  0  0  0
  -27.9173  -11.3147   18.9046 H   0  0  0  0  0  0
  -27.4252  -12.5609   17.7893 H   0  0  0  0  0  0
  -27.6121  -14.2761   19.4535 H   0  0  0  0  0  0
  -28.7365  -12.2694   21.4582 H   0  0  0  0  0  0
  -28.3544  -13.9436   21.7885 H   0  0  0  0  0  0
  -25.2784   -9.5701   22.4702 H   0  0  0  0  0  0
  -24.0042   -7.4642   22.7447 H   0  0  0  0  0  0
  -21.0853   -8.8787   19.8949 H   0  0  0  0  0  0
  -22.3726  -10.9649   19.6119 H   0  0  0  0  0  0
  -21.2045   -7.6141   23.9717 H   0  0  0  0  0  0
  -21.1477   -6.0488   25.9063 H   0  0  0  0  0  0
  -22.0603   -2.7595   23.2817 H   0  0  0  0  0  0
  -22.4084  -11.9940   22.4952 H   0  0  0  0  0  0
  -21.1010  -13.1140   22.2537 H   0  0  0  0  0  0
  -24.6545  -15.8549   20.5397 H   0  0  0  0  0  0
  -26.2616  -15.6289   20.0679 H   0  0  0  0  0  0
  -26.7304  -32.5291   23.1053 H   0  0  0  0  0  0
  -25.0120  -33.9628   25.0357 H   0  0  0  0  0  0
  -22.7544  -31.2841   21.3851 H   0  0  0  0  0  0
  -23.3776  -35.9549   23.3289 H   0  0  0  0  0  0
  -24.3579  -36.8900   22.2070 H   0  0  0  0  0  0
  -23.7217  -37.6430   23.6680 H   0  0  0  0  0  0
  -26.1742  -31.4591   20.6217 H   0  0  0  0  0  0
  -26.8793  -30.7536   22.0405 H   0  0  0  0  0  0
  -28.1407  -28.7720   21.2472 H   0  0  0  0  0  0
  -25.9214  -25.8313   19.0113 H   0  0  0  0  0  0
  -23.9962  -27.2979   18.9611 H   0  0  0  0  0  0
  -23.8254  -30.5634   19.4031 H   0  0  0  0  0  0
  -22.7948  -29.2348   19.8402 H   0  0  0  0  0  0
  -25.1314  -36.1891   25.0822 H   0  0  0  0  0  0
  -20.9987  -28.3192   24.1361 H   0  0  0  0  0  0
  -20.5541  -26.2275   23.3605 H   0  0  0  0  0  0
  -21.6633  -26.7287   22.1267 H   0  0  0  0  0  0
  -19.6894  -25.6200   21.1239 H   0  0  0  0  0  0
  -19.6695  -27.3084   20.6701 H   0  0  0  0  0  0
  -17.4201  -26.6624   21.3991 H   0  0  0  0  0  0
  -18.0332  -26.0004   22.8968 H   0  0  0  0  0  0
  -19.7935  -30.7208   24.2253 H   0  0  0  0  0  0
  -17.5008  -31.6245   24.5081 H   0  0  0  0  0  0
  -15.5339  -30.2907   23.7645 H   0  0  0  0  0  0
  -15.8676  -28.0691   22.7174 H   0  0  0  0  0  0
  -24.5895  -30.7092   25.7759 H   0  0  0  0  0  0
  -24.8830  -32.2927   26.4818 H   0  0  0  0  0  0
  -25.7962  -30.8977   27.0274 H   0  0  0  0  0  0
  -26.2983  -29.6731   24.1315 H   0  0  0  0  0  0
  -27.3947  -29.7276   25.4940 H   0  0  0  0  0  0
  -27.8925  -30.4242   23.9701 H   0  0  0  0  0  0
  -27.2737  -33.3636   26.2111 H   0  0  0  0  0  0
  -28.3904  -32.6846   25.0344 H   0  0  0  0  0  0
  -28.0757  -31.8424   26.5454 H   0  0  0  0  0  0
  -28.2595  -38.0093   24.7536 H   0  0  0  0  0  0
  -28.1083  -36.2629   24.6228 H   0  0  0  0  0  0
  -27.2306  -37.1386   25.8863 H   0  0  0  0  0  0
  -20.9501  -29.8786   21.6888 H   0  0  0  0  0  0
  -26.0160  -38.2826   24.1407 H   0  0  0  0  0  0
  -28.4561  -20.2525   24.1282 H   0  0  0  0  0  0
  -29.6052  -20.4442   19.3684 H   0  0  0  0  0  0
  -28.4518  -22.4940   24.3825 H   0  0  0  0  0  0
  -27.3527  -23.1256   23.1726 H   0  0  0  0  0  0
  -29.0827  -23.5536   23.1422 H   0  0  0  0  0  0
  -28.8142  -18.0353   24.3254 H   0  0  0  0  0  0
  -30.1676  -17.4704   23.3646 H   0  0  0  0  0  0
  -28.4980  -17.0423   22.9266 H   0  0  0  0  0  0
  -29.1316  -23.0732   19.3084 H   0  0  0  0  0  0
  -29.9804  -23.5854   20.7172 H   0  0  0  0  0  0
  -31.1045  -17.7804   20.4205 H   0  0  0  0  0  0
  -29.7887  -17.7412   19.3179 H   0  0  0  0  0  0
  -27.6369  -24.6047   21.5791 H   0  0  0  0  0  0
  -27.0649  -24.3137   19.9999 H   0  0  0  0  0  0
  -28.8407  -15.9344   21.0700 H   0  0  0  0  0  0
  1 25  1  0  0  0
  1 30  2  0  0  0
  1 82  1  0  0  0
  2  3  1  0  0  0
  2 25  1  0  0  0
  2 83  1  0  0  0
  2 84  1  0  0  0
  3  4  1  0  0  0
  3 85  1  0  0  0
  3 86  1  0  0  0
  4  5  1  0  0  0
  4 87  1  0  0  0
  4 88  1  0  0  0
  5  6  1  0  0  0
  5 26  1  0  0  0
  5 89  1  0  0  0
  6 25  1  0  0  0
  6 90  1  0  0  0
  6 91  1  0  0  0
  7  8  2  0  0  0
  7 26  1  0  0  0
  7 29  1  0  0  0
  8  9  1  0  0  0
  8 22  1  0  0  0
  9 10  1  0  0  0
  9 27  2  0  0  0
 10 11  2  0  0  0
 10 15  1  0  0  0
 11 12  1  0  0  0
 11 92  1  0  0  0
 12 13  2  0  0  0
 12 93  1  0  0  0
 13 14  1  0  0  0
 13 31  1  0  0  0
 14 15  2  0  0  0
 14 94  1  0  0  0
 15 95  1  0  0  0
 16 17  2  0  0  0
 16 21  1  0  0  0
 16 31  1  0  0  0
 17 18  1  0  0  0
 17 96  1  0  0  0
 18 19  2  0  0  0
 18 97  1  0  0  0
 19 20  1  0  0  0
 19 24  1  0  0  0
 20 21  2  0  0  0
 20 98  1  0  0  0
 21 23  1  0  0  0
 22 28  1  0  0  0
 22 32  2  0  0  0
 26 27  1  0  0  0
 28 99  1  0  0  0
 28100  1  0  0  0
 29101  1  0  0  0
 29102  1  0  0  0
 33 34  1  0  0  0
 33 66  1  0  0  0
 33 70  2  0  0  0
 34 36  1  0  0  0
 34 59  1  0  0  0
 34103  1  0  0  0
 35 44  2  0  0  0
 35 45  1  0  0  0
 35 68  1  0  0  0
 36 56  1  0  0  0
 36104  1  0  0  0
 37 39  1  0  0  0
 37 47  1  0  0  0
 37 66  1  0  0  0
 37105  1  0  0  0
 38 43  2  0  0  0
 38 46  1  0  0  0
 38 47  1  0  0  0
 39 64  1  0  0  0
 39 67  2  0  0  0
 40 52  1  0  0  0
 40 53  2  0  0  0
 40 58  1  0  0  0
 41106  1  0  0  0
 41107  1  0  0  0
 41108  1  0  0  0
 41 48  1  0  0  0
 42 43  1  0  0  0
 42 66  1  0  0  0
 42109  1  0  0  0
 42110  1  0  0  0
 43 44  1  0  0  0
 44111  1  0  0  0
 45 46  2  0  0  0
 45112  1  0  0  0
 46113  1  0  0  0
 47114  1  0  0  0
 47115  1  0  0  0
 48 56  1  0  0  0
 48 65  1  0  0  0
 48116  1  0  0  0
 49 50  1  0  0  0
 49 53  1  0  0  0
 49 64  1  0  0  0
 49117  1  0  0  0
 50 51  1  0  0  0
 50118  1  0  0  0
 50119  1  0  0  0
 51 52  1  0  0  0
 51120  1  0  0  0
 51121  1  0  0  0
 52122  1  0  0  0
 52123  1  0  0  0
 53 54  1  0  0  0
 54 55  2  0  0  0
 54124  1  0  0  0
 55 57  1  0  0  0
 55125  1  0  0  0
 56 69  2  0  0  0
 57 58  2  0  0  0
 57126  1  0  0  0
 58127  1  0  0  0
 59 60  1  0  0  0
 59 61  1  0  0  0
 59 62  1  0  0  0
 60128  1  0  0  0
 60129  1  0  0  0
 60130  1  0  0  0
 61131  1  0  0  0
 61132  1  0  0  0
 61133  1  0  0  0
 62134  1  0  0  0
 62135  1  0  0  0
 62136  1  0  0  0
 63 65  1  0  0  0
 63137  1  0  0  0
 63138  1  0  0  0
 63139  1  0  0  0
 64140  1  0  0  0
 65141  1  0  0  0
 68 81  1  0  0  0
 71 73  2  0  0  0
 71 74  1  0  0  0
 71142  1  0  0  0
 72 75  2  0  0  0
 72 76  1  0  0  0
 72143  1  0  0  0
 73 75  1  0  0  0
 73 77  1  0  0  0
 74 76  2  0  0  0
 74 78  1  0  0  0
 75 79  1  0  0  0
 76 80  1  0  0  0
 77144  1  0  0  0
 77145  1  0  0  0
 77146  1  0  0  0
 78147  1  0  0  0
 78148  1  0  0  0
 78149  1  0  0  0
 79 81  1  0  0  0
 79150  1  0  0  0
 79151  1  0  0  0
 80 82  1  0  0  0
 80152  1  0  0  0
 80153  1  0  0  0
 81154  1  0  0  0
 81155  1  0  0  0
 82156  1  0  0  0
M  ISO  4   1 100  68 101  81 101  82 100
M  END
> <chiral flag>
0

> <version>
0

> <s_m_source_file>
/data/baiqing/PycharmProjects/Reinvent-master-3.2/result/LINK_invent/BTK/process_docking_weight1_custom_sum_contain_oxygen_bond_distance_aromatic_linkinvent_7_9_3/rearranged_h_0029.sdf

> <i_m_source_file_index>
84

> <r_mmod_Potential_Energy-OPLS-2005>
509.529602050781

> <r_mmod_Stretch_Energy-OPLS-2005>
295.934143066406

> <r_mmod_Bend_Energy-OPLS-2005>
270.226104736328

> <r_mmod_Torsional_Energy-OPLS-2005>
217.751098632812

> <r_mmod_Improper_Torsional_Energy-OPLS-2005>
6.31381607055664

> <r_mmod_Van_der_Waal_Energy-OPLS-2005>
132.742080688477

> <r_mmod_Electrostatic_Energy-OPLS-2005>
-408.626861572266

> <r_mmod_Solvation_Energy-OPLS-2005>
-208.144348144531

> <b_mmod_Minimization_Converged-OPLS-2005>
0

> <r_mmod_RMS_Derivative-OPLS-2005>
4.68671703338623

$$$$
84
                    3D
 Structure written by MMmdl.
153161  0  0  1  0            999 V2000
  -30.5393  -14.8464   20.4454 C   0  0  0  0  0  0
  -30.4495  -12.5178   19.4841 C   0  0  0  0  0  0
  -29.5222  -12.5325   18.2452 C   0  0  0  0  0  0
  -28.0491  -12.3360   18.6556 C   0  0  0  0  0  0
  -27.6429  -13.2349   19.8530 C   0  0  2  0  0  0
  -28.6878  -13.1748   20.9894 C   0  0  0  0  0  0
  -25.2499  -13.8183   20.5674 C   0  0  0  0  0  0
  -24.1795  -13.0426   20.9194 C   0  0  0  0  0  0
  -24.6392  -11.6906   20.8735 C   0  0  0  0  0  0
  -23.9067  -10.4283   21.0390 C   0  0  0  0  0  0
  -24.3617   -9.4199   21.9169 C   0  0  0  0  0  0
  -23.6295   -8.2235   22.0744 C   0  0  0  0  0  0
  -22.4278   -8.0269   21.3538 C   0  0  0  0  0  0
  -21.9910   -9.0238   20.4640 C   0  0  0  0  0  0
  -22.7236  -10.2119   20.3045 C   0  0  0  0  0  0
  -21.6853   -6.0731   22.5276 C   0  0  0  0  0  0
  -21.4012   -6.5633   23.8208 C   0  0  0  0  0  0
  -21.3662   -5.6786   24.9171 C   0  0  0  0  0  0
  -21.6048   -4.3049   24.7220 C   0  0  0  0  0  0
  -21.8819   -3.8140   23.4341 C   0  0  0  0  0  0
  -21.9189   -4.6958   22.3397 C   0  0  0  0  0  0
  -22.7817  -13.5204   21.1861 C   0  0  0  0  0  0
  -22.1659   -4.2142   21.0978 F   0  0  0  0  0  0
  -21.5633   -3.4536   25.7735 F   0  0  0  0  0  0
  -29.9821  -13.5761   20.4168 N   0  0  0  0  0  0
  -26.2937  -12.9398   20.3273 N   0  0  0  0  0  0
  -25.9330  -11.6535   20.5745 N   0  0  0  0  0  0
  -22.0466  -12.8195   22.0428 N   0  0  0  0  0  0
  -25.4161  -15.1905   20.4076 N   0  0  0  0  0  0
  -31.7095  -14.9925   20.0767 O   0  0  0  0  0  0
  -21.6638   -6.8871   21.4236 O   0  0  0  0  0  0
  -22.3487  -14.5498   20.6693 O   0  0  0  0  0  0
  -24.6411  -31.8484   23.1907 C   0  0  0  0  0  0
  -25.9198  -32.4714   23.8289 C   0  0  1  0  0  0
  -27.2223  -27.1829   20.1436 C   0  0  0  0  0  0
  -25.5967  -33.8518   24.2221 N   0  0  0  0  0  0
  -23.4422  -30.4692   21.5352 C   0  0  2  0  0  0
  -24.8919  -28.9049   20.1078 C   0  0  0  0  0  0
  -22.7557  -29.4566   22.4861 C   0  0  0  0  0  0
  -18.0303  -28.1395   22.8476 C   0  0  0  0  0  0
  -24.1494  -36.7268   23.2638 C   0  0  0  0  0  0
  -25.9947  -30.7362   21.3825 C   0  0  0  0  0  0
  -26.0664  -29.3515   20.7262 C   0  0  0  0  0  0
  -27.2323  -28.5054   20.7309 C   0  0  0  0  0  0
  -26.0229  -26.8294   19.4833 C   0  0  0  0  0  0
  -24.8803  -27.6551   19.4725 C   0  0  0  0  0  0
  -23.6670  -29.8026   20.1525 C   0  0  0  0  0  0
  -25.4116  -36.3040   24.0326 C   0  0  1  0  0  0
  -20.5914  -28.3725   23.1239 C   0  0  2  0  0  0
  -20.6798  -26.9429   22.5407 C   0  0  0  0  0  0
  -19.5768  -26.6381   21.5220 C   0  0  0  0  0  0
  -18.1947  -26.7933   22.1626 C   0  0  0  0  0  0
  -19.1558  -28.8876   23.2853 C   0  0  0  0  0  0
  -18.9475  -30.1470   23.8880 C   0  0  0  0  0  0
  -17.6473  -30.6592   24.0555 C   0  0  0  0  0  0
  -25.9071  -34.9416   23.5078 C   0  0  0  0  0  0
  -16.5363  -29.9088   23.6327 C   0  0  0  0  0  0
  -16.7288  -28.6506   23.0349 C   0  0  0  0  0  0
  -26.4522  -31.6563   25.0716 C   0  0  0  0  0  0
  -25.3716  -31.3753   26.1423 C   0  0  0  0  0  0
  -27.0387  -30.2968   24.6262 C   0  0  0  0  0  0
  -27.6059  -32.4315   25.7507 C   0  0  0  0  0  0
  -27.5575  -37.1783   24.8454 C   0  0  0  0  0  0
  -21.4251  -29.3057   22.3615 N   0  0  0  0  0  0
  -26.4275  -37.3755   23.9414 N   0  0  0  0  0  0
  -24.7121  -31.0382   22.0918 N   0  0  0  0  0  0
  -23.4222  -28.8113   23.2996 O   0  0  0  0  0  0
  -28.2859  -26.2242   20.2274 O   0  0  0  0  0  0
  -26.5639  -34.8906   22.4644 O   0  0  0  0  0  0
  -23.5542  -32.1340   23.7156 O   0  0  0  0  0  0
  -30.3999  -18.2744   19.7474 C   0  0  0  0  0  0
  -28.3940  -19.5726   21.1693 C   0  0  0  0  0  0
  -30.1376  -19.6987   19.5659 C   0  0  0  0  0  0
  -29.1012  -20.4200   20.2635 C   0  0  0  0  0  0
  -29.6411  -17.4256   20.6192 C   0  0  0  0  0  0
  -28.6392  -18.1594   21.3339 C   0  0  0  0  0  0
  -30.9543  -20.4453   18.5277 C   0  0  0  0  0  0
  -28.5314  -21.9034   19.8618 C   0  0  0  0  0  0
  -28.9400  -23.4127   20.4099 C   0  0  0  0  0  0
  -28.0264  -24.7309   19.9629 C   0  0  0  0  0  0
  -29.7017  -15.9180   20.7801 N   0  0  0  0  0  0
  -27.6153  -17.2926   22.4236 Cl  0  0  0  0  0  0
  -31.4863  -12.6711   19.1798 H   0  0  0  0  0  0
  -30.4258  -11.5413   19.9705 H   0  0  0  0  0  0
  -29.8224  -11.7570   17.5389 H   0  0  0  0  0  0
  -29.6294  -13.4830   17.7202 H   0  0  0  0  0  0
  -27.9186  -11.2868   18.9227 H   0  0  0  0  0  0
  -27.3900  -12.5157   17.8052 H   0  0  0  0  0  0
  -27.6328  -14.2565   19.4711 H   0  0  0  0  0  0
  -28.7459  -12.1682   21.4058 H   0  0  0  0  0  0
  -28.4025  -13.8274   21.8156 H   0  0  0  0  0  0
  -25.2758   -9.5683   22.4746 H   0  0  0  0  0  0
  -24.0004   -7.4627   22.7462 H   0  0  0  0  0  0
  -21.0841   -8.8745   19.8953 H   0  0  0  0  0  0
  -22.3676  -10.9649   19.6158 H   0  0  0  0  0  0
  -21.2007   -7.6143   23.9712 H   0  0  0  0  0  0
  -21.1491   -6.0518   25.9077 H   0  0  0  0  0  0
  -22.0601   -2.7602   23.2839 H   0  0  0  0  0  0
  -22.4100  -11.9875   22.4834 H   0  0  0  0  0  0
  -21.1076  -13.1205   22.2629 H   0  0  0  0  0  0
  -24.6532  -15.8442   20.5451 H   0  0  0  0  0  0
  -26.2691  -15.6369   20.0989 H   0  0  0  0  0  0
  -26.7272  -32.5335   23.1029 H   0  0  0  0  0  0
  -25.0114  -33.9637   25.0367 H   0  0  0  0  0  0
  -22.7422  -31.2939   21.3843 H   0  0  0  0  0  0
  -23.3764  -35.9589   23.3259 H   0  0  0  0  0  0
  -24.3598  -36.8937   22.2062 H   0  0  0  0  0  0
  -23.7243  -37.6454   23.6693 H   0  0  0  0  0  0
  -26.1437  -31.4889   20.6069 H   0  0  0  0  0  0
  -26.8686  -30.7866   22.0209 H   0  0  0  0  0  0
  -28.1245  -28.8418   21.2406 H   0  0  0  0  0  0
  -25.9301  -25.8759   18.9856 H   0  0  0  0  0  0
  -23.9854  -27.3076   18.9751 H   0  0  0  0  0  0
  -23.8010  -30.5792   19.3981 H   0  0  0  0  0  0
  -22.7837  -29.2434   19.8405 H   0  0  0  0  0  0
  -25.1296  -36.1868   25.0820 H   0  0  0  0  0  0
  -21.0002  -28.3317   24.1362 H   0  0  0  0  0  0
  -20.5713  -26.2334   23.3625 H   0  0  0  0  0  0
  -21.6662  -26.7456   22.1189 H   0  0  0  0  0  0
  -19.6930  -25.6289   21.1259 H   0  0  0  0  0  0
  -19.6704  -27.3181   20.6742 H   0  0  0  0  0  0
  -17.4223  -26.6678   21.4021 H   0  0  0  0  0  0
  -18.0334  -26.0081   22.9027 H   0  0  0  0  0  0
  -19.7953  -30.7285   24.2248 H   0  0  0  0  0  0
  -17.5030  -31.6267   24.5165 H   0  0  0  0  0  0
  -15.5365  -30.2988   23.7662 H   0  0  0  0  0  0
  -15.8686  -28.0824   22.7073 H   0  0  0  0  0  0
  -24.5896  -30.7093   25.7757 H   0  0  0  0  0  0
  -24.8903  -32.2939   26.4793 H   0  0  0  0  0  0
  -25.8011  -30.8973   27.0237 H   0  0  0  0  0  0
  -26.2999  -29.6694   24.1263 H   0  0  0  0  0  0
  -27.4020  -29.7258   25.4818 H   0  0  0  0  0  0
  -27.8890  -30.4226   23.9556 H   0  0  0  0  0  0
  -27.2654  -33.3627   26.2044 H   0  0  0  0  0  0
  -28.3894  -32.6854   25.0355 H   0  0  0  0  0  0
  -28.0689  -31.8463   26.5463 H   0  0  0  0  0  0
  -28.2556  -38.0114   24.7537 H   0  0  0  0  0  0
  -28.1108  -36.2650   24.6221 H   0  0  0  0  0  0
  -27.2301  -37.1352   25.8855 H   0  0  0  0  0  0
  -20.9462  -29.8787   21.6808 H   0  0  0  0  0  0
  -26.0143  -38.2817   24.1439 H   0  0  0  0  0  0
  -31.1734  -17.8107   19.1507 H   0  0  0  0  0  0
  -27.5662  -19.9982   21.7182 H   0  0  0  0  0  0
  -31.7979  -19.8526   18.1709 H   0  0  0  0  0  0
  -31.3480  -21.3736   18.9430 H   0  0  0  0  0  0
  -30.3339  -20.6947   17.6669 H   0  0  0  0  0  0
  -27.4574  -21.8254   20.0330 H   0  0  0  0  0  0
  -28.6047  -21.9541   18.7757 H   0  0  0  0  0  0
  -29.9753  -23.6014   20.1228 H   0  0  0  0  0  0
  -28.9451  -23.3789   21.4992 H   0  0  0  0  0  0
  -27.0397  -24.5149   20.3748 H   0  0  0  0  0  0
  -27.9078  -24.6555   18.8814 H   0  0  0  0  0  0
  -28.8560  -15.5689   21.2056 H   0  0  0  0  0  0
  1 25  1  0  0  0
  1 30  2  0  0  0
  1 81  1  0  0  0
  2  3  1  0  0  0
  2 25  1  0  0  0
  2 83  1  0  0  0
  2 84  1  0  0  0
  3  4  1  0  0  0
  3 85  1  0  0  0
  3 86  1  0  0  0
  4  5  1  0  0  0
  4 87  1  0  0  0
  4 88  1  0  0  0
  5  6  1  0  0  0
  5 26  1  0  0  0
  5 89  1  0  0  0
  6 25  1  0  0  0
  6 90  1  0  0  0
  6 91  1  0  0  0
  7  8  2  0  0  0
  7 26  1  0  0  0
  7 29  1  0  0  0
  8  9  1  0  0  0
  8 22  1  0  0  0
  9 10  1  0  0  0
  9 27  2  0  0  0
 10 11  2  0  0  0
 10 15  1  0  0  0
 11 12  1  0  0  0
 11 92  1  0  0  0
 12 13  2  0  0  0
 12 93  1  0  0  0
 13 14  1  0  0  0
 13 31  1  0  0  0
 14 15  2  0  0  0
 14 94  1  0  0  0
 15 95  1  0  0  0
 16 17  2  0  0  0
 16 21  1  0  0  0
 16 31  1  0  0  0
 17 18  1  0  0  0
 17 96  1  0  0  0
 18 19  2  0  0  0
 18 97  1  0  0  0
 19 20  1  0  0  0
 19 24  1  0  0  0
 20 21  2  0  0  0
 20 98  1  0  0  0
 21 23  1  0  0  0
 22 28  1  0  0  0
 22 32  2  0  0  0
 26 27  1  0  0  0
 28 99  1  0  0  0
 28100  1  0  0  0
 29101  1  0  0  0
 29102  1  0  0  0
 33 34  1  0  0  0
 33 66  1  0  0  0
 33 70  2  0  0  0
 34 36  1  0  0  0
 34 59  1  0  0  0
 34103  1  0  0  0
 35 44  2  0  0  0
 35 45  1  0  0  0
 35 68  1  0  0  0
 36 56  1  0  0  0
 36104  1  0  0  0
 37 39  1  0  0  0
 37 47  1  0  0  0
 37 66  1  0  0  0
 37105  1  0  0  0
 38 43  2  0  0  0
 38 46  1  0  0  0
 38 47  1  0  0  0
 39 64  1  0  0  0
 39 67  2  0  0  0
 40 52  1  0  0  0
 40 53  2  0  0  0
 40 58  1  0  0  0
 41106  1  0  0  0
 41107  1  0  0  0
 41108  1  0  0  0
 41 48  1  0  0  0
 42 43  1  0  0  0
 42 66  1  0  0  0
 42109  1  0  0  0
 42110  1  0  0  0
 43 44  1  0  0  0
 44111  1  0  0  0
 45 46  2  0  0  0
 45112  1  0  0  0
 46113  1  0  0  0
 47114  1  0  0  0
 47115  1  0  0  0
 48 56  1  0  0  0
 48 65  1  0  0  0
 48116  1  0  0  0
 49 50  1  0  0  0
 49 53  1  0  0  0
 49 64  1  0  0  0
 49117  1  0  0  0
 50 51  1  0  0  0
 50118  1  0  0  0
 50119  1  0  0  0
 51 52  1  0  0  0
 51120  1  0  0  0
 51121  1  0  0  0
 52122  1  0  0  0
 52123  1  0  0  0
 53 54  1  0  0  0
 54 55  2  0  0  0
 54124  1  0  0  0
 55 57  1  0  0  0
 55125  1  0  0  0
 56 69  2  0  0  0
 57 58  2  0  0  0
 57126  1  0  0  0
 58127  1  0  0  0
 59 60  1  0  0  0
 59 61  1  0  0  0
 59 62  1  0  0  0
 60128  1  0  0  0
 60129  1  0  0  0
 60130  1  0  0  0
 61131  1  0  0  0
 61132  1  0  0  0
 61133  1  0  0  0
 62134  1  0  0  0
 62135  1  0  0  0
 62136  1  0  0  0
 63 65  1  0  0  0
 63137  1  0  0  0
 63138  1  0  0  0
 63139  1  0  0  0
 64140  1  0  0  0
 65141  1  0  0  0
 68 80  1  0  0  0
 71 73  2  0  0  0
 71 75  1  0  0  0
 71142  1  0  0  0
 72 74  2  0  0  0
 72 76  1  0  0  0
 72143  1  0  0  0
 73 74  1  0  0  0
 73 77  1  0  0  0
 74 78  1  0  0  0
 75 76  2  0  0  0
 75 81  1  0  0  0
 76 82  1  0  0  0
 77144  1  0  0  0
 77145  1  0  0  0
 77146  1  0  0  0
 78 79  1  0  0  0
 78147  1  0  0  0
 78148  1  0  0  0
 79 80  1  0  0  0
 79149  1  0  0  0
 79150  1  0  0  0
 80151  1  0  0  0
 80152  1  0  0  0
 81153  1  0  0  0
M  ISO  4   1 100  68 101  80 101  81 100
M  END
> <chiral flag>
0

> <version>
0

> <s_m_source_file>
/data/baiqing/PycharmProjects/Reinvent-master-3.2/result/LINK_invent/BTK/process_docking_weight1_custom_sum_contain_oxygen_bond_distance_aromatic_linkinvent_7_9_3/rearranged_h_0029.sdf

> <i_m_source_file_index>
85

> <r_mmod_Potential_Energy-OPLS-2005>
321.187286376953

> <r_mmod_Stretch_Energy-OPLS-2005>
186.123046875

> <r_mmod_Bend_Energy-OPLS-2005>
237.920974731445

> <r_mmod_Torsional_Energy-OPLS-2005>
218.845367431641

> <r_mmod_Improper_Torsional_Energy-OPLS-2005>
5.68469333648682

> <r_mmod_Van_der_Waal_Energy-OPLS-2005>
131.009506225586

> <r_mmod_Electrostatic_Energy-OPLS-2005>
-398.998657226562

> <r_mmod_Solvation_Energy-OPLS-2005>
-199.488006591797

> <b_mmod_Minimization_Converged-OPLS-2005>
0

> <r_mmod_RMS_Derivative-OPLS-2005>
1.26475822925568

$$$$
85
                    3D
 Structure written by MMmdl.
156164  0  0  1  0            999 V2000
  -30.6868  -14.5382   20.4954 C   0  0  0  0  0  0
  -30.4244  -12.3245   19.4496 C   0  0  0  0  0  0
  -29.5049  -12.4896   18.2209 C   0  0  0  0  0  0
  -28.0247  -12.3539   18.6283 C   0  0  0  0  0  0
  -27.6598  -13.2144   19.8687 C   0  0  2  0  0  0
  -28.7039  -13.0504   20.9988 C   0  0  0  0  0  0
  -25.2583  -13.8172   20.5685 C   0  0  0  0  0  0
  -24.1844  -13.0447   20.9188 C   0  0  0  0  0  0
  -24.6401  -11.6915   20.8741 C   0  0  0  0  0  0
  -23.9077  -10.4296   21.0405 C   0  0  0  0  0  0
  -24.3623   -9.4213   21.9187 C   0  0  0  0  0  0
  -23.6294   -8.2254   22.0764 C   0  0  0  0  0  0
  -22.4281   -8.0285   21.3547 C   0  0  0  0  0  0
  -21.9915   -9.0265   20.4653 C   0  0  0  0  0  0
  -22.7248  -10.2142   20.3059 C   0  0  0  0  0  0
  -21.6857   -6.0743   22.5284 C   0  0  0  0  0  0
  -21.4008   -6.5640   23.8218 C   0  0  0  0  0  0
  -21.3653   -5.6792   24.9180 C   0  0  0  0  0  0
  -21.6051   -4.3057   24.7227 C   0  0  0  0  0  0
  -21.8818   -3.8151   23.4342 C   0  0  0  0  0  0
  -21.9188   -4.6972   22.3401 C   0  0  0  0  0  0
  -22.7862  -13.5243   21.1844 C   0  0  0  0  0  0
  -22.1663   -4.2153   21.0982 F   0  0  0  0  0  0
  -21.5626   -3.4537   25.7737 F   0  0  0  0  0  0
  -30.0316  -13.3440   20.4382 N   0  0  0  0  0  0
  -26.3026  -12.9355   20.3350 N   0  0  0  0  0  0
  -25.9330  -11.6517   20.5773 N   0  0  0  0  0  0
  -22.0500  -12.8237   22.0392 N   0  0  0  0  0  0
  -25.4284  -15.1893   20.4081 N   0  0  0  0  0  0
  -31.8470  -14.6703   20.1001 O   0  0  0  0  0  0
  -21.6635   -6.8886   21.4249 O   0  0  0  0  0  0
  -22.3550  -14.5556   20.6691 O   0  0  0  0  0  0
  -24.6179  -31.8669   23.2081 C   0  0  0  0  0  0
  -25.9069  -32.4821   23.8377 C   0  0  1  0  0  0
  -27.2270  -27.3864   20.0985 C   0  0  0  0  0  0
  -25.5893  -33.8613   24.2306 N   0  0  0  0  0  0
  -23.4081  -30.4909   21.5510 C   0  0  2  0  0  0
  -24.8521  -28.9568   20.1120 C   0  0  0  0  0  0
  -22.7439  -29.4647   22.4976 C   0  0  0  0  0  0
  -18.0281  -28.1367   22.8487 C   0  0  0  0  0  0
  -24.1486  -36.7310   23.2636 C   0  0  0  0  0  0
  -25.9413  -30.8155   21.3715 C   0  0  0  0  0  0
  -26.0177  -29.4486   20.7133 C   0  0  0  0  0  0
  -27.2060  -28.6723   20.7014 C   0  0  0  0  0  0
  -26.0393  -26.9299   19.4771 C   0  0  0  0  0  0
  -24.8611  -27.6991   19.4883 C   0  0  0  0  0  0
  -23.6168  -29.8288   20.1646 C   0  0  0  0  0  0
  -25.4110  -36.3100   24.0322 C   0  0  1  0  0  0
  -20.5870  -28.3670   23.1298 C   0  0  2  0  0  0
  -20.6772  -26.9405   22.5404 C   0  0  0  0  0  0
  -19.5747  -26.6377   21.5202 C   0  0  0  0  0  0
  -18.1924  -26.7918   22.1609 C   0  0  0  0  0  0
  -19.1528  -28.8827   23.2896 C   0  0  0  0  0  0
  -18.9468  -30.1433   23.8908 C   0  0  0  0  0  0
  -17.6473  -30.6583   24.0547 C   0  0  0  0  0  0
  -25.9035  -34.9473   23.5126 C   0  0  0  0  0  0
  -16.5361  -29.9084   23.6322 C   0  0  0  0  0  0
  -16.7271  -28.6492   23.0350 C   0  0  0  0  0  0
  -26.4478  -31.6614   25.0740 C   0  0  0  0  0  0
  -25.3722  -31.3716   26.1476 C   0  0  0  0  0  0
  -27.0317  -30.3048   24.6142 C   0  0  0  0  0  0
  -27.6044  -32.4351   25.7504 C   0  0  0  0  0  0
  -27.5599  -37.1801   24.8455 C   0  0  0  0  0  0
  -21.4159  -29.3041   22.3715 N   0  0  0  0  0  0
  -26.4299  -37.3788   23.9414 N   0  0  0  0  0  0
  -24.6741  -31.0715   22.1018 N   0  0  0  0  0  0
  -23.4187  -28.8191   23.3038 O   0  0  0  0  0  0
  -28.3776  -26.6026   20.1395 O   0  0  0  0  0  0
  -26.5603  -34.8927   22.4698 O   0  0  0  0  0  0
  -23.5364  -32.1457   23.7444 O   0  0  0  0  0  0
  -29.0731  -20.5691   20.5390 C   0  0  0  0  0  0
  -29.4252  -21.7560   21.1513 C   0  0  0  0  0  0
  -28.7241  -21.0248   19.2367 C   0  0  0  0  0  0
  -29.9433  -21.9916   22.5337 C   0  0  0  0  0  0
  -28.9750  -19.1343   21.0920 C   0  0  0  0  0  0
  -30.2346  -18.2202   20.9514 C   0  0  0  0  0  0
  -29.3908  -24.2739   20.4358 C   0  0  0  0  0  0
  -30.0943  -16.9453   20.0560 C   0  0  0  0  0  0
  -28.2297  -25.1719   19.9069 C   0  0  0  0  0  0
  -28.7955  -22.3342   19.0574 N   0  0  0  0  0  0
  -29.1902  -22.8139   20.2600 N   0  0  0  0  0  0
  -29.9172  -15.6290   20.7329 N   0  0  0  0  0  0
  -28.2030  -19.9894   17.9608 Cl  0  0  0  0  0  0
  -31.4707  -12.4095   19.1524 H   0  0  0  0  0  0
  -30.3182  -11.3274   19.8788 H   0  0  0  0  0  0
  -29.7542  -11.7444   17.4645 H   0  0  0  0  0  0
  -29.6713  -13.4631   17.7567 H   0  0  0  0  0  0
  -27.8387  -11.3002   18.8415 H   0  0  0  0  0  0
  -27.3779  -12.6105   17.7887 H   0  0  0  0  0  0
  -27.6879  -14.2537   19.5412 H   0  0  0  0  0  0
  -28.6861  -12.0327   21.3905 H   0  0  0  0  0  0
  -28.4719  -13.6998   21.8433 H   0  0  0  0  0  0
  -25.2770   -9.5680   22.4762 H   0  0  0  0  0  0
  -23.9999   -7.4643   22.7476 H   0  0  0  0  0  0
  -21.0855   -8.8789   19.8951 H   0  0  0  0  0  0
  -22.3716  -10.9684   19.6162 H   0  0  0  0  0  0
  -21.2002   -7.6151   23.9722 H   0  0  0  0  0  0
  -21.1478   -6.0521   25.9081 H   0  0  0  0  0  0
  -22.0602   -2.7615   23.2845 H   0  0  0  0  0  0
  -22.4102  -11.9887   22.4781 H   0  0  0  0  0  0
  -21.1117  -13.1268   22.2597 H   0  0  0  0  0  0
  -24.6586  -15.8410   20.5084 H   0  0  0  0  0  0
  -26.2750  -15.6290   20.0716 H   0  0  0  0  0  0
  -26.7152  -32.5510   23.1136 H   0  0  0  0  0  0
  -25.0051  -33.9764   25.0451 H   0  0  0  0  0  0
  -22.6979  -31.3079   21.4153 H   0  0  0  0  0  0
  -23.3758  -35.9643   23.3283 H   0  0  0  0  0  0
  -24.3584  -36.8938   22.2055 H   0  0  0  0  0  0
  -23.7218  -37.6501   23.6674 H   0  0  0  0  0  0
  -26.0649  -31.5848   20.6073 H   0  0  0  0  0  0
  -26.8230  -30.8620   21.9992 H   0  0  0  0  0  0
  -28.1020  -29.0475   21.1763 H   0  0  0  0  0  0
  -25.9945  -25.9729   18.9785 H   0  0  0  0  0  0
  -23.9670  -27.3167   19.0131 H   0  0  0  0  0  0
  -23.7296  -30.6067   19.4086 H   0  0  0  0  0  0
  -22.7384  -29.2551   19.8658 H   0  0  0  0  0  0
  -25.1284  -36.1971   25.0812 H   0  0  0  0  0  0
  -20.9958  -28.3250   24.1415 H   0  0  0  0  0  0
  -20.5656  -26.2291   23.3599 H   0  0  0  0  0  0
  -21.6650  -26.7436   22.1211 H   0  0  0  0  0  0
  -19.6906  -25.6288   21.1232 H   0  0  0  0  0  0
  -19.6683  -27.3174   20.6724 H   0  0  0  0  0  0
  -17.4198  -26.6665   21.4010 H   0  0  0  0  0  0
  -18.0331  -26.0048   22.8988 H   0  0  0  0  0  0
  -19.7944  -30.7226   24.2298 H   0  0  0  0  0  0
  -17.5033  -31.6259   24.5153 H   0  0  0  0  0  0
  -15.5356  -30.2981   23.7641 H   0  0  0  0  0  0
  -15.8671  -28.0797   22.7078 H   0  0  0  0  0  0
  -24.5927  -30.7022   25.7813 H   0  0  0  0  0  0
  -24.8886  -32.2872   26.4904 H   0  0  0  0  0  0
  -25.8078  -30.8921   27.0250 H   0  0  0  0  0  0
  -26.2877  -29.6799   24.1200 H   0  0  0  0  0  0
  -27.4066  -29.7302   25.4615 H   0  0  0  0  0  0
  -27.8716  -30.4342   23.9311 H   0  0  0  0  0  0
  -27.2659  -33.3667   26.2055 H   0  0  0  0  0  0
  -28.3872  -32.6875   25.0339 H   0  0  0  0  0  0
  -28.0695  -31.8492   26.5445 H   0  0  0  0  0  0
  -28.2573  -38.0142   24.7576 H   0  0  0  0  0  0
  -28.1131  -36.2676   24.6198 H   0  0  0  0  0  0
  -27.2321  -37.1334   25.8852 H   0  0  0  0  0  0
  -20.9334  -29.8792   21.6952 H   0  0  0  0  0  0
  -26.0185  -38.2859   24.1465 H   0  0  0  0  0  0
  -30.1864  -21.0530   23.0310 H   0  0  0  0  0  0
  -29.2053  -22.5127   23.1444 H   0  0  0  0  0  0
  -30.8530  -22.5925   22.5069 H   0  0  0  0  0  0
  -28.1176  -18.6285   20.6469 H   0  0  0  0  0  0
  -28.7203  -19.1747   22.1509 H   0  0  0  0  0  0
  -30.5870  -17.9279   21.9416 H   0  0  0  0  0  0
  -31.0415  -18.8314   20.5447 H   0  0  0  0  0  0
  -29.5309  -24.4777   21.4957 H   0  0  0  0  0  0
  -30.3217  -24.5485   19.9425 H   0  0  0  0  0  0
  -30.9771  -16.9055   19.4143 H   0  0  0  0  0  0
  -29.2690  -17.0762   19.3555 H   0  0  0  0  0  0
  -27.3176  -24.8120   20.3843 H   0  0  0  0  0  0
  -28.1144  -25.0103   18.8340 H   0  0  0  0  0  0
  -28.9987  -15.4345   21.1025 H   0  0  0  0  0  0
  1 25  1  0  0  0
  1 30  2  0  0  0
  1 82  1  0  0  0
  2  3  1  0  0  0
  2 25  1  0  0  0
  2 84  1  0  0  0
  2 85  1  0  0  0
  3  4  1  0  0  0
  3 86  1  0  0  0
  3 87  1  0  0  0
  4  5  1  0  0  0
  4 88  1  0  0  0
  4 89  1  0  0  0
  5  6  1  0  0  0
  5 26  1  0  0  0
  5 90  1  0  0  0
  6 25  1  0  0  0
  6 91  1  0  0  0
  6 92  1  0  0  0
  7  8  2  0  0  0
  7 26  1  0  0  0
  7 29  1  0  0  0
  8  9  1  0  0  0
  8 22  1  0  0  0
  9 10  1  0  0  0
  9 27  2  0  0  0
 10 11  2  0  0  0
 10 15  1  0  0  0
 11 12  1  0  0  0
 11 93  1  0  0  0
 12 13  2  0  0  0
 12 94  1  0  0  0
 13 14  1  0  0  0
 13 31  1  0  0  0
 14 15  2  0  0  0
 14 95  1  0  0  0
 15 96  1  0  0  0
 16 17  2  0  0  0
 16 21  1  0  0  0
 16 31  1  0  0  0
 17 18  1  0  0  0
 17 97  1  0  0  0
 18 19  2  0  0  0
 18 98  1  0  0  0
 19 20  1  0  0  0
 19 24  1  0  0  0
 20 21  2  0  0  0
 20 99  1  0  0  0
 21 23  1  0  0  0
 22 28  1  0  0  0
 22 32  2  0  0  0
 26 27  1  0  0  0
 28100  1  0  0  0
 28101  1  0  0  0
 29102  1  0  0  0
 29103  1  0  0  0
 33 34  1  0  0  0
 33 66  1  0  0  0
 33 70  2  0  0  0
 34 36  1  0  0  0
 34 59  1  0  0  0
 34104  1  0  0  0
 35 44  2  0  0  0
 35 45  1  0  0  0
 35 68  1  0  0  0
 36 56  1  0  0  0
 36105  1  0  0  0
 37 39  1  0  0  0
 37 47  1  0  0  0
 37 66  1  0  0  0
 37106  1  0  0  0
 38 43  2  0  0  0
 38 46  1  0  0  0
 38 47  1  0  0  0
 39 64  1  0  0  0
 39 67  2  0  0  0
 40 52  1  0  0  0
 40 53  2  0  0  0
 40 58  1  0  0  0
 41107  1  0  0  0
 41108  1  0  0  0
 41109  1  0  0  0
 41 48  1  0  0  0
 42 43  1  0  0  0
 42 66  1  0  0  0
 42110  1  0  0  0
 42111  1  0  0  0
 43 44  1  0  0  0
 44112  1  0  0  0
 45 46  2  0  0  0
 45113  1  0  0  0
 46114  1  0  0  0
 47115  1  0  0  0
 47116  1  0  0  0
 48 56  1  0  0  0
 48 65  1  0  0  0
 48117  1  0  0  0
 49 50  1  0  0  0
 49 53  1  0  0  0
 49 64  1  0  0  0
 49118  1  0  0  0
 50 51  1  0  0  0
 50119  1  0  0  0
 50120  1  0  0  0
 51 52  1  0  0  0
 51121  1  0  0  0
 51122  1  0  0  0
 52123  1  0  0  0
 52124  1  0  0  0
 53 54  1  0  0  0
 54 55  2  0  0  0
 54125  1  0  0  0
 55 57  1  0  0  0
 55126  1  0  0  0
 56 69  2  0  0  0
 57 58  2  0  0  0
 57127  1  0  0  0
 58128  1  0  0  0
 59 60  1  0  0  0
 59 61  1  0  0  0
 59 62  1  0  0  0
 60129  1  0  0  0
 60130  1  0  0  0
 60131  1  0  0  0
 61132  1  0  0  0
 61133  1  0  0  0
 61134  1  0  0  0
 62135  1  0  0  0
 62136  1  0  0  0
 62137  1  0  0  0
 63 65  1  0  0  0
 63138  1  0  0  0
 63139  1  0  0  0
 63140  1  0  0  0
 64141  1  0  0  0
 65142  1  0  0  0
 68 79  1  0  0  0
 71 72  2  0  0  0
 71 73  1  0  0  0
 71 75  1  0  0  0
 72 74  1  0  0  0
 72 81  1  0  0  0
 73 80  2  0  0  0
 73 83  1  0  0  0
 74143  1  0  0  0
 74144  1  0  0  0
 74145  1  0  0  0
 75 76  1  0  0  0
 75146  1  0  0  0
 75147  1  0  0  0
 76 78  1  0  0  0
 76148  1  0  0  0
 76149  1  0  0  0
 77 79  1  0  0  0
 77 81  1  0  0  0
 77150  1  0  0  0
 77151  1  0  0  0
 78 82  1  0  0  0
 78152  1  0  0  0
 78153  1  0  0  0
 79154  1  0  0  0
 79155  1  0  0  0
 80 81  1  0  0  0
 82156  1  0  0  0
M  ISO  4   1 100  68 101  79 101  82 100
M  END
> <chiral flag>
0

> <version>
0

> <s_m_source_file>
/data/baiqing/PycharmProjects/Reinvent-master-3.2/result/LINK_invent/BTK/process_docking_weight1_custom_sum_contain_oxygen_bond_distance_aromatic_linkinvent_7_9_3/rearranged_h_0029.sdf

> <i_m_source_file_index>
86

> <r_mmod_Potential_Energy-OPLS-2005>
-22.4667186737061

> <r_mmod_Stretch_Energy-OPLS-2005>
48.0639801025391

> <r_mmod_Bend_Energy-OPLS-2005>
110.069763183594

> <r_mmod_Torsional_Energy-OPLS-2005>
245.120239257812

> <r_mmod_Improper_Torsional_Energy-OPLS-2005>
8.69881153106689

> <r_mmod_Van_der_Waal_Energy-OPLS-2005>
125.429443359375

> <r_mmod_Electrostatic_Energy-OPLS-2005>
-369.240539550781

> <r_mmod_Solvation_Energy-OPLS-2005>
-215.446655273438

> <b_mmod_Minimization_Converged-OPLS-2005>
0

> <r_mmod_RMS_Derivative-OPLS-2005>
2.45061731338501

$$$$
86
                    3D
 Structure written by MMmdl.
153161  0  0  1  0            999 V2000
  -30.4800  -15.1846   20.3796 C   0  0  0  0  0  0
  -30.4363  -12.7517   19.5200 C   0  0  0  0  0  0
  -29.5301  -12.5592   18.2798 C   0  0  0  0  0  0
  -28.0744  -12.3020   18.7066 C   0  0  0  0  0  0
  -27.6142  -13.2703   19.8258 C   0  0  2  0  0  0
  -28.6511  -13.4172   20.9599 C   0  0  0  0  0  0
  -25.2396  -13.8245   20.5748 C   0  0  0  0  0  0
  -24.1743  -13.0439   20.9261 C   0  0  0  0  0  0
  -24.6394  -11.6936   20.8766 C   0  0  0  0  0  0
  -23.9089  -10.4297   21.0407 C   0  0  0  0  0  0
  -24.3635   -9.4209   21.9183 C   0  0  0  0  0  0
  -23.6306   -8.2244   22.0752 C   0  0  0  0  0  0
  -22.4283   -8.0284   21.3544 C   0  0  0  0  0  0
  -21.9928   -9.0258   20.4645 C   0  0  0  0  0  0
  -22.7263  -10.2135   20.3054 C   0  0  0  0  0  0
  -21.6858   -6.0740   22.5280 C   0  0  0  0  0  0
  -21.4016   -6.5643   23.8213 C   0  0  0  0  0  0
  -21.3659   -5.6794   24.9176 C   0  0  0  0  0  0
  -21.6042   -4.3057   24.7227 C   0  0  0  0  0  0
  -21.8819   -3.8149   23.4347 C   0  0  0  0  0  0
  -21.9194   -4.6965   22.3403 C   0  0  0  0  0  0
  -22.7761  -13.5190   21.1913 C   0  0  0  0  0  0
  -22.1662   -4.2153   21.0979 F   0  0  0  0  0  0
  -21.5628   -3.4538   25.7739 F   0  0  0  0  0  0
  -29.8941  -13.8952   20.3356 N   0  0  0  0  0  0
  -26.2822  -12.9513   20.3229 N   0  0  0  0  0  0
  -25.9328  -11.6623   20.5730 N   0  0  0  0  0  0
  -22.0424  -12.8163   22.0465 N   0  0  0  0  0  0
  -25.4031  -15.1977   20.4181 N   0  0  0  0  0  0
  -31.6985  -15.1812   20.1600 O   0  0  0  0  0  0
  -21.6644   -6.8882   21.4240 O   0  0  0  0  0  0
  -22.3438  -14.5495   20.6761 O   0  0  0  0  0  0
  -24.6589  -31.8289   23.1757 C   0  0  0  0  0  0
  -25.9292  -32.4617   23.8197 C   0  0  1  0  0  0
  -27.2153  -26.9757   20.1728 C   0  0  0  0  0  0
  -25.5983  -33.8430   24.2105 N   0  0  0  0  0  0
  -23.4713  -30.4438   21.5241 C   0  0  2  0  0  0
  -24.9240  -28.8446   20.1096 C   0  0  0  0  0  0
  -22.7650  -29.4471   22.4796 C   0  0  0  0  0  0
  -18.0319  -28.1413   22.8475 C   0  0  0  0  0  0
  -24.1489  -36.7213   23.2644 C   0  0  0  0  0  0
  -26.0384  -30.6509   21.3995 C   0  0  0  0  0  0
  -26.1072  -29.2463   20.7426 C   0  0  0  0  0  0
  -27.2486  -28.3313   20.7541 C   0  0  0  0  0  0
  -26.0062  -26.7250   19.4824 C   0  0  0  0  0  0
  -24.8968  -27.6032   19.4592 C   0  0  0  0  0  0
  -23.7080  -29.7656   20.1477 C   0  0  0  0  0  0
  -25.4127  -36.2981   24.0305 C   0  0  1  0  0  0
  -20.5945  -28.3753   23.1199 C   0  0  2  0  0  0
  -20.6796  -26.9439   22.5405 C   0  0  0  0  0  0
  -19.5769  -26.6384   21.5217 C   0  0  0  0  0  0
  -18.1950  -26.7950   22.1624 C   0  0  0  0  0  0
  -19.1583  -28.8901   23.2826 C   0  0  0  0  0  0
  -18.9495  -30.1492   23.8859 C   0  0  0  0  0  0
  -17.6490  -30.6603   24.0559 C   0  0  0  0  0  0
  -25.9096  -34.9365   23.5020 C   0  0  0  0  0  0
  -16.5378  -29.9095   23.6346 C   0  0  0  0  0  0
  -16.7303  -28.6514   23.0365 C   0  0  0  0  0  0
  -26.4558  -31.6544   25.0705 C   0  0  0  0  0  0
  -25.3702  -31.3783   26.1373 C   0  0  0  0  0  0
  -27.0444  -30.2917   24.6401 C   0  0  0  0  0  0
  -27.6058  -32.4345   25.7504 C   0  0  0  0  0  0
  -27.5571  -37.1753   24.8461 C   0  0  0  0  0  0
  -21.4323  -29.3049   22.3548 N   0  0  0  0  0  0
  -26.4267  -37.3721   23.9426 N   0  0  0  0  0  0
  -24.7440  -30.9999   22.0871 N   0  0  0  0  0  0
  -23.4218  -28.8028   23.3013 O   0  0  0  0  0  0
  -28.2013  -25.8700   20.2660 O   0  0  0  0  0  0
  -26.5692  -34.8896   22.4609 O   0  0  0  0  0  0
  -23.5668  -32.1231   23.6882 O   0  0  0  0  0  0
  -28.2602  -20.1616   20.8520 C   0  0  0  0  0  0
  -30.1862  -20.7814   19.7667 C   0  0  0  0  0  0
  -29.4885  -19.6191   20.3091 C   0  0  0  0  0  0
  -27.8059  -21.5840   20.8249 C   0  0  0  0  0  0
  -29.7648  -22.2083   19.7210 C   0  0  0  0  0  0
  -28.5224  -22.7416   20.2575 C   0  0  0  0  0  0
  -30.1976  -18.0314   20.3399 C   0  0  0  0  0  0
  -27.8159  -24.3153   20.0025 C   0  0  0  0  0  0
  -26.4336  -21.8673   21.4342 C   0  0  0  0  0  0
  -30.6874  -23.2121   19.0327 C   0  0  0  0  0  0
  -29.7449  -16.4562   20.4617 N   0  0  0  0  0  0
  -26.5527  -22.7305   22.4433 F   0  0  0  0  0  0
  -25.8230  -20.7722   21.8880 F   0  0  0  0  0  0
  -31.8230  -22.6593   18.6040 F   0  0  0  0  0  0
  -30.0692  -23.7468   17.9796 F   0  0  0  0  0  0
  -31.0037  -24.1891   19.8828 F   0  0  0  0  0  0
  -31.4603  -12.9373   19.1932 H   0  0  0  0  0  0
  -30.4803  -11.8374   20.1140 H   0  0  0  0  0  0
  -29.8936  -11.7327   17.6678 H   0  0  0  0  0  0
  -29.5765  -13.4503   17.6520 H   0  0  0  0  0  0
  -28.0160  -11.2740   19.0664 H   0  0  0  0  0  0
  -27.4065  -12.3630   17.8467 H   0  0  0  0  0  0
  -27.5393  -14.2445   19.3415 H   0  0  0  0  0  0
  -28.7990  -12.4763   21.4918 H   0  0  0  0  0  0
  -28.3063  -14.1424   21.6987 H   0  0  0  0  0  0
  -25.2776   -9.5684   22.4766 H   0  0  0  0  0  0
  -24.0015   -7.4631   22.7467 H   0  0  0  0  0  0
  -21.0863   -8.8778   19.8945 H   0  0  0  0  0  0
  -22.3719  -10.9675   19.6165 H   0  0  0  0  0  0
  -21.2007   -7.6153   23.9720 H   0  0  0  0  0  0
  -21.1479   -6.0524   25.9080 H   0  0  0  0  0  0
  -22.0597   -2.7612   23.2846 H   0  0  0  0  0  0
  -22.4063  -11.9830   22.4845 H   0  0  0  0  0  0
  -21.1032  -13.1154   22.2672 H   0  0  0  0  0  0
  -24.6318  -15.8464   20.5325 H   0  0  0  0  0  0
  -26.2415  -15.6402   20.0657 H   0  0  0  0  0  0
  -26.7356  -32.5169   23.0909 H   0  0  0  0  0  0
  -25.0106  -33.9520   25.0238 H   0  0  0  0  0  0
  -22.7822  -31.2744   21.3578 H   0  0  0  0  0  0
  -23.3768  -35.9524   23.3266 H   0  0  0  0  0  0
  -24.3577  -36.8895   22.2066 H   0  0  0  0  0  0
  -23.7222  -37.6383   23.6719 H   0  0  0  0  0  0
  -26.2123  -31.3950   20.6207 H   0  0  0  0  0  0
  -26.9014  -30.7062   22.0511 H   0  0  0  0  0  0
  -28.1412  -28.6336   21.2835 H   0  0  0  0  0  0
  -25.8714  -25.7821   18.9752 H   0  0  0  0  0  0
  -23.9993  -27.2931   18.9415 H   0  0  0  0  0  0
  -23.8593  -30.5364   19.3914 H   0  0  0  0  0  0
  -22.8186  -29.2184   19.8300 H   0  0  0  0  0  0
  -25.1319  -36.1772   25.0793 H   0  0  0  0  0  0
  -21.0037  -28.3356   24.1321 H   0  0  0  0  0  0
  -20.5678  -26.2376   23.3646 H   0  0  0  0  0  0
  -21.6660  -26.7422   22.1211 H   0  0  0  0  0  0
  -19.6933  -25.6285   21.1274 H   0  0  0  0  0  0
  -19.6704  -27.3174   20.6732 H   0  0  0  0  0  0
  -17.4222  -26.6701   21.4024 H   0  0  0  0  0  0
  -18.0337  -26.0099   22.9026 H   0  0  0  0  0  0
  -19.7969  -30.7320   24.2212 H   0  0  0  0  0  0
  -17.5041  -31.6280   24.5168 H   0  0  0  0  0  0
  -15.5377  -30.2982   23.7698 H   0  0  0  0  0  0
  -15.8702  -28.0818   22.7105 H   0  0  0  0  0  0
  -24.5912  -30.7094   25.7698 H   0  0  0  0  0  0
  -24.8856  -32.2978   26.4667 H   0  0  0  0  0  0
  -25.7956  -30.9054   27.0235 H   0  0  0  0  0  0
  -26.3098  -29.6612   24.1379 H   0  0  0  0  0  0
  -27.3963  -29.7259   25.5036 H   0  0  0  0  0  0
  -27.9047  -30.4110   23.9813 H   0  0  0  0  0  0
  -27.2634  -33.3692   26.1958 H   0  0  0  0  0  0
  -28.3935  -32.6830   25.0380 H   0  0  0  0  0  0
  -28.0650  -31.8551   26.5523 H   0  0  0  0  0  0
  -28.2546  -38.0090   24.7554 H   0  0  0  0  0  0
  -28.1104  -36.2622   24.6218 H   0  0  0  0  0  0
  -27.2304  -37.1316   25.8865 H   0  0  0  0  0  0
  -20.9568  -29.8745   21.6688 H   0  0  0  0  0  0
  -26.0110  -38.2769   24.1472 H   0  0  0  0  0  0
  -27.6168  -19.4342   21.3264 H   0  0  0  0  0  0
  -31.1499  -20.5590   19.3339 H   0  0  0  0  0  0
  -30.9384  -18.1229   21.1349 H   0  0  0  0  0  0
  -30.8031  -18.0252   19.4326 H   0  0  0  0  0  0
  -26.8373  -24.2452   20.4695 H   0  0  0  0  0  0
  -27.5992  -24.2931   18.9346 H   0  0  0  0  0  0
  -25.7568  -22.2999   20.6957 H   0  0  0  0  0  0
  -28.7524  -16.3309   20.5937 H   0  0  0  0  0  0
  1 25  1  0  0  0
  1 30  2  0  0  0
  1 81  1  0  0  0
  2  3  1  0  0  0
  2 25  1  0  0  0
  2 87  1  0  0  0
  2 88  1  0  0  0
  3  4  1  0  0  0
  3 89  1  0  0  0
  3 90  1  0  0  0
  4  5  1  0  0  0
  4 91  1  0  0  0
  4 92  1  0  0  0
  5  6  1  0  0  0
  5 26  1  0  0  0
  5 93  1  0  0  0
  6 25  1  0  0  0
  6 94  1  0  0  0
  6 95  1  0  0  0
  7  8  2  0  0  0
  7 26  1  0  0  0
  7 29  1  0  0  0
  8  9  1  0  0  0
  8 22  1  0  0  0
  9 10  1  0  0  0
  9 27  2  0  0  0
 10 11  2  0  0  0
 10 15  1  0  0  0
 11 12  1  0  0  0
 11 96  1  0  0  0
 12 13  2  0  0  0
 12 97  1  0  0  0
 13 14  1  0  0  0
 13 31  1  0  0  0
 14 15  2  0  0  0
 14 98  1  0  0  0
 15 99  1  0  0  0
 16 17  2  0  0  0
 16 21  1  0  0  0
 16 31  1  0  0  0
 17 18  1  0  0  0
 17100  1  0  0  0
 18 19  2  0  0  0
 18101  1  0  0  0
 19 20  1  0  0  0
 19 24  1  0  0  0
 20 21  2  0  0  0
 20102  1  0  0  0
 21 23  1  0  0  0
 22 28  1  0  0  0
 22 32  2  0  0  0
 26 27  1  0  0  0
 28103  1  0  0  0
 28104  1  0  0  0
 29105  1  0  0  0
 29106  1  0  0  0
 33 34  1  0  0  0
 33 66  1  0  0  0
 33 70  2  0  0  0
 34 36  1  0  0  0
 34 59  1  0  0  0
 34107  1  0  0  0
 35 44  2  0  0  0
 35 45  1  0  0  0
 35 68  1  0  0  0
 36 56  1  0  0  0
 36108  1  0  0  0
 37 39  1  0  0  0
 37 47  1  0  0  0
 37 66  1  0  0  0
 37109  1  0  0  0
 38 43  2  0  0  0
 38 46  1  0  0  0
 38 47  1  0  0  0
 39 64  1  0  0  0
 39 67  2  0  0  0
 40 52  1  0  0  0
 40 53  2  0  0  0
 40 58  1  0  0  0
 41110  1  0  0  0
 41111  1  0  0  0
 41112  1  0  0  0
 41 48  1  0  0  0
 42 43  1  0  0  0
 42 66  1  0  0  0
 42113  1  0  0  0
 42114  1  0  0  0
 43 44  1  0  0  0
 44115  1  0  0  0
 45 46  2  0  0  0
 45116  1  0  0  0
 46117  1  0  0  0
 47118  1  0  0  0
 47119  1  0  0  0
 48 56  1  0  0  0
 48 65  1  0  0  0
 48120  1  0  0  0
 49 50  1  0  0  0
 49 53  1  0  0  0
 49 64  1  0  0  0
 49121  1  0  0  0
 50 51  1  0  0  0
 50122  1  0  0  0
 50123  1  0  0  0
 51 52  1  0  0  0
 51124  1  0  0  0
 51125  1  0  0  0
 52126  1  0  0  0
 52127  1  0  0  0
 53 54  1  0  0  0
 54 55  2  0  0  0
 54128  1  0  0  0
 55 57  1  0  0  0
 55129  1  0  0  0
 56 69  2  0  0  0
 57 58  2  0  0  0
 57130  1  0  0  0
 58131  1  0  0  0
 59 60  1  0  0  0
 59 61  1  0  0  0
 59 62  1  0  0  0
 60132  1  0  0  0
 60133  1  0  0  0
 60134  1  0  0  0
 61135  1  0  0  0
 61136  1  0  0  0
 61137  1  0  0  0
 62138  1  0  0  0
 62139  1  0  0  0
 62140  1  0  0  0
 63 65  1  0  0  0
 63141  1  0  0  0
 63142  1  0  0  0
 63143  1  0  0  0
 64144  1  0  0  0
 65145  1  0  0  0
 68 78  1  0  0  0
 71 73  2  0  0  0
 71 74  1  0  0  0
 71146  1  0  0  0
 72 73  1  0  0  0
 72 75  2  0  0  0
 72147  1  0  0  0
 73 77  1  0  0  0
 74 76  2  0  0  0
 74 79  1  0  0  0
 75 76  1  0  0  0
 75 80  1  0  0  0
 76 78  1  0  0  0
 77 81  1  0  0  0
 77148  1  0  0  0
 77149  1  0  0  0
 78150  1  0  0  0
 78151  1  0  0  0
 79 82  1  0  0  0
 79 83  1  0  0  0
 79152  1  0  0  0
 80 84  1  0  0  0
 80 85  1  0  0  0
 80 86  1  0  0  0
 81153  1  0  0  0
M  ISO  4   1 100  68 101  78 101  81 100
M  END
> <chiral flag>
0

> <version>
0

> <s_m_source_file>
/data/baiqing/PycharmProjects/Reinvent-master-3.2/result/LINK_invent/BTK/process_docking_weight1_custom_sum_contain_oxygen_bond_distance_aromatic_linkinvent_7_9_3/rearranged_h_0029.sdf

> <i_m_source_file_index>
87

> <r_mmod_Potential_Energy-OPLS-2005>
1049.3974609375

> <r_mmod_Stretch_Energy-OPLS-2005>
455.168060302734

> <r_mmod_Bend_Energy-OPLS-2005>
421.474029541016

> <r_mmod_Torsional_Energy-OPLS-2005>
214.218414306641

> <r_mmod_Improper_Torsional_Energy-OPLS-2005>
6.75424337387085

> <r_mmod_Van_der_Waal_Energy-OPLS-2005>
139.554336547852

> <r_mmod_Electrostatic_Energy-OPLS-2005>
-362.425018310547

> <r_mmod_Solvation_Energy-OPLS-2005>
-212.496994018555

> <b_mmod_Minimization_Converged-OPLS-2005>
0

> <r_mmod_RMS_Derivative-OPLS-2005>
0.631375133991241

$$$$
87
                    3D
 Structure written by MMmdl.
181190  0  0  1  0            999 V2000
  -30.6688  -14.5971   20.4998 C   0  0  0  0  0  0
  -30.4217  -12.3680   19.4501 C   0  0  0  0  0  0
  -29.4998  -12.4988   18.2192 C   0  0  0  0  0  0
  -28.0230  -12.3482   18.6322 C   0  0  0  0  0  0
  -27.6507  -13.2219   19.8606 C   0  0  2  0  0  0
  -28.6948  -13.0897   20.9921 C   0  0  0  0  0  0
  -25.2551  -13.8189   20.5690 C   0  0  0  0  0  0
  -24.1824  -13.0443   20.9191 C   0  0  0  0  0  0
  -24.6395  -11.6918   20.8741 C   0  0  0  0  0  0
  -23.9067  -10.4298   21.0402 C   0  0  0  0  0  0
  -24.3618   -9.4216   21.9178 C   0  0  0  0  0  0
  -23.6297   -8.2249   22.0752 C   0  0  0  0  0  0
  -22.4277   -8.0283   21.3541 C   0  0  0  0  0  0
  -21.9914   -9.0255   20.4640 C   0  0  0  0  0  0
  -22.7241  -10.2136   20.3050 C   0  0  0  0  0  0
  -21.6853   -6.0736   22.5278 C   0  0  0  0  0  0
  -21.4010   -6.5640   23.8211 C   0  0  0  0  0  0
  -21.3659   -5.6792   24.9173 C   0  0  0  0  0  0
  -21.6047   -4.3055   24.7222 C   0  0  0  0  0  0
  -21.8820   -3.8149   23.4343 C   0  0  0  0  0  0
  -21.9195   -4.6966   22.3401 C   0  0  0  0  0  0
  -22.7848  -13.5236   21.1859 C   0  0  0  0  0  0
  -22.1665   -4.2153   21.0977 F   0  0  0  0  0  0
  -21.5631   -3.4538   25.7735 F   0  0  0  0  0  0
  -30.0106  -13.4018   20.4201 N   0  0  0  0  0  0
  -26.2979  -12.9381   20.3319 N   0  0  0  0  0  0
  -25.9324  -11.6529   20.5759 N   0  0  0  0  0  0
  -22.0490  -12.8211   22.0405 N   0  0  0  0  0  0
  -25.4258  -15.1907   20.4097 N   0  0  0  0  0  0
  -31.8383  -14.7055   20.1243 O   0  0  0  0  0  0
  -21.6643   -6.8879   21.4241 O   0  0  0  0  0  0
  -22.3532  -14.5543   20.6718 O   0  0  0  0  0  0
  -24.6203  -31.8606   23.2006 C   0  0  0  0  0  0
  -25.9056  -32.4784   23.8340 C   0  0  1  0  0  0
  -27.2339  -27.3510   20.1113 C   0  0  0  0  0  0
  -25.5876  -33.8584   24.2260 N   0  0  0  0  0  0
  -23.4131  -30.4817   21.5422 C   0  0  2  0  0  0
  -24.8602  -28.9329   20.1107 C   0  0  0  0  0  0
  -22.7444  -29.4623   22.4942 C   0  0  0  0  0  0
  -18.0283  -28.1385   22.8489 C   0  0  0  0  0  0
  -24.1483  -36.7308   23.2638 C   0  0  0  0  0  0
  -25.9481  -30.8009   21.3649 C   0  0  0  0  0  0
  -26.0229  -29.4276   20.7133 C   0  0  0  0  0  0
  -27.2075  -28.6441   20.7078 C   0  0  0  0  0  0
  -26.0468  -26.8863   19.5018 C   0  0  0  0  0  0
  -24.8717  -27.6662   19.5009 C   0  0  0  0  0  0
  -23.6253  -29.8091   20.1583 C   0  0  0  0  0  0
  -25.4106  -36.3086   24.0326 C   0  0  1  0  0  0
  -20.5877  -28.3675   23.1305 C   0  0  2  0  0  0
  -20.6767  -26.9404   22.5415 C   0  0  0  0  0  0
  -19.5742  -26.6389   21.5212 C   0  0  0  0  0  0
  -18.1923  -26.7927   22.1629 C   0  0  0  0  0  0
  -19.1535  -28.8848   23.2895 C   0  0  0  0  0  0
  -18.9460  -30.1452   23.8905 C   0  0  0  0  0  0
  -17.6462  -30.6584   24.0569 C   0  0  0  0  0  0
  -25.9043  -34.9455   23.5103 C   0  0  0  0  0  0
  -16.5354  -29.9085   23.6332 C   0  0  0  0  0  0
  -16.7274  -28.6511   23.0341 C   0  0  0  0  0  0
  -26.4452  -31.6588   25.0705 C   0  0  0  0  0  0
  -25.3688  -31.3715   26.1435 C   0  0  0  0  0  0
  -27.0286  -30.3019   24.6114 C   0  0  0  0  0  0
  -27.6016  -32.4313   25.7483 C   0  0  0  0  0  0
  -27.5570  -37.1802   24.8460 C   0  0  0  0  0  0
  -21.4163  -29.3029   22.3694 N   0  0  0  0  0  0
  -26.4284  -37.3777   23.9406 N   0  0  0  0  0  0
  -24.6794  -31.0642   22.0938 N   0  0  0  0  0  0
  -23.4184  -28.8164   23.3009 O   0  0  0  0  0  0
  -28.3993  -26.5875   20.1680 O   0  0  0  0  0  0
  -26.5633  -34.8927   22.4684 O   0  0  0  0  0  0
  -23.5378  -32.1401   23.7349 O   0  0  0  0  0  0
  -29.0733  -17.4017   15.0473 C   0  0  0  0  0  0
  -31.2727  -18.4314   15.0905 C   0  0  0  0  0  0
  -30.3628  -17.5359   14.5038 C   0  0  0  0  0  0
  -28.6869  -18.1558   16.1747 C   0  0  0  0  0  0
  -30.9079  -19.1918   16.2204 C   0  0  0  0  0  0
  -29.6046  -19.0588   16.7784 C   0  0  0  0  0  0
  -30.1067  -18.0095   21.9963 C   0  0  0  0  0  0
  -29.1275  -19.2075   21.8394 C   0  0  0  0  0  0
  -30.0910  -17.8818   19.3933 C   0  0  0  0  0  0
  -29.1347  -19.1384   19.3700 C   0  0  1  0  0  0
  -30.3893  -17.1399   20.7376 C   0  0  2  0  0  0
  -29.3587  -20.1034   20.5885 C   0  0  1  0  0  0
  -30.7733  -16.7284   13.2890 C   0  0  0  0  0  0
  -27.2787  -17.9617   16.7148 C   0  0  0  0  0  0
  -31.9464  -20.1434   16.7973 C   0  0  0  0  0  0
  -29.1869  -19.8854   18.0040 C   0  0  0  0  0  0
  -28.2327  -23.9731   20.4473 C   0  0  0  0  0  0
  -28.8674  -22.6109   19.9235 C   0  0  0  0  0  0
  -28.5299  -25.2554   19.5696 C   0  0  0  0  0  0
  -29.9338  -15.7081   20.8149 N   0  0  0  0  0  0
  -28.4751  -21.3437   20.6560 N   0  3  0  0  0  0
  -31.4664  -12.4655   19.1492 H   0  0  0  0  0  0
  -30.3318  -11.3759   19.8945 H   0  0  0  0  0  0
  -29.7568  -11.7441   17.4745 H   0  0  0  0  0  0
  -29.6532  -13.4673   17.7399 H   0  0  0  0  0  0
  -27.8538  -11.2957   18.8626 H   0  0  0  0  0  0
  -27.3700  -12.5835   17.7913 H   0  0  0  0  0  0
  -27.6679  -14.2562   19.5170 H   0  0  0  0  0  0
  -28.6952  -12.0788   21.4027 H   0  0  0  0  0  0
  -28.4526  -13.7529   21.8241 H   0  0  0  0  0  0
  -25.2762   -9.5695   22.4755 H   0  0  0  0  0  0
  -24.0010   -7.4640   22.7469 H   0  0  0  0  0  0
  -21.0851   -8.8766   19.8940 H   0  0  0  0  0  0
  -22.3697  -10.9672   19.6160 H   0  0  0  0  0  0
  -21.1995   -7.6145   23.9715 H   0  0  0  0  0  0
  -21.1481   -6.0519   25.9076 H   0  0  0  0  0  0
  -22.0598   -2.7610   23.2840 H   0  0  0  0  0  0
  -22.4110  -11.9869   22.4780 H   0  0  0  0  0  0
  -21.1099  -13.1219   22.2601 H   0  0  0  0  0  0
  -24.6561  -15.8429   20.5129 H   0  0  0  0  0  0
  -26.2738  -15.6288   20.0749 H   0  0  0  0  0  0
  -26.7123  -32.5460   23.1092 H   0  0  0  0  0  0
  -24.9956  -33.9738   25.0354 H   0  0  0  0  0  0
  -22.7057  -31.3000   21.3955 H   0  0  0  0  0  0
  -23.3735  -35.9646   23.3304 H   0  0  0  0  0  0
  -24.3572  -36.8937   22.2052 H   0  0  0  0  0  0
  -23.7250  -37.6514   23.6673 H   0  0  0  0  0  0
  -26.0689  -31.5611   20.5915 H   0  0  0  0  0  0
  -26.8333  -30.8569   21.9874 H   0  0  0  0  0  0
  -28.1038  -29.0200   21.1828 H   0  0  0  0  0  0
  -26.0016  -25.9122   19.0394 H   0  0  0  0  0  0
  -23.9759  -27.2773   19.0357 H   0  0  0  0  0  0
  -23.7386  -30.5824   19.3980 H   0  0  0  0  0  0
  -22.7473  -29.2326   19.8606 H   0  0  0  0  0  0
  -25.1280  -36.1939   25.0817 H   0  0  0  0  0  0
  -20.9980  -28.3245   24.1420 H   0  0  0  0  0  0
  -20.5671  -26.2276   23.3604 H   0  0  0  0  0  0
  -21.6634  -26.7434   22.1199 H   0  0  0  0  0  0
  -19.6908  -25.6304   21.1229 H   0  0  0  0  0  0
  -19.6689  -27.3212   20.6751 H   0  0  0  0  0  0
  -17.4187  -26.6680   21.4034 H   0  0  0  0  0  0
  -18.0333  -26.0070   22.9033 H   0  0  0  0  0  0
  -19.7938  -30.7268   24.2271 H   0  0  0  0  0  0
  -17.5016  -31.6264   24.5167 H   0  0  0  0  0  0
  -15.5352  -30.2983   23.7658 H   0  0  0  0  0  0
  -15.8681  -28.0841   22.7030 H   0  0  0  0  0  0
  -24.5885  -30.7035   25.7776 H   0  0  0  0  0  0
  -24.8846  -32.2873   26.4833 H   0  0  0  0  0  0
  -25.8018  -30.8930   27.0227 H   0  0  0  0  0  0
  -26.2852  -29.6800   24.1114 H   0  0  0  0  0  0
  -27.3985  -29.7237   25.4590 H   0  0  0  0  0  0
  -27.8716  -30.4326   23.9321 H   0  0  0  0  0  0
  -27.2629  -33.3621   26.2048 H   0  0  0  0  0  0
  -28.3842  -32.6859   25.0322 H   0  0  0  0  0  0
  -28.0657  -31.8434   26.5414 H   0  0  0  0  0  0
  -28.2577  -38.0105   24.7500 H   0  0  0  0  0  0
  -28.1078  -36.2637   24.6292 H   0  0  0  0  0  0
  -27.2296  -37.1457   25.8864 H   0  0  0  0  0  0
  -20.9321  -29.8770   21.6937 H   0  0  0  0  0  0
  -26.0171  -38.2857   24.1391 H   0  0  0  0  0  0
  -28.3735  -16.7134   14.5927 H   0  0  0  0  0  0
  -32.2621  -18.5361   14.6650 H   0  0  0  0  0  0
  -29.7791  -17.3761   22.8220 H   0  0  0  0  0  0
  -31.0595  -18.4253   22.3301 H   0  0  0  0  0  0
  -29.1978  -19.8145   22.7432 H   0  0  0  0  0  0
  -28.1075  -18.8199   21.8256 H   0  0  0  0  0  0
  -31.0573  -18.2143   19.0139 H   0  0  0  0  0  0
  -29.7471  -17.1479   18.6638 H   0  0  0  0  0  0
  -28.1266  -18.7323   19.4601 H   0  0  0  0  0  0
  -31.4784  -17.0567   20.7500 H   0  0  0  0  0  0
  -30.3972  -20.4396   20.5958 H   0  0  0  0  0  0
  -30.0956  -15.8911   13.1188 H   0  0  0  0  0  0
  -31.7782  -16.3247   13.4164 H   0  0  0  0  0  0
  -30.7687  -17.3558   12.3974 H   0  0  0  0  0  0
  -26.6812  -17.3414   16.0461 H   0  0  0  0  0  0
  -26.7570  -18.9123   16.8189 H   0  0  0  0  0  0
  -27.3032  -17.4639   17.6834 H   0  0  0  0  0  0
  -32.9240  -19.9919   16.3386 H   0  0  0  0  0  0
  -32.0704  -19.9984   17.8702 H   0  0  0  0  0  0
  -31.6584  -21.1794   16.6167 H   0  0  0  0  0  0
  -28.2203  -20.3460   17.8022 H   0  0  0  0  0  0
  -29.8634  -20.7312   18.0929 H   0  0  0  0  0  0
  -28.6011  -24.1591   21.4569 H   0  0  0  0  0  0
  -27.1520  -23.8637   20.5393 H   0  0  0  0  0  0
  -29.9533  -22.7066   19.9538 H   0  0  0  0  0  0
  -28.6019  -22.4965   18.8732 H   0  0  0  0  0  0
  -28.0086  -25.1962   18.6145 H   0  0  0  0  0  0
  -29.5838  -25.1985   19.2938 H   0  0  0  0  0  0
  -28.9744  -15.5447   21.0807 H   0  0  0  0  0  0
  -28.4661  -21.6008   21.6297 H   0  0  0  0  0  0
  -27.5254  -21.1000   20.4227 H   0  0  0  0  0  0
  1 25  1  0  0  0
  1 30  2  0  0  0
  1 90  1  0  0  0
  2  3  1  0  0  0
  2 25  1  0  0  0
  2 92  1  0  0  0
  2 93  1  0  0  0
  3  4  1  0  0  0
  3 94  1  0  0  0
  3 95  1  0  0  0
  4  5  1  0  0  0
  4 96  1  0  0  0
  4 97  1  0  0  0
  5  6  1  0  0  0
  5 26  1  0  0  0
  5 98  1  0  0  0
  6 25  1  0  0  0
  6 99  1  0  0  0
  6100  1  0  0  0
  7  8  2  0  0  0
  7 26  1  0  0  0
  7 29  1  0  0  0
  8  9  1  0  0  0
  8 22  1  0  0  0
  9 10  1  0  0  0
  9 27  2  0  0  0
 10 11  2  0  0  0
 10 15  1  0  0  0
 11 12  1  0  0  0
 11101  1  0  0  0
 12 13  2  0  0  0
 12102  1  0  0  0
 13 14  1  0  0  0
 13 31  1  0  0  0
 14 15  2  0  0  0
 14103  1  0  0  0
 15104  1  0  0  0
 16 17  2  0  0  0
 16 21  1  0  0  0
 16 31  1  0  0  0
 17 18  1  0  0  0
 17105  1  0  0  0
 18 19  2  0  0  0
 18106  1  0  0  0
 19 20  1  0  0  0
 19 24  1  0  0  0
 20 21  2  0  0  0
 20107  1  0  0  0
 21 23  1  0  0  0
 22 28  1  0  0  0
 22 32  2  0  0  0
 26 27  1  0  0  0
 28108  1  0  0  0
 28109  1  0  0  0
 29110  1  0  0  0
 29111  1  0  0  0
 33 34  1  0  0  0
 33 66  1  0  0  0
 33 70  2  0  0  0
 34 36  1  0  0  0
 34 59  1  0  0  0
 34112  1  0  0  0
 35 44  2  0  0  0
 35 45  1  0  0  0
 35 68  1  0  0  0
 36 56  1  0  0  0
 36113  1  0  0  0
 37 39  1  0  0  0
 37 47  1  0  0  0
 37 66  1  0  0  0
 37114  1  0  0  0
 38 43  2  0  0  0
 38 46  1  0  0  0
 38 47  1  0  0  0
 39 64  1  0  0  0
 39 67  2  0  0  0
 40 52  1  0  0  0
 40 53  2  0  0  0
 40 58  1  0  0  0
 41115  1  0  0  0
 41116  1  0  0  0
 41117  1  0  0  0
 41 48  1  0  0  0
 42 43  1  0  0  0
 42 66  1  0  0  0
 42118  1  0  0  0
 42119  1  0  0  0
 43 44  1  0  0  0
 44120  1  0  0  0
 45 46  2  0  0  0
 45121  1  0  0  0
 46122  1  0  0  0
 47123  1  0  0  0
 47124  1  0  0  0
 48 56  1  0  0  0
 48 65  1  0  0  0
 48125  1  0  0  0
 49 50  1  0  0  0
 49 53  1  0  0  0
 49 64  1  0  0  0
 49126  1  0  0  0
 50 51  1  0  0  0
 50127  1  0  0  0
 50128  1  0  0  0
 51 52  1  0  0  0
 51129  1  0  0  0
 51130  1  0  0  0
 52131  1  0  0  0
 52132  1  0  0  0
 53 54  1  0  0  0
 54 55  2  0  0  0
 54133  1  0  0  0
 55 57  1  0  0  0
 55134  1  0  0  0
 56 69  2  0  0  0
 57 58  2  0  0  0
 57135  1  0  0  0
 58136  1  0  0  0
 59 60  1  0  0  0
 59 61  1  0  0  0
 59 62  1  0  0  0
 60137  1  0  0  0
 60138  1  0  0  0
 60139  1  0  0  0
 61140  1  0  0  0
 61141  1  0  0  0
 61142  1  0  0  0
 62143  1  0  0  0
 62144  1  0  0  0
 62145  1  0  0  0
 63 65  1  0  0  0
 63146  1  0  0  0
 63147  1  0  0  0
 63148  1  0  0  0
 64149  1  0  0  0
 65150  1  0  0  0
 68 89  1  0  0  0
 71 73  2  0  0  0
 71 74  1  0  0  0
 71151  1  0  0  0
 72 73  1  0  0  0
 72 75  2  0  0  0
 72152  1  0  0  0
 73 83  1  0  0  0
 74 76  2  0  0  0
 74 84  1  0  0  0
 75 76  1  0  0  0
 75 85  1  0  0  0
 76 86  1  0  0  0
 77 78  1  0  0  0
 77 81  1  0  0  0
 77153  1  0  0  0
 77154  1  0  0  0
 78 82  1  0  0  0
 78155  1  0  0  0
 78156  1  0  0  0
 79 80  1  0  0  0
 79 81  1  0  0  0
 79157  1  0  0  0
 79158  1  0  0  0
 80 82  1  0  0  0
 80 86  1  0  0  0
 80159  1  0  0  0
 81 90  1  0  0  0
 81160  1  0  0  0
 82 91  1  0  0  0
 82161  1  0  0  0
 83162  1  0  0  0
 83163  1  0  0  0
 83164  1  0  0  0
 84165  1  0  0  0
 84166  1  0  0  0
 84167  1  0  0  0
 85168  1  0  0  0
 85169  1  0  0  0
 85170  1  0  0  0
 86171  1  0  0  0
 86172  1  0  0  0
 87 88  1  0  0  0
 87 89  1  0  0  0
 87173  1  0  0  0
 87174  1  0  0  0
 88 91  1  0  0  0
 88175  1  0  0  0
 88176  1  0  0  0
 89177  1  0  0  0
 89178  1  0  0  0
 90179  1  0  0  0
 91180  1  0  0  0
 91181  1  0  0  0
M  CHG  1  91   1
M  ISO  4   1 100  68 101  89 101  90 100
M  END
> <chiral flag>
0

> <version>
0

> <s_m_source_file>
/data/baiqing/PycharmProjects/Reinvent-master-3.2/result/LINK_invent/BTK/process_docking_weight1_custom_sum_contain_oxygen_bond_distance_aromatic_linkinvent_7_9_3/rearranged_h_0029.sdf

> <i_m_source_file_index>
88

> <r_mmod_Potential_Energy-OPLS-2005>
-112.088539123535

> <r_mmod_Stretch_Energy-OPLS-2005>
73.1586380004883

> <r_mmod_Bend_Energy-OPLS-2005>
164.935607910156

> <r_mmod_Torsional_Energy-OPLS-2005>
238.726470947266

> <r_mmod_Improper_Torsional_Energy-OPLS-2005>
4.37738084793091

> <r_mmod_Van_der_Waal_Energy-OPLS-2005>
145.79557800293

> <r_mmod_Electrostatic_Energy-OPLS-2005>
-293.963439941406

> <r_mmod_Solvation_Energy-OPLS-2005>
-480.590576171875

> <b_mmod_Minimization_Converged-OPLS-2005>
0

> <r_mmod_RMS_Derivative-OPLS-2005>
1.15746879577637

$$$$
88
                    3D
 Structure written by MMmdl.
165173  0  0  1  0            999 V2000
  -30.7275  -14.3868   20.7013 C   0  0  0  0  0  0
  -30.4263  -12.2995   19.3964 C   0  0  0  0  0  0
  -29.4932  -12.5468   18.1942 C   0  0  0  0  0  0
  -28.0122  -12.4013   18.5986 C   0  0  0  0  0  0
  -27.6692  -13.2001   19.8829 C   0  0  2  0  0  0
  -28.7021  -12.9105   20.9919 C   0  0  0  0  0  0
  -25.2626  -13.8154   20.5645 C   0  0  0  0  0  0
  -24.1856  -13.0436   20.9111 C   0  0  0  0  0  0
  -24.6402  -11.6899   20.8690 C   0  0  0  0  0  0
  -23.9057  -10.4297   21.0377 C   0  0  0  0  0  0
  -24.3594   -9.4219   21.9171 C   0  0  0  0  0  0
  -23.6265   -8.2260   22.0760 C   0  0  0  0  0  0
  -22.4263   -8.0290   21.3529 C   0  0  0  0  0  0
  -21.9901   -9.0266   20.4635 C   0  0  0  0  0  0
  -22.7224  -10.2143   20.3036 C   0  0  0  0  0  0
  -21.6846   -6.0741   22.5257 C   0  0  0  0  0  0
  -21.4019   -6.5648   23.8190 C   0  0  0  0  0  0
  -21.3646   -5.6797   24.9145 C   0  0  0  0  0  0
  -21.6034   -4.3059   24.7192 C   0  0  0  0  0  0
  -21.8823   -3.8151   23.4316 C   0  0  0  0  0  0
  -21.9195   -4.6969   22.3377 C   0  0  0  0  0  0
  -22.7883  -13.5238   21.1773 C   0  0  0  0  0  0
  -22.1663   -4.2150   21.0957 F   0  0  0  0  0  0
  -21.5610   -3.4546   25.7702 F   0  0  0  0  0  0
  -30.0490  -13.2285   20.4715 N   0  0  0  0  0  0
  -26.3055  -12.9310   20.3352 N   0  0  0  0  0  0
  -25.9325  -11.6468   20.5718 N   0  0  0  0  0  0
  -22.0498  -12.8233   22.0318 N   0  0  0  0  0  0
  -25.4406  -15.1868   20.4085 N   0  0  0  0  0  0
  -31.7331  -14.7247   20.0675 O   0  0  0  0  0  0
  -21.6630   -6.8883   21.4223 O   0  0  0  0  0  0
  -22.3573  -14.5561   20.6643 O   0  0  0  0  0  0
  -24.6141  -31.8697   23.2130 C   0  0  0  0  0  0
  -25.9050  -32.4825   23.8419 C   0  0  1  0  0  0
  -27.2288  -27.4437   20.0787 C   0  0  0  0  0  0
  -25.5919  -33.8621   24.2345 N   0  0  0  0  0  0
  -23.3999  -30.4962   21.5546 C   0  0  2  0  0  0
  -24.8421  -28.9687   20.1135 C   0  0  0  0  0  0
  -22.7403  -29.4664   22.5005 C   0  0  0  0  0  0
  -18.0278  -28.1366   22.8479 C   0  0  0  0  0  0
  -24.1472  -36.7293   23.2624 C   0  0  0  0  0  0
  -25.9294  -30.8373   21.3649 C   0  0  0  0  0  0
  -26.0043  -29.4738   20.7090 C   0  0  0  0  0  0
  -27.1992  -28.7186   20.6902 C   0  0  0  0  0  0
  -26.0427  -26.9570   19.4747 C   0  0  0  0  0  0
  -24.8552  -27.7079   19.4972 C   0  0  0  0  0  0
  -23.6053  -29.8362   20.1670 C   0  0  0  0  0  0
  -25.4097  -36.3102   24.0328 C   0  0  1  0  0  0
  -20.5862  -28.3643   23.1317 C   0  0  2  0  0  0
  -20.6766  -26.9383   22.5403 C   0  0  0  0  0  0
  -19.5757  -26.6390   21.5184 C   0  0  0  0  0  0
  -18.1935  -26.7920   22.1598 C   0  0  0  0  0  0
  -19.1529  -28.8822   23.2897 C   0  0  0  0  0  0
  -18.9458  -30.1433   23.8911 C   0  0  0  0  0  0
  -17.6456  -30.6564   24.0583 C   0  0  0  0  0  0
  -25.9037  -34.9466   23.5130 C   0  0  0  0  0  0
  -16.5350  -29.9071   23.6327 C   0  0  0  0  0  0
  -16.7270  -28.6498   23.0333 C   0  0  0  0  0  0
  -26.4470  -31.6590   25.0732 C   0  0  0  0  0  0
  -25.3743  -31.3685   26.1480 C   0  0  0  0  0  0
  -27.0292  -30.3048   24.6061 C   0  0  0  0  0  0
  -27.6050  -32.4287   25.7505 C   0  0  0  0  0  0
  -27.5567  -37.1817   24.8446 C   0  0  0  0  0  0
  -21.4139  -29.3015   22.3727 N   0  0  0  0  0  0
  -26.4271  -37.3796   23.9402 N   0  0  0  0  0  0
  -24.6663  -31.0809   22.1031 N   0  0  0  0  0  0
  -23.4185  -28.8211   23.3043 O   0  0  0  0  0  0
  -28.4045  -26.7171   20.0917 O   0  0  0  0  0  0
  -26.5587  -34.8911   22.4680 O   0  0  0  0  0  0
  -23.5341  -32.1445   23.7537 O   0  0  0  0  0  0
  -30.3162  -18.0233   24.0197 C   0  0  0  0  0  0
  -30.9162  -17.4606   21.3337 C   0  0  0  0  0  0
  -30.7885  -19.0559   23.1871 C   0  0  0  0  0  0
  -30.1315  -16.7201   23.5237 C   0  0  0  0  0  0
  -31.0675  -18.7826   21.8214 C   0  0  0  0  0  0
  -30.4660  -16.4184   22.1818 C   0  0  0  0  0  0
  -30.9753  -20.4412   23.7902 C   0  0  0  0  0  0
  -29.5638  -15.6553   24.4499 C   0  0  0  0  0  0
  -31.5203  -19.8966   20.8768 C   0  0  0  0  0  0
  -29.3859  -23.0201   20.0951 C   0  0  0  0  0  0
  -29.5651  -24.5481   20.2441 C   0  0  0  0  0  0
  -30.6424  -22.1987   20.4553 C   0  0  0  0  0  0
  -28.2998  -25.3141   19.8259 C   0  0  0  0  0  0
  -30.2431  -15.0828   21.7433 N   0  0  0  0  0  0
  -30.3770  -20.7389   20.4636 N   0  3  0  0  0  0
  -31.4712  -12.4129   19.1026 H   0  0  0  0  0  0
  -30.3280  -11.2694   19.7461 H   0  0  0  0  0  0
  -29.7297  -11.8574   17.3826 H   0  0  0  0  0  0
  -29.6656  -13.5498   17.8025 H   0  0  0  0  0  0
  -27.8070  -11.3418   18.7513 H   0  0  0  0  0  0
  -27.3701  -12.7206   17.7760 H   0  0  0  0  0  0
  -27.7369  -14.2591   19.6353 H   0  0  0  0  0  0
  -28.6661  -11.8554   21.2685 H   0  0  0  0  0  0
  -28.4283  -13.4434   21.9024 H   0  0  0  0  0  0
  -25.2729   -9.5707   22.4754 H   0  0  0  0  0  0
  -23.9949   -7.4673   22.7514 H   0  0  0  0  0  0
  -21.0828   -8.8801   19.8945 H   0  0  0  0  0  0
  -22.3679  -10.9693   19.6152 H   0  0  0  0  0  0
  -21.2043   -7.6165   23.9699 H   0  0  0  0  0  0
  -21.1446   -6.0518   25.9040 H   0  0  0  0  0  0
  -22.0620   -2.7614   23.2806 H   0  0  0  0  0  0
  -22.4041  -11.9805   22.4605 H   0  0  0  0  0  0
  -21.1150  -13.1325   22.2558 H   0  0  0  0  0  0
  -24.6832  -15.8532   20.5168 H   0  0  0  0  0  0
  -26.3101  -15.6209   20.1223 H   0  0  0  0  0  0
  -26.7122  -32.5536   23.1185 H   0  0  0  0  0  0
  -25.0090  -33.9791   25.0501 H   0  0  0  0  0  0
  -22.6871  -31.3125   21.4218 H   0  0  0  0  0  0
  -23.3727  -35.9632   23.3295 H   0  0  0  0  0  0
  -24.3560  -36.8895   22.2038 H   0  0  0  0  0  0
  -23.7217  -37.6496   23.6626 H   0  0  0  0  0  0
  -26.0406  -31.6061   20.5992 H   0  0  0  0  0  0
  -26.8182  -30.8884   21.9817 H   0  0  0  0  0  0
  -28.0960  -29.1067   21.1532 H   0  0  0  0  0  0
  -26.0088  -26.0021   18.9721 H   0  0  0  0  0  0
  -23.9624  -27.3145   19.0309 H   0  0  0  0  0  0
  -23.7145  -30.6167   19.4135 H   0  0  0  0  0  0
  -22.7266  -29.2630   19.8660 H   0  0  0  0  0  0
  -25.1263  -36.1973   25.0823 H   0  0  0  0  0  0
  -20.9949  -28.3195   24.1437 H   0  0  0  0  0  0
  -20.5650  -26.2242   23.3575 H   0  0  0  0  0  0
  -21.6646  -26.7418   22.1213 H   0  0  0  0  0  0
  -19.6923  -25.6317   21.1177 H   0  0  0  0  0  0
  -19.6709  -27.3231   20.6740 H   0  0  0  0  0  0
  -17.4202  -26.6655   21.4007 H   0  0  0  0  0  0
  -18.0358  -26.0055   22.8990 H   0  0  0  0  0  0
  -19.7933  -30.7249   24.2280 H   0  0  0  0  0  0
  -17.5008  -31.6233   24.5195 H   0  0  0  0  0  0
  -15.5353  -30.2979   23.7639 H   0  0  0  0  0  0
  -15.8673  -28.0836   22.7012 H   0  0  0  0  0  0
  -24.5906  -30.7046   25.7809 H   0  0  0  0  0  0
  -24.8949  -32.2843   26.4953 H   0  0  0  0  0  0
  -25.8106  -30.8828   27.0219 H   0  0  0  0  0  0
  -26.2841  -29.6842   24.1070 H   0  0  0  0  0  0
  -27.4051  -29.7237   25.4490 H   0  0  0  0  0  0
  -27.8673  -30.4403   23.9220 H   0  0  0  0  0  0
  -27.2698  -33.3606   26.2071 H   0  0  0  0  0  0
  -28.3889  -32.6806   25.0349 H   0  0  0  0  0  0
  -28.0664  -31.8393   26.5439 H   0  0  0  0  0  0
  -28.2567  -38.0133   24.7497 H   0  0  0  0  0  0
  -28.1078  -36.2658   24.6253 H   0  0  0  0  0  0
  -27.2285  -37.1432   25.8848 H   0  0  0  0  0  0
  -20.9290  -29.8736   21.6958 H   0  0  0  0  0  0
  -26.0146  -38.2857   24.1433 H   0  0  0  0  0  0
  -30.0821  -18.2376   25.0546 H   0  0  0  0  0  0
  -31.1305  -17.2541   20.2938 H   0  0  0  0  0  0
  -30.7530  -20.4447   24.8583 H   0  0  0  0  0  0
  -30.3116  -21.1692   23.3262 H   0  0  0  0  0  0
  -32.0041  -20.7826   23.6758 H   0  0  0  0  0  0
  -29.2828  -16.0725   25.4170 H   0  0  0  0  0  0
  -30.2965  -14.8681   24.6277 H   0  0  0  0  0  0
  -28.6682  -15.2052   24.0200 H   0  0  0  0  0  0
  -31.9967  -19.4798   19.9886 H   0  0  0  0  0  0
  -32.2893  -20.4922   21.3690 H   0  0  0  0  0  0
  -29.0894  -22.7900   19.0706 H   0  0  0  0  0  0
  -28.5542  -22.7077   20.7293 H   0  0  0  0  0  0
  -30.4099  -24.8897   19.6455 H   0  0  0  0  0  0
  -29.8024  -24.7856   21.2827 H   0  0  0  0  0  0
  -30.9994  -22.5031   21.4404 H   0  0  0  0  0  0
  -31.4464  -22.4160   19.7504 H   0  0  0  0  0  0
  -27.4566  -24.8954   20.3784 H   0  0  0  0  0  0
  -28.1114  -25.1532   18.7631 H   0  0  0  0  0  0
  -29.5661  -14.5687   22.2839 H   0  0  0  0  0  0
  -29.6228  -20.5470   21.1024 H   0  0  0  0  0  0
  -30.0819  -20.4400   19.5480 H   0  0  0  0  0  0
  1 25  1  0  0  0
  1 30  2  0  0  0
  1 84  1  0  0  0
  2  3  1  0  0  0
  2 25  1  0  0  0
  2 86  1  0  0  0
  2 87  1  0  0  0
  3  4  1  0  0  0
  3 88  1  0  0  0
  3 89  1  0  0  0
  4  5  1  0  0  0
  4 90  1  0  0  0
  4 91  1  0  0  0
  5  6  1  0  0  0
  5 26  1  0  0  0
  5 92  1  0  0  0
  6 25  1  0  0  0
  6 93  1  0  0  0
  6 94  1  0  0  0
  7  8  2  0  0  0
  7 26  1  0  0  0
  7 29  1  0  0  0
  8  9  1  0  0  0
  8 22  1  0  0  0
  9 10  1  0  0  0
  9 27  2  0  0  0
 10 11  2  0  0  0
 10 15  1  0  0  0
 11 12  1  0  0  0
 11 95  1  0  0  0
 12 13  2  0  0  0
 12 96  1  0  0  0
 13 14  1  0  0  0
 13 31  1  0  0  0
 14 15  2  0  0  0
 14 97  1  0  0  0
 15 98  1  0  0  0
 16 17  2  0  0  0
 16 21  1  0  0  0
 16 31  1  0  0  0
 17 18  1  0  0  0
 17 99  1  0  0  0
 18 19  2  0  0  0
 18100  1  0  0  0
 19 20  1  0  0  0
 19 24  1  0  0  0
 20 21  2  0  0  0
 20101  1  0  0  0
 21 23  1  0  0  0
 22 28  1  0  0  0
 22 32  2  0  0  0
 26 27  1  0  0  0
 28102  1  0  0  0
 28103  1  0  0  0
 29104  1  0  0  0
 29105  1  0  0  0
 33 34  1  0  0  0
 33 66  1  0  0  0
 33 70  2  0  0  0
 34 36  1  0  0  0
 34 59  1  0  0  0
 34106  1  0  0  0
 35 44  2  0  0  0
 35 45  1  0  0  0
 35 68  1  0  0  0
 36 56  1  0  0  0
 36107  1  0  0  0
 37 39  1  0  0  0
 37 47  1  0  0  0
 37 66  1  0  0  0
 37108  1  0  0  0
 38 43  2  0  0  0
 38 46  1  0  0  0
 38 47  1  0  0  0
 39 64  1  0  0  0
 39 67  2  0  0  0
 40 52  1  0  0  0
 40 53  2  0  0  0
 40 58  1  0  0  0
 41109  1  0  0  0
 41110  1  0  0  0
 41111  1  0  0  0
 41 48  1  0  0  0
 42 43  1  0  0  0
 42 66  1  0  0  0
 42112  1  0  0  0
 42113  1  0  0  0
 43 44  1  0  0  0
 44114  1  0  0  0
 45 46  2  0  0  0
 45115  1  0  0  0
 46116  1  0  0  0
 47117  1  0  0  0
 47118  1  0  0  0
 48 56  1  0  0  0
 48 65  1  0  0  0
 48119  1  0  0  0
 49 50  1  0  0  0
 49 53  1  0  0  0
 49 64  1  0  0  0
 49120  1  0  0  0
 50 51  1  0  0  0
 50121  1  0  0  0
 50122  1  0  0  0
 51 52  1  0  0  0
 51123  1  0  0  0
 51124  1  0  0  0
 52125  1  0  0  0
 52126  1  0  0  0
 53 54  1  0  0  0
 54 55  2  0  0  0
 54127  1  0  0  0
 55 57  1  0  0  0
 55128  1  0  0  0
 56 69  2  0  0  0
 57 58  2  0  0  0
 57129  1  0  0  0
 58130  1  0  0  0
 59 60  1  0  0  0
 59 61  1  0  0  0
 59 62  1  0  0  0
 60131  1  0  0  0
 60132  1  0  0  0
 60133  1  0  0  0
 61134  1  0  0  0
 61135  1  0  0  0
 61136  1  0  0  0
 62137  1  0  0  0
 62138  1  0  0  0
 62139  1  0  0  0
 63 65  1  0  0  0
 63140  1  0  0  0
 63141  1  0  0  0
 63142  1  0  0  0
 64143  1  0  0  0
 65144  1  0  0  0
 68 83  1  0  0  0
 71 73  2  0  0  0
 71 74  1  0  0  0
 71145  1  0  0  0
 72 75  2  0  0  0
 72 76  1  0  0  0
 72146  1  0  0  0
 73 75  1  0  0  0
 73 77  1  0  0  0
 74 76  2  0  0  0
 74 78  1  0  0  0
 75 79  1  0  0  0
 76 84  1  0  0  0
 77147  1  0  0  0
 77148  1  0  0  0
 77149  1  0  0  0
 78150  1  0  0  0
 78151  1  0  0  0
 78152  1  0  0  0
 79 85  1  0  0  0
 79153  1  0  0  0
 79154  1  0  0  0
 80 81  1  0  0  0
 80 82  1  0  0  0
 80155  1  0  0  0
 80156  1  0  0  0
 81 83  1  0  0  0
 81157  1  0  0  0
 81158  1  0  0  0
 82 85  1  0  0  0
 82159  1  0  0  0
 82160  1  0  0  0
 83161  1  0  0  0
 83162  1  0  0  0
 84163  1  0  0  0
 85164  1  0  0  0
 85165  1  0  0  0
M  CHG  1  85   1
M  ISO  4   1 100  68 101  83 101  84 100
M  END
> <chiral flag>
0

> <version>
0

> <s_m_source_file>
/data/baiqing/PycharmProjects/Reinvent-master-3.2/result/LINK_invent/BTK/process_docking_weight1_custom_sum_contain_oxygen_bond_distance_aromatic_linkinvent_7_9_3/rearranged_h_0029.sdf

> <i_m_source_file_index>
89

> <r_mmod_Potential_Energy-OPLS-2005>
-289.113250732422

> <r_mmod_Stretch_Energy-OPLS-2005>
35.897647857666

> <r_mmod_Bend_Energy-OPLS-2005>
98.2951202392578

> <r_mmod_Torsional_Energy-OPLS-2005>
201.951080322266

> <r_mmod_Improper_Torsional_Energy-OPLS-2005>
2.36951231956482

> <r_mmod_Van_der_Waal_Energy-OPLS-2005>
159.145858764648

> <r_mmod_Electrostatic_Energy-OPLS-2005>
-339.456024169922

> <r_mmod_Solvation_Energy-OPLS-2005>
-456.783538818359

> <b_mmod_Minimization_Converged-OPLS-2005>
0

> <r_mmod_RMS_Derivative-OPLS-2005>
2.30936455726624

$$$$
89
                    3D
 Structure written by MMmdl.
159168  0  0  1  0            999 V2000
  -30.6926  -14.5336   20.4218 C   0  0  0  0  0  0
  -30.4036  -12.3257   19.4256 C   0  0  0  0  0  0
  -29.4905  -12.5192   18.1981 C   0  0  0  0  0  0
  -28.0224  -12.3338   18.6207 C   0  0  0  0  0  0
  -27.6482  -13.2115   19.8475 C   0  0  2  0  0  0
  -28.6914  -13.0660   20.9718 C   0  0  0  0  0  0
  -25.2554  -13.8159   20.5612 C   0  0  0  0  0  0
  -24.1833  -13.0446   20.9121 C   0  0  0  0  0  0
  -24.6377  -11.6905   20.8715 C   0  0  0  0  0  0
  -23.9059  -10.4301   21.0405 C   0  0  0  0  0  0
  -24.3624   -9.4224   21.9199 C   0  0  0  0  0  0
  -23.6304   -8.2262   22.0771 C   0  0  0  0  0  0
  -22.4294   -8.0284   21.3542 C   0  0  0  0  0  0
  -21.9916   -9.0265   20.4659 C   0  0  0  0  0  0
  -22.7224  -10.2144   20.3062 C   0  0  0  0  0  0
  -21.6848   -6.0763   22.5290 C   0  0  0  0  0  0
  -21.4006   -6.5661   23.8227 C   0  0  0  0  0  0
  -21.3659   -5.6810   24.9190 C   0  0  0  0  0  0
  -21.6027   -4.3070   24.7225 C   0  0  0  0  0  0
  -21.8818   -3.8171   23.4339 C   0  0  0  0  0  0
  -21.9197   -4.6996   22.3407 C   0  0  0  0  0  0
  -22.7852  -13.5237   21.1865 C   0  0  0  0  0  0
  -22.1660   -4.2187   21.0988 F   0  0  0  0  0  0
  -21.5642   -3.4552   25.7731 F   0  0  0  0  0  0
  -30.0107  -13.3523   20.4068 N   0  0  0  0  0  0
  -26.2969  -12.9325   20.3240 N   0  0  0  0  0  0
  -25.9290  -11.6482   20.5696 N   0  0  0  0  0  0
  -22.0470  -12.8265   22.0399 N   0  0  0  0  0  0
  -25.4318  -15.1888   20.3999 N   0  0  0  0  0  0
  -31.9107  -14.5473   20.2454 O   0  0  0  0  0  0
  -21.6623   -6.8895   21.4246 O   0  0  0  0  0  0
  -22.3544  -14.5577   20.6733 O   0  0  0  0  0  0
  -24.6249  -31.8645   23.2018 C   0  0  0  0  0  0
  -25.9107  -32.4815   23.8328 C   0  0  1  0  0  0
  -27.2077  -27.3610   20.1470 C   0  0  0  0  0  0
  -25.5927  -33.8613   24.2255 N   0  0  0  0  0  0
  -23.4172  -30.4855   21.5454 C   0  0  2  0  0  0
  -24.8563  -28.9465   20.1015 C   0  0  0  0  0  0
  -22.7510  -29.4629   22.4977 C   0  0  0  0  0  0
  -18.0272  -28.1473   22.8512 C   0  0  0  0  0  0
  -24.1444  -36.7256   23.2638 C   0  0  0  0  0  0
  -25.9466  -30.8116   21.3548 C   0  0  0  0  0  0
  -26.0171  -29.4382   20.7095 C   0  0  0  0  0  0
  -27.1974  -28.6572   20.7224 C   0  0  0  0  0  0
  -26.0374  -26.9099   19.4930 C   0  0  0  0  0  0
  -24.8670  -27.6903   19.4711 C   0  0  0  0  0  0
  -23.6231  -29.8221   20.1552 C   0  0  0  0  0  0
  -25.4071  -36.3106   24.0338 C   0  0  1  0  0  0
  -20.5896  -28.3679   23.1337 C   0  0  2  0  0  0
  -20.6750  -26.9417   22.5436 C   0  0  0  0  0  0
  -19.5703  -26.6425   21.5267 C   0  0  0  0  0  0
  -18.1887  -26.8006   22.1682 C   0  0  0  0  0  0
  -19.1558  -28.8891   23.2901 C   0  0  0  0  0  0
  -18.9504  -30.1508   23.8889 C   0  0  0  0  0  0
  -17.6511  -30.6645   24.0605 C   0  0  0  0  0  0
  -25.9043  -34.9494   23.5092 C   0  0  0  0  0  0
  -16.5374  -29.9185   23.6379 C   0  0  0  0  0  0
  -16.7277  -28.6624   23.0331 C   0  0  0  0  0  0
  -26.4428  -31.6645   25.0708 C   0  0  0  0  0  0
  -25.3664  -31.3819   26.1440 C   0  0  0  0  0  0
  -27.0266  -30.3111   24.6086 C   0  0  0  0  0  0
  -27.6008  -32.4328   25.7486 C   0  0  0  0  0  0
  -27.5541  -37.1751   24.8477 C   0  0  0  0  0  0
  -21.4230  -29.3018   22.3743 N   0  0  0  0  0  0
  -26.4222  -37.3829   23.9467 N   0  0  0  0  0  0
  -24.6836  -31.0679   22.0950 N   0  0  0  0  0  0
  -23.4260  -28.8171   23.3015 O   0  0  0  0  0  0
  -28.3289  -26.5555   20.2701 O   0  0  0  0  0  0
  -26.5628  -34.8995   22.4669 O   0  0  0  0  0  0
  -23.5403  -32.1382   23.7367 O   0  0  0  0  0  0
  -30.6349  -16.7740   19.2752 C   0  0  0  0  0  0
  -30.1573  -18.0731   19.0339 C   0  0  0  0  0  0
  -28.8500  -16.3618   20.8652 C   0  0  0  0  0  0
  -30.0028  -15.8794   20.1841 C   0  0  0  0  0  0
  -29.0373  -18.5384   19.7337 C   0  0  0  0  0  0
  -28.3954  -17.6928   20.6590 C   0  0  0  0  0  0
  -28.5978  -19.9918   19.6476 C   0  0  0  0  0  0
  -27.2799  -18.3138   21.4881 C   0  0  0  0  0  0
  -27.6474  -19.7449   21.9961 C   0  0  0  0  0  0
  -28.5928  -20.5708   21.0720 C   0  0  2  0  0  0
  -29.1602  -24.3246   21.1341 C   0  0  0  0  0  0
  -28.1241  -25.1146   20.2813 C   0  0  0  0  0  0
  -29.4064  -22.8450   20.7228 C   0  0  0  0  0  0
  -28.3232  -21.9868   21.1291 O   0  0  0  0  0  0
  -31.4523  -12.4002   19.1301 H   0  0  0  0  0  0
  -30.2733  -11.3233   19.8375 H   0  0  0  0  0  0
  -29.7559  -11.8265   17.3996 H   0  0  0  0  0  0
  -29.6311  -13.5210   17.7900 H   0  0  0  0  0  0
  -27.8930  -11.2791   18.8693 H   0  0  0  0  0  0
  -27.3567  -12.5425   17.7828 H   0  0  0  0  0  0
  -27.6650  -14.2415   19.4970 H   0  0  0  0  0  0
  -28.6801  -12.0525   21.3727 H   0  0  0  0  0  0
  -28.4681  -13.7088   21.8190 H   0  0  0  0  0  0
  -25.2770   -9.5732   22.4755 H   0  0  0  0  0  0
  -24.0046   -7.4655   22.7472 H   0  0  0  0  0  0
  -21.0866   -8.8747   19.8954 H   0  0  0  0  0  0
  -22.3676  -10.9681   19.6173 H   0  0  0  0  0  0
  -21.1967   -7.6163   23.9737 H   0  0  0  0  0  0
  -21.1484   -6.0544   25.9103 H   0  0  0  0  0  0
  -22.0596   -2.7638   23.2816 H   0  0  0  0  0  0
  -22.4036  -11.9895   22.4776 H   0  0  0  0  0  0
  -21.1085  -13.1333   22.2575 H   0  0  0  0  0  0
  -24.6624  -15.8443   20.4593 H   0  0  0  0  0  0
  -26.3067  -15.6271   20.1349 H   0  0  0  0  0  0
  -26.7218  -32.5490   23.1132 H   0  0  0  0  0  0
  -25.0115  -33.9705   25.0426 H   0  0  0  0  0  0
  -22.7067  -31.3016   21.4031 H   0  0  0  0  0  0
  -23.3746  -35.9557   23.3344 H   0  0  0  0  0  0
  -24.3511  -36.8806   22.2043 H   0  0  0  0  0  0
  -23.7140  -37.6428   23.6625 H   0  0  0  0  0  0
  -26.0457  -31.5581   20.5650 H   0  0  0  0  0  0
  -26.8467  -30.8808   21.9541 H   0  0  0  0  0  0
  -28.0886  -29.0198   21.2141 H   0  0  0  0  0  0
  -26.0025  -25.9409   19.0161 H   0  0  0  0  0  0
  -23.9862  -27.3131   18.9683 H   0  0  0  0  0  0
  -23.7447  -30.5973   19.3983 H   0  0  0  0  0  0
  -22.7452  -29.2463   19.8520 H   0  0  0  0  0  0
  -25.1257  -36.1938   25.0822 H   0  0  0  0  0  0
  -20.9938  -28.3221   24.1479 H   0  0  0  0  0  0
  -20.5671  -26.2286   23.3621 H   0  0  0  0  0  0
  -21.6608  -26.7468   22.1203 H   0  0  0  0  0  0
  -19.6825  -25.6341   21.1270 H   0  0  0  0  0  0
  -19.6636  -27.3275   20.6834 H   0  0  0  0  0  0
  -17.4142  -26.6780   21.4088 H   0  0  0  0  0  0
  -18.0230  -26.0185   22.9114 H   0  0  0  0  0  0
  -19.7976  -30.7356   24.2189 H   0  0  0  0  0  0
  -17.5083  -31.6322   24.5251 H   0  0  0  0  0  0
  -15.5385  -30.3105   23.7723 H   0  0  0  0  0  0
  -15.8668  -28.1009   22.6962 H   0  0  0  0  0  0
  -24.5819  -30.7205   25.7753 H   0  0  0  0  0  0
  -24.8860  -32.3017   26.4803 H   0  0  0  0  0  0
  -25.7934  -30.8997   27.0259 H   0  0  0  0  0  0
  -26.2834  -29.6881   24.1098 H   0  0  0  0  0  0
  -27.4071  -29.7329   25.4498 H   0  0  0  0  0  0
  -27.8659  -30.4440   23.9267 H   0  0  0  0  0  0
  -27.2657  -33.3626   26.2104 H   0  0  0  0  0  0
  -28.3814  -32.6912   25.0332 H   0  0  0  0  0  0
  -28.0744  -31.8449   26.5350 H   0  0  0  0  0  0
  -28.2590  -38.0015   24.7567 H   0  0  0  0  0  0
  -28.0991  -36.2555   24.6273 H   0  0  0  0  0  0
  -27.2276  -37.1392   25.8877 H   0  0  0  0  0  0
  -20.9422  -29.8741   21.6953 H   0  0  0  0  0  0
  -26.0111  -38.2891   24.1557 H   0  0  0  0  0  0
  -31.5429  -16.4853   18.7666 H   0  0  0  0  0  0
  -30.7006  -18.7299   18.3659 H   0  0  0  0  0  0
  -28.3400  -15.7588   21.5973 H   0  0  0  0  0  0
  -27.6033  -20.0523   19.2018 H   0  0  0  0  0  0
  -29.2735  -20.5616   19.0101 H   0  0  0  0  0  0
  -27.0436  -17.6722   22.3371 H   0  0  0  0  0  0
  -26.3757  -18.3494   20.8696 H   0  0  0  0  0  0
  -28.1674  -19.6249   22.9453 H   0  0  0  0  0  0
  -26.7342  -20.2926   22.2369 H   0  0  0  0  0  0
  -29.5994  -20.4171   21.4621 H   0  0  0  0  0  0
  -28.8578  -24.3349   22.1815 H   0  0  0  0  0  0
  -30.1119  -24.8562   21.1040 H   0  0  0  0  0  0
  -27.1374  -24.8484   20.6718 H   0  0  0  0  0  0
  -28.1586  -24.7645   19.2500 H   0  0  0  0  0  0
  -30.3352  -22.5143   21.1980 H   0  0  0  0  0  0
  -29.6020  -22.7710   19.6508 H   0  0  0  0  0  0
  1 25  1  0  0  0
  1 30  2  0  0  0
  1 74  1  0  0  0
  2  3  1  0  0  0
  2 25  1  0  0  0
  2 85  1  0  0  0
  2 86  1  0  0  0
  3  4  1  0  0  0
  3 87  1  0  0  0
  3 88  1  0  0  0
  4  5  1  0  0  0
  4 89  1  0  0  0
  4 90  1  0  0  0
  5  6  1  0  0  0
  5 26  1  0  0  0
  5 91  1  0  0  0
  6 25  1  0  0  0
  6 92  1  0  0  0
  6 93  1  0  0  0
  7  8  2  0  0  0
  7 26  1  0  0  0
  7 29  1  0  0  0
  8  9  1  0  0  0
  8 22  1  0  0  0
  9 10  1  0  0  0
  9 27  2  0  0  0
 10 11  2  0  0  0
 10 15  1  0  0  0
 11 12  1  0  0  0
 11 94  1  0  0  0
 12 13  2  0  0  0
 12 95  1  0  0  0
 13 14  1  0  0  0
 13 31  1  0  0  0
 14 15  2  0  0  0
 14 96  1  0  0  0
 15 97  1  0  0  0
 16 17  2  0  0  0
 16 21  1  0  0  0
 16 31  1  0  0  0
 17 18  1  0  0  0
 17 98  1  0  0  0
 18 19  2  0  0  0
 18 99  1  0  0  0
 19 20  1  0  0  0
 19 24  1  0  0  0
 20 21  2  0  0  0
 20100  1  0  0  0
 21 23  1  0  0  0
 22 28  1  0  0  0
 22 32  2  0  0  0
 26 27  1  0  0  0
 28101  1  0  0  0
 28102  1  0  0  0
 29103  1  0  0  0
 29104  1  0  0  0
 33 34  1  0  0  0
 33 66  1  0  0  0
 33 70  2  0  0  0
 34 36  1  0  0  0
 34 59  1  0  0  0
 34105  1  0  0  0
 35 44  2  0  0  0
 35 45  1  0  0  0
 35 68  1  0  0  0
 36 56  1  0  0  0
 36106  1  0  0  0
 37 39  1  0  0  0
 37 47  1  0  0  0
 37 66  1  0  0  0
 37107  1  0  0  0
 38 43  2  0  0  0
 38 46  1  0  0  0
 38 47  1  0  0  0
 39 64  1  0  0  0
 39 67  2  0  0  0
 40 52  1  0  0  0
 40 53  2  0  0  0
 40 58  1  0  0  0
 41108  1  0  0  0
 41109  1  0  0  0
 41110  1  0  0  0
 41 48  1  0  0  0
 42 43  1  0  0  0
 42 66  1  0  0  0
 42111  1  0  0  0
 42112  1  0  0  0
 43 44  1  0  0  0
 44113  1  0  0  0
 45 46  2  0  0  0
 45114  1  0  0  0
 46115  1  0  0  0
 47116  1  0  0  0
 47117  1  0  0  0
 48 56  1  0  0  0
 48 65  1  0  0  0
 48118  1  0  0  0
 49 50  1  0  0  0
 49 53  1  0  0  0
 49 64  1  0  0  0
 49119  1  0  0  0
 50 51  1  0  0  0
 50120  1  0  0  0
 50121  1  0  0  0
 51 52  1  0  0  0
 51122  1  0  0  0
 51123  1  0  0  0
 52124  1  0  0  0
 52125  1  0  0  0
 53 54  1  0  0  0
 54 55  2  0  0  0
 54126  1  0  0  0
 55 57  1  0  0  0
 55127  1  0  0  0
 56 69  2  0  0  0
 57 58  2  0  0  0
 57128  1  0  0  0
 58129  1  0  0  0
 59 60  1  0  0  0
 59 61  1  0  0  0
 59 62  1  0  0  0
 60130  1  0  0  0
 60131  1  0  0  0
 60132  1  0  0  0
 61133  1  0  0  0
 61134  1  0  0  0
 61135  1  0  0  0
 62136  1  0  0  0
 62137  1  0  0  0
 62138  1  0  0  0
 63 65  1  0  0  0
 63139  1  0  0  0
 63140  1  0  0  0
 63141  1  0  0  0
 64142  1  0  0  0
 65143  1  0  0  0
 68 82  1  0  0  0
 71 72  2  0  0  0
 71 74  1  0  0  0
 71144  1  0  0  0
 72 75  1  0  0  0
 72145  1  0  0  0
 73 74  2  0  0  0
 73 76  1  0  0  0
 73146  1  0  0  0
 75 76  2  0  0  0
 75 77  1  0  0  0
 76 78  1  0  0  0
 77 80  1  0  0  0
 77147  1  0  0  0
 77148  1  0  0  0
 78 79  1  0  0  0
 78149  1  0  0  0
 78150  1  0  0  0
 79 80  1  0  0  0
 79151  1  0  0  0
 79152  1  0  0  0
 80 84  1  0  0  0
 80153  1  0  0  0
 81 82  1  0  0  0
 81 83  1  0  0  0
 81154  1  0  0  0
 81155  1  0  0  0
 82156  1  0  0  0
 82157  1  0  0  0
 83 84  1  0  0  0
 83158  1  0  0  0
 83159  1  0  0  0
M  ISO  4   1 100  68 101  74 100  82 101
M  END
> <chiral flag>
0

> <version>
0

> <s_m_source_file>
/data/baiqing/PycharmProjects/Reinvent-master-3.2/result/LINK_invent/BTK/process_docking_weight1_custom_sum_contain_oxygen_bond_distance_aromatic_linkinvent_7_9_3/rearranged_h_0029.sdf

> <i_m_source_file_index>
90

> <r_mmod_Potential_Energy-OPLS-2005>
130.37629699707

> <r_mmod_Stretch_Energy-OPLS-2005>
46.8736953735352

> <r_mmod_Bend_Energy-OPLS-2005>
122.312995910645

> <r_mmod_Torsional_Energy-OPLS-2005>
239.387741088867

> <r_mmod_Improper_Torsional_Energy-OPLS-2005>
13.366982460022

> <r_mmod_Van_der_Waal_Energy-OPLS-2005>
157.978332519531

> <r_mmod_Electrostatic_Energy-OPLS-2005>
-305.102935791016

> <r_mmod_Solvation_Energy-OPLS-2005>
-188.504470825195

> <b_mmod_Minimization_Converged-OPLS-2005>
0

> <r_mmod_RMS_Derivative-OPLS-2005>
7.05086421966553

$$$$
90
                    3D
 Structure written by MMmdl.
156164  0  0  1  0            999 V2000
  -30.6662  -14.7700   20.4419 C   0  0  0  0  0  0
  -30.4096  -12.4802   19.4688 C   0  0  0  0  0  0
  -29.4890  -12.4906   18.2309 C   0  0  0  0  0  0
  -28.0232  -12.3077   18.6624 C   0  0  0  0  0  0
  -27.6281  -13.2425   19.8366 C   0  0  2  0  0  0
  -28.6798  -13.2493   20.9659 C   0  0  0  0  0  0
  -25.2468  -13.8237   20.5729 C   0  0  0  0  0  0
  -24.1776  -13.0470   20.9223 C   0  0  0  0  0  0
  -24.6391  -11.6951   20.8780 C   0  0  0  0  0  0
  -23.9089  -10.4319   21.0433 C   0  0  0  0  0  0
  -24.3640   -9.4221   21.9194 C   0  0  0  0  0  0
  -23.6313   -8.2256   22.0753 C   0  0  0  0  0  0
  -22.4292   -8.0301   21.3548 C   0  0  0  0  0  0
  -21.9941   -9.0274   20.4647 C   0  0  0  0  0  0
  -22.7275  -10.2153   20.3065 C   0  0  0  0  0  0
  -21.6856   -6.0761   22.5286 C   0  0  0  0  0  0
  -21.4021   -6.5656   23.8227 C   0  0  0  0  0  0
  -21.3655   -5.6801   24.9172 C   0  0  0  0  0  0
  -21.6034   -4.3062   24.7223 C   0  0  0  0  0  0
  -21.8822   -3.8168   23.4339 C   0  0  0  0  0  0
  -21.9195   -4.6988   22.3401 C   0  0  0  0  0  0
  -22.7794  -13.5236   21.1867 C   0  0  0  0  0  0
  -22.1663   -4.2179   21.0978 F   0  0  0  0  0  0
  -21.5617   -3.4540   25.7728 F   0  0  0  0  0  0
  -29.9609  -13.5895   20.3449 N   0  0  0  0  0  0
  -26.2887  -12.9466   20.3304 N   0  0  0  0  0  0
  -25.9320  -11.6602   20.5800 N   0  0  0  0  0  0
  -22.0456  -12.8207   22.0424 N   0  0  0  0  0  0
  -25.4186  -15.1957   20.4144 N   0  0  0  0  0  0
  -31.8785  -14.7402   20.2380 O   0  0  0  0  0  0
  -21.6641   -6.8901   21.4254 O   0  0  0  0  0  0
  -22.3469  -14.5540   20.6704 O   0  0  0  0  0  0
  -24.6303  -31.8534   23.1963 C   0  0  0  0  0  0
  -25.9109  -32.4763   23.8347 C   0  0  1  0  0  0
  -27.2241  -27.2475   20.1452 C   0  0  0  0  0  0
  -25.5899  -33.8562   24.2281 N   0  0  0  0  0  0
  -23.4301  -30.4715   21.5397 C   0  0  2  0  0  0
  -24.8795  -28.9034   20.1242 C   0  0  0  0  0  0
  -22.7509  -29.4588   22.4933 C   0  0  0  0  0  0
  -18.0287  -28.1382   22.8487 C   0  0  0  0  0  0
  -24.1491  -36.7302   23.2645 C   0  0  0  0  0  0
  -25.9753  -30.7623   21.3749 C   0  0  0  0  0  0
  -26.0518  -29.3776   20.7295 C   0  0  0  0  0  0
  -27.2321  -28.5656   20.7189 C   0  0  0  0  0  0
  -26.0311  -26.8316   19.5257 C   0  0  0  0  0  0
  -24.8743  -27.6392   19.5106 C   0  0  0  0  0  0
  -23.6509  -29.7940   20.1614 C   0  0  0  0  0  0
  -25.4113  -36.3090   24.0345 C   0  0  1  0  0  0
  -20.5885  -28.3703   23.1274 C   0  0  2  0  0  0
  -20.6772  -26.9422   22.5412 C   0  0  0  0  0  0
  -19.5753  -26.6391   21.5206 C   0  0  0  0  0  0
  -18.1935  -26.7931   22.1618 C   0  0  0  0  0  0
  -19.1537  -28.8859   23.2871 C   0  0  0  0  0  0
  -18.9456  -30.1455   23.8909 C   0  0  0  0  0  0
  -17.6447  -30.6583   24.0562 C   0  0  0  0  0  0
  -25.9048  -34.9449   23.5133 C   0  0  0  0  0  0
  -16.5341  -29.9084   23.6314 C   0  0  0  0  0  0
  -16.7270  -28.6492   23.0362 C   0  0  0  0  0  0
  -26.4476  -31.6581   25.0735 C   0  0  0  0  0  0
  -25.3707  -31.3694   26.1466 C   0  0  0  0  0  0
  -27.0328  -30.3017   24.6185 C   0  0  0  0  0  0
  -27.6056  -32.4308   25.7487 C   0  0  0  0  0  0
  -27.5594  -37.1807   24.8467 C   0  0  0  0  0  0
  -21.4214  -29.3054   22.3682 N   0  0  0  0  0  0
  -26.4308  -37.3772   23.9416 N   0  0  0  0  0  0
  -24.6983  -31.0483   22.0939 N   0  0  0  0  0  0
  -23.4204  -28.8148   23.3054 O   0  0  0  0  0  0
  -28.3448  -26.3957   20.0592 O   0  0  0  0  0  0
  -26.5617  -34.8916   22.4701 O   0  0  0  0  0  0
  -23.5440  -32.1360   23.7233 O   0  0  0  0  0  0
  -28.8993  -19.6920   20.2712 C   0  0  0  0  0  0
  -30.2521  -21.3651   21.3919 C   0  0  0  0  0  0
  -29.2054  -21.1049   20.4942 C   0  0  0  0  0  0
  -29.6138  -18.5831   20.9056 C   0  0  0  0  0  0
  -30.6725  -18.9559   21.7845 C   0  0  0  0  0  0
  -30.9716  -20.3277   22.0217 C   0  0  0  0  0  0
  -31.4601  -17.8801   22.5302 C   0  0  0  0  0  0
  -28.6118  -22.3582   19.6972 C   0  0  0  0  0  0
  -29.1965  -17.0281   20.8020 C   0  0  0  0  0  0
  -27.8209  -23.6295   20.3430 C   0  0  0  0  0  0
  -28.4448  -25.0697   20.7660 C   0  0  0  0  0  0
  -30.0774  -15.9888   20.1219 N   0  0  0  0  0  0
  -32.2374  -20.8039   23.1031 Cl  0  0  0  0  0  0
  -31.4512  -12.5773   19.1588 H   0  0  0  0  0  0
  -30.3434  -11.5268   19.9960 H   0  0  0  0  0  0
  -29.7743  -11.7009   17.5351 H   0  0  0  0  0  0
  -29.5960  -13.4329   17.6906 H   0  0  0  0  0  0
  -27.8982  -11.2651   18.9580 H   0  0  0  0  0  0
  -27.3528  -12.4615   17.8164 H   0  0  0  0  0  0
  -27.6024  -14.2472   19.4133 H   0  0  0  0  0  0
  -28.7343  -12.2777   21.4579 H   0  0  0  0  0  0
  -28.4249  -13.9808   21.7346 H   0  0  0  0  0  0
  -25.2784   -9.5680   22.4770 H   0  0  0  0  0  0
  -24.0023   -7.4640   22.7464 H   0  0  0  0  0  0
  -21.0873   -8.8797   19.8946 H   0  0  0  0  0  0
  -22.3744  -10.9688   19.6169 H   0  0  0  0  0  0
  -21.2027   -7.6168   23.9738 H   0  0  0  0  0  0
  -21.1459   -6.0523   25.9074 H   0  0  0  0  0  0
  -22.0605   -2.7635   23.2822 H   0  0  0  0  0  0
  -22.4102  -11.9862   22.4766 H   0  0  0  0  0  0
  -21.1070  -13.1197   22.2668 H   0  0  0  0  0  0
  -24.6571  -15.8551   20.5286 H   0  0  0  0  0  0
  -26.2713  -15.6271   20.0825 H   0  0  0  0  0  0
  -26.7182  -32.5418   23.1094 H   0  0  0  0  0  0
  -25.0035  -33.9699   25.0425 H   0  0  0  0  0  0
  -22.7254  -31.2917   21.3850 H   0  0  0  0  0  0
  -23.3762  -35.9623   23.3293 H   0  0  0  0  0  0
  -24.3586  -36.8929   22.2061 H   0  0  0  0  0  0
  -23.7225  -37.6500   23.6666 H   0  0  0  0  0  0
  -26.1059  -31.5138   20.5951 H   0  0  0  0  0  0
  -26.8531  -30.8226   22.0063 H   0  0  0  0  0  0
  -28.1434  -28.9337   21.1706 H   0  0  0  0  0  0
  -25.9957  -25.8679   19.0388 H   0  0  0  0  0  0
  -23.9801  -27.2693   19.0270 H   0  0  0  0  0  0
  -23.7796  -30.5617   19.3971 H   0  0  0  0  0  0
  -22.7691  -29.2262   19.8599 H   0  0  0  0  0  0
  -25.1286  -36.1967   25.0837 H   0  0  0  0  0  0
  -20.9957  -28.3275   24.1398 H   0  0  0  0  0  0
  -20.5654  -26.2324   23.3619 H   0  0  0  0  0  0
  -21.6647  -26.7450   22.1219 H   0  0  0  0  0  0
  -19.6925  -25.6309   21.1234 H   0  0  0  0  0  0
  -19.6682  -27.3205   20.6736 H   0  0  0  0  0  0
  -17.4205  -26.6676   21.4018 H   0  0  0  0  0  0
  -18.0339  -26.0068   22.9008 H   0  0  0  0  0  0
  -19.7925  -30.7254   24.2323 H   0  0  0  0  0  0
  -17.4999  -31.6266   24.5159 H   0  0  0  0  0  0
  -15.5345  -30.2987   23.7625 H   0  0  0  0  0  0
  -15.8674  -28.0790   22.7107 H   0  0  0  0  0  0
  -24.5910  -30.7014   25.7799 H   0  0  0  0  0  0
  -24.8856  -32.2830   26.4914 H   0  0  0  0  0  0
  -25.8028  -30.8884   27.0250 H   0  0  0  0  0  0
  -26.2911  -29.6778   24.1187 H   0  0  0  0  0  0
  -27.4030  -29.7265   25.4683 H   0  0  0  0  0  0
  -27.8775  -30.4349   23.9419 H   0  0  0  0  0  0
  -27.2715  -33.3631   26.2049 H   0  0  0  0  0  0
  -28.3847  -32.6815   25.0281 H   0  0  0  0  0  0
  -28.0737  -31.8440   26.5398 H   0  0  0  0  0  0
  -28.2603  -38.0111   24.7513 H   0  0  0  0  0  0
  -28.1097  -36.2644   24.6290 H   0  0  0  0  0  0
  -27.2314  -37.1445   25.8869 H   0  0  0  0  0  0
  -20.9432  -29.8769   21.6867 H   0  0  0  0  0  0
  -26.0207  -38.2868   24.1372 H   0  0  0  0  0  0
  -28.0904  -19.4478   19.5948 H   0  0  0  0  0  0
  -30.5439  -22.3893   21.5808 H   0  0  0  0  0  0
  -31.7159  -17.0473   21.8826 H   0  0  0  0  0  0
  -30.8753  -17.5059   23.3696 H   0  0  0  0  0  0
  -32.4136  -18.2306   22.9190 H   0  0  0  0  0  0
  -27.9232  -21.9216   18.9722 H   0  0  0  0  0  0
  -29.4242  -22.7574   19.0897 H   0  0  0  0  0  0
  -28.2267  -16.9973   20.3088 H   0  0  0  0  0  0
  -29.0043  -16.6703   21.8142 H   0  0  0  0  0  0
  -27.2689  -23.2447   21.2003 H   0  0  0  0  0  0
  -27.0356  -23.8792   19.6310 H   0  0  0  0  0  0
  -29.5112  -24.8987   20.9093 H   0  0  0  0  0  0
  -28.0797  -25.2718   21.7741 H   0  0  0  0  0  0
  -30.7461  -16.4901   19.5568 H   0  0  0  0  0  0
  1 25  1  0  0  0
  1 30  2  0  0  0
  1 82  1  0  0  0
  2  3  1  0  0  0
  2 25  1  0  0  0
  2 84  1  0  0  0
  2 85  1  0  0  0
  3  4  1  0  0  0
  3 86  1  0  0  0
  3 87  1  0  0  0
  4  5  1  0  0  0
  4 88  1  0  0  0
  4 89  1  0  0  0
  5  6  1  0  0  0
  5 26  1  0  0  0
  5 90  1  0  0  0
  6 25  1  0  0  0
  6 91  1  0  0  0
  6 92  1  0  0  0
  7  8  2  0  0  0
  7 26  1  0  0  0
  7 29  1  0  0  0
  8  9  1  0  0  0
  8 22  1  0  0  0
  9 10  1  0  0  0
  9 27  2  0  0  0
 10 11  2  0  0  0
 10 15  1  0  0  0
 11 12  1  0  0  0
 11 93  1  0  0  0
 12 13  2  0  0  0
 12 94  1  0  0  0
 13 14  1  0  0  0
 13 31  1  0  0  0
 14 15  2  0  0  0
 14 95  1  0  0  0
 15 96  1  0  0  0
 16 17  2  0  0  0
 16 21  1  0  0  0
 16 31  1  0  0  0
 17 18  1  0  0  0
 17 97  1  0  0  0
 18 19  2  0  0  0
 18 98  1  0  0  0
 19 20  1  0  0  0
 19 24  1  0  0  0
 20 21  2  0  0  0
 20 99  1  0  0  0
 21 23  1  0  0  0
 22 28  1  0  0  0
 22 32  2  0  0  0
 26 27  1  0  0  0
 28100  1  0  0  0
 28101  1  0  0  0
 29102  1  0  0  0
 29103  1  0  0  0
 33 34  1  0  0  0
 33 66  1  0  0  0
 33 70  2  0  0  0
 34 36  1  0  0  0
 34 59  1  0  0  0
 34104  1  0  0  0
 35 44  2  0  0  0
 35 45  1  0  0  0
 35 68  1  0  0  0
 36 56  1  0  0  0
 36105  1  0  0  0
 37 39  1  0  0  0
 37 47  1  0  0  0
 37 66  1  0  0  0
 37106  1  0  0  0
 38 43  2  0  0  0
 38 46  1  0  0  0
 38 47  1  0  0  0
 39 64  1  0  0  0
 39 67  2  0  0  0
 40 52  1  0  0  0
 40 53  2  0  0  0
 40 58  1  0  0  0
 41107  1  0  0  0
 41108  1  0  0  0
 41109  1  0  0  0
 41 48  1  0  0  0
 42 43  1  0  0  0
 42 66  1  0  0  0
 42110  1  0  0  0
 42111  1  0  0  0
 43 44  1  0  0  0
 44112  1  0  0  0
 45 46  2  0  0  0
 45113  1  0  0  0
 46114  1  0  0  0
 47115  1  0  0  0
 47116  1  0  0  0
 48 56  1  0  0  0
 48 65  1  0  0  0
 48117  1  0  0  0
 49 50  1  0  0  0
 49 53  1  0  0  0
 49 64  1  0  0  0
 49118  1  0  0  0
 50 51  1  0  0  0
 50119  1  0  0  0
 50120  1  0  0  0
 51 52  1  0  0  0
 51121  1  0  0  0
 51122  1  0  0  0
 52123  1  0  0  0
 52124  1  0  0  0
 53 54  1  0  0  0
 54 55  2  0  0  0
 54125  1  0  0  0
 55 57  1  0  0  0
 55126  1  0  0  0
 56 69  2  0  0  0
 57 58  2  0  0  0
 57127  1  0  0  0
 58128  1  0  0  0
 59 60  1  0  0  0
 59 61  1  0  0  0
 59 62  1  0  0  0
 60129  1  0  0  0
 60130  1  0  0  0
 60131  1  0  0  0
 61132  1  0  0  0
 61133  1  0  0  0
 61134  1  0  0  0
 62135  1  0  0  0
 62136  1  0  0  0
 62137  1  0  0  0
 63 65  1  0  0  0
 63138  1  0  0  0
 63139  1  0  0  0
 63140  1  0  0  0
 64141  1  0  0  0
 65142  1  0  0  0
 68 81  1  0  0  0
 71 73  2  0  0  0
 71 74  1  0  0  0
 71143  1  0  0  0
 72 73  1  0  0  0
 72 76  2  0  0  0
 72144  1  0  0  0
 73 78  1  0  0  0
 74 75  2  0  0  0
 74 79  1  0  0  0
 75 76  1  0  0  0
 75 77  1  0  0  0
 76 83  1  0  0  0
 77145  1  0  0  0
 77146  1  0  0  0
 77147  1  0  0  0
 78 80  1  0  0  0
 78148  1  0  0  0
 78149  1  0  0  0
 79 82  1  0  0  0
 79150  1  0  0  0
 79151  1  0  0  0
 80 81  1  0  0  0
 80152  1  0  0  0
 80153  1  0  0  0
 81154  1  0  0  0
 81155  1  0  0  0
 82156  1  0  0  0
M  ISO  4   1 100  68 101  81 101  82 100
M  END
> <chiral flag>
0

> <version>
0

> <s_m_source_file>
/data/baiqing/PycharmProjects/Reinvent-master-3.2/result/LINK_invent/BTK/process_docking_weight1_custom_sum_contain_oxygen_bond_distance_aromatic_linkinvent_7_9_3/rearranged_h_0029.sdf

> <i_m_source_file_index>
91

> <r_mmod_Potential_Energy-OPLS-2005>
318.872039794922

> <r_mmod_Stretch_Energy-OPLS-2005>
134.474853515625

> <r_mmod_Bend_Energy-OPLS-2005>
251.384475708008

> <r_mmod_Torsional_Energy-OPLS-2005>
299.458709716797

> <r_mmod_Improper_Torsional_Energy-OPLS-2005>
28.0425567626953

> <r_mmod_Van_der_Waal_Energy-OPLS-2005>
127.329742431641

> <r_mmod_Electrostatic_Energy-OPLS-2005>
-419.775451660156

> <r_mmod_Solvation_Energy-OPLS-2005>
-199.640365600586

> <b_mmod_Minimization_Converged-OPLS-2005>
0

> <r_mmod_RMS_Derivative-OPLS-2005>
2.59377408027649

$$$$
92
                    3D
 Structure written by MMmdl.
156164  0  0  1  0            999 V2000
  -30.6154  -14.6844   20.4848 C   0  0  0  0  0  0
  -30.4409  -12.4252   19.4515 C   0  0  0  0  0  0
  -29.5108  -12.5058   18.2214 C   0  0  0  0  0  0
  -28.0347  -12.3338   18.6346 C   0  0  0  0  0  0
  -27.6497  -13.2155   19.8509 C   0  0  2  0  0  0
  -28.6947  -13.1096   20.9820 C   0  0  0  0  0  0
  -25.2574  -13.8146   20.5641 C   0  0  0  0  0  0
  -24.1831  -13.0417   20.9133 C   0  0  0  0  0  0
  -24.6395  -11.6892   20.8695 C   0  0  0  0  0  0
  -23.9058  -10.4282   21.0382 C   0  0  0  0  0  0
  -24.3615   -9.4200   21.9165 C   0  0  0  0  0  0
  -23.6288   -8.2239   22.0763 C   0  0  0  0  0  0
  -22.4278   -8.0264   21.3538 C   0  0  0  0  0  0
  -21.9900   -9.0229   20.4640 C   0  0  0  0  0  0
  -22.7224  -10.2114   20.3037 C   0  0  0  0  0  0
  -21.6854   -6.0710   22.5267 C   0  0  0  0  0  0
  -21.4005   -6.5626   23.8186 C   0  0  0  0  0  0
  -21.3666   -5.6787   24.9145 C   0  0  0  0  0  0
  -21.6058   -4.3055   24.7210 C   0  0  0  0  0  0
  -21.8824   -3.8135   23.4335 C   0  0  0  0  0  0
  -21.9197   -4.6941   22.3385 C   0  0  0  0  0  0
  -22.7861  -13.5220   21.1795 C   0  0  0  0  0  0
  -22.1670   -4.2135   21.0962 F   0  0  0  0  0  0
  -21.5641   -3.4547   25.7722 F   0  0  0  0  0  0
  -30.0009  -13.4605   20.4070 N   0  0  0  0  0  0
  -26.2981  -12.9324   20.3243 N   0  0  0  0  0  0
  -25.9328  -11.6489   20.5711 N   0  0  0  0  0  0
  -22.0547  -12.8198   22.0381 N   0  0  0  0  0  0
  -25.4297  -15.1861   20.4044 N   0  0  0  0  0  0
  -31.7987  -14.8227   20.1634 O   0  0  0  0  0  0
  -21.6647   -6.8853   21.4233 O   0  0  0  0  0  0
  -22.3527  -14.5514   20.6644 O   0  0  0  0  0  0
  -24.6321  -31.8581   23.1964 C   0  0  0  0  0  0
  -25.9156  -32.4775   23.8329 C   0  0  1  0  0  0
  -27.2249  -27.2937   20.1100 C   0  0  0  0  0  0
  -25.5954  -33.8575   24.2263 N   0  0  0  0  0  0
  -23.4251  -30.4809   21.5419 C   0  0  2  0  0  0
  -24.8700  -28.9229   20.1134 C   0  0  0  0  0  0
  -22.7489  -29.4638   22.4915 C   0  0  0  0  0  0
  -18.0272  -28.1416   22.8449 C   0  0  0  0  0  0
  -24.1477  -36.7305   23.2644 C   0  0  0  0  0  0
  -25.9685  -30.7764   21.3702 C   0  0  0  0  0  0
  -26.0426  -29.3999   20.7159 C   0  0  0  0  0  0
  -27.2241  -28.5934   20.7070 C   0  0  0  0  0  0
  -26.0364  -26.8785   19.4743 C   0  0  0  0  0  0
  -24.8693  -27.6668   19.4875 C   0  0  0  0  0  0
  -23.6407  -29.8098   20.1600 C   0  0  0  0  0  0
  -25.4108  -36.3092   24.0312 C   0  0  1  0  0  0
  -20.5882  -28.3737   23.1247 C   0  0  2  0  0  0
  -20.6771  -26.9462   22.5397 C   0  0  0  0  0  0
  -19.5755  -26.6403   21.5207 C   0  0  0  0  0  0
  -18.1923  -26.7946   22.1599 C   0  0  0  0  0  0
  -19.1535  -28.8885   23.2834 C   0  0  0  0  0  0
  -18.9457  -30.1460   23.8882 C   0  0  0  0  0  0
  -17.6488  -30.6612   24.0567 C   0  0  0  0  0  0
  -25.9067  -34.9454   23.5100 C   0  0  0  0  0  0
  -16.5363  -29.9111   23.6350 C   0  0  0  0  0  0
  -16.7271  -28.6543   23.0347 C   0  0  0  0  0  0
  -26.4487  -31.6611   25.0748 C   0  0  0  0  0  0
  -25.3661  -31.3773   26.1443 C   0  0  0  0  0  0
  -27.0338  -30.3032   24.6227 C   0  0  0  0  0  0
  -27.6026  -32.4385   25.7520 C   0  0  0  0  0  0
  -27.5561  -37.1797   24.8463 C   0  0  0  0  0  0
  -21.4210  -29.3069   22.3624 N   0  0  0  0  0  0
  -26.4284  -37.3774   23.9405 N   0  0  0  0  0  0
  -24.6960  -31.0542   22.0951 N   0  0  0  0  0  0
  -23.4183  -28.8168   23.3022 O   0  0  0  0  0  0
  -28.3236  -26.4164   20.1063 O   0  0  0  0  0  0
  -26.5625  -34.8914   22.4661 O   0  0  0  0  0  0
  -23.5485  -32.1425   23.7262 O   0  0  0  0  0  0
  -29.0432  -21.0532   20.3220 C   0  0  0  0  0  0
  -28.3795  -19.6465   22.1744 C   0  0  0  0  0  0
  -28.9627  -19.7280   20.9011 C   0  0  0  0  0  0
  -28.5629  -22.2662   20.9668 C   0  0  0  0  0  0
  -27.9630  -22.0843   22.2616 C   0  0  0  0  0  0
  -27.8930  -20.7820   22.8423 C   0  0  0  0  0  0
  -27.3594  -23.2403   23.0573 C   0  0  0  0  0  0
  -29.3248  -18.3610   20.1901 C   0  0  0  0  0  0
  -28.7246  -23.6838   20.2204 C   0  0  0  0  0  0
  -30.1572  -17.2311   20.9762 C   0  0  0  0  0  0
  -28.1416  -25.0936   20.7725 C   0  0  0  0  0  0
  -29.8140  -15.7705   20.7541 N   0  0  0  0  0  0
  -27.1839  -20.4870   24.3956 Cl  0  0  0  0  0  0
  -31.4784  -12.5653   19.1435 H   0  0  0  0  0  0
  -30.3919  -11.4390   19.9157 H   0  0  0  0  0  0
  -29.7872  -11.7445   17.4904 H   0  0  0  0  0  0
  -29.6429  -13.4671   17.7230 H   0  0  0  0  0  0
  -27.8805  -11.2821   18.8783 H   0  0  0  0  0  0
  -27.3801  -12.5491   17.7890 H   0  0  0  0  0  0
  -27.6541  -14.2436   19.4903 H   0  0  0  0  0  0
  -28.7236  -12.0991   21.3901 H   0  0  0  0  0  0
  -28.4323  -13.7646   21.8152 H   0  0  0  0  0  0
  -25.2773   -9.5678   22.4718 H   0  0  0  0  0  0
  -23.9997   -7.4639   22.7507 H   0  0  0  0  0  0
  -21.0818   -8.8718   19.8962 H   0  0  0  0  0  0
  -22.3661  -10.9628   19.6136 H   0  0  0  0  0  0
  -21.1993   -7.6137   23.9667 H   0  0  0  0  0  0
  -21.1495   -6.0527   25.9040 H   0  0  0  0  0  0
  -22.0612   -2.7608   23.2831 H   0  0  0  0  0  0
  -22.4199  -11.9845   22.4712 H   0  0  0  0  0  0
  -21.1175  -13.1219   22.2650 H   0  0  0  0  0  0
  -24.6618  -15.8415   20.4900 H   0  0  0  0  0  0
  -26.2758  -15.6208   20.0622 H   0  0  0  0  0  0
  -26.7219  -32.5421   23.1066 H   0  0  0  0  0  0
  -25.0101  -33.9744   25.0394 H   0  0  0  0  0  0
  -22.7261  -31.3063   21.3918 H   0  0  0  0  0  0
  -23.3749  -35.9632   23.3339 H   0  0  0  0  0  0
  -24.3564  -36.8941   22.2063 H   0  0  0  0  0  0
  -23.7228  -37.6506   23.6668 H   0  0  0  0  0  0
  -26.1056  -31.5349   20.5973 H   0  0  0  0  0  0
  -26.8453  -30.8289   22.0017 H   0  0  0  0  0  0
  -28.1233  -28.9468   21.1889 H   0  0  0  0  0  0
  -26.0098  -25.9224   18.9690 H   0  0  0  0  0  0
  -23.9697  -27.3011   19.0089 H   0  0  0  0  0  0
  -23.7722  -30.5881   19.4085 H   0  0  0  0  0  0
  -22.7548  -29.2516   19.8505 H   0  0  0  0  0  0
  -25.1274  -36.1934   25.0797 H   0  0  0  0  0  0
  -20.9942  -28.3356   24.1385 H   0  0  0  0  0  0
  -20.5719  -26.2349   23.3597 H   0  0  0  0  0  0
  -21.6622  -26.7519   22.1157 H   0  0  0  0  0  0
  -19.6959  -25.6319   21.1250 H   0  0  0  0  0  0
  -19.6711  -27.3172   20.6712 H   0  0  0  0  0  0
  -17.4200  -26.6678   21.4012 H   0  0  0  0  0  0
  -18.0322  -26.0096   22.9006 H   0  0  0  0  0  0
  -19.7958  -30.7235   24.2268 H   0  0  0  0  0  0
  -17.5067  -31.6290   24.5173 H   0  0  0  0  0  0
  -15.5368  -30.3025   23.7708 H   0  0  0  0  0  0
  -15.8650  -28.0872   22.7078 H   0  0  0  0  0  0
  -24.5842  -30.7124   25.7769 H   0  0  0  0  0  0
  -24.8819  -32.2928   26.4850 H   0  0  0  0  0  0
  -25.7931  -30.8977   27.0248 H   0  0  0  0  0  0
  -26.2907  -29.6762   24.1297 H   0  0  0  0  0  0
  -27.4068  -29.7332   25.4746 H   0  0  0  0  0  0
  -27.8741  -30.4352   23.9418 H   0  0  0  0  0  0
  -27.2641  -33.3700   26.2048 H   0  0  0  0  0  0
  -28.3830  -32.6938   25.0358 H   0  0  0  0  0  0
  -28.0650  -31.8552   26.5490 H   0  0  0  0  0  0
  -28.2572  -38.0098   24.7514 H   0  0  0  0  0  0
  -28.1053  -36.2625   24.6276 H   0  0  0  0  0  0
  -27.2276  -37.1443   25.8867 H   0  0  0  0  0  0
  -20.9427  -29.8832   21.6836 H   0  0  0  0  0  0
  -26.0181  -38.2858   24.1412 H   0  0  0  0  0  0
  -29.4678  -21.1433   19.3304 H   0  0  0  0  0  0
  -28.2608  -18.6836   22.6510 H   0  0  0  0  0  0
  -26.4963  -23.6569   22.5401 H   0  0  0  0  0  0
  -28.0982  -24.0072   23.2705 H   0  0  0  0  0  0
  -26.9884  -22.9586   24.0381 H   0  0  0  0  0  0
  -29.8307  -18.5880   19.2510 H   0  0  0  0  0  0
  -28.3701  -17.9236   19.8945 H   0  0  0  0  0  0
  -28.3370  -23.5399   19.2103 H   0  0  0  0  0  0
  -29.8006  -23.8156   20.0894 H   0  0  0  0  0  0
  -30.0220  -17.3829   22.0467 H   0  0  0  0  0  0
  -31.2230  -17.3937   20.8104 H   0  0  0  0  0  0
  -28.6270  -25.2792   21.7268 H   0  0  0  0  0  0
  -27.0799  -24.9647   20.9644 H   0  0  0  0  0  0
  -28.8518  -15.5304   20.9387 H   0  0  0  0  0  0
  1 25  1  0  0  0
  1 30  2  0  0  0
  1 82  1  0  0  0
  2  3  1  0  0  0
  2 25  1  0  0  0
  2 84  1  0  0  0
  2 85  1  0  0  0
  3  4  1  0  0  0
  3 86  1  0  0  0
  3 87  1  0  0  0
  4  5  1  0  0  0
  4 88  1  0  0  0
  4 89  1  0  0  0
  5  6  1  0  0  0
  5 26  1  0  0  0
  5 90  1  0  0  0
  6 25  1  0  0  0
  6 91  1  0  0  0
  6 92  1  0  0  0
  7  8  2  0  0  0
  7 26  1  0  0  0
  7 29  1  0  0  0
  8  9  1  0  0  0
  8 22  1  0  0  0
  9 10  1  0  0  0
  9 27  2  0  0  0
 10 11  2  0  0  0
 10 15  1  0  0  0
 11 12  1  0  0  0
 11 93  1  0  0  0
 12 13  2  0  0  0
 12 94  1  0  0  0
 13 14  1  0  0  0
 13 31  1  0  0  0
 14 15  2  0  0  0
 14 95  1  0  0  0
 15 96  1  0  0  0
 16 17  2  0  0  0
 16 21  1  0  0  0
 16 31  1  0  0  0
 17 18  1  0  0  0
 17 97  1  0  0  0
 18 19  2  0  0  0
 18 98  1  0  0  0
 19 20  1  0  0  0
 19 24  1  0  0  0
 20 21  2  0  0  0
 20 99  1  0  0  0
 21 23  1  0  0  0
 22 28  1  0  0  0
 22 32  2  0  0  0
 26 27  1  0  0  0
 28100  1  0  0  0
 28101  1  0  0  0
 29102  1  0  0  0
 29103  1  0  0  0
 33 34  1  0  0  0
 33 66  1  0  0  0
 33 70  2  0  0  0
 34 36  1  0  0  0
 34 59  1  0  0  0
 34104  1  0  0  0
 35 44  2  0  0  0
 35 45  1  0  0  0
 35 68  1  0  0  0
 36 56  1  0  0  0
 36105  1  0  0  0
 37 39  1  0  0  0
 37 47  1  0  0  0
 37 66  1  0  0  0
 37106  1  0  0  0
 38 43  2  0  0  0
 38 46  1  0  0  0
 38 47  1  0  0  0
 39 64  1  0  0  0
 39 67  2  0  0  0
 40 52  1  0  0  0
 40 53  2  0  0  0
 40 58  1  0  0  0
 41107  1  0  0  0
 41108  1  0  0  0
 41109  1  0  0  0
 41 48  1  0  0  0
 42 43  1  0  0  0
 42 66  1  0  0  0
 42110  1  0  0  0
 42111  1  0  0  0
 43 44  1  0  0  0
 44112  1  0  0  0
 45 46  2  0  0  0
 45113  1  0  0  0
 46114  1  0  0  0
 47115  1  0  0  0
 47116  1  0  0  0
 48 56  1  0  0  0
 48 65  1  0  0  0
 48117  1  0  0  0
 49 50  1  0  0  0
 49 53  1  0  0  0
 49 64  1  0  0  0
 49118  1  0  0  0
 50 51  1  0  0  0
 50119  1  0  0  0
 50120  1  0  0  0
 51 52  1  0  0  0
 51121  1  0  0  0
 51122  1  0  0  0
 52123  1  0  0  0
 52124  1  0  0  0
 53 54  1  0  0  0
 54 55  2  0  0  0
 54125  1  0  0  0
 55 57  1  0  0  0
 55126  1  0  0  0
 56 69  2  0  0  0
 57 58  2  0  0  0
 57127  1  0  0  0
 58128  1  0  0  0
 59 60  1  0  0  0
 59 61  1  0  0  0
 59 62  1  0  0  0
 60129  1  0  0  0
 60130  1  0  0  0
 60131  1  0  0  0
 61132  1  0  0  0
 61133  1  0  0  0
 61134  1  0  0  0
 62135  1  0  0  0
 62136  1  0  0  0
 62137  1  0  0  0
 63 65  1  0  0  0
 63138  1  0  0  0
 63139  1  0  0  0
 63140  1  0  0  0
 64141  1  0  0  0
 65142  1  0  0  0
 68 81  1  0  0  0
 71 73  2  0  0  0
 71 74  1  0  0  0
 71143  1  0  0  0
 72 73  1  0  0  0
 72 76  2  0  0  0
 72144  1  0  0  0
 73 78  1  0  0  0
 74 75  2  0  0  0
 74 79  1  0  0  0
 75 76  1  0  0  0
 75 77  1  0  0  0
 76 83  1  0  0  0
 77145  1  0  0  0
 77146  1  0  0  0
 77147  1  0  0  0
 78 80  1  0  0  0
 78148  1  0  0  0
 78149  1  0  0  0
 79 81  1  0  0  0
 79150  1  0  0  0
 79151  1  0  0  0
 80 82  1  0  0  0
 80152  1  0  0  0
 80153  1  0  0  0
 81154  1  0  0  0
 81155  1  0  0  0
 82156  1  0  0  0
M  ISO  4   1 100  68 101  81 101  82 100
M  END
> <chiral flag>
0

> <version>
0

> <s_m_source_file>
/data/baiqing/PycharmProjects/Reinvent-master-3.2/result/LINK_invent/BTK/process_docking_weight1_custom_sum_contain_oxygen_bond_distance_aromatic_linkinvent_7_9_3/rearranged_h_0029.sdf

> <i_m_source_file_index>
92

> <r_mmod_Potential_Energy-OPLS-2005>
150.501800537109

> <r_mmod_Stretch_Energy-OPLS-2005>
110.30655670166

> <r_mmod_Bend_Energy-OPLS-2005>
165.839141845703

> <r_mmod_Torsional_Energy-OPLS-2005>
231.057556152344

> <r_mmod_Improper_Torsional_Energy-OPLS-2005>
4.61823701858521

> <r_mmod_Van_der_Waal_Energy-OPLS-2005>
150.10661315918

> <r_mmod_Electrostatic_Energy-OPLS-2005>
-368.320373535156

> <r_mmod_Solvation_Energy-OPLS-2005>
-206.888427734375

> <b_mmod_Minimization_Converged-OPLS-2005>
0

> <r_mmod_RMS_Derivative-OPLS-2005>
3.58909749984741

$$$$
93
                    3D
 Structure written by MMmdl.
156164  0  0  1  0            999 V2000
  -30.6056  -14.6314   20.4779 C   0  0  0  0  0  0
  -30.4360  -12.3815   19.4420 C   0  0  0  0  0  0
  -29.4995  -12.4945   18.2173 C   0  0  0  0  0  0
  -28.0233  -12.3323   18.6349 C   0  0  0  0  0  0
  -27.6497  -13.2071   19.8596 C   0  0  2  0  0  0
  -28.6965  -13.0580   20.9865 C   0  0  0  0  0  0
  -25.2543  -13.8153   20.5645 C   0  0  0  0  0  0
  -24.1814  -13.0434   20.9197 C   0  0  0  0  0  0
  -24.6374  -11.6902   20.8762 C   0  0  0  0  0  0
  -23.9045  -10.4292   21.0427 C   0  0  0  0  0  0
  -24.3609   -9.4204   21.9194 C   0  0  0  0  0  0
  -23.6289   -8.2238   22.0755 C   0  0  0  0  0  0
  -22.4271   -8.0279   21.3547 C   0  0  0  0  0  0
  -21.9902   -9.0251   20.4649 C   0  0  0  0  0  0
  -22.7225  -10.2132   20.3066 C   0  0  0  0  0  0
  -21.6849   -6.0738   22.5282 C   0  0  0  0  0  0
  -21.4003   -6.5646   23.8212 C   0  0  0  0  0  0
  -21.3653   -5.6799   24.9174 C   0  0  0  0  0  0
  -21.6042   -4.3062   24.7224 C   0  0  0  0  0  0
  -21.8822   -3.8153   23.4345 C   0  0  0  0  0  0
  -21.9192   -4.6969   22.3402 C   0  0  0  0  0  0
  -22.7841  -13.5234   21.1863 C   0  0  0  0  0  0
  -22.1664   -4.2162   21.0977 F   0  0  0  0  0  0
  -21.5630   -3.4544   25.7734 F   0  0  0  0  0  0
  -30.0106  -13.4000   20.4194 N   0  0  0  0  0  0
  -26.2965  -12.9316   20.3309 N   0  0  0  0  0  0
  -25.9295  -11.6491   20.5781 N   0  0  0  0  0  0
  -22.0483  -12.8227   22.0429 N   0  0  0  0  0  0
  -25.4226  -15.1860   20.3948 N   0  0  0  0  0  0
  -31.7772  -14.8038   20.1307 O   0  0  0  0  0  0
  -21.6635   -6.8875   21.4243 O   0  0  0  0  0  0
  -22.3526  -14.5546   20.6716 O   0  0  0  0  0  0
  -24.6273  -31.8610   23.2036 C   0  0  0  0  0  0
  -25.9126  -32.4790   23.8363 C   0  0  1  0  0  0
  -27.2252  -27.3277   20.1065 C   0  0  0  0  0  0
  -25.5951  -33.8588   24.2299 N   0  0  0  0  0  0
  -23.4193  -30.4842   21.5479 C   0  0  2  0  0  0
  -24.8649  -28.9437   20.1113 C   0  0  0  0  0  0
  -22.7487  -29.4610   22.4969 C   0  0  0  0  0  0
  -18.0279  -28.1378   22.8483 C   0  0  0  0  0  0
  -24.1491  -36.7281   23.2640 C   0  0  0  0  0  0
  -25.9602  -30.7944   21.3741 C   0  0  0  0  0  0
  -26.0335  -29.4228   20.7160 C   0  0  0  0  0  0
  -27.2164  -28.6252   20.7051 C   0  0  0  0  0  0
  -26.0293  -26.9030   19.4799 C   0  0  0  0  0  0
  -24.8649  -27.6895   19.4856 C   0  0  0  0  0  0
  -23.6313  -29.8200   20.1637 C   0  0  0  0  0  0
  -25.4106  -36.3080   24.0334 C   0  0  1  0  0  0
  -20.5885  -28.3649   23.1314 C   0  0  2  0  0  0
  -20.6775  -26.9378   22.5417 C   0  0  0  0  0  0
  -19.5743  -26.6360   21.5233 C   0  0  0  0  0  0
  -18.1921  -26.7913   22.1634 C   0  0  0  0  0  0
  -19.1540  -28.8830   23.2889 C   0  0  0  0  0  0
  -18.9466  -30.1447   23.8877 C   0  0  0  0  0  0
  -17.6469  -30.6576   24.0551 C   0  0  0  0  0  0
  -25.9041  -34.9456   23.5101 C   0  0  0  0  0  0
  -16.5351  -29.9070   23.6346 C   0  0  0  0  0  0
  -16.7274  -28.6497   23.0342 C   0  0  0  0  0  0
  -26.4501  -31.6595   25.0727 C   0  0  0  0  0  0
  -25.3746  -31.3764   26.1472 C   0  0  0  0  0  0
  -27.0341  -30.3030   24.6153 C   0  0  0  0  0  0
  -27.6045  -32.4340   25.7505 C   0  0  0  0  0  0
  -27.5568  -37.1789   24.8469 C   0  0  0  0  0  0
  -21.4197  -29.3016   22.3717 N   0  0  0  0  0  0
  -26.4278  -37.3776   23.9418 N   0  0  0  0  0  0
  -24.6872  -31.0635   22.0991 N   0  0  0  0  0  0
  -23.4215  -28.8154   23.3036 O   0  0  0  0  0  0
  -28.3474  -26.4833   20.1497 O   0  0  0  0  0  0
  -26.5589  -34.8919   22.4652 O   0  0  0  0  0  0
  -23.5428  -32.1406   23.7361 O   0  0  0  0  0  0
  -29.3455  -19.2319   19.3825 C   0  0  0  0  0  0
  -30.5428  -19.3302   21.4658 C   0  0  0  0  0  0
  -29.9648  -20.0339   20.3759 C   0  0  0  0  0  0
  -29.3047  -17.8039   19.4698 C   0  0  0  0  0  0
  -29.9118  -17.1072   20.5603 C   0  0  0  0  0  0
  -30.5199  -17.9098   21.5633 C   0  0  0  0  0  0
  -28.5919  -17.0398   18.3642 C   0  0  0  0  0  0
  -30.1689  -21.5883   20.2277 C   0  0  0  0  0  0
  -29.3092  -24.0177   20.2951 C   0  0  0  0  0  0
  -28.1220  -25.0259   19.9982 C   0  0  0  0  0  0
  -29.7528  -15.6689   20.7322 N   0  0  0  0  0  0
  -28.9877  -22.5279   20.2149 N   0  3  0  0  0  0
  -31.2214  -17.1674   22.9581 Cl  0  0  0  0  0  0
  -31.4761  -12.5105   19.1381 H   0  0  0  0  0  0
  -30.3724  -11.3861   19.8841 H   0  0  0  0  0  0
  -29.7597  -11.7384   17.4745 H   0  0  0  0  0  0
  -29.6376  -13.4617   17.7302 H   0  0  0  0  0  0
  -27.8647  -11.2792   18.8739 H   0  0  0  0  0  0
  -27.3640  -12.5533   17.7946 H   0  0  0  0  0  0
  -27.6665  -14.2398   19.5136 H   0  0  0  0  0  0
  -28.7067  -12.0348   21.3645 H   0  0  0  0  0  0
  -28.4472  -13.6879   21.8417 H   0  0  0  0  0  0
  -25.2749   -9.5691   22.4769 H   0  0  0  0  0  0
  -24.0007   -7.4626   22.7466 H   0  0  0  0  0  0
  -21.0839   -8.8764   19.8947 H   0  0  0  0  0  0
  -22.3681  -10.9677   19.6181 H   0  0  0  0  0  0
  -21.1989   -7.6153   23.9719 H   0  0  0  0  0  0
  -21.1468   -6.0525   25.9077 H   0  0  0  0  0  0
  -22.0605   -2.7618   23.2838 H   0  0  0  0  0  0
  -22.4104  -11.9889   22.4823 H   0  0  0  0  0  0
  -21.1100  -13.1252   22.2645 H   0  0  0  0  0  0
  -24.6404  -15.8274   20.4666 H   0  0  0  0  0  0
  -26.2489  -15.6164   20.0034 H   0  0  0  0  0  0
  -26.7187  -32.5445   23.1102 H   0  0  0  0  0  0
  -25.0191  -33.9751   25.0505 H   0  0  0  0  0  0
  -22.7114  -31.3025   21.4054 H   0  0  0  0  0  0
  -23.3765  -35.9611   23.3307 H   0  0  0  0  0  0
  -24.3588  -36.8888   22.2056 H   0  0  0  0  0  0
  -23.7246  -37.6477   23.6654 H   0  0  0  0  0  0
  -26.0900  -31.5594   20.6071 H   0  0  0  0  0  0
  -26.8432  -30.8437   21.9997 H   0  0  0  0  0  0
  -28.1118  -28.9864   21.1898 H   0  0  0  0  0  0
  -25.9586  -25.9503   18.9797 H   0  0  0  0  0  0
  -23.9708  -27.3160   19.0073 H   0  0  0  0  0  0
  -23.7376  -30.5945   19.4039 H   0  0  0  0  0  0
  -22.7552  -29.2399   19.8666 H   0  0  0  0  0  0
  -25.1299  -36.1915   25.0827 H   0  0  0  0  0  0
  -20.9955  -28.3188   24.1445 H   0  0  0  0  0  0
  -20.5705  -26.2244   23.3600 H   0  0  0  0  0  0
  -21.6635  -26.7421   22.1181 H   0  0  0  0  0  0
  -19.6899  -25.6284   21.1237 H   0  0  0  0  0  0
  -19.6686  -27.3192   20.6785 H   0  0  0  0  0  0
  -17.4197  -26.6682   21.4022 H   0  0  0  0  0  0
  -18.0279  -26.0061   22.9022 H   0  0  0  0  0  0
  -19.7959  -30.7284   24.2192 H   0  0  0  0  0  0
  -17.5031  -31.6261   24.5148 H   0  0  0  0  0  0
  -15.5353  -30.2959   23.7709 H   0  0  0  0  0  0
  -15.8671  -28.0834   22.7038 H   0  0  0  0  0  0
  -24.5894  -30.7128   25.7836 H   0  0  0  0  0  0
  -24.8973  -32.2950   26.4887 H   0  0  0  0  0  0
  -25.8079  -30.8957   27.0252 H   0  0  0  0  0  0
  -26.2909  -29.6786   24.1179 H   0  0  0  0  0  0
  -27.4084  -29.7275   25.4628 H   0  0  0  0  0  0
  -27.8758  -30.4363   23.9363 H   0  0  0  0  0  0
  -27.2651  -33.3665   26.2028 H   0  0  0  0  0  0
  -28.3886  -32.6843   25.0351 H   0  0  0  0  0  0
  -28.0670  -31.8498   26.5465 H   0  0  0  0  0  0
  -28.2573  -38.0093   24.7502 H   0  0  0  0  0  0
  -28.1069  -36.2609   24.6305 H   0  0  0  0  0  0
  -27.2283  -37.1468   25.8875 H   0  0  0  0  0  0
  -20.9355  -29.8772   21.6974 H   0  0  0  0  0  0
  -26.0153  -38.2847   24.1423 H   0  0  0  0  0  0
  -28.9017  -19.7174   18.5249 H   0  0  0  0  0  0
  -31.0400  -19.8853   22.2486 H   0  0  0  0  0  0
  -28.6252  -17.5962   17.4270 H   0  0  0  0  0  0
  -27.5443  -16.8831   18.6224 H   0  0  0  0  0  0
  -29.0512  -16.0693   18.1778 H   0  0  0  0  0  0
  -30.7437  -21.7589   19.3160 H   0  0  0  0  0  0
  -30.8252  -21.9075   21.0380 H   0  0  0  0  0  0
  -29.7015  -24.2239   21.2914 H   0  0  0  0  0  0
  -30.1186  -24.2322   19.5972 H   0  0  0  0  0  0
  -27.2827  -24.7412   20.6343 H   0  0  0  0  0  0
  -27.8107  -24.8392   18.9701 H   0  0  0  0  0  0
  -28.8144  -15.3699   20.9441 H   0  0  0  0  0  0
  -28.3857  -22.2780   20.9830 H   0  0  0  0  0  0
  -28.4777  -22.3446   19.3655 H   0  0  0  0  0  0
  1 25  1  0  0  0
  1 30  2  0  0  0
  1 81  1  0  0  0
  2  3  1  0  0  0
  2 25  1  0  0  0
  2 84  1  0  0  0
  2 85  1  0  0  0
  3  4  1  0  0  0
  3 86  1  0  0  0
  3 87  1  0  0  0
  4  5  1  0  0  0
  4 88  1  0  0  0
  4 89  1  0  0  0
  5  6  1  0  0  0
  5 26  1  0  0  0
  5 90  1  0  0  0
  6 25  1  0  0  0
  6 91  1  0  0  0
  6 92  1  0  0  0
  7  8  2  0  0  0
  7 26  1  0  0  0
  7 29  1  0  0  0
  8  9  1  0  0  0
  8 22  1  0  0  0
  9 10  1  0  0  0
  9 27  2  0  0  0
 10 11  2  0  0  0
 10 15  1  0  0  0
 11 12  1  0  0  0
 11 93  1  0  0  0
 12 13  2  0  0  0
 12 94  1  0  0  0
 13 14  1  0  0  0
 13 31  1  0  0  0
 14 15  2  0  0  0
 14 95  1  0  0  0
 15 96  1  0  0  0
 16 17  2  0  0  0
 16 21  1  0  0  0
 16 31  1  0  0  0
 17 18  1  0  0  0
 17 97  1  0  0  0
 18 19  2  0  0  0
 18 98  1  0  0  0
 19 20  1  0  0  0
 19 24  1  0  0  0
 20 21  2  0  0  0
 20 99  1  0  0  0
 21 23  1  0  0  0
 22 28  1  0  0  0
 22 32  2  0  0  0
 26 27  1  0  0  0
 28100  1  0  0  0
 28101  1  0  0  0
 29102  1  0  0  0
 29103  1  0  0  0
 33 34  1  0  0  0
 33 66  1  0  0  0
 33 70  2  0  0  0
 34 36  1  0  0  0
 34 59  1  0  0  0
 34104  1  0  0  0
 35 44  2  0  0  0
 35 45  1  0  0  0
 35 68  1  0  0  0
 36 56  1  0  0  0
 36105  1  0  0  0
 37 39  1  0  0  0
 37 47  1  0  0  0
 37 66  1  0  0  0
 37106  1  0  0  0
 38 43  2  0  0  0
 38 46  1  0  0  0
 38 47  1  0  0  0
 39 64  1  0  0  0
 39 67  2  0  0  0
 40 52  1  0  0  0
 40 53  2  0  0  0
 40 58  1  0  0  0
 41107  1  0  0  0
 41108  1  0  0  0
 41109  1  0  0  0
 41 48  1  0  0  0
 42 43  1  0  0  0
 42 66  1  0  0  0
 42110  1  0  0  0
 42111  1  0  0  0
 43 44  1  0  0  0
 44112  1  0  0  0
 45 46  2  0  0  0
 45113  1  0  0  0
 46114  1  0  0  0
 47115  1  0  0  0
 47116  1  0  0  0
 48 56  1  0  0  0
 48 65  1  0  0  0
 48117  1  0  0  0
 49 50  1  0  0  0
 49 53  1  0  0  0
 49 64  1  0  0  0
 49118  1  0  0  0
 50 51  1  0  0  0
 50119  1  0  0  0
 50120  1  0  0  0
 51 52  1  0  0  0
 51121  1  0  0  0
 51122  1  0  0  0
 52123  1  0  0  0
 52124  1  0  0  0
 53 54  1  0  0  0
 54 55  2  0  0  0
 54125  1  0  0  0
 55 57  1  0  0  0
 55126  1  0  0  0
 56 69  2  0  0  0
 57 58  2  0  0  0
 57127  1  0  0  0
 58128  1  0  0  0
 59 60  1  0  0  0
 59 61  1  0  0  0
 59 62  1  0  0  0
 60129  1  0  0  0
 60130  1  0  0  0
 60131  1  0  0  0
 61132  1  0  0  0
 61133  1  0  0  0
 61134  1  0  0  0
 62135  1  0  0  0
 62136  1  0  0  0
 62137  1  0  0  0
 63 65  1  0  0  0
 63138  1  0  0  0
 63139  1  0  0  0
 63140  1  0  0  0
 64141  1  0  0  0
 65142  1  0  0  0
 68 80  1  0  0  0
 71 73  2  0  0  0
 71 74  1  0  0  0
 71143  1  0  0  0
 72 73  1  0  0  0
 72 76  2  0  0  0
 72144  1  0  0  0
 73 78  1  0  0  0
 74 75  2  0  0  0
 74 77  1  0  0  0
 75 76  1  0  0  0
 75 81  1  0  0  0
 76 83  1  0  0  0
 77145  1  0  0  0
 77146  1  0  0  0
 77147  1  0  0  0
 78 82  1  0  0  0
 78148  1  0  0  0
 78149  1  0  0  0
 79 80  1  0  0  0
 79 82  1  0  0  0
 79150  1  0  0  0
 79151  1  0  0  0
 80152  1  0  0  0
 80153  1  0  0  0
 81154  1  0  0  0
 82155  1  0  0  0
 82156  1  0  0  0
M  CHG  1  82   1
M  ISO  4   1 100  68 101  80 101  81 100
M  END
> <chiral flag>
0

> <version>
0

> <s_m_source_file>
/data/baiqing/PycharmProjects/Reinvent-master-3.2/result/LINK_invent/BTK/process_docking_weight1_custom_sum_contain_oxygen_bond_distance_aromatic_linkinvent_7_9_3/rearranged_h_0029.sdf

> <i_m_source_file_index>
93

> <r_mmod_Potential_Energy-OPLS-2005>
-161.537460327148

> <r_mmod_Stretch_Energy-OPLS-2005>
73.4650268554688

> <r_mmod_Bend_Energy-OPLS-2005>
123.601295471191

> <r_mmod_Torsional_Energy-OPLS-2005>
233.069702148438

> <r_mmod_Improper_Torsional_Energy-OPLS-2005>
6.9332423210144

> <r_mmod_Van_der_Waal_Energy-OPLS-2005>
138.868850708008

> <r_mmod_Electrostatic_Energy-OPLS-2005>
-304.304565429688

> <r_mmod_Solvation_Energy-OPLS-2005>
-480.016357421875

> <b_mmod_Minimization_Converged-OPLS-2005>
0

> <r_mmod_RMS_Derivative-OPLS-2005>
2.10196566581726

$$$$
94
                    3D
 Structure written by MMmdl.
151159  0  0  1  0            999 V2000
  -30.4523  -15.1151   20.4314 C   0  0  0  0  0  0
  -30.4535  -12.6932   19.5269 C   0  0  0  0  0  0
  -29.5394  -12.5646   18.2817 C   0  0  0  0  0  0
  -28.0732  -12.3217   18.6907 C   0  0  0  0  0  0
  -27.6288  -13.2604   19.8401 C   0  0  2  0  0  0
  -28.6658  -13.3284   20.9797 C   0  0  0  0  0  0
  -25.2461  -13.8227   20.5738 C   0  0  0  0  0  0
  -24.1787  -13.0430   20.9234 C   0  0  0  0  0  0
  -24.6424  -11.6920   20.8747 C   0  0  0  0  0  0
  -23.9112  -10.4288   21.0411 C   0  0  0  0  0  0
  -24.3656   -9.4200   21.9190 C   0  0  0  0  0  0
  -23.6317   -8.2241   22.0761 C   0  0  0  0  0  0
  -22.4291   -8.0292   21.3548 C   0  0  0  0  0  0
  -21.9933   -9.0271   20.4651 C   0  0  0  0  0  0
  -22.7282  -10.2135   20.3068 C   0  0  0  0  0  0
  -21.6857   -6.0751   22.5283 C   0  0  0  0  0  0
  -21.4020   -6.5654   23.8218 C   0  0  0  0  0  0
  -21.3655   -5.6804   24.9181 C   0  0  0  0  0  0
  -21.6041   -4.3065   24.7225 C   0  0  0  0  0  0
  -21.8817   -3.8159   23.4345 C   0  0  0  0  0  0
  -21.9194   -4.6978   22.3406 C   0  0  0  0  0  0
  -22.7806  -13.5194   21.1899 C   0  0  0  0  0  0
  -22.1666   -4.2164   21.0985 F   0  0  0  0  0  0
  -21.5622   -3.4544   25.7736 F   0  0  0  0  0  0
  -29.9293  -13.8016   20.3925 N   0  0  0  0  0  0
  -26.2898  -12.9483   20.3261 N   0  0  0  0  0  0
  -25.9363  -11.6594   20.5737 N   0  0  0  0  0  0
  -22.0460  -12.8185   22.0460 N   0  0  0  0  0  0
  -25.4104  -15.1963   20.4201 N   0  0  0  0  0  0
  -31.6312  -15.1945   20.0596 O   0  0  0  0  0  0
  -21.6645   -6.8893   21.4246 O   0  0  0  0  0  0
  -22.3491  -14.5497   20.6738 O   0  0  0  0  0  0
  -24.6531  -31.8330   23.1773 C   0  0  0  0  0  0
  -25.9248  -32.4638   23.8214 C   0  0  1  0  0  0
  -27.2219  -27.0219   20.1752 C   0  0  0  0  0  0
  -25.5945  -33.8453   24.2116 N   0  0  0  0  0  0
  -23.4640  -30.4486   21.5242 C   0  0  2  0  0  0
  -24.9168  -28.8488   20.1161 C   0  0  0  0  0  0
  -22.7626  -29.4487   22.4789 C   0  0  0  0  0  0
  -18.0328  -28.1406   22.8466 C   0  0  0  0  0  0
  -24.1496  -36.7241   23.2653 C   0  0  0  0  0  0
  -26.0282  -30.6691   21.3951 C   0  0  0  0  0  0
  -26.0979  -29.2683   20.7408 C   0  0  0  0  0  0
  -27.2494  -28.3747   20.7446 C   0  0  0  0  0  0
  -26.0100  -26.7290   19.5112 C   0  0  0  0  0  0
  -24.8914  -27.5961   19.4846 C   0  0  0  0  0  0
  -23.7002  -29.7677   20.1486 C   0  0  0  0  0  0
  -25.4137  -36.3000   24.0304 C   0  0  1  0  0  0
  -20.5949  -28.3744   23.1206 C   0  0  2  0  0  0
  -20.6806  -26.9430   22.5408 C   0  0  0  0  0  0
  -19.5778  -26.6371   21.5223 C   0  0  0  0  0  0
  -18.1957  -26.7939   22.1627 C   0  0  0  0  0  0
  -19.1585  -28.8896   23.2826 C   0  0  0  0  0  0
  -18.9499  -30.1486   23.8860 C   0  0  0  0  0  0
  -17.6490  -30.6593   24.0566 C   0  0  0  0  0  0
  -25.9086  -34.9374   23.5025 C   0  0  0  0  0  0
  -16.5380  -29.9086   23.6342 C   0  0  0  0  0  0
  -16.7309  -28.6516   23.0347 C   0  0  0  0  0  0
  -26.4527  -31.6560   25.0711 C   0  0  0  0  0  0
  -25.3657  -31.3797   26.1364 C   0  0  0  0  0  0
  -27.0431  -30.2945   24.6389 C   0  0  0  0  0  0
  -27.6031  -32.4366   25.7505 C   0  0  0  0  0  0
  -27.5557  -37.1800   24.8477 C   0  0  0  0  0  0
  -21.4304  -29.3046   22.3560 N   0  0  0  0  0  0
  -26.4303  -37.3703   23.9368 N   0  0  0  0  0  0
  -24.7356  -31.0087   22.0858 N   0  0  0  0  0  0
  -23.4221  -28.8047   23.2986 O   0  0  0  0  0  0
  -28.2665  -25.9889   20.2133 O   0  0  0  0  0  0
  -26.5688  -34.8888   22.4616 O   0  0  0  0  0  0
  -23.5619  -32.1248   23.6928 O   0  0  0  0  0  0
  -28.1471  -20.3919   20.2489 C   0  0  0  0  0  0
  -30.4381  -20.6328   20.4216 C   0  0  0  0  0  0
  -29.1985  -21.3836   20.2836 C   0  0  0  0  0  0
  -29.5629  -18.1853   20.5098 C   0  0  0  0  0  0
  -28.3153  -18.9262   20.3570 C   0  0  0  0  0  0
  -30.6226  -19.1728   20.5391 C   0  0  0  0  0  0
  -29.6909  -16.5179   22.4728 C   0  0  0  0  0  0
  -29.1720  -23.0898   20.0875 C   0  0  0  0  0  0
  -28.0359  -24.3944   20.3089 C   0  0  0  0  0  0
  -29.6080  -16.5228   20.9353 C   0  0  2  0  0  0
  -27.1749  -18.1958   20.3579 F   0  0  0  0  0  0
  -32.2364  -18.6106   20.7868 Cl  0  0  0  0  0  0
  -31.4825  -12.8789   19.2158 H   0  0  0  0  0  0
  -30.4797  -11.7521   20.0802 H   0  0  0  0  0  0
  -29.8877  -11.7574   17.6365 H   0  0  0  0  0  0
  -29.6051  -13.4804   17.6929 H   0  0  0  0  0  0
  -27.9840  -11.2816   19.0063 H   0  0  0  0  0  0
  -27.4126  -12.4354   17.8311 H   0  0  0  0  0  0
  -27.5775  -14.2561   19.3981 H   0  0  0  0  0  0
  -28.7893  -12.3571   21.4626 H   0  0  0  0  0  0
  -28.3234  -14.0103   21.7579 H   0  0  0  0  0  0
  -25.2796   -9.5662   22.4769 H   0  0  0  0  0  0
  -23.9999   -7.4626   22.7485 H   0  0  0  0  0  0
  -21.0857   -8.8810   19.8969 H   0  0  0  0  0  0
  -22.3751  -10.9678   19.6182 H   0  0  0  0  0  0
  -21.2027   -7.6158   23.9731 H   0  0  0  0  0  0
  -21.1478   -6.0534   25.9085 H   0  0  0  0  0  0
  -22.0599   -2.7618   23.2842 H   0  0  0  0  0  0
  -22.4066  -11.9838   22.4833 H   0  0  0  0  0  0
  -21.1090  -13.1230   22.2693 H   0  0  0  0  0  0
  -24.6439  -15.8444   20.5572 H   0  0  0  0  0  0
  -26.2625  -15.6559   20.1272 H   0  0  0  0  0  0
  -26.7311  -32.5200   23.0936 H   0  0  0  0  0  0
  -25.0055  -33.9548   25.0237 H   0  0  0  0  0  0
  -22.7722  -31.2771   21.3578 H   0  0  0  0  0  0
  -23.3723  -35.9616   23.3397 H   0  0  0  0  0  0
  -24.3546  -36.8794   22.2049 H   0  0  0  0  0  0
  -23.7325  -37.6489   23.6649 H   0  0  0  0  0  0
  -26.2007  -31.4134   20.6168 H   0  0  0  0  0  0
  -26.8926  -30.7230   22.0456 H   0  0  0  0  0  0
  -28.1497  -28.6944   21.2502 H   0  0  0  0  0  0
  -25.8975  -25.7770   19.0157 H   0  0  0  0  0  0
  -23.9914  -27.2704   18.9811 H   0  0  0  0  0  0
  -23.8529  -30.5381   19.3914 H   0  0  0  0  0  0
  -22.8116  -29.2196   19.8313 H   0  0  0  0  0  0
  -25.1347  -36.1820   25.0800 H   0  0  0  0  0  0
  -21.0053  -28.3350   24.1323 H   0  0  0  0  0  0
  -20.5713  -26.2353   23.3641 H   0  0  0  0  0  0
  -21.6666  -26.7415   22.1194 H   0  0  0  0  0  0
  -19.6939  -25.6271   21.1280 H   0  0  0  0  0  0
  -19.6725  -27.3162   20.6741 H   0  0  0  0  0  0
  -17.4228  -26.6691   21.4028 H   0  0  0  0  0  0
  -18.0345  -26.0089   22.9036 H   0  0  0  0  0  0
  -19.7970  -30.7319   24.2199 H   0  0  0  0  0  0
  -17.5040  -31.6269   24.5178 H   0  0  0  0  0  0
  -15.5378  -30.2981   23.7684 H   0  0  0  0  0  0
  -15.8709  -28.0836   22.7060 H   0  0  0  0  0  0
  -24.5839  -30.7156   25.7655 H   0  0  0  0  0  0
  -24.8838  -32.2998   26.4679 H   0  0  0  0  0  0
  -25.7867  -30.9021   27.0216 H   0  0  0  0  0  0
  -26.3092  -29.6624   24.1372 H   0  0  0  0  0  0
  -27.3985  -29.7297   25.5016 H   0  0  0  0  0  0
  -27.9012  -30.4169   23.9779 H   0  0  0  0  0  0
  -27.2601  -33.3696   26.1990 H   0  0  0  0  0  0
  -28.3879  -32.6885   25.0361 H   0  0  0  0  0  0
  -28.0653  -31.8558   26.5492 H   0  0  0  0  0  0
  -28.2634  -38.0028   24.7388 H   0  0  0  0  0  0
  -28.0990  -36.2551   24.6488 H   0  0  0  0  0  0
  -27.2248  -37.1669   25.8875 H   0  0  0  0  0  0
  -20.9534  -29.8753   21.6717 H   0  0  0  0  0  0
  -26.0169  -38.2786   24.1288 H   0  0  0  0  0  0
  -27.1352  -20.7555   20.1394 H   0  0  0  0  0  0
  -31.3448  -21.2220   20.4506 H   0  0  0  0  0  0
  -29.6961  -15.5127   22.8947 H   0  0  0  0  0  0
  -28.8402  -17.0430   22.9078 H   0  0  0  0  0  0
  -30.5968  -17.0190   22.8144 H   0  0  0  0  0  0
  -29.4998  -23.2120   19.0545 H   0  0  0  0  0  0
  -30.0393  -23.4069   20.6665 H   0  0  0  0  0  0
  -27.6331  -24.2542   21.3123 H   0  0  0  0  0  0
  -27.2008  -24.1591   19.6509 H   0  0  0  0  0  0
  -28.5905  -16.2191   20.6916 H   0  0  0  0  0  0
  1 25  1  0  0  0
  1 30  2  0  0  0
  1 80  1  0  0  0
  2  3  1  0  0  0
  2 25  1  0  0  0
  2 83  1  0  0  0
  2 84  1  0  0  0
  3  4  1  0  0  0
  3 85  1  0  0  0
  3 86  1  0  0  0
  4  5  1  0  0  0
  4 87  1  0  0  0
  4 88  1  0  0  0
  5  6  1  0  0  0
  5 26  1  0  0  0
  5 89  1  0  0  0
  6 25  1  0  0  0
  6 90  1  0  0  0
  6 91  1  0  0  0
  7  8  2  0  0  0
  7 26  1  0  0  0
  7 29  1  0  0  0
  8  9  1  0  0  0
  8 22  1  0  0  0
  9 10  1  0  0  0
  9 27  2  0  0  0
 10 11  2  0  0  0
 10 15  1  0  0  0
 11 12  1  0  0  0
 11 92  1  0  0  0
 12 13  2  0  0  0
 12 93  1  0  0  0
 13 14  1  0  0  0
 13 31  1  0  0  0
 14 15  2  0  0  0
 14 94  1  0  0  0
 15 95  1  0  0  0
 16 17  2  0  0  0
 16 21  1  0  0  0
 16 31  1  0  0  0
 17 18  1  0  0  0
 17 96  1  0  0  0
 18 19  2  0  0  0
 18 97  1  0  0  0
 19 20  1  0  0  0
 19 24  1  0  0  0
 20 21  2  0  0  0
 20 98  1  0  0  0
 21 23  1  0  0  0
 22 28  1  0  0  0
 22 32  2  0  0  0
 26 27  1  0  0  0
 28 99  1  0  0  0
 28100  1  0  0  0
 29101  1  0  0  0
 29102  1  0  0  0
 33 34  1  0  0  0
 33 66  1  0  0  0
 33 70  2  0  0  0
 34 36  1  0  0  0
 34 59  1  0  0  0
 34103  1  0  0  0
 35 44  2  0  0  0
 35 45  1  0  0  0
 35 68  1  0  0  0
 36 56  1  0  0  0
 36104  1  0  0  0
 37 39  1  0  0  0
 37 47  1  0  0  0
 37 66  1  0  0  0
 37105  1  0  0  0
 38 43  2  0  0  0
 38 46  1  0  0  0
 38 47  1  0  0  0
 39 64  1  0  0  0
 39 67  2  0  0  0
 40 52  1  0  0  0
 40 53  2  0  0  0
 40 58  1  0  0  0
 41106  1  0  0  0
 41107  1  0  0  0
 41108  1  0  0  0
 41 48  1  0  0  0
 42 43  1  0  0  0
 42 66  1  0  0  0
 42109  1  0  0  0
 42110  1  0  0  0
 43 44  1  0  0  0
 44111  1  0  0  0
 45 46  2  0  0  0
 45112  1  0  0  0
 46113  1  0  0  0
 47114  1  0  0  0
 47115  1  0  0  0
 48 56  1  0  0  0
 48 65  1  0  0  0
 48116  1  0  0  0
 49 50  1  0  0  0
 49 53  1  0  0  0
 49 64  1  0  0  0
 49117  1  0  0  0
 50 51  1  0  0  0
 50118  1  0  0  0
 50119  1  0  0  0
 51 52  1  0  0  0
 51120  1  0  0  0
 51121  1  0  0  0
 52122  1  0  0  0
 52123  1  0  0  0
 53 54  1  0  0  0
 54 55  2  0  0  0
 54124  1  0  0  0
 55 57  1  0  0  0
 55125  1  0  0  0
 56 69  2  0  0  0
 57 58  2  0  0  0
 57126  1  0  0  0
 58127  1  0  0  0
 59 60  1  0  0  0
 59 61  1  0  0  0
 59 62  1  0  0  0
 60128  1  0  0  0
 60129  1  0  0  0
 60130  1  0  0  0
 61131  1  0  0  0
 61132  1  0  0  0
 61133  1  0  0  0
 62134  1  0  0  0
 62135  1  0  0  0
 62136  1  0  0  0
 63 65  1  0  0  0
 63137  1  0  0  0
 63138  1  0  0  0
 63139  1  0  0  0
 64140  1  0  0  0
 65141  1  0  0  0
 68 79  1  0  0  0
 71 73  2  0  0  0
 71 75  1  0  0  0
 71142  1  0  0  0
 72 73  1  0  0  0
 72 76  2  0  0  0
 72143  1  0  0  0
 73 78  1  0  0  0
 74 75  2  0  0  0
 74 76  1  0  0  0
 74 80  1  0  0  0
 75 81  1  0  0  0
 76 82  1  0  0  0
 77144  1  0  0  0
 77145  1  0  0  0
 77146  1  0  0  0
 77 80  1  0  0  0
 78 79  1  0  0  0
 78147  1  0  0  0
 78148  1  0  0  0
 79149  1  0  0  0
 79150  1  0  0  0
 80151  1  0  0  0
M  ISO  4   1 100  68 101  79 101  80 100
M  END
> <chiral flag>
0

> <version>
0

> <s_m_source_file>
/data/baiqing/PycharmProjects/Reinvent-master-3.2/result/LINK_invent/BTK/process_docking_weight1_custom_sum_contain_oxygen_bond_distance_aromatic_linkinvent_7_9_3/rearranged_h_0029.sdf

> <i_m_source_file_index>
94

> <r_mmod_Potential_Energy-OPLS-2005>
937.827453613281

> <r_mmod_Stretch_Energy-OPLS-2005>
404.307434082031

> <r_mmod_Bend_Energy-OPLS-2005>
400.378326416016

> <r_mmod_Torsional_Energy-OPLS-2005>
190.580947875977

> <r_mmod_Improper_Torsional_Energy-OPLS-2005>
4.34709310531616

> <r_mmod_Van_der_Waal_Energy-OPLS-2005>
122.978622436523

> <r_mmod_Electrostatic_Energy-OPLS-2005>
-310.578887939453

> <r_mmod_Solvation_Energy-OPLS-2005>
-187.120971679688

> <b_mmod_Minimization_Converged-OPLS-2005>
0

> <r_mmod_RMS_Derivative-OPLS-2005>
2.00185418128967

$$$$
95
                    3D
 Structure written by MMmdl.
169178  0  0  1  0            999 V2000
  -30.5213  -15.0499   20.4057 C   0  0  0  0  0  0
  -30.4413  -12.6600   19.5079 C   0  0  0  0  0  0
  -29.5239  -12.5360   18.2682 C   0  0  0  0  0  0
  -28.0627  -12.3038   18.6921 C   0  0  0  0  0  0
  -27.6226  -13.2588   19.8307 C   0  0  2  0  0  0
  -28.6621  -13.3456   20.9670 C   0  0  0  0  0  0
  -25.2426  -13.8235   20.5727 C   0  0  0  0  0  0
  -24.1752  -13.0441   20.9229 C   0  0  0  0  0  0
  -24.6379  -11.6930   20.8753 C   0  0  0  0  0  0
  -23.9067  -10.4295   21.0405 C   0  0  0  0  0  0
  -24.3614   -9.4217   21.9189 C   0  0  0  0  0  0
  -23.6290   -8.2249   22.0761 C   0  0  0  0  0  0
  -22.4274   -8.0276   21.3547 C   0  0  0  0  0  0
  -21.9909   -9.0251   20.4651 C   0  0  0  0  0  0
  -22.7236  -10.2134   20.3060 C   0  0  0  0  0  0
  -21.6858   -6.0731   22.5278 C   0  0  0  0  0  0
  -21.4014   -6.5637   23.8210 C   0  0  0  0  0  0
  -21.3661   -5.6795   24.9175 C   0  0  0  0  0  0
  -21.6045   -4.3057   24.7231 C   0  0  0  0  0  0
  -21.8816   -3.8143   23.4353 C   0  0  0  0  0  0
  -21.9192   -4.6956   22.3406 C   0  0  0  0  0  0
  -22.7773  -13.5208   21.1888 C   0  0  0  0  0  0
  -22.1660   -4.2138   21.0986 F   0  0  0  0  0  0
  -21.5631   -3.4541   25.7748 F   0  0  0  0  0  0
  -29.9261  -13.7798   20.3566 N   0  0  0  0  0  0
  -26.2856  -12.9486   20.3236 N   0  0  0  0  0  0
  -25.9320  -11.6607   20.5734 N   0  0  0  0  0  0
  -22.0420  -12.8202   22.0446 N   0  0  0  0  0  0
  -25.4051  -15.1972   20.4186 N   0  0  0  0  0  0
  -31.7349  -15.0822   20.1720 O   0  0  0  0  0  0
  -21.6644   -6.8872   21.4239 O   0  0  0  0  0  0
  -22.3457  -14.5515   20.6739 O   0  0  0  0  0  0
  -24.6519  -31.8405   23.1843 C   0  0  0  0  0  0
  -25.9245  -32.4689   23.8266 C   0  0  1  0  0  0
  -27.2100  -27.0676   20.1579 C   0  0  0  0  0  0
  -25.5969  -33.8495   24.2183 N   0  0  0  0  0  0
  -23.4609  -30.4604   21.5316 C   0  0  2  0  0  0
  -24.9117  -28.8836   20.1136 C   0  0  0  0  0  0
  -22.7610  -29.4530   22.4829 C   0  0  0  0  0  0
  -18.0307  -28.1409   22.8470 C   0  0  0  0  0  0
  -24.1494  -36.7246   23.2637 C   0  0  0  0  0  0
  -26.0245  -30.6980   21.3885 C   0  0  0  0  0  0
  -26.1002  -29.3044   20.7261 C   0  0  0  0  0  0
  -27.2617  -28.4221   20.7203 C   0  0  0  0  0  0
  -25.9783  -26.7655   19.5415 C   0  0  0  0  0  0
  -24.8664  -27.6267   19.5043 C   0  0  0  0  0  0
  -23.6931  -29.7939   20.1527 C   0  0  0  0  0  0
  -25.4131  -36.3032   24.0300 C   0  0  1  0  0  0
  -20.5927  -28.3748   23.1199 C   0  0  2  0  0  0
  -20.6805  -26.9445   22.5379 C   0  0  0  0  0  0
  -19.5774  -26.6384   21.5205 C   0  0  0  0  0  0
  -18.1955  -26.7941   22.1619 C   0  0  0  0  0  0
  -19.1564  -28.8900   23.2827 C   0  0  0  0  0  0
  -18.9448  -30.1487   23.8871 C   0  0  0  0  0  0
  -17.6438  -30.6595   24.0557 C   0  0  0  0  0  0
  -25.9084  -34.9403   23.5044 C   0  0  0  0  0  0
  -16.5334  -29.9061   23.6343 C   0  0  0  0  0  0
  -16.7281  -28.6482   23.0355 C   0  0  0  0  0  0
  -26.4546  -31.6569   25.0721 C   0  0  0  0  0  0
  -25.3711  -31.3749   26.1405 C   0  0  0  0  0  0
  -27.0391  -30.2958   24.6293 C   0  0  0  0  0  0
  -27.6072  -32.4325   25.7527 C   0  0  0  0  0  0
  -27.5577  -37.1787   24.8463 C   0  0  0  0  0  0
  -21.4285  -29.3075   22.3570 N   0  0  0  0  0  0
  -26.4289  -37.3747   23.9409 N   0  0  0  0  0  0
  -24.7338  -31.0208   22.0904 N   0  0  0  0  0  0
  -23.4228  -28.8066   23.3011 O   0  0  0  0  0  0
  -28.1074  -25.8591   20.1859 O   0  0  0  0  0  0
  -26.5659  -34.8893   22.4624 O   0  0  0  0  0  0
  -23.5610  -32.1273   23.7018 O   0  0  0  0  0  0
  -29.3378  -20.6668   20.3808 C   0  0  0  0  0  0
  -28.3402  -21.7864   20.1801 C   0  0  0  0  0  0
  -29.0769  -19.1728   20.3203 C   0  0  0  0  0  0
  -26.7490  -19.8576   19.8707 C   0  0  0  0  0  0
  -27.7293  -18.8612   20.0749 C   0  0  0  0  0  0
  -27.0396  -21.2526   19.8894 C   0  0  0  0  0  0
  -29.0925  -24.4974   21.7343 C   0  0  0  0  0  0
  -28.2601  -24.3806   18.4637 C   0  0  0  0  0  0
  -29.7844  -26.3456   21.5313 C   0  0  0  0  0  0
  -28.9590  -26.2140   18.1676 C   0  0  0  0  0  0
  -28.4412  -23.4990   20.1960 C   0  0  1  0  0  0
  -25.3188  -19.3995   19.6009 C   0  0  0  0  0  0
  -30.1113  -17.8473   20.4603 C   0  0  0  0  0  0
  -31.0897  -26.2861   19.4241 C   0  0  0  0  0  0
  -30.1524  -25.2107   19.6963 C   0  0  0  0  0  0
  -29.7591  -16.2704   20.5117 N   0  0  0  0  0  0
  -29.8709  -26.8440   19.7047 N   0  3  1  0  0  0
  -27.3638  -17.5560   20.0126 F   0  0  0  0  0  0
  -25.7058  -22.3023   19.5014 Cl  0  0  0  0  0  0
  -31.4673  -12.8360   19.1809 H   0  0  0  0  0  0
  -30.4666  -11.7263   20.0717 H   0  0  0  0  0  0
  -29.8613  -11.7221   17.6250 H   0  0  0  0  0  0
  -29.5919  -13.4478   17.6721 H   0  0  0  0  0  0
  -27.9817  -11.2703   19.0315 H   0  0  0  0  0  0
  -27.3957  -12.3966   17.8347 H   0  0  0  0  0  0
  -27.5662  -14.2472   19.3729 H   0  0  0  0  0  0
  -28.7713  -12.3893   21.4800 H   0  0  0  0  0  0
  -28.3415  -14.0691   21.7182 H   0  0  0  0  0  0
  -25.2744   -9.5706   22.4779 H   0  0  0  0  0  0
  -23.9993   -7.4649   22.7490 H   0  0  0  0  0  0
  -21.0836   -8.8763   19.8964 H   0  0  0  0  0  0
  -22.3671  -10.9672   19.6177 H   0  0  0  0  0  0
  -21.2005   -7.6144   23.9709 H   0  0  0  0  0  0
  -21.1489   -6.0530   25.9080 H   0  0  0  0  0  0
  -22.0592   -2.7599   23.2861 H   0  0  0  0  0  0
  -22.4022  -11.9853   22.4825 H   0  0  0  0  0  0
  -21.1049  -13.1243   22.2660 H   0  0  0  0  0  0
  -24.6323  -15.8393   20.5476 H   0  0  0  0  0  0
  -26.2530  -15.6628   20.1176 H   0  0  0  0  0  0
  -26.7314  -32.5302   23.1002 H   0  0  0  0  0  0
  -25.0167  -33.9635   25.0364 H   0  0  0  0  0  0
  -22.7618  -31.2856   21.3736 H   0  0  0  0  0  0
  -23.3777  -35.9560   23.3276 H   0  0  0  0  0  0
  -24.3583  -36.8910   22.2059 H   0  0  0  0  0  0
  -23.7220  -37.6414   23.6694 H   0  0  0  0  0  0
  -26.1853  -31.4524   20.6169 H   0  0  0  0  0  0
  -26.8903  -30.7511   22.0345 H   0  0  0  0  0  0
  -28.1554  -28.7665   21.2197 H   0  0  0  0  0  0
  -25.8414  -25.7820   19.1202 H   0  0  0  0  0  0
  -23.9540  -27.2863   19.0338 H   0  0  0  0  0  0
  -23.8395  -30.5705   19.3986 H   0  0  0  0  0  0
  -22.8089  -29.2371   19.8378 H   0  0  0  0  0  0
  -25.1325  -36.1861   25.0784 H   0  0  0  0  0  0
  -20.9991  -28.3353   24.1332 H   0  0  0  0  0  0
  -20.5723  -26.2358   23.3606 H   0  0  0  0  0  0
  -21.6658  -26.7484   22.1156 H   0  0  0  0  0  0
  -19.6927  -25.6279   21.1272 H   0  0  0  0  0  0
  -19.6708  -27.3167   20.6707 H   0  0  0  0  0  0
  -17.4220  -26.6682   21.4017 H   0  0  0  0  0  0
  -18.0348  -26.0107   22.9038 H   0  0  0  0  0  0
  -19.7898  -30.7329   24.2239 H   0  0  0  0  0  0
  -17.4955  -31.6264   24.5152 H   0  0  0  0  0  0
  -15.5319  -30.2929   23.7678 H   0  0  0  0  0  0
  -15.8689  -28.0770   22.7097 H   0  0  0  0  0  0
  -24.5943  -30.7030   25.7726 H   0  0  0  0  0  0
  -24.8843  -32.2917   26.4735 H   0  0  0  0  0  0
  -25.8007  -30.9013   27.0245 H   0  0  0  0  0  0
  -26.2968  -29.6691   24.1324 H   0  0  0  0  0  0
  -27.4025  -29.7250   25.4850 H   0  0  0  0  0  0
  -27.8894  -30.4199   23.9584 H   0  0  0  0  0  0
  -27.2672  -33.3652   26.2048 H   0  0  0  0  0  0
  -28.3943  -32.6843   25.0398 H   0  0  0  0  0  0
  -28.0674  -31.8479   26.5512 H   0  0  0  0  0  0
  -28.2584  -38.0095   24.7535 H   0  0  0  0  0  0
  -28.1085  -36.2630   24.6274 H   0  0  0  0  0  0
  -27.2293  -37.1401   25.8861 H   0  0  0  0  0  0
  -20.9499  -29.8786   21.6750 H   0  0  0  0  0  0
  -26.0156  -38.2804   24.1436 H   0  0  0  0  0  0
  -30.3568  -20.9653   20.5796 H   0  0  0  0  0  0
  -28.3035  -24.5128   22.4866 H   0  0  0  0  0  0
  -29.8783  -23.9067   22.2105 H   0  0  0  0  0  0
  -28.7260  -23.7323   17.7201 H   0  0  0  0  0  0
  -27.2130  -24.3545   18.1651 H   0  0  0  0  0  0
  -30.7443  -26.4557   22.0417 H   0  0  0  0  0  0
  -29.1333  -27.0169   22.0914 H   0  0  0  0  0  0
  -28.1558  -26.8882   17.8666 H   0  0  0  0  0  0
  -29.5958  -26.2286   17.2771 H   0  0  0  0  0  0
  -27.4318  -23.6670   20.5582 H   0  0  0  0  0  0
  -25.1916  -18.3213   19.6963 H   0  0  0  0  0  0
  -25.0177  -19.6742   18.5904 H   0  0  0  0  0  0
  -24.6285  -19.8607   20.3073 H   0  0  0  0  0  0
  -30.7166  -18.0404   21.3460 H   0  0  0  0  0  0
  -30.8070  -17.9497   19.6267 H   0  0  0  0  0  0
  -31.4345  -26.4045   18.3961 H   0  0  0  0  0  0
  -31.8720  -26.4794   20.1586 H   0  0  0  0  0  0
  -30.7908  -24.5709   20.3308 H   0  0  0  0  0  0
  -30.4241  -24.5087   18.8887 H   0  0  0  0  0  0
  -28.7678  -16.1056   20.6123 H   0  0  0  0  0  0
  -29.0039  -26.3480   19.9343 H   0  0  0  0  0  0
  1 25  1  0  0  0
  1 30  2  0  0  0
  1 86  1  0  0  0
  2  3  1  0  0  0
  2 25  1  0  0  0
  2 90  1  0  0  0
  2 91  1  0  0  0
  3  4  1  0  0  0
  3 92  1  0  0  0
  3 93  1  0  0  0
  4  5  1  0  0  0
  4 94  1  0  0  0
  4 95  1  0  0  0
  5  6  1  0  0  0
  5 26  1  0  0  0
  5 96  1  0  0  0
  6 25  1  0  0  0
  6 97  1  0  0  0
  6 98  1  0  0  0
  7  8  2  0  0  0
  7 26  1  0  0  0
  7 29  1  0  0  0
  8  9  1  0  0  0
  8 22  1  0  0  0
  9 10  1  0  0  0
  9 27  2  0  0  0
 10 11  2  0  0  0
 10 15  1  0  0  0
 11 12  1  0  0  0
 11 99  1  0  0  0
 12 13  2  0  0  0
 12100  1  0  0  0
 13 14  1  0  0  0
 13 31  1  0  0  0
 14 15  2  0  0  0
 14101  1  0  0  0
 15102  1  0  0  0
 16 17  2  0  0  0
 16 21  1  0  0  0
 16 31  1  0  0  0
 17 18  1  0  0  0
 17103  1  0  0  0
 18 19  2  0  0  0
 18104  1  0  0  0
 19 20  1  0  0  0
 19 24  1  0  0  0
 20 21  2  0  0  0
 20105  1  0  0  0
 21 23  1  0  0  0
 22 28  1  0  0  0
 22 32  2  0  0  0
 26 27  1  0  0  0
 28106  1  0  0  0
 28107  1  0  0  0
 29108  1  0  0  0
 29109  1  0  0  0
 33 34  1  0  0  0
 33 66  1  0  0  0
 33 70  2  0  0  0
 34 36  1  0  0  0
 34 59  1  0  0  0
 34110  1  0  0  0
 35 44  2  0  0  0
 35 45  1  0  0  0
 35 68  1  0  0  0
 36 56  1  0  0  0
 36111  1  0  0  0
 37 39  1  0  0  0
 37 47  1  0  0  0
 37 66  1  0  0  0
 37112  1  0  0  0
 38 43  2  0  0  0
 38 46  1  0  0  0
 38 47  1  0  0  0
 39 64  1  0  0  0
 39 67  2  0  0  0
 40 52  1  0  0  0
 40 53  2  0  0  0
 40 58  1  0  0  0
 41113  1  0  0  0
 41114  1  0  0  0
 41115  1  0  0  0
 41 48  1  0  0  0
 42 43  1  0  0  0
 42 66  1  0  0  0
 42116  1  0  0  0
 42117  1  0  0  0
 43 44  1  0  0  0
 44118  1  0  0  0
 45 46  2  0  0  0
 45119  1  0  0  0
 46120  1  0  0  0
 47121  1  0  0  0
 47122  1  0  0  0
 48 56  1  0  0  0
 48 65  1  0  0  0
 48123  1  0  0  0
 49 50  1  0  0  0
 49 53  1  0  0  0
 49 64  1  0  0  0
 49124  1  0  0  0
 50 51  1  0  0  0
 50125  1  0  0  0
 50126  1  0  0  0
 51 52  1  0  0  0
 51127  1  0  0  0
 51128  1  0  0  0
 52129  1  0  0  0
 52130  1  0  0  0
 53 54  1  0  0  0
 54 55  2  0  0  0
 54131  1  0  0  0
 55 57  1  0  0  0
 55132  1  0  0  0
 56 69  2  0  0  0
 57 58  2  0  0  0
 57133  1  0  0  0
 58134  1  0  0  0
 59 60  1  0  0  0
 59 61  1  0  0  0
 59 62  1  0  0  0
 60135  1  0  0  0
 60136  1  0  0  0
 60137  1  0  0  0
 61138  1  0  0  0
 61139  1  0  0  0
 61140  1  0  0  0
 62141  1  0  0  0
 62142  1  0  0  0
 62143  1  0  0  0
 63 65  1  0  0  0
 63144  1  0  0  0
 63145  1  0  0  0
 63146  1  0  0  0
 64147  1  0  0  0
 65148  1  0  0  0
 68 85  1  0  0  0
 71 72  2  0  0  0
 71 73  1  0  0  0
 71149  1  0  0  0
 72 76  1  0  0  0
 72 81  1  0  0  0
 73 75  2  0  0  0
 73 83  1  0  0  0
 74 75  1  0  0  0
 74 76  2  0  0  0
 74 82  1  0  0  0
 75 88  1  0  0  0
 76 89  1  0  0  0
 77 79  1  0  0  0
 77 81  1  0  0  0
 77150  1  0  0  0
 77151  1  0  0  0
 78 80  1  0  0  0
 78 81  1  0  0  0
 78152  1  0  0  0
 78153  1  0  0  0
 79 87  1  0  0  0
 79154  1  0  0  0
 79155  1  0  0  0
 80 87  1  0  0  0
 80156  1  0  0  0
 80157  1  0  0  0
 81158  1  0  0  0
 82159  1  0  0  0
 82160  1  0  0  0
 82161  1  0  0  0
 83 86  1  0  0  0
 83162  1  0  0  0
 83163  1  0  0  0
 84 85  1  0  0  0
 84164  1  0  0  0
 84165  1  0  0  0
 84 87  1  0  0  0
 85166  1  0  0  0
 85167  1  0  0  0
 86168  1  0  0  0
 87169  1  0  0  0
M  CHG  1  87   1
M  ISO  4   1 100  68 101  85 101  86 100
M  END
> <chiral flag>
0

> <version>
0

> <s_m_source_file>
/data/baiqing/PycharmProjects/Reinvent-master-3.2/result/LINK_invent/BTK/process_docking_weight1_custom_sum_contain_oxygen_bond_distance_aromatic_linkinvent_7_9_3/rearranged_h_0029.sdf

> <i_m_source_file_index>
95

> <r_mmod_Potential_Energy-OPLS-2005>
4706.330078125

> <r_mmod_Stretch_Energy-OPLS-2005>
2589.54931640625

> <r_mmod_Bend_Energy-OPLS-2005>
889.213317871094

> <r_mmod_Torsional_Energy-OPLS-2005>
343.938140869141

> <r_mmod_Improper_Torsional_Energy-OPLS-2005>
4.53899049758911

> <r_mmod_Van_der_Waal_Energy-OPLS-2005>
1344.421875

> <r_mmod_Electrostatic_Energy-OPLS-2005>
-353.985229492188

> <r_mmod_Solvation_Energy-OPLS-2005>
-409.809295654297

> <b_mmod_Minimization_Converged-OPLS-2005>
0

> <r_mmod_RMS_Derivative-OPLS-2005>
3.44102907180786

$$$$
96
                    3D
 Structure written by MMmdl.
153161  0  0  1  0            999 V2000
  -30.4962  -15.0158   20.4034 C   0  0  0  0  0  0
  -30.4370  -12.6365   19.4889 C   0  0  0  0  0  0
  -29.5216  -12.5485   18.2475 C   0  0  0  0  0  0
  -28.0524  -12.3329   18.6610 C   0  0  0  0  0  0
  -27.6216  -13.2554   19.8308 C   0  0  2  0  0  0
  -28.6668  -13.2974   20.9634 C   0  0  0  0  0  0
  -25.2438  -13.8231   20.5738 C   0  0  0  0  0  0
  -24.1776  -13.0439   20.9265 C   0  0  0  0  0  0
  -24.6401  -11.6934   20.8780 C   0  0  0  0  0  0
  -23.9089  -10.4300   21.0400 C   0  0  0  0  0  0
  -24.3633   -9.4208   21.9176 C   0  0  0  0  0  0
  -23.6293   -8.2253   22.0749 C   0  0  0  0  0  0
  -22.4284   -8.0303   21.3537 C   0  0  0  0  0  0
  -21.9928   -9.0276   20.4640 C   0  0  0  0  0  0
  -22.7268  -10.2142   20.3039 C   0  0  0  0  0  0
  -21.6854   -6.0756   22.5287 C   0  0  0  0  0  0
  -21.4015   -6.5650   23.8231 C   0  0  0  0  0  0
  -21.3661   -5.6795   24.9192 C   0  0  0  0  0  0
  -21.6043   -4.3060   24.7230 C   0  0  0  0  0  0
  -21.8805   -3.8157   23.4351 C   0  0  0  0  0  0
  -21.9189   -4.6979   22.3413 C   0  0  0  0  0  0
  -22.7799  -13.5196   21.1912 C   0  0  0  0  0  0
  -22.1652   -4.2173   21.0989 F   0  0  0  0  0  0
  -21.5630   -3.4546   25.7737 F   0  0  0  0  0  0
  -29.9231  -13.7415   20.3507 N   0  0  0  0  0  0
  -26.2848  -12.9464   20.3221 N   0  0  0  0  0  0
  -25.9321  -11.6593   20.5725 N   0  0  0  0  0  0
  -22.0424  -12.8187   22.0451 N   0  0  0  0  0  0
  -25.4059  -15.1978   20.4177 N   0  0  0  0  0  0
  -31.7169  -15.0694   20.2000 O   0  0  0  0  0  0
  -21.6646   -6.8909   21.4246 O   0  0  0  0  0  0
  -22.3487  -14.5503   20.6759 O   0  0  0  0  0  0
  -24.6448  -31.8398   23.1825 C   0  0  0  0  0  0
  -25.9204  -32.4664   23.8250 C   0  0  1  0  0  0
  -27.2163  -27.0919   20.1781 C   0  0  0  0  0  0
  -25.5933  -33.8469   24.2172 N   0  0  0  0  0  0
  -23.4491  -30.4579   21.5313 C   0  0  2  0  0  0
  -24.8969  -28.8591   20.1321 C   0  0  0  0  0  0
  -22.7562  -29.4567   22.4909 C   0  0  0  0  0  0
  -18.0296  -28.1298   22.8511 C   0  0  0  0  0  0
  -24.1482  -36.7271   23.2648 C   0  0  0  0  0  0
  -26.0067  -30.7010   21.3828 C   0  0  0  0  0  0
  -26.0782  -29.3001   20.7443 C   0  0  0  0  0  0
  -27.2400  -28.4346   20.7434 C   0  0  0  0  0  0
  -26.0091  -26.7530   19.5367 C   0  0  0  0  0  0
  -24.8746  -27.5982   19.5162 C   0  0  0  0  0  0
  -23.6790  -29.7733   20.1590 C   0  0  0  0  0  0
  -25.4122  -36.3043   24.0312 C   0  0  1  0  0  0
  -20.5890  -28.3805   23.1181 C   0  0  2  0  0  0
  -20.6873  -26.9602   22.5102 C   0  0  0  0  0  0
  -19.5719  -26.6549   21.5051 C   0  0  0  0  0  0
  -18.2037  -26.7769   22.1780 C   0  0  0  0  0  0
  -19.1506  -28.8913   23.2798 C   0  0  0  0  0  0
  -18.9314  -30.1577   23.8695 C   0  0  0  0  0  0
  -17.6257  -30.6573   24.0398 C   0  0  0  0  0  0
  -25.9067  -34.9393   23.5064 C   0  0  0  0  0  0
  -16.5239  -29.8926   23.6235 C   0  0  0  0  0  0
  -16.7287  -28.6350   23.0337 C   0  0  0  0  0  0
  -26.4514  -31.6552   25.0707 C   0  0  0  0  0  0
  -25.3749  -31.3719   26.1425 C   0  0  0  0  0  0
  -27.0379  -30.2960   24.6292 C   0  0  0  0  0  0
  -27.5998  -32.4352   25.7518 C   0  0  0  0  0  0
  -27.5573  -37.1785   24.8461 C   0  0  0  0  0  0
  -21.4225  -29.3232   22.3684 N   0  0  0  0  0  0
  -26.4289  -37.3759   23.9412 N   0  0  0  0  0  0
  -24.7203  -31.0225   22.0870 N   0  0  0  0  0  0
  -23.4142  -28.8011   23.3017 O   0  0  0  0  0  0
  -28.3139  -26.1731   20.0019 O   0  0  0  0  0  0
  -26.5680  -34.8871   22.4645 O   0  0  0  0  0  0
  -23.5557  -32.1266   23.7008 O   0  0  0  0  0  0
  -28.4711  -19.0396   18.8977 C   0  0  0  0  0  0
  -29.1898  -20.5086   20.6816 C   0  0  0  0  0  0
  -29.2044  -19.1261   20.1010 C   0  0  0  0  0  0
  -27.8030  -20.1591   18.3202 C   0  0  0  0  0  0
  -28.5091  -21.7237   20.1233 C   0  0  0  0  0  0
  -27.8272  -21.4589   18.9074 C   0  0  0  0  0  0
  -26.9935  -19.9339   17.0447 C   0  0  0  0  0  0
  -28.1860  -23.1891   20.8615 C   0  0  0  0  0  0
  -30.0326  -17.7686   20.6357 C   0  0  0  0  0  0
  -28.6995  -24.8125   20.6784 C   0  0  0  0  0  0
  -29.6997  -16.2086   20.4748 N   0  0  0  0  0  0
  -26.9174  -22.7404   18.1719 Cl  0  0  0  0  0  0
  -31.4671  -12.8143   19.1760 H   0  0  0  0  0  0
  -30.4479  -11.6899   20.0303 H   0  0  0  0  0  0
  -29.8490  -11.7421   17.5887 H   0  0  0  0  0  0
  -29.6056  -13.4697   17.6710 H   0  0  0  0  0  0
  -27.9409  -11.2884   18.9542 H   0  0  0  0  0  0
  -27.3935  -12.4825   17.8034 H   0  0  0  0  0  0
  -27.5754  -14.2582   19.4063 H   0  0  0  0  0  0
  -28.7779  -12.3200   21.4339 H   0  0  0  0  0  0
  -28.3595  -13.9908   21.7488 H   0  0  0  0  0  0
  -25.2763   -9.5715   22.4776 H   0  0  0  0  0  0
  -24.0010   -7.4653   22.7473 H   0  0  0  0  0  0
  -21.0861   -8.8797   19.8942 H   0  0  0  0  0  0
  -22.3714  -10.9689   19.6172 H   0  0  0  0  0  0
  -21.1999   -7.6163   23.9742 H   0  0  0  0  0  0
  -21.1493   -6.0534   25.9103 H   0  0  0  0  0  0
  -22.0573   -2.7620   23.2847 H   0  0  0  0  0  0
  -22.4023  -11.9867   22.4885 H   0  0  0  0  0  0
  -21.1022  -13.1207   22.2589 H   0  0  0  0  0  0
  -24.6300  -15.8409   20.5403 H   0  0  0  0  0  0
  -26.2313  -15.6423   20.0358 H   0  0  0  0  0  0
  -26.7275  -32.5263   23.0963 H   0  0  0  0  0  0
  -25.0067  -33.9604   25.0307 H   0  0  0  0  0  0
  -22.7516  -31.2822   21.3728 H   0  0  0  0  0  0
  -23.3751  -35.9595   23.3293 H   0  0  0  0  0  0
  -24.3573  -36.8928   22.2074 H   0  0  0  0  0  0
  -23.7209  -37.6431   23.6714 H   0  0  0  0  0  0
  -26.1647  -31.4413   20.5954 H   0  0  0  0  0  0
  -26.8782  -30.7645   22.0216 H   0  0  0  0  0  0
  -28.1581  -28.7851   21.1919 H   0  0  0  0  0  0
  -25.9474  -25.7997   19.0296 H   0  0  0  0  0  0
  -23.9758  -27.2564   19.0239 H   0  0  0  0  0  0
  -23.8339  -30.5435   19.4021 H   0  0  0  0  0  0
  -22.7917  -29.2210   19.8422 H   0  0  0  0  0  0
  -25.1300  -36.1875   25.0814 H   0  0  0  0  0  0
  -20.9898  -28.3225   24.1329 H   0  0  0  0  0  0
  -20.5989  -26.2397   23.3243 H   0  0  0  0  0  0
  -21.6718  -26.7810   22.0735 H   0  0  0  0  0  0
  -19.7011  -25.6551   21.0862 H   0  0  0  0  0  0
  -19.6325  -27.3485   20.6621 H   0  0  0  0  0  0
  -17.4117  -26.6063   21.4487 H   0  0  0  0  0  0
  -18.0930  -25.9956   22.9354 H   0  0  0  0  0  0
  -19.7726  -30.7592   24.1930 H   0  0  0  0  0  0
  -17.4617  -31.6295   24.4869 H   0  0  0  0  0  0
  -15.5182  -30.2670   23.7510 H   0  0  0  0  0  0
  -15.8728  -28.0587   22.7119 H   0  0  0  0  0  0
  -24.5934  -30.7037   25.7787 H   0  0  0  0  0  0
  -24.8919  -32.2883   26.4842 H   0  0  0  0  0  0
  -25.8071  -30.8926   27.0224 H   0  0  0  0  0  0
  -26.2982  -29.6678   24.1305 H   0  0  0  0  0  0
  -27.4009  -29.7247   25.4849 H   0  0  0  0  0  0
  -27.8892  -30.4205   23.9599 H   0  0  0  0  0  0
  -27.2557  -33.3679   26.2014 H   0  0  0  0  0  0
  -28.3864  -32.6883   25.0404 H   0  0  0  0  0  0
  -28.0618  -31.8549   26.5513 H   0  0  0  0  0  0
  -28.2550  -38.0120   24.7522 H   0  0  0  0  0  0
  -28.1103  -36.2624   24.6273 H   0  0  0  0  0  0
  -27.2298  -37.1424   25.8870 H   0  0  0  0  0  0
  -20.9521  -29.9013   21.6880 H   0  0  0  0  0  0
  -26.0145  -38.2807   24.1446 H   0  0  0  0  0  0
  -28.4195  -18.0828   18.3936 H   0  0  0  0  0  0
  -29.7043  -20.6367   21.6245 H   0  0  0  0  0  0
  -27.2384  -18.9786   16.5767 H   0  0  0  0  0  0
  -27.1872  -20.7077   16.2980 H   0  0  0  0  0  0
  -25.9227  -19.9358   17.2626 H   0  0  0  0  0  0
  -28.5202  -22.9559   21.8757 H   0  0  0  0  0  0
  -27.1032  -23.2325   20.9778 H   0  0  0  0  0  0
  -30.1733  -17.9229   21.7062 H   0  0  0  0  0  0
  -31.0355  -17.8805   20.2223 H   0  0  0  0  0  0
  -28.7495  -25.1531   21.7127 H   0  0  0  0  0  0
  -29.7505  -24.7184   20.4033 H   0  0  0  0  0  0
  -28.7116  -16.0163   20.5208 H   0  0  0  0  0  0
  1 25  1  0  0  0
  1 30  2  0  0  0
  1 81  1  0  0  0
  2  3  1  0  0  0
  2 25  1  0  0  0
  2 83  1  0  0  0
  2 84  1  0  0  0
  3  4  1  0  0  0
  3 85  1  0  0  0
  3 86  1  0  0  0
  4  5  1  0  0  0
  4 87  1  0  0  0
  4 88  1  0  0  0
  5  6  1  0  0  0
  5 26  1  0  0  0
  5 89  1  0  0  0
  6 25  1  0  0  0
  6 90  1  0  0  0
  6 91  1  0  0  0
  7  8  2  0  0  0
  7 26  1  0  0  0
  7 29  1  0  0  0
  8  9  1  0  0  0
  8 22  1  0  0  0
  9 10  1  0  0  0
  9 27  2  0  0  0
 10 11  2  0  0  0
 10 15  1  0  0  0
 11 12  1  0  0  0
 11 92  1  0  0  0
 12 13  2  0  0  0
 12 93  1  0  0  0
 13 14  1  0  0  0
 13 31  1  0  0  0
 14 15  2  0  0  0
 14 94  1  0  0  0
 15 95  1  0  0  0
 16 17  2  0  0  0
 16 21  1  0  0  0
 16 31  1  0  0  0
 17 18  1  0  0  0
 17 96  1  0  0  0
 18 19  2  0  0  0
 18 97  1  0  0  0
 19 20  1  0  0  0
 19 24  1  0  0  0
 20 21  2  0  0  0
 20 98  1  0  0  0
 21 23  1  0  0  0
 22 28  1  0  0  0
 22 32  2  0  0  0
 26 27  1  0  0  0
 28 99  1  0  0  0
 28100  1  0  0  0
 29101  1  0  0  0
 29102  1  0  0  0
 33 34  1  0  0  0
 33 66  1  0  0  0
 33 70  2  0  0  0
 34 36  1  0  0  0
 34 59  1  0  0  0
 34103  1  0  0  0
 35 44  2  0  0  0
 35 45  1  0  0  0
 35 68  1  0  0  0
 36 56  1  0  0  0
 36104  1  0  0  0
 37 39  1  0  0  0
 37 47  1  0  0  0
 37 66  1  0  0  0
 37105  1  0  0  0
 38 43  2  0  0  0
 38 46  1  0  0  0
 38 47  1  0  0  0
 39 64  1  0  0  0
 39 67  2  0  0  0
 40 52  1  0  0  0
 40 53  2  0  0  0
 40 58  1  0  0  0
 41106  1  0  0  0
 41107  1  0  0  0
 41108  1  0  0  0
 41 48  1  0  0  0
 42 43  1  0  0  0
 42 66  1  0  0  0
 42109  1  0  0  0
 42110  1  0  0  0
 43 44  1  0  0  0
 44111  1  0  0  0
 45 46  2  0  0  0
 45112  1  0  0  0
 46113  1  0  0  0
 47114  1  0  0  0
 47115  1  0  0  0
 48 56  1  0  0  0
 48 65  1  0  0  0
 48116  1  0  0  0
 49 50  1  0  0  0
 49 53  1  0  0  0
 49 64  1  0  0  0
 49117  1  0  0  0
 50 51  1  0  0  0
 50118  1  0  0  0
 50119  1  0  0  0
 51 52  1  0  0  0
 51120  1  0  0  0
 51121  1  0  0  0
 52122  1  0  0  0
 52123  1  0  0  0
 53 54  1  0  0  0
 54 55  2  0  0  0
 54124  1  0  0  0
 55 57  1  0  0  0
 55125  1  0  0  0
 56 69  2  0  0  0
 57 58  2  0  0  0
 57126  1  0  0  0
 58127  1  0  0  0
 59 60  1  0  0  0
 59 61  1  0  0  0
 59 62  1  0  0  0
 60128  1  0  0  0
 60129  1  0  0  0
 60130  1  0  0  0
 61131  1  0  0  0
 61132  1  0  0  0
 61133  1  0  0  0
 62134  1  0  0  0
 62135  1  0  0  0
 62136  1  0  0  0
 63 65  1  0  0  0
 63137  1  0  0  0
 63138  1  0  0  0
 63139  1  0  0  0
 64140  1  0  0  0
 65141  1  0  0  0
 68 80  1  0  0  0
 71 73  2  0  0  0
 71 74  1  0  0  0
 71142  1  0  0  0
 72 73  1  0  0  0
 72 75  2  0  0  0
 72143  1  0  0  0
 73 79  1  0  0  0
 74 76  2  0  0  0
 74 77  1  0  0  0
 75 76  1  0  0  0
 75 78  1  0  0  0
 76 82  1  0  0  0
 77144  1  0  0  0
 77145  1  0  0  0
 77146  1  0  0  0
 78 80  1  0  0  0
 78147  1  0  0  0
 78148  1  0  0  0
 79 81  1  0  0  0
 79149  1  0  0  0
 79150  1  0  0  0
 80151  1  0  0  0
 80152  1  0  0  0
 81153  1  0  0  0
M  ISO  4   1 100  68 101  80 101  81 100
M  END
> <chiral flag>
0

> <version>
0

> <s_m_source_file>
/data/baiqing/PycharmProjects/Reinvent-master-3.2/result/LINK_invent/BTK/process_docking_weight1_custom_sum_contain_oxygen_bond_distance_aromatic_linkinvent_7_9_3/rearranged_h_0029.sdf

> <i_m_source_file_index>
96

> <r_mmod_Potential_Energy-OPLS-2005>
681.536193847656

> <r_mmod_Stretch_Energy-OPLS-2005>
305.927490234375

> <r_mmod_Bend_Energy-OPLS-2005>
394.833099365234

> <r_mmod_Torsional_Energy-OPLS-2005>
236.585403442383

> <r_mmod_Improper_Torsional_Energy-OPLS-2005>
8.15124034881592

> <r_mmod_Van_der_Waal_Energy-OPLS-2005>
124.89820098877

> <r_mmod_Electrostatic_Energy-OPLS-2005>
-403.007080078125

> <r_mmod_Solvation_Energy-OPLS-2005>
-210.095916748047

> <b_mmod_Minimization_Converged-OPLS-2005>
0

> <r_mmod_RMS_Derivative-OPLS-2005>
5.21785974502563

$$$$
97
                    3D
 Structure written by MMmdl.
152160  0  0  1  0            999 V2000
  -29.1214  -17.7180   19.7470 C   0  0  0  0  0  0
  -29.9684  -14.6794   19.2771 C   0  0  0  0  0  0
  -29.4830  -13.3898   18.4039 C   0  0  0  0  0  0
  -28.3325  -12.5957   19.0155 C   0  0  0  0  0  0
  -27.5086  -13.6249   19.7825 C   0  0  2  0  0  0
  -28.2991  -14.7601   20.6297 C   0  0  0  0  0  0
  -25.1718  -13.8844   20.6065 C   0  0  0  0  0  0
  -24.1526  -13.0522   20.9462 C   0  0  0  0  0  0
  -24.6724  -11.7220   20.8735 C   0  0  0  0  0  0
  -23.9501  -10.4386   21.0260 C   0  0  0  0  0  0
  -24.3901   -9.4277   21.9101 C   0  0  0  0  0  0
  -23.6471   -8.2351   22.0734 C   0  0  0  0  0  0
  -22.4434   -8.0387   21.3543 C   0  0  0  0  0  0
  -22.0156   -9.0377   20.4619 C   0  0  0  0  0  0
  -22.7599  -10.2203   20.2973 C   0  0  0  0  0  0
  -21.6917   -6.0816   22.5279 C   0  0  0  0  0  0
  -21.4060   -6.5688   23.8221 C   0  0  0  0  0  0
  -21.3675   -5.6818   24.9167 C   0  0  0  0  0  0
  -21.6046   -4.3081   24.7201 C   0  0  0  0  0  0
  -21.8812   -3.8194   23.4313 C   0  0  0  0  0  0
  -21.9210   -4.7031   22.3384 C   0  0  0  0  0  0
  -22.7436  -13.4924   21.2015 C   0  0  0  0  0  0
  -22.1669   -4.2212   21.0962 F   0  0  0  0  0  0
  -21.5617   -3.4553   25.7707 F   0  0  0  0  0  0
  -28.9652  -15.9575   19.7643 N   0  0  0  0  0  0
  -26.2702  -13.0952   20.3687 N   0  0  0  0  0  0
  -25.9789  -11.7635   20.5565 N   0  0  0  0  0  0
  -22.0246  -12.7810   22.0592 N   0  0  0  0  0  0
  -25.2390  -15.2617   20.4244 N   0  0  0  0  0  0
  -30.3958  -17.3932   19.8585 O   0  0  0  0  0  0
  -21.6737   -6.9001   21.4259 O   0  0  0  0  0  0
  -22.2965  -14.5165   20.6842 O   0  0  0  0  0  0
  -24.8411  -31.5451   22.5360 C   0  0  0  0  0  0
  -25.9833  -32.3022   23.4588 C   0  0  1  0  0  0
  -28.3982  -26.2051   21.2642 C   0  0  0  0  0  0
  -25.5274  -33.6827   23.8738 N   0  0  0  0  0  0
  -23.4494  -29.6994   21.1284 C   0  0  2  0  0  0
  -24.7633  -26.4968   20.3703 C   0  0  0  0  0  0
  -22.6646  -29.4020   22.4317 C   0  0  0  0  0  0
  -18.0022  -28.1611   22.8343 C   0  0  0  0  0  0
  -24.1415  -36.6567   23.2787 C   0  0  0  0  0  0
  -26.2930  -30.2436   20.0950 C   0  0  0  0  0  0
  -26.9949  -28.3184   19.5731 C   0  0  0  0  0  0
  -28.4532  -27.6320   20.1920 C   0  0  0  0  0  0
  -27.0144  -25.1275   21.6517 C   0  0  0  0  0  0
  -25.3240  -25.3115   21.2653 C   0  0  0  0  0  0
  -23.2822  -27.8541   20.5342 C   0  0  0  0  0  0
  -25.4223  -36.1987   23.9980 C   0  0  1  0  0  0
  -20.5395  -28.3941   23.1843 C   0  0  2  0  0  0
  -20.5725  -26.9074   22.7530 C   0  0  0  0  0  0
  -19.5994  -26.6129   21.6057 C   0  0  0  0  0  0
  -18.1707  -26.8261   22.1197 C   0  0  0  0  0  0
  -19.1157  -28.9090   23.3020 C   0  0  0  0  0  0
  -18.9110  -30.1655   23.9049 C   0  0  0  0  0  0
  -17.6110  -30.6733   24.0645 C   0  0  0  0  0  0
  -25.9340  -34.8643   23.3771 C   0  0  0  0  0  0
  -16.5064  -29.9189   23.6313 C   0  0  0  0  0  0
  -16.7014  -28.6669   23.0206 C   0  0  0  0  0  0
  -26.4290  -31.6794   24.9014 C   0  0  0  0  0  0
  -25.2759  -31.4510   25.9170 C   0  0  0  0  0  0
  -27.1468  -30.3528   24.7839 C   0  0  0  0  0  0
  -27.4960  -32.5608   25.6194 C   0  0  0  0  0  0
  -27.5452  -37.1352   24.8450 C   0  0  0  0  0  0
  -21.3399  -29.2590   22.3144 N   0  0  0  0  0  0
  -26.4080  -37.3103   23.9466 N   0  0  0  0  0  0
  -24.9018  -30.6858   21.2815 N   0  0  0  0  0  0
  -23.2443  -29.0234   23.4465 O   0  0  0  0  0  0
  -28.4939  -26.6171   22.5446 O   0  0  0  0  0  0
  -26.6891  -34.9104   22.4092 O   0  0  0  0  0  0
  -23.7518  -31.8560   23.0860 O   0  0  0  0  0  0
  -25.8175  -26.1114   18.2743 C   0  0  0  0  0  0
  -25.0382  -27.8943   18.7910 C   0  0  0  0  0  0
  -25.4654  -28.3515   21.1547 C   0  0  0  0  0  0
  -26.6846  -24.5811   19.0199 C   0  0  0  0  0  0
  -26.4608  -27.4176   21.4433 C   0  0  0  0  0  0
  -24.3981  -28.8326   17.7799 C   0  0  0  0  0  0
  -25.6338  -27.5465   22.7777 C   0  0  0  0  0  0
  -27.7578  -22.1070   19.2019 C   0  0  0  0  0  0
  -27.1787  -26.7671   23.5216 C   0  0  0  0  0  0
  -26.8334  -26.0548   19.6029 N   0  0  0  0  0  0
  -28.2258  -19.6017   19.5110 N   0  0  0  0  0  0
  -27.5108  -28.9865   22.1714 Cl  0  0  0  0  0  0
  -30.6857  -15.1752   18.6220 H   0  0  0  0  0  0
  -30.6184  -14.3537   20.0937 H   0  0  0  0  0  0
  -30.3261  -12.7294   18.1964 H   0  0  0  0  0  0
  -29.1541  -13.7596   17.4319 H   0  0  0  0  0  0
  -28.7196  -11.8493   19.7113 H   0  0  0  0  0  0
  -27.7487  -12.0739   18.2555 H   0  0  0  0  0  0
  -27.1152  -14.2150   18.9518 H   0  0  0  0  0  0
  -28.9609  -14.3076   21.3740 H   0  0  0  0  0  0
  -27.5975  -15.2764   21.2806 H   0  0  0  0  0  0
  -25.3024   -9.5725   22.4719 H   0  0  0  0  0  0
  -24.0139   -7.4760   22.7495 H   0  0  0  0  0  0
  -21.1079   -8.8954   19.8926 H   0  0  0  0  0  0
  -22.4062  -10.9736   19.6077 H   0  0  0  0  0  0
  -21.2071   -7.6197   23.9745 H   0  0  0  0  0  0
  -21.1496   -6.0539   25.9074 H   0  0  0  0  0  0
  -22.0565   -2.7656   23.2794 H   0  0  0  0  0  0
  -22.4058  -11.9583   22.5024 H   0  0  0  0  0  0
  -21.0788  -13.0606   22.2770 H   0  0  0  0  0  0
  -24.4147  -15.8477   20.5053 H   0  0  0  0  0  0
  -26.0525  -15.7564   20.0831 H   0  0  0  0  0  0
  -26.8714  -32.3824   22.8305 H   0  0  0  0  0  0
  -24.8395  -33.7022   24.6114 H   0  0  0  0  0  0
  -22.7920  -30.2993   20.4991 H   0  0  0  0  0  0
  -23.3804  -35.8753   23.3031 H   0  0  0  0  0  0
  -24.3320  -36.8916   22.2308 H   0  0  0  0  0  0
  -23.7093  -37.5404   23.7486 H   0  0  0  0  0  0
  -25.9814  -30.6893   19.1516 H   0  0  0  0  0  0
  -27.1515  -30.8565   20.3686 H   0  0  0  0  0  0
  -29.2991  -28.2967   20.3032 H   0  0  0  0  0  0
  -27.2307  -24.3317   22.3528 H   0  0  0  0  0  0
  -24.6144  -24.6676   21.7644 H   0  0  0  0  0  0
  -22.7075  -27.8741   19.6070 H   0  0  0  0  0  0
  -22.5752  -27.3187   21.1335 H   0  0  0  0  0  0
  -25.1664  -36.0087   25.0426 H   0  0  0  0  0  0
  -20.9496  -28.4437   24.1959 H   0  0  0  0  0  0
  -20.2185  -26.3303   23.6092 H   0  0  0  0  0  0
  -21.5681  -26.4998   22.6205 H   0  0  0  0  0  0
  -19.7181  -25.5900   21.2486 H   0  0  0  0  0  0
  -19.8084  -27.2709   20.7613 H   0  0  0  0  0  0
  -17.4673  -26.7638   21.2883 H   0  0  0  0  0  0
  -17.8993  -26.0306   22.8158 H   0  0  0  0  0  0
  -19.7579  -30.7426   24.2516 H   0  0  0  0  0  0
  -17.4595  -31.6372   24.5311 H   0  0  0  0  0  0
  -15.5045  -30.3029   23.7631 H   0  0  0  0  0  0
  -15.8447  -28.1012   22.6784 H   0  0  0  0  0  0
  -24.5371  -30.7496   25.5276 H   0  0  0  0  0  0
  -24.7497  -32.3786   26.1434 H   0  0  0  0  0  0
  -25.6355  -31.0506   26.8655 H   0  0  0  0  0  0
  -26.4700  -29.6094   24.4279 H   0  0  0  0  0  0
  -27.4820  -29.9823   25.7542 H   0  0  0  0  0  0
  -28.0395  -30.4409   24.1674 H   0  0  0  0  0  0
  -27.1002  -33.5304   25.9211 H   0  0  0  0  0  0
  -28.3499  -32.7533   24.9685 H   0  0  0  0  0  0
  -27.8792  -32.0964   26.5291 H   0  0  0  0  0  0
  -28.2228  -37.9860   24.7609 H   0  0  0  0  0  0
  -28.1164  -36.2360   24.6090 H   0  0  0  0  0  0
  -27.2212  -37.0719   25.8853 H   0  0  0  0  0  0
  -20.8998  -29.5657   21.4584 H   0  0  0  0  0  0
  -25.9637  -38.1971   24.1685 H   0  0  0  0  0  0
  -25.5522  -25.8988   17.2471 H   0  0  0  0  0  0
  -23.7471  -28.2706   17.1112 H   0  0  0  0  0  0
  -25.1649  -29.3186   17.1770 H   0  0  0  0  0  0
  -23.8061  -29.6041   18.2691 H   0  0  0  0  0  0
  -24.7688  -26.9087   23.0050 H   0  0  0  0  0  0
  -25.3779  -28.2947   23.5068 H   0  0  0  0  0  0
  -28.5829  -22.4269   19.8375 H   0  0  0  0  0  0
  -28.1610  -22.1352   18.1895 H   0  0  0  0  0  0
  -26.9348  -25.8393   24.0426 H   0  0  0  0  0  0
  -27.5027  -27.4004   24.3491 H   0  0  0  0  0  0
  -27.2729  -19.2640   19.4501 H   0  0  0  0  0  0
  1 25  1  0  0  0
  1 30  2  0  0  0
  1 81  1  0  0  0
  2  3  1  0  0  0
  2 25  1  0  0  0
  2 83  1  0  0  0
  2 84  1  0  0  0
  3  4  1  0  0  0
  3 85  1  0  0  0
  3 86  1  0  0  0
  4  5  1  0  0  0
  4 87  1  0  0  0
  4 88  1  0  0  0
  5  6  1  0  0  0
  5 26  1  0  0  0
  5 89  1  0  0  0
  6 25  1  0  0  0
  6 90  1  0  0  0
  6 91  1  0  0  0
  7  8  2  0  0  0
  7 26  1  0  0  0
  7 29  1  0  0  0
  8  9  1  0  0  0
  8 22  1  0  0  0
  9 10  1  0  0  0
  9 27  2  0  0  0
 10 11  2  0  0  0
 10 15  1  0  0  0
 11 12  1  0  0  0
 11 92  1  0  0  0
 12 13  2  0  0  0
 12 93  1  0  0  0
 13 14  1  0  0  0
 13 31  1  0  0  0
 14 15  2  0  0  0
 14 94  1  0  0  0
 15 95  1  0  0  0
 16 17  2  0  0  0
 16 21  1  0  0  0
 16 31  1  0  0  0
 17 18  1  0  0  0
 17 96  1  0  0  0
 18 19  2  0  0  0
 18 97  1  0  0  0
 19 20  1  0  0  0
 19 24  1  0  0  0
 20 21  2  0  0  0
 20 98  1  0  0  0
 21 23  1  0  0  0
 22 28  1  0  0  0
 22 32  2  0  0  0
 26 27  1  0  0  0
 28 99  1  0  0  0
 28100  1  0  0  0
 29101  1  0  0  0
 29102  1  0  0  0
 33 34  1  0  0  0
 33 66  1  0  0  0
 33 70  2  0  0  0
 34 36  1  0  0  0
 34 59  1  0  0  0
 34103  1  0  0  0
 35 44  2  0  0  0
 35 45  1  0  0  0
 35 68  1  0  0  0
 36 56  1  0  0  0
 36104  1  0  0  0
 37 39  1  0  0  0
 37 47  1  0  0  0
 37 66  1  0  0  0
 37105  1  0  0  0
 38 43  2  0  0  0
 38 46  1  0  0  0
 38 47  1  0  0  0
 39 64  1  0  0  0
 39 67  2  0  0  0
 40 52  1  0  0  0
 40 53  2  0  0  0
 40 58  1  0  0  0
 41106  1  0  0  0
 41107  1  0  0  0
 41108  1  0  0  0
 41 48  1  0  0  0
 42 43  1  0  0  0
 42 66  1  0  0  0
 42109  1  0  0  0
 42110  1  0  0  0
 43 44  1  0  0  0
 44111  1  0  0  0
 45 46  2  0  0  0
 45112  1  0  0  0
 46113  1  0  0  0
 47114  1  0  0  0
 47115  1  0  0  0
 48 56  1  0  0  0
 48 65  1  0  0  0
 48116  1  0  0  0
 49 50  1  0  0  0
 49 53  1  0  0  0
 49 64  1  0  0  0
 49117  1  0  0  0
 50 51  1  0  0  0
 50118  1  0  0  0
 50119  1  0  0  0
 51 52  1  0  0  0
 51120  1  0  0  0
 51121  1  0  0  0
 52122  1  0  0  0
 52123  1  0  0  0
 53 54  1  0  0  0
 54 55  2  0  0  0
 54124  1  0  0  0
 55 57  1  0  0  0
 55125  1  0  0  0
 56 69  2  0  0  0
 57 58  2  0  0  0
 57126  1  0  0  0
 58127  1  0  0  0
 59 60  1  0  0  0
 59 61  1  0  0  0
 59 62  1  0  0  0
 60128  1  0  0  0
 60129  1  0  0  0
 60130  1  0  0  0
 61131  1  0  0  0
 61132  1  0  0  0
 61133  1  0  0  0
 62134  1  0  0  0
 62135  1  0  0  0
 62136  1  0  0  0
 63 65  1  0  0  0
 63137  1  0  0  0
 63138  1  0  0  0
 63139  1  0  0  0
 64140  1  0  0  0
 65141  1  0  0  0
 68 79  1  0  0  0
 71 72  2  0  0  0
 71 74  1  0  0  0
 71142  1  0  0  0
 72 73  1  0  0  0
 72 76  1  0  0  0
 73 75  2  0  0  0
 73 77  1  0  0  0
 74 78  1  0  0  0
 74 80  2  0  0  0
 75 80  1  0  0  0
 75 82  1  0  0  0
 76143  1  0  0  0
 76144  1  0  0  0
 76145  1  0  0  0
 77 79  1  0  0  0
 77146  1  0  0  0
 77147  1  0  0  0
 78 81  1  0  0  0
 78148  1  0  0  0
 78149  1  0  0  0
 79150  1  0  0  0
 79151  1  0  0  0
 81152  1  0  0  0
M  ISO  4   1 100  68 101  79 101  81 100
M  END
> <chiral flag>
0

> <version>
0

> <s_m_source_file>
/data/baiqing/PycharmProjects/Reinvent-master-3.2/result/LINK_invent/BTK/process_docking_weight1_custom_sum_contain_oxygen_bond_distance_aromatic_linkinvent_7_9_3/rearranged_h_0029.sdf

> <i_m_source_file_index>
97

> <r_mmod_Potential_Energy-OPLS-2005>
37207.23828125

> <r_mmod_Stretch_Energy-OPLS-2005>
18939.8125

> <r_mmod_Bend_Energy-OPLS-2005>
2881.37036132812

> <r_mmod_Torsional_Energy-OPLS-2005>
681.258972167969

> <r_mmod_Improper_Torsional_Energy-OPLS-2005>
135.050338745117

> <r_mmod_Van_der_Waal_Energy-OPLS-2005>
5803.25927734375

> <r_mmod_Electrostatic_Energy-OPLS-2005>
-557.370849609375

> <r_mmod_Solvation_Energy-OPLS-2005>
-272.911163330078

> <b_mmod_Minimization_Converged-OPLS-2005>
0

> <r_mmod_RMS_Derivative-OPLS-2005>
4.06365394592285

$$$$
98
                    3D
 Structure written by MMmdl.
168177  0  0  1  0            999 V2000
  -27.6762  -18.0931   20.7811 C   0  0  0  0  0  0
  -29.3392  -15.2601   19.7014 C   0  0  0  0  0  0
  -29.2868  -13.8575   18.7370 C   0  0  0  0  0  0
  -28.3135  -12.7732   19.1862 C   0  0  0  0  0  0
  -27.3578  -13.6521   19.9741 C   0  0  2  0  0  0
  -27.8659  -14.7778   21.0383 C   0  0  0  0  0  0
  -25.0466  -13.8621   20.5808 C   0  0  0  0  0  0
  -24.0604  -13.0219   20.9384 C   0  0  0  0  0  0
  -24.6075  -11.7004   20.8850 C   0  0  0  0  0  0
  -23.9125  -10.4192   21.0348 C   0  0  0  0  0  0
  -24.3690   -9.4158   21.9157 C   0  0  0  0  0  0
  -23.6344   -8.2202   22.0751 C   0  0  0  0  0  0
  -22.4325   -8.0235   21.3543 C   0  0  0  0  0  0
  -21.9970   -9.0163   20.4607 C   0  0  0  0  0  0
  -22.7320  -10.2010   20.2978 C   0  0  0  0  0  0
  -21.6866   -6.0729   22.5284 C   0  0  0  0  0  0
  -21.4032   -6.5640   23.8211 C   0  0  0  0  0  0
  -21.3660   -5.6792   24.9172 C   0  0  0  0  0  0
  -21.6038   -4.3052   24.7225 C   0  0  0  0  0  0
  -21.8823   -3.8144   23.4349 C   0  0  0  0  0  0
  -21.9199   -4.6959   22.3405 C   0  0  0  0  0  0
  -22.6649  -13.4669   21.2038 C   0  0  0  0  0  0
  -22.1665   -4.2147   21.0980 F   0  0  0  0  0  0
  -21.5617   -3.4540   25.7736 F   0  0  0  0  0  0
  -28.0533  -16.2801   20.4304 N   0  0  0  0  0  0
  -26.1403  -13.0676   20.3904 N   0  0  0  0  0  0
  -25.9115  -11.7422   20.5915 N   0  0  0  0  0  0
  -21.9603  -12.7610   22.0743 N   0  0  0  0  0  0
  -25.0937  -15.2442   20.3813 N   0  0  0  0  0  0
  -29.0294  -17.8952   20.7159 O   0  0  0  0  0  0
  -21.6671   -6.8863   21.4250 O   0  0  0  0  0  0
  -22.2215  -14.4946   20.6900 O   0  0  0  0  0  0
  -24.7293  -31.8946   23.1809 C   0  0  0  0  0  0
  -25.9951  -32.4904   23.8403 C   0  0  1  0  0  0
  -26.3172  -26.7608   20.1477 C   0  0  0  0  0  0
  -25.6553  -33.8650   24.2336 N   0  0  0  0  0  0
  -23.5786  -30.4485   21.6468 C   0  0  2  0  0  0
  -24.8569  -29.0413   19.9571 C   0  0  0  0  0  0
  -23.3673  -29.3171   22.6581 C   0  0  0  0  0  0
  -19.2281  -26.1698   22.1402 C   0  0  0  0  0  0
  -24.1531  -36.7269   23.2603 C   0  0  0  0  0  0
  -26.1018  -30.5753   21.4685 C   0  0  0  0  0  0
  -25.9984  -29.1992   20.7334 C   0  0  0  0  0  0
  -26.7537  -27.9684   20.9021 C   0  0  0  0  0  0
  -25.7194  -27.0245   18.9555 C   0  0  0  0  0  0
  -24.7430  -27.9987   19.0387 C   0  0  0  0  0  0
  -23.6797  -29.9051   20.2121 C   0  0  0  0  0  0
  -25.4175  -36.3104   24.0285 C   0  0  1  0  0  0
  -21.8401  -27.6805   23.7862 C   0  0  2  0  0  0
  -21.4142  -26.3381   23.3325 C   0  0  0  0  0  0
  -20.4443  -25.5447   21.5870 C   0  0  0  0  0  0
  -19.0714  -25.0440   21.5132 C   0  0  0  0  0  0
  -20.4831  -27.1600   23.7410 C   0  0  0  0  0  0
  -20.1991  -28.6373   24.2208 C   0  0  0  0  0  0
  -19.4201  -29.2537   23.2337 C   0  0  0  0  0  0
  -25.9240  -34.9528   23.5037 C   0  0  0  0  0  0
  -18.2185  -28.3822   21.7585 C   0  0  0  0  0  0
  -18.1197  -27.0147   21.4084 C   0  0  0  0  0  0
  -26.4869  -31.6721   25.0984 C   0  0  0  0  0  0
  -25.3758  -31.3866   26.1361 C   0  0  0  0  0  0
  -27.1111  -30.3176   24.6985 C   0  0  0  0  0  0
  -27.6205  -32.4538   25.8019 C   0  0  0  0  0  0
  -27.5608  -37.1841   24.8457 C   0  0  0  0  0  0
  -22.2154  -28.9404   22.9750 N   0  0  0  0  0  0
  -26.4295  -37.3860   23.9440 N   0  0  0  0  0  0
  -24.8284  -31.0853   22.0846 N   0  0  0  0  0  0
  -24.2483  -28.7569   23.2733 O   0  0  0  0  0  0
  -25.9042  -25.3830   20.5009 O   0  0  0  0  0  0
  -26.5612  -34.9033   22.4489 O   0  0  0  0  0  0
  -23.6323  -32.1728   23.6953 O   0  0  0  0  0  0
  -18.6422  -30.6537   21.5465 C   0  0  0  0  0  0
  -20.5217  -27.8450   21.6702 C   0  0  0  0  0  0
  -20.0738  -29.5470   20.9784 C   0  0  0  0  0  0
  -18.3356  -27.3198   23.7153 C   0  0  0  0  0  0
  -17.3504  -30.2333   22.8768 C   0  0  0  0  0  0
  -19.1582  -25.1690   24.2255 C   0  0  0  0  0  0
  -22.3062  -24.1379   23.0145 C   0  0  0  0  0  0
  -22.8378  -25.3261   21.7216 C   0  0  1  0  0  0
  -20.6508  -30.0550   19.6758 C   0  0  0  0  0  0
  -16.4742  -31.3589   23.3844 C   0  0  0  0  0  0
  -24.8705  -22.4442   21.5308 C   0  0  0  0  0  0
  -22.7339  -23.3046   20.4811 C   0  0  0  0  0  0
  -21.2398  -23.0769   21.8739 C   0  0  0  0  0  0
  -24.4357  -24.4522   19.9688 C   0  0  0  0  0  0
  -17.2164  -28.7087   23.8474 N   0  0  0  0  0  0
  -26.2858  -19.9448   21.0688 N   0  0  0  0  0  0
  -20.6857  -23.9098   23.3830 N   0  3  2  0  0  0
  -29.8084  -15.9760   19.0245 H   0  0  0  0  0  0
  -30.1518  -15.1402   20.4250 H   0  0  0  0  0  0
  -30.2884  -13.4394   18.6213 H   0  0  0  0  0  0
  -28.9918  -14.1671   17.7320 H   0  0  0  0  0  0
  -28.8012  -12.0508   19.8420 H   0  0  0  0  0  0
  -27.8436  -12.2486   18.3507 H   0  0  0  0  0  0
  -26.9923  -14.2616   19.1401 H   0  0  0  0  0  0
  -28.6662  -14.4098   21.6900 H   0  0  0  0  0  0
  -27.1124  -14.9246   21.8125 H   0  0  0  0  0  0
  -25.2800   -9.5694   22.4793 H   0  0  0  0  0  0
  -24.0039   -7.4617   22.7512 H   0  0  0  0  0  0
  -21.0897   -8.8686   19.8909 H   0  0  0  0  0  0
  -22.3762  -10.9547   19.6090 H   0  0  0  0  0  0
  -21.2045   -7.6155   23.9712 H   0  0  0  0  0  0
  -21.1469   -6.0527   25.9072 H   0  0  0  0  0  0
  -22.0602   -2.7610   23.2846 H   0  0  0  0  0  0
  -22.3488  -11.9386   22.5126 H   0  0  0  0  0  0
  -21.0183  -13.0438   22.3076 H   0  0  0  0  0  0
  -24.2653  -15.8294   20.4261 H   0  0  0  0  0  0
  -25.9290  -15.7307   20.0767 H   0  0  0  0  0  0
  -26.8121  -32.5265   23.1195 H   0  0  0  0  0  0
  -25.0897  -33.9719   25.0628 H   0  0  0  0  0  0
  -22.7352  -31.1376   21.6849 H   0  0  0  0  0  0
  -23.3875  -35.9518   23.3173 H   0  0  0  0  0  0
  -24.3645  -36.9001   22.2046 H   0  0  0  0  0  0
  -23.7177  -37.6392   23.6684 H   0  0  0  0  0  0
  -26.4139  -31.3181   20.7345 H   0  0  0  0  0  0
  -26.9316  -30.5088   22.1618 H   0  0  0  0  0  0
  -27.3966  -27.8739   21.7627 H   0  0  0  0  0  0
  -25.5379  -26.2410   18.2319 H   0  0  0  0  0  0
  -23.8864  -27.9528   18.3790 H   0  0  0  0  0  0
  -23.5975  -30.6886   19.4608 H   0  0  0  0  0  0
  -22.8796  -29.1915   20.0992 H   0  0  0  0  0  0
  -25.1332  -36.1911   25.0764 H   0  0  0  0  0  0
  -22.2940  -27.7010   24.7917 H   0  0  0  0  0  0
  -22.5187  -26.4560   23.4127 H   0  0  0  0  0  0
  -21.6085  -25.7152   24.3344 H   0  0  0  0  0  0
  -20.8092  -24.8850   20.8212 H   0  0  0  0  0  0
  -20.6918  -26.0048   20.5877 H   0  0  0  0  0  0
  -18.7333  -25.0073   20.4716 H   0  0  0  0  0  0
  -18.7157  -24.1671   22.0547 H   0  0  0  0  0  0
  -20.7384  -29.2157   24.9680 H   0  0  0  0  0  0
  -19.5630  -30.2971   23.5252 H   0  0  0  0  0  0
  -17.4991  -28.8118   21.0576 H   0  0  0  0  0  0
  -17.4212  -26.6766   20.6483 H   0  0  0  0  0  0
  -24.6102  -30.7176   25.7421 H   0  0  0  0  0  0
  -24.8804  -32.3040   26.4540 H   0  0  0  0  0  0
  -25.7762  -30.9108   27.0317 H   0  0  0  0  0  0
  -26.4154  -29.6584   24.1870 H   0  0  0  0  0  0
  -27.4510  -29.7758   25.5821 H   0  0  0  0  0  0
  -27.9962  -30.4509   24.0762 H   0  0  0  0  0  0
  -27.2665  -33.3777   26.2591 H   0  0  0  0  0  0
  -28.4160  -32.7210   25.1055 H   0  0  0  0  0  0
  -28.0775  -31.8691   26.6011 H   0  0  0  0  0  0
  -28.2515  -38.0248   24.7675 H   0  0  0  0  0  0
  -28.1221  -36.2789   24.6082 H   0  0  0  0  0  0
  -27.2337  -37.1236   25.8853 H   0  0  0  0  0  0
  -21.4272  -29.2415   22.4114 H   0  0  0  0  0  0
  -26.0133  -38.2885   24.1579 H   0  0  0  0  0  0
  -18.5636  -31.6237   21.0693 H   0  0  0  0  0  0
  -18.2660  -24.5363   24.2316 H   0  0  0  0  0  0
  -19.4194  -25.2323   25.2837 H   0  0  0  0  0  0
  -22.8513  -24.3699   23.9232 H   0  0  0  0  0  0
  -22.9743  -23.2612   23.0270 H   0  0  0  0  0  0
  -22.6460  -25.5278   20.6724 H   0  0  0  0  0  0
  -21.1497  -29.2781   19.0980 H   0  0  0  0  0  0
  -21.2918  -30.9209   19.8458 H   0  0  0  0  0  0
  -19.8352  -30.3992   19.0367 H   0  0  0  0  0  0
  -16.8469  -32.3250   23.0359 H   0  0  0  0  0  0
  -16.5139  -31.3893   24.4767 H   0  0  0  0  0  0
  -15.4396  -31.2340   23.0688 H   0  0  0  0  0  0
  -24.7391  -22.1467   22.5706 H   0  0  0  0  0  0
  -25.8212  -22.9774   21.5289 H   0  0  0  0  0  0
  -22.1083  -23.5592   19.6219 H   0  0  0  0  0  0
  -22.9489  -22.2746   20.1813 H   0  0  0  0  0  0
  -21.4105  -22.0627   22.2465 H   0  0  0  0  0  0
  -20.3575  -22.8098   21.3067 H   0  0  0  0  0  0
  -24.0096  -25.1023   19.2043 H   0  0  0  0  0  0
  -24.9417  -23.7529   19.3094 H   0  0  0  0  0  0
  -27.1526  -20.4349   21.2582 H   0  0  0  0  0  0
  -20.6434  -23.1307   24.0371 H   0  0  0  0  0  0
  1 25  1  0  0  0
  1 30  2  0  0  0
  1 86  1  0  0  0
  2  3  1  0  0  0
  2 25  1  0  0  0
  2 88  1  0  0  0
  2 89  1  0  0  0
  3  4  1  0  0  0
  3 90  1  0  0  0
  3 91  1  0  0  0
  4  5  1  0  0  0
  4 92  1  0  0  0
  4 93  1  0  0  0
  5  6  1  0  0  0
  5 26  1  0  0  0
  5 94  1  0  0  0
  6 25  1  0  0  0
  6 95  1  0  0  0
  6 96  1  0  0  0
  7  8  2  0  0  0
  7 26  1  0  0  0
  7 29  1  0  0  0
  8  9  1  0  0  0
  8 22  1  0  0  0
  9 10  1  0  0  0
  9 27  2  0  0  0
 10 11  2  0  0  0
 10 15  1  0  0  0
 11 12  1  0  0  0
 11 97  1  0  0  0
 12 13  2  0  0  0
 12 98  1  0  0  0
 13 14  1  0  0  0
 13 31  1  0  0  0
 14 15  2  0  0  0
 14 99  1  0  0  0
 15100  1  0  0  0
 16 17  2  0  0  0
 16 21  1  0  0  0
 16 31  1  0  0  0
 17 18  1  0  0  0
 17101  1  0  0  0
 18 19  2  0  0  0
 18102  1  0  0  0
 19 20  1  0  0  0
 19 24  1  0  0  0
 20 21  2  0  0  0
 20103  1  0  0  0
 21 23  1  0  0  0
 22 28  1  0  0  0
 22 32  2  0  0  0
 26 27  1  0  0  0
 28104  1  0  0  0
 28105  1  0  0  0
 29106  1  0  0  0
 29107  1  0  0  0
 33 34  1  0  0  0
 33 66  1  0  0  0
 33 70  2  0  0  0
 34 36  1  0  0  0
 34 59  1  0  0  0
 34108  1  0  0  0
 35 44  2  0  0  0
 35 45  1  0  0  0
 35 68  1  0  0  0
 36 56  1  0  0  0
 36109  1  0  0  0
 37 39  1  0  0  0
 37 47  1  0  0  0
 37 66  1  0  0  0
 37110  1  0  0  0
 38 43  2  0  0  0
 38 46  1  0  0  0
 38 47  1  0  0  0
 39 64  1  0  0  0
 39 67  2  0  0  0
 40 52  1  0  0  0
 40 53  2  0  0  0
 40 58  1  0  0  0
 41111  1  0  0  0
 41112  1  0  0  0
 41113  1  0  0  0
 41 48  1  0  0  0
 42 43  1  0  0  0
 42 66  1  0  0  0
 42114  1  0  0  0
 42115  1  0  0  0
 43 44  1  0  0  0
 44116  1  0  0  0
 45 46  2  0  0  0
 45117  1  0  0  0
 46118  1  0  0  0
 47119  1  0  0  0
 47120  1  0  0  0
 48 56  1  0  0  0
 48 65  1  0  0  0
 48121  1  0  0  0
 49 50  1  0  0  0
 49 53  1  0  0  0
 49 64  1  0  0  0
 49122  1  0  0  0
 50 51  1  0  0  0
 50123  1  0  0  0
 50124  1  0  0  0
 51 52  1  0  0  0
 51125  1  0  0  0
 51126  1  0  0  0
 52127  1  0  0  0
 52128  1  0  0  0
 53 54  1  0  0  0
 54 55  2  0  0  0
 54129  1  0  0  0
 55 57  1  0  0  0
 55130  1  0  0  0
 56 69  2  0  0  0
 57 58  2  0  0  0
 57131  1  0  0  0
 58132  1  0  0  0
 59 60  1  0  0  0
 59 61  1  0  0  0
 59 62  1  0  0  0
 60133  1  0  0  0
 60134  1  0  0  0
 60135  1  0  0  0
 61136  1  0  0  0
 61137  1  0  0  0
 61138  1  0  0  0
 62139  1  0  0  0
 62140  1  0  0  0
 62141  1  0  0  0
 63 65  1  0  0  0
 63142  1  0  0  0
 63143  1  0  0  0
 63144  1  0  0  0
 64145  1  0  0  0
 65146  1  0  0  0
 68 84  1  0  0  0
 71 73  2  0  0  0
 71 75  1  0  0  0
 71147  1  0  0  0
 72 73  1  0  0  0
 72 74  2  0  0  0
 72 78  1  0  0  0
 73 79  1  0  0  0
 74 76  1  0  0  0
 74 85  1  0  0  0
 75 80  1  0  0  0
 75 85  2  0  0  0
 76 87  1  0  0  0
 76148  1  0  0  0
 76149  1  0  0  0
 77 78  1  0  0  0
 77 87  1  0  0  0
 77150  1  0  0  0
 77151  1  0  0  0
 78 81  1  0  0  0
 78152  1  0  0  0
 79153  1  0  0  0
 79154  1  0  0  0
 79155  1  0  0  0
 80156  1  0  0  0
 80157  1  0  0  0
 80158  1  0  0  0
 81 86  1  0  0  0
 81159  1  0  0  0
 81160  1  0  0  0
 82 83  1  0  0  0
 82 84  1  0  0  0
 82161  1  0  0  0
 82162  1  0  0  0
 83163  1  0  0  0
 83164  1  0  0  0
 83 87  1  0  0  0
 84165  1  0  0  0
 84166  1  0  0  0
 86167  1  0  0  0
 87168  1  0  0  0
M  CHG  1  87   1
M  ISO  4   1 100  68 101  84 101  86 100
M  END
> <chiral flag>
0

> <version>
0

> <s_m_source_file>
/data/baiqing/PycharmProjects/Reinvent-master-3.2/result/LINK_invent/BTK/process_docking_weight1_custom_sum_contain_oxygen_bond_distance_aromatic_linkinvent_7_9_3/rearranged_h_0029.sdf

> <i_m_source_file_index>
98

> <r_mmod_Potential_Energy-OPLS-2005>
53093.1171875

> <r_mmod_Stretch_Energy-OPLS-2005>
28995.16796875

> <r_mmod_Bend_Energy-OPLS-2005>
4535.79296875

> <r_mmod_Torsional_Energy-OPLS-2005>
609.906066894531

> <r_mmod_Improper_Torsional_Energy-OPLS-2005>
41.367992401123

> <r_mmod_Van_der_Waal_Energy-OPLS-2005>
6466.259765625

> <r_mmod_Electrostatic_Energy-OPLS-2005>
-445.120574951172

> <r_mmod_Solvation_Energy-OPLS-2005>
-498.525115966797

> <b_mmod_Minimization_Converged-OPLS-2005>
0

> <r_mmod_RMS_Derivative-OPLS-2005>
16.7746238708496

$$$$
