0
                    3D
 Structure written by MMmdl.
176186  0  0  1  0            999 V2000
  -30.2992  -15.7087   20.2810 C   0  0  0  0  0  0
  -30.4366  -13.1526   19.5064 C   0  0  0  0  0  0
  -29.5683  -12.6301   18.3247 C   0  0  0  0  0  0
  -28.1591  -12.2515   18.7988 C   0  0  0  0  0  0
  -27.5868  -13.3059   19.7795 C   0  0  2  0  0  0
  -28.5959  -13.7227   20.8782 C   0  0  0  0  0  0
  -25.2283  -13.8270   20.5754 C   0  0  0  0  0  0
  -24.1703  -13.0375   20.9227 C   0  0  0  0  0  0
  -24.6418  -11.6893   20.8672 C   0  0  0  0  0  0
  -23.9156  -10.4231   21.0380 C   0  0  0  0  0  0
  -24.3640   -9.4135   21.9197 C   0  0  0  0  0  0
  -23.6216   -8.2214   22.0838 C   0  0  0  0  0  0
  -22.4199   -8.0299   21.3622 C   0  0  0  0  0  0
  -21.9888   -9.0295   20.4755 C   0  0  0  0  0  0
  -22.7263  -10.2103   20.3088 C   0  0  0  0  0  0
  -21.6872   -6.0719   22.5311 C   0  0  0  0  0  0
  -21.4044   -6.5623   23.8235 C   0  0  0  0  0  0
  -21.3624   -5.6790   24.9173 C   0  0  0  0  0  0
  -21.6021   -4.3054   24.7242 C   0  0  0  0  0  0
  -21.8782   -3.8127   23.4342 C   0  0  0  0  0  0
  -21.9174   -4.6974   22.3392 C   0  0  0  0  0  0
  -22.7676  -13.5133   21.1794 C   0  0  0  0  0  0
  -22.1622   -4.2144   21.0977 F   0  0  0  0  0  0
  -21.5572   -3.4522   25.7724 F   0  0  0  0  0  0
  -29.7463  -14.3485   20.1827 N   0  0  0  0  0  0
  -26.2745  -12.9613   20.3049 N   0  0  0  0  0  0
  -25.9354  -11.6681   20.5478 N   0  0  0  0  0  0
  -22.0300  -12.8268   22.0430 N   0  0  0  0  0  0
  -25.3768  -15.2031   20.4314 N   0  0  0  0  0  0
  -31.5380  -15.5554   20.2706 O   0  0  0  0  0  0
  -21.6581   -6.8903   21.4293 O   0  0  0  0  0  0
  -22.3397  -14.5359   20.6518 O   0  0  0  0  0  0
  -24.6849  -31.7969   23.1539 C   0  0  0  0  0  0
  -25.9448  -32.4430   23.8079 C   0  0  1  0  0  0
  -27.2314  -26.7260   20.1800 C   0  0  0  0  0  0
  -25.6014  -33.8269   24.1952 N   0  0  0  0  0  0
  -23.5080  -30.3965   21.5111 C   0  0  2  0  0  0
  -24.9638  -28.7493   20.1017 C   0  0  0  0  0  0
  -22.7751  -29.4279   22.4766 C   0  0  0  0  0  0
  -18.0348  -28.1437   22.8455 C   0  0  0  0  0  0
  -24.1494  -36.7156   23.2650 C   0  0  0  0  0  0
  -26.0865  -30.5355   21.4109 C   0  0  0  0  0  0
  -26.1501  -29.1055   20.7508 C   0  0  0  0  0  0
  -27.2614  -28.1192   20.7646 C   0  0  0  0  0  0
  -26.0112  -26.5711   19.4742 C   0  0  0  0  0  0
  -24.9328  -27.5118   19.4358 C   0  0  0  0  0  0
  -23.7566  -29.7027   20.1400 C   0  0  0  0  0  0
  -25.4132  -36.2869   24.0282 C   0  0  1  0  0  0
  -20.5957  -28.3794   23.1169 C   0  0  2  0  0  0
  -20.6824  -26.9447   22.5456 C   0  0  0  0  0  0
  -19.5814  -26.6384   21.5250 C   0  0  0  0  0  0
  -18.1973  -26.7977   22.1611 C   0  0  0  0  0  0
  -19.1607  -28.8957   23.2782 C   0  0  0  0  0  0
  -18.9507  -30.1537   23.8822 C   0  0  0  0  0  0
  -17.6497  -30.6594   24.0568 C   0  0  0  0  0  0
  -25.9141  -34.9261   23.4962 C   0  0  0  0  0  0
  -16.5392  -29.9083   23.6342 C   0  0  0  0  0  0
  -16.7321  -28.6524   23.0324 C   0  0  0  0  0  0
  -26.4606  -31.6470   25.0710 C   0  0  0  0  0  0
  -25.3714  -31.3840   26.1379 C   0  0  0  0  0  0
  -27.0470  -30.2780   24.6599 C   0  0  0  0  0  0
  -27.6045  -32.4344   25.7522 C   0  0  0  0  0  0
  -27.5560  -37.1714   24.8445 C   0  0  0  0  0  0
  -21.4401  -29.2987   22.3488 N   0  0  0  0  0  0
  -26.4243  -37.3637   23.9407 N   0  0  0  0  0  0
  -24.7843  -30.9444   22.0785 N   0  0  0  0  0  0
  -23.4190  -28.7893   23.3132 O   0  0  0  0  0  0
  -28.2075  -25.5316   20.2990 O   0  0  0  0  0  0
  -26.5763  -34.8841   22.4572 O   0  0  0  0  0  0
  -23.5873  -32.1027   23.6496 O   0  0  0  0  0  0
  -29.3412  -20.3754   17.2866 C   0  0  0  0  0  0
  -31.6006  -22.0234   17.4098 C   0  0  0  0  0  0
  -29.9072  -20.8965   16.0814 C   0  0  0  0  0  0
  -29.8754  -20.6891   18.5749 C   0  0  0  0  0  0
  -31.0233  -21.7614   16.1592 C   0  0  0  0  0  0
  -31.0533  -21.5102   18.5996 C   0  0  0  0  0  0
  -28.6686  -19.2503   14.4083 C   0  0  0  0  0  0
  -30.0344  -19.5458   13.8443 C   0  0  0  0  0  0
  -27.9611  -19.2340   19.7997 C   0  0  0  0  0  0
  -28.2555  -17.5981   19.8561 C   0  0  0  0  0  0
  -29.3368  -20.5657   14.7246 C   0  0  0  0  0  0
  -30.0214  -18.7739   20.5509 C   0  0  2  0  0  0
  -29.1703  -20.2851   19.9102 C   0  0  1  0  0  0
  -31.6306  -22.4399   14.9275 C   0  0  0  0  0  0
  -31.8318  -21.8797   19.8574 C   0  0  0  0  0  0
  -31.5577  -18.8741   20.6268 C   0  0  0  0  0  0
  -27.5584  -21.8533   21.5803 C   0  0  0  0  0  0
  -28.2452  -23.8316   19.8628 C   0  0  0  0  0  0
  -28.6775  -22.0713   20.5446 C   0  0  2  0  0  0
  -29.6415  -17.1489   20.2386 N   0  0  0  0  0  0
  -31.4083  -13.4456   19.0908 H   0  0  0  0  0  0
  -30.6589  -12.3681   20.2349 H   0  0  0  0  0  0
  -30.0325  -11.7776   17.8279 H   0  0  0  0  0  0
  -29.5125  -13.4165   17.5704 H   0  0  0  0  0  0
  -28.2496  -11.2922   19.3178 H   0  0  0  0  0  0
  -27.4928  -12.0833   17.9500 H   0  0  0  0  0  0
  -27.4155  -14.1803   19.1545 H   0  0  0  0  0  0
  -28.8894  -12.8676   21.4911 H   0  0  0  0  0  0
  -28.1472  -14.4679   21.5417 H   0  0  0  0  0  0
  -25.2789   -9.5503   22.4779 H   0  0  0  0  0  0
  -23.9878   -7.4604   22.7552 H   0  0  0  0  0  0
  -21.0796   -8.8854   19.9080 H   0  0  0  0  0  0
  -22.3791  -10.9647   19.6179 H   0  0  0  0  0  0
  -21.2154   -7.6160   23.9734 H   0  0  0  0  0  0
  -21.1441   -6.0516   25.9083 H   0  0  0  0  0  0
  -22.0610   -2.7603   23.2849 H   0  0  0  0  0  0
  -22.3819  -12.0047   22.5074 H   0  0  0  0  0  0
  -21.0927  -13.1568   22.2478 H   0  0  0  0  0  0
  -24.5863  -15.8254   20.5659 H   0  0  0  0  0  0
  -26.2045  -15.6873   20.1198 H   0  0  0  0  0  0
  -26.7571  -32.4891   23.0827 H   0  0  0  0  0  0
  -25.0010  -33.9306   24.9998 H   0  0  0  0  0  0
  -22.8344  -31.2351   21.3300 H   0  0  0  0  0  0
  -23.3757  -35.9478   23.3217 H   0  0  0  0  0  0
  -24.3607  -36.8915   22.2089 H   0  0  0  0  0  0
  -23.7255  -37.6308   23.6814 H   0  0  0  0  0  0
  -26.2906  -31.2637   20.6241 H   0  0  0  0  0  0
  -26.9381  -30.5929   22.0762 H   0  0  0  0  0  0
  -28.1518  -28.3923   21.3115 H   0  0  0  0  0  0
  -25.8389  -25.6270   18.9802 H   0  0  0  0  0  0
  -24.0378  -27.2346   18.8962 H   0  0  0  0  0  0
  -23.9336  -30.4698   19.3852 H   0  0  0  0  0  0
  -22.8557  -29.1805   19.8173 H   0  0  0  0  0  0
  -25.1332  -36.1604   25.0766 H   0  0  0  0  0  0
  -21.0018  -28.3444   24.1306 H   0  0  0  0  0  0
  -20.5714  -26.2390   23.3699 H   0  0  0  0  0  0
  -21.6686  -26.7438   22.1255 H   0  0  0  0  0  0
  -19.6979  -25.6283   21.1309 H   0  0  0  0  0  0
  -19.6757  -27.3160   20.6749 H   0  0  0  0  0  0
  -17.4242  -26.6727   21.3987 H   0  0  0  0  0  0
  -18.0329  -26.0141   22.9025 H   0  0  0  0  0  0
  -19.7975  -30.7408   24.2104 H   0  0  0  0  0  0
  -17.5029  -31.6242   24.5238 H   0  0  0  0  0  0
  -15.5385  -30.2950   23.7743 H   0  0  0  0  0  0
  -15.8714  -28.0853   22.7025 H   0  0  0  0  0  0
  -24.5871  -30.7169   25.7800 H   0  0  0  0  0  0
  -24.8934  -32.3068   26.4658 H   0  0  0  0  0  0
  -25.7942  -30.9159   27.0265 H   0  0  0  0  0  0
  -26.3135  -29.6431   24.1606 H   0  0  0  0  0  0
  -27.3858  -29.7219   25.5346 H   0  0  0  0  0  0
  -27.9154  -30.3844   24.0099 H   0  0  0  0  0  0
  -27.2528  -33.3663   26.1947 H   0  0  0  0  0  0
  -28.3910  -32.6865   25.0415 H   0  0  0  0  0  0
  -28.0630  -31.8594   26.5565 H   0  0  0  0  0  0
  -28.2532  -38.0051   24.7504 H   0  0  0  0  0  0
  -28.1102  -36.2589   24.6214 H   0  0  0  0  0  0
  -27.2328  -37.1281   25.8862 H   0  0  0  0  0  0
  -20.9752  -29.8557   21.6460 H   0  0  0  0  0  0
  -26.0059  -38.2670   24.1454 H   0  0  0  0  0  0
  -28.4617  -19.7489   17.2093 H   0  0  0  0  0  0
  -32.4793  -22.6545   17.4648 H   0  0  0  0  0  0
  -28.6093  -18.5076   15.2039 H   0  0  0  0  0  0
  -27.8183  -19.2891   13.7284 H   0  0  0  0  0  0
  -30.1098  -19.7616   12.7771 H   0  0  0  0  0  0
  -30.8736  -18.9951   14.2759 H   0  0  0  0  0  0
  -27.4062  -19.3894   20.7268 H   0  0  0  0  0  0
  -27.2216  -19.5252   19.0532 H   0  0  0  0  0  0
  -27.9075  -17.0805   18.9573 H   0  0  0  0  0  0
  -27.6266  -17.2023   20.6540 H   0  0  0  0  0  0
  -28.9474  -21.4600   14.2376 H   0  0  0  0  0  0
  -29.7174  -18.8105   21.5997 H   0  0  0  0  0  0
  -32.5314  -23.0044   15.1823 H   0  0  0  0  0  0
  -30.9290  -23.1416   14.4794 H   0  0  0  0  0  0
  -31.9071  -21.7152   14.1674 H   0  0  0  0  0  0
  -32.8421  -21.4783   19.7641 H   0  0  0  0  0  0
  -31.4319  -21.4732   20.7748 H   0  0  0  0  0  0
  -31.9313  -22.9576   19.9811 H   0  0  0  0  0  0
  -31.9972  -19.3351   19.7474 H   0  0  0  0  0  0
  -32.0343  -17.8998   20.6766 H   0  0  0  0  0  0
  -31.8817  -19.4040   21.5241 H   0  0  0  0  0  0
  -27.7871  -21.0321   22.2589 H   0  0  0  0  0  0
  -26.6017  -21.6497   21.0895 H   0  0  0  0  0  0
  -27.4159  -22.7432   22.1952 H   0  0  0  0  0  0
  -27.2856  -23.6864   19.3692 H   0  0  0  0  0  0
  -28.9461  -23.8896   19.0233 H   0  0  0  0  0  0
  -29.5360  -22.3396   21.1517 H   0  0  0  0  0  0
  1 25  1  0  0  0
  1 30  2  0  0  0
  1 90  1  0  0  0
  2  3  1  0  0  0
  2 25  1  0  0  0
  2 91  1  0  0  0
  2 92  1  0  0  0
  3  4  1  0  0  0
  3 93  1  0  0  0
  3 94  1  0  0  0
  4  5  1  0  0  0
  4 95  1  0  0  0
  4 96  1  0  0  0
  5  6  1  0  0  0
  5 26  1  0  0  0
  5 97  1  0  0  0
  6 25  1  0  0  0
  6 98  1  0  0  0
  6 99  1  0  0  0
  7  8  2  0  0  0
  7 26  1  0  0  0
  7 29  1  0  0  0
  8  9  1  0  0  0
  8 22  1  0  0  0
  9 10  1  0  0  0
  9 27  2  0  0  0
 10 11  2  0  0  0
 10 15  1  0  0  0
 11 12  1  0  0  0
 11100  1  0  0  0
 12 13  2  0  0  0
 12101  1  0  0  0
 13 14  1  0  0  0
 13 31  1  0  0  0
 14 15  2  0  0  0
 14102  1  0  0  0
 15103  1  0  0  0
 16 17  2  0  0  0
 16 21  1  0  0  0
 16 31  1  0  0  0
 17 18  1  0  0  0
 17104  1  0  0  0
 18 19  2  0  0  0
 18105  1  0  0  0
 19 20  1  0  0  0
 19 24  1  0  0  0
 20 21  2  0  0  0
 20106  1  0  0  0
 21 23  1  0  0  0
 22 28  1  0  0  0
 22 32  2  0  0  0
 26 27  1  0  0  0
 28107  1  0  0  0
 28108  1  0  0  0
 29109  1  0  0  0
 29110  1  0  0  0
 33 34  1  0  0  0
 33 66  1  0  0  0
 33 70  2  0  0  0
 34 36  1  0  0  0
 34 59  1  0  0  0
 34111  1  0  0  0
 35 44  2  0  0  0
 35 45  1  0  0  0
 35 68  1  0  0  0
 36 56  1  0  0  0
 36112  1  0  0  0
 37 39  1  0  0  0
 37 47  1  0  0  0
 37 66  1  0  0  0
 37113  1  0  0  0
 38 43  2  0  0  0
 38 46  1  0  0  0
 38 47  1  0  0  0
 39 64  1  0  0  0
 39 67  2  0  0  0
 40 52  1  0  0  0
 40 53  2  0  0  0
 40 58  1  0  0  0
 41114  1  0  0  0
 41115  1  0  0  0
 41116  1  0  0  0
 41 48  1  0  0  0
 42 43  1  0  0  0
 42 66  1  0  0  0
 42117  1  0  0  0
 42118  1  0  0  0
 43 44  1  0  0  0
 44119  1  0  0  0
 45 46  2  0  0  0
 45120  1  0  0  0
 46121  1  0  0  0
 47122  1  0  0  0
 47123  1  0  0  0
 48 56  1  0  0  0
 48 65  1  0  0  0
 48124  1  0  0  0
 49 50  1  0  0  0
 49 53  1  0  0  0
 49 64  1  0  0  0
 49125  1  0  0  0
 50 51  1  0  0  0
 50126  1  0  0  0
 50127  1  0  0  0
 51 52  1  0  0  0
 51128  1  0  0  0
 51129  1  0  0  0
 52130  1  0  0  0
 52131  1  0  0  0
 53 54  1  0  0  0
 54 55  2  0  0  0
 54132  1  0  0  0
 55 57  1  0  0  0
 55133  1  0  0  0
 56 69  2  0  0  0
 57 58  2  0  0  0
 57134  1  0  0  0
 58135  1  0  0  0
 59 60  1  0  0  0
 59 61  1  0  0  0
 59 62  1  0  0  0
 60136  1  0  0  0
 60137  1  0  0  0
 60138  1  0  0  0
 61139  1  0  0  0
 61140  1  0  0  0
 61141  1  0  0  0
 62142  1  0  0  0
 62143  1  0  0  0
 62144  1  0  0  0
 63 65  1  0  0  0
 63145  1  0  0  0
 63146  1  0  0  0
 63147  1  0  0  0
 64148  1  0  0  0
 65149  1  0  0  0
 68 88  1  0  0  0
 71 73  2  0  0  0
 71 74  1  0  0  0
 71150  1  0  0  0
 72 75  2  0  0  0
 72 76  1  0  0  0
 72151  1  0  0  0
 73 75  1  0  0  0
 73 81  1  0  0  0
 74 76  2  0  0  0
 74 83  1  0  0  0
 75 84  1  0  0  0
 76 85  1  0  0  0
 77 78  1  0  0  0
 77 81  1  0  0  0
 77152  1  0  0  0
 77153  1  0  0  0
 78 81  1  0  0  0
 78154  1  0  0  0
 78155  1  0  0  0
 79 80  1  0  0  0
 79 83  1  0  0  0
 79156  1  0  0  0
 79157  1  0  0  0
 80 90  1  0  0  0
 80158  1  0  0  0
 80159  1  0  0  0
 81160  1  0  0  0
 82 83  1  0  0  0
 82 86  1  0  0  0
 82 90  1  0  0  0
 82161  1  0  0  0
 83 89  1  0  0  0
 84162  1  0  0  0
 84163  1  0  0  0
 84164  1  0  0  0
 85165  1  0  0  0
 85166  1  0  0  0
 85167  1  0  0  0
 86168  1  0  0  0
 86169  1  0  0  0
 86170  1  0  0  0
 87171  1  0  0  0
 87172  1  0  0  0
 87173  1  0  0  0
 87 89  1  0  0  0
 88 89  1  0  0  0
 88174  1  0  0  0
 88175  1  0  0  0
 89176  1  0  0  0
M  ISO  4   1 100  68 101  88 101  90 100
M  END
> <chiral flag>
0

> <version>
0

> <s_m_source_file>
/data/baiqing/PycharmProjects/Reinvent-master-3.2/result/LINK_invent/BTK/process_docking_weight1_custom_sum_contain_oxygen_bond_distance_aromatic_linkinvent_7_9_3/rearranged_h_0172.sdf

> <i_m_source_file_index>
1

> <r_mmod_Potential_Energy-OPLS-2005>
2870.49536132812

> <r_mmod_Stretch_Energy-OPLS-2005>
1124.29479980469

> <r_mmod_Bend_Energy-OPLS-2005>
774.445922851562

> <r_mmod_Torsional_Energy-OPLS-2005>
389.012054443359

> <r_mmod_Improper_Torsional_Energy-OPLS-2005>
4.29925775527954

> <r_mmod_Van_der_Waal_Energy-OPLS-2005>
131.164962768555

> <r_mmod_Electrostatic_Energy-OPLS-2005>
-307.981079101562

> <r_mmod_Solvation_Energy-OPLS-2005>
-201.838409423828

> <b_mmod_Minimization_Converged-OPLS-2005>
0

> <r_mmod_RMS_Derivative-OPLS-2005>
10.9278783798218

$$$$
1
                    3D
 Structure written by MMmdl.
175185  0  0  1  0            999 V2000
  -28.5927  -16.3121   20.5216 C   0  0  0  0  0  0
  -29.9927  -13.9866   19.4068 C   0  0  0  0  0  0
  -29.4784  -12.9008   18.4007 C   0  0  0  0  0  0
  -28.2634  -12.1445   18.9501 C   0  0  0  0  0  0
  -27.4655  -13.1802   19.7512 C   0  0  2  0  0  0
  -28.2636  -13.7470   20.9381 C   0  0  0  0  0  0
  -25.1715  -13.7639   20.5477 C   0  0  0  0  0  0
  -24.1204  -13.0079   20.9402 C   0  0  0  0  0  0
  -24.5859  -11.6527   20.8882 C   0  0  0  0  0  0
  -23.8670  -10.4023   21.0556 C   0  0  0  0  0  0
  -24.3374   -9.4045   21.9319 C   0  0  0  0  0  0
  -23.6169   -8.2041   22.0793 C   0  0  0  0  0  0
  -22.4167   -8.0094   21.3548 C   0  0  0  0  0  0
  -21.9725   -9.0012   20.4629 C   0  0  0  0  0  0
  -22.6933  -10.1945   20.3112 C   0  0  0  0  0  0
  -21.6802   -6.0660   22.5288 C   0  0  0  0  0  0
  -21.3961   -6.5584   23.8209 C   0  0  0  0  0  0
  -21.3643   -5.6759   24.9189 C   0  0  0  0  0  0
  -21.6045   -4.3021   24.7258 C   0  0  0  0  0  0
  -21.8835   -3.8099   23.4387 C   0  0  0  0  0  0
  -21.9181   -4.6902   22.3429 C   0  0  0  0  0  0
  -22.7322  -13.4985   21.2152 C   0  0  0  0  0  0
  -22.1658   -4.2078   21.1009 F   0  0  0  0  0  0
  -21.5649   -3.4515   25.7782 F   0  0  0  0  0  0
  -28.8570  -14.8852   20.2292 N   0  0  0  0  0  0
  -26.1794  -12.8588   20.2674 N   0  0  0  0  0  0
  -25.8618  -11.5812   20.5458 N   0  0  0  0  0  0
  -21.9946  -12.7967   22.0673 N   0  0  0  0  0  0
  -25.3317  -15.1164   20.3552 N   0  0  0  0  0  0
  -29.8894  -16.5183   20.5195 O   0  0  0  0  0  0
  -21.6569   -6.8740   21.4234 O   0  0  0  0  0  0
  -22.3139  -14.5327   20.6997 O   0  0  0  0  0  0
  -24.5968  -31.8880   23.2207 C   0  0  0  0  0  0
  -25.8927  -32.4863   23.8580 C   0  0  1  0  0  0
  -27.2129  -27.5003   19.9622 C   0  0  0  0  0  0
  -25.5842  -33.8630   24.2520 N   0  0  0  0  0  0
  -23.3946  -30.6086   21.4546 C   0  0  2  0  0  0
  -24.8314  -29.0127   20.1038 C   0  0  0  0  0  0
  -22.5763  -29.6590   22.3676 C   0  0  0  0  0  0
  -17.8413  -28.4058   22.7215 C   0  0  0  0  0  0
  -24.1476  -36.7329   23.2645 C   0  0  0  0  0  0
  -25.9243  -30.8436   21.3947 C   0  0  0  0  0  0
  -25.9885  -29.4838   20.7350 C   0  0  0  0  0  0
  -27.1820  -28.7143   20.7025 C   0  0  0  0  0  0
  -26.0572  -27.1129   19.2607 C   0  0  0  0  0  0
  -24.8586  -27.8176   19.3734 C   0  0  0  0  0  0
  -23.6140  -29.8791   20.1090 C   0  0  0  0  0  0
  -25.4087  -36.3157   24.0382 C   0  0  1  0  0  0
  -20.3749  -28.7344   22.9843 C   0  0  2  0  0  0
  -20.6735  -27.2261   22.6314 C   0  0  0  0  0  0
  -19.5198  -26.5095   21.8700 C   0  0  0  0  0  0
  -18.0205  -27.1711   21.9596 C   0  0  0  0  0  0
  -18.9744  -29.2121   23.1667 C   0  0  0  0  0  0
  -18.7056  -30.3755   23.9291 C   0  0  0  0  0  0
  -17.4372  -30.7782   24.2452 C   0  0  0  0  0  0
  -25.9020  -34.9447   23.5261 C   0  0  0  0  0  0
  -16.2998  -30.1237   23.7403 C   0  0  0  0  0  0
  -16.5237  -28.9544   22.9462 C   0  0  0  0  0  0
  -26.4378  -31.6605   25.0836 C   0  0  0  0  0  0
  -25.3740  -31.3652   26.1699 C   0  0  0  0  0  0
  -27.0276  -30.3037   24.6287 C   0  0  0  0  0  0
  -27.5988  -32.4371   25.7531 C   0  0  0  0  0  0
  -27.5570  -37.1813   24.8474 C   0  0  0  0  0  0
  -21.2721  -29.5504   22.1230 N   0  0  0  0  0  0
  -26.4320  -37.3770   23.9381 N   0  0  0  0  0  0
  -24.6622  -31.1152   22.0883 N   0  0  0  0  0  0
  -23.1693  -29.0073   23.2526 O   0  0  0  0  0  0
  -28.3345  -26.7295   19.8020 O   0  0  0  0  0  0
  -26.5535  -34.8879   22.4773 O   0  0  0  0  0  0
  -23.5141  -32.1753   23.7689 O   0  0  0  0  0  0
  -23.2304  -19.8450   21.8949 C   0  0  0  0  0  0
  -23.8572  -17.5338   20.8871 C   0  0  0  0  0  0
  -24.6630  -19.5143   21.3252 C   0  0  0  0  0  0
  -25.3836  -18.0871   21.0353 C   0  0  0  0  0  0
  -22.1043  -19.6096   21.2052 C   0  0  0  0  0  0
  -27.4581  -20.5949   21.4081 C   0  0  0  0  0  0
  -26.9827  -19.9234   19.2263 C   0  0  0  0  0  0
  -19.1933  -20.7859   20.9970 C   0  0  0  0  0  0
  -27.5433  -22.2158   20.9887 C   0  0  0  0  0  0
  -27.1022  -21.5640   18.7090 C   0  0  0  0  0  0
  -20.7091  -20.7322   21.4552 C   0  0  2  0  0  0
  -19.8297  -22.0934   20.9970 C   0  0  2  0  0  0
  -27.6439  -19.1573   20.5110 C   0  0  1  0  0  0
  -24.6403  -20.6938   20.2694 C   0  0  0  0  0  0
  -18.5661  -22.9729   21.7130 C   0  0  0  0  0  0
  -27.2699  -24.1937   19.3913 C   0  0  0  0  0  0
  -28.2382  -25.2994   20.0903 C   0  0  0  0  0  0
  -22.4954  -18.2252   20.8879 N   0  0  0  0  0  0
  -27.2413  -17.5794   20.6850 N   0  0  0  0  0  0
  -27.6764  -22.6624   19.6353 N   0  3  1  0  0  0
  -30.4113  -14.7934   18.7545 H   0  0  0  0  0  0
  -30.8430  -13.6994   20.0152 H   0  0  0  0  0  0
  -30.3075  -12.2214   18.0586 H   0  0  0  0  0  0
  -29.2069  -13.3761   17.4590 H   0  0  0  0  0  0
  -28.6682  -11.4032   19.6347 H   0  0  0  0  0  0
  -27.7246  -11.6080   18.1876 H   0  0  0  0  0  0
  -27.1839  -13.9195   18.9973 H   0  0  0  0  0  0
  -27.6146  -14.2555   21.6421 H   0  0  0  0  0  0
  -28.9535  -13.1105   21.4301 H   0  0  0  0  0  0
  -25.2546   -9.5623   22.4808 H   0  0  0  0  0  0
  -23.9928   -7.4473   22.7457 H   0  0  0  0  0  0
  -21.0704   -8.8520   19.8872 H   0  0  0  0  0  0
  -22.3471  -10.9519   19.6173 H   0  0  0  0  0  0
  -21.1906   -7.6080   23.9698 H   0  0  0  0  0  0
  -21.1455   -6.0488   25.9100 H   0  0  0  0  0  0
  -22.0633   -2.7542   23.2919 H   0  0  0  0  0  0
  -22.3501  -11.9576   22.4934 H   0  0  0  0  0  0
  -21.0551  -13.0852   22.2762 H   0  0  0  0  0  0
  -24.4191  -15.5934   20.3480 H   0  0  0  0  0  0
  -25.9192  -15.5247   19.6450 H   0  0  0  0  0  0
  -26.6985  -32.5617   23.1371 H   0  0  0  0  0  0
  -24.9927  -33.9911   25.0610 H   0  0  0  0  0  0
  -22.8000  -31.5243   21.2166 H   0  0  0  0  0  0
  -23.3727  -35.9670   23.3341 H   0  0  0  0  0  0
  -24.3606  -36.8872   22.2062 H   0  0  0  0  0  0
  -23.7277  -37.6545   23.6625 H   0  0  0  0  0  0
  -26.0744  -31.6104   20.6520 H   0  0  0  0  0  0
  -26.7790  -30.8658   22.0518 H   0  0  0  0  0  0
  -28.0675  -29.0696   21.2296 H   0  0  0  0  0  0
  -26.1016  -26.3325   18.5216 H   0  0  0  0  0  0
  -24.0234  -27.4906   18.7715 H   0  0  0  0  0  0
  -23.7350  -30.6122   19.2821 H   0  0  0  0  0  0
  -22.7347  -29.3137   19.8432 H   0  0  0  0  0  0
  -25.1270  -36.2062   25.0872 H   0  0  0  0  0  0
  -20.7265  -28.8637   23.9251 H   0  0  0  0  0  0
  -20.7585  -26.7592   23.6240 H   0  0  0  0  0  0
  -21.3491  -27.2326   21.8022 H   0  0  0  0  0  0
  -19.7500  -25.6265   22.4603 H   0  0  0  0  0  0
  -20.0306  -26.3604   20.9326 H   0  0  0  0  0  0
  -18.3021  -27.7838   21.0891 H   0  0  0  0  0  0
  -17.0800  -26.7785   21.6204 H   0  0  0  0  0  0
  -19.5155  -31.0150   24.3992 H   0  0  0  0  0  0
  -17.2152  -31.7208   24.8516 H   0  0  0  0  0  0
  -15.3715  -30.6175   23.9050 H   0  0  0  0  0  0
  -15.5927  -28.5681   22.4354 H   0  0  0  0  0  0
  -24.5986  -30.6875   25.8158 H   0  0  0  0  0  0
  -24.8870  -32.2761   26.5172 H   0  0  0  0  0  0
  -25.8225  -30.8931   27.0480 H   0  0  0  0  0  0
  -26.2881  -29.6768   24.1343 H   0  0  0  0  0  0
  -27.4032  -29.7306   25.4797 H   0  0  0  0  0  0
  -27.8722  -30.4364   23.9537 H   0  0  0  0  0  0
  -27.2612  -33.3713   26.2061 H   0  0  0  0  0  0
  -28.3730  -32.6886   25.0264 H   0  0  0  0  0  0
  -28.0742  -31.8567   26.5489 H   0  0  0  0  0  0
  -28.2636  -38.0054   24.7421 H   0  0  0  0  0  0
  -28.1024  -36.2579   24.6440 H   0  0  0  0  0  0
  -27.2266  -37.1619   25.8870 H   0  0  0  0  0  0
  -20.8646  -30.0442   21.3168 H   0  0  0  0  0  0
  -26.0232  -38.2856   24.1270 H   0  0  0  0  0  0
  -23.0362  -20.9150   21.9657 H   0  0  0  0  0  0
  -23.8256  -16.4772   20.7772 H   0  0  0  0  0  0
  -28.2983  -20.6284   22.1218 H   0  0  0  0  0  0
  -26.6737  -20.4988   22.2010 H   0  0  0  0  0  0
  -27.1779  -19.3712   18.4069 H   0  0  0  0  0  0
  -26.0121  -19.5557   19.1329 H   0  0  0  0  0  0
  -18.4901  -20.6144   21.7997 H   0  0  0  0  0  0
  -18.6708  -20.8438   20.0016 H   0  0  0  0  0  0
  -28.3459  -22.6402   21.5731 H   0  0  0  0  0  0
  -26.7878  -22.8983   21.3631 H   0  0  0  0  0  0
  -26.1752  -22.0939   18.5400 H   0  0  0  0  0  0
  -27.5261  -21.5260   17.7320 H   0  0  0  0  0  0
  -21.0908  -21.5086   22.0897 H   0  0  0  0  0  0
  -20.1393  -22.4595   20.0086 H   0  0  0  0  0  0
  -27.3213  -18.8695   21.4845 H   0  0  0  0  0  0
  -23.8464  -20.2999   19.7528 H   0  0  0  0  0  0
  -24.8011  -21.7350   19.9999 H   0  0  0  0  0  0
  -24.6859  -21.1140   21.2876 H   0  0  0  0  0  0
  -18.6424  -22.8685   22.8240 H   0  0  0  0  0  0
  -17.5995  -22.5200   21.4442 H   0  0  0  0  0  0
  -18.3213  -24.0412   21.4869 H   0  0  0  0  0  0
  -27.2825  -24.4986   18.3559 H   0  0  0  0  0  0
  -26.2294  -24.5057   19.7058 H   0  0  0  0  0  0
  -29.2724  -25.0416   19.8513 H   0  0  0  0  0  0
  -28.0975  -25.3323   21.1534 H   0  0  0  0  0  0
  -28.6974  -22.6049   19.4520 H   0  0  0  0  0  0
  1 25  1  0  0  0
  1 30  2  0  0  0
  1 89  1  0  0  0
  2  3  1  0  0  0
  2 25  1  0  0  0
  2 91  1  0  0  0
  2 92  1  0  0  0
  3  4  1  0  0  0
  3 93  1  0  0  0
  3 94  1  0  0  0
  4  5  1  0  0  0
  4 95  1  0  0  0
  4 96  1  0  0  0
  5  6  1  0  0  0
  5 26  1  0  0  0
  5 97  1  0  0  0
  6 25  1  0  0  0
  6 98  1  0  0  0
  6 99  1  0  0  0
  7  8  2  0  0  0
  7 26  1  0  0  0
  7 29  1  0  0  0
  8  9  1  0  0  0
  8 22  1  0  0  0
  9 10  1  0  0  0
  9 27  2  0  0  0
 10 11  2  0  0  0
 10 15  1  0  0  0
 11 12  1  0  0  0
 11100  1  0  0  0
 12 13  2  0  0  0
 12101  1  0  0  0
 13 14  1  0  0  0
 13 31  1  0  0  0
 14 15  2  0  0  0
 14102  1  0  0  0
 15103  1  0  0  0
 16 17  2  0  0  0
 16 21  1  0  0  0
 16 31  1  0  0  0
 17 18  1  0  0  0
 17104  1  0  0  0
 18 19  2  0  0  0
 18105  1  0  0  0
 19 20  1  0  0  0
 19 24  1  0  0  0
 20 21  2  0  0  0
 20106  1  0  0  0
 21 23  1  0  0  0
 22 28  1  0  0  0
 22 32  2  0  0  0
 26 27  1  0  0  0
 28107  1  0  0  0
 28108  1  0  0  0
 29109  1  0  0  0
 29110  1  0  0  0
 33 34  1  0  0  0
 33 66  1  0  0  0
 33 70  2  0  0  0
 34 36  1  0  0  0
 34 59  1  0  0  0
 34111  1  0  0  0
 35 44  2  0  0  0
 35 45  1  0  0  0
 35 68  1  0  0  0
 36 56  1  0  0  0
 36112  1  0  0  0
 37 39  1  0  0  0
 37 47  1  0  0  0
 37 66  1  0  0  0
 37113  1  0  0  0
 38 43  2  0  0  0
 38 46  1  0  0  0
 38 47  1  0  0  0
 39 64  1  0  0  0
 39 67  2  0  0  0
 40 52  1  0  0  0
 40 53  2  0  0  0
 40 58  1  0  0  0
 41114  1  0  0  0
 41115  1  0  0  0
 41116  1  0  0  0
 41 48  1  0  0  0
 42 43  1  0  0  0
 42 66  1  0  0  0
 42117  1  0  0  0
 42118  1  0  0  0
 43 44  1  0  0  0
 44119  1  0  0  0
 45 46  2  0  0  0
 45120  1  0  0  0
 46121  1  0  0  0
 47122  1  0  0  0
 47123  1  0  0  0
 48 56  1  0  0  0
 48 65  1  0  0  0
 48124  1  0  0  0
 49 50  1  0  0  0
 49 53  1  0  0  0
 49 64  1  0  0  0
 49125  1  0  0  0
 50 51  1  0  0  0
 50126  1  0  0  0
 50127  1  0  0  0
 51 52  1  0  0  0
 51128  1  0  0  0
 51129  1  0  0  0
 52130  1  0  0  0
 52131  1  0  0  0
 53 54  1  0  0  0
 54 55  2  0  0  0
 54132  1  0  0  0
 55 57  1  0  0  0
 55133  1  0  0  0
 56 69  2  0  0  0
 57 58  2  0  0  0
 57134  1  0  0  0
 58135  1  0  0  0
 59 60  1  0  0  0
 59 61  1  0  0  0
 59 62  1  0  0  0
 60136  1  0  0  0
 60137  1  0  0  0
 60138  1  0  0  0
 61139  1  0  0  0
 61140  1  0  0  0
 61141  1  0  0  0
 62142  1  0  0  0
 62143  1  0  0  0
 62144  1  0  0  0
 63 65  1  0  0  0
 63145  1  0  0  0
 63146  1  0  0  0
 63147  1  0  0  0
 64148  1  0  0  0
 65149  1  0  0  0
 68 87  1  0  0  0
 71 73  2  0  0  0
 71 75  1  0  0  0
 71150  1  0  0  0
 72 74  2  0  0  0
 72 88  1  0  0  0
 72151  1  0  0  0
 73 74  1  0  0  0
 73 84  1  0  0  0
 74 89  1  0  0  0
 75 88  2  0  0  0
 75 81  1  0  0  0
 76 79  1  0  0  0
 76 83  1  0  0  0
 76152  1  0  0  0
 76153  1  0  0  0
 77 80  1  0  0  0
 77 83  1  0  0  0
 77154  1  0  0  0
 77155  1  0  0  0
 78 81  1  0  0  0
 78 82  1  0  0  0
 78156  1  0  0  0
 78157  1  0  0  0
 79 90  1  0  0  0
 79158  1  0  0  0
 79159  1  0  0  0
 80 90  1  0  0  0
 80160  1  0  0  0
 80161  1  0  0  0
 81 82  1  0  0  0
 81162  1  0  0  0
 82 85  1  0  0  0
 82163  1  0  0  0
 83 89  1  0  0  0
 83164  1  0  0  0
 84165  1  0  0  0
 84166  1  0  0  0
 84167  1  0  0  0
 85168  1  0  0  0
 85169  1  0  0  0
 85170  1  0  0  0
 86 87  1  0  0  0
 86171  1  0  0  0
 86172  1  0  0  0
 86 90  1  0  0  0
 87173  1  0  0  0
 87174  1  0  0  0
 90175  1  0  0  0
M  CHG  1  90   1
M  ISO  4   1 100  68 101  87 101  89 100
M  END
> <chiral flag>
0

> <version>
0

> <s_m_source_file>
/data/baiqing/PycharmProjects/Reinvent-master-3.2/result/LINK_invent/BTK/process_docking_weight1_custom_sum_contain_oxygen_bond_distance_aromatic_linkinvent_7_9_3/rearranged_h_0172.sdf

> <i_m_source_file_index>
2

> <r_mmod_Potential_Energy-OPLS-2005>
7364.48828125

> <r_mmod_Stretch_Energy-OPLS-2005>
2091.54956054688

> <r_mmod_Bend_Energy-OPLS-2005>
2232.19018554688

> <r_mmod_Torsional_Energy-OPLS-2005>
591.28271484375

> <r_mmod_Improper_Torsional_Energy-OPLS-2005>
40.0182075500488

> <r_mmod_Van_der_Waal_Energy-OPLS-2005>
463.987487792969

> <r_mmod_Electrostatic_Energy-OPLS-2005>
-269.988311767578

> <r_mmod_Solvation_Energy-OPLS-2005>
-451.055541992188

> <b_mmod_Minimization_Converged-OPLS-2005>
0

> <r_mmod_RMS_Derivative-OPLS-2005>
99.9990005493164

$$$$
2
                    3D
 Structure written by MMmdl.
159169  0  0  1  0            999 V2000
  -30.6498  -14.8917   20.4201 C   0  0  0  0  0  0
  -30.4133  -12.5637   19.4862 C   0  0  0  0  0  0
  -29.5035  -12.5217   18.2425 C   0  0  0  0  0  0
  -28.0374  -12.3248   18.6634 C   0  0  0  0  0  0
  -27.6224  -13.2594   19.8320 C   0  0  2  0  0  0
  -28.6717  -13.3111   20.9648 C   0  0  0  0  0  0
  -25.2411  -13.8244   20.5724 C   0  0  0  0  0  0
  -24.1748  -13.0448   20.9250 C   0  0  0  0  0  0
  -24.6383  -11.6944   20.8772 C   0  0  0  0  0  0
  -23.9081  -10.4304   21.0412 C   0  0  0  0  0  0
  -24.3626   -9.4213   21.9186 C   0  0  0  0  0  0
  -23.6297   -8.2246   22.0751 C   0  0  0  0  0  0
  -22.4282   -8.0282   21.3541 C   0  0  0  0  0  0
  -21.9924   -9.0256   20.4642 C   0  0  0  0  0  0
  -22.7255  -10.2136   20.3055 C   0  0  0  0  0  0
  -21.6860   -6.0735   22.5276 C   0  0  0  0  0  0
  -21.4020   -6.5638   23.8211 C   0  0  0  0  0  0
  -21.3654   -5.6785   24.9172 C   0  0  0  0  0  0
  -21.6047   -4.3049   24.7217 C   0  0  0  0  0  0
  -21.8823   -3.8145   23.4336 C   0  0  0  0  0  0
  -21.9196   -4.6964   22.3397 C   0  0  0  0  0  0
  -22.7765  -13.5205   21.1889 C   0  0  0  0  0  0
  -22.1667   -4.2148   21.0974 F   0  0  0  0  0  0
  -21.5622   -3.4535   25.7729 F   0  0  0  0  0  0
  -29.9434  -13.6944   20.3401 N   0  0  0  0  0  0
  -26.2854  -12.9507   20.3267 N   0  0  0  0  0  0
  -25.9323  -11.6626   20.5771 N   0  0  0  0  0  0
  -22.0411  -12.8199   22.0441 N   0  0  0  0  0  0
  -25.4023  -15.1967   20.4103 N   0  0  0  0  0  0
  -31.8656  -14.8143   20.2165 O   0  0  0  0  0  0
  -21.6647   -6.8878   21.4237 O   0  0  0  0  0  0
  -22.3453  -14.5504   20.6722 O   0  0  0  0  0  0
  -24.6425  -31.8464   23.1919 C   0  0  0  0  0  0
  -25.9209  -32.4694   23.8296 C   0  0  1  0  0  0
  -27.2032  -27.1565   20.1337 C   0  0  0  0  0  0
  -25.5967  -33.8502   24.2205 N   0  0  0  0  0  0
  -23.4431  -30.4709   21.5363 C   0  0  2  0  0  0
  -24.8882  -28.9051   20.1062 C   0  0  0  0  0  0
  -22.7548  -29.4575   22.4855 C   0  0  0  0  0  0
  -18.0303  -28.1393   22.8477 C   0  0  0  0  0  0
  -24.1496  -36.7258   23.2644 C   0  0  0  0  0  0
  -25.9993  -30.7237   21.3909 C   0  0  0  0  0  0
  -26.0663  -29.3403   20.7255 C   0  0  0  0  0  0
  -27.2274  -28.4813   20.7236 C   0  0  0  0  0  0
  -25.9984  -26.8232   19.4747 C   0  0  0  0  0  0
  -24.8657  -27.6596   19.4661 C   0  0  0  0  0  0
  -23.6667  -29.8061   20.1531 C   0  0  0  0  0  0
  -25.4125  -36.3034   24.0318 C   0  0  1  0  0  0
  -20.5911  -28.3727   23.1230 C   0  0  2  0  0  0
  -20.6778  -26.9428   22.5408 C   0  0  0  0  0  0
  -19.5756  -26.6375   21.5210 C   0  0  0  0  0  0
  -18.1940  -26.7934   22.1623 C   0  0  0  0  0  0
  -19.1559  -28.8875   23.2849 C   0  0  0  0  0  0
  -18.9479  -30.1469   23.8881 C   0  0  0  0  0  0
  -17.6476  -30.6591   24.0563 C   0  0  0  0  0  0
  -25.9073  -34.9404   23.5067 C   0  0  0  0  0  0
  -16.5364  -29.9088   23.6333 C   0  0  0  0  0  0
  -16.7290  -28.6504   23.0357 C   0  0  0  0  0  0
  -26.4533  -31.6559   25.0738 C   0  0  0  0  0  0
  -25.3728  -31.3732   26.1440 C   0  0  0  0  0  0
  -27.0415  -30.2961   24.6327 C   0  0  0  0  0  0
  -27.6059  -32.4334   25.7525 C   0  0  0  0  0  0
  -27.5576  -37.1794   24.8466 C   0  0  0  0  0  0
  -21.4242  -29.3066   22.3601 N   0  0  0  0  0  0
  -26.4292  -37.3745   23.9405 N   0  0  0  0  0  0
  -24.7145  -31.0355   22.0938 N   0  0  0  0  0  0
  -23.4199  -28.8102   23.2983 O   0  0  0  0  0  0
  -28.2450  -26.1669   20.2069 O   0  0  0  0  0  0
  -26.5654  -34.8897   22.4643 O   0  0  0  0  0  0
  -23.5555  -32.1324   23.7163 O   0  0  0  0  0  0
  -28.4856  -21.9556   20.1793 C   0  0  0  0  0  0
  -30.6912  -21.2157   20.7235 C   0  0  0  0  0  0
  -28.8817  -23.3786   20.2901 C   0  0  0  0  0  0
  -29.3846  -20.8013   20.3890 C   0  0  0  0  0  0
  -30.2444  -23.5391   20.6241 C   0  0  0  0  0  0
  -28.5507  -17.3976   19.0829 C   0  0  0  0  0  0
  -28.7529  -18.3155   21.2649 C   0  0  0  0  0  0
  -30.7947  -17.4002   19.7991 C   0  0  0  0  0  0
  -28.7457  -16.8750   20.5042 C   0  0  2  0  0  0
  -29.6822  -18.4109   19.2419 C   0  0  2  0  0  0
  -30.8742  -24.9132   20.7417 C   0  0  0  0  0  0
  -27.9048  -24.6676   20.0156 C   0  0  0  0  0  0
  -31.0984  -22.5055   20.8360 N   0  0  0  0  0  0
  -29.1086  -19.3506   20.2434 N   0  0  0  0  0  0
  -30.0852  -16.2038   20.3808 N   0  0  0  0  0  0
  -31.4524  -12.6723   19.1701 H   0  0  0  0  0  0
  -30.3707  -11.6202   20.0328 H   0  0  0  0  0  0
  -29.8131  -11.7209   17.5704 H   0  0  0  0  0  0
  -29.6053  -13.4518   17.6813 H   0  0  0  0  0  0
  -27.9215  -11.2832   18.9649 H   0  0  0  0  0  0
  -27.3748  -12.4721   17.8088 H   0  0  0  0  0  0
  -27.5770  -14.2575   19.3954 H   0  0  0  0  0  0
  -28.7533  -12.3495   21.4735 H   0  0  0  0  0  0
  -28.3869  -14.0410   21.7237 H   0  0  0  0  0  0
  -25.2761   -9.5694   22.4776 H   0  0  0  0  0  0
  -24.0003   -7.4642   22.7476 H   0  0  0  0  0  0
  -21.0857   -8.8773   19.8947 H   0  0  0  0  0  0
  -22.3704  -10.9674   19.6170 H   0  0  0  0  0  0
  -21.2019   -7.6147   23.9714 H   0  0  0  0  0  0
  -21.1474   -6.0516   25.9074 H   0  0  0  0  0  0
  -22.0606   -2.7606   23.2836 H   0  0  0  0  0  0
  -22.4036  -11.9876   22.4850 H   0  0  0  0  0  0
  -21.1017  -13.1216   22.2623 H   0  0  0  0  0  0
  -24.6275  -15.8429   20.5130 H   0  0  0  0  0  0
  -26.2385  -15.6350   20.0487 H   0  0  0  0  0  0
  -26.7269  -32.5297   23.1021 H   0  0  0  0  0  0
  -25.0113  -33.9612   25.0353 H   0  0  0  0  0  0
  -22.7463  -31.2979   21.3860 H   0  0  0  0  0  0
  -23.3758  -35.9593   23.3295 H   0  0  0  0  0  0
  -24.3580  -36.8900   22.2060 H   0  0  0  0  0  0
  -23.7249  -37.6452   23.6683 H   0  0  0  0  0  0
  -26.1626  -31.4805   20.6230 H   0  0  0  0  0  0
  -26.8678  -30.7635   22.0374 H   0  0  0  0  0  0
  -28.1225  -28.8054   21.2338 H   0  0  0  0  0  0
  -25.8859  -25.8755   18.9708 H   0  0  0  0  0  0
  -23.9661  -27.3245   18.9681 H   0  0  0  0  0  0
  -23.8066  -30.5822   19.4000 H   0  0  0  0  0  0
  -22.7801  -29.2507   19.8398 H   0  0  0  0  0  0
  -25.1315  -36.1867   25.0811 H   0  0  0  0  0  0
  -21.0012  -28.3321   24.1346 H   0  0  0  0  0  0
  -20.5646  -26.2350   23.3636 H   0  0  0  0  0  0
  -21.6647  -26.7415   22.1222 H   0  0  0  0  0  0
  -19.6913  -25.6274   21.1266 H   0  0  0  0  0  0
  -19.6686  -27.3164   20.6721 H   0  0  0  0  0  0
  -17.4206  -26.6679   21.4030 H   0  0  0  0  0  0
  -18.0339  -26.0078   22.9022 H   0  0  0  0  0  0
  -19.7955  -30.7284   24.2244 H   0  0  0  0  0  0
  -17.5035  -31.6271   24.5169 H   0  0  0  0  0  0
  -15.5368  -30.2990   23.7658 H   0  0  0  0  0  0
  -15.8692  -28.0816   22.7083 H   0  0  0  0  0  0
  -24.5927  -30.7051   25.7765 H   0  0  0  0  0  0
  -24.8899  -32.2905   26.4820 H   0  0  0  0  0  0
  -25.8036  -30.8947   27.0245 H   0  0  0  0  0  0
  -26.3038  -29.6673   24.1330 H   0  0  0  0  0  0
  -27.4018  -29.7269   25.4904 H   0  0  0  0  0  0
  -27.8945  -30.4193   23.9654 H   0  0  0  0  0  0
  -27.2640  -33.3649   26.2047 H   0  0  0  0  0  0
  -28.3904  -32.6868   25.0382 H   0  0  0  0  0  0
  -28.0692  -31.8502   26.5493 H   0  0  0  0  0  0
  -28.2591  -38.0095   24.7509 H   0  0  0  0  0  0
  -28.1078  -36.2623   24.6303 H   0  0  0  0  0  0
  -27.2295  -37.1453   25.8871 H   0  0  0  0  0  0
  -20.9440  -29.8817   21.6819 H   0  0  0  0  0  0
  -26.0157  -38.2818   24.1400 H   0  0  0  0  0  0
  -27.4632  -21.7455   19.9029 H   0  0  0  0  0  0
  -31.4595  -20.4769   20.8987 H   0  0  0  0  0  0
  -28.7358  -16.6497   18.3082 H   0  0  0  0  0  0
  -27.5747  -17.8543   18.9057 H   0  0  0  0  0  0
  -29.4460  -18.3234   22.1080 H   0  0  0  0  0  0
  -27.7601  -18.5365   21.6604 H   0  0  0  0  0  0
  -31.4282  -17.0721   18.9727 H   0  0  0  0  0  0
  -31.4510  -17.8672   20.5350 H   0  0  0  0  0  0
  -27.9703  -16.1974   20.8557 H   0  0  0  0  0  0
  -29.9642  -18.9094   18.3123 H   0  0  0  0  0  0
  -30.3728  -25.5061   21.5062 H   0  0  0  0  0  0
  -30.8030  -25.4439   19.7918 H   0  0  0  0  0  0
  -31.9289  -24.8509   21.0110 H   0  0  0  0  0  0
  -27.0033  -24.4736   20.5988 H   0  0  0  0  0  0
  -27.6118  -24.5532   18.9726 H   0  0  0  0  0  0
  1 25  1  0  0  0
  1 30  2  0  0  0
  1 85  1  0  0  0
  2  3  1  0  0  0
  2 25  1  0  0  0
  2 86  1  0  0  0
  2 87  1  0  0  0
  3  4  1  0  0  0
  3 88  1  0  0  0
  3 89  1  0  0  0
  4  5  1  0  0  0
  4 90  1  0  0  0
  4 91  1  0  0  0
  5  6  1  0  0  0
  5 26  1  0  0  0
  5 92  1  0  0  0
  6 25  1  0  0  0
  6 93  1  0  0  0
  6 94  1  0  0  0
  7  8  2  0  0  0
  7 26  1  0  0  0
  7 29  1  0  0  0
  8  9  1  0  0  0
  8 22  1  0  0  0
  9 10  1  0  0  0
  9 27  2  0  0  0
 10 11  2  0  0  0
 10 15  1  0  0  0
 11 12  1  0  0  0
 11 95  1  0  0  0
 12 13  2  0  0  0
 12 96  1  0  0  0
 13 14  1  0  0  0
 13 31  1  0  0  0
 14 15  2  0  0  0
 14 97  1  0  0  0
 15 98  1  0  0  0
 16 17  2  0  0  0
 16 21  1  0  0  0
 16 31  1  0  0  0
 17 18  1  0  0  0
 17 99  1  0  0  0
 18 19  2  0  0  0
 18100  1  0  0  0
 19 20  1  0  0  0
 19 24  1  0  0  0
 20 21  2  0  0  0
 20101  1  0  0  0
 21 23  1  0  0  0
 22 28  1  0  0  0
 22 32  2  0  0  0
 26 27  1  0  0  0
 28102  1  0  0  0
 28103  1  0  0  0
 29104  1  0  0  0
 29105  1  0  0  0
 33 34  1  0  0  0
 33 66  1  0  0  0
 33 70  2  0  0  0
 34 36  1  0  0  0
 34 59  1  0  0  0
 34106  1  0  0  0
 35 44  2  0  0  0
 35 45  1  0  0  0
 35 68  1  0  0  0
 36 56  1  0  0  0
 36107  1  0  0  0
 37 39  1  0  0  0
 37 47  1  0  0  0
 37 66  1  0  0  0
 37108  1  0  0  0
 38 43  2  0  0  0
 38 46  1  0  0  0
 38 47  1  0  0  0
 39 64  1  0  0  0
 39 67  2  0  0  0
 40 52  1  0  0  0
 40 53  2  0  0  0
 40 58  1  0  0  0
 41109  1  0  0  0
 41110  1  0  0  0
 41111  1  0  0  0
 41 48  1  0  0  0
 42 43  1  0  0  0
 42 66  1  0  0  0
 42112  1  0  0  0
 42113  1  0  0  0
 43 44  1  0  0  0
 44114  1  0  0  0
 45 46  2  0  0  0
 45115  1  0  0  0
 46116  1  0  0  0
 47117  1  0  0  0
 47118  1  0  0  0
 48 56  1  0  0  0
 48 65  1  0  0  0
 48119  1  0  0  0
 49 50  1  0  0  0
 49 53  1  0  0  0
 49 64  1  0  0  0
 49120  1  0  0  0
 50 51  1  0  0  0
 50121  1  0  0  0
 50122  1  0  0  0
 51 52  1  0  0  0
 51123  1  0  0  0
 51124  1  0  0  0
 52125  1  0  0  0
 52126  1  0  0  0
 53 54  1  0  0  0
 54 55  2  0  0  0
 54127  1  0  0  0
 55 57  1  0  0  0
 55128  1  0  0  0
 56 69  2  0  0  0
 57 58  2  0  0  0
 57129  1  0  0  0
 58130  1  0  0  0
 59 60  1  0  0  0
 59 61  1  0  0  0
 59 62  1  0  0  0
 60131  1  0  0  0
 60132  1  0  0  0
 60133  1  0  0  0
 61134  1  0  0  0
 61135  1  0  0  0
 61136  1  0  0  0
 62137  1  0  0  0
 62138  1  0  0  0
 62139  1  0  0  0
 63 65  1  0  0  0
 63140  1  0  0  0
 63141  1  0  0  0
 63142  1  0  0  0
 64143  1  0  0  0
 65144  1  0  0  0
 68 82  1  0  0  0
 71 73  2  0  0  0
 71 74  1  0  0  0
 71145  1  0  0  0
 72 74  2  0  0  0
 72 83  1  0  0  0
 72146  1  0  0  0
 73 75  1  0  0  0
 73 82  1  0  0  0
 74 84  1  0  0  0
 75 81  1  0  0  0
 75 83  2  0  0  0
 76 79  1  0  0  0
 76 80  1  0  0  0
 76147  1  0  0  0
 76148  1  0  0  0
 77 84  1  0  0  0
 77149  1  0  0  0
 77150  1  0  0  0
 77 79  1  0  0  0
 78 85  1  0  0  0
 78151  1  0  0  0
 78152  1  0  0  0
 78 80  1  0  0  0
 79 85  1  0  0  0
 79153  1  0  0  0
 80 84  1  0  0  0
 80154  1  0  0  0
 81155  1  0  0  0
 81156  1  0  0  0
 81157  1  0  0  0
 82158  1  0  0  0
 82159  1  0  0  0
M  ISO  4   1 100  68 101  82 101  85 100
M  END
> <chiral flag>
0

> <version>
0

> <s_m_source_file>
/data/baiqing/PycharmProjects/Reinvent-master-3.2/result/LINK_invent/BTK/process_docking_weight1_custom_sum_contain_oxygen_bond_distance_aromatic_linkinvent_7_9_3/rearranged_h_0172.sdf

> <i_m_source_file_index>
3

> <r_mmod_Potential_Energy-OPLS-2005>
722.598937988281

> <r_mmod_Stretch_Energy-OPLS-2005>
201.324157714844

> <r_mmod_Bend_Energy-OPLS-2005>
405.920471191406

> <r_mmod_Torsional_Energy-OPLS-2005>
416.804412841797

> <r_mmod_Improper_Torsional_Energy-OPLS-2005>
11.8030986785889

> <r_mmod_Van_der_Waal_Energy-OPLS-2005>
140.479263305664

> <r_mmod_Electrostatic_Energy-OPLS-2005>
-400.762603759766

> <r_mmod_Solvation_Energy-OPLS-2005>
-224.155410766602

> <b_mmod_Minimization_Converged-OPLS-2005>
0

> <r_mmod_RMS_Derivative-OPLS-2005>
1.50596415996552

$$$$
3
                    3D
 Structure written by MMmdl.
178188  0  0  1  0            999 V2000
  -30.7569  -14.3892   20.6664 C   0  0  0  0  0  0
  -30.4162  -12.2894   19.4120 C   0  0  0  0  0  0
  -29.4917  -12.5236   18.2012 C   0  0  0  0  0  0
  -28.0122  -12.3821   18.6076 C   0  0  0  0  0  0
  -27.6646  -13.2040   19.8756 C   0  0  2  0  0  0
  -28.6970  -12.9486   20.9923 C   0  0  0  0  0  0
  -25.2609  -13.8159   20.5675 C   0  0  0  0  0  0
  -24.1852  -13.0446   20.9164 C   0  0  0  0  0  0
  -24.6395  -11.6906   20.8719 C   0  0  0  0  0  0
  -23.9056  -10.4295   21.0399 C   0  0  0  0  0  0
  -24.3608   -9.4216   21.9182 C   0  0  0  0  0  0
  -23.6291   -8.2247   22.0753 C   0  0  0  0  0  0
  -22.4273   -8.0280   21.3543 C   0  0  0  0  0  0
  -21.9908   -9.0250   20.4644 C   0  0  0  0  0  0
  -22.7231  -10.2131   20.3048 C   0  0  0  0  0  0
  -21.6853   -6.0733   22.5282 C   0  0  0  0  0  0
  -21.4009   -6.5637   23.8217 C   0  0  0  0  0  0
  -21.3660   -5.6786   24.9176 C   0  0  0  0  0  0
  -21.6044   -4.3050   24.7222 C   0  0  0  0  0  0
  -21.8820   -3.8142   23.4344 C   0  0  0  0  0  0
  -21.9194   -4.6962   22.3404 C   0  0  0  0  0  0
  -22.7881  -13.5255   21.1828 C   0  0  0  0  0  0
  -22.1666   -4.2150   21.0980 F   0  0  0  0  0  0
  -21.5630   -3.4530   25.7735 F   0  0  0  0  0  0
  -30.0422  -13.2467   20.4658 N   0  0  0  0  0  0
  -26.3033  -12.9325   20.3342 N   0  0  0  0  0  0
  -25.9315  -11.6486   20.5729 N   0  0  0  0  0  0
  -22.0508  -12.8247   22.0380 N   0  0  0  0  0  0
  -25.4356  -15.1875   20.4104 N   0  0  0  0  0  0
  -31.7993  -14.6354   20.0467 O   0  0  0  0  0  0
  -21.6640   -6.8875   21.4243 O   0  0  0  0  0  0
  -22.3577  -14.5565   20.6686 O   0  0  0  0  0  0
  -24.6111  -31.8695   23.2128 C   0  0  0  0  0  0
  -25.9019  -32.4831   23.8411 C   0  0  1  0  0  0
  -27.2341  -27.4666   20.0918 C   0  0  0  0  0  0
  -25.5890  -33.8630   24.2346 N   0  0  0  0  0  0
  -23.3980  -30.4929   21.5517 C   0  0  2  0  0  0
  -24.8462  -28.9620   20.1141 C   0  0  0  0  0  0
  -22.7396  -29.4660   22.5002 C   0  0  0  0  0  0
  -18.0267  -28.1369   22.8492 C   0  0  0  0  0  0
  -24.1483  -36.7318   23.2636 C   0  0  0  0  0  0
  -25.9232  -30.8433   21.3631 C   0  0  0  0  0  0
  -26.0021  -29.4788   20.7148 C   0  0  0  0  0  0
  -27.2005  -28.7341   20.7096 C   0  0  0  0  0  0
  -26.0729  -26.9626   19.4741 C   0  0  0  0  0  0
  -24.8736  -27.6997   19.4939 C   0  0  0  0  0  0
  -23.6050  -29.8232   20.1659 C   0  0  0  0  0  0
  -25.4102  -36.3121   24.0344 C   0  0  1  0  0  0
  -20.5856  -28.3651   23.1326 C   0  0  2  0  0  0
  -20.6761  -26.9392   22.5416 C   0  0  0  0  0  0
  -19.5741  -26.6381   21.5210 C   0  0  0  0  0  0
  -18.1916  -26.7922   22.1614 C   0  0  0  0  0  0
  -19.1516  -28.8827   23.2905 C   0  0  0  0  0  0
  -18.9445  -30.1437   23.8911 C   0  0  0  0  0  0
  -17.6449  -30.6581   24.0559 C   0  0  0  0  0  0
  -25.9029  -34.9482   23.5142 C   0  0  0  0  0  0
  -16.5339  -29.9083   23.6326 C   0  0  0  0  0  0
  -16.7256  -28.6495   23.0352 C   0  0  0  0  0  0
  -26.4463  -31.6595   25.0726 C   0  0  0  0  0  0
  -25.3740  -31.3679   26.1477 C   0  0  0  0  0  0
  -27.0290  -30.3045   24.6069 C   0  0  0  0  0  0
  -27.6046  -32.4305   25.7487 C   0  0  0  0  0  0
  -27.5584  -37.1810   24.8456 C   0  0  0  0  0  0
  -21.4127  -29.3024   22.3739 N   0  0  0  0  0  0
  -26.4287  -37.3806   23.9416 N   0  0  0  0  0  0
  -24.6620  -31.0823   22.1013 N   0  0  0  0  0  0
  -23.4184  -28.8205   23.3034 O   0  0  0  0  0  0
  -28.3835  -26.7192   20.0703 O   0  0  0  0  0  0
  -26.5588  -34.8929   22.4702 O   0  0  0  0  0  0
  -23.5312  -32.1427   23.7546 O   0  0  0  0  0  0
  -26.4274  -21.6675   22.5398 C   0  0  0  0  0  0
  -28.7817  -20.5096   23.4836 C   0  0  0  0  0  0
  -27.5485  -22.4945   22.7667 C   0  0  0  0  0  0
  -28.7442  -21.8947   23.2204 C   0  0  0  0  0  0
  -27.6502  -19.6838   23.2848 C   0  0  0  0  0  0
  -26.4593  -20.2705   22.7708 C   0  0  0  0  0  0
  -29.1047  -17.5598   21.6017 C   0  0  0  0  0  0
  -28.9748  -15.9323   23.5176 C   0  0  0  0  0  0
  -26.3730  -24.6552   21.7600 C   0  0  0  0  0  0
  -30.2958  -16.7481   21.0583 C   0  0  0  0  0  0
  -30.1781  -15.1841   22.9070 C   0  0  0  0  0  0
  -27.4485  -23.9907   22.5862 C   0  0  2  0  0  0
  -28.9765  -17.4347   23.1370 C   0  0  0  0  0  0
  -27.8085  -24.6722   21.2784 C   0  0  2  0  0  0
  -29.9882  -22.7305   23.4682 C   0  0  0  0  0  0
  -24.3762  -19.9408   21.4909 C   0  0  0  0  0  0
  -28.6099  -25.9675   21.2635 C   0  0  0  0  0  0
  -27.7376  -18.2016   23.6971 C   0  0  1  0  0  0
  -30.1811  -15.3352   21.4459 N   0  0  0  0  0  0
  -25.3089  -19.4983   22.5228 N   0  0  0  0  0  0
  -27.6542  -18.1144   25.1647 N   0  3  0  0  0  0
  -31.4623  -12.3787   19.1126 H   0  0  0  0  0  0
  -30.3047  -11.2693   19.7839 H   0  0  0  0  0  0
  -29.7286  -11.8176   17.4040 H   0  0  0  0  0  0
  -29.6667  -13.5198   17.7907 H   0  0  0  0  0  0
  -27.8148  -11.3244   18.7861 H   0  0  0  0  0  0
  -27.3648  -12.6762   17.7809 H   0  0  0  0  0  0
  -27.7222  -14.2585   19.6036 H   0  0  0  0  0  0
  -28.6599  -11.9070   21.3144 H   0  0  0  0  0  0
  -28.4262  -13.5280   21.8712 H   0  0  0  0  0  0
  -25.2754   -9.5693   22.4755 H   0  0  0  0  0  0
  -24.0003   -7.4634   22.7467 H   0  0  0  0  0  0
  -21.0842   -8.8757   19.8946 H   0  0  0  0  0  0
  -22.3693  -10.9659   19.6144 H   0  0  0  0  0  0
  -21.1995   -7.6144   23.9720 H   0  0  0  0  0  0
  -21.1483   -6.0515   25.9081 H   0  0  0  0  0  0
  -22.0598   -2.7604   23.2840 H   0  0  0  0  0  0
  -22.4104  -11.9886   22.4738 H   0  0  0  0  0  0
  -21.1126  -13.1277   22.2566 H   0  0  0  0  0  0
  -24.6624  -15.8381   20.4860 H   0  0  0  0  0  0
  -26.2877  -15.6170   20.0734 H   0  0  0  0  0  0
  -26.7094  -32.5560   23.1186 H   0  0  0  0  0  0
  -25.0059  -33.9792   25.0503 H   0  0  0  0  0  0
  -22.6854  -31.3087   21.4136 H   0  0  0  0  0  0
  -23.3751  -35.9643   23.3293 H   0  0  0  0  0  0
  -24.3583  -36.8932   22.2052 H   0  0  0  0  0  0
  -23.7221  -37.6518   23.6646 H   0  0  0  0  0  0
  -26.0305  -31.6086   20.5929 H   0  0  0  0  0  0
  -26.8130  -30.8991   21.9780 H   0  0  0  0  0  0
  -28.0947  -29.1274   21.1732 H   0  0  0  0  0  0
  -26.0964  -25.9955   18.9920 H   0  0  0  0  0  0
  -23.9864  -27.2969   19.0248 H   0  0  0  0  0  0
  -23.7058  -30.5957   19.4024 H   0  0  0  0  0  0
  -22.7315  -29.2360   19.8764 H   0  0  0  0  0  0
  -25.1275  -36.1992   25.0837 H   0  0  0  0  0  0
  -20.9948  -28.3207   24.1447 H   0  0  0  0  0  0
  -20.5660  -26.2256   23.3596 H   0  0  0  0  0  0
  -21.6631  -26.7439   22.1208 H   0  0  0  0  0  0
  -19.6900  -25.6295   21.1229 H   0  0  0  0  0  0
  -19.6696  -27.3199   20.6749 H   0  0  0  0  0  0
  -17.4199  -26.6690   21.4001 H   0  0  0  0  0  0
  -18.0302  -26.0048   22.8989 H   0  0  0  0  0  0
  -19.7925  -30.7245   24.2287 H   0  0  0  0  0  0
  -17.5009  -31.6268   24.5147 H   0  0  0  0  0  0
  -15.5341  -30.2991   23.7642 H   0  0  0  0  0  0
  -15.8653  -28.0820   22.7064 H   0  0  0  0  0  0
  -24.5917  -30.7023   25.7809 H   0  0  0  0  0  0
  -24.8926  -32.2823   26.4955 H   0  0  0  0  0  0
  -25.8103  -30.8827   27.0217 H   0  0  0  0  0  0
  -26.2825  -29.6814   24.1128 H   0  0  0  0  0  0
  -27.4081  -29.7270   25.4510 H   0  0  0  0  0  0
  -27.8652  -30.4381   23.9200 H   0  0  0  0  0  0
  -27.2673  -33.3594   26.2097 H   0  0  0  0  0  0
  -28.3844  -32.6872   25.0305 H   0  0  0  0  0  0
  -28.0724  -31.8401   26.5375 H   0  0  0  0  0  0
  -28.2584  -38.0127   24.7543 H   0  0  0  0  0  0
  -28.1099  -36.2663   24.6229 H   0  0  0  0  0  0
  -27.2309  -37.1391   25.8858 H   0  0  0  0  0  0
  -20.9282  -29.8748   21.6967 H   0  0  0  0  0  0
  -26.0180  -38.2881   24.1433 H   0  0  0  0  0  0
  -25.5102  -22.1303   22.2110 H   0  0  0  0  0  0
  -29.6961  -20.0819   23.8690 H   0  0  0  0  0  0
  -28.1852  -17.2185   21.1234 H   0  0  0  0  0  0
  -29.2288  -18.6036   21.3111 H   0  0  0  0  0  0
  -29.0077  -15.8104   24.6006 H   0  0  0  0  0  0
  -28.0458  -15.4649   23.1857 H   0  0  0  0  0  0
  -25.9638  -25.5921   22.1335 H   0  0  0  0  0  0
  -25.6841  -24.0549   21.1706 H   0  0  0  0  0  0
  -31.2386  -17.1553   21.4286 H   0  0  0  0  0  0
  -30.3239  -16.8489   19.9710 H   0  0  0  0  0  0
  -30.1532  -14.1334   23.2021 H   0  0  0  0  0  0
  -31.1114  -15.5804   23.3102 H   0  0  0  0  0  0
  -27.7184  -24.4967   23.5117 H   0  0  0  0  0  0
  -29.8776  -17.8709   23.5688 H   0  0  0  0  0  0
  -28.0304  -24.0122   20.4418 H   0  0  0  0  0  0
  -30.8582  -22.1047   23.6698 H   0  0  0  0  0  0
  -29.8425  -23.3866   24.3266 H   0  0  0  0  0  0
  -30.2211  -23.3474   22.5998 H   0  0  0  0  0  0
  -23.7295  -19.1161   21.1879 H   0  0  0  0  0  0
  -24.9036  -20.2895   20.6004 H   0  0  0  0  0  0
  -23.7356  -20.7462   21.8533 H   0  0  0  0  0  0
  -29.6696  -25.7174   21.3169 H   0  0  0  0  0  0
  -28.3851  -26.5583   22.1537 H   0  0  0  0  0  0
  -26.8613  -17.6785   23.3159 H   0  0  0  0  0  0
  -25.3607  -18.4912   22.6406 H   0  0  0  0  0  0
  -28.4501  -18.5441   25.5994 H   0  0  0  0  0  0
  -27.5968  -17.1574   25.4614 H   0  0  0  0  0  0
  -26.8276  -18.5898   25.4805 H   0  0  0  0  0  0
  1 25  1  0  0  0
  1 30  2  0  0  0
  1 89  1  0  0  0
  2  3  1  0  0  0
  2 25  1  0  0  0
  2 92  1  0  0  0
  2 93  1  0  0  0
  3  4  1  0  0  0
  3 94  1  0  0  0
  3 95  1  0  0  0
  4  5  1  0  0  0
  4 96  1  0  0  0
  4 97  1  0  0  0
  5  6  1  0  0  0
  5 26  1  0  0  0
  5 98  1  0  0  0
  6 25  1  0  0  0
  6 99  1  0  0  0
  6100  1  0  0  0
  7  8  2  0  0  0
  7 26  1  0  0  0
  7 29  1  0  0  0
  8  9  1  0  0  0
  8 22  1  0  0  0
  9 10  1  0  0  0
  9 27  2  0  0  0
 10 11  2  0  0  0
 10 15  1  0  0  0
 11 12  1  0  0  0
 11101  1  0  0  0
 12 13  2  0  0  0
 12102  1  0  0  0
 13 14  1  0  0  0
 13 31  1  0  0  0
 14 15  2  0  0  0
 14103  1  0  0  0
 15104  1  0  0  0
 16 17  2  0  0  0
 16 21  1  0  0  0
 16 31  1  0  0  0
 17 18  1  0  0  0
 17105  1  0  0  0
 18 19  2  0  0  0
 18106  1  0  0  0
 19 20  1  0  0  0
 19 24  1  0  0  0
 20 21  2  0  0  0
 20107  1  0  0  0
 21 23  1  0  0  0
 22 28  1  0  0  0
 22 32  2  0  0  0
 26 27  1  0  0  0
 28108  1  0  0  0
 28109  1  0  0  0
 29110  1  0  0  0
 29111  1  0  0  0
 33 34  1  0  0  0
 33 66  1  0  0  0
 33 70  2  0  0  0
 34 36  1  0  0  0
 34 59  1  0  0  0
 34112  1  0  0  0
 35 44  2  0  0  0
 35 45  1  0  0  0
 35 68  1  0  0  0
 36 56  1  0  0  0
 36113  1  0  0  0
 37 39  1  0  0  0
 37 47  1  0  0  0
 37 66  1  0  0  0
 37114  1  0  0  0
 38 43  2  0  0  0
 38 46  1  0  0  0
 38 47  1  0  0  0
 39 64  1  0  0  0
 39 67  2  0  0  0
 40 52  1  0  0  0
 40 53  2  0  0  0
 40 58  1  0  0  0
 41115  1  0  0  0
 41116  1  0  0  0
 41117  1  0  0  0
 41 48  1  0  0  0
 42 43  1  0  0  0
 42 66  1  0  0  0
 42118  1  0  0  0
 42119  1  0  0  0
 43 44  1  0  0  0
 44120  1  0  0  0
 45 46  2  0  0  0
 45121  1  0  0  0
 46122  1  0  0  0
 47123  1  0  0  0
 47124  1  0  0  0
 48 56  1  0  0  0
 48 65  1  0  0  0
 48125  1  0  0  0
 49 50  1  0  0  0
 49 53  1  0  0  0
 49 64  1  0  0  0
 49126  1  0  0  0
 50 51  1  0  0  0
 50127  1  0  0  0
 50128  1  0  0  0
 51 52  1  0  0  0
 51129  1  0  0  0
 51130  1  0  0  0
 52131  1  0  0  0
 52132  1  0  0  0
 53 54  1  0  0  0
 54 55  2  0  0  0
 54133  1  0  0  0
 55 57  1  0  0  0
 55134  1  0  0  0
 56 69  2  0  0  0
 57 58  2  0  0  0
 57135  1  0  0  0
 58136  1  0  0  0
 59 60  1  0  0  0
 59 61  1  0  0  0
 59 62  1  0  0  0
 60137  1  0  0  0
 60138  1  0  0  0
 60139  1  0  0  0
 61140  1  0  0  0
 61141  1  0  0  0
 61142  1  0  0  0
 62143  1  0  0  0
 62144  1  0  0  0
 62145  1  0  0  0
 63 65  1  0  0  0
 63146  1  0  0  0
 63147  1  0  0  0
 63148  1  0  0  0
 64149  1  0  0  0
 65150  1  0  0  0
 68 87  1  0  0  0
 71 73  2  0  0  0
 71 76  1  0  0  0
 71151  1  0  0  0
 72 74  2  0  0  0
 72 75  1  0  0  0
 72152  1  0  0  0
 73 74  1  0  0  0
 73 82  1  0  0  0
 74 85  1  0  0  0
 75 76  2  0  0  0
 75 88  1  0  0  0
 76 90  1  0  0  0
 77 80  1  0  0  0
 77153  1  0  0  0
 77154  1  0  0  0
 77 83  1  0  0  0
 78 81  1  0  0  0
 78 83  1  0  0  0
 78155  1  0  0  0
 78156  1  0  0  0
 79 82  1  0  0  0
 79 84  1  0  0  0
 79157  1  0  0  0
 79158  1  0  0  0
 80 89  1  0  0  0
 80159  1  0  0  0
 80160  1  0  0  0
 81 89  1  0  0  0
 81161  1  0  0  0
 81162  1  0  0  0
 82 84  1  0  0  0
 82163  1  0  0  0
 83 88  1  0  0  0
 83164  1  0  0  0
 84 87  1  0  0  0
 84165  1  0  0  0
 85166  1  0  0  0
 85167  1  0  0  0
 85168  1  0  0  0
 86 90  1  0  0  0
 86169  1  0  0  0
 86170  1  0  0  0
 86171  1  0  0  0
 87172  1  0  0  0
 87173  1  0  0  0
 88 91  1  0  0  0
 88174  1  0  0  0
 90175  1  0  0  0
 91176  1  0  0  0
 91177  1  0  0  0
 91178  1  0  0  0
M  CHG  1  91   1
M  ISO  4   1 100  68 101  87 101  89 100
M  END
> <chiral flag>
0

> <version>
0

> <s_m_source_file>
/data/baiqing/PycharmProjects/Reinvent-master-3.2/result/LINK_invent/BTK/process_docking_weight1_custom_sum_contain_oxygen_bond_distance_aromatic_linkinvent_7_9_3/rearranged_h_0172.sdf

> <i_m_source_file_index>
4

> <r_mmod_Potential_Energy-OPLS-2005>
-72.1750335693359

> <r_mmod_Stretch_Energy-OPLS-2005>
39.4198684692383

> <r_mmod_Bend_Energy-OPLS-2005>
102.50235748291

> <r_mmod_Torsional_Energy-OPLS-2005>
359.80615234375

> <r_mmod_Improper_Torsional_Energy-OPLS-2005>
9.51456356048584

> <r_mmod_Van_der_Waal_Energy-OPLS-2005>
155.108459472656

> <r_mmod_Electrostatic_Energy-OPLS-2005>
-260.635009765625

> <r_mmod_Solvation_Energy-OPLS-2005>
-484.907012939453

> <b_mmod_Minimization_Converged-OPLS-2005>
0

> <r_mmod_RMS_Derivative-OPLS-2005>
0.823609232902527

$$$$
4
                    3D
 Structure written by MMmdl.
156165  0  0  1  0            999 V2000
  -30.5745  -14.9040   20.4030 C   0  0  0  0  0  0
  -30.4391  -12.5579   19.4777 C   0  0  0  0  0  0
  -29.5158  -12.5150   18.2404 C   0  0  0  0  0  0
  -28.0481  -12.3053   18.6635 C   0  0  0  0  0  0
  -27.6271  -13.2251   19.8404 C   0  0  2  0  0  0
  -28.6809  -13.2661   20.9664 C   0  0  0  0  0  0
  -25.2502  -13.8147   20.5739 C   0  0  0  0  0  0
  -24.1784  -13.0405   20.9223 C   0  0  0  0  0  0
  -24.6375  -11.6882   20.8771 C   0  0  0  0  0  0
  -23.9056  -10.4269   21.0412 C   0  0  0  0  0  0
  -24.3616   -9.4187   21.9179 C   0  0  0  0  0  0
  -23.6294   -8.2220   22.0749 C   0  0  0  0  0  0
  -22.4275   -8.0260   21.3534 C   0  0  0  0  0  0
  -21.9903   -9.0241   20.4643 C   0  0  0  0  0  0
  -22.7235  -10.2117   20.3052 C   0  0  0  0  0  0
  -21.6848   -6.0730   22.5280 C   0  0  0  0  0  0
  -21.4008   -6.5637   23.8216 C   0  0  0  0  0  0
  -21.3657   -5.6793   24.9176 C   0  0  0  0  0  0
  -21.6039   -4.3052   24.7226 C   0  0  0  0  0  0
  -21.8823   -3.8142   23.4351 C   0  0  0  0  0  0
  -21.9194   -4.6960   22.3403 C   0  0  0  0  0  0
  -22.7817  -13.5208   21.1870 C   0  0  0  0  0  0
  -22.1663   -4.2140   21.0982 F   0  0  0  0  0  0
  -21.5632   -3.4537   25.7741 F   0  0  0  0  0  0
  -29.9534  -13.6601   20.3482 N   0  0  0  0  0  0
  -26.2893  -12.9314   20.3307 N   0  0  0  0  0  0
  -25.9299  -11.6469   20.5773 N   0  0  0  0  0  0
  -22.0455  -12.8215   22.0429 N   0  0  0  0  0  0
  -25.4240  -15.1883   20.4212 N   0  0  0  0  0  0
  -31.8004  -14.9394   20.2539 O   0  0  0  0  0  0
  -21.6632   -6.8867   21.4238 O   0  0  0  0  0  0
  -22.3508  -14.5507   20.6703 O   0  0  0  0  0  0
  -24.6433  -31.8452   23.1912 C   0  0  0  0  0  0
  -25.9213  -32.4692   23.8294 C   0  0  1  0  0  0
  -27.2113  -27.1466   20.1609 C   0  0  0  0  0  0
  -25.5979  -33.8497   24.2217 N   0  0  0  0  0  0
  -23.4461  -30.4666   21.5354 C   0  0  2  0  0  0
  -24.8965  -28.8966   20.1125 C   0  0  0  0  0  0
  -22.7561  -29.4560   22.4864 C   0  0  0  0  0  0
  -18.0300  -28.1389   22.8480 C   0  0  0  0  0  0
  -24.1495  -36.7253   23.2639 C   0  0  0  0  0  0
  -26.0022  -30.7210   21.3920 C   0  0  0  0  0  0
  -26.0731  -29.3335   20.7355 C   0  0  0  0  0  0
  -27.2344  -28.4737   20.7458 C   0  0  0  0  0  0
  -26.0180  -26.8201   19.4785 C   0  0  0  0  0  0
  -24.8811  -27.6525   19.4675 C   0  0  0  0  0  0
  -23.6728  -29.7969   20.1546 C   0  0  0  0  0  0
  -25.4122  -36.3031   24.0323 C   0  0  1  0  0  0
  -20.5910  -28.3715   23.1226 C   0  0  2  0  0  0
  -20.6780  -26.9419   22.5395 C   0  0  0  0  0  0
  -19.5757  -26.6372   21.5203 C   0  0  0  0  0  0
  -18.1943  -26.7932   22.1619 C   0  0  0  0  0  0
  -19.1557  -28.8870   23.2849 C   0  0  0  0  0  0
  -18.9474  -30.1469   23.8870 C   0  0  0  0  0  0
  -17.6472  -30.6587   24.0549 C   0  0  0  0  0  0
  -25.9075  -34.9402   23.5072 C   0  0  0  0  0  0
  -16.5364  -29.9074   23.6334 C   0  0  0  0  0  0
  -16.7285  -28.6490   23.0363 C   0  0  0  0  0  0
  -26.4535  -31.6557   25.0730 C   0  0  0  0  0  0
  -25.3735  -31.3769   26.1447 C   0  0  0  0  0  0
  -27.0378  -30.2941   24.6326 C   0  0  0  0  0  0
  -27.6097  -32.4305   25.7488 C   0  0  0  0  0  0
  -27.5579  -37.1779   24.8462 C   0  0  0  0  0  0
  -21.4253  -29.3051   22.3604 N   0  0  0  0  0  0
  -26.4286  -37.3743   23.9415 N   0  0  0  0  0  0
  -24.7164  -31.0321   22.0941 N   0  0  0  0  0  0
  -23.4209  -28.8104   23.3005 O   0  0  0  0  0  0
  -28.2419  -26.1421   20.2143 O   0  0  0  0  0  0
  -26.5641  -34.8893   22.4638 O   0  0  0  0  0  0
  -23.5555  -32.1328   23.7138 O   0  0  0  0  0  0
  -29.0169  -21.1734   19.0781 C   0  0  0  0  0  0
  -29.3076  -20.3274   20.2023 C   0  0  0  0  0  0
  -28.6599  -22.5718   19.1610 C   0  0  0  0  0  0
  -29.2377  -21.0982   21.4117 C   0  0  0  0  0  0
  -28.5962  -23.2558   20.4109 C   0  0  0  0  0  0
  -28.7726  -17.9691   19.0404 C   0  0  0  0  0  0
  -29.3014  -16.5073   19.0043 C   0  0  0  0  0  0
  -30.0067  -17.5031   20.9841 C   0  0  0  0  0  0
  -29.7127  -18.7419   19.9585 C   0  0  2  0  0  0
  -29.5292  -20.4274   22.7388 C   0  0  0  0  0  0
  -27.8410  -24.7045   20.6403 C   0  0  0  0  0  0
  -28.8972  -22.4522   21.5002 N   0  0  0  0  0  0
  -29.8115  -16.1053   20.3326 N   0  0  0  0  0  0
  -28.3189  -23.2296   18.0269 F   0  0  0  0  0  0
  -31.4728  -12.7097   19.1642 H   0  0  0  0  0  0
  -30.4225  -11.6060   20.0105 H   0  0  0  0  0  0
  -29.8285  -11.7210   17.5607 H   0  0  0  0  0  0
  -29.6067  -13.4486   17.6827 H   0  0  0  0  0  0
  -27.9401  -11.2617   18.9597 H   0  0  0  0  0  0
  -27.3830  -12.4502   17.8108 H   0  0  0  0  0  0
  -27.5665  -14.2192   19.4193 H   0  0  0  0  0  0
  -28.7662  -12.2989   21.4635 H   0  0  0  0  0  0
  -28.3917  -13.9888   21.7318 H   0  0  0  0  0  0
  -25.2751   -9.5669   22.4765 H   0  0  0  0  0  0
  -24.0005   -7.4606   22.7461 H   0  0  0  0  0  0
  -21.0831   -8.8765   19.8951 H   0  0  0  0  0  0
  -22.3688  -10.9666   19.6175 H   0  0  0  0  0  0
  -21.1993   -7.6145   23.9718 H   0  0  0  0  0  0
  -21.1477   -6.0517   25.9083 H   0  0  0  0  0  0
  -22.0605   -2.7603   23.2850 H   0  0  0  0  0  0
  -22.4062  -11.9894   22.4851 H   0  0  0  0  0  0
  -21.1063  -13.1243   22.2590 H   0  0  0  0  0  0
  -24.6659  -15.8497   20.5488 H   0  0  0  0  0  0
  -26.2943  -15.6288   20.1517 H   0  0  0  0  0  0
  -26.7284  -32.5301   23.1028 H   0  0  0  0  0  0
  -25.0131  -33.9609   25.0370 H   0  0  0  0  0  0
  -22.7493  -31.2930   21.3810 H   0  0  0  0  0  0
  -23.3761  -35.9581   23.3273 H   0  0  0  0  0  0
  -24.3593  -36.8905   22.2061 H   0  0  0  0  0  0
  -23.7239  -37.6440   23.6681 H   0  0  0  0  0  0
  -26.1585  -31.4736   20.6183 H   0  0  0  0  0  0
  -26.8730  -30.7697   22.0343 H   0  0  0  0  0  0
  -28.1285  -28.7994   21.2591 H   0  0  0  0  0  0
  -25.9358  -25.8799   18.9531 H   0  0  0  0  0  0
  -23.9878  -27.3158   18.9596 H   0  0  0  0  0  0
  -23.8106  -30.5708   19.3990 H   0  0  0  0  0  0
  -22.7881  -29.2392   19.8423 H   0  0  0  0  0  0
  -25.1305  -36.1858   25.0815 H   0  0  0  0  0  0
  -21.0010  -28.3296   24.1344 H   0  0  0  0  0  0
  -20.5652  -26.2333   23.3612 H   0  0  0  0  0  0
  -21.6645  -26.7408   22.1198 H   0  0  0  0  0  0
  -19.6909  -25.6275   21.1255 H   0  0  0  0  0  0
  -19.6693  -27.3159   20.6718 H   0  0  0  0  0  0
  -17.4205  -26.6668   21.4031 H   0  0  0  0  0  0
  -18.0353  -26.0078   22.9017 H   0  0  0  0  0  0
  -19.7951  -30.7291   24.2227 H   0  0  0  0  0  0
  -17.5023  -31.6267   24.5149 H   0  0  0  0  0  0
  -15.5362  -30.2963   23.7681 H   0  0  0  0  0  0
  -15.8687  -28.0793   22.7108 H   0  0  0  0  0  0
  -24.5856  -30.7191   25.7761 H   0  0  0  0  0  0
  -24.9001  -32.2967   26.4894 H   0  0  0  0  0  0
  -25.8016  -30.8888   27.0214 H   0  0  0  0  0  0
  -26.2988  -29.6669   24.1329 H   0  0  0  0  0  0
  -27.3958  -29.7247   25.4914 H   0  0  0  0  0  0
  -27.8922  -30.4144   23.9665 H   0  0  0  0  0  0
  -27.2728  -33.3629   26.2026 H   0  0  0  0  0  0
  -28.3920  -32.6822   25.0313 H   0  0  0  0  0  0
  -28.0755  -31.8448   26.5424 H   0  0  0  0  0  0
  -28.2580  -38.0089   24.7515 H   0  0  0  0  0  0
  -28.1090  -36.2620   24.6273 H   0  0  0  0  0  0
  -27.2300  -37.1404   25.8863 H   0  0  0  0  0  0
  -20.9468  -29.8773   21.6789 H   0  0  0  0  0  0
  -26.0151  -38.2810   24.1418 H   0  0  0  0  0  0
  -29.0423  -20.7319   18.0933 H   0  0  0  0  0  0
  -27.7629  -17.9860   19.4544 H   0  0  0  0  0  0
  -28.7190  -18.3932   18.0380 H   0  0  0  0  0  0
  -30.1268  -16.4513   18.2912 H   0  0  0  0  0  0
  -28.5326  -15.8452   18.6209 H   0  0  0  0  0  0
  -29.3045  -17.5500   21.8170 H   0  0  0  0  0  0
  -31.0045  -17.5838   21.4172 H   0  0  0  0  0  0
  -30.6472  -18.8380   19.4029 H   0  0  0  0  0  0
  -30.4794  -19.8951   22.6987 H   0  0  0  0  0  0
  -28.7466  -19.7074   22.9771 H   0  0  0  0  0  0
  -29.5836  -21.1491   23.5542 H   0  0  0  0  0  0
  -27.7068  -24.7821   21.7198 H   0  0  0  0  0  0
  -26.8366  -24.4983   20.2789 H   0  0  0  0  0  0
  1 25  1  0  0  0
  1 30  2  0  0  0
  1 83  1  0  0  0
  2  3  1  0  0  0
  2 25  1  0  0  0
  2 85  1  0  0  0
  2 86  1  0  0  0
  3  4  1  0  0  0
  3 87  1  0  0  0
  3 88  1  0  0  0
  4  5  1  0  0  0
  4 89  1  0  0  0
  4 90  1  0  0  0
  5  6  1  0  0  0
  5 26  1  0  0  0
  5 91  1  0  0  0
  6 25  1  0  0  0
  6 92  1  0  0  0
  6 93  1  0  0  0
  7  8  2  0  0  0
  7 26  1  0  0  0
  7 29  1  0  0  0
  8  9  1  0  0  0
  8 22  1  0  0  0
  9 10  1  0  0  0
  9 27  2  0  0  0
 10 11  2  0  0  0
 10 15  1  0  0  0
 11 12  1  0  0  0
 11 94  1  0  0  0
 12 13  2  0  0  0
 12 95  1  0  0  0
 13 14  1  0  0  0
 13 31  1  0  0  0
 14 15  2  0  0  0
 14 96  1  0  0  0
 15 97  1  0  0  0
 16 17  2  0  0  0
 16 21  1  0  0  0
 16 31  1  0  0  0
 17 18  1  0  0  0
 17 98  1  0  0  0
 18 19  2  0  0  0
 18 99  1  0  0  0
 19 20  1  0  0  0
 19 24  1  0  0  0
 20 21  2  0  0  0
 20100  1  0  0  0
 21 23  1  0  0  0
 22 28  1  0  0  0
 22 32  2  0  0  0
 26 27  1  0  0  0
 28101  1  0  0  0
 28102  1  0  0  0
 29103  1  0  0  0
 29104  1  0  0  0
 33 34  1  0  0  0
 33 66  1  0  0  0
 33 70  2  0  0  0
 34 36  1  0  0  0
 34 59  1  0  0  0
 34105  1  0  0  0
 35 44  2  0  0  0
 35 45  1  0  0  0
 35 68  1  0  0  0
 36 56  1  0  0  0
 36106  1  0  0  0
 37 39  1  0  0  0
 37 47  1  0  0  0
 37 66  1  0  0  0
 37107  1  0  0  0
 38 43  2  0  0  0
 38 46  1  0  0  0
 38 47  1  0  0  0
 39 64  1  0  0  0
 39 67  2  0  0  0
 40 52  1  0  0  0
 40 53  2  0  0  0
 40 58  1  0  0  0
 41108  1  0  0  0
 41109  1  0  0  0
 41110  1  0  0  0
 41 48  1  0  0  0
 42 43  1  0  0  0
 42 66  1  0  0  0
 42111  1  0  0  0
 42112  1  0  0  0
 43 44  1  0  0  0
 44113  1  0  0  0
 45 46  2  0  0  0
 45114  1  0  0  0
 46115  1  0  0  0
 47116  1  0  0  0
 47117  1  0  0  0
 48 56  1  0  0  0
 48 65  1  0  0  0
 48118  1  0  0  0
 49 50  1  0  0  0
 49 53  1  0  0  0
 49 64  1  0  0  0
 49119  1  0  0  0
 50 51  1  0  0  0
 50120  1  0  0  0
 50121  1  0  0  0
 51 52  1  0  0  0
 51122  1  0  0  0
 51123  1  0  0  0
 52124  1  0  0  0
 52125  1  0  0  0
 53 54  1  0  0  0
 54 55  2  0  0  0
 54126  1  0  0  0
 55 57  1  0  0  0
 55127  1  0  0  0
 56 69  2  0  0  0
 57 58  2  0  0  0
 57128  1  0  0  0
 58129  1  0  0  0
 59 60  1  0  0  0
 59 61  1  0  0  0
 59 62  1  0  0  0
 60130  1  0  0  0
 60131  1  0  0  0
 60132  1  0  0  0
 61133  1  0  0  0
 61134  1  0  0  0
 61135  1  0  0  0
 62136  1  0  0  0
 62137  1  0  0  0
 62138  1  0  0  0
 63 65  1  0  0  0
 63139  1  0  0  0
 63140  1  0  0  0
 63141  1  0  0  0
 64142  1  0  0  0
 65143  1  0  0  0
 68 81  1  0  0  0
 71 72  2  0  0  0
 71 73  1  0  0  0
 71144  1  0  0  0
 72 74  1  0  0  0
 72 79  1  0  0  0
 73 75  2  0  0  0
 73 84  1  0  0  0
 74 80  1  0  0  0
 74 82  2  0  0  0
 75 81  1  0  0  0
 75 82  1  0  0  0
 76 77  1  0  0  0
 76 79  1  0  0  0
 76145  1  0  0  0
 76146  1  0  0  0
 77 83  1  0  0  0
 77147  1  0  0  0
 77148  1  0  0  0
 78 79  1  0  0  0
 78 83  1  0  0  0
 78149  1  0  0  0
 78150  1  0  0  0
 79151  1  0  0  0
 80152  1  0  0  0
 80153  1  0  0  0
 80154  1  0  0  0
 81155  1  0  0  0
 81156  1  0  0  0
M  ISO  4   1 100  68 101  81 101  83 100
M  END
> <chiral flag>
0

> <version>
0

> <s_m_source_file>
/data/baiqing/PycharmProjects/Reinvent-master-3.2/result/LINK_invent/BTK/process_docking_weight1_custom_sum_contain_oxygen_bond_distance_aromatic_linkinvent_7_9_3/rearranged_h_0172.sdf

> <i_m_source_file_index>
5

> <r_mmod_Potential_Energy-OPLS-2005>
598.869506835938

> <r_mmod_Stretch_Energy-OPLS-2005>
208.016036987305

> <r_mmod_Bend_Energy-OPLS-2005>
294.522155761719

> <r_mmod_Torsional_Energy-OPLS-2005>
358.620147705078

> <r_mmod_Improper_Torsional_Energy-OPLS-2005>
13.0610809326172

> <r_mmod_Van_der_Waal_Energy-OPLS-2005>
128.178588867188

> <r_mmod_Electrostatic_Energy-OPLS-2005>
-376.589263916016

> <r_mmod_Solvation_Energy-OPLS-2005>
-206.496444702148

> <b_mmod_Minimization_Converged-OPLS-2005>
0

> <r_mmod_RMS_Derivative-OPLS-2005>
1.53297555446625

$$$$
5
                    3D
 Structure written by MMmdl.
182192  0  0  1  0            999 V2000
  -30.6374  -14.6884   20.4692 C   0  0  0  0  0  0
  -30.4238  -12.4197   19.4667 C   0  0  0  0  0  0
  -29.5083  -12.5212   18.2277 C   0  0  0  0  0  0
  -28.0328  -12.3522   18.6387 C   0  0  0  0  0  0
  -27.6437  -13.2350   19.8568 C   0  0  2  0  0  0
  -28.6888  -13.1471   20.9913 C   0  0  0  0  0  0
  -25.2518  -13.8206   20.5711 C   0  0  0  0  0  0
  -24.1791  -13.0457   20.9189 C   0  0  0  0  0  0
  -24.6387  -11.6933   20.8730 C   0  0  0  0  0  0
  -23.9065  -10.4305   21.0401 C   0  0  0  0  0  0
  -24.3609   -9.4232   21.9190 C   0  0  0  0  0  0
  -23.6281   -8.2268   22.0771 C   0  0  0  0  0  0
  -22.4265   -8.0292   21.3554 C   0  0  0  0  0  0
  -21.9899   -9.0272   20.4669 C   0  0  0  0  0  0
  -22.7226  -10.2151   20.3062 C   0  0  0  0  0  0
  -21.6857   -6.0731   22.5284 C   0  0  0  0  0  0
  -21.4030   -6.5635   23.8214 C   0  0  0  0  0  0
  -21.3660   -5.6786   24.9169 C   0  0  0  0  0  0
  -21.6031   -4.3042   24.7225 C   0  0  0  0  0  0
  -21.8818   -3.8148   23.4344 C   0  0  0  0  0  0
  -21.9198   -4.6964   22.3404 C   0  0  0  0  0  0
  -22.7813  -13.5254   21.1828 C   0  0  0  0  0  0
  -22.1657   -4.2148   21.0983 F   0  0  0  0  0  0
  -21.5622   -3.4534   25.7738 F   0  0  0  0  0  0
  -29.9943  -13.4770   20.4079 N   0  0  0  0  0  0
  -26.2949  -12.9422   20.3315 N   0  0  0  0  0  0
  -25.9322  -11.6556   20.5744 N   0  0  0  0  0  0
  -22.0432  -12.8277   22.0386 N   0  0  0  0  0  0
  -25.4245  -15.1929   20.4161 N   0  0  0  0  0  0
  -31.8207  -14.7803   20.1270 O   0  0  0  0  0  0
  -21.6634   -6.8888   21.4247 O   0  0  0  0  0  0
  -22.3514  -14.5568   20.6679 O   0  0  0  0  0  0
  -24.6303  -31.8573   23.1965 C   0  0  0  0  0  0
  -25.9145  -32.4756   23.8316 C   0  0  1  0  0  0
  -27.2304  -27.2831   20.1414 C   0  0  0  0  0  0
  -25.5970  -33.8561   24.2267 N   0  0  0  0  0  0
  -23.4251  -30.4754   21.5396 C   0  0  2  0  0  0
  -24.8713  -28.9080   20.1251 C   0  0  0  0  0  0
  -22.7490  -29.4624   22.4934 C   0  0  0  0  0  0
  -18.0299  -28.1380   22.8482 C   0  0  0  0  0  0
  -24.1495  -36.7278   23.2634 C   0  0  0  0  0  0
  -25.9655  -30.7754   21.3711 C   0  0  0  0  0  0
  -26.0375  -29.3927   20.7275 C   0  0  0  0  0  0
  -27.2198  -28.5939   20.7190 C   0  0  0  0  0  0
  -26.0418  -26.8446   19.5258 C   0  0  0  0  0  0
  -24.8749  -27.6390   19.5166 C   0  0  0  0  0  0
  -23.6434  -29.7967   20.1603 C   0  0  0  0  0  0
  -25.4118  -36.3067   24.0323 C   0  0  1  0  0  0
  -20.5900  -28.3697   23.1274 C   0  0  2  0  0  0
  -20.6798  -26.9418   22.5403 C   0  0  0  0  0  0
  -19.5771  -26.6380   21.5210 C   0  0  0  0  0  0
  -18.1943  -26.7925   22.1611 C   0  0  0  0  0  0
  -19.1546  -28.8848   23.2879 C   0  0  0  0  0  0
  -18.9471  -30.1452   23.8893 C   0  0  0  0  0  0
  -17.6468  -30.6583   24.0556 C   0  0  0  0  0  0
  -25.9054  -34.9441   23.5088 C   0  0  0  0  0  0
  -16.5363  -29.9079   23.6325 C   0  0  0  0  0  0
  -16.7284  -28.6497   23.0345 C   0  0  0  0  0  0
  -26.4516  -31.6563   25.0691 C   0  0  0  0  0  0
  -25.3742  -31.3709   26.1411 C   0  0  0  0  0  0
  -27.0366  -30.2990   24.6141 C   0  0  0  0  0  0
  -27.6071  -32.4292   25.7487 C   0  0  0  0  0  0
  -27.5580  -37.1800   24.8458 C   0  0  0  0  0  0
  -21.4203  -29.3051   22.3670 N   0  0  0  0  0  0
  -26.4289  -37.3767   23.9408 N   0  0  0  0  0  0
  -24.6925  -31.0560   22.0929 N   0  0  0  0  0  0
  -23.4194  -28.8173   23.3045 O   0  0  0  0  0  0
  -28.4013  -26.5162   20.0481 O   0  0  0  0  0  0
  -26.5595  -34.8917   22.4635 O   0  0  0  0  0  0
  -23.5462  -32.1393   23.7275 O   0  0  0  0  0  0
  -27.9946  -22.5057   20.8197 C   0  0  0  0  0  0
  -30.2180  -23.0635   19.9476 C   0  0  0  0  0  0
  -27.4889  -23.9583   20.3815 C   0  0  0  0  0  0
  -29.7134  -24.4910   19.5443 C   0  0  0  0  0  0
  -28.6958  -18.0386   19.8973 C   0  0  0  0  0  0
  -28.3246  -19.3641   22.0970 C   0  0  0  0  0  0
  -29.5580  -16.7540   19.5432 C   0  0  0  0  0  0
  -30.0749  -16.6404   21.9083 C   0  0  0  0  0  0
  -30.3596  -18.1997   21.7559 C   0  0  2  0  0  0
  -29.1736  -21.8840   19.9763 C   0  0  1  0  0  0
  -30.4145  -18.8096   23.1831 C   0  0  2  0  0  0
  -29.2192  -19.7750   23.2767 C   0  0  2  0  0  0
  -28.5819  -25.0790   20.4259 C   0  0  1  0  0  0
  -29.2997  -19.0554   20.9415 C   0  0  1  0  0  0
  -31.7649  -19.4660   23.5148 C   0  0  0  0  0  0
  -30.7899  -20.0633   19.1023 C   0  0  0  0  0  0
  -28.2696  -20.9906   25.2291 C   0  0  0  0  0  0
  -29.9223  -20.4519   20.3281 C   0  0  1  0  0  0
  -29.8860  -15.8400   20.6759 N   0  0  0  0  0  0
  -28.5298  -19.6899   24.5819 N   0  3  0  0  0  0
  -31.4713  -12.5165   19.1767 H   0  0  0  0  0  0
  -30.3367  -11.4371   19.9337 H   0  0  0  0  0  0
  -29.7822  -11.7703   17.4866 H   0  0  0  0  0  0
  -29.6450  -13.4928   17.7481 H   0  0  0  0  0  0
  -27.8768  -11.3003   18.8797 H   0  0  0  0  0  0
  -27.3799  -12.5727   17.7932 H   0  0  0  0  0  0
  -27.6443  -14.2619   19.4934 H   0  0  0  0  0  0
  -28.7072  -12.1511   21.4365 H   0  0  0  0  0  0
  -28.4384  -13.8378   21.7988 H   0  0  0  0  0  0
  -25.2754   -9.5701   22.4768 H   0  0  0  0  0  0
  -23.9989   -7.4659   22.7488 H   0  0  0  0  0  0
  -21.0830   -8.8796   19.8972 H   0  0  0  0  0  0
  -22.3693  -10.9689   19.6164 H   0  0  0  0  0  0
  -21.2037   -7.6143   23.9713 H   0  0  0  0  0  0
  -21.1473   -6.0514   25.9067 H   0  0  0  0  0  0
  -22.0597   -2.7611   23.2834 H   0  0  0  0  0  0
  -22.3998  -11.9947   22.4828 H   0  0  0  0  0  0
  -21.1066  -13.1363   22.2575 H   0  0  0  0  0  0
  -24.6608  -15.8516   20.5244 H   0  0  0  0  0  0
  -26.2906  -15.6329   20.1347 H   0  0  0  0  0  0
  -26.7212  -32.5415   23.1062 H   0  0  0  0  0  0
  -25.0201  -33.9697   25.0472 H   0  0  0  0  0  0
  -22.7207  -31.2954   21.3864 H   0  0  0  0  0  0
  -23.3763  -35.9605   23.3283 H   0  0  0  0  0  0
  -24.3599  -36.8909   22.2051 H   0  0  0  0  0  0
  -23.7238  -37.6473   23.6662 H   0  0  0  0  0  0
  -26.0951  -31.5284   20.5924 H   0  0  0  0  0  0
  -26.8478  -30.8336   21.9975 H   0  0  0  0  0  0
  -28.1254  -28.9740   21.1688 H   0  0  0  0  0  0
  -26.0183  -25.8881   19.0262 H   0  0  0  0  0  0
  -23.9827  -27.2640   19.0357 H   0  0  0  0  0  0
  -23.7728  -30.5648   19.3964 H   0  0  0  0  0  0
  -22.7631  -29.2268   19.8586 H   0  0  0  0  0  0
  -25.1297  -36.1909   25.0813 H   0  0  0  0  0  0
  -20.9989  -28.3275   24.1398 H   0  0  0  0  0  0
  -20.5723  -26.2302   23.3605 H   0  0  0  0  0  0
  -21.6667  -26.7464   22.1182 H   0  0  0  0  0  0
  -19.6939  -25.6285   21.1254 H   0  0  0  0  0  0
  -19.6710  -27.3181   20.6731 H   0  0  0  0  0  0
  -17.4227  -26.6689   21.3997 H   0  0  0  0  0  0
  -18.0324  -26.0062   22.8997 H   0  0  0  0  0  0
  -19.7944  -30.7270   24.2264 H   0  0  0  0  0  0
  -17.5022  -31.6260   24.5159 H   0  0  0  0  0  0
  -15.5362  -30.2974   23.7649 H   0  0  0  0  0  0
  -15.8691  -28.0814   22.7057 H   0  0  0  0  0  0
  -24.5915  -30.7060   25.7737 H   0  0  0  0  0  0
  -24.8932  -32.2877   26.4829 H   0  0  0  0  0  0
  -25.8058  -30.8888   27.0189 H   0  0  0  0  0  0
  -26.2932  -29.6724   24.1190 H   0  0  0  0  0  0
  -27.4110  -29.7257   25.4631 H   0  0  0  0  0  0
  -27.8783  -30.4289   23.9331 H   0  0  0  0  0  0
  -27.2683  -33.3601   26.2049 H   0  0  0  0  0  0
  -28.3909  -32.6827   25.0336 H   0  0  0  0  0  0
  -28.0703  -31.8411   26.5422 H   0  0  0  0  0  0
  -28.2574  -38.0120   24.7528 H   0  0  0  0  0  0
  -28.1100  -36.2649   24.6248 H   0  0  0  0  0  0
  -27.2304  -37.1408   25.8862 H   0  0  0  0  0  0
  -20.9389  -29.8755   21.6848 H   0  0  0  0  0  0
  -26.0163  -38.2840   24.1404 H   0  0  0  0  0  0
  -27.1315  -21.8461   20.7604 H   0  0  0  0  0  0
  -28.2892  -22.5438   21.8692 H   0  0  0  0  0  0
  -30.6784  -23.1399   20.9341 H   0  0  0  0  0  0
  -31.0362  -22.8355   19.2700 H   0  0  0  0  0  0
  -26.6586  -24.2522   21.0234 H   0  0  0  0  0  0
  -27.0811  -23.8886   19.3731 H   0  0  0  0  0  0
  -29.3810  -24.4700   18.5052 H   0  0  0  0  0  0
  -30.5628  -25.1751   19.5658 H   0  0  0  0  0  0
  -27.7355  -17.6772   20.2639 H   0  0  0  0  0  0
  -28.4344  -18.5662   18.9802 H   0  0  0  0  0  0
  -27.5726  -20.1068   21.8609 H   0  0  0  0  0  0
  -27.7718  -18.4624   22.3669 H   0  0  0  0  0  0
  -30.4859  -17.0599   19.0602 H   0  0  0  0  0  0
  -29.0186  -16.1742   18.7928 H   0  0  0  0  0  0
  -29.1776  -16.4848   22.5093 H   0  0  0  0  0  0
  -30.8896  -16.2040   22.4917 H   0  0  0  0  0  0
  -31.3375  -18.2848   21.2839 H   0  0  0  0  0  0
  -28.7719  -21.7736   18.9673 H   0  0  0  0  0  0
  -30.2773  -18.0116   23.9151 H   0  0  0  0  0  0
  -29.5732  -20.7950   23.1153 H   0  0  0  0  0  0
  -28.9455  -25.1143   21.4538 H   0  0  0  0  0  0
  -31.9921  -20.2992   22.8514 H   0  0  0  0  0  0
  -32.5772  -18.7445   23.4267 H   0  0  0  0  0  0
  -31.7806  -19.8441   24.5374 H   0  0  0  0  0  0
  -31.4607  -20.8529   18.7769 H   0  0  0  0  0  0
  -30.1753  -19.8039   18.2407 H   0  0  0  0  0  0
  -31.4332  -19.2094   19.3059 H   0  0  0  0  0  0
  -27.7901  -20.8394   26.1966 H   0  0  0  0  0  0
  -27.6131  -21.6107   24.6187 H   0  0  0  0  0  0
  -29.1978  -21.5369   25.4004 H   0  0  0  0  0  0
  -30.6481  -20.7540   21.0800 H   0  0  0  0  0  0
  -29.0987  -19.1465   25.2105 H   0  0  0  0  0  0
  -27.6565  -19.1998   24.4711 H   0  0  0  0  0  0
  1 25  1  0  0  0
  1 30  2  0  0  0
  1 89  1  0  0  0
  2  3  1  0  0  0
  2 25  1  0  0  0
  2 91  1  0  0  0
  2 92  1  0  0  0
  3  4  1  0  0  0
  3 93  1  0  0  0
  3 94  1  0  0  0
  4  5  1  0  0  0
  4 95  1  0  0  0
  4 96  1  0  0  0
  5  6  1  0  0  0
  5 26  1  0  0  0
  5 97  1  0  0  0
  6 25  1  0  0  0
  6 98  1  0  0  0
  6 99  1  0  0  0
  7  8  2  0  0  0
  7 26  1  0  0  0
  7 29  1  0  0  0
  8  9  1  0  0  0
  8 22  1  0  0  0
  9 10  1  0  0  0
  9 27  2  0  0  0
 10 11  2  0  0  0
 10 15  1  0  0  0
 11 12  1  0  0  0
 11100  1  0  0  0
 12 13  2  0  0  0
 12101  1  0  0  0
 13 14  1  0  0  0
 13 31  1  0  0  0
 14 15  2  0  0  0
 14102  1  0  0  0
 15103  1  0  0  0
 16 17  2  0  0  0
 16 21  1  0  0  0
 16 31  1  0  0  0
 17 18  1  0  0  0
 17104  1  0  0  0
 18 19  2  0  0  0
 18105  1  0  0  0
 19 20  1  0  0  0
 19 24  1  0  0  0
 20 21  2  0  0  0
 20106  1  0  0  0
 21 23  1  0  0  0
 22 28  1  0  0  0
 22 32  2  0  0  0
 26 27  1  0  0  0
 28107  1  0  0  0
 28108  1  0  0  0
 29109  1  0  0  0
 29110  1  0  0  0
 33 34  1  0  0  0
 33 66  1  0  0  0
 33 70  2  0  0  0
 34 36  1  0  0  0
 34 59  1  0  0  0
 34111  1  0  0  0
 35 44  2  0  0  0
 35 45  1  0  0  0
 35 68  1  0  0  0
 36 56  1  0  0  0
 36112  1  0  0  0
 37 39  1  0  0  0
 37 47  1  0  0  0
 37 66  1  0  0  0
 37113  1  0  0  0
 38 43  2  0  0  0
 38 46  1  0  0  0
 38 47  1  0  0  0
 39 64  1  0  0  0
 39 67  2  0  0  0
 40 52  1  0  0  0
 40 53  2  0  0  0
 40 58  1  0  0  0
 41114  1  0  0  0
 41115  1  0  0  0
 41116  1  0  0  0
 41 48  1  0  0  0
 42 43  1  0  0  0
 42 66  1  0  0  0
 42117  1  0  0  0
 42118  1  0  0  0
 43 44  1  0  0  0
 44119  1  0  0  0
 45 46  2  0  0  0
 45120  1  0  0  0
 46121  1  0  0  0
 47122  1  0  0  0
 47123  1  0  0  0
 48 56  1  0  0  0
 48 65  1  0  0  0
 48124  1  0  0  0
 49 50  1  0  0  0
 49 53  1  0  0  0
 49 64  1  0  0  0
 49125  1  0  0  0
 50 51  1  0  0  0
 50126  1  0  0  0
 50127  1  0  0  0
 51 52  1  0  0  0
 51128  1  0  0  0
 51129  1  0  0  0
 52130  1  0  0  0
 52131  1  0  0  0
 53 54  1  0  0  0
 54 55  2  0  0  0
 54132  1  0  0  0
 55 57  1  0  0  0
 55133  1  0  0  0
 56 69  2  0  0  0
 57 58  2  0  0  0
 57134  1  0  0  0
 58135  1  0  0  0
 59 60  1  0  0  0
 59 61  1  0  0  0
 59 62  1  0  0  0
 60136  1  0  0  0
 60137  1  0  0  0
 60138  1  0  0  0
 61139  1  0  0  0
 61140  1  0  0  0
 61141  1  0  0  0
 62142  1  0  0  0
 62143  1  0  0  0
 62144  1  0  0  0
 63 65  1  0  0  0
 63145  1  0  0  0
 63146  1  0  0  0
 63147  1  0  0  0
 64148  1  0  0  0
 65149  1  0  0  0
 68 83  1  0  0  0
 71 73  1  0  0  0
 71150  1  0  0  0
 71151  1  0  0  0
 71 80  1  0  0  0
 72 74  1  0  0  0
 72 80  1  0  0  0
 72152  1  0  0  0
 72153  1  0  0  0
 73 83  1  0  0  0
 73154  1  0  0  0
 73155  1  0  0  0
 74 83  1  0  0  0
 74156  1  0  0  0
 74157  1  0  0  0
 75 77  1  0  0  0
 75158  1  0  0  0
 75159  1  0  0  0
 75 84  1  0  0  0
 76 82  1  0  0  0
 76 84  1  0  0  0
 76160  1  0  0  0
 76161  1  0  0  0
 77 89  1  0  0  0
 77162  1  0  0  0
 77163  1  0  0  0
 78 89  1  0  0  0
 78164  1  0  0  0
 78165  1  0  0  0
 78 79  1  0  0  0
 79 81  1  0  0  0
 79 84  1  0  0  0
 79166  1  0  0  0
 80 88  1  0  0  0
 80167  1  0  0  0
 81 82  1  0  0  0
 81 85  1  0  0  0
 81168  1  0  0  0
 82 90  1  0  0  0
 82169  1  0  0  0
 83170  1  0  0  0
 84 88  1  0  0  0
 85171  1  0  0  0
 85172  1  0  0  0
 85173  1  0  0  0
 86174  1  0  0  0
 86175  1  0  0  0
 86176  1  0  0  0
 86 88  1  0  0  0
 87 90  1  0  0  0
 87177  1  0  0  0
 87178  1  0  0  0
 87179  1  0  0  0
 88180  1  0  0  0
 90181  1  0  0  0
 90182  1  0  0  0
M  CHG  1  90   1
M  ISO  4   1 100  68 101  83 101  89 100
M  END
> <chiral flag>
0

> <version>
0

> <s_m_source_file>
/data/baiqing/PycharmProjects/Reinvent-master-3.2/result/LINK_invent/BTK/process_docking_weight1_custom_sum_contain_oxygen_bond_distance_aromatic_linkinvent_7_9_3/rearranged_h_0172.sdf

> <i_m_source_file_index>
6

> <r_mmod_Potential_Energy-OPLS-2005>
418.117218017578

> <r_mmod_Stretch_Energy-OPLS-2005>
123.25171661377

> <r_mmod_Bend_Energy-OPLS-2005>
273.73779296875

> <r_mmod_Torsional_Energy-OPLS-2005>
478.897064208984

> <r_mmod_Improper_Torsional_Energy-OPLS-2005>
9.03136444091797

> <r_mmod_Van_der_Waal_Energy-OPLS-2005>
126.263137817383

> <r_mmod_Electrostatic_Energy-OPLS-2005>
-211.408126831055

> <r_mmod_Solvation_Energy-OPLS-2005>
-440.430297851562

> <b_mmod_Minimization_Converged-OPLS-2005>
0

> <r_mmod_RMS_Derivative-OPLS-2005>
2.40925025939941

$$$$
6
                    3D
 Structure written by MMmdl.
162171  0  0  1  0            999 V2000
  -30.5337  -14.9959   20.4057 C   0  0  0  0  0  0
  -30.4377  -12.6169   19.5032 C   0  0  0  0  0  0
  -29.5218  -12.5334   18.2599 C   0  0  0  0  0  0
  -28.0567  -12.3125   18.6792 C   0  0  0  0  0  0
  -27.6259  -13.2529   19.8347 C   0  0  2  0  0  0
  -28.6682  -13.3067   20.9720 C   0  0  0  0  0  0
  -25.2444  -13.8223   20.5715 C   0  0  0  0  0  0
  -24.1771  -13.0439   20.9240 C   0  0  0  0  0  0
  -24.6396  -11.6927   20.8761 C   0  0  0  0  0  0
  -23.9083  -10.4293   21.0410 C   0  0  0  0  0  0
  -24.3630   -9.4206   21.9187 C   0  0  0  0  0  0
  -23.6299   -8.2243   22.0754 C   0  0  0  0  0  0
  -22.4282   -8.0283   21.3544 C   0  0  0  0  0  0
  -21.9922   -9.0258   20.4647 C   0  0  0  0  0  0
  -22.7256  -10.2135   20.3058 C   0  0  0  0  0  0
  -21.6855   -6.0737   22.5279 C   0  0  0  0  0  0
  -21.4015   -6.5640   23.8212 C   0  0  0  0  0  0
  -21.3660   -5.6792   24.9173 C   0  0  0  0  0  0
  -21.6044   -4.3056   24.7224 C   0  0  0  0  0  0
  -21.8819   -3.8148   23.4345 C   0  0  0  0  0  0
  -21.9192   -4.6964   22.3402 C   0  0  0  0  0  0
  -22.7790  -13.5204   21.1889 C   0  0  0  0  0  0
  -22.1661   -4.2149   21.0980 F   0  0  0  0  0  0
  -21.5628   -3.4539   25.7737 F   0  0  0  0  0  0
  -29.9381  -13.7293   20.3671 N   0  0  0  0  0  0
  -26.2870  -12.9463   20.3237 N   0  0  0  0  0  0
  -25.9329  -11.6588   20.5741 N   0  0  0  0  0  0
  -22.0443  -12.8189   22.0444 N   0  0  0  0  0  0
  -25.4087  -15.1954   20.4123 N   0  0  0  0  0  0
  -31.7461  -15.0188   20.1557 O   0  0  0  0  0  0
  -21.6643   -6.8881   21.4241 O   0  0  0  0  0  0
  -22.3473  -14.5507   20.6731 O   0  0  0  0  0  0
  -24.6469  -31.8404   23.1850 C   0  0  0  0  0  0
  -25.9225  -32.4676   23.8254 C   0  0  1  0  0  0
  -27.2160  -27.0996   20.1573 C   0  0  0  0  0  0
  -25.5958  -33.8483   24.2167 N   0  0  0  0  0  0
  -23.4524  -30.4588   21.5312 C   0  0  2  0  0  0
  -24.9027  -28.8796   20.1093 C   0  0  0  0  0  0
  -22.7589  -29.4524   22.4842 C   0  0  0  0  0  0
  -18.0309  -28.1397   22.8475 C   0  0  0  0  0  0
  -24.1491  -36.7246   23.2644 C   0  0  0  0  0  0
  -26.0111  -30.7026   21.3894 C   0  0  0  0  0  0
  -26.0815  -29.3105   20.7308 C   0  0  0  0  0  0
  -27.2383  -28.4375   20.7361 C   0  0  0  0  0  0
  -26.0110  -26.7805   19.4926 C   0  0  0  0  0  0
  -24.8826  -27.6296   19.4736 C   0  0  0  0  0  0
  -23.6812  -29.7865   20.1513 C   0  0  0  0  0  0
  -25.4124  -36.3019   24.0314 C   0  0  1  0  0  0
  -20.5925  -28.3724   23.1227 C   0  0  2  0  0  0
  -20.6790  -26.9422   22.5405 C   0  0  0  0  0  0
  -19.5762  -26.6378   21.5215 C   0  0  0  0  0  0
  -18.1944  -26.7934   22.1625 C   0  0  0  0  0  0
  -19.1568  -28.8879   23.2842 C   0  0  0  0  0  0
  -18.9484  -30.1474   23.8868 C   0  0  0  0  0  0
  -17.6481  -30.6591   24.0557 C   0  0  0  0  0  0
  -25.9078  -34.9397   23.5050 C   0  0  0  0  0  0
  -16.5370  -29.9082   23.6339 C   0  0  0  0  0  0
  -16.7294  -28.6503   23.0357 C   0  0  0  0  0  0
  -26.4533  -31.6559   25.0713 C   0  0  0  0  0  0
  -25.3705  -31.3763   26.1401 C   0  0  0  0  0  0
  -27.0409  -30.2952   24.6321 C   0  0  0  0  0  0
  -27.6050  -32.4339   25.7505 C   0  0  0  0  0  0
  -27.5573  -37.1779   24.8466 C   0  0  0  0  0  0
  -21.4276  -29.3045   22.3597 N   0  0  0  0  0  0
  -26.4282  -37.3738   23.9411 N   0  0  0  0  0  0
  -24.7236  -31.0227   22.0901 N   0  0  0  0  0  0
  -23.4215  -28.8075   23.3008 O   0  0  0  0  0  0
  -28.2539  -26.0876   20.2385 O   0  0  0  0  0  0
  -26.5667  -34.8902   22.4631 O   0  0  0  0  0  0
  -23.5579  -32.1298   23.7046 O   0  0  0  0  0  0
  -29.0387  -18.8204   20.4614 C   0  0  0  0  0  0
  -29.3470  -20.2783   20.3645 C   0  0  0  0  0  0
  -30.7200  -20.5554   20.2174 C   0  0  0  0  0  0
  -31.6399  -19.4665   20.1996 C   0  0  0  0  0  0
  -30.0321  -17.7132   20.4205 C   0  0  0  0  0  0
  -31.2125  -22.0167   20.1276 C   0  0  0  0  0  0
  -30.2060  -23.0906   19.6167 C   0  0  0  0  0  0
  -28.8915  -23.1570   20.4146 C   0  0  2  0  0  0
  -28.3162  -21.5652   20.3889 C   0  0  0  0  0  0
  -33.1343  -19.7118   20.0853 C   0  0  0  0  0  0
  -27.4192  -21.4011   21.6273 C   0  0  0  0  0  0
  -27.4350  -21.4241   19.1352 C   0  0  0  0  0  0
  -27.9608  -24.5516   20.0529 C   0  0  0  0  0  0
  -31.3080  -18.1477   20.2891 N   0  0  0  0  0  0
  -29.7492  -16.1954   20.5175 N   0  0  0  0  0  0
  -31.4705  -12.7737   19.1885 H   0  0  0  0  0  0
  -30.4361  -11.6731   20.0507 H   0  0  0  0  0  0
  -29.8487  -11.7283   17.6004 H   0  0  0  0  0  0
  -29.6031  -13.4557   17.6824 H   0  0  0  0  0  0
  -27.9606  -11.2735   18.9965 H   0  0  0  0  0  0
  -27.3928  -12.4315   17.8222 H   0  0  0  0  0  0
  -27.5802  -14.2491   19.3938 H   0  0  0  0  0  0
  -28.7667  -12.3384   21.4649 H   0  0  0  0  0  0
  -28.3602  -14.0158   21.7420 H   0  0  0  0  0  0
  -25.2772   -9.5680   22.4766 H   0  0  0  0  0  0
  -24.0005   -7.4635   22.7476 H   0  0  0  0  0  0
  -21.0853   -8.8783   19.8952 H   0  0  0  0  0  0
  -22.3716  -10.9676   19.6169 H   0  0  0  0  0  0
  -21.2008   -7.6148   23.9715 H   0  0  0  0  0  0
  -21.1482   -6.0523   25.9076 H   0  0  0  0  0  0
  -22.0597   -2.7609   23.2846 H   0  0  0  0  0  0
  -22.4070  -11.9856   22.4833 H   0  0  0  0  0  0
  -21.1057  -13.1203   22.2648 H   0  0  0  0  0  0
  -24.6322  -15.8398   20.5161 H   0  0  0  0  0  0
  -26.2369  -15.6360   20.0350 H   0  0  0  0  0  0
  -26.7289  -32.5269   23.0978 H   0  0  0  0  0  0
  -25.0084  -33.9592   25.0301 H   0  0  0  0  0  0
  -22.7566  -31.2857   21.3739 H   0  0  0  0  0  0
  -23.3759  -35.9570   23.3290 H   0  0  0  0  0  0
  -24.3573  -36.8898   22.2061 H   0  0  0  0  0  0
  -23.7242  -37.6434   23.6695 H   0  0  0  0  0  0
  -26.1714  -31.4550   20.6158 H   0  0  0  0  0  0
  -26.8795  -30.7532   22.0345 H   0  0  0  0  0  0
  -28.1337  -28.7611   21.2477 H   0  0  0  0  0  0
  -25.9041  -25.8250   19.0014 H   0  0  0  0  0  0
  -23.9836  -27.2947   18.9743 H   0  0  0  0  0  0
  -23.8213  -30.5603   19.3958 H   0  0  0  0  0  0
  -22.7952  -29.2313   19.8387 H   0  0  0  0  0  0
  -25.1313  -36.1838   25.0806 H   0  0  0  0  0  0
  -21.0016  -28.3314   24.1349 H   0  0  0  0  0  0
  -20.5681  -26.2337   23.3627 H   0  0  0  0  0  0
  -21.6654  -26.7419   22.1204 H   0  0  0  0  0  0
  -19.6922  -25.6281   21.1261 H   0  0  0  0  0  0
  -19.6701  -27.3173   20.6732 H   0  0  0  0  0  0
  -17.4214  -26.6682   21.4028 H   0  0  0  0  0  0
  -18.0337  -26.0082   22.9027 H   0  0  0  0  0  0
  -19.7961  -30.7297   24.2223 H   0  0  0  0  0  0
  -17.5034  -31.6270   24.5162 H   0  0  0  0  0  0
  -15.5368  -30.2974   23.7679 H   0  0  0  0  0  0
  -15.8695  -28.0811   22.7087 H   0  0  0  0  0  0
  -24.5896  -30.7098   25.7723 H   0  0  0  0  0  0
  -24.8884  -32.2950   26.4750 H   0  0  0  0  0  0
  -25.7979  -30.8991   27.0228 H   0  0  0  0  0  0
  -26.3040  -29.6664   24.1311 H   0  0  0  0  0  0
  -27.3995  -29.7263   25.4908 H   0  0  0  0  0  0
  -27.8954  -30.4184   23.9665 H   0  0  0  0  0  0
  -27.2632  -33.3664   26.2007 H   0  0  0  0  0  0
  -28.3901  -32.6859   25.0365 H   0  0  0  0  0  0
  -28.0671  -31.8517   26.5488 H   0  0  0  0  0  0
  -28.2577  -38.0087   24.7510 H   0  0  0  0  0  0
  -28.1082  -36.2615   24.6294 H   0  0  0  0  0  0
  -27.2290  -37.1423   25.8869 H   0  0  0  0  0  0
  -20.9490  -29.8766   21.6778 H   0  0  0  0  0  0
  -26.0145  -38.2803   24.1418 H   0  0  0  0  0  0
  -27.9983  -18.5470   20.5671 H   0  0  0  0  0  0
  -32.0875  -22.0626   19.4790 H   0  0  0  0  0  0
  -31.5632  -22.3035   21.1199 H   0  0  0  0  0  0
  -29.9810  -22.9039   18.5663 H   0  0  0  0  0  0
  -30.6901  -24.0676   19.6464 H   0  0  0  0  0  0
  -29.2067  -23.3196   21.4460 H   0  0  0  0  0  0
  -33.4662  -20.4323   20.8332 H   0  0  0  0  0  0
  -33.3827  -20.0978   19.0968 H   0  0  0  0  0  0
  -33.7072  -18.7962   20.2367 H   0  0  0  0  0  0
  -28.0118  -21.4317   22.5419 H   0  0  0  0  0  0
  -26.8852  -20.4508   21.6176 H   0  0  0  0  0  0
  -26.6731  -22.1931   21.6907 H   0  0  0  0  0  0
  -28.0303  -21.5043   18.2257 H   0  0  0  0  0  0
  -26.6609  -22.1900   19.0941 H   0  0  0  0  0  0
  -26.9334  -20.4563   19.1076 H   0  0  0  0  0  0
  -27.0244  -24.3956   20.5891 H   0  0  0  0  0  0
  -27.6972  -24.4485   19.0003 H   0  0  0  0  0  0
  -28.7751  -15.9884   20.6652 H   0  0  0  0  0  0
  1 25  1  0  0  0
  1 30  2  0  0  0
  1 85  1  0  0  0
  2  3  1  0  0  0
  2 25  1  0  0  0
  2 86  1  0  0  0
  2 87  1  0  0  0
  3  4  1  0  0  0
  3 88  1  0  0  0
  3 89  1  0  0  0
  4  5  1  0  0  0
  4 90  1  0  0  0
  4 91  1  0  0  0
  5  6  1  0  0  0
  5 26  1  0  0  0
  5 92  1  0  0  0
  6 25  1  0  0  0
  6 93  1  0  0  0
  6 94  1  0  0  0
  7  8  2  0  0  0
  7 26  1  0  0  0
  7 29  1  0  0  0
  8  9  1  0  0  0
  8 22  1  0  0  0
  9 10  1  0  0  0
  9 27  2  0  0  0
 10 11  2  0  0  0
 10 15  1  0  0  0
 11 12  1  0  0  0
 11 95  1  0  0  0
 12 13  2  0  0  0
 12 96  1  0  0  0
 13 14  1  0  0  0
 13 31  1  0  0  0
 14 15  2  0  0  0
 14 97  1  0  0  0
 15 98  1  0  0  0
 16 17  2  0  0  0
 16 21  1  0  0  0
 16 31  1  0  0  0
 17 18  1  0  0  0
 17 99  1  0  0  0
 18 19  2  0  0  0
 18100  1  0  0  0
 19 20  1  0  0  0
 19 24  1  0  0  0
 20 21  2  0  0  0
 20101  1  0  0  0
 21 23  1  0  0  0
 22 28  1  0  0  0
 22 32  2  0  0  0
 26 27  1  0  0  0
 28102  1  0  0  0
 28103  1  0  0  0
 29104  1  0  0  0
 29105  1  0  0  0
 33 34  1  0  0  0
 33 66  1  0  0  0
 33 70  2  0  0  0
 34 36  1  0  0  0
 34 59  1  0  0  0
 34106  1  0  0  0
 35 44  2  0  0  0
 35 45  1  0  0  0
 35 68  1  0  0  0
 36 56  1  0  0  0
 36107  1  0  0  0
 37 39  1  0  0  0
 37 47  1  0  0  0
 37 66  1  0  0  0
 37108  1  0  0  0
 38 43  2  0  0  0
 38 46  1  0  0  0
 38 47  1  0  0  0
 39 64  1  0  0  0
 39 67  2  0  0  0
 40 52  1  0  0  0
 40 53  2  0  0  0
 40 58  1  0  0  0
 41109  1  0  0  0
 41110  1  0  0  0
 41111  1  0  0  0
 41 48  1  0  0  0
 42 43  1  0  0  0
 42 66  1  0  0  0
 42112  1  0  0  0
 42113  1  0  0  0
 43 44  1  0  0  0
 44114  1  0  0  0
 45 46  2  0  0  0
 45115  1  0  0  0
 46116  1  0  0  0
 47117  1  0  0  0
 47118  1  0  0  0
 48 56  1  0  0  0
 48 65  1  0  0  0
 48119  1  0  0  0
 49 50  1  0  0  0
 49 53  1  0  0  0
 49 64  1  0  0  0
 49120  1  0  0  0
 50 51  1  0  0  0
 50121  1  0  0  0
 50122  1  0  0  0
 51 52  1  0  0  0
 51123  1  0  0  0
 51124  1  0  0  0
 52125  1  0  0  0
 52126  1  0  0  0
 53 54  1  0  0  0
 54 55  2  0  0  0
 54127  1  0  0  0
 55 57  1  0  0  0
 55128  1  0  0  0
 56 69  2  0  0  0
 57 58  2  0  0  0
 57129  1  0  0  0
 58130  1  0  0  0
 59 60  1  0  0  0
 59 61  1  0  0  0
 59 62  1  0  0  0
 60131  1  0  0  0
 60132  1  0  0  0
 60133  1  0  0  0
 61134  1  0  0  0
 61135  1  0  0  0
 61136  1  0  0  0
 62137  1  0  0  0
 62138  1  0  0  0
 62139  1  0  0  0
 63 65  1  0  0  0
 63140  1  0  0  0
 63141  1  0  0  0
 63142  1  0  0  0
 64143  1  0  0  0
 65144  1  0  0  0
 68 83  1  0  0  0
 71 72  2  0  0  0
 71 75  1  0  0  0
 71145  1  0  0  0
 72 73  1  0  0  0
 72 79  1  0  0  0
 73 74  2  0  0  0
 73 76  1  0  0  0
 74 80  1  0  0  0
 74 84  1  0  0  0
 75 84  2  0  0  0
 75 85  1  0  0  0
 76 77  1  0  0  0
 76146  1  0  0  0
 76147  1  0  0  0
 77 78  1  0  0  0
 77148  1  0  0  0
 77149  1  0  0  0
 78 79  1  0  0  0
 78 83  1  0  0  0
 78150  1  0  0  0
 79 81  1  0  0  0
 79 82  1  0  0  0
 80151  1  0  0  0
 80152  1  0  0  0
 80153  1  0  0  0
 81154  1  0  0  0
 81155  1  0  0  0
 81156  1  0  0  0
 82157  1  0  0  0
 82158  1  0  0  0
 82159  1  0  0  0
 83160  1  0  0  0
 83161  1  0  0  0
 85162  1  0  0  0
M  ISO  4   1 100  68 101  83 101  85 100
M  END
> <chiral flag>
0

> <version>
0

> <s_m_source_file>
/data/baiqing/PycharmProjects/Reinvent-master-3.2/result/LINK_invent/BTK/process_docking_weight1_custom_sum_contain_oxygen_bond_distance_aromatic_linkinvent_7_9_3/rearranged_h_0172.sdf

> <i_m_source_file_index>
7

> <r_mmod_Potential_Energy-OPLS-2005>
365.679260253906

> <r_mmod_Stretch_Energy-OPLS-2005>
290.3818359375

> <r_mmod_Bend_Energy-OPLS-2005>
266.615600585938

> <r_mmod_Torsional_Energy-OPLS-2005>
220.033508300781

> <r_mmod_Improper_Torsional_Energy-OPLS-2005>
4.53002548217773

> <r_mmod_Van_der_Waal_Energy-OPLS-2005>
134.314834594727

> <r_mmod_Electrostatic_Energy-OPLS-2005>
-542.750915527344

> <r_mmod_Solvation_Energy-OPLS-2005>
-233.807693481445

> <b_mmod_Minimization_Converged-OPLS-2005>
0

> <r_mmod_RMS_Derivative-OPLS-2005>
0.330318331718445

$$$$
7
                    3D
 Structure written by MMmdl.
157166  0  0  1  0            999 V2000
  -30.5440  -14.8525   20.4276 C   0  0  0  0  0  0
  -30.4271  -12.5183   19.4991 C   0  0  0  0  0  0
  -29.5198  -12.5468   18.2500 C   0  0  0  0  0  0
  -28.0437  -12.3482   18.6467 C   0  0  0  0  0  0
  -27.6298  -13.2438   19.8444 C   0  0  2  0  0  0
  -28.6668  -13.2150   20.9877 C   0  0  0  0  0  0
  -25.2421  -13.8186   20.5678 C   0  0  0  0  0  0
  -24.1741  -13.0402   20.9202 C   0  0  0  0  0  0
  -24.6352  -11.6894   20.8688 C   0  0  0  0  0  0
  -23.9032  -10.4275   21.0353 C   0  0  0  0  0  0
  -24.3579   -9.4205   21.9157 C   0  0  0  0  0  0
  -23.6276   -8.2220   22.0722 C   0  0  0  0  0  0
  -22.4248   -8.0248   21.3526 C   0  0  0  0  0  0
  -21.9878   -9.0210   20.4615 C   0  0  0  0  0  0
  -22.7191  -10.2099   20.3021 C   0  0  0  0  0  0
  -21.6858   -6.0694   22.5282 C   0  0  0  0  0  0
  -21.4022   -6.5604   23.8202 C   0  0  0  0  0  0
  -21.3677   -5.6764   24.9177 C   0  0  0  0  0  0
  -21.6061   -4.3030   24.7233 C   0  0  0  0  0  0
  -21.8806   -3.8117   23.4343 C   0  0  0  0  0  0
  -21.9198   -4.6928   22.3402 C   0  0  0  0  0  0
  -22.7773  -13.5187   21.1906 C   0  0  0  0  0  0
  -22.1657   -4.2112   21.0978 F   0  0  0  0  0  0
  -21.5638   -3.4532   25.7747 F   0  0  0  0  0  0
  -29.9639  -13.5953   20.4092 N   0  0  0  0  0  0
  -26.2850  -12.9414   20.3197 N   0  0  0  0  0  0
  -25.9282  -11.6539   20.5666 N   0  0  0  0  0  0
  -22.0415  -12.8178   22.0450 N   0  0  0  0  0  0
  -25.4096  -15.1906   20.4092 N   0  0  0  0  0  0
  -31.7353  -14.9604   20.1149 O   0  0  0  0  0  0
  -21.6622   -6.8841   21.4233 O   0  0  0  0  0  0
  -22.3474  -14.5537   20.6823 O   0  0  0  0  0  0
  -24.6404  -31.8479   23.1949 C   0  0  0  0  0  0
  -25.9206  -32.4717   23.8313 C   0  0  1  0  0  0
  -27.2102  -27.2043   20.1398 C   0  0  0  0  0  0
  -25.5993  -33.8511   24.2260 N   0  0  0  0  0  0
  -23.4401  -30.4714   21.5385 C   0  0  2  0  0  0
  -24.8872  -28.9109   20.1091 C   0  0  0  0  0  0
  -22.7563  -29.4562   22.4877 C   0  0  0  0  0  0
  -18.0308  -28.1384   22.8462 C   0  0  0  0  0  0
  -24.1493  -36.7240   23.2634 C   0  0  0  0  0  0
  -25.9910  -30.7449   21.3807 C   0  0  0  0  0  0
  -26.0631  -29.3611   20.7248 C   0  0  0  0  0  0
  -27.2315  -28.5220   20.7265 C   0  0  0  0  0  0
  -26.0186  -26.8428   19.4821 C   0  0  0  0  0  0
  -24.8730  -27.6615   19.4717 C   0  0  0  0  0  0
  -23.6634  -29.8070   20.1544 C   0  0  0  0  0  0
  -25.4116  -36.3039   24.0330 C   0  0  1  0  0  0
  -20.5921  -28.3688   23.1234 C   0  0  2  0  0  0
  -20.6786  -26.9393   22.5387 C   0  0  0  0  0  0
  -19.5768  -26.6377   21.5184 C   0  0  0  0  0  0
  -18.1945  -26.7920   22.1589 C   0  0  0  0  0  0
  -19.1564  -28.8858   23.2842 C   0  0  0  0  0  0
  -18.9480  -30.1456   23.8867 C   0  0  0  0  0  0
  -17.6477  -30.6576   24.0553 C   0  0  0  0  0  0
  -25.9069  -34.9418   23.5099 C   0  0  0  0  0  0
  -16.5368  -29.9059   23.6338 C   0  0  0  0  0  0
  -16.7292  -28.6484   23.0346 C   0  0  0  0  0  0
  -26.4550  -31.6535   25.0711 C   0  0  0  0  0  0
  -25.3777  -31.3658   26.1438 C   0  0  0  0  0  0
  -27.0375  -30.2955   24.6177 C   0  0  0  0  0  0
  -27.6135  -32.4236   25.7476 C   0  0  0  0  0  0
  -27.5577  -37.1779   24.8457 C   0  0  0  0  0  0
  -21.4258  -29.3021   22.3617 N   0  0  0  0  0  0
  -26.4277  -37.3761   23.9425 N   0  0  0  0  0  0
  -24.7107  -31.0407   22.0948 N   0  0  0  0  0  0
  -23.4241  -28.8100   23.2996 O   0  0  0  0  0  0
  -28.2456  -26.2251   20.1643 O   0  0  0  0  0  0
  -26.5624  -34.8897   22.4656 O   0  0  0  0  0  0
  -23.5547  -32.1319   23.7229 O   0  0  0  0  0  0
  -27.7115  -20.9922   19.8925 C   0  0  0  0  0  0
  -29.5736  -22.7585   20.8955 C   0  0  0  0  0  0
  -28.8800  -20.3543   20.4205 C   0  0  0  0  0  0
  -27.4409  -22.4121   19.9133 C   0  0  0  0  0  0
  -29.8244  -21.3236   20.8942 C   0  0  0  0  0  0
  -28.3587  -23.3800   20.4497 C   0  0  0  0  0  0
  -28.8006  -17.9604   19.3020 C   0  0  0  0  0  0
  -28.9185  -18.7328   20.5847 C   0  0  1  0  0  0
  -29.8979  -17.4589   20.2150 C   0  0  1  0  0  0
  -26.0794  -22.8624   19.4001 C   0  0  0  0  0  0
  -31.1309  -20.8191   21.4760 C   0  0  0  0  0  0
  -27.9148  -24.9049   20.8494 C   0  0  0  0  0  0
  -29.7138  -15.9752   20.5620 N   0  0  0  0  0  0
  -31.4731  -12.6467   19.2165 H   0  0  0  0  0  0
  -30.3605  -11.5489   19.9947 H   0  0  0  0  0  0
  -29.8300  -11.7869   17.5311 H   0  0  0  0  0  0
  -29.6286  -13.5082   17.7456 H   0  0  0  0  0  0
  -27.9044  -11.2984   18.9035 H   0  0  0  0  0  0
  -27.3972  -12.5434   17.7895 H   0  0  0  0  0  0
  -27.6090  -14.2588   19.4479 H   0  0  0  0  0  0
  -28.7198  -12.2264   21.4453 H   0  0  0  0  0  0
  -28.3782  -13.9073   21.7800 H   0  0  0  0  0  0
  -25.2688   -9.5735   22.4764 H   0  0  0  0  0  0
  -24.0009   -7.4607   22.7403 H   0  0  0  0  0  0
  -21.0839   -8.8703   19.8905 H   0  0  0  0  0  0
  -22.3605  -10.9636   19.6148 H   0  0  0  0  0  0
  -21.1995   -7.6104   23.9705 H   0  0  0  0  0  0
  -21.1541   -6.0489   25.9086 H   0  0  0  0  0  0
  -22.0582   -2.7583   23.2847 H   0  0  0  0  0  0
  -22.4010  -11.9819   22.4840 H   0  0  0  0  0  0
  -21.1025  -13.1205   22.2625 H   0  0  0  0  0  0
  -24.6266  -15.8322   20.4842 H   0  0  0  0  0  0
  -26.2442  -15.6309   20.0490 H   0  0  0  0  0  0
  -26.7266  -32.5359   23.1037 H   0  0  0  0  0  0
  -25.0224  -33.9630   25.0466 H   0  0  0  0  0  0
  -22.7403  -31.2970   21.3910 H   0  0  0  0  0  0
  -23.3785  -35.9536   23.3248 H   0  0  0  0  0  0
  -24.3610  -36.8906   22.2061 H   0  0  0  0  0  0
  -23.7194  -37.6403   23.6682 H   0  0  0  0  0  0
  -26.1313  -31.4989   20.6049 H   0  0  0  0  0  0
  -26.8697  -30.8029   22.0118 H   0  0  0  0  0  0
  -28.1292  -28.8574   21.2272 H   0  0  0  0  0  0
  -25.9607  -25.8824   18.9906 H   0  0  0  0  0  0
  -23.9777  -27.3155   18.9728 H   0  0  0  0  0  0
  -23.8008  -30.5840   19.4013 H   0  0  0  0  0  0
  -22.7790  -29.2476   19.8455 H   0  0  0  0  0  0
  -25.1286  -36.1872   25.0818 H   0  0  0  0  0  0
  -21.0025  -28.3265   24.1352 H   0  0  0  0  0  0
  -20.5643  -26.2296   23.3594 H   0  0  0  0  0  0
  -21.6656  -26.7380   22.1209 H   0  0  0  0  0  0
  -19.6915  -25.6280   21.1227 H   0  0  0  0  0  0
  -19.6719  -27.3175   20.6705 H   0  0  0  0  0  0
  -17.4215  -26.6680   21.3984 H   0  0  0  0  0  0
  -18.0337  -26.0065   22.8989 H   0  0  0  0  0  0
  -19.7967  -30.7278   24.2221 H   0  0  0  0  0  0
  -17.5033  -31.6259   24.5150 H   0  0  0  0  0  0
  -15.5355  -30.2946   23.7686 H   0  0  0  0  0  0
  -15.8694  -28.0797   22.7057 H   0  0  0  0  0  0
  -24.5995  -30.6950   25.7771 H   0  0  0  0  0  0
  -24.8910  -32.2798   26.4850 H   0  0  0  0  0  0
  -25.8125  -30.8865   27.0224 H   0  0  0  0  0  0
  -26.2933  -29.6702   24.1237 H   0  0  0  0  0  0
  -27.4103  -29.7210   25.4662 H   0  0  0  0  0  0
  -27.8809  -30.4224   23.9388 H   0  0  0  0  0  0
  -27.2824  -33.3585   26.2002 H   0  0  0  0  0  0
  -28.3993  -32.6682   25.0316 H   0  0  0  0  0  0
  -28.0757  -31.8363   26.5423 H   0  0  0  0  0  0
  -28.2556  -38.0112   24.7562 H   0  0  0  0  0  0
  -28.1111  -36.2647   24.6209 H   0  0  0  0  0  0
  -27.2319  -37.1361   25.8865 H   0  0  0  0  0  0
  -20.9460  -29.8749   21.6808 H   0  0  0  0  0  0
  -26.0140  -38.2818   24.1457 H   0  0  0  0  0  0
  -26.9375  -20.3423   19.5085 H   0  0  0  0  0  0
  -30.3200  -23.4059   21.3374 H   0  0  0  0  0  0
  -29.1214  -18.4483   18.3836 H   0  0  0  0  0  0
  -27.8981  -17.3615   19.1908 H   0  0  0  0  0  0
  -28.2039  -18.5020   21.3721 H   0  0  0  0  0  0
  -30.9203  -17.7557   19.9898 H   0  0  0  0  0  0
  -25.4692  -22.0148   19.0851 H   0  0  0  0  0  0
  -26.1948  -23.5204   18.5382 H   0  0  0  0  0  0
  -25.5090  -23.3861   20.1685 H   0  0  0  0  0  0
  -31.5817  -21.5558   22.1418 H   0  0  0  0  0  0
  -31.8410  -20.5964   20.6785 H   0  0  0  0  0  0
  -30.9810  -19.9060   22.0526 H   0  0  0  0  0  0
  -28.2996  -25.0421   21.8591 H   0  0  0  0  0  0
  -26.8421  -24.8841   21.0235 H   0  0  0  0  0  0
  -28.7654  -15.7269   20.7972 H   0  0  0  0  0  0
  1 25  1  0  0  0
  1 30  2  0  0  0
  1 83  1  0  0  0
  2  3  1  0  0  0
  2 25  1  0  0  0
  2 84  1  0  0  0
  2 85  1  0  0  0
  3  4  1  0  0  0
  3 86  1  0  0  0
  3 87  1  0  0  0
  4  5  1  0  0  0
  4 88  1  0  0  0
  4 89  1  0  0  0
  5  6  1  0  0  0
  5 26  1  0  0  0
  5 90  1  0  0  0
  6 25  1  0  0  0
  6 91  1  0  0  0
  6 92  1  0  0  0
  7  8  2  0  0  0
  7 26  1  0  0  0
  7 29  1  0  0  0
  8  9  1  0  0  0
  8 22  1  0  0  0
  9 10  1  0  0  0
  9 27  2  0  0  0
 10 11  2  0  0  0
 10 15  1  0  0  0
 11 12  1  0  0  0
 11 93  1  0  0  0
 12 13  2  0  0  0
 12 94  1  0  0  0
 13 14  1  0  0  0
 13 31  1  0  0  0
 14 15  2  0  0  0
 14 95  1  0  0  0
 15 96  1  0  0  0
 16 17  2  0  0  0
 16 21  1  0  0  0
 16 31  1  0  0  0
 17 18  1  0  0  0
 17 97  1  0  0  0
 18 19  2  0  0  0
 18 98  1  0  0  0
 19 20  1  0  0  0
 19 24  1  0  0  0
 20 21  2  0  0  0
 20 99  1  0  0  0
 21 23  1  0  0  0
 22 28  1  0  0  0
 22 32  2  0  0  0
 26 27  1  0  0  0
 28100  1  0  0  0
 28101  1  0  0  0
 29102  1  0  0  0
 29103  1  0  0  0
 33 34  1  0  0  0
 33 66  1  0  0  0
 33 70  2  0  0  0
 34 36  1  0  0  0
 34 59  1  0  0  0
 34104  1  0  0  0
 35 44  2  0  0  0
 35 45  1  0  0  0
 35 68  1  0  0  0
 36 56  1  0  0  0
 36105  1  0  0  0
 37 39  1  0  0  0
 37 47  1  0  0  0
 37 66  1  0  0  0
 37106  1  0  0  0
 38 43  2  0  0  0
 38 46  1  0  0  0
 38 47  1  0  0  0
 39 64  1  0  0  0
 39 67  2  0  0  0
 40 52  1  0  0  0
 40 53  2  0  0  0
 40 58  1  0  0  0
 41107  1  0  0  0
 41108  1  0  0  0
 41109  1  0  0  0
 41 48  1  0  0  0
 42 43  1  0  0  0
 42 66  1  0  0  0
 42110  1  0  0  0
 42111  1  0  0  0
 43 44  1  0  0  0
 44112  1  0  0  0
 45 46  2  0  0  0
 45113  1  0  0  0
 46114  1  0  0  0
 47115  1  0  0  0
 47116  1  0  0  0
 48 56  1  0  0  0
 48 65  1  0  0  0
 48117  1  0  0  0
 49 50  1  0  0  0
 49 53  1  0  0  0
 49 64  1  0  0  0
 49118  1  0  0  0
 50 51  1  0  0  0
 50119  1  0  0  0
 50120  1  0  0  0
 51 52  1  0  0  0
 51121  1  0  0  0
 51122  1  0  0  0
 52123  1  0  0  0
 52124  1  0  0  0
 53 54  1  0  0  0
 54 55  2  0  0  0
 54125  1  0  0  0
 55 57  1  0  0  0
 55126  1  0  0  0
 56 69  2  0  0  0
 57 58  2  0  0  0
 57127  1  0  0  0
 58128  1  0  0  0
 59 60  1  0  0  0
 59 61  1  0  0  0
 59 62  1  0  0  0
 60129  1  0  0  0
 60130  1  0  0  0
 60131  1  0  0  0
 61132  1  0  0  0
 61133  1  0  0  0
 61134  1  0  0  0
 62135  1  0  0  0
 62136  1  0  0  0
 62137  1  0  0  0
 63 65  1  0  0  0
 63138  1  0  0  0
 63139  1  0  0  0
 63140  1  0  0  0
 64141  1  0  0  0
 65142  1  0  0  0
 68 82  1  0  0  0
 71 73  2  0  0  0
 71 74  1  0  0  0
 71143  1  0  0  0
 72 75  2  0  0  0
 72 76  1  0  0  0
 72144  1  0  0  0
 73 75  1  0  0  0
 73 78  1  0  0  0
 74 76  2  0  0  0
 74 80  1  0  0  0
 75 81  1  0  0  0
 76 82  1  0  0  0
 77 78  1  0  0  0
 77 79  1  0  0  0
 77145  1  0  0  0
 77146  1  0  0  0
 78 79  1  0  0  0
 78147  1  0  0  0
 79 83  1  0  0  0
 79148  1  0  0  0
 80149  1  0  0  0
 80150  1  0  0  0
 80151  1  0  0  0
 81152  1  0  0  0
 81153  1  0  0  0
 81154  1  0  0  0
 82155  1  0  0  0
 82156  1  0  0  0
 83157  1  0  0  0
M  ISO  4   1 100  68 101  82 101  83 100
M  END
> <chiral flag>
0

> <version>
0

> <s_m_source_file>
/data/baiqing/PycharmProjects/Reinvent-master-3.2/result/LINK_invent/BTK/process_docking_weight1_custom_sum_contain_oxygen_bond_distance_aromatic_linkinvent_7_9_3/rearranged_h_0172.sdf

> <i_m_source_file_index>
8

> <r_mmod_Potential_Energy-OPLS-2005>
416.803802490234

> <r_mmod_Stretch_Energy-OPLS-2005>
181.088912963867

> <r_mmod_Bend_Energy-OPLS-2005>
227.275604248047

> <r_mmod_Torsional_Energy-OPLS-2005>
302.086944580078

> <r_mmod_Improper_Torsional_Energy-OPLS-2005>
9.79183483123779

> <r_mmod_Van_der_Waal_Energy-OPLS-2005>
130.667861938477

> <r_mmod_Electrostatic_Energy-OPLS-2005>
-363.145782470703

> <r_mmod_Solvation_Energy-OPLS-2005>
-209.658020019531

> <b_mmod_Minimization_Converged-OPLS-2005>
0

> <r_mmod_RMS_Derivative-OPLS-2005>
4.11607694625854

$$$$
8
                    3D
 Structure written by MMmdl.
172182  0  0  1  0            999 V2000
  -30.6710  -14.6149   20.5601 C   0  0  0  0  0  0
  -30.4248  -12.3954   19.4532 C   0  0  0  0  0  0
  -29.5005  -12.5157   18.2229 C   0  0  0  0  0  0
  -28.0254  -12.3511   18.6342 C   0  0  0  0  0  0
  -27.6502  -13.2226   19.8617 C   0  0  2  0  0  0
  -28.6903  -13.0827   20.9934 C   0  0  0  0  0  0
  -25.2539  -13.8188   20.5684 C   0  0  0  0  0  0
  -24.1816  -13.0443   20.9184 C   0  0  0  0  0  0
  -24.6393  -11.6917   20.8732 C   0  0  0  0  0  0
  -23.9066  -10.4295   21.0400 C   0  0  0  0  0  0
  -24.3617   -9.4212   21.9180 C   0  0  0  0  0  0
  -23.6293   -8.2247   22.0755 C   0  0  0  0  0  0
  -22.4276   -8.0281   21.3544 C   0  0  0  0  0  0
  -21.9908   -9.0255   20.4645 C   0  0  0  0  0  0
  -22.7237  -10.2133   20.3054 C   0  0  0  0  0  0
  -21.6855   -6.0734   22.5276 C   0  0  0  0  0  0
  -21.4015   -6.5638   23.8208 C   0  0  0  0  0  0
  -21.3658   -5.6792   24.9173 C   0  0  0  0  0  0
  -21.6044   -4.3055   24.7225 C   0  0  0  0  0  0
  -21.8819   -3.8144   23.4346 C   0  0  0  0  0  0
  -21.9193   -4.6961   22.3402 C   0  0  0  0  0  0
  -22.7836  -13.5227   21.1852 C   0  0  0  0  0  0
  -22.1661   -4.2149   21.0978 F   0  0  0  0  0  0
  -21.5628   -3.4538   25.7738 F   0  0  0  0  0  0
  -30.0095  -13.4178   20.4388 N   0  0  0  0  0  0
  -26.2968  -12.9384   20.3306 N   0  0  0  0  0  0
  -25.9322  -11.6529   20.5747 N   0  0  0  0  0  0
  -22.0486  -12.8221   22.0411 N   0  0  0  0  0  0
  -25.4251  -15.1912   20.4105 N   0  0  0  0  0  0
  -31.7836  -14.7745   20.0478 O   0  0  0  0  0  0
  -21.6640   -6.8879   21.4237 O   0  0  0  0  0  0
  -22.3520  -14.5535   20.6702 O   0  0  0  0  0  0
  -24.6243  -31.8589   23.2015 C   0  0  0  0  0  0
  -25.9094  -32.4769   23.8339 C   0  0  1  0  0  0
  -27.2270  -27.3279   20.1106 C   0  0  0  0  0  0
  -25.5914  -33.8569   24.2268 N   0  0  0  0  0  0
  -23.4173  -30.4818   21.5435 C   0  0  2  0  0  0
  -24.8634  -28.9344   20.1090 C   0  0  0  0  0  0
  -22.7459  -29.4621   22.4935 C   0  0  0  0  0  0
  -18.0281  -28.1379   22.8493 C   0  0  0  0  0  0
  -24.1487  -36.7292   23.2639 C   0  0  0  0  0  0
  -25.9562  -30.7917   21.3704 C   0  0  0  0  0  0
  -26.0298  -29.4200   20.7113 C   0  0  0  0  0  0
  -27.2120  -28.6272   20.7021 C   0  0  0  0  0  0
  -26.0350  -26.8839   19.4946 C   0  0  0  0  0  0
  -24.8666  -27.6714   19.4943 C   0  0  0  0  0  0
  -23.6308  -29.8136   20.1594 C   0  0  0  0  0  0
  -25.4114  -36.3080   24.0327 C   0  0  1  0  0  0
  -20.5880  -28.3683   23.1291 C   0  0  2  0  0  0
  -20.6773  -26.9405   22.5418 C   0  0  0  0  0  0
  -19.5749  -26.6383   21.5219 C   0  0  0  0  0  0
  -18.1923  -26.7927   22.1625 C   0  0  0  0  0  0
  -19.1532  -28.8846   23.2888 C   0  0  0  0  0  0
  -18.9457  -30.1453   23.8898 C   0  0  0  0  0  0
  -17.6458  -30.6587   24.0563 C   0  0  0  0  0  0
  -25.9046  -34.9447   23.5102 C   0  0  0  0  0  0
  -16.5348  -29.9085   23.6334 C   0  0  0  0  0  0
  -16.7271  -28.6503   23.0355 C   0  0  0  0  0  0
  -26.4485  -31.6585   25.0710 C   0  0  0  0  0  0
  -25.3724  -31.3710   26.1441 C   0  0  0  0  0  0
  -27.0333  -30.3014   24.6162 C   0  0  0  0  0  0
  -27.6046  -32.4324   25.7476 C   0  0  0  0  0  0
  -27.5578  -37.1797   24.8461 C   0  0  0  0  0  0
  -21.4173  -29.3037   22.3680 N   0  0  0  0  0  0
  -26.4294  -37.3775   23.9404 N   0  0  0  0  0  0
  -24.6847  -31.0607   22.0957 N   0  0  0  0  0  0
  -23.4191  -28.8171   23.3020 O   0  0  0  0  0  0
  -28.3726  -26.5187   20.1906 O   0  0  0  0  0  0
  -26.5613  -34.8914   22.4669 O   0  0  0  0  0  0
  -23.5412  -32.1395   23.7347 O   0  0  0  0  0  0
  -30.3391  -20.5826   20.1926 C   0  0  0  0  0  0
  -28.1990  -19.8173   20.9367 C   0  0  0  0  0  0
  -28.4773  -22.2402   20.3283 C   0  0  0  0  0  0
  -29.8298  -21.9091   20.0198 C   0  0  0  0  0  0
  -27.6826  -21.1427   20.7961 C   0  0  0  0  0  0
  -29.5473  -19.4976   20.6548 C   0  0  0  0  0  0
  -27.9309  -24.6800   21.1769 C   0  0  0  0  0  0
  -30.7820  -18.3330   22.2762 C   0  0  0  0  0  0
  -29.5178  -16.9071   20.5675 C   0  0  0  0  0  0
  -27.8243  -23.6648   20.1626 C   0  0  1  0  0  0
  -31.4931  -17.0400   22.7013 C   0  0  2  0  0  0
  -28.4341  -25.0944   19.7634 C   0  0  2  0  0  0
  -30.5112  -15.8459   22.6342 C   0  0  1  0  0  0
  -30.7775  -22.9784   19.5081 C   0  0  0  0  0  0
  -26.2286  -21.3667   21.1839 C   0  0  0  0  0  0
  -29.2988  -15.9475   23.5905 C   0  0  0  0  0  0
  -30.1406  -18.2231   20.9660 N   0  0  0  0  0  0
  -30.0641  -15.6529   21.2400 N   0  0  0  0  0  0
  -32.1032  -17.1875   24.0348 N   0  3  0  0  0  0
  -31.4681  -12.5038   19.1507 H   0  0  0  0  0  0
  -30.3494  -11.3991   19.8917 H   0  0  0  0  0  0
  -29.7653  -11.7653   17.4765 H   0  0  0  0  0  0
  -29.6439  -13.4861   17.7450 H   0  0  0  0  0  0
  -27.8631  -11.2974   18.8658 H   0  0  0  0  0  0
  -27.3703  -12.5809   17.7929 H   0  0  0  0  0  0
  -27.6696  -14.2590   19.5231 H   0  0  0  0  0  0
  -28.6965  -12.0658   21.3893 H   0  0  0  0  0  0
  -28.4199  -13.7269   21.8271 H   0  0  0  0  0  0
  -25.2764   -9.5685   22.4753 H   0  0  0  0  0  0
  -24.0002   -7.4638   22.7476 H   0  0  0  0  0  0
  -21.0841   -8.8770   19.8952 H   0  0  0  0  0  0
  -22.3695  -10.9669   19.6161 H   0  0  0  0  0  0
  -21.2008   -7.6147   23.9713 H   0  0  0  0  0  0
  -21.1479   -6.0523   25.9077 H   0  0  0  0  0  0
  -22.0600   -2.7606   23.2846 H   0  0  0  0  0  0
  -22.4104  -11.9877   22.4789 H   0  0  0  0  0  0
  -21.1102  -13.1238   22.2622 H   0  0  0  0  0  0
  -24.6579  -15.8457   20.5179 H   0  0  0  0  0  0
  -26.2779  -15.6290   20.0880 H   0  0  0  0  0  0
  -26.7158  -32.5446   23.1081 H   0  0  0  0  0  0
  -25.0061  -33.9716   25.0410 H   0  0  0  0  0  0
  -22.7112  -31.3022   21.3984 H   0  0  0  0  0  0
  -23.3752  -35.9621   23.3304 H   0  0  0  0  0  0
  -24.3576  -36.8924   22.2055 H   0  0  0  0  0  0
  -23.7246  -37.6494   23.6667 H   0  0  0  0  0  0
  -26.0864  -31.5562   20.6033 H   0  0  0  0  0  0
  -26.8370  -30.8398   21.9991 H   0  0  0  0  0  0
  -28.1079  -28.9951   21.1827 H   0  0  0  0  0  0
  -25.9741  -25.9122   19.0295 H   0  0  0  0  0  0
  -23.9686  -27.2913   19.0272 H   0  0  0  0  0  0
  -23.7475  -30.5888   19.4012 H   0  0  0  0  0  0
  -22.7510  -29.2408   19.8613 H   0  0  0  0  0  0
  -25.1297  -36.1932   25.0820 H   0  0  0  0  0  0
  -20.9967  -28.3262   24.1415 H   0  0  0  0  0  0
  -20.5677  -26.2284   23.3612 H   0  0  0  0  0  0
  -21.6641  -26.7438   22.1202 H   0  0  0  0  0  0
  -19.6907  -25.6297   21.1237 H   0  0  0  0  0  0
  -19.6695  -27.3201   20.6755 H   0  0  0  0  0  0
  -17.4197  -26.6686   21.4019 H   0  0  0  0  0  0
  -18.0312  -26.0062   22.9015 H   0  0  0  0  0  0
  -19.7933  -30.7271   24.2261 H   0  0  0  0  0  0
  -17.5013  -31.6264   24.5172 H   0  0  0  0  0  0
  -15.5350  -30.2983   23.7663 H   0  0  0  0  0  0
  -15.8671  -28.0827   22.7061 H   0  0  0  0  0  0
  -24.5931  -30.7016   25.7782 H   0  0  0  0  0  0
  -24.8864  -32.2855   26.4842 H   0  0  0  0  0  0
  -25.8060  -30.8927   27.0231 H   0  0  0  0  0  0
  -26.2902  -29.6749   24.1216 H   0  0  0  0  0  0
  -27.4072  -29.7290   25.4660 H   0  0  0  0  0  0
  -27.8746  -30.4308   23.9354 H   0  0  0  0  0  0
  -27.2675  -33.3642   26.2027 H   0  0  0  0  0  0
  -28.3866  -32.6862   25.0305 H   0  0  0  0  0  0
  -28.0697  -31.8463   26.5414 H   0  0  0  0  0  0
  -28.2592  -38.0096   24.7523 H   0  0  0  0  0  0
  -28.1086  -36.2633   24.6281 H   0  0  0  0  0  0
  -27.2289  -37.1441   25.8862 H   0  0  0  0  0  0
  -20.9337  -29.8762   21.6899 H   0  0  0  0  0  0
  -26.0176  -38.2847   24.1422 H   0  0  0  0  0  0
  -31.3823  -20.3953   19.9793 H   0  0  0  0  0  0
  -27.5528  -19.0420   21.3231 H   0  0  0  0  0  0
  -28.7021  -24.5634   21.9352 H   0  0  0  0  0  0
  -26.9859  -25.0633   21.5593 H   0  0  0  0  0  0
  -31.5091  -19.1470   22.2540 H   0  0  0  0  0  0
  -30.0324  -18.6138   23.0183 H   0  0  0  0  0  0
  -29.6166  -16.8028   19.4848 H   0  0  0  0  0  0
  -28.4453  -16.9387   20.7626 H   0  0  0  0  0  0
  -26.8307  -23.5090   19.7467 H   0  0  0  0  0  0
  -32.3153  -16.8572   22.0059 H   0  0  0  0  0  0
  -27.9677  -25.1796   18.7847 H   0  0  0  0  0  0
  -31.0673  -14.9615   22.9569 H   0  0  0  0  0  0
  -31.7667  -22.5726   19.2951 H   0  0  0  0  0  0
  -30.8998  -23.7690   20.2488 H   0  0  0  0  0  0
  -30.3968  -23.4186   18.5863 H   0  0  0  0  0  0
  -25.8296  -20.5217   21.7461 H   0  0  0  0  0  0
  -25.6104  -21.4972   20.2956 H   0  0  0  0  0  0
  -26.1224  -22.2502   21.8141 H   0  0  0  0  0  0
  -28.6354  -16.7737   23.3323 H   0  0  0  0  0  0
  -29.6118  -16.0893   24.6246 H   0  0  0  0  0  0
  -28.6994  -15.0389   23.5768 H   0  0  0  0  0  0
  -31.4162  -17.3971   24.7362 H   0  0  0  0  0  0
  -32.7767  -17.9330   24.0245 H   0  0  0  0  0  0
  -32.5859  -16.3472   24.2982 H   0  0  0  0  0  0
  1 25  1  0  0  0
  1 30  2  0  0  0
  1 88  1  0  0  0
  2  3  1  0  0  0
  2 25  1  0  0  0
  2 90  1  0  0  0
  2 91  1  0  0  0
  3  4  1  0  0  0
  3 92  1  0  0  0
  3 93  1  0  0  0
  4  5  1  0  0  0
  4 94  1  0  0  0
  4 95  1  0  0  0
  5  6  1  0  0  0
  5 26  1  0  0  0
  5 96  1  0  0  0
  6 25  1  0  0  0
  6 97  1  0  0  0
  6 98  1  0  0  0
  7  8  2  0  0  0
  7 26  1  0  0  0
  7 29  1  0  0  0
  8  9  1  0  0  0
  8 22  1  0  0  0
  9 10  1  0  0  0
  9 27  2  0  0  0
 10 11  2  0  0  0
 10 15  1  0  0  0
 11 12  1  0  0  0
 11 99  1  0  0  0
 12 13  2  0  0  0
 12100  1  0  0  0
 13 14  1  0  0  0
 13 31  1  0  0  0
 14 15  2  0  0  0
 14101  1  0  0  0
 15102  1  0  0  0
 16 17  2  0  0  0
 16 21  1  0  0  0
 16 31  1  0  0  0
 17 18  1  0  0  0
 17103  1  0  0  0
 18 19  2  0  0  0
 18104  1  0  0  0
 19 20  1  0  0  0
 19 24  1  0  0  0
 20 21  2  0  0  0
 20105  1  0  0  0
 21 23  1  0  0  0
 22 28  1  0  0  0
 22 32  2  0  0  0
 26 27  1  0  0  0
 28106  1  0  0  0
 28107  1  0  0  0
 29108  1  0  0  0
 29109  1  0  0  0
 33 34  1  0  0  0
 33 66  1  0  0  0
 33 70  2  0  0  0
 34 36  1  0  0  0
 34 59  1  0  0  0
 34110  1  0  0  0
 35 44  2  0  0  0
 35 45  1  0  0  0
 35 68  1  0  0  0
 36 56  1  0  0  0
 36111  1  0  0  0
 37 39  1  0  0  0
 37 47  1  0  0  0
 37 66  1  0  0  0
 37112  1  0  0  0
 38 43  2  0  0  0
 38 46  1  0  0  0
 38 47  1  0  0  0
 39 64  1  0  0  0
 39 67  2  0  0  0
 40 52  1  0  0  0
 40 53  2  0  0  0
 40 58  1  0  0  0
 41113  1  0  0  0
 41114  1  0  0  0
 41115  1  0  0  0
 41 48  1  0  0  0
 42 43  1  0  0  0
 42 66  1  0  0  0
 42116  1  0  0  0
 42117  1  0  0  0
 43 44  1  0  0  0
 44118  1  0  0  0
 45 46  2  0  0  0
 45119  1  0  0  0
 46120  1  0  0  0
 47121  1  0  0  0
 47122  1  0  0  0
 48 56  1  0  0  0
 48 65  1  0  0  0
 48123  1  0  0  0
 49 50  1  0  0  0
 49 53  1  0  0  0
 49 64  1  0  0  0
 49124  1  0  0  0
 50 51  1  0  0  0
 50125  1  0  0  0
 50126  1  0  0  0
 51 52  1  0  0  0
 51127  1  0  0  0
 51128  1  0  0  0
 52129  1  0  0  0
 52130  1  0  0  0
 53 54  1  0  0  0
 54 55  2  0  0  0
 54131  1  0  0  0
 55 57  1  0  0  0
 55132  1  0  0  0
 56 69  2  0  0  0
 57 58  2  0  0  0
 57133  1  0  0  0
 58134  1  0  0  0
 59 60  1  0  0  0
 59 61  1  0  0  0
 59 62  1  0  0  0
 60135  1  0  0  0
 60136  1  0  0  0
 60137  1  0  0  0
 61138  1  0  0  0
 61139  1  0  0  0
 61140  1  0  0  0
 62141  1  0  0  0
 62142  1  0  0  0
 62143  1  0  0  0
 63 65  1  0  0  0
 63144  1  0  0  0
 63145  1  0  0  0
 63146  1  0  0  0
 64147  1  0  0  0
 65148  1  0  0  0
 68 82  1  0  0  0
 71 74  2  0  0  0
 71 76  1  0  0  0
 71149  1  0  0  0
 72 75  1  0  0  0
 72 76  2  0  0  0
 72150  1  0  0  0
 73 74  1  0  0  0
 73 75  2  0  0  0
 73 80  1  0  0  0
 74 84  1  0  0  0
 75 85  1  0  0  0
 76 87  1  0  0  0
 77 80  1  0  0  0
 77 82  1  0  0  0
 77151  1  0  0  0
 77152  1  0  0  0
 78 81  1  0  0  0
 78 87  1  0  0  0
 78153  1  0  0  0
 78154  1  0  0  0
 79 87  1  0  0  0
 79 88  1  0  0  0
 79155  1  0  0  0
 79156  1  0  0  0
 80 82  1  0  0  0
 80157  1  0  0  0
 81 83  1  0  0  0
 81 89  1  0  0  0
 81158  1  0  0  0
 82159  1  0  0  0
 83 86  1  0  0  0
 83 88  1  0  0  0
 83160  1  0  0  0
 84161  1  0  0  0
 84162  1  0  0  0
 84163  1  0  0  0
 85164  1  0  0  0
 85165  1  0  0  0
 85166  1  0  0  0
 86167  1  0  0  0
 86168  1  0  0  0
 86169  1  0  0  0
 89170  1  0  0  0
 89171  1  0  0  0
 89172  1  0  0  0
M  CHG  1  89   1
M  ISO  4   1 100  68 101  82 101  88 100
M  END
> <chiral flag>
0

> <version>
0

> <s_m_source_file>
/data/baiqing/PycharmProjects/Reinvent-master-3.2/result/LINK_invent/BTK/process_docking_weight1_custom_sum_contain_oxygen_bond_distance_aromatic_linkinvent_7_9_3/rearranged_h_0172.sdf

> <i_m_source_file_index>
9

> <r_mmod_Potential_Energy-OPLS-2005>
178.532104492188

> <r_mmod_Stretch_Energy-OPLS-2005>
105.848701477051

> <r_mmod_Bend_Energy-OPLS-2005>
283.534515380859

> <r_mmod_Torsional_Energy-OPLS-2005>
346.150085449219

> <r_mmod_Improper_Torsional_Energy-OPLS-2005>
7.30392503738403

> <r_mmod_Van_der_Waal_Energy-OPLS-2005>
149.569946289062

> <r_mmod_Electrostatic_Energy-OPLS-2005>
-275.965148925781

> <r_mmod_Solvation_Energy-OPLS-2005>
-479.378021240234

> <b_mmod_Minimization_Converged-OPLS-2005>
0

> <r_mmod_RMS_Derivative-OPLS-2005>
0.938348591327667

$$$$
9
                    3D
 Structure written by MMmdl.
163172  0  0  1  0            999 V2000
  -30.5919  -14.7782   20.5816 C   0  0  0  0  0  0
  -30.4409  -12.4907   19.5408 C   0  0  0  0  0  0
  -29.5420  -12.5390   18.2853 C   0  0  0  0  0  0
  -28.0610  -12.3322   18.6689 C   0  0  0  0  0  0
  -27.6372  -13.2195   19.8718 C   0  0  2  0  0  0
  -28.6624  -13.1869   21.0253 C   0  0  0  0  0  0
  -25.2453  -13.8121   20.5622 C   0  0  0  0  0  0
  -24.1799  -13.0385   20.9176 C   0  0  0  0  0  0
  -24.6346  -11.6834   20.8727 C   0  0  0  0  0  0
  -23.8993  -10.4223   21.0386 C   0  0  0  0  0  0
  -24.3536   -9.4151   21.9143 C   0  0  0  0  0  0
  -23.6222   -8.2210   22.0735 C   0  0  0  0  0  0
  -22.4209   -8.0228   21.3548 C   0  0  0  0  0  0
  -21.9833   -9.0159   20.4630 C   0  0  0  0  0  0
  -22.7145  -10.2035   20.3035 C   0  0  0  0  0  0
  -21.6800   -6.0679   22.5264 C   0  0  0  0  0  0
  -21.4021   -6.5615   23.8201 C   0  0  0  0  0  0
  -21.3689   -5.6751   24.9157 C   0  0  0  0  0  0
  -21.6080   -4.3024   24.7215 C   0  0  0  0  0  0
  -21.8836   -3.8116   23.4337 C   0  0  0  0  0  0
  -21.9184   -4.6937   22.3401 C   0  0  0  0  0  0
  -22.7813  -13.5143   21.1926 C   0  0  0  0  0  0
  -22.1644   -4.2142   21.0967 F   0  0  0  0  0  0
  -21.5630   -3.4493   25.7734 F   0  0  0  0  0  0
  -29.9679  -13.5538   20.4644 N   0  0  0  0  0  0
  -26.2883  -12.9297   20.3290 N   0  0  0  0  0  0
  -25.9305  -11.6455   20.5773 N   0  0  0  0  0  0
  -22.0457  -12.8102   22.0446 N   0  0  0  0  0  0
  -25.4340  -15.1809   20.3875 N   0  0  0  0  0  0
  -31.7981  -14.8664   20.3093 O   0  0  0  0  0  0
  -21.6632   -6.8790   21.4214 O   0  0  0  0  0  0
  -22.3519  -14.5411   20.6720 O   0  0  0  0  0  0
  -24.6393  -31.8494   23.1966 C   0  0  0  0  0  0
  -25.9181  -32.4728   23.8351 C   0  0  1  0  0  0
  -27.2386  -27.2306   20.1881 C   0  0  0  0  0  0
  -25.6021  -33.8532   24.2275 N   0  0  0  0  0  0
  -23.4343  -30.4669   21.5355 C   0  0  2  0  0  0
  -24.8893  -28.8949   20.1125 C   0  0  0  0  0  0
  -22.7512  -29.4532   22.4839 C   0  0  0  0  0  0
  -18.0289  -28.1386   22.8455 C   0  0  0  0  0  0
  -24.1515  -36.7249   23.2609 C   0  0  0  0  0  0
  -25.9762  -30.7530   21.3769 C   0  0  0  0  0  0
  -26.0490  -29.3672   20.7283 C   0  0  0  0  0  0
  -27.2200  -28.5494   20.7512 C   0  0  0  0  0  0
  -26.0611  -26.8099   19.5367 C   0  0  0  0  0  0
  -24.9011  -27.6277   19.4967 C   0  0  0  0  0  0
  -23.6589  -29.7842   20.1544 C   0  0  0  0  0  0
  -25.4136  -36.3068   24.0311 C   0  0  1  0  0  0
  -20.5918  -28.3650   23.1259 C   0  0  2  0  0  0
  -20.6785  -26.9345   22.5405 C   0  0  0  0  0  0
  -19.5760  -26.6367   21.5212 C   0  0  0  0  0  0
  -18.1944  -26.7966   22.1601 C   0  0  0  0  0  0
  -19.1579  -28.8850   23.2869 C   0  0  0  0  0  0
  -18.9502  -30.1476   23.8854 C   0  0  0  0  0  0
  -17.6506  -30.6581   24.0557 C   0  0  0  0  0  0
  -25.9038  -34.9415   23.5062 C   0  0  0  0  0  0
  -16.5362  -29.9067   23.6337 C   0  0  0  0  0  0
  -16.7291  -28.6500   23.0307 C   0  0  0  0  0  0
  -26.4552  -31.6555   25.0739 C   0  0  0  0  0  0
  -25.3776  -31.3694   26.1472 C   0  0  0  0  0  0
  -27.0371  -30.3015   24.6146 C   0  0  0  0  0  0
  -27.6170  -32.4209   25.7469 C   0  0  0  0  0  0
  -27.5573  -37.1781   24.8456 C   0  0  0  0  0  0
  -21.4231  -29.3055   22.3654 N   0  0  0  0  0  0
  -26.4302  -37.3791   23.9393 N   0  0  0  0  0  0
  -24.7042  -31.0413   22.0966 N   0  0  0  0  0  0
  -23.4216  -28.7923   23.2815 O   0  0  0  0  0  0
  -28.3839  -26.4065   20.3301 O   0  0  0  0  0  0
  -26.5575  -34.8871   22.4608 O   0  0  0  0  0  0
  -23.5528  -32.1278   23.7218 O   0  0  0  0  0  0
  -28.3859  -21.0174   20.8478 C   0  0  0  0  0  0
  -28.9010  -22.3016   21.0892 C   0  0  0  0  0  0
  -30.2545  -21.9585   21.4629 C   0  0  0  0  0  0
  -29.5443  -18.0431   19.3714 C   0  0  0  0  0  0
  -29.4147  -16.4974   19.3344 C   0  0  0  0  0  0
  -29.1721  -18.4427   20.7896 C   0  0  1  0  0  0
  -29.8199  -17.1723   21.5727 C   0  0  1  0  0  0
  -31.3453  -22.9546   21.9112 C   0  0  0  0  0  0
  -28.9908  -16.8342   22.8419 C   0  0  0  0  0  0
  -28.2530  -24.3093   22.5542 C   0  0  0  0  0  0
  -28.5148  -24.9261   20.0522 C   0  0  0  0  0  0
  -28.1649  -23.7453   21.1165 C   0  0  1  0  0  0
  -30.4971  -20.6165   21.4184 N   0  0  0  0  0  0
  -29.3308  -19.9749   21.0686 N   0  0  0  0  0  0
  -29.7991  -15.9350   20.6453 N   0  0  0  0  0  0
  -31.4863  -12.6310   19.2602 H   0  0  0  0  0  0
  -30.3846  -11.5104   20.0237 H   0  0  0  0  0  0
  -29.8518  -11.8055   17.5418 H   0  0  0  0  0  0
  -29.6618  -13.5223   17.8187 H   0  0  0  0  0  0
  -27.9129  -11.2737   18.8965 H   0  0  0  0  0  0
  -27.4233  -12.5502   17.8185 H   0  0  0  0  0  0
  -27.6095  -14.2373   19.4999 H   0  0  0  0  0  0
  -28.6956  -12.2037   21.5021 H   0  0  0  0  0  0
  -28.3807  -13.8967   21.8069 H   0  0  0  0  0  0
  -25.2667   -9.5657   22.4700 H   0  0  0  0  0  0
  -23.9954   -7.4598   22.7428 H   0  0  0  0  0  0
  -21.0773   -8.8584   19.8892 H   0  0  0  0  0  0
  -22.3544  -10.9537   19.6144 H   0  0  0  0  0  0
  -21.2058   -7.6129   23.9691 H   0  0  0  0  0  0
  -21.1499   -6.0499   25.9033 H   0  0  0  0  0  0
  -22.0632   -2.7594   23.2828 H   0  0  0  0  0  0
  -22.4002  -11.9727   22.4814 H   0  0  0  0  0  0
  -21.1102  -13.1228   22.2720 H   0  0  0  0  0  0
  -24.6764  -15.8527   20.4389 H   0  0  0  0  0  0
  -26.2962  -15.5642   20.0305 H   0  0  0  0  0  0
  -26.7137  -32.5239   23.0959 H   0  0  0  0  0  0
  -25.0487  -33.9759   25.0634 H   0  0  0  0  0  0
  -22.7360  -31.2917   21.3678 H   0  0  0  0  0  0
  -23.3818  -35.9540   23.3297 H   0  0  0  0  0  0
  -24.3616  -36.8896   22.2027 H   0  0  0  0  0  0
  -23.7213  -37.6416   23.6630 H   0  0  0  0  0  0
  -26.1123  -31.4873   20.5837 H   0  0  0  0  0  0
  -26.8654  -30.8212   21.9936 H   0  0  0  0  0  0
  -28.1063  -28.8998   21.2577 H   0  0  0  0  0  0
  -26.0024  -25.8302   19.0846 H   0  0  0  0  0  0
  -24.0077  -27.2544   19.0158 H   0  0  0  0  0  0
  -23.8026  -30.5529   19.3957 H   0  0  0  0  0  0
  -22.7812  -29.2270   19.8214 H   0  0  0  0  0  0
  -25.1297  -36.1961   25.0817 H   0  0  0  0  0  0
  -21.0025  -28.3220   24.1368 H   0  0  0  0  0  0
  -20.5691  -26.2202   23.3603 H   0  0  0  0  0  0
  -21.6644  -26.7349   22.1173 H   0  0  0  0  0  0
  -19.6913  -25.6301   21.1211 H   0  0  0  0  0  0
  -19.6788  -27.3175   20.6775 H   0  0  0  0  0  0
  -17.4220  -26.6686   21.3988 H   0  0  0  0  0  0
  -18.0349  -26.0122   22.9015 H   0  0  0  0  0  0
  -19.7963  -30.7325   24.2157 H   0  0  0  0  0  0
  -17.5024  -31.6253   24.5181 H   0  0  0  0  0  0
  -15.5360  -30.2948   23.7750 H   0  0  0  0  0  0
  -15.8672  -28.0841   22.7014 H   0  0  0  0  0  0
  -24.6122  -30.6826   25.7850 H   0  0  0  0  0  0
  -24.8747  -32.2829   26.4676 H   0  0  0  0  0  0
  -25.8195  -30.9116   27.0351 H   0  0  0  0  0  0
  -26.2970  -29.6788   24.1154 H   0  0  0  0  0  0
  -27.4110  -29.7234   25.4589 H   0  0  0  0  0  0
  -27.8802  -30.4356   23.9380 H   0  0  0  0  0  0
  -27.3001  -33.3617   26.1961 H   0  0  0  0  0  0
  -28.4109  -32.6585   25.0368 H   0  0  0  0  0  0
  -28.0702  -31.8330   26.5463 H   0  0  0  0  0  0
  -28.2569  -38.0097   24.7548 H   0  0  0  0  0  0
  -28.1115  -36.2629   24.6275 H   0  0  0  0  0  0
  -27.2263  -37.1394   25.8852 H   0  0  0  0  0  0
  -20.9373  -29.8917   21.7018 H   0  0  0  0  0  0
  -26.0183  -38.2838   24.1527 H   0  0  0  0  0  0
  -27.3796  -20.7549   20.5388 H   0  0  0  0  0  0
  -28.9070  -18.5323   18.6342 H   0  0  0  0  0  0
  -30.5746  -18.3452   19.1755 H   0  0  0  0  0  0
  -29.9956  -16.0779   18.5043 H   0  0  0  0  0  0
  -28.3733  -16.2232   19.1646 H   0  0  0  0  0  0
  -28.0988  -18.2556   20.8712 H   0  0  0  0  0  0
  -30.8463  -17.3951   21.8743 H   0  0  0  0  0  0
  -31.3202  -23.8560   21.2929 H   0  0  0  0  0  0
  -32.3812  -22.5898   21.8710 H   0  0  0  0  0  0
  -31.2023  -23.3058   22.9411 H   0  0  0  0  0  0
  -28.0159  -16.4237   22.5605 H   0  0  0  0  0  0
  -28.8135  -17.6989   23.4883 H   0  0  0  0  0  0
  -29.4770  -16.0790   23.4579 H   0  0  0  0  0  0
  -27.8414  -23.6141   23.2889 H   0  0  0  0  0  0
  -27.6862  -25.2365   22.6546 H   0  0  0  0  0  0
  -29.2808  -24.5300   22.8381 H   0  0  0  0  0  0
  -28.0928  -24.7028   19.0722 H   0  0  0  0  0  0
  -29.5879  -24.7970   19.8902 H   0  0  0  0  0  0
  -27.1024  -23.5761   20.9396 H   0  0  0  0  0  0
  1 25  1  0  0  0
  1 30  2  0  0  0
  1 85  1  0  0  0
  2  3  1  0  0  0
  2 25  1  0  0  0
  2 86  1  0  0  0
  2 87  1  0  0  0
  3  4  1  0  0  0
  3 88  1  0  0  0
  3 89  1  0  0  0
  4  5  1  0  0  0
  4 90  1  0  0  0
  4 91  1  0  0  0
  5  6  1  0  0  0
  5 26  1  0  0  0
  5 92  1  0  0  0
  6 25  1  0  0  0
  6 93  1  0  0  0
  6 94  1  0  0  0
  7  8  2  0  0  0
  7 26  1  0  0  0
  7 29  1  0  0  0
  8  9  1  0  0  0
  8 22  1  0  0  0
  9 10  1  0  0  0
  9 27  2  0  0  0
 10 11  2  0  0  0
 10 15  1  0  0  0
 11 12  1  0  0  0
 11 95  1  0  0  0
 12 13  2  0  0  0
 12 96  1  0  0  0
 13 14  1  0  0  0
 13 31  1  0  0  0
 14 15  2  0  0  0
 14 97  1  0  0  0
 15 98  1  0  0  0
 16 17  2  0  0  0
 16 21  1  0  0  0
 16 31  1  0  0  0
 17 18  1  0  0  0
 17 99  1  0  0  0
 18 19  2  0  0  0
 18100  1  0  0  0
 19 20  1  0  0  0
 19 24  1  0  0  0
 20 21  2  0  0  0
 20101  1  0  0  0
 21 23  1  0  0  0
 22 28  1  0  0  0
 22 32  2  0  0  0
 26 27  1  0  0  0
 28102  1  0  0  0
 28103  1  0  0  0
 29104  1  0  0  0
 29105  1  0  0  0
 33 34  1  0  0  0
 33 66  1  0  0  0
 33 70  2  0  0  0
 34 36  1  0  0  0
 34 59  1  0  0  0
 34106  1  0  0  0
 35 44  2  0  0  0
 35 45  1  0  0  0
 35 68  1  0  0  0
 36 56  1  0  0  0
 36107  1  0  0  0
 37 39  1  0  0  0
 37 47  1  0  0  0
 37 66  1  0  0  0
 37108  1  0  0  0
 38 43  2  0  0  0
 38 46  1  0  0  0
 38 47  1  0  0  0
 39 64  1  0  0  0
 39 67  2  0  0  0
 40 52  1  0  0  0
 40 53  2  0  0  0
 40 58  1  0  0  0
 41109  1  0  0  0
 41110  1  0  0  0
 41111  1  0  0  0
 41 48  1  0  0  0
 42 43  1  0  0  0
 42 66  1  0  0  0
 42112  1  0  0  0
 42113  1  0  0  0
 43 44  1  0  0  0
 44114  1  0  0  0
 45 46  2  0  0  0
 45115  1  0  0  0
 46116  1  0  0  0
 47117  1  0  0  0
 47118  1  0  0  0
 48 56  1  0  0  0
 48 65  1  0  0  0
 48119  1  0  0  0
 49 50  1  0  0  0
 49 53  1  0  0  0
 49 64  1  0  0  0
 49120  1  0  0  0
 50 51  1  0  0  0
 50121  1  0  0  0
 50122  1  0  0  0
 51 52  1  0  0  0
 51123  1  0  0  0
 51124  1  0  0  0
 52125  1  0  0  0
 52126  1  0  0  0
 53 54  1  0  0  0
 54 55  2  0  0  0
 54127  1  0  0  0
 55 57  1  0  0  0
 55128  1  0  0  0
 56 69  2  0  0  0
 57 58  2  0  0  0
 57129  1  0  0  0
 58130  1  0  0  0
 59 60  1  0  0  0
 59 61  1  0  0  0
 59 62  1  0  0  0
 60131  1  0  0  0
 60132  1  0  0  0
 60133  1  0  0  0
 61134  1  0  0  0
 61135  1  0  0  0
 61136  1  0  0  0
 62137  1  0  0  0
 62138  1  0  0  0
 62139  1  0  0  0
 63 65  1  0  0  0
 63140  1  0  0  0
 63141  1  0  0  0
 63142  1  0  0  0
 64143  1  0  0  0
 65144  1  0  0  0
 68 81  1  0  0  0
 71 72  2  0  0  0
 71 84  1  0  0  0
 71145  1  0  0  0
 72 73  1  0  0  0
 72 82  1  0  0  0
 73 78  1  0  0  0
 73 83  2  0  0  0
 74 75  1  0  0  0
 74 76  1  0  0  0
 74146  1  0  0  0
 74147  1  0  0  0
 75 85  1  0  0  0
 75148  1  0  0  0
 75149  1  0  0  0
 76 77  1  0  0  0
 76 84  1  0  0  0
 76150  1  0  0  0
 77 79  1  0  0  0
 77 85  1  0  0  0
 77151  1  0  0  0
 78152  1  0  0  0
 78153  1  0  0  0
 78154  1  0  0  0
 79155  1  0  0  0
 79156  1  0  0  0
 79157  1  0  0  0
 80158  1  0  0  0
 80159  1  0  0  0
 80160  1  0  0  0
 80 82  1  0  0  0
 81 82  1  0  0  0
 81161  1  0  0  0
 81162  1  0  0  0
 82163  1  0  0  0
 83 84  1  0  0  0
M  ISO  4   1 100  68 101  81 101  85 100
M  END
> <chiral flag>
0

> <version>
0

> <s_m_source_file>
/data/baiqing/PycharmProjects/Reinvent-master-3.2/result/LINK_invent/BTK/process_docking_weight1_custom_sum_contain_oxygen_bond_distance_aromatic_linkinvent_7_9_3/rearranged_h_0172.sdf

> <i_m_source_file_index>
10

> <r_mmod_Potential_Energy-OPLS-2005>
502.294860839844

> <r_mmod_Stretch_Energy-OPLS-2005>
159.611099243164

> <r_mmod_Bend_Energy-OPLS-2005>
260.222900390625

> <r_mmod_Torsional_Energy-OPLS-2005>
363.383117675781

> <r_mmod_Improper_Torsional_Energy-OPLS-2005>
14.0866088867188

> <r_mmod_Van_der_Waal_Energy-OPLS-2005>
92.5670928955078

> <r_mmod_Electrostatic_Energy-OPLS-2005>
-288.953521728516

> <r_mmod_Solvation_Energy-OPLS-2005>
-208.654907226562

> <b_mmod_Minimization_Converged-OPLS-2005>
0

> <r_mmod_RMS_Derivative-OPLS-2005>
12.5301885604858

$$$$
10
                    3D
 Structure written by MMmdl.
163172  0  0  1  0            999 V2000
  -30.6023  -14.9344   20.4197 C   0  0  0  0  0  0
  -30.4212  -12.5828   19.4965 C   0  0  0  0  0  0
  -29.5102  -12.5206   18.2523 C   0  0  0  0  0  0
  -28.0464  -12.3110   18.6767 C   0  0  0  0  0  0
  -27.6233  -13.2567   19.8321 C   0  0  2  0  0  0
  -28.6676  -13.3183   20.9671 C   0  0  0  0  0  0
  -25.2437  -13.8248   20.5740 C   0  0  0  0  0  0
  -24.1757  -13.0457   20.9229 C   0  0  0  0  0  0
  -24.6381  -11.6945   20.8751 C   0  0  0  0  0  0
  -23.9072  -10.4310   21.0401 C   0  0  0  0  0  0
  -24.3616   -9.4227   21.9183 C   0  0  0  0  0  0
  -23.6293   -8.2260   22.0755 C   0  0  0  0  0  0
  -22.4278   -8.0288   21.3549 C   0  0  0  0  0  0
  -21.9917   -9.0258   20.4643 C   0  0  0  0  0  0
  -22.7241  -10.2142   20.3051 C   0  0  0  0  0  0
  -21.6855   -6.0741   22.5274 C   0  0  0  0  0  0
  -21.4014   -6.5639   23.8208 C   0  0  0  0  0  0
  -21.3660   -5.6788   24.9168 C   0  0  0  0  0  0
  -21.6045   -4.3055   24.7220 C   0  0  0  0  0  0
  -21.8817   -3.8151   23.4336 C   0  0  0  0  0  0
  -21.9195   -4.6968   22.3396 C   0  0  0  0  0  0
  -22.7780  -13.5215   21.1882 C   0  0  0  0  0  0
  -22.1662   -4.2154   21.0974 F   0  0  0  0  0  0
  -21.5629   -3.4537   25.7735 F   0  0  0  0  0  0
  -29.9389  -13.7097   20.3492 N   0  0  0  0  0  0
  -26.2859  -12.9494   20.3254 N   0  0  0  0  0  0
  -25.9319  -11.6616   20.5754 N   0  0  0  0  0  0
  -22.0438  -12.8193   22.0435 N   0  0  0  0  0  0
  -25.4127  -15.1977   20.4186 N   0  0  0  0  0  0
  -31.8126  -14.9018   20.1670 O   0  0  0  0  0  0
  -21.6643   -6.8886   21.4240 O   0  0  0  0  0  0
  -22.3464  -14.5524   20.6738 O   0  0  0  0  0  0
  -24.6438  -31.8456   23.1887 C   0  0  0  0  0  0
  -25.9213  -32.4700   23.8280 C   0  0  1  0  0  0
  -27.2091  -27.1370   20.1435 C   0  0  0  0  0  0
  -25.5961  -33.8506   24.2200 N   0  0  0  0  0  0
  -23.4467  -30.4670   21.5349 C   0  0  2  0  0  0
  -24.8932  -28.8953   20.1095 C   0  0  0  0  0  0
  -22.7575  -29.4558   22.4848 C   0  0  0  0  0  0
  -18.0310  -28.1397   22.8479 C   0  0  0  0  0  0
  -24.1476  -36.7240   23.2645 C   0  0  0  0  0  0
  -26.0038  -30.7176   21.3885 C   0  0  0  0  0  0
  -26.0727  -29.3304   20.7276 C   0  0  0  0  0  0
  -27.2326  -28.4680   20.7264 C   0  0  0  0  0  0
  -26.0022  -26.8038   19.4896 C   0  0  0  0  0  0
  -24.8711  -27.6458   19.4750 C   0  0  0  0  0  0
  -23.6719  -29.7995   20.1531 C   0  0  0  0  0  0
  -25.4112  -36.3033   24.0322 C   0  0  1  0  0  0
  -20.5930  -28.3726   23.1216 C   0  0  2  0  0  0
  -20.6788  -26.9423   22.5393 C   0  0  0  0  0  0
  -19.5755  -26.6381   21.5209 C   0  0  0  0  0  0
  -18.1941  -26.7936   22.1623 C   0  0  0  0  0  0
  -19.1570  -28.8877   23.2839 C   0  0  0  0  0  0
  -18.9490  -30.1477   23.8857 C   0  0  0  0  0  0
  -17.6487  -30.6590   24.0563 C   0  0  0  0  0  0
  -25.9070  -34.9410   23.5067 C   0  0  0  0  0  0
  -16.5375  -29.9088   23.6340 C   0  0  0  0  0  0
  -16.7298  -28.6509   23.0355 C   0  0  0  0  0  0
  -26.4539  -31.6570   25.0721 C   0  0  0  0  0  0
  -25.3712  -31.3737   26.1401 C   0  0  0  0  0  0
  -27.0448  -30.2982   24.6308 C   0  0  0  0  0  0
  -27.6065  -32.4358   25.7497 C   0  0  0  0  0  0
  -27.5565  -37.1772   24.8474 C   0  0  0  0  0  0
  -21.4268  -29.3054   22.3590 N   0  0  0  0  0  0
  -26.4273  -37.3750   23.9417 N   0  0  0  0  0  0
  -24.7181  -31.0310   22.0928 N   0  0  0  0  0  0
  -23.4217  -28.8097   23.2996 O   0  0  0  0  0  0
  -28.2562  -26.1483   20.2095 O   0  0  0  0  0  0
  -26.5654  -34.8908   22.4646 O   0  0  0  0  0  0
  -23.5556  -32.1345   23.7094 O   0  0  0  0  0  0
  -30.3869  -23.6539   20.4934 C   0  0  0  0  0  0
  -29.0148  -23.3767   20.2808 C   0  0  0  0  0  0
  -30.9613  -21.3742   20.5570 C   0  0  0  0  0  0
  -29.6137  -20.9341   20.3787 C   0  0  0  0  0  0
  -29.6127  -18.6426   19.1622 C   0  0  0  0  0  0
  -30.4274  -17.2528   19.3478 C   0  0  0  0  0  0
  -29.2065  -16.9829   21.3710 C   0  0  0  0  0  0
  -29.5359  -18.5739   21.5462 C   0  0  2  0  0  0
  -30.9282  -25.0674   20.5901 C   0  0  0  0  0  0
  -32.1462  -20.4338   20.6923 C   0  0  0  0  0  0
  -28.8120  -19.1365   22.7783 C   0  0  0  0  0  0
  -27.9528  -24.6236   20.0675 C   0  0  0  0  0  0
  -31.3208  -22.6813   20.6206 N   0  0  0  0  0  0
  -28.6613  -21.9869   20.2309 N   0  0  0  0  0  0
  -29.2971  -19.4716   20.3647 N   0  0  0  0  0  0
  -29.9332  -16.1981   20.3072 N   0  0  0  0  0  0
  -31.4583  -12.7069   19.1823 H   0  0  0  0  0  0
  -30.3913  -11.6424   20.0486 H   0  0  0  0  0  0
  -29.8279  -11.7162   17.5879 H   0  0  0  0  0  0
  -29.6006  -13.4463   17.6819 H   0  0  0  0  0  0
  -27.9453  -11.2734   18.9969 H   0  0  0  0  0  0
  -27.3810  -12.4323   17.8213 H   0  0  0  0  0  0
  -27.5772  -14.2521   19.3875 H   0  0  0  0  0  0
  -28.7538  -12.3610   21.4824 H   0  0  0  0  0  0
  -28.3711  -14.0546   21.7157 H   0  0  0  0  0  0
  -25.2758   -9.5716   22.4755 H   0  0  0  0  0  0
  -24.0005   -7.4658   22.7476 H   0  0  0  0  0  0
  -21.0853   -8.8770   19.8943 H   0  0  0  0  0  0
  -22.3690  -10.9674   19.6157 H   0  0  0  0  0  0
  -21.2000   -7.6149   23.9714 H   0  0  0  0  0  0
  -21.1482   -6.0520   25.9071 H   0  0  0  0  0  0
  -22.0594   -2.7611   23.2837 H   0  0  0  0  0  0
  -22.4059  -11.9850   22.4809 H   0  0  0  0  0  0
  -21.1058  -13.1218   22.2648 H   0  0  0  0  0  0
  -24.6512  -15.8564   20.5396 H   0  0  0  0  0  0
  -26.2698  -15.6371   20.1077 H   0  0  0  0  0  0
  -26.7273  -32.5300   23.1005 H   0  0  0  0  0  0
  -25.0112  -33.9618   25.0352 H   0  0  0  0  0  0
  -22.7496  -31.2932   21.3815 H   0  0  0  0  0  0
  -23.3757  -35.9551   23.3301 H   0  0  0  0  0  0
  -24.3549  -36.8888   22.2060 H   0  0  0  0  0  0
  -23.7220  -37.6427   23.6692 H   0  0  0  0  0  0
  -26.1617  -31.4715   20.6163 H   0  0  0  0  0  0
  -26.8740  -30.7657   22.0314 H   0  0  0  0  0  0
  -28.1323  -28.7951   21.2290 H   0  0  0  0  0  0
  -25.8918  -25.8514   18.9949 H   0  0  0  0  0  0
  -23.9709  -27.3089   18.9791 H   0  0  0  0  0  0
  -23.8096  -30.5761   19.3993 H   0  0  0  0  0  0
  -22.7852  -29.2447   19.8407 H   0  0  0  0  0  0
  -25.1296  -36.1865   25.0814 H   0  0  0  0  0  0
  -21.0021  -28.3326   24.1339 H   0  0  0  0  0  0
  -20.5683  -26.2344   23.3619 H   0  0  0  0  0  0
  -21.6650  -26.7423   22.1186 H   0  0  0  0  0  0
  -19.6904  -25.6287   21.1253 H   0  0  0  0  0  0
  -19.6684  -27.3176   20.6725 H   0  0  0  0  0  0
  -17.4207  -26.6695   21.4025 H   0  0  0  0  0  0
  -18.0327  -26.0082   22.9020 H   0  0  0  0  0  0
  -19.7969  -30.7311   24.2196 H   0  0  0  0  0  0
  -17.5046  -31.6266   24.5176 H   0  0  0  0  0  0
  -15.5376  -30.2981   23.7684 H   0  0  0  0  0  0
  -15.8700  -28.0829   22.7068 H   0  0  0  0  0  0
  -24.5896  -30.7090   25.7698 H   0  0  0  0  0  0
  -24.8878  -32.2904   26.4788 H   0  0  0  0  0  0
  -25.7976  -30.8925   27.0212 H   0  0  0  0  0  0
  -26.3096  -29.6663   24.1312 H   0  0  0  0  0  0
  -27.4094  -29.7316   25.4890 H   0  0  0  0  0  0
  -27.8976  -30.4255   23.9633 H   0  0  0  0  0  0
  -27.2668  -33.3698   26.1981 H   0  0  0  0  0  0
  -28.3905  -32.6863   25.0338 H   0  0  0  0  0  0
  -28.0700  -31.8551   26.5484 H   0  0  0  0  0  0
  -28.2579  -38.0072   24.7537 H   0  0  0  0  0  0
  -28.1072  -36.2608   24.6297 H   0  0  0  0  0  0
  -27.2275  -37.1412   25.8874 H   0  0  0  0  0  0
  -20.9472  -29.8800   21.6797 H   0  0  0  0  0  0
  -26.0145  -38.2814   24.1450 H   0  0  0  0  0  0
  -28.6580  -18.4088   18.6886 H   0  0  0  0  0  0
  -30.1424  -19.2632   18.4374 H   0  0  0  0  0  0
  -31.4596  -17.4782   19.6160 H   0  0  0  0  0  0
  -30.4935  -16.7789   18.3667 H   0  0  0  0  0  0
  -28.1385  -16.8582   21.1902 H   0  0  0  0  0  0
  -29.3987  -16.4866   22.3235 H   0  0  0  0  0  0
  -30.5987  -18.6230   21.7748 H   0  0  0  0  0  0
  -30.7672  -25.6023   19.6544 H   0  0  0  0  0  0
  -31.9980  -25.0766   20.7992 H   0  0  0  0  0  0
  -30.4359  -25.6122   21.3957 H   0  0  0  0  0  0
  -32.2281  -20.0664   21.7143 H   0  0  0  0  0  0
  -33.0811  -20.9418   20.4538 H   0  0  0  0  0  0
  -32.0690  -19.5909   20.0126 H   0  0  0  0  0  0
  -27.7302  -19.1257   22.6424 H   0  0  0  0  0  0
  -29.1116  -20.1638   22.9910 H   0  0  0  0  0  0
  -29.0393  -18.5504   23.6689 H   0  0  0  0  0  0
  -27.1080  -24.4101   20.7230 H   0  0  0  0  0  0
  -27.5820  -24.4775   19.0537 H   0  0  0  0  0  0
  1 25  1  0  0  0
  1 30  2  0  0  0
  1 86  1  0  0  0
  2  3  1  0  0  0
  2 25  1  0  0  0
  2 87  1  0  0  0
  2 88  1  0  0  0
  3  4  1  0  0  0
  3 89  1  0  0  0
  3 90  1  0  0  0
  4  5  1  0  0  0
  4 91  1  0  0  0
  4 92  1  0  0  0
  5  6  1  0  0  0
  5 26  1  0  0  0
  5 93  1  0  0  0
  6 25  1  0  0  0
  6 94  1  0  0  0
  6 95  1  0  0  0
  7  8  2  0  0  0
  7 26  1  0  0  0
  7 29  1  0  0  0
  8  9  1  0  0  0
  8 22  1  0  0  0
  9 10  1  0  0  0
  9 27  2  0  0  0
 10 11  2  0  0  0
 10 15  1  0  0  0
 11 12  1  0  0  0
 11 96  1  0  0  0
 12 13  2  0  0  0
 12 97  1  0  0  0
 13 14  1  0  0  0
 13 31  1  0  0  0
 14 15  2  0  0  0
 14 98  1  0  0  0
 15 99  1  0  0  0
 16 17  2  0  0  0
 16 21  1  0  0  0
 16 31  1  0  0  0
 17 18  1  0  0  0
 17100  1  0  0  0
 18 19  2  0  0  0
 18101  1  0  0  0
 19 20  1  0  0  0
 19 24  1  0  0  0
 20 21  2  0  0  0
 20102  1  0  0  0
 21 23  1  0  0  0
 22 28  1  0  0  0
 22 32  2  0  0  0
 26 27  1  0  0  0
 28103  1  0  0  0
 28104  1  0  0  0
 29105  1  0  0  0
 29106  1  0  0  0
 33 34  1  0  0  0
 33 66  1  0  0  0
 33 70  2  0  0  0
 34 36  1  0  0  0
 34 59  1  0  0  0
 34107  1  0  0  0
 35 44  2  0  0  0
 35 45  1  0  0  0
 35 68  1  0  0  0
 36 56  1  0  0  0
 36108  1  0  0  0
 37 39  1  0  0  0
 37 47  1  0  0  0
 37 66  1  0  0  0
 37109  1  0  0  0
 38 43  2  0  0  0
 38 46  1  0  0  0
 38 47  1  0  0  0
 39 64  1  0  0  0
 39 67  2  0  0  0
 40 52  1  0  0  0
 40 53  2  0  0  0
 40 58  1  0  0  0
 41110  1  0  0  0
 41111  1  0  0  0
 41112  1  0  0  0
 41 48  1  0  0  0
 42 43  1  0  0  0
 42 66  1  0  0  0
 42113  1  0  0  0
 42114  1  0  0  0
 43 44  1  0  0  0
 44115  1  0  0  0
 45 46  2  0  0  0
 45116  1  0  0  0
 46117  1  0  0  0
 47118  1  0  0  0
 47119  1  0  0  0
 48 56  1  0  0  0
 48 65  1  0  0  0
 48120  1  0  0  0
 49 50  1  0  0  0
 49 53  1  0  0  0
 49 64  1  0  0  0
 49121  1  0  0  0
 50 51  1  0  0  0
 50122  1  0  0  0
 50123  1  0  0  0
 51 52  1  0  0  0
 51124  1  0  0  0
 51125  1  0  0  0
 52126  1  0  0  0
 52127  1  0  0  0
 53 54  1  0  0  0
 54 55  2  0  0  0
 54128  1  0  0  0
 55 57  1  0  0  0
 55129  1  0  0  0
 56 69  2  0  0  0
 57 58  2  0  0  0
 57130  1  0  0  0
 58131  1  0  0  0
 59 60  1  0  0  0
 59 61  1  0  0  0
 59 62  1  0  0  0
 60132  1  0  0  0
 60133  1  0  0  0
 60134  1  0  0  0
 61135  1  0  0  0
 61136  1  0  0  0
 61137  1  0  0  0
 62138  1  0  0  0
 62139  1  0  0  0
 62140  1  0  0  0
 63 65  1  0  0  0
 63141  1  0  0  0
 63142  1  0  0  0
 63143  1  0  0  0
 64144  1  0  0  0
 65145  1  0  0  0
 68 82  1  0  0  0
 71 72  2  0  0  0
 71 79  1  0  0  0
 71 83  1  0  0  0
 72 82  1  0  0  0
 72 84  1  0  0  0
 73 74  1  0  0  0
 73 80  1  0  0  0
 73 83  2  0  0  0
 74 84  2  0  0  0
 74 85  1  0  0  0
 75 76  1  0  0  0
 75 85  1  0  0  0
 75146  1  0  0  0
 75147  1  0  0  0
 76 86  1  0  0  0
 76148  1  0  0  0
 76149  1  0  0  0
 77 78  1  0  0  0
 77 86  1  0  0  0
 77150  1  0  0  0
 77151  1  0  0  0
 78 81  1  0  0  0
 78 85  1  0  0  0
 78152  1  0  0  0
 79153  1  0  0  0
 79154  1  0  0  0
 79155  1  0  0  0
 80156  1  0  0  0
 80157  1  0  0  0
 80158  1  0  0  0
 81159  1  0  0  0
 81160  1  0  0  0
 81161  1  0  0  0
 82162  1  0  0  0
 82163  1  0  0  0
M  ISO  4   1 100  68 101  82 101  86 100
M  END
> <chiral flag>
0

> <version>
0

> <s_m_source_file>
/data/baiqing/PycharmProjects/Reinvent-master-3.2/result/LINK_invent/BTK/process_docking_weight1_custom_sum_contain_oxygen_bond_distance_aromatic_linkinvent_7_9_3/rearranged_h_0172.sdf

> <i_m_source_file_index>
11

> <r_mmod_Potential_Energy-OPLS-2005>
680.412353515625

> <r_mmod_Stretch_Energy-OPLS-2005>
238.193115234375

> <r_mmod_Bend_Energy-OPLS-2005>
260.307861328125

> <r_mmod_Torsional_Energy-OPLS-2005>
374.083221435547

> <r_mmod_Improper_Torsional_Energy-OPLS-2005>
20.0256690979004

> <r_mmod_Van_der_Waal_Energy-OPLS-2005>
146.342819213867

> <r_mmod_Electrostatic_Energy-OPLS-2005>
-327.310607910156

> <r_mmod_Solvation_Energy-OPLS-2005>
-219.542922973633

> <b_mmod_Minimization_Converged-OPLS-2005>
0

> <r_mmod_RMS_Derivative-OPLS-2005>
1.38005208969116

$$$$
11
                    3D
 Structure written by MMmdl.
161170  0  0  1  0            999 V2000
  -30.6019  -14.8781   20.4805 C   0  0  0  0  0  0
  -30.4434  -12.5591   19.4898 C   0  0  0  0  0  0
  -29.5185  -12.5389   18.2517 C   0  0  0  0  0  0
  -28.0521  -12.3216   18.6705 C   0  0  0  0  0  0
  -27.6396  -13.2356   19.8541 C   0  0  2  0  0  0
  -28.6887  -13.1997   20.9883 C   0  0  0  0  0  0
  -25.2455  -13.8169   20.5646 C   0  0  0  0  0  0
  -24.1782  -13.0406   20.9214 C   0  0  0  0  0  0
  -24.6410  -11.6895   20.8779 C   0  0  0  0  0  0
  -23.9096  -10.4272   21.0426 C   0  0  0  0  0  0
  -24.3643   -9.4187   21.9207 C   0  0  0  0  0  0
  -23.6305   -8.2227   22.0766 C   0  0  0  0  0  0
  -22.4288   -8.0276   21.3554 C   0  0  0  0  0  0
  -21.9938   -9.0250   20.4655 C   0  0  0  0  0  0
  -22.7272  -10.2120   20.3065 C   0  0  0  0  0  0
  -21.6854   -6.0737   22.5277 C   0  0  0  0  0  0
  -21.4007   -6.5646   23.8209 C   0  0  0  0  0  0
  -21.3654   -5.6798   24.9173 C   0  0  0  0  0  0
  -21.6040   -4.3059   24.7226 C   0  0  0  0  0  0
  -21.8815   -3.8151   23.4347 C   0  0  0  0  0  0
  -21.9191   -4.6966   22.3400 C   0  0  0  0  0  0
  -22.7800  -13.5191   21.1852 C   0  0  0  0  0  0
  -22.1656   -4.2150   21.0976 F   0  0  0  0  0  0
  -21.5636   -3.4545   25.7743 F   0  0  0  0  0  0
  -29.9637  -13.6404   20.4001 N   0  0  0  0  0  0
  -26.2935  -12.9397   20.3313 N   0  0  0  0  0  0
  -25.9351  -11.6550   20.5816 N   0  0  0  0  0  0
  -22.0459  -12.8181   22.0420 N   0  0  0  0  0  0
  -25.4011  -15.1881   20.3911 N   0  0  0  0  0  0
  -31.7891  -14.9153   20.1369 O   0  0  0  0  0  0
  -21.6646   -6.8872   21.4236 O   0  0  0  0  0  0
  -22.3473  -14.5494   20.6696 O   0  0  0  0  0  0
  -24.6431  -31.8487   23.1929 C   0  0  0  0  0  0
  -25.9206  -32.4722   23.8301 C   0  0  1  0  0  0
  -27.2080  -27.1614   20.1372 C   0  0  0  0  0  0
  -25.5969  -33.8534   24.2215 N   0  0  0  0  0  0
  -23.4442  -30.4731   21.5406 C   0  0  2  0  0  0
  -24.8918  -28.9171   20.1097 C   0  0  0  0  0  0
  -22.7568  -29.4582   22.4880 C   0  0  0  0  0  0
  -18.0300  -28.1425   22.8479 C   0  0  0  0  0  0
  -24.1495  -36.7252   23.2646 C   0  0  0  0  0  0
  -26.0030  -30.7290   21.3929 C   0  0  0  0  0  0
  -26.0729  -29.3469   20.7284 C   0  0  0  0  0  0
  -27.2331  -28.4863   20.7283 C   0  0  0  0  0  0
  -25.9984  -26.8438   19.4706 C   0  0  0  0  0  0
  -24.8675  -27.6775   19.4654 C   0  0  0  0  0  0
  -23.6681  -29.8145   20.1564 C   0  0  0  0  0  0
  -25.4127  -36.3046   24.0317 C   0  0  1  0  0  0
  -20.5920  -28.3741   23.1240 C   0  0  2  0  0  0
  -20.6797  -26.9445   22.5403 C   0  0  0  0  0  0
  -19.5755  -26.6389   21.5230 C   0  0  0  0  0  0
  -18.1932  -26.7963   22.1627 C   0  0  0  0  0  0
  -19.1559  -28.8899   23.2860 C   0  0  0  0  0  0
  -18.9480  -30.1500   23.8879 C   0  0  0  0  0  0
  -17.6471  -30.6614   24.0576 C   0  0  0  0  0  0
  -25.9077  -34.9425   23.5064 C   0  0  0  0  0  0
  -16.5359  -29.9102   23.6359 C   0  0  0  0  0  0
  -16.7282  -28.6534   23.0356 C   0  0  0  0  0  0
  -26.4521  -31.6588   25.0738 C   0  0  0  0  0  0
  -25.3688  -31.3759   26.1410 C   0  0  0  0  0  0
  -27.0409  -30.2999   24.6307 C   0  0  0  0  0  0
  -27.6053  -32.4365   25.7510 C   0  0  0  0  0  0
  -27.5577  -37.1787   24.8469 C   0  0  0  0  0  0
  -21.4265  -29.3083   22.3631 N   0  0  0  0  0  0
  -26.4291  -37.3756   23.9406 N   0  0  0  0  0  0
  -24.7171  -31.0362   22.0970 N   0  0  0  0  0  0
  -23.4221  -28.8106   23.3009 O   0  0  0  0  0  0
  -28.2356  -26.1508   20.2136 O   0  0  0  0  0  0
  -26.5656  -34.8912   22.4637 O   0  0  0  0  0  0
  -23.5544  -32.1367   23.7140 O   0  0  0  0  0  0
  -29.2378  -21.0157   19.1855 C   0  0  0  0  0  0
  -28.9090  -21.0699   21.5191 C   0  0  0  0  0  0
  -29.1764  -20.2380   20.3828 C   0  0  0  0  0  0
  -28.9630  -22.4378   19.1075 C   0  0  0  0  0  0
  -28.5852  -23.2492   20.2383 C   0  0  0  0  0  0
  -28.6163  -22.5014   21.4672 C   0  0  0  0  0  0
  -28.4627  -17.9155   21.5879 C   0  0  0  0  0  0
  -28.7122  -16.3750   21.4607 C   0  0  0  0  0  0
  -30.3452  -17.5357   20.2362 C   0  0  0  0  0  0
  -29.1366  -18.5945   20.3926 C   0  0  2  0  0  0
  -28.9823  -23.0616   17.7225 C   0  0  0  0  0  0
  -28.4135  -22.6003   23.8689 C   0  0  0  0  0  0
  -27.7867  -24.6783   20.0799 C   0  0  0  0  0  0
  -29.9012  -16.1117   20.6296 N   0  0  0  0  0  0
  -28.2631  -23.2167   22.5942 O   0  0  0  0  0  0
  -31.4769  -12.7072   19.1728 H   0  0  0  0  0  0
  -30.4356  -11.5927   19.9973 H   0  0  0  0  0  0
  -29.8332  -11.7610   17.5557 H   0  0  0  0  0  0
  -29.6072  -13.4837   17.7140 H   0  0  0  0  0  0
  -27.9448  -11.2761   18.9616 H   0  0  0  0  0  0
  -27.3841  -12.4690   17.8212 H   0  0  0  0  0  0
  -27.6196  -14.2464   19.4491 H   0  0  0  0  0  0
  -28.7789  -12.1917   21.3954 H   0  0  0  0  0  0
  -28.3900  -13.8163   21.8323 H   0  0  0  0  0  0
  -25.2792   -9.5658   22.4783 H   0  0  0  0  0  0
  -24.0018   -7.4614   22.7481 H   0  0  0  0  0  0
  -21.0878   -8.8769   19.8946 H   0  0  0  0  0  0
  -22.3759  -10.9659   19.6163 H   0  0  0  0  0  0
  -21.1987   -7.6149   23.9713 H   0  0  0  0  0  0
  -21.1475   -6.0530   25.9075 H   0  0  0  0  0  0
  -22.0595   -2.7613   23.2851 H   0  0  0  0  0  0
  -22.4090  -11.9843   22.4799 H   0  0  0  0  0  0
  -21.1055  -13.1153   22.2592 H   0  0  0  0  0  0
  -24.6236  -15.8324   20.4842 H   0  0  0  0  0  0
  -26.2353  -15.6252   20.0228 H   0  0  0  0  0  0
  -26.7277  -32.5327   23.1039 H   0  0  0  0  0  0
  -25.0145  -33.9675   25.0374 H   0  0  0  0  0  0
  -22.7461  -31.2998   21.3915 H   0  0  0  0  0  0
  -23.3782  -35.9563   23.3290 H   0  0  0  0  0  0
  -24.3592  -36.8897   22.2069 H   0  0  0  0  0  0
  -23.7212  -37.6427   23.6685 H   0  0  0  0  0  0
  -26.1646  -31.4869   20.6251 H   0  0  0  0  0  0
  -26.8723  -30.7699   22.0377 H   0  0  0  0  0  0
  -28.1298  -28.8101   21.2395 H   0  0  0  0  0  0
  -25.8563  -25.9108   18.9517 H   0  0  0  0  0  0
  -23.9701  -27.3422   18.9652 H   0  0  0  0  0  0
  -23.8016  -30.5947   19.4061 H   0  0  0  0  0  0
  -22.7838  -29.2566   19.8416 H   0  0  0  0  0  0
  -25.1316  -36.1894   25.0811 H   0  0  0  0  0  0
  -21.0011  -28.3323   24.1364 H   0  0  0  0  0  0
  -20.5743  -26.2347   23.3627 H   0  0  0  0  0  0
  -21.6648  -26.7485   22.1149 H   0  0  0  0  0  0
  -19.6917  -25.6296   21.1269 H   0  0  0  0  0  0
  -19.6690  -27.3204   20.6776 H   0  0  0  0  0  0
  -17.4208  -26.6749   21.4015 H   0  0  0  0  0  0
  -18.0299  -26.0105   22.9017 H   0  0  0  0  0  0
  -19.7960  -30.7343   24.2209 H   0  0  0  0  0  0
  -17.5024  -31.6288   24.5188 H   0  0  0  0  0  0
  -15.5361  -30.3001   23.7713 H   0  0  0  0  0  0
  -15.8679  -28.0861   22.7069 H   0  0  0  0  0  0
  -24.5887  -30.7101   25.7686 H   0  0  0  0  0  0
  -24.8861  -32.2939   26.4778 H   0  0  0  0  0  0
  -25.7948  -30.8940   27.0219 H   0  0  0  0  0  0
  -26.3040  -29.6706   24.1299 H   0  0  0  0  0  0
  -27.4042  -29.7304   25.4873 H   0  0  0  0  0  0
  -27.8930  -30.4265   23.9627 H   0  0  0  0  0  0
  -27.2659  -33.3717   26.1965 H   0  0  0  0  0  0
  -28.3906  -32.6835   25.0354 H   0  0  0  0  0  0
  -28.0657  -31.8566   26.5515 H   0  0  0  0  0  0
  -28.2573  -38.0107   24.7529 H   0  0  0  0  0  0
  -28.1092  -36.2630   24.6277 H   0  0  0  0  0  0
  -27.2286  -37.1397   25.8872 H   0  0  0  0  0  0
  -20.9481  -29.8828   21.6832 H   0  0  0  0  0  0
  -26.0162  -38.2824   24.1421 H   0  0  0  0  0  0
  -29.4178  -20.4833   18.2606 H   0  0  0  0  0  0
  -28.8427  -20.5522   22.4615 H   0  0  0  0  0  0
  -28.9203  -18.2707   22.5110 H   0  0  0  0  0  0
  -27.3983  -18.1502   21.6454 H   0  0  0  0  0  0
  -27.8494  -15.9188   20.9891 H   0  0  0  0  0  0
  -28.8218  -15.9310   22.4505 H   0  0  0  0  0  0
  -31.1594  -17.8183   20.9044 H   0  0  0  0  0  0
  -30.7487  -17.5475   19.2236 H   0  0  0  0  0  0
  -28.4860  -18.3752   19.5429 H   0  0  0  0  0  0
  -29.6319  -22.5042   17.0474 H   0  0  0  0  0  0
  -29.3532  -24.0861   17.7605 H   0  0  0  0  0  0
  -27.9782  -23.0693   17.2973 H   0  0  0  0  0  0
  -28.1186  -23.3006   24.6505 H   0  0  0  0  0  0
  -29.4531  -22.3236   24.0523 H   0  0  0  0  0  0
  -27.7782  -21.7202   23.9760 H   0  0  0  0  0  0
  -26.9322  -24.5734   20.7502 H   0  0  0  0  0  0
  -27.3684  -24.5846   19.0826 H   0  0  0  0  0  0
  1 25  1  0  0  0
  1 30  2  0  0  0
  1 84  1  0  0  0
  2  3  1  0  0  0
  2 25  1  0  0  0
  2 86  1  0  0  0
  2 87  1  0  0  0
  3  4  1  0  0  0
  3 88  1  0  0  0
  3 89  1  0  0  0
  4  5  1  0  0  0
  4 90  1  0  0  0
  4 91  1  0  0  0
  5  6  1  0  0  0
  5 26  1  0  0  0
  5 92  1  0  0  0
  6 25  1  0  0  0
  6 93  1  0  0  0
  6 94  1  0  0  0
  7  8  2  0  0  0
  7 26  1  0  0  0
  7 29  1  0  0  0
  8  9  1  0  0  0
  8 22  1  0  0  0
  9 10  1  0  0  0
  9 27  2  0  0  0
 10 11  2  0  0  0
 10 15  1  0  0  0
 11 12  1  0  0  0
 11 95  1  0  0  0
 12 13  2  0  0  0
 12 96  1  0  0  0
 13 14  1  0  0  0
 13 31  1  0  0  0
 14 15  2  0  0  0
 14 97  1  0  0  0
 15 98  1  0  0  0
 16 17  2  0  0  0
 16 21  1  0  0  0
 16 31  1  0  0  0
 17 18  1  0  0  0
 17 99  1  0  0  0
 18 19  2  0  0  0
 18100  1  0  0  0
 19 20  1  0  0  0
 19 24  1  0  0  0
 20 21  2  0  0  0
 20101  1  0  0  0
 21 23  1  0  0  0
 22 28  1  0  0  0
 22 32  2  0  0  0
 26 27  1  0  0  0
 28102  1  0  0  0
 28103  1  0  0  0
 29104  1  0  0  0
 29105  1  0  0  0
 33 34  1  0  0  0
 33 66  1  0  0  0
 33 70  2  0  0  0
 34 36  1  0  0  0
 34 59  1  0  0  0
 34106  1  0  0  0
 35 44  2  0  0  0
 35 45  1  0  0  0
 35 68  1  0  0  0
 36 56  1  0  0  0
 36107  1  0  0  0
 37 39  1  0  0  0
 37 47  1  0  0  0
 37 66  1  0  0  0
 37108  1  0  0  0
 38 43  2  0  0  0
 38 46  1  0  0  0
 38 47  1  0  0  0
 39 64  1  0  0  0
 39 67  2  0  0  0
 40 52  1  0  0  0
 40 53  2  0  0  0
 40 58  1  0  0  0
 41109  1  0  0  0
 41110  1  0  0  0
 41111  1  0  0  0
 41 48  1  0  0  0
 42 43  1  0  0  0
 42 66  1  0  0  0
 42112  1  0  0  0
 42113  1  0  0  0
 43 44  1  0  0  0
 44114  1  0  0  0
 45 46  2  0  0  0
 45115  1  0  0  0
 46116  1  0  0  0
 47117  1  0  0  0
 47118  1  0  0  0
 48 56  1  0  0  0
 48 65  1  0  0  0
 48119  1  0  0  0
 49 50  1  0  0  0
 49 53  1  0  0  0
 49 64  1  0  0  0
 49120  1  0  0  0
 50 51  1  0  0  0
 50121  1  0  0  0
 50122  1  0  0  0
 51 52  1  0  0  0
 51123  1  0  0  0
 51124  1  0  0  0
 52125  1  0  0  0
 52126  1  0  0  0
 53 54  1  0  0  0
 54 55  2  0  0  0
 54127  1  0  0  0
 55 57  1  0  0  0
 55128  1  0  0  0
 56 69  2  0  0  0
 57 58  2  0  0  0
 57129  1  0  0  0
 58130  1  0  0  0
 59 60  1  0  0  0
 59 61  1  0  0  0
 59 62  1  0  0  0
 60131  1  0  0  0
 60132  1  0  0  0
 60133  1  0  0  0
 61134  1  0  0  0
 61135  1  0  0  0
 61136  1  0  0  0
 62137  1  0  0  0
 62138  1  0  0  0
 62139  1  0  0  0
 63 65  1  0  0  0
 63140  1  0  0  0
 63141  1  0  0  0
 63142  1  0  0  0
 64143  1  0  0  0
 65144  1  0  0  0
 68 83  1  0  0  0
 71 73  2  0  0  0
 71 74  1  0  0  0
 71145  1  0  0  0
 72 73  1  0  0  0
 72 76  2  0  0  0
 72146  1  0  0  0
 73 80  1  0  0  0
 74 75  2  0  0  0
 74 81  1  0  0  0
 75 76  1  0  0  0
 75 83  1  0  0  0
 76 85  1  0  0  0
 77 78  1  0  0  0
 77 80  1  0  0  0
 77147  1  0  0  0
 77148  1  0  0  0
 78 84  1  0  0  0
 78149  1  0  0  0
 78150  1  0  0  0
 79 80  1  0  0  0
 79 84  1  0  0  0
 79151  1  0  0  0
 79152  1  0  0  0
 80153  1  0  0  0
 81154  1  0  0  0
 81155  1  0  0  0
 81156  1  0  0  0
 82 85  1  0  0  0
 82157  1  0  0  0
 82158  1  0  0  0
 82159  1  0  0  0
 83160  1  0  0  0
 83161  1  0  0  0
M  ISO  4   1 100  68 101  83 101  84 100
M  END
> <chiral flag>
0

> <version>
0

> <s_m_source_file>
/data/baiqing/PycharmProjects/Reinvent-master-3.2/result/LINK_invent/BTK/process_docking_weight1_custom_sum_contain_oxygen_bond_distance_aromatic_linkinvent_7_9_3/rearranged_h_0172.sdf

> <i_m_source_file_index>
12

> <r_mmod_Potential_Energy-OPLS-2005>
651.000305175781

> <r_mmod_Stretch_Energy-OPLS-2005>
197.072998046875

> <r_mmod_Bend_Energy-OPLS-2005>
286.034393310547

> <r_mmod_Torsional_Energy-OPLS-2005>
331.732116699219

> <r_mmod_Improper_Torsional_Energy-OPLS-2005>
13.9310884475708

> <r_mmod_Van_der_Waal_Energy-OPLS-2005>
150.23078918457

> <r_mmod_Electrostatic_Energy-OPLS-2005>
-274.46337890625

> <r_mmod_Solvation_Energy-OPLS-2005>
-210.657577514648

> <b_mmod_Minimization_Converged-OPLS-2005>
0

> <r_mmod_RMS_Derivative-OPLS-2005>
2.1849639415741

$$$$
12
                    3D
 Structure written by MMmdl.
165174  0  0  1  0            999 V2000
  -30.6914  -14.4617   20.5840 C   0  0  0  0  0  0
  -30.4267  -12.3006   19.4200 C   0  0  0  0  0  0
  -29.4974  -12.5027   18.2052 C   0  0  0  0  0  0
  -28.0177  -12.3628   18.6155 C   0  0  0  0  0  0
  -27.6625  -13.1997   19.8729 C   0  0  2  0  0  0
  -28.7018  -12.9641   20.9931 C   0  0  0  0  0  0
  -25.2596  -13.8144   20.5656 C   0  0  0  0  0  0
  -24.1842  -13.0434   20.9169 C   0  0  0  0  0  0
  -24.6381  -11.6897   20.8724 C   0  0  0  0  0  0
  -23.9042  -10.4289   21.0395 C   0  0  0  0  0  0
  -24.3596   -9.4208   21.9170 C   0  0  0  0  0  0
  -23.6276   -8.2244   22.0748 C   0  0  0  0  0  0
  -22.4258   -8.0278   21.3545 C   0  0  0  0  0  0
  -21.9880   -9.0248   20.4650 C   0  0  0  0  0  0
  -22.7205  -10.2130   20.3051 C   0  0  0  0  0  0
  -21.6854   -6.0723   22.5273 C   0  0  0  0  0  0
  -21.4014   -6.5627   23.8204 C   0  0  0  0  0  0
  -21.3656   -5.6784   24.9168 C   0  0  0  0  0  0
  -21.6043   -4.3049   24.7223 C   0  0  0  0  0  0
  -21.8823   -3.8136   23.4346 C   0  0  0  0  0  0
  -21.9194   -4.6951   22.3398 C   0  0  0  0  0  0
  -22.7870  -13.5243   21.1834 C   0  0  0  0  0  0
  -22.1666   -4.2139   21.0976 F   0  0  0  0  0  0
  -21.5624   -3.4532   25.7737 F   0  0  0  0  0  0
  -30.0366  -13.2755   20.4497 N   0  0  0  0  0  0
  -26.3018  -12.9297   20.3325 N   0  0  0  0  0  0
  -25.9301  -11.6465   20.5734 N   0  0  0  0  0  0
  -22.0501  -12.8263   22.0405 N   0  0  0  0  0  0
  -25.4337  -15.1862   20.4056 N   0  0  0  0  0  0
  -31.8164  -14.6500   20.1061 O   0  0  0  0  0  0
  -21.6636   -6.8866   21.4236 O   0  0  0  0  0  0
  -22.3567  -14.5546   20.6674 O   0  0  0  0  0  0
  -24.6137  -31.8684   23.2109 C   0  0  0  0  0  0
  -25.9040  -32.4822   23.8388 C   0  0  1  0  0  0
  -27.2360  -27.4383   20.0815 C   0  0  0  0  0  0
  -25.5909  -33.8617   24.2323 N   0  0  0  0  0  0
  -23.4003  -30.4922   21.5518 C   0  0  2  0  0  0
  -24.8438  -28.9556   20.1164 C   0  0  0  0  0  0
  -22.7397  -29.4660   22.4996 C   0  0  0  0  0  0
  -18.0277  -28.1379   22.8485 C   0  0  0  0  0  0
  -24.1487  -36.7310   23.2634 C   0  0  0  0  0  0
  -25.9292  -30.8302   21.3670 C   0  0  0  0  0  0
  -26.0024  -29.4647   20.7139 C   0  0  0  0  0  0
  -27.1956  -28.7090   20.7016 C   0  0  0  0  0  0
  -26.0503  -26.9334   19.4962 C   0  0  0  0  0  0
  -24.8613  -27.6874   19.5113 C   0  0  0  0  0  0
  -23.6071  -29.8251   20.1653 C   0  0  0  0  0  0
  -25.4107  -36.3109   24.0335 C   0  0  1  0  0  0
  -20.5864  -28.3661   23.1325 C   0  0  2  0  0  0
  -20.6767  -26.9393   22.5436 C   0  0  0  0  0  0
  -19.5758  -26.6381   21.5217 C   0  0  0  0  0  0
  -18.1926  -26.7934   22.1605 C   0  0  0  0  0  0
  -19.1523  -28.8834   23.2905 C   0  0  0  0  0  0
  -18.9455  -30.1438   23.8918 C   0  0  0  0  0  0
  -17.6458  -30.6579   24.0573 C   0  0  0  0  0  0
  -25.9037  -34.9475   23.5124 C   0  0  0  0  0  0
  -16.5348  -29.9085   23.6326 C   0  0  0  0  0  0
  -16.7267  -28.6504   23.0339 C   0  0  0  0  0  0
  -26.4468  -31.6608   25.0720 C   0  0  0  0  0  0
  -25.3736  -31.3782   26.1488 C   0  0  0  0  0  0
  -27.0254  -30.3023   24.6125 C   0  0  0  0  0  0
  -27.6060  -32.4319   25.7457 C   0  0  0  0  0  0
  -27.5591  -37.1797   24.8453 C   0  0  0  0  0  0
  -21.4128  -29.3023   22.3724 N   0  0  0  0  0  0
  -26.4294  -37.3792   23.9412 N   0  0  0  0  0  0
  -24.6656  -31.0781   22.1012 N   0  0  0  0  0  0
  -23.4171  -28.8205   23.3040 O   0  0  0  0  0  0
  -28.4333  -26.7493   20.0861 O   0  0  0  0  0  0
  -26.5590  -34.8929   22.4681 O   0  0  0  0  0  0
  -23.5333  -32.1441   23.7508 O   0  0  0  0  0  0
  -28.9101  -18.9623   20.7726 C   0  0  0  0  0  0
  -28.8825  -17.5669   20.9573 C   0  0  0  0  0  0
  -30.1517  -19.6296   20.7039 C   0  0  0  0  0  0
  -31.3139  -18.8322   20.8563 C   0  0  0  0  0  0
  -30.0869  -16.8399   21.0408 C   0  0  0  0  0  0
  -30.4891  -21.4999   18.9721 C   0  0  0  0  0  0
  -30.1651  -22.9984   18.8918 C   0  0  0  0  0  0
  -30.2533  -21.1461   20.4382 C   0  0  1  0  0  0
  -29.0537  -22.0607   20.7811 C   0  0  1  0  0  0
  -32.7115  -19.4263   20.8431 C   0  0  0  0  0  0
  -28.8368  -22.2254   22.2941 C   0  0  0  0  0  0
  -28.2189  -24.2661   19.8527 C   0  0  0  0  0  0
  -28.6204  -25.6272   19.2140 C   0  0  0  0  0  0
  -31.2730  -17.4902   21.0179 N   0  0  0  0  0  0
  -29.9607  -15.4308   21.1710 N   0  0  0  0  0  0
  -29.3745  -23.3488   20.1025 N   0  3  2  0  0  0
  -31.4707  -12.4020   19.1183 H   0  0  0  0  0  0
  -30.3300  -11.2873   19.8132 H   0  0  0  0  0  0
  -29.7373  -11.7795   17.4246 H   0  0  0  0  0  0
  -29.6675  -13.4887   17.7697 H   0  0  0  0  0  0
  -27.8283  -11.3065   18.8109 H   0  0  0  0  0  0
  -27.3692  -12.6367   17.7826 H   0  0  0  0  0  0
  -27.7116  -14.2483   19.5792 H   0  0  0  0  0  0
  -28.6785  -11.9222   21.3153 H   0  0  0  0  0  0
  -28.4568  -13.5426   21.8847 H   0  0  0  0  0  0
  -25.2741   -9.5684   22.4741 H   0  0  0  0  0  0
  -23.9992   -7.4634   22.7462 H   0  0  0  0  0  0
  -21.0805   -8.8757   19.8963 H   0  0  0  0  0  0
  -22.3650  -10.9662   19.6165 H   0  0  0  0  0  0
  -21.2011   -7.6137   23.9703 H   0  0  0  0  0  0
  -21.1473   -6.0515   25.9068 H   0  0  0  0  0  0
  -22.0609   -2.7602   23.2856 H   0  0  0  0  0  0
  -22.4099  -11.9929   22.4817 H   0  0  0  0  0  0
  -21.1122  -13.1320   22.2594 H   0  0  0  0  0  0
  -24.6635  -15.8386   20.4987 H   0  0  0  0  0  0
  -26.2715  -15.6143   20.0333 H   0  0  0  0  0  0
  -26.7104  -32.5528   23.1137 H   0  0  0  0  0  0
  -25.0086  -33.9786   25.0488 H   0  0  0  0  0  0
  -22.6889  -31.3087   21.4146 H   0  0  0  0  0  0
  -23.3753  -35.9638   23.3290 H   0  0  0  0  0  0
  -24.3589  -36.8932   22.2049 H   0  0  0  0  0  0
  -23.7233  -37.6510   23.6653 H   0  0  0  0  0  0
  -26.0474  -31.5974   20.6004 H   0  0  0  0  0  0
  -26.8146  -30.8783   21.9889 H   0  0  0  0  0  0
  -28.0915  -29.1025   21.1617 H   0  0  0  0  0  0
  -26.0162  -25.9586   19.0318 H   0  0  0  0  0  0
  -23.9658  -27.2874   19.0555 H   0  0  0  0  0  0
  -23.7162  -30.6003   19.4057 H   0  0  0  0  0  0
  -22.7296  -29.2475   19.8692 H   0  0  0  0  0  0
  -25.1280  -36.1973   25.0827 H   0  0  0  0  0  0
  -20.9956  -28.3240   24.1446 H   0  0  0  0  0  0
  -20.5657  -26.2267   23.3623 H   0  0  0  0  0  0
  -21.6648  -26.7436   22.1247 H   0  0  0  0  0  0
  -19.6922  -25.6296   21.1236 H   0  0  0  0  0  0
  -19.6709  -27.3196   20.6751 H   0  0  0  0  0  0
  -17.4210  -26.6700   21.3988 H   0  0  0  0  0  0
  -18.0298  -26.0062   22.8981 H   0  0  0  0  0  0
  -19.7932  -30.7248   24.2296 H   0  0  0  0  0  0
  -17.5017  -31.6261   24.5171 H   0  0  0  0  0  0
  -15.5353  -30.2991   23.7640 H   0  0  0  0  0  0
  -15.8666  -28.0832   22.7040 H   0  0  0  0  0  0
  -24.5916  -30.7086   25.7895 H   0  0  0  0  0  0
  -24.8913  -32.2966   26.4848 H   0  0  0  0  0  0
  -25.8102  -30.9058   27.0294 H   0  0  0  0  0  0
  -26.2781  -29.6818   24.1164 H   0  0  0  0  0  0
  -27.3964  -29.7245   25.4602 H   0  0  0  0  0  0
  -27.8657  -30.4293   23.9295 H   0  0  0  0  0  0
  -27.2689  -33.3606   26.2075 H   0  0  0  0  0  0
  -28.3831  -32.6905   25.0251 H   0  0  0  0  0  0
  -28.0765  -31.8423   26.5336 H   0  0  0  0  0  0
  -28.2619  -38.0086   24.7505 H   0  0  0  0  0  0
  -28.1078  -36.2625   24.6252 H   0  0  0  0  0  0
  -27.2328  -37.1429   25.8862 H   0  0  0  0  0  0
  -20.9280  -29.8732   21.6938 H   0  0  0  0  0  0
  -26.0189  -38.2869   24.1435 H   0  0  0  0  0  0
  -27.9746  -19.4920   20.6712 H   0  0  0  0  0  0
  -27.9269  -17.0644   21.0013 H   0  0  0  0  0  0
  -31.4960  -21.2748   18.6236 H   0  0  0  0  0  0
  -29.7925  -20.9483   18.3392 H   0  0  0  0  0  0
  -29.6290  -23.2134   17.9660 H   0  0  0  0  0  0
  -31.0820  -23.5890   18.8832 H   0  0  0  0  0  0
  -31.0992  -21.5220   21.0158 H   0  0  0  0  0  0
  -28.1455  -21.6677   20.3214 H   0  0  0  0  0  0
  -32.8920  -19.9827   19.9246 H   0  0  0  0  0  0
  -33.4786  -18.6546   20.9131 H   0  0  0  0  0  0
  -32.8463  -20.1007   21.6887 H   0  0  0  0  0  0
  -29.7031  -22.6745   22.7802 H   0  0  0  0  0  0
  -28.6597  -21.2598   22.7671 H   0  0  0  0  0  0
  -27.9701  -22.8504   22.5077 H   0  0  0  0  0  0
  -27.5082  -23.7622   19.1963 H   0  0  0  0  0  0
  -27.6867  -24.4505   20.7854 H   0  0  0  0  0  0
  -28.1081  -25.7753   18.2626 H   0  0  0  0  0  0
  -29.6764  -25.6305   18.9472 H   0  0  0  0  0  0
  -29.0669  -15.1112   21.5043 H   0  0  0  0  0  0
  -30.0144  -23.8340   20.7166 H   0  0  0  0  0  0
  1 25  1  0  0  0
  1 30  2  0  0  0
  1 85  1  0  0  0
  2  3  1  0  0  0
  2 25  1  0  0  0
  2 87  1  0  0  0
  2 88  1  0  0  0
  3  4  1  0  0  0
  3 89  1  0  0  0
  3 90  1  0  0  0
  4  5  1  0  0  0
  4 91  1  0  0  0
  4 92  1  0  0  0
  5  6  1  0  0  0
  5 26  1  0  0  0
  5 93  1  0  0  0
  6 25  1  0  0  0
  6 94  1  0  0  0
  6 95  1  0  0  0
  7  8  2  0  0  0
  7 26  1  0  0  0
  7 29  1  0  0  0
  8  9  1  0  0  0
  8 22  1  0  0  0
  9 10  1  0  0  0
  9 27  2  0  0  0
 10 11  2  0  0  0
 10 15  1  0  0  0
 11 12  1  0  0  0
 11 96  1  0  0  0
 12 13  2  0  0  0
 12 97  1  0  0  0
 13 14  1  0  0  0
 13 31  1  0  0  0
 14 15  2  0  0  0
 14 98  1  0  0  0
 15 99  1  0  0  0
 16 17  2  0  0  0
 16 21  1  0  0  0
 16 31  1  0  0  0
 17 18  1  0  0  0
 17100  1  0  0  0
 18 19  2  0  0  0
 18101  1  0  0  0
 19 20  1  0  0  0
 19 24  1  0  0  0
 20 21  2  0  0  0
 20102  1  0  0  0
 21 23  1  0  0  0
 22 28  1  0  0  0
 22 32  2  0  0  0
 26 27  1  0  0  0
 28103  1  0  0  0
 28104  1  0  0  0
 29105  1  0  0  0
 29106  1  0  0  0
 33 34  1  0  0  0
 33 66  1  0  0  0
 33 70  2  0  0  0
 34 36  1  0  0  0
 34 59  1  0  0  0
 34107  1  0  0  0
 35 44  2  0  0  0
 35 45  1  0  0  0
 35 68  1  0  0  0
 36 56  1  0  0  0
 36108  1  0  0  0
 37 39  1  0  0  0
 37 47  1  0  0  0
 37 66  1  0  0  0
 37109  1  0  0  0
 38 43  2  0  0  0
 38 46  1  0  0  0
 38 47  1  0  0  0
 39 64  1  0  0  0
 39 67  2  0  0  0
 40 52  1  0  0  0
 40 53  2  0  0  0
 40 58  1  0  0  0
 41110  1  0  0  0
 41111  1  0  0  0
 41112  1  0  0  0
 41 48  1  0  0  0
 42 43  1  0  0  0
 42 66  1  0  0  0
 42113  1  0  0  0
 42114  1  0  0  0
 43 44  1  0  0  0
 44115  1  0  0  0
 45 46  2  0  0  0
 45116  1  0  0  0
 46117  1  0  0  0
 47118  1  0  0  0
 47119  1  0  0  0
 48 56  1  0  0  0
 48 65  1  0  0  0
 48120  1  0  0  0
 49 50  1  0  0  0
 49 53  1  0  0  0
 49 64  1  0  0  0
 49121  1  0  0  0
 50 51  1  0  0  0
 50122  1  0  0  0
 50123  1  0  0  0
 51 52  1  0  0  0
 51124  1  0  0  0
 51125  1  0  0  0
 52126  1  0  0  0
 52127  1  0  0  0
 53 54  1  0  0  0
 54 55  2  0  0  0
 54128  1  0  0  0
 55 57  1  0  0  0
 55129  1  0  0  0
 56 69  2  0  0  0
 57 58  2  0  0  0
 57130  1  0  0  0
 58131  1  0  0  0
 59 60  1  0  0  0
 59 61  1  0  0  0
 59 62  1  0  0  0
 60132  1  0  0  0
 60133  1  0  0  0
 60134  1  0  0  0
 61135  1  0  0  0
 61136  1  0  0  0
 61137  1  0  0  0
 62138  1  0  0  0
 62139  1  0  0  0
 62140  1  0  0  0
 63 65  1  0  0  0
 63141  1  0  0  0
 63142  1  0  0  0
 63143  1  0  0  0
 64144  1  0  0  0
 65145  1  0  0  0
 68 83  1  0  0  0
 71 72  2  0  0  0
 71 73  1  0  0  0
 71146  1  0  0  0
 72 75  1  0  0  0
 72147  1  0  0  0
 73 74  2  0  0  0
 73 78  1  0  0  0
 74 80  1  0  0  0
 74 84  1  0  0  0
 75 84  2  0  0  0
 75 85  1  0  0  0
 76 77  1  0  0  0
 76 78  1  0  0  0
 76148  1  0  0  0
 76149  1  0  0  0
 77 86  1  0  0  0
 77150  1  0  0  0
 77151  1  0  0  0
 78 79  1  0  0  0
 78152  1  0  0  0
 79 81  1  0  0  0
 79 86  1  0  0  0
 79153  1  0  0  0
 80154  1  0  0  0
 80155  1  0  0  0
 80156  1  0  0  0
 81157  1  0  0  0
 81158  1  0  0  0
 81159  1  0  0  0
 82 83  1  0  0  0
 82160  1  0  0  0
 82161  1  0  0  0
 82 86  1  0  0  0
 83162  1  0  0  0
 83163  1  0  0  0
 85164  1  0  0  0
 86165  1  0  0  0
M  CHG  1  86   1
M  ISO  4   1 100  68 101  83 101  85 100
M  END
> <chiral flag>
0

> <version>
0

> <s_m_source_file>
/data/baiqing/PycharmProjects/Reinvent-master-3.2/result/LINK_invent/BTK/process_docking_weight1_custom_sum_contain_oxygen_bond_distance_aromatic_linkinvent_7_9_3/rearranged_h_0172.sdf

> <i_m_source_file_index>
13

> <r_mmod_Potential_Energy-OPLS-2005>
-223.743530273438

> <r_mmod_Stretch_Energy-OPLS-2005>
38.0927467346191

> <r_mmod_Bend_Energy-OPLS-2005>
136.831665039062

> <r_mmod_Torsional_Energy-OPLS-2005>
276.007171630859

> <r_mmod_Improper_Torsional_Energy-OPLS-2005>
4.11132907867432

> <r_mmod_Van_der_Waal_Energy-OPLS-2005>
154.212799072266

> <r_mmod_Electrostatic_Energy-OPLS-2005>
-384.024200439453

> <r_mmod_Solvation_Energy-OPLS-2005>
-460.868103027344

> <b_mmod_Minimization_Converged-OPLS-2005>
0

> <r_mmod_RMS_Derivative-OPLS-2005>
1.24227464199066

$$$$
13
                    3D
 Structure written by MMmdl.
160170  0  0  1  0            999 V2000
  -30.5589  -15.0079   20.4305 C   0  0  0  0  0  0
  -30.4358  -12.6368   19.4993 C   0  0  0  0  0  0
  -29.5213  -12.5493   18.2558 C   0  0  0  0  0  0
  -28.0552  -12.3237   18.6710 C   0  0  0  0  0  0
  -27.6262  -13.2549   19.8355 C   0  0  2  0  0  0
  -28.6718  -13.2934   20.9701 C   0  0  0  0  0  0
  -25.2408  -13.8193   20.5659 C   0  0  0  0  0  0
  -24.1762  -13.0415   20.9231 C   0  0  0  0  0  0
  -24.6404  -11.6912   20.8757 C   0  0  0  0  0  0
  -23.9091  -10.4279   21.0399 C   0  0  0  0  0  0
  -24.3635   -9.4195   21.9180 C   0  0  0  0  0  0
  -23.6306   -8.2233   22.0749 C   0  0  0  0  0  0
  -22.4287   -8.0272   21.3543 C   0  0  0  0  0  0
  -21.9928   -9.0246   20.4642 C   0  0  0  0  0  0
  -22.7260  -10.2126   20.3049 C   0  0  0  0  0  0
  -21.6850   -6.0736   22.5278 C   0  0  0  0  0  0
  -21.4012   -6.5642   23.8216 C   0  0  0  0  0  0
  -21.3661   -5.6793   24.9178 C   0  0  0  0  0  0
  -21.6043   -4.3058   24.7226 C   0  0  0  0  0  0
  -21.8817   -3.8146   23.4349 C   0  0  0  0  0  0
  -21.9194   -4.6962   22.3405 C   0  0  0  0  0  0
  -22.7783  -13.5190   21.1867 C   0  0  0  0  0  0
  -22.1660   -4.2148   21.0981 F   0  0  0  0  0  0
  -21.5631   -3.4542   25.7741 F   0  0  0  0  0  0
  -29.9331  -13.7511   20.3666 N   0  0  0  0  0  0
  -26.2868  -12.9461   20.3229 N   0  0  0  0  0  0
  -25.9344  -11.6584   20.5745 N   0  0  0  0  0  0
  -22.0433  -12.8199   22.0440 N   0  0  0  0  0  0
  -25.3955  -15.1908   20.3957 N   0  0  0  0  0  0
  -31.7581  -15.0116   20.1245 O   0  0  0  0  0  0
  -21.6643   -6.8877   21.4241 O   0  0  0  0  0  0
  -22.3455  -14.5484   20.6692 O   0  0  0  0  0  0
  -24.6478  -31.8389   23.1849 C   0  0  0  0  0  0
  -25.9233  -32.4665   23.8251 C   0  0  1  0  0  0
  -27.2158  -27.0875   20.1582 C   0  0  0  0  0  0
  -25.5970  -33.8476   24.2166 N   0  0  0  0  0  0
  -23.4536  -30.4571   21.5314 C   0  0  2  0  0  0
  -24.9046  -28.8770   20.1092 C   0  0  0  0  0  0
  -22.7582  -29.4526   22.4849 C   0  0  0  0  0  0
  -18.0305  -28.1400   22.8476 C   0  0  0  0  0  0
  -24.1493  -36.7238   23.2639 C   0  0  0  0  0  0
  -26.0127  -30.6957   21.3930 C   0  0  0  0  0  0
  -26.0835  -29.3032   20.7340 C   0  0  0  0  0  0
  -27.2378  -28.4249   20.7424 C   0  0  0  0  0  0
  -26.0121  -26.7798   19.4837 C   0  0  0  0  0  0
  -24.8847  -27.6304   19.4678 C   0  0  0  0  0  0
  -23.6825  -29.7832   20.1523 C   0  0  0  0  0  0
  -25.4127  -36.3015   24.0308 C   0  0  1  0  0  0
  -20.5920  -28.3734   23.1223 C   0  0  2  0  0  0
  -20.6790  -26.9432   22.5401 C   0  0  0  0  0  0
  -19.5764  -26.6379   21.5211 C   0  0  0  0  0  0
  -18.1949  -26.7935   22.1623 C   0  0  0  0  0  0
  -19.1565  -28.8885   23.2836 C   0  0  0  0  0  0
  -18.9482  -30.1484   23.8855 C   0  0  0  0  0  0
  -17.6474  -30.6597   24.0557 C   0  0  0  0  0  0
  -25.9085  -34.9391   23.5045 C   0  0  0  0  0  0
  -16.5365  -29.9083   23.6346 C   0  0  0  0  0  0
  -16.7288  -28.6507   23.0359 C   0  0  0  0  0  0
  -26.4540  -31.6553   25.0711 C   0  0  0  0  0  0
  -25.3710  -31.3766   26.1402 C   0  0  0  0  0  0
  -27.0405  -30.2933   24.6341 C   0  0  0  0  0  0
  -27.6067  -32.4322   25.7496 C   0  0  0  0  0  0
  -27.5582  -37.1764   24.8453 C   0  0  0  0  0  0
  -21.4273  -29.3046   22.3587 N   0  0  0  0  0  0
  -26.4279  -37.3740   23.9418 N   0  0  0  0  0  0
  -24.7248  -31.0199   22.0912 N   0  0  0  0  0  0
  -23.4204  -28.8080   23.3025 O   0  0  0  0  0  0
  -28.2423  -26.0601   20.2528 O   0  0  0  0  0  0
  -26.5676  -34.8896   22.4628 O   0  0  0  0  0  0
  -23.5589  -32.1290   23.7045 O   0  0  0  0  0  0
  -30.6800  -22.4389   21.6295 C   0  0  0  0  0  0
  -29.4053  -20.5801   20.6137 C   0  0  0  0  0  0
  -28.5476  -21.7251   20.1478 C   0  0  0  0  0  0
  -30.4884  -21.0520   21.4021 C   0  0  0  0  0  0
  -28.8166  -23.1801   20.4330 C   0  0  0  0  0  0
  -25.9524  -21.9030   19.6556 C   0  0  0  0  0  0
  -26.2654  -20.4416   19.8242 C   0  0  0  0  0  0
  -28.5693  -18.1490   21.6032 C   0  0  0  0  0  0
  -28.6894  -16.5936   21.3550 C   0  0  0  0  0  0
  -30.2891  -17.7186   20.0914 C   0  0  0  0  0  0
  -29.1822  -18.9166   20.4148 C   0  0  2  0  0  0
  -27.3365  -21.3868   19.3217 C   0  0  0  0  0  0
  -27.9236  -24.5330   20.0068 C   0  0  0  0  0  0
  -29.9057  -23.4568   21.1760 N   0  0  0  0  0  0
  -29.8604  -16.2750   20.5176 N   0  0  0  0  0  0
  -31.6002  -19.9704   22.1646 Cl  0  0  0  0  0  0
  -31.4670  -12.7933   19.1788 H   0  0  0  0  0  0
  -30.4436  -11.6907   20.0432 H   0  0  0  0  0  0
  -29.8533  -11.7481   17.5942 H   0  0  0  0  0  0
  -29.5999  -13.4736   17.6812 H   0  0  0  0  0  0
  -27.9569  -11.2820   18.9776 H   0  0  0  0  0  0
  -27.3931  -12.4522   17.8132 H   0  0  0  0  0  0
  -27.5841  -14.2565   19.4060 H   0  0  0  0  0  0
  -28.7862  -12.3102   21.4289 H   0  0  0  0  0  0
  -28.3518  -13.9561   21.7705 H   0  0  0  0  0  0
  -25.2773   -9.5682   22.4770 H   0  0  0  0  0  0
  -24.0012   -7.4624   22.7479 H   0  0  0  0  0  0
  -21.0853   -8.8768   19.8955 H   0  0  0  0  0  0
  -22.3705  -10.9668   19.6165 H   0  0  0  0  0  0
  -21.1996   -7.6149   23.9726 H   0  0  0  0  0  0
  -21.1485   -6.0519   25.9086 H   0  0  0  0  0  0
  -22.0595   -2.7608   23.2848 H   0  0  0  0  0  0
  -22.4046  -11.9883   22.4867 H   0  0  0  0  0  0
  -21.1039  -13.1208   22.2599 H   0  0  0  0  0  0
  -24.6155  -15.8325   20.4861 H   0  0  0  0  0  0
  -26.2265  -15.6290   20.0207 H   0  0  0  0  0  0
  -26.7294  -32.5250   23.0970 H   0  0  0  0  0  0
  -25.0091  -33.9578   25.0296 H   0  0  0  0  0  0
  -22.7599  -31.2857   21.3738 H   0  0  0  0  0  0
  -23.3772  -35.9549   23.3255 H   0  0  0  0  0  0
  -24.3585  -36.8919   22.2062 H   0  0  0  0  0  0
  -23.7220  -37.6406   23.6710 H   0  0  0  0  0  0
  -26.1751  -31.4476   20.6203 H   0  0  0  0  0  0
  -26.8801  -30.7467   22.0391 H   0  0  0  0  0  0
  -28.1300  -28.7421   21.2638 H   0  0  0  0  0  0
  -25.9000  -25.8306   18.9825 H   0  0  0  0  0  0
  -23.9865  -27.2998   18.9649 H   0  0  0  0  0  0
  -23.8200  -30.5553   19.3948 H   0  0  0  0  0  0
  -22.7964  -29.2260   19.8430 H   0  0  0  0  0  0
  -25.1314  -36.1824   25.0798 H   0  0  0  0  0  0
  -21.0009  -28.3321   24.1344 H   0  0  0  0  0  0
  -20.5690  -26.2343   23.3624 H   0  0  0  0  0  0
  -21.6652  -26.7438   22.1187 H   0  0  0  0  0  0
  -19.6922  -25.6280   21.1266 H   0  0  0  0  0  0
  -19.6701  -27.3168   20.6727 H   0  0  0  0  0  0
  -17.4213  -26.6676   21.4031 H   0  0  0  0  0  0
  -18.0354  -26.0086   22.9032 H   0  0  0  0  0  0
  -19.7957  -30.7319   24.2195 H   0  0  0  0  0  0
  -17.5029  -31.6277   24.5160 H   0  0  0  0  0  0
  -15.5367  -30.2973   23.7700 H   0  0  0  0  0  0
  -15.8686  -28.0816   22.7092 H   0  0  0  0  0  0
  -24.5873  -30.7145   25.7707 H   0  0  0  0  0  0
  -24.8932  -32.2964   26.4786 H   0  0  0  0  0  0
  -25.7975  -30.8942   27.0206 H   0  0  0  0  0  0
  -26.3032  -29.6643   24.1341 H   0  0  0  0  0  0
  -27.3973  -29.7258   25.4948 H   0  0  0  0  0  0
  -27.8966  -30.4138   23.9698 H   0  0  0  0  0  0
  -27.2665  -33.3655   26.1996 H   0  0  0  0  0  0
  -28.3924  -32.6824   25.0353 H   0  0  0  0  0  0
  -28.0684  -31.8492   26.5476 H   0  0  0  0  0  0
  -28.2548  -38.0114   24.7573 H   0  0  0  0  0  0
  -28.1134  -36.2646   24.6190 H   0  0  0  0  0  0
  -27.2311  -37.1288   25.8857 H   0  0  0  0  0  0
  -20.9497  -29.8743   21.6739 H   0  0  0  0  0  0
  -26.0134  -38.2792   24.1472 H   0  0  0  0  0  0
  -31.5133  -22.7521   22.2410 H   0  0  0  0  0  0
  -25.7875  -22.4508   20.5811 H   0  0  0  0  0  0
  -25.2958  -22.1719   18.8300 H   0  0  0  0  0  0
  -25.8127  -19.7541   19.1121 H   0  0  0  0  0  0
  -26.3124  -20.0858   20.8503 H   0  0  0  0  0  0
  -29.1334  -18.4002   22.5025 H   0  0  0  0  0  0
  -27.5384  -18.4419   21.7965 H   0  0  0  0  0  0
  -27.8039  -16.2414   20.8327 H   0  0  0  0  0  0
  -28.7386  -16.0706   22.3102 H   0  0  0  0  0  0
  -31.2282  -17.9115   20.6037 H   0  0  0  0  0  0
  -30.5343  -17.7220   19.0287 H   0  0  0  0  0  0
  -28.4665  -18.8447   19.5963 H   0  0  0  0  0  0
  -27.6046  -21.3164   18.2684 H   0  0  0  0  0  0
  -26.9544  -24.3722   20.4748 H   0  0  0  0  0  0
  -27.7516  -24.4310   18.9353 H   0  0  0  0  0  0
  1 25  1  0  0  0
  1 30  2  0  0  0
  1 85  1  0  0  0
  2  3  1  0  0  0
  2 25  1  0  0  0
  2 87  1  0  0  0
  2 88  1  0  0  0
  3  4  1  0  0  0
  3 89  1  0  0  0
  3 90  1  0  0  0
  4  5  1  0  0  0
  4 91  1  0  0  0
  4 92  1  0  0  0
  5  6  1  0  0  0
  5 26  1  0  0  0
  5 93  1  0  0  0
  6 25  1  0  0  0
  6 94  1  0  0  0
  6 95  1  0  0  0
  7  8  2  0  0  0
  7 26  1  0  0  0
  7 29  1  0  0  0
  8  9  1  0  0  0
  8 22  1  0  0  0
  9 10  1  0  0  0
  9 27  2  0  0  0
 10 11  2  0  0  0
 10 15  1  0  0  0
 11 12  1  0  0  0
 11 96  1  0  0  0
 12 13  2  0  0  0
 12 97  1  0  0  0
 13 14  1  0  0  0
 13 31  1  0  0  0
 14 15  2  0  0  0
 14 98  1  0  0  0
 15 99  1  0  0  0
 16 17  2  0  0  0
 16 21  1  0  0  0
 16 31  1  0  0  0
 17 18  1  0  0  0
 17100  1  0  0  0
 18 19  2  0  0  0
 18101  1  0  0  0
 19 20  1  0  0  0
 19 24  1  0  0  0
 20 21  2  0  0  0
 20102  1  0  0  0
 21 23  1  0  0  0
 22 28  1  0  0  0
 22 32  2  0  0  0
 26 27  1  0  0  0
 28103  1  0  0  0
 28104  1  0  0  0
 29105  1  0  0  0
 29106  1  0  0  0
 33 34  1  0  0  0
 33 66  1  0  0  0
 33 70  2  0  0  0
 34 36  1  0  0  0
 34 59  1  0  0  0
 34107  1  0  0  0
 35 44  2  0  0  0
 35 45  1  0  0  0
 35 68  1  0  0  0
 36 56  1  0  0  0
 36108  1  0  0  0
 37 39  1  0  0  0
 37 47  1  0  0  0
 37 66  1  0  0  0
 37109  1  0  0  0
 38 43  2  0  0  0
 38 46  1  0  0  0
 38 47  1  0  0  0
 39 64  1  0  0  0
 39 67  2  0  0  0
 40 52  1  0  0  0
 40 53  2  0  0  0
 40 58  1  0  0  0
 41110  1  0  0  0
 41111  1  0  0  0
 41112  1  0  0  0
 41 48  1  0  0  0
 42 43  1  0  0  0
 42 66  1  0  0  0
 42113  1  0  0  0
 42114  1  0  0  0
 43 44  1  0  0  0
 44115  1  0  0  0
 45 46  2  0  0  0
 45116  1  0  0  0
 46117  1  0  0  0
 47118  1  0  0  0
 47119  1  0  0  0
 48 56  1  0  0  0
 48 65  1  0  0  0
 48120  1  0  0  0
 49 50  1  0  0  0
 49 53  1  0  0  0
 49 64  1  0  0  0
 49121  1  0  0  0
 50 51  1  0  0  0
 50122  1  0  0  0
 50123  1  0  0  0
 51 52  1  0  0  0
 51124  1  0  0  0
 51125  1  0  0  0
 52126  1  0  0  0
 52127  1  0  0  0
 53 54  1  0  0  0
 54 55  2  0  0  0
 54128  1  0  0  0
 55 57  1  0  0  0
 55129  1  0  0  0
 56 69  2  0  0  0
 57 58  2  0  0  0
 57130  1  0  0  0
 58131  1  0  0  0
 59 60  1  0  0  0
 59 61  1  0  0  0
 59 62  1  0  0  0
 60132  1  0  0  0
 60133  1  0  0  0
 60134  1  0  0  0
 61135  1  0  0  0
 61136  1  0  0  0
 61137  1  0  0  0
 62138  1  0  0  0
 62139  1  0  0  0
 62140  1  0  0  0
 63 65  1  0  0  0
 63141  1  0  0  0
 63142  1  0  0  0
 63143  1  0  0  0
 64144  1  0  0  0
 65145  1  0  0  0
 68 83  1  0  0  0
 71 74  2  0  0  0
 71 84  1  0  0  0
 71146  1  0  0  0
 72 73  2  0  0  0
 72 74  1  0  0  0
 72 81  1  0  0  0
 73 75  1  0  0  0
 73 82  1  0  0  0
 74 86  1  0  0  0
 75 83  1  0  0  0
 75 84  2  0  0  0
 76 77  1  0  0  0
 76 82  1  0  0  0
 76147  1  0  0  0
 76148  1  0  0  0
 77 82  1  0  0  0
 77149  1  0  0  0
 77150  1  0  0  0
 78 79  1  0  0  0
 78 81  1  0  0  0
 78151  1  0  0  0
 78152  1  0  0  0
 79 85  1  0  0  0
 79153  1  0  0  0
 79154  1  0  0  0
 80 81  1  0  0  0
 80 85  1  0  0  0
 80155  1  0  0  0
 80156  1  0  0  0
 81157  1  0  0  0
 82158  1  0  0  0
 83159  1  0  0  0
 83160  1  0  0  0
M  ISO  4   1 100  68 101  83 101  85 100
M  END
> <chiral flag>
0

> <version>
0

> <s_m_source_file>
/data/baiqing/PycharmProjects/Reinvent-master-3.2/result/LINK_invent/BTK/process_docking_weight1_custom_sum_contain_oxygen_bond_distance_aromatic_linkinvent_7_9_3/rearranged_h_0172.sdf

> <i_m_source_file_index>
14

> <r_mmod_Potential_Energy-OPLS-2005>
774.066345214844

> <r_mmod_Stretch_Energy-OPLS-2005>
307.338348388672

> <r_mmod_Bend_Energy-OPLS-2005>
306.68115234375

> <r_mmod_Torsional_Energy-OPLS-2005>
333.268341064453

> <r_mmod_Improper_Torsional_Energy-OPLS-2005>
8.91028118133545

> <r_mmod_Van_der_Waal_Energy-OPLS-2005>
125.071533203125

> <r_mmod_Electrostatic_Energy-OPLS-2005>
-320.330322265625

> <r_mmod_Solvation_Energy-OPLS-2005>
-221.582748413086

> <b_mmod_Minimization_Converged-OPLS-2005>
0

> <r_mmod_RMS_Derivative-OPLS-2005>
1.43632304668427

$$$$
14
                    3D
 Structure written by MMmdl.
163173  0  0  1  0            999 V2000
  -30.7304  -14.7134   20.4703 C   0  0  0  0  0  0
  -30.4089  -12.4500   19.4643 C   0  0  0  0  0  0
  -29.4928  -12.5004   18.2263 C   0  0  0  0  0  0
  -28.0271  -12.3135   18.6529 C   0  0  0  0  0  0
  -27.6359  -13.2285   19.8419 C   0  0  2  0  0  0
  -28.6917  -13.2184   20.9752 C   0  0  0  0  0  0
  -25.2495  -13.8189   20.5710 C   0  0  0  0  0  0
  -24.1795  -13.0427   20.9224 C   0  0  0  0  0  0
  -24.6393  -11.6909   20.8797 C   0  0  0  0  0  0
  -23.9090  -10.4293   21.0455 C   0  0  0  0  0  0
  -24.3651   -9.4200   21.9217 C   0  0  0  0  0  0
  -23.6305   -8.2245   22.0769 C   0  0  0  0  0  0
  -22.4289   -8.0294   21.3561 C   0  0  0  0  0  0
  -21.9939   -9.0268   20.4659 C   0  0  0  0  0  0
  -22.7279  -10.2139   20.3074 C   0  0  0  0  0  0
  -21.6851   -6.0748   22.5282 C   0  0  0  0  0  0
  -21.4008   -6.5653   23.8215 C   0  0  0  0  0  0
  -21.3656   -5.6803   24.9180 C   0  0  0  0  0  0
  -21.6055   -4.3067   24.7229 C   0  0  0  0  0  0
  -21.8826   -3.8160   23.4350 C   0  0  0  0  0  0
  -21.9181   -4.6974   22.3407 C   0  0  0  0  0  0
  -22.7820  -13.5215   21.1874 C   0  0  0  0  0  0
  -22.1660   -4.2162   21.0980 F   0  0  0  0  0  0
  -21.5634   -3.4544   25.7740 F   0  0  0  0  0  0
  -29.9885  -13.5500   20.3737 N   0  0  0  0  0  0
  -26.2922  -12.9387   20.3316 N   0  0  0  0  0  0
  -25.9320  -11.6542   20.5815 N   0  0  0  0  0  0
  -22.0474  -12.8192   22.0421 N   0  0  0  0  0  0
  -25.4151  -15.1911   20.4130 N   0  0  0  0  0  0
  -31.9257  -14.6489   20.1760 O   0  0  0  0  0  0
  -21.6650   -6.8896   21.4246 O   0  0  0  0  0  0
  -22.3500  -14.5516   20.6708 O   0  0  0  0  0  0
  -24.6361  -31.8572   23.2035 C   0  0  0  0  0  0
  -25.9182  -32.4767   23.8389 C   0  0  1  0  0  0
  -27.1995  -27.2388   20.1201 C   0  0  0  0  0  0
  -25.6015  -33.8577   24.2314 N   0  0  0  0  0  0
  -23.4332  -30.4881   21.5477 C   0  0  2  0  0  0
  -24.8712  -28.9462   20.1130 C   0  0  0  0  0  0
  -22.7525  -29.4648   22.4909 C   0  0  0  0  0  0
  -18.0303  -28.1398   22.8504 C   0  0  0  0  0  0
  -24.1476  -36.7281   23.2637 C   0  0  0  0  0  0
  -25.9861  -30.7657   21.3858 C   0  0  0  0  0  0
  -26.0509  -29.3872   20.7248 C   0  0  0  0  0  0
  -27.2176  -28.5458   20.7251 C   0  0  0  0  0  0
  -25.9877  -26.8989   19.4593 C   0  0  0  0  0  0
  -24.8472  -27.7098   19.4693 C   0  0  0  0  0  0
  -23.6490  -29.8380   20.1610 C   0  0  0  0  0  0
  -25.4111  -36.3086   24.0335 C   0  0  1  0  0  0
  -20.5910  -28.3737   23.1232 C   0  0  2  0  0  0
  -20.6815  -26.9441   22.5398 C   0  0  0  0  0  0
  -19.5780  -26.6407   21.5216 C   0  0  0  0  0  0
  -18.1959  -26.7965   22.1622 C   0  0  0  0  0  0
  -19.1560  -28.8881   23.2887 C   0  0  0  0  0  0
  -18.9476  -30.1488   23.8887 C   0  0  0  0  0  0
  -17.6468  -30.6610   24.0579 C   0  0  0  0  0  0
  -25.9068  -34.9447   23.5131 C   0  0  0  0  0  0
  -16.5367  -29.9108   23.6320 C   0  0  0  0  0  0
  -16.7293  -28.6518   23.0374 C   0  0  0  0  0  0
  -26.4513  -31.6569   25.0779 C   0  0  0  0  0  0
  -25.3702  -31.3693   26.1466 C   0  0  0  0  0  0
  -27.0366  -30.2997   24.6268 C   0  0  0  0  0  0
  -27.6129  -32.4250   25.7530 C   0  0  0  0  0  0
  -27.5567  -37.1813   24.8471 C   0  0  0  0  0  0
  -21.4229  -29.3091   22.3620 N   0  0  0  0  0  0
  -26.4275  -37.3806   23.9424 N   0  0  0  0  0  0
  -24.7056  -31.0558   22.0992 N   0  0  0  0  0  0
  -23.4220  -28.8155   23.3001 O   0  0  0  0  0  0
  -28.2516  -26.2754   20.1837 O   0  0  0  0  0  0
  -26.5610  -34.8935   22.4674 O   0  0  0  0  0  0
  -23.5508  -32.1344   23.7349 O   0  0  0  0  0  0
  -29.3228  -21.5645   21.3679 C   0  0  0  0  0  0
  -29.3538  -20.6248   20.2869 C   0  0  0  0  0  0
  -29.0473  -21.2368   19.0508 C   0  0  0  0  0  0
  -28.7098  -22.5987   18.9390 C   0  0  0  0  0  0
  -28.6534  -23.4791   20.0571 C   0  0  0  0  0  0
  -28.9451  -20.5355   17.7172 C   0  0  0  0  0  0
  -28.3088  -22.9152   17.5136 C   0  0  0  0  0  0
  -28.7381  -21.6748   16.7044 C   0  0  0  0  0  0
  -30.6955  -18.5306   21.3966 C   0  0  0  0  0  0
  -28.5400  -18.0436   20.4445 C   0  0  0  0  0  0
  -31.1909  -17.0699   21.0699 C   0  0  0  0  0  0
  -28.9086  -16.5098   20.2449 C   0  0  0  0  0  0
  -29.7068  -19.0643   20.3454 C   0  0  0  0  0  0
  -27.8157  -24.8433   19.9690 C   0  0  0  0  0  0
  -28.9761  -22.9071   21.2640 N   0  0  0  0  0  0
  -30.1980  -15.9766   20.7810 N   0  0  0  0  0  0
  -31.4518  -12.5207   19.1480 H   0  0  0  0  0  0
  -30.3255  -11.4845   19.9670 H   0  0  0  0  0  0
  -29.7737  -11.7292   17.5091 H   0  0  0  0  0  0
  -29.6082  -13.4548   17.7107 H   0  0  0  0  0  0
  -27.8946  -11.2654   18.9272 H   0  0  0  0  0  0
  -27.3608  -12.4926   17.8085 H   0  0  0  0  0  0
  -27.6063  -14.2279   19.4138 H   0  0  0  0  0  0
  -28.7403  -12.2419   21.4613 H   0  0  0  0  0  0
  -28.4308  -13.9331   21.7562 H   0  0  0  0  0  0
  -25.2808   -9.5652   22.4792 H   0  0  0  0  0  0
  -24.0015   -7.4633   22.7479 H   0  0  0  0  0  0
  -21.0888   -8.8811   19.8949 H   0  0  0  0  0  0
  -22.3777  -10.9701   19.6182 H   0  0  0  0  0  0
  -21.2005   -7.6161   23.9722 H   0  0  0  0  0  0
  -21.1471   -6.0534   25.9084 H   0  0  0  0  0  0
  -22.0601   -2.7613   23.2844 H   0  0  0  0  0  0
  -22.4088  -11.9822   22.4773 H   0  0  0  0  0  0
  -21.1096  -13.1220   22.2670 H   0  0  0  0  0  0
  -24.6477  -15.8450   20.5365 H   0  0  0  0  0  0
  -26.2686  -15.6371   20.1065 H   0  0  0  0  0  0
  -26.7278  -32.5394   23.1168 H   0  0  0  0  0  0
  -25.0204  -33.9737   25.0500 H   0  0  0  0  0  0
  -22.7325  -31.3127   21.4063 H   0  0  0  0  0  0
  -23.3771  -35.9586   23.3283 H   0  0  0  0  0  0
  -24.3547  -36.8907   22.2048 H   0  0  0  0  0  0
  -23.7179  -37.6476   23.6628 H   0  0  0  0  0  0
  -26.1257  -31.5274   20.6182 H   0  0  0  0  0  0
  -26.8649  -30.8104   22.0159 H   0  0  0  0  0  0
  -28.1125  -28.8743   21.2355 H   0  0  0  0  0  0
  -25.8354  -25.9756   18.9303 H   0  0  0  0  0  0
  -23.9500  -27.3686   18.9728 H   0  0  0  0  0  0
  -23.7835  -30.6173   19.4101 H   0  0  0  0  0  0
  -22.7656  -29.2793   19.8461 H   0  0  0  0  0  0
  -25.1295  -36.1959   25.0825 H   0  0  0  0  0  0
  -21.0010  -28.3314   24.1355 H   0  0  0  0  0  0
  -20.5749  -26.2340   23.3627 H   0  0  0  0  0  0
  -21.6677  -26.7497   22.1154 H   0  0  0  0  0  0
  -19.6956  -25.6320   21.1245 H   0  0  0  0  0  0
  -19.6711  -27.3213   20.6740 H   0  0  0  0  0  0
  -17.4239  -26.6727   21.4014 H   0  0  0  0  0  0
  -18.0336  -26.0109   22.8992 H   0  0  0  0  0  0
  -19.7952  -30.7336   24.2230 H   0  0  0  0  0  0
  -17.5017  -31.6251   24.5232 H   0  0  0  0  0  0
  -15.5371  -30.3028   23.7631 H   0  0  0  0  0  0
  -15.8681  -28.0824   22.7105 H   0  0  0  0  0  0
  -24.6030  -30.6893   25.7762 H   0  0  0  0  0  0
  -24.8737  -32.2828   26.4720 H   0  0  0  0  0  0
  -25.8004  -30.9014   27.0320 H   0  0  0  0  0  0
  -26.2959  -29.6787   24.1241 H   0  0  0  0  0  0
  -27.3986  -29.7238   25.4788 H   0  0  0  0  0  0
  -27.8850  -30.4314   23.9565 H   0  0  0  0  0  0
  -27.2849  -33.3649   26.1964 H   0  0  0  0  0  0
  -28.3975  -32.6595   25.0329 H   0  0  0  0  0  0
  -28.0710  -31.8416   26.5522 H   0  0  0  0  0  0
  -28.2604  -38.0095   24.7559 H   0  0  0  0  0  0
  -28.1041  -36.2654   24.6238 H   0  0  0  0  0  0
  -27.2297  -37.1388   25.8873 H   0  0  0  0  0  0
  -20.9390  -29.8791   21.6813 H   0  0  0  0  0  0
  -26.0163  -38.2885   24.1448 H   0  0  0  0  0  0
  -29.5575  -21.2258   22.3668 H   0  0  0  0  0  0
  -28.0850  -19.8648   17.7426 H   0  0  0  0  0  0
  -29.8330  -19.9491   17.4786 H   0  0  0  0  0  0
  -28.7808  -23.8250   17.1424 H   0  0  0  0  0  0
  -27.2266  -23.0373   17.4696 H   0  0  0  0  0  0
  -28.0562  -21.4154   15.8925 H   0  0  0  0  0  0
  -29.7062  -21.8978   16.2529 H   0  0  0  0  0  0
  -31.5680  -19.1845   21.4390 H   0  0  0  0  0  0
  -30.2499  -18.5657   22.3941 H   0  0  0  0  0  0
  -28.0635  -18.1559   21.4210 H   0  0  0  0  0  0
  -27.7723  -18.3067   19.7162 H   0  0  0  0  0  0
  -31.8484  -16.7440   21.8768 H   0  0  0  0  0  0
  -31.8331  -17.1569   20.1907 H   0  0  0  0  0  0
  -28.8930  -16.2959   19.1738 H   0  0  0  0  0  0
  -28.0997  -15.9386   20.6902 H   0  0  0  0  0  0
  -30.1989  -18.8711   19.3947 H   0  0  0  0  0  0
  -26.9432  -24.6643   20.5985 H   0  0  0  0  0  0
  -27.4671  -24.8225   18.9424 H   0  0  0  0  0  0
  1 25  1  0  0  0
  1 30  2  0  0  0
  1 86  1  0  0  0
  2  3  1  0  0  0
  2 25  1  0  0  0
  2 87  1  0  0  0
  2 88  1  0  0  0
  3  4  1  0  0  0
  3 89  1  0  0  0
  3 90  1  0  0  0
  4  5  1  0  0  0
  4 91  1  0  0  0
  4 92  1  0  0  0
  5  6  1  0  0  0
  5 26  1  0  0  0
  5 93  1  0  0  0
  6 25  1  0  0  0
  6 94  1  0  0  0
  6 95  1  0  0  0
  7  8  2  0  0  0
  7 26  1  0  0  0
  7 29  1  0  0  0
  8  9  1  0  0  0
  8 22  1  0  0  0
  9 10  1  0  0  0
  9 27  2  0  0  0
 10 11  2  0  0  0
 10 15  1  0  0  0
 11 12  1  0  0  0
 11 96  1  0  0  0
 12 13  2  0  0  0
 12 97  1  0  0  0
 13 14  1  0  0  0
 13 31  1  0  0  0
 14 15  2  0  0  0
 14 98  1  0  0  0
 15 99  1  0  0  0
 16 17  2  0  0  0
 16 21  1  0  0  0
 16 31  1  0  0  0
 17 18  1  0  0  0
 17100  1  0  0  0
 18 19  2  0  0  0
 18101  1  0  0  0
 19 20  1  0  0  0
 19 24  1  0  0  0
 20 21  2  0  0  0
 20102  1  0  0  0
 21 23  1  0  0  0
 22 28  1  0  0  0
 22 32  2  0  0  0
 26 27  1  0  0  0
 28103  1  0  0  0
 28104  1  0  0  0
 29105  1  0  0  0
 29106  1  0  0  0
 33 34  1  0  0  0
 33 66  1  0  0  0
 33 70  2  0  0  0
 34 36  1  0  0  0
 34 59  1  0  0  0
 34107  1  0  0  0
 35 44  2  0  0  0
 35 45  1  0  0  0
 35 68  1  0  0  0
 36 56  1  0  0  0
 36108  1  0  0  0
 37 39  1  0  0  0
 37 47  1  0  0  0
 37 66  1  0  0  0
 37109  1  0  0  0
 38 43  2  0  0  0
 38 46  1  0  0  0
 38 47  1  0  0  0
 39 64  1  0  0  0
 39 67  2  0  0  0
 40 52  1  0  0  0
 40 53  2  0  0  0
 40 58  1  0  0  0
 41110  1  0  0  0
 41111  1  0  0  0
 41112  1  0  0  0
 41 48  1  0  0  0
 42 43  1  0  0  0
 42 66  1  0  0  0
 42113  1  0  0  0
 42114  1  0  0  0
 43 44  1  0  0  0
 44115  1  0  0  0
 45 46  2  0  0  0
 45116  1  0  0  0
 46117  1  0  0  0
 47118  1  0  0  0
 47119  1  0  0  0
 48 56  1  0  0  0
 48 65  1  0  0  0
 48120  1  0  0  0
 49 50  1  0  0  0
 49 53  1  0  0  0
 49 64  1  0  0  0
 49121  1  0  0  0
 50 51  1  0  0  0
 50122  1  0  0  0
 50123  1  0  0  0
 51 52  1  0  0  0
 51124  1  0  0  0
 51125  1  0  0  0
 52126  1  0  0  0
 52127  1  0  0  0
 53 54  1  0  0  0
 54 55  2  0  0  0
 54128  1  0  0  0
 55 57  1  0  0  0
 55129  1  0  0  0
 56 69  2  0  0  0
 57 58  2  0  0  0
 57130  1  0  0  0
 58131  1  0  0  0
 59 60  1  0  0  0
 59 61  1  0  0  0
 59 62  1  0  0  0
 60132  1  0  0  0
 60133  1  0  0  0
 60134  1  0  0  0
 61135  1  0  0  0
 61136  1  0  0  0
 61137  1  0  0  0
 62138  1  0  0  0
 62139  1  0  0  0
 62140  1  0  0  0
 63 65  1  0  0  0
 63141  1  0  0  0
 63142  1  0  0  0
 63143  1  0  0  0
 64144  1  0  0  0
 65145  1  0  0  0
 68 84  1  0  0  0
 71 72  2  0  0  0
 71 85  1  0  0  0
 71146  1  0  0  0
 72 73  1  0  0  0
 72 83  1  0  0  0
 73 74  2  0  0  0
 73 76  1  0  0  0
 74 75  1  0  0  0
 74 77  1  0  0  0
 75 84  1  0  0  0
 75 85  2  0  0  0
 76 78  1  0  0  0
 76147  1  0  0  0
 76148  1  0  0  0
 77 78  1  0  0  0
 77149  1  0  0  0
 77150  1  0  0  0
 78151  1  0  0  0
 78152  1  0  0  0
 79 81  1  0  0  0
 79 83  1  0  0  0
 79153  1  0  0  0
 79154  1  0  0  0
 80 82  1  0  0  0
 80 83  1  0  0  0
 80155  1  0  0  0
 80156  1  0  0  0
 81 86  1  0  0  0
 81157  1  0  0  0
 81158  1  0  0  0
 82 86  1  0  0  0
 82159  1  0  0  0
 82160  1  0  0  0
 83161  1  0  0  0
 84162  1  0  0  0
 84163  1  0  0  0
M  ISO  4   1 100  68 101  84 101  86 100
M  END
> <chiral flag>
0

> <version>
0

> <s_m_source_file>
/data/baiqing/PycharmProjects/Reinvent-master-3.2/result/LINK_invent/BTK/process_docking_weight1_custom_sum_contain_oxygen_bond_distance_aromatic_linkinvent_7_9_3/rearranged_h_0172.sdf

> <i_m_source_file_index>
15

> <r_mmod_Potential_Energy-OPLS-2005>
389.593597412109

> <r_mmod_Stretch_Energy-OPLS-2005>
122.972541809082

> <r_mmod_Bend_Energy-OPLS-2005>
272.131408691406

> <r_mmod_Torsional_Energy-OPLS-2005>
332.071136474609

> <r_mmod_Improper_Torsional_Energy-OPLS-2005>
8.54059219360352

> <r_mmod_Van_der_Waal_Energy-OPLS-2005>
163.110748291016

> <r_mmod_Electrostatic_Energy-OPLS-2005>
-379.324249267578

> <r_mmod_Solvation_Energy-OPLS-2005>
-227.621170043945

> <b_mmod_Minimization_Converged-OPLS-2005>
0

> <r_mmod_RMS_Derivative-OPLS-2005>
4.13462781906128

$$$$
15
                    3D
 Structure written by MMmdl.
162172  0  0  1  0            999 V2000
  -30.6356  -14.7198   20.4798 C   0  0  0  0  0  0
  -30.4313  -12.4449   19.4689 C   0  0  0  0  0  0
  -29.5073  -12.5067   18.2332 C   0  0  0  0  0  0
  -28.0340  -12.3339   18.6489 C   0  0  0  0  0  0
  -27.6436  -13.2316   19.8533 C   0  0  2  0  0  0
  -28.6896  -13.1596   20.9873 C   0  0  0  0  0  0
  -25.2517  -13.8197   20.5703 C   0  0  0  0  0  0
  -24.1806  -13.0442   20.9211 C   0  0  0  0  0  0
  -24.6398  -11.6919   20.8752 C   0  0  0  0  0  0
  -23.9073  -10.4294   21.0409 C   0  0  0  0  0  0
  -24.3622   -9.4208   21.9184 C   0  0  0  0  0  0
  -23.6296   -8.2244   22.0754 C   0  0  0  0  0  0
  -22.4278   -8.0283   21.3545 C   0  0  0  0  0  0
  -21.9917   -9.0256   20.4645 C   0  0  0  0  0  0
  -22.7247  -10.2134   20.3057 C   0  0  0  0  0  0
  -21.6853   -6.0737   22.5278 C   0  0  0  0  0  0
  -21.4013   -6.5639   23.8211 C   0  0  0  0  0  0
  -21.3660   -5.6791   24.9172 C   0  0  0  0  0  0
  -21.6044   -4.3054   24.7224 C   0  0  0  0  0  0
  -21.8818   -3.8148   23.4345 C   0  0  0  0  0  0
  -21.9192   -4.6964   22.3401 C   0  0  0  0  0  0
  -22.7825  -13.5221   21.1868 C   0  0  0  0  0  0
  -22.1662   -4.2150   21.0978 F   0  0  0  0  0  0
  -21.5629   -3.4538   25.7738 F   0  0  0  0  0  0
  -29.9925  -13.5053   20.4047 N   0  0  0  0  0  0
  -26.2948  -12.9406   20.3303 N   0  0  0  0  0  0
  -25.9330  -11.6547   20.5765 N   0  0  0  0  0  0
  -22.0474  -12.8207   22.0425 N   0  0  0  0  0  0
  -25.4203  -15.1924   20.4111 N   0  0  0  0  0  0
  -31.8211  -14.8108   20.1508 O   0  0  0  0  0  0
  -21.6641   -6.8881   21.4240 O   0  0  0  0  0  0
  -22.3506  -14.5526   20.6717 O   0  0  0  0  0  0
  -24.6334  -31.8568   23.2028 C   0  0  0  0  0  0
  -25.9158  -32.4762   23.8362 C   0  0  1  0  0  0
  -27.2069  -27.2520   20.1142 C   0  0  0  0  0  0
  -25.5954  -33.8565   24.2278 N   0  0  0  0  0  0
  -23.4294  -30.4851   21.5474 C   0  0  2  0  0  0
  -24.8746  -28.9457   20.1064 C   0  0  0  0  0  0
  -22.7515  -29.4613   22.4911 C   0  0  0  0  0  0
  -18.0293  -28.1391   22.8480 C   0  0  0  0  0  0
  -24.1488  -36.7278   23.2639 C   0  0  0  0  0  0
  -25.9807  -30.7633   21.3910 C   0  0  0  0  0  0
  -26.0500  -29.3896   20.7259 C   0  0  0  0  0  0
  -27.2177  -28.5541   20.7267 C   0  0  0  0  0  0
  -26.0092  -26.9074   19.4365 C   0  0  0  0  0  0
  -24.8608  -27.7119   19.4514 C   0  0  0  0  0  0
  -23.6475  -29.8328   20.1598 C   0  0  0  0  0  0
  -25.4117  -36.3071   24.0327 C   0  0  1  0  0  0
  -20.5901  -28.3706   23.1258 C   0  0  2  0  0  0
  -20.6786  -26.9423   22.5400 C   0  0  0  0  0  0
  -19.5759  -26.6382   21.5209 C   0  0  0  0  0  0
  -18.1935  -26.7933   22.1617 C   0  0  0  0  0  0
  -19.1549  -28.8864   23.2863 C   0  0  0  0  0  0
  -18.9472  -30.1463   23.8885 C   0  0  0  0  0  0
  -17.6471  -30.6592   24.0562 C   0  0  0  0  0  0
  -25.9061  -34.9441   23.5100 C   0  0  0  0  0  0
  -16.5361  -29.9087   23.6337 C   0  0  0  0  0  0
  -16.7280  -28.6505   23.0360 C   0  0  0  0  0  0
  -26.4516  -31.6588   25.0754 C   0  0  0  0  0  0
  -25.3728  -31.3736   26.1464 C   0  0  0  0  0  0
  -27.0376  -30.2999   24.6268 C   0  0  0  0  0  0
  -27.6059  -32.4345   25.7528 C   0  0  0  0  0  0
  -27.5578  -37.1798   24.8468 C   0  0  0  0  0  0
  -21.4221  -29.3055   22.3649 N   0  0  0  0  0  0
  -26.4291  -37.3772   23.9409 N   0  0  0  0  0  0
  -24.7003  -31.0525   22.1023 N   0  0  0  0  0  0
  -23.4211  -28.8133   23.2998 O   0  0  0  0  0  0
  -28.2624  -26.2989   20.2001 O   0  0  0  0  0  0
  -26.5624  -34.8912   22.4663 O   0  0  0  0  0  0
  -23.5482  -32.1401   23.7312 O   0  0  0  0  0  0
  -28.8721  -21.4637   21.5790 C   0  0  0  0  0  0
  -28.4525  -22.8282   21.4314 C   0  0  0  0  0  0
  -28.6845  -23.5329   20.2134 C   0  0  0  0  0  0
  -29.3754  -22.7448   19.2425 C   0  0  0  0  0  0
  -29.5192  -20.7286   20.5521 C   0  0  0  0  0  0
  -28.1868  -24.7663   23.1811 C   0  0  0  0  0  0
  -28.2617  -23.4768   23.9642 C   0  0  0  0  0  0
  -29.6260  -18.3496   21.6629 C   0  0  0  0  0  0
  -29.9772  -18.3082   19.6286 C   0  0  0  0  0  0
  -27.7050  -23.4762   22.5594 C   0  0  0  0  0  0
  -30.3853  -17.3060   20.7675 C   0  0  0  0  0  0
  -29.6915  -23.3059   17.8691 C   0  0  0  0  0  0
  -27.9050  -24.8809   19.8373 C   0  0  0  0  0  0
  -29.7620  -21.4348   19.4146 N   0  0  0  0  0  0
  -30.0521  -19.3546   20.6699 N   0  0  0  0  0  0
  -29.8952  -15.8601   20.7332 N   0  0  0  0  0  0
  -31.4724  -12.5644   19.1640 H   0  0  0  0  0  0
  -30.3718  -11.4669   19.9490 H   0  0  0  0  0  0
  -29.7855  -11.7352   17.5141 H   0  0  0  0  0  0
  -29.6354  -13.4627   17.7229 H   0  0  0  0  0  0
  -27.8888  -11.2847   18.9093 H   0  0  0  0  0  0
  -27.3753  -12.5301   17.8020 H   0  0  0  0  0  0
  -27.6402  -14.2545   19.4764 H   0  0  0  0  0  0
  -28.7211  -12.1607   21.4250 H   0  0  0  0  0  0
  -28.4287  -13.8404   21.7992 H   0  0  0  0  0  0
  -25.2764   -9.5679   22.4761 H   0  0  0  0  0  0
  -24.0002   -7.4633   22.7475 H   0  0  0  0  0  0
  -21.0849   -8.8774   19.8948 H   0  0  0  0  0  0
  -22.3705  -10.9674   19.6169 H   0  0  0  0  0  0
  -21.2007   -7.6147   23.9715 H   0  0  0  0  0  0
  -21.1482   -6.0522   25.9076 H   0  0  0  0  0  0
  -22.0598   -2.7610   23.2844 H   0  0  0  0  0  0
  -22.4099  -11.9870   22.4807 H   0  0  0  0  0  0
  -21.1093  -13.1222   22.2641 H   0  0  0  0  0  0
  -24.6495  -15.8434   20.5155 H   0  0  0  0  0  0
  -26.2616  -15.6307   20.0592 H   0  0  0  0  0  0
  -26.7222  -32.5410   23.1099 H   0  0  0  0  0  0
  -25.0120  -33.9711   25.0437 H   0  0  0  0  0  0
  -22.7260  -31.3086   21.4073 H   0  0  0  0  0  0
  -23.3756  -35.9606   23.3304 H   0  0  0  0  0  0
  -24.3574  -36.8902   22.2053 H   0  0  0  0  0  0
  -23.7239  -37.6477   23.6668 H   0  0  0  0  0  0
  -26.1300  -31.5271   20.6264 H   0  0  0  0  0  0
  -26.8542  -30.8033   22.0298 H   0  0  0  0  0  0
  -28.1084  -28.8824   21.2432 H   0  0  0  0  0  0
  -25.8968  -25.9838   18.8911 H   0  0  0  0  0  0
  -23.9668  -27.3727   18.9462 H   0  0  0  0  0  0
  -23.7744  -30.6157   19.4111 H   0  0  0  0  0  0
  -22.7644  -29.2713   19.8491 H   0  0  0  0  0  0
  -25.1299  -36.1918   25.0820 H   0  0  0  0  0  0
  -20.9991  -28.3288   24.1381 H   0  0  0  0  0  0
  -20.5694  -26.2318   23.3607 H   0  0  0  0  0  0
  -21.6653  -26.7449   22.1193 H   0  0  0  0  0  0
  -19.6924  -25.6287   21.1254 H   0  0  0  0  0  0
  -19.6700  -27.3180   20.6729 H   0  0  0  0  0  0
  -17.4208  -26.6680   21.4014 H   0  0  0  0  0  0
  -18.0332  -26.0076   22.9012 H   0  0  0  0  0  0
  -19.7949  -30.7280   24.2252 H   0  0  0  0  0  0
  -17.5029  -31.6274   24.5161 H   0  0  0  0  0  0
  -15.5365  -30.2990   23.7673 H   0  0  0  0  0  0
  -15.8676  -28.0824   22.7090 H   0  0  0  0  0  0
  -24.5931  -30.7052   25.7794 H   0  0  0  0  0  0
  -24.8884  -32.2898   26.4851 H   0  0  0  0  0  0
  -25.8040  -30.8952   27.0266 H   0  0  0  0  0  0
  -26.2978  -29.6736   24.1269 H   0  0  0  0  0  0
  -27.4019  -29.7277   25.4809 H   0  0  0  0  0  0
  -27.8873  -30.4267   23.9554 H   0  0  0  0  0  0
  -27.2660  -33.3661   26.2067 H   0  0  0  0  0  0
  -28.3883  -32.6885   25.0363 H   0  0  0  0  0  0
  -28.0710  -31.8499   26.5477 H   0  0  0  0  0  0
  -28.2596  -38.0094   24.7517 H   0  0  0  0  0  0
  -28.1074  -36.2626   24.6297 H   0  0  0  0  0  0
  -27.2292  -37.1450   25.8870 H   0  0  0  0  0  0
  -20.9408  -29.8799   21.6871 H   0  0  0  0  0  0
  -26.0167  -38.2844   24.1416 H   0  0  0  0  0  0
  -28.6774  -20.9654   22.5185 H   0  0  0  0  0  0
  -29.1205  -25.1877   22.8131 H   0  0  0  0  0  0
  -27.4342  -25.4904   23.4865 H   0  0  0  0  0  0
  -27.5599  -23.3565   24.7869 H   0  0  0  0  0  0
  -29.2485  -23.0459   24.1232 H   0  0  0  0  0  0
  -30.0551  -18.4955   22.6551 H   0  0  0  0  0  0
  -28.5417  -18.2212   21.6953 H   0  0  0  0  0  0
  -28.9663  -18.1703   19.2389 H   0  0  0  0  0  0
  -30.7154  -18.4189   18.8332 H   0  0  0  0  0  0
  -26.6308  -23.3403   22.4446 H   0  0  0  0  0  0
  -31.4612  -17.3578   20.9563 H   0  0  0  0  0  0
  -30.0207  -24.3429   17.9392 H   0  0  0  0  0  0
  -28.8103  -23.2638   17.2289 H   0  0  0  0  0  0
  -30.4878  -22.7418   17.3822 H   0  0  0  0  0  0
  -26.9194  -24.6796   20.2577 H   0  0  0  0  0  0
  -27.7640  -24.8671   18.7571 H   0  0  0  0  0  0
  -28.9187  -15.7130   20.9369 H   0  0  0  0  0  0
  1 25  1  0  0  0
  1 30  2  0  0  0
  1 86  1  0  0  0
  2  3  1  0  0  0
  2 25  1  0  0  0
  2 87  1  0  0  0
  2 88  1  0  0  0
  3  4  1  0  0  0
  3 89  1  0  0  0
  3 90  1  0  0  0
  4  5  1  0  0  0
  4 91  1  0  0  0
  4 92  1  0  0  0
  5  6  1  0  0  0
  5 26  1  0  0  0
  5 93  1  0  0  0
  6 25  1  0  0  0
  6 94  1  0  0  0
  6 95  1  0  0  0
  7  8  2  0  0  0
  7 26  1  0  0  0
  7 29  1  0  0  0
  8  9  1  0  0  0
  8 22  1  0  0  0
  9 10  1  0  0  0
  9 27  2  0  0  0
 10 11  2  0  0  0
 10 15  1  0  0  0
 11 12  1  0  0  0
 11 96  1  0  0  0
 12 13  2  0  0  0
 12 97  1  0  0  0
 13 14  1  0  0  0
 13 31  1  0  0  0
 14 15  2  0  0  0
 14 98  1  0  0  0
 15 99  1  0  0  0
 16 17  2  0  0  0
 16 21  1  0  0  0
 16 31  1  0  0  0
 17 18  1  0  0  0
 17100  1  0  0  0
 18 19  2  0  0  0
 18101  1  0  0  0
 19 20  1  0  0  0
 19 24  1  0  0  0
 20 21  2  0  0  0
 20102  1  0  0  0
 21 23  1  0  0  0
 22 28  1  0  0  0
 22 32  2  0  0  0
 26 27  1  0  0  0
 28103  1  0  0  0
 28104  1  0  0  0
 29105  1  0  0  0
 29106  1  0  0  0
 33 34  1  0  0  0
 33 66  1  0  0  0
 33 70  2  0  0  0
 34 36  1  0  0  0
 34 59  1  0  0  0
 34107  1  0  0  0
 35 44  2  0  0  0
 35 45  1  0  0  0
 35 68  1  0  0  0
 36 56  1  0  0  0
 36108  1  0  0  0
 37 39  1  0  0  0
 37 47  1  0  0  0
 37 66  1  0  0  0
 37109  1  0  0  0
 38 43  2  0  0  0
 38 46  1  0  0  0
 38 47  1  0  0  0
 39 64  1  0  0  0
 39 67  2  0  0  0
 40 52  1  0  0  0
 40 53  2  0  0  0
 40 58  1  0  0  0
 41110  1  0  0  0
 41111  1  0  0  0
 41112  1  0  0  0
 41 48  1  0  0  0
 42 43  1  0  0  0
 42 66  1  0  0  0
 42113  1  0  0  0
 42114  1  0  0  0
 43 44  1  0  0  0
 44115  1  0  0  0
 45 46  2  0  0  0
 45116  1  0  0  0
 46117  1  0  0  0
 47118  1  0  0  0
 47119  1  0  0  0
 48 56  1  0  0  0
 48 65  1  0  0  0
 48120  1  0  0  0
 49 50  1  0  0  0
 49 53  1  0  0  0
 49 64  1  0  0  0
 49121  1  0  0  0
 50 51  1  0  0  0
 50122  1  0  0  0
 50123  1  0  0  0
 51 52  1  0  0  0
 51124  1  0  0  0
 51125  1  0  0  0
 52126  1  0  0  0
 52127  1  0  0  0
 53 54  1  0  0  0
 54 55  2  0  0  0
 54128  1  0  0  0
 55 57  1  0  0  0
 55129  1  0  0  0
 56 69  2  0  0  0
 57 58  2  0  0  0
 57130  1  0  0  0
 58131  1  0  0  0
 59 60  1  0  0  0
 59 61  1  0  0  0
 59 62  1  0  0  0
 60132  1  0  0  0
 60133  1  0  0  0
 60134  1  0  0  0
 61135  1  0  0  0
 61136  1  0  0  0
 61137  1  0  0  0
 62138  1  0  0  0
 62139  1  0  0  0
 62140  1  0  0  0
 63 65  1  0  0  0
 63141  1  0  0  0
 63142  1  0  0  0
 63143  1  0  0  0
 64144  1  0  0  0
 65145  1  0  0  0
 68 83  1  0  0  0
 71 72  2  0  0  0
 71 75  1  0  0  0
 71146  1  0  0  0
 72 73  1  0  0  0
 72 80  1  0  0  0
 73 74  2  0  0  0
 73 83  1  0  0  0
 74 82  1  0  0  0
 74 84  1  0  0  0
 75 84  2  0  0  0
 75 85  1  0  0  0
 76 77  1  0  0  0
 76 80  1  0  0  0
 76147  1  0  0  0
 76148  1  0  0  0
 77 80  1  0  0  0
 77149  1  0  0  0
 77150  1  0  0  0
 78 81  1  0  0  0
 78 85  1  0  0  0
 78151  1  0  0  0
 78152  1  0  0  0
 79 81  1  0  0  0
 79 85  1  0  0  0
 79153  1  0  0  0
 79154  1  0  0  0
 80155  1  0  0  0
 81 86  1  0  0  0
 81156  1  0  0  0
 82157  1  0  0  0
 82158  1  0  0  0
 82159  1  0  0  0
 83160  1  0  0  0
 83161  1  0  0  0
 86162  1  0  0  0
M  ISO  4   1 100  68 101  83 101  86 100
M  END
> <chiral flag>
0

> <version>
0

> <s_m_source_file>
/data/baiqing/PycharmProjects/Reinvent-master-3.2/result/LINK_invent/BTK/process_docking_weight1_custom_sum_contain_oxygen_bond_distance_aromatic_linkinvent_7_9_3/rearranged_h_0172.sdf

> <i_m_source_file_index>
16

> <r_mmod_Potential_Energy-OPLS-2005>
5.7866096496582

> <r_mmod_Stretch_Energy-OPLS-2005>
107.058837890625

> <r_mmod_Bend_Energy-OPLS-2005>
231.29426574707

> <r_mmod_Torsional_Energy-OPLS-2005>
274.018585205078

> <r_mmod_Improper_Torsional_Energy-OPLS-2005>
14.3947095870972

> <r_mmod_Van_der_Waal_Energy-OPLS-2005>
149.66471862793

> <r_mmod_Electrostatic_Energy-OPLS-2005>
-609.573120117188

> <r_mmod_Solvation_Energy-OPLS-2005>
-249.986587524414

> <b_mmod_Minimization_Converged-OPLS-2005>
0

> <r_mmod_RMS_Derivative-OPLS-2005>
0.537411510944366

$$$$
16
                    3D
 Structure written by MMmdl.
177188  0  0  1  0            999 V2000
  -30.7175  -14.4867   20.4368 C   0  0  0  0  0  0
  -30.4139  -12.2858   19.4137 C   0  0  0  0  0  0
  -29.4791  -12.4272   18.1950 C   0  0  0  0  0  0
  -28.0018  -12.3194   18.6215 C   0  0  0  0  0  0
  -27.6501  -13.1999   19.8524 C   0  0  2  0  0  0
  -28.7090  -13.0465   20.9708 C   0  0  0  0  0  0
  -25.2577  -13.8158   20.5697 C   0  0  0  0  0  0
  -24.1836  -13.0441   20.9218 C   0  0  0  0  0  0
  -24.6384  -11.6902   20.8785 C   0  0  0  0  0  0
  -23.9055  -10.4290   21.0440 C   0  0  0  0  0  0
  -24.3615   -9.4201   21.9208 C   0  0  0  0  0  0
  -23.6292   -8.2235   22.0762 C   0  0  0  0  0  0
  -22.4275   -8.0292   21.3555 C   0  0  0  0  0  0
  -21.9907   -9.0264   20.4658 C   0  0  0  0  0  0
  -22.7231  -10.2141   20.3079 C   0  0  0  0  0  0
  -21.6843   -6.0747   22.5286 C   0  0  0  0  0  0
  -21.4008   -6.5645   23.8224 C   0  0  0  0  0  0
  -21.3653   -5.6796   24.9187 C   0  0  0  0  0  0
  -21.6043   -4.3064   24.7231 C   0  0  0  0  0  0
  -21.8818   -3.8158   23.4354 C   0  0  0  0  0  0
  -21.9186   -4.6976   22.3412 C   0  0  0  0  0  0
  -22.7855  -13.5239   21.1866 C   0  0  0  0  0  0
  -22.1652   -4.2167   21.0988 F   0  0  0  0  0  0
  -21.5629   -3.4539   25.7745 F   0  0  0  0  0  0
  -30.0184  -13.3240   20.3726 N   0  0  0  0  0  0
  -26.2984  -12.9306   20.3340 N   0  0  0  0  0  0
  -25.9311  -11.6485   20.5824 N   0  0  0  0  0  0
  -22.0490  -12.8253   22.0430 N   0  0  0  0  0  0
  -25.4289  -15.1875   20.4057 N   0  0  0  0  0  0
  -31.9465  -14.4941   20.3513 O   0  0  0  0  0  0
  -21.6628   -6.8894   21.4253 O   0  0  0  0  0  0
  -22.3537  -14.5524   20.6678 O   0  0  0  0  0  0
  -24.6077  -31.8727   23.2139 C   0  0  0  0  0  0
  -25.8996  -32.4853   23.8422 C   0  0  1  0  0  0
  -27.2440  -27.4894   20.1146 C   0  0  0  0  0  0
  -25.5875  -33.8648   24.2361 N   0  0  0  0  0  0
  -23.3931  -30.4949   21.5525 C   0  0  2  0  0  0
  -24.8426  -28.9628   20.1249 C   0  0  0  0  0  0
  -22.7373  -29.4680   22.5021 C   0  0  0  0  0  0
  -18.0263  -28.1372   22.8496 C   0  0  0  0  0  0
  -24.1484  -36.7333   23.2638 C   0  0  0  0  0  0
  -25.9126  -30.8620   21.3522 C   0  0  0  0  0  0
  -25.9965  -29.4954   20.7131 C   0  0  0  0  0  0
  -27.2008  -28.7674   20.7073 C   0  0  0  0  0  0
  -26.0690  -26.9417   19.5574 C   0  0  0  0  0  0
  -24.8703  -27.6809   19.5465 C   0  0  0  0  0  0
  -23.6003  -29.8225   20.1683 C   0  0  0  0  0  0
  -25.4102  -36.3133   24.0345 C   0  0  1  0  0  0
  -20.5845  -28.3648   23.1340 C   0  0  2  0  0  0
  -20.6754  -26.9393   22.5424 C   0  0  0  0  0  0
  -19.5737  -26.6387   21.5213 C   0  0  0  0  0  0
  -18.1912  -26.7922   22.1622 C   0  0  0  0  0  0
  -19.1509  -28.8827   23.2916 C   0  0  0  0  0  0
  -18.9443  -30.1434   23.8923 C   0  0  0  0  0  0
  -17.6446  -30.6580   24.0568 C   0  0  0  0  0  0
  -25.9019  -34.9492   23.5149 C   0  0  0  0  0  0
  -16.5336  -29.9086   23.6321 C   0  0  0  0  0  0
  -16.7253  -28.6501   23.0345 C   0  0  0  0  0  0
  -26.4457  -31.6607   25.0714 C   0  0  0  0  0  0
  -25.3759  -31.3687   26.1488 C   0  0  0  0  0  0
  -27.0271  -30.3067   24.6018 C   0  0  0  0  0  0
  -27.6056  -32.4308   25.7458 C   0  0  0  0  0  0
  -27.5585  -37.1815   24.8466 C   0  0  0  0  0  0
  -21.4109  -29.3025   22.3758 N   0  0  0  0  0  0
  -26.4299  -37.3808   23.9409 N   0  0  0  0  0  0
  -24.6562  -31.0889   22.1002 N   0  0  0  0  0  0
  -23.4172  -28.8229   23.3049 O   0  0  0  0  0  0
  -28.4161  -26.7811   20.0517 O   0  0  0  0  0  0
  -26.5579  -34.8936   22.4709 O   0  0  0  0  0  0
  -23.5287  -32.1441   23.7579 O   0  0  0  0  0  0
  -28.6974  -20.1737   18.0662 C   0  0  0  0  0  0
  -27.5724  -18.7454   16.4397 C   0  0  0  0  0  0
  -28.2495  -18.8882   17.6780 C   0  0  0  0  0  0
  -28.5434  -21.1982   17.1163 C   0  0  0  0  0  0
  -27.9502  -20.9321   15.9046 C   0  0  0  0  0  0
  -28.1458  -22.1212   15.0078 C   0  0  0  0  0  0
  -30.2034  -17.4950   18.2544 C   0  0  0  0  0  0
  -28.4240  -17.5801   19.9345 C   0  0  0  0  0  0
  -30.4737  -22.7309   17.7600 C   0  0  0  0  0  0
  -28.1056  -23.6211   17.7113 C   0  0  0  0  0  0
  -30.6505  -16.0965   18.6398 C   0  0  0  0  0  0
  -29.0870  -16.3663   20.6626 C   0  0  0  0  0  0
  -30.9746  -24.1860   17.8780 C   0  0  0  0  0  0
  -28.7080  -25.0328   17.6367 C   0  0  0  0  0  0
  -28.7001  -17.6361   18.4256 C   0  0  0  0  0  0
  -29.0823  -22.6080   17.0923 C   0  0  2  0  0  0
  -30.4749  -26.4317   18.7859 C   0  0  0  0  0  0
  -29.4188  -27.4393   19.2760 C   0  0  0  0  0  0
  -27.4205  -19.7491   15.5416 N   0  0  0  0  0  0
  -30.0599  -15.5486   19.8895 N   0  0  0  0  0  0
  -29.9407  -25.0785   18.4649 N   0  3  2  0  0  0
  -29.1325  -22.9275   15.6887 O   0  0  0  0  0  0
  -31.4545  -12.3798   19.0986 H   0  0  0  0  0  0
  -30.3216  -11.2956   19.8642 H   0  0  0  0  0  0
  -29.7060  -11.6550   17.4584 H   0  0  0  0  0  0
  -29.6465  -13.3763   17.6905 H   0  0  0  0  0  0
  -27.8058  -11.2707   18.8493 H   0  0  0  0  0  0
  -27.3529  -12.5696   17.7816 H   0  0  0  0  0  0
  -27.6632  -14.2275   19.4927 H   0  0  0  0  0  0
  -28.6969  -12.0330   21.3747 H   0  0  0  0  0  0
  -28.5116  -13.7038   21.8177 H   0  0  0  0  0  0
  -25.2766   -9.5660   22.4779 H   0  0  0  0  0  0
  -24.0003   -7.4610   22.7459 H   0  0  0  0  0  0
  -21.0845   -8.8777   19.8959 H   0  0  0  0  0  0
  -22.3704  -10.9682   19.6189 H   0  0  0  0  0  0
  -21.2000   -7.6154   23.9731 H   0  0  0  0  0  0
  -21.1471   -6.0535   25.9085 H   0  0  0  0  0  0
  -22.0603   -2.7622   23.2854 H   0  0  0  0  0  0
  -22.4084  -11.9908   22.4832 H   0  0  0  0  0  0
  -21.1109  -13.1297   22.2619 H   0  0  0  0  0  0
  -24.6674  -15.8468   20.5237 H   0  0  0  0  0  0
  -26.2858  -15.6223   20.0911 H   0  0  0  0  0  0
  -26.7077  -32.5605   23.1209 H   0  0  0  0  0  0
  -25.0041  -33.9824   25.0514 H   0  0  0  0  0  0
  -22.6789  -31.3088   21.4134 H   0  0  0  0  0  0
  -23.3739  -35.9675   23.3317 H   0  0  0  0  0  0
  -24.3583  -36.8925   22.2050 H   0  0  0  0  0  0
  -23.7243  -37.6550   23.6633 H   0  0  0  0  0  0
  -26.0029  -31.6235   20.5760 H   0  0  0  0  0  0
  -26.8083  -30.9310   21.9573 H   0  0  0  0  0  0
  -28.0902  -29.1875   21.1564 H   0  0  0  0  0  0
  -26.0759  -25.9524   19.1248 H   0  0  0  0  0  0
  -23.9786  -27.2563   19.1056 H   0  0  0  0  0  0
  -23.7041  -30.5938   19.4048 H   0  0  0  0  0  0
  -22.7280  -29.2354   19.8763 H   0  0  0  0  0  0
  -25.1275  -36.2012   25.0840 H   0  0  0  0  0  0
  -20.9937  -28.3204   24.1459 H   0  0  0  0  0  0
  -20.5653  -26.2254   23.3602 H   0  0  0  0  0  0
  -21.6626  -26.7442   22.1214 H   0  0  0  0  0  0
  -19.6898  -25.6305   21.1224 H   0  0  0  0  0  0
  -19.6681  -27.3215   20.6758 H   0  0  0  0  0  0
  -17.4187  -26.6677   21.4018 H   0  0  0  0  0  0
  -18.0309  -26.0053   22.9006 H   0  0  0  0  0  0
  -19.7921  -30.7242   24.2305 H   0  0  0  0  0  0
  -17.5003  -31.6264   24.5165 H   0  0  0  0  0  0
  -15.5337  -30.2997   23.7634 H   0  0  0  0  0  0
  -15.8652  -28.0832   22.7044 H   0  0  0  0  0  0
  -24.5911  -30.7057   25.7831 H   0  0  0  0  0  0
  -24.8978  -32.2836   26.4997 H   0  0  0  0  0  0
  -25.8140  -30.8812   27.0206 H   0  0  0  0  0  0
  -26.2774  -29.6826   24.1139 H   0  0  0  0  0  0
  -27.4150  -29.7298   25.4423 H   0  0  0  0  0  0
  -27.8559  -30.4417   23.9065 H   0  0  0  0  0  0
  -27.2692  -33.3582   26.2105 H   0  0  0  0  0  0
  -28.3822  -32.6910   25.0252 H   0  0  0  0  0  0
  -28.0776  -31.8390   26.5312 H   0  0  0  0  0  0
  -28.2617  -38.0098   24.7505 H   0  0  0  0  0  0
  -28.1065  -36.2632   24.6296 H   0  0  0  0  0  0
  -27.2305  -37.1476   25.8870 H   0  0  0  0  0  0
  -20.9259  -29.8749   21.6988 H   0  0  0  0  0  0
  -26.0196  -38.2892   24.1407 H   0  0  0  0  0  0
  -29.2489  -20.3322   18.9808 H   0  0  0  0  0  0
  -27.2354  -17.7738   16.1071 H   0  0  0  0  0  0
  -27.2078  -22.6692   14.9088 H   0  0  0  0  0  0
  -28.4928  -21.8319   14.0160 H   0  0  0  0  0  0
  -30.4905  -17.6762   17.2167 H   0  0  0  0  0  0
  -30.7345  -18.2390   18.8512 H   0  0  0  0  0  0
  -28.7948  -18.4911   20.4038 H   0  0  0  0  0  0
  -27.3475  -17.5799   20.1122 H   0  0  0  0  0  0
  -30.4280  -22.3193   18.7686 H   0  0  0  0  0  0
  -31.2079  -22.1300   17.2231 H   0  0  0  0  0  0
  -27.1444  -23.6057   17.1965 H   0  0  0  0  0  0
  -27.8927  -23.3586   18.7490 H   0  0  0  0  0  0
  -31.7422  -16.1164   18.6528 H   0  0  0  0  0  0
  -30.3859  -15.4249   17.8243 H   0  0  0  0  0  0
  -28.2916  -15.7351   21.0460 H   0  0  0  0  0  0
  -29.5956  -16.7349   21.5551 H   0  0  0  0  0  0
  -31.2562  -24.5580   16.8916 H   0  0  0  0  0  0
  -31.8787  -24.2084   18.4886 H   0  0  0  0  0  0
  -27.9512  -25.7394   17.9532 H   0  0  0  0  0  0
  -28.9409  -25.3073   16.6067 H   0  0  0  0  0  0
  -28.2109  -16.7777   17.9598 H   0  0  0  0  0  0
  -31.2230  -26.3111   19.5710 H   0  0  0  0  0  0
  -30.9984  -26.8518   17.9263 H   0  0  0  0  0  0
  -28.9661  -27.9243   18.4083 H   0  0  0  0  0  0
  -29.8969  -28.2273   19.8597 H   0  0  0  0  0  0
  -29.6819  -24.6935   19.3631 H   0  0  0  0  0  0
  1 25  1  0  0  0
  1 30  2  0  0  0
  1 90  1  0  0  0
  2  3  1  0  0  0
  2 25  1  0  0  0
  2 93  1  0  0  0
  2 94  1  0  0  0
  3  4  1  0  0  0
  3 95  1  0  0  0
  3 96  1  0  0  0
  4  5  1  0  0  0
  4 97  1  0  0  0
  4 98  1  0  0  0
  5  6  1  0  0  0
  5 26  1  0  0  0
  5 99  1  0  0  0
  6 25  1  0  0  0
  6100  1  0  0  0
  6101  1  0  0  0
  7  8  2  0  0  0
  7 26  1  0  0  0
  7 29  1  0  0  0
  8  9  1  0  0  0
  8 22  1  0  0  0
  9 10  1  0  0  0
  9 27  2  0  0  0
 10 11  2  0  0  0
 10 15  1  0  0  0
 11 12  1  0  0  0
 11102  1  0  0  0
 12 13  2  0  0  0
 12103  1  0  0  0
 13 14  1  0  0  0
 13 31  1  0  0  0
 14 15  2  0  0  0
 14104  1  0  0  0
 15105  1  0  0  0
 16 17  2  0  0  0
 16 21  1  0  0  0
 16 31  1  0  0  0
 17 18  1  0  0  0
 17106  1  0  0  0
 18 19  2  0  0  0
 18107  1  0  0  0
 19 20  1  0  0  0
 19 24  1  0  0  0
 20 21  2  0  0  0
 20108  1  0  0  0
 21 23  1  0  0  0
 22 28  1  0  0  0
 22 32  2  0  0  0
 26 27  1  0  0  0
 28109  1  0  0  0
 28110  1  0  0  0
 29111  1  0  0  0
 29112  1  0  0  0
 33 34  1  0  0  0
 33 66  1  0  0  0
 33 70  2  0  0  0
 34 36  1  0  0  0
 34 59  1  0  0  0
 34113  1  0  0  0
 35 44  2  0  0  0
 35 45  1  0  0  0
 35 68  1  0  0  0
 36 56  1  0  0  0
 36114  1  0  0  0
 37 39  1  0  0  0
 37 47  1  0  0  0
 37 66  1  0  0  0
 37115  1  0  0  0
 38 43  2  0  0  0
 38 46  1  0  0  0
 38 47  1  0  0  0
 39 64  1  0  0  0
 39 67  2  0  0  0
 40 52  1  0  0  0
 40 53  2  0  0  0
 40 58  1  0  0  0
 41116  1  0  0  0
 41117  1  0  0  0
 41118  1  0  0  0
 41 48  1  0  0  0
 42 43  1  0  0  0
 42 66  1  0  0  0
 42119  1  0  0  0
 42120  1  0  0  0
 43 44  1  0  0  0
 44121  1  0  0  0
 45 46  2  0  0  0
 45122  1  0  0  0
 46123  1  0  0  0
 47124  1  0  0  0
 47125  1  0  0  0
 48 56  1  0  0  0
 48 65  1  0  0  0
 48126  1  0  0  0
 49 50  1  0  0  0
 49 53  1  0  0  0
 49 64  1  0  0  0
 49127  1  0  0  0
 50 51  1  0  0  0
 50128  1  0  0  0
 50129  1  0  0  0
 51 52  1  0  0  0
 51130  1  0  0  0
 51131  1  0  0  0
 52132  1  0  0  0
 52133  1  0  0  0
 53 54  1  0  0  0
 54 55  2  0  0  0
 54134  1  0  0  0
 55 57  1  0  0  0
 55135  1  0  0  0
 56 69  2  0  0  0
 57 58  2  0  0  0
 57136  1  0  0  0
 58137  1  0  0  0
 59 60  1  0  0  0
 59 61  1  0  0  0
 59 62  1  0  0  0
 60138  1  0  0  0
 60139  1  0  0  0
 60140  1  0  0  0
 61141  1  0  0  0
 61142  1  0  0  0
 61143  1  0  0  0
 62144  1  0  0  0
 62145  1  0  0  0
 62146  1  0  0  0
 63 65  1  0  0  0
 63147  1  0  0  0
 63148  1  0  0  0
 63149  1  0  0  0
 64150  1  0  0  0
 65151  1  0  0  0
 68 88  1  0  0  0
 71 73  2  0  0  0
 71 74  1  0  0  0
 71152  1  0  0  0
 72 73  1  0  0  0
 72 89  2  0  0  0
 72153  1  0  0  0
 73 85  1  0  0  0
 74 75  2  0  0  0
 74 86  1  0  0  0
 75 76  1  0  0  0
 75 89  1  0  0  0
 76 92  1  0  0  0
 76154  1  0  0  0
 76155  1  0  0  0
 77 81  1  0  0  0
 77 85  1  0  0  0
 77156  1  0  0  0
 77157  1  0  0  0
 78 82  1  0  0  0
 78 85  1  0  0  0
 78158  1  0  0  0
 78159  1  0  0  0
 79 83  1  0  0  0
 79160  1  0  0  0
 79161  1  0  0  0
 79 86  1  0  0  0
 80 84  1  0  0  0
 80 86  1  0  0  0
 80162  1  0  0  0
 80163  1  0  0  0
 81 90  1  0  0  0
 81164  1  0  0  0
 81165  1  0  0  0
 82 90  1  0  0  0
 82166  1  0  0  0
 82167  1  0  0  0
 83 91  1  0  0  0
 83168  1  0  0  0
 83169  1  0  0  0
 84 91  1  0  0  0
 84170  1  0  0  0
 84171  1  0  0  0
 85172  1  0  0  0
 86 92  1  0  0  0
 87 88  1  0  0  0
 87173  1  0  0  0
 87174  1  0  0  0
 87 91  1  0  0  0
 88175  1  0  0  0
 88176  1  0  0  0
 91177  1  0  0  0
M  CHG  1  91   1
M  ISO  4   1 100  68 101  88 101  90 100
M  END
> <chiral flag>
0

> <version>
0

> <s_m_source_file>
/data/baiqing/PycharmProjects/Reinvent-master-3.2/result/LINK_invent/BTK/process_docking_weight1_custom_sum_contain_oxygen_bond_distance_aromatic_linkinvent_7_9_3/rearranged_h_0172.sdf

> <i_m_source_file_index>
17

> <r_mmod_Potential_Energy-OPLS-2005>
181.346099853516

> <r_mmod_Stretch_Energy-OPLS-2005>
43.9026412963867

> <r_mmod_Bend_Energy-OPLS-2005>
174.205490112305

> <r_mmod_Torsional_Energy-OPLS-2005>
452.917022705078

> <r_mmod_Improper_Torsional_Energy-OPLS-2005>
30.1136455535889

> <r_mmod_Van_der_Waal_Energy-OPLS-2005>
170.421615600586

> <r_mmod_Electrostatic_Energy-OPLS-2005>
-302.594573974609

> <r_mmod_Solvation_Energy-OPLS-2005>
-420.300048828125

> <b_mmod_Minimization_Converged-OPLS-2005>
0

> <r_mmod_RMS_Derivative-OPLS-2005>
1.65257084369659

$$$$
17
                    3D
 Structure written by MMmdl.
173182  0  0  1  0            999 V2000
  -30.6279  -14.9001   20.4245 C   0  0  0  0  0  0
  -30.4180  -12.5674   19.4815 C   0  0  0  0  0  0
  -29.5020  -12.5128   18.2416 C   0  0  0  0  0  0
  -28.0406  -12.2963   18.6719 C   0  0  0  0  0  0
  -27.6192  -13.2385   19.8288 C   0  0  2  0  0  0
  -28.6686  -13.3077   20.9593 C   0  0  0  0  0  0
  -25.2435  -13.8186   20.5726 C   0  0  0  0  0  0
  -24.1752  -13.0420   20.9250 C   0  0  0  0  0  0
  -24.6367  -11.6906   20.8792 C   0  0  0  0  0  0
  -23.9059  -10.4282   21.0430 C   0  0  0  0  0  0
  -24.3614   -9.4193   21.9197 C   0  0  0  0  0  0
  -23.6289   -8.2230   22.0757 C   0  0  0  0  0  0
  -22.4272   -8.0273   21.3545 C   0  0  0  0  0  0
  -21.9909   -9.0248   20.4646 C   0  0  0  0  0  0
  -22.7240  -10.2127   20.3062 C   0  0  0  0  0  0
  -21.6849   -6.0733   22.5280 C   0  0  0  0  0  0
  -21.4010   -6.5640   23.8213 C   0  0  0  0  0  0
  -21.3659   -5.6792   24.9176 C   0  0  0  0  0  0
  -21.6040   -4.3053   24.7227 C   0  0  0  0  0  0
  -21.8819   -3.8146   23.4348 C   0  0  0  0  0  0
  -21.9192   -4.6961   22.3404 C   0  0  0  0  0  0
  -22.7775  -13.5200   21.1893 C   0  0  0  0  0  0
  -22.1659   -4.2148   21.0979 F   0  0  0  0  0  0
  -21.5633   -3.4536   25.7741 F   0  0  0  0  0  0
  -29.9425  -13.6909   20.3389 N   0  0  0  0  0  0
  -26.2840  -12.9398   20.3260 N   0  0  0  0  0  0
  -25.9294  -11.6541   20.5783 N   0  0  0  0  0  0
  -22.0421  -12.8191   22.0448 N   0  0  0  0  0  0
  -25.4099  -15.1910   20.4122 N   0  0  0  0  0  0
  -31.8451  -14.8518   20.2176 O   0  0  0  0  0  0
  -21.6632   -6.8872   21.4240 O   0  0  0  0  0  0
  -22.3466  -14.5508   20.6737 O   0  0  0  0  0  0
  -24.6403  -31.8466   23.1908 C   0  0  0  0  0  0
  -25.9188  -32.4710   23.8286 C   0  0  1  0  0  0
  -27.2106  -27.1667   20.1533 C   0  0  0  0  0  0
  -25.5953  -33.8516   24.2208 N   0  0  0  0  0  0
  -23.4424  -30.4675   21.5354 C   0  0  2  0  0  0
  -24.8915  -28.8986   20.1114 C   0  0  0  0  0  0
  -22.7551  -29.4564   22.4865 C   0  0  0  0  0  0
  -18.0302  -28.1400   22.8482 C   0  0  0  0  0  0
  -24.1486  -36.7254   23.2644 C   0  0  0  0  0  0
  -25.9958  -30.7309   21.3841 C   0  0  0  0  0  0
  -26.0685  -29.3437   20.7292 C   0  0  0  0  0  0
  -27.2344  -28.4937   20.7332 C   0  0  0  0  0  0
  -26.0146  -26.8174   19.4933 C   0  0  0  0  0  0
  -24.8752  -27.6472   19.4778 C   0  0  0  0  0  0
  -23.6671  -29.7976   20.1543 C   0  0  0  0  0  0
  -25.4116  -36.3038   24.0322 C   0  0  1  0  0  0
  -20.5914  -28.3721   23.1243 C   0  0  2  0  0  0
  -20.6788  -26.9428   22.5403 C   0  0  0  0  0  0
  -19.5764  -26.6384   21.5214 C   0  0  0  0  0  0
  -18.1944  -26.7942   22.1618 C   0  0  0  0  0  0
  -19.1560  -28.8876   23.2858 C   0  0  0  0  0  0
  -18.9479  -30.1473   23.8880 C   0  0  0  0  0  0
  -17.6477  -30.6597   24.0565 C   0  0  0  0  0  0
  -25.9068  -34.9415   23.5069 C   0  0  0  0  0  0
  -16.5365  -29.9091   23.6340 C   0  0  0  0  0  0
  -16.7287  -28.6512   23.0356 C   0  0  0  0  0  0
  -26.4526  -31.6564   25.0708 C   0  0  0  0  0  0
  -25.3725  -31.3748   26.1412 C   0  0  0  0  0  0
  -27.0391  -30.2967   24.6258 C   0  0  0  0  0  0
  -27.6062  -32.4324   25.7495 C   0  0  0  0  0  0
  -27.5573  -37.1782   24.8467 C   0  0  0  0  0  0
  -21.4245  -29.3056   22.3619 N   0  0  0  0  0  0
  -26.4279  -37.3751   23.9417 N   0  0  0  0  0  0
  -24.7127  -31.0354   22.0923 N   0  0  0  0  0  0
  -23.4210  -28.8108   23.2999 O   0  0  0  0  0  0
  -28.2495  -26.1796   20.1757 O   0  0  0  0  0  0
  -26.5641  -34.8911   22.4641 O   0  0  0  0  0  0
  -23.5525  -32.1326   23.7145 O   0  0  0  0  0  0
  -29.4448  -21.6234   18.9711 C   0  0  0  0  0  0
  -29.1248  -23.0403   18.9955 C   0  0  0  0  0  0
  -29.0926  -21.0096   20.1559 C   0  0  0  0  0  0
  -28.5707  -23.3943   20.2029 C   0  0  0  0  0  0
  -28.6316  -18.2987   19.6838 C   0  0  0  0  0  0
  -30.6323  -18.8179   20.8572 C   0  0  0  0  0  0
  -28.7360  -16.7397   20.1161 C   0  0  0  0  0  0
  -30.7363  -17.2975   21.3688 C   0  0  0  0  0  0
  -29.2089  -19.4372   20.6185 C   0  0  0  0  0  0
  -30.0582  -20.9164   17.7862 C   0  0  0  0  0  0
  -29.3459  -23.9906   17.8445 C   0  0  0  0  0  0
  -28.6203  -21.6822   24.7335 C   0  0  0  0  0  0
  -30.2051  -23.0108   23.2728 C   0  0  0  0  0  0
  -27.9227  -24.7883   20.7509 C   0  0  0  0  0  0
  -28.0679  -21.9757   22.2725 C   0  0  0  0  0  0
  -29.1977  -21.8478   23.3204 C   0  0  0  0  0  0
  -28.5716  -22.1269   20.9118 N   0  0  0  0  0  0
  -30.0243  -16.1777   20.6488 N   0  0  0  0  0  0
  -31.4545  -12.6911   19.1632 H   0  0  0  0  0  0
  -30.3884  -11.6241   20.0295 H   0  0  0  0  0  0
  -29.8172  -11.7125   17.5708 H   0  0  0  0  0  0
  -29.5870  -13.4421   17.6756 H   0  0  0  0  0  0
  -27.9440  -11.2577   18.9899 H   0  0  0  0  0  0
  -27.3705  -12.4165   17.8198 H   0  0  0  0  0  0
  -27.5593  -14.2215   19.3723 H   0  0  0  0  0  0
  -28.7552  -12.3519   21.4781 H   0  0  0  0  0  0
  -28.3746  -14.0455   21.7079 H   0  0  0  0  0  0
  -25.2756   -9.5669   22.4780 H   0  0  0  0  0  0
  -23.9995   -7.4614   22.7472 H   0  0  0  0  0  0
  -21.0843   -8.8767   19.8947 H   0  0  0  0  0  0
  -22.3701  -10.9670   19.6176 H   0  0  0  0  0  0
  -21.1997   -7.6148   23.9718 H   0  0  0  0  0  0
  -21.1482   -6.0522   25.9080 H   0  0  0  0  0  0
  -22.0599   -2.7607   23.2847 H   0  0  0  0  0  0
  -22.4037  -11.9848   22.4826 H   0  0  0  0  0  0
  -21.1037  -13.1208   22.2650 H   0  0  0  0  0  0
  -24.6402  -15.8423   20.5230 H   0  0  0  0  0  0
  -26.2574  -15.6315   20.0819 H   0  0  0  0  0  0
  -26.7252  -32.5323   23.1018 H   0  0  0  0  0  0
  -25.0117  -33.9653   25.0365 H   0  0  0  0  0  0
  -22.7437  -31.2922   21.3822 H   0  0  0  0  0  0
  -23.3757  -35.9578   23.3290 H   0  0  0  0  0  0
  -24.3575  -36.8890   22.2061 H   0  0  0  0  0  0
  -23.7225  -37.6442   23.6681 H   0  0  0  0  0  0
  -26.1428  -31.4849   20.6095 H   0  0  0  0  0  0
  -26.8699  -30.7838   22.0214 H   0  0  0  0  0  0
  -28.1327  -28.8285   21.2321 H   0  0  0  0  0  0
  -25.9448  -25.8578   18.9997 H   0  0  0  0  0  0
  -23.9781  -27.3032   18.9814 H   0  0  0  0  0  0
  -23.8013  -30.5725   19.3992 H   0  0  0  0  0  0
  -22.7824  -29.2371   19.8452 H   0  0  0  0  0  0
  -25.1302  -36.1865   25.0813 H   0  0  0  0  0  0
  -21.0009  -28.3304   24.1362 H   0  0  0  0  0  0
  -20.5682  -26.2337   23.3621 H   0  0  0  0  0  0
  -21.6655  -26.7441   22.1195 H   0  0  0  0  0  0
  -19.6933  -25.6290   21.1254 H   0  0  0  0  0  0
  -19.6706  -27.3188   20.6742 H   0  0  0  0  0  0
  -17.4215  -26.6694   21.4017 H   0  0  0  0  0  0
  -18.0338  -26.0086   22.9013 H   0  0  0  0  0  0
  -19.7955  -30.7296   24.2234 H   0  0  0  0  0  0
  -17.5032  -31.6278   24.5164 H   0  0  0  0  0  0
  -15.5365  -30.2988   23.7687 H   0  0  0  0  0  0
  -15.8686  -28.0831   22.7078 H   0  0  0  0  0  0
  -24.5931  -30.7060   25.7741 H   0  0  0  0  0  0
  -24.8888  -32.2927   26.4763 H   0  0  0  0  0  0
  -25.8024  -30.8983   27.0233 H   0  0  0  0  0  0
  -26.3004  -29.6686   24.1264 H   0  0  0  0  0  0
  -27.4024  -29.7260   25.4814 H   0  0  0  0  0  0
  -27.8899  -30.4213   23.9558 H   0  0  0  0  0  0
  -27.2669  -33.3661   26.1996 H   0  0  0  0  0  0
  -28.3924  -32.6814   25.0356 H   0  0  0  0  0  0
  -28.0670  -31.8487   26.5475 H   0  0  0  0  0  0
  -28.2573  -38.0096   24.7519 H   0  0  0  0  0  0
  -28.1082  -36.2621   24.6274 H   0  0  0  0  0  0
  -27.2296  -37.1404   25.8872 H   0  0  0  0  0  0
  -20.9440  -29.8771   21.6806 H   0  0  0  0  0  0
  -26.0140  -38.2814   24.1431 H   0  0  0  0  0  0
  -27.5812  -18.5218   19.4949 H   0  0  0  0  0  0
  -29.1126  -18.3921   18.7104 H   0  0  0  0  0  0
  -31.2123  -18.8994   19.9386 H   0  0  0  0  0  0
  -31.1563  -19.4498   21.5746 H   0  0  0  0  0  0
  -28.4599  -16.1570   19.2395 H   0  0  0  0  0  0
  -27.9769  -16.5392   20.8723 H   0  0  0  0  0  0
  -30.3651  -17.2701   22.3939 H   0  0  0  0  0  0
  -31.7964  -17.0550   21.4556 H   0  0  0  0  0  0
  -28.6761  -19.3429   21.5639 H   0  0  0  0  0  0
  -30.6157  -21.6095   17.1566 H   0  0  0  0  0  0
  -29.2809  -20.4543   17.1775 H   0  0  0  0  0  0
  -30.7517  -20.1399   18.1040 H   0  0  0  0  0  0
  -29.0784  -23.5205   16.8981 H   0  0  0  0  0  0
  -30.3935  -24.2881   17.7956 H   0  0  0  0  0  0
  -28.7408  -24.8908   17.9483 H   0  0  0  0  0  0
  -29.4125  -21.5410   25.4695 H   0  0  0  0  0  0
  -27.9649  -20.8123   24.7900 H   0  0  0  0  0  0
  -28.0402  -22.5559   25.0332 H   0  0  0  0  0  0
  -30.9880  -22.8846   24.0212 H   0  0  0  0  0  0
  -29.7195  -23.9682   23.4613 H   0  0  0  0  0  0
  -30.7003  -23.0719   22.3029 H   0  0  0  0  0  0
  -28.1810  -24.8758   21.8057 H   0  0  0  0  0  0
  -26.8416  -24.6533   20.7599 H   0  0  0  0  0  0
  -27.4207  -22.8171   22.5166 H   0  0  0  0  0  0
  -27.4180  -21.1006   22.3032 H   0  0  0  0  0  0
  -29.7558  -20.9381   23.0958 H   0  0  0  0  0  0
  1 25  1  0  0  0
  1 30  2  0  0  0
  1 88  1  0  0  0
  2  3  1  0  0  0
  2 25  1  0  0  0
  2 89  1  0  0  0
  2 90  1  0  0  0
  3  4  1  0  0  0
  3 91  1  0  0  0
  3 92  1  0  0  0
  4  5  1  0  0  0
  4 93  1  0  0  0
  4 94  1  0  0  0
  5  6  1  0  0  0
  5 26  1  0  0  0
  5 95  1  0  0  0
  6 25  1  0  0  0
  6 96  1  0  0  0
  6 97  1  0  0  0
  7  8  2  0  0  0
  7 26  1  0  0  0
  7 29  1  0  0  0
  8  9  1  0  0  0
  8 22  1  0  0  0
  9 10  1  0  0  0
  9 27  2  0  0  0
 10 11  2  0  0  0
 10 15  1  0  0  0
 11 12  1  0  0  0
 11 98  1  0  0  0
 12 13  2  0  0  0
 12 99  1  0  0  0
 13 14  1  0  0  0
 13 31  1  0  0  0
 14 15  2  0  0  0
 14100  1  0  0  0
 15101  1  0  0  0
 16 17  2  0  0  0
 16 21  1  0  0  0
 16 31  1  0  0  0
 17 18  1  0  0  0
 17102  1  0  0  0
 18 19  2  0  0  0
 18103  1  0  0  0
 19 20  1  0  0  0
 19 24  1  0  0  0
 20 21  2  0  0  0
 20104  1  0  0  0
 21 23  1  0  0  0
 22 28  1  0  0  0
 22 32  2  0  0  0
 26 27  1  0  0  0
 28105  1  0  0  0
 28106  1  0  0  0
 29107  1  0  0  0
 29108  1  0  0  0
 33 34  1  0  0  0
 33 66  1  0  0  0
 33 70  2  0  0  0
 34 36  1  0  0  0
 34 59  1  0  0  0
 34109  1  0  0  0
 35 44  2  0  0  0
 35 45  1  0  0  0
 35 68  1  0  0  0
 36 56  1  0  0  0
 36110  1  0  0  0
 37 39  1  0  0  0
 37 47  1  0  0  0
 37 66  1  0  0  0
 37111  1  0  0  0
 38 43  2  0  0  0
 38 46  1  0  0  0
 38 47  1  0  0  0
 39 64  1  0  0  0
 39 67  2  0  0  0
 40 52  1  0  0  0
 40 53  2  0  0  0
 40 58  1  0  0  0
 41112  1  0  0  0
 41113  1  0  0  0
 41114  1  0  0  0
 41 48  1  0  0  0
 42 43  1  0  0  0
 42 66  1  0  0  0
 42115  1  0  0  0
 42116  1  0  0  0
 43 44  1  0  0  0
 44117  1  0  0  0
 45 46  2  0  0  0
 45118  1  0  0  0
 46119  1  0  0  0
 47120  1  0  0  0
 47121  1  0  0  0
 48 56  1  0  0  0
 48 65  1  0  0  0
 48122  1  0  0  0
 49 50  1  0  0  0
 49 53  1  0  0  0
 49 64  1  0  0  0
 49123  1  0  0  0
 50 51  1  0  0  0
 50124  1  0  0  0
 50125  1  0  0  0
 51 52  1  0  0  0
 51126  1  0  0  0
 51127  1  0  0  0
 52128  1  0  0  0
 52129  1  0  0  0
 53 54  1  0  0  0
 54 55  2  0  0  0
 54130  1  0  0  0
 55 57  1  0  0  0
 55131  1  0  0  0
 56 69  2  0  0  0
 57 58  2  0  0  0
 57132  1  0  0  0
 58133  1  0  0  0
 59 60  1  0  0  0
 59 61  1  0  0  0
 59 62  1  0  0  0
 60134  1  0  0  0
 60135  1  0  0  0
 60136  1  0  0  0
 61137  1  0  0  0
 61138  1  0  0  0
 61139  1  0  0  0
 62140  1  0  0  0
 62141  1  0  0  0
 62142  1  0  0  0
 63 65  1  0  0  0
 63143  1  0  0  0
 63144  1  0  0  0
 63145  1  0  0  0
 64146  1  0  0  0
 65147  1  0  0  0
 68 84  1  0  0  0
 71 72  1  0  0  0
 71 73  2  0  0  0
 71 80  1  0  0  0
 72 74  2  0  0  0
 72 81  1  0  0  0
 73 87  1  0  0  0
 73 79  1  0  0  0
 74 84  1  0  0  0
 74 87  1  0  0  0
 75 77  1  0  0  0
 75 79  1  0  0  0
 75148  1  0  0  0
 75149  1  0  0  0
 76 78  1  0  0  0
 76 79  1  0  0  0
 76150  1  0  0  0
 76151  1  0  0  0
 77 88  1  0  0  0
 77152  1  0  0  0
 77153  1  0  0  0
 78 88  1  0  0  0
 78154  1  0  0  0
 78155  1  0  0  0
 79156  1  0  0  0
 80157  1  0  0  0
 80158  1  0  0  0
 80159  1  0  0  0
 81160  1  0  0  0
 81161  1  0  0  0
 81162  1  0  0  0
 82163  1  0  0  0
 82164  1  0  0  0
 82165  1  0  0  0
 82 86  1  0  0  0
 83 86  1  0  0  0
 83166  1  0  0  0
 83167  1  0  0  0
 83168  1  0  0  0
 84169  1  0  0  0
 84170  1  0  0  0
 85 86  1  0  0  0
 85 87  1  0  0  0
 85171  1  0  0  0
 85172  1  0  0  0
 86173  1  0  0  0
M  ISO  4   1 100  68 101  84 101  88 100
M  END
> <chiral flag>
0

> <version>
0

> <s_m_source_file>
/data/baiqing/PycharmProjects/Reinvent-master-3.2/result/LINK_invent/BTK/process_docking_weight1_custom_sum_contain_oxygen_bond_distance_aromatic_linkinvent_7_9_3/rearranged_h_0172.sdf

> <i_m_source_file_index>
18

> <r_mmod_Potential_Energy-OPLS-2005>
618.502563476562

> <r_mmod_Stretch_Energy-OPLS-2005>
202.473281860352

> <r_mmod_Bend_Energy-OPLS-2005>
265.112823486328

> <r_mmod_Torsional_Energy-OPLS-2005>
360.663543701172

> <r_mmod_Improper_Torsional_Energy-OPLS-2005>
2.23587203025818

> <r_mmod_Van_der_Waal_Energy-OPLS-2005>
104.926040649414

> <r_mmod_Electrostatic_Energy-OPLS-2005>
-287.476318359375

> <r_mmod_Solvation_Energy-OPLS-2005>
-198.259811401367

> <b_mmod_Minimization_Converged-OPLS-2005>
0

> <r_mmod_RMS_Derivative-OPLS-2005>
0.851385056972504

$$$$
18
                    3D
 Structure written by MMmdl.
172182  0  0  1  0            999 V2000
  -30.7216  -14.7068   20.4469 C   0  0  0  0  0  0
  -30.4047  -12.4394   19.4520 C   0  0  0  0  0  0
  -29.4954  -12.4993   18.2115 C   0  0  0  0  0  0
  -28.0292  -12.2980   18.6294 C   0  0  0  0  0  0
  -27.6279  -13.2078   19.8152 C   0  0  2  0  0  0
  -28.6828  -13.2318   20.9485 C   0  0  0  0  0  0
  -25.2503  -13.8099   20.5663 C   0  0  0  0  0  0
  -24.1802  -13.0362   20.9223 C   0  0  0  0  0  0
  -24.6379  -11.6858   20.8757 C   0  0  0  0  0  0
  -23.9048  -10.4251   21.0412 C   0  0  0  0  0  0
  -24.3611   -9.4182   21.9195 C   0  0  0  0  0  0
  -23.6286   -8.2215   22.0753 C   0  0  0  0  0  0
  -22.4266   -8.0263   21.3545 C   0  0  0  0  0  0
  -21.9904   -9.0233   20.4649 C   0  0  0  0  0  0
  -22.7223  -10.2114   20.3054 C   0  0  0  0  0  0
  -21.6853   -6.0736   22.5292 C   0  0  0  0  0  0
  -21.4009   -6.5630   23.8229 C   0  0  0  0  0  0
  -21.3654   -5.6778   24.9192 C   0  0  0  0  0  0
  -21.6037   -4.3039   24.7248 C   0  0  0  0  0  0
  -21.8800   -3.8139   23.4364 C   0  0  0  0  0  0
  -21.9182   -4.6962   22.3424 C   0  0  0  0  0  0
  -22.7826  -13.5198   21.1878 C   0  0  0  0  0  0
  -22.1645   -4.2156   21.1001 F   0  0  0  0  0  0
  -21.5651   -3.4514   25.7755 F   0  0  0  0  0  0
  -29.9876  -13.5417   20.3508 N   0  0  0  0  0  0
  -26.2882  -12.9247   20.3155 N   0  0  0  0  0  0
  -25.9297  -11.6431   20.5730 N   0  0  0  0  0  0
  -22.0456  -12.8184   22.0425 N   0  0  0  0  0  0
  -25.4155  -15.1827   20.4101 N   0  0  0  0  0  0
  -31.9290  -14.6664   20.2040 O   0  0  0  0  0  0
  -21.6622   -6.8872   21.4247 O   0  0  0  0  0  0
  -22.3528  -14.5524   20.6754 O   0  0  0  0  0  0
  -24.6260  -31.8599   23.2002 C   0  0  0  0  0  0
  -25.9107  -32.4776   23.8339 C   0  0  1  0  0  0
  -27.2472  -27.3292   20.1380 C   0  0  0  0  0  0
  -25.5913  -33.8567   24.2263 N   0  0  0  0  0  0
  -23.4234  -30.4786   21.5399 C   0  0  2  0  0  0
  -24.8775  -28.9209   20.1248 C   0  0  0  0  0  0
  -22.7476  -29.4626   22.4911 C   0  0  0  0  0  0
  -18.0294  -28.1419   22.8482 C   0  0  0  0  0  0
  -24.1491  -36.7294   23.2643 C   0  0  0  0  0  0
  -25.9611  -30.7924   21.3733 C   0  0  0  0  0  0
  -26.0411  -29.4139   20.7299 C   0  0  0  0  0  0
  -27.2306  -28.6291   20.7266 C   0  0  0  0  0  0
  -26.0644  -26.8735   19.5251 C   0  0  0  0  0  0
  -24.8875  -27.6529   19.5158 C   0  0  0  0  0  0
  -23.6447  -29.8025   20.1597 C   0  0  0  0  0  0
  -25.4117  -36.3071   24.0323 C   0  0  1  0  0  0
  -20.5889  -28.3723   23.1281 C   0  0  2  0  0  0
  -20.6785  -26.9442   22.5416 C   0  0  0  0  0  0
  -19.5754  -26.6398   21.5230 C   0  0  0  0  0  0
  -18.1934  -26.7957   22.1636 C   0  0  0  0  0  0
  -19.1544  -28.8886   23.2879 C   0  0  0  0  0  0
  -18.9462  -30.1485   23.8907 C   0  0  0  0  0  0
  -17.6459  -30.6608   24.0587 C   0  0  0  0  0  0
  -25.9047  -34.9445   23.5096 C   0  0  0  0  0  0
  -16.5354  -29.9115   23.6328 C   0  0  0  0  0  0
  -16.7281  -28.6541   23.0329 C   0  0  0  0  0  0
  -26.4494  -31.6592   25.0714 C   0  0  0  0  0  0
  -25.3719  -31.3742   26.1430 C   0  0  0  0  0  0
  -27.0335  -30.3010   24.6187 C   0  0  0  0  0  0
  -27.6046  -32.4326   25.7484 C   0  0  0  0  0  0
  -27.5578  -37.1806   24.8454 C   0  0  0  0  0  0
  -21.4188  -29.3066   22.3660 N   0  0  0  0  0  0
  -26.4287  -37.3773   23.9400 N   0  0  0  0  0  0
  -24.6885  -31.0597   22.0961 N   0  0  0  0  0  0
  -23.4183  -28.8174   23.3005 O   0  0  0  0  0  0
  -28.3924  -26.5345   20.0356 O   0  0  0  0  0  0
  -26.5621  -34.8920   22.4666 O   0  0  0  0  0  0
  -23.5416  -32.1376   23.7336 O   0  0  0  0  0  0
  -29.1404  -21.4794   20.3348 C   0  0  0  0  0  0
  -29.6335  -20.4555   19.4503 C   0  0  0  0  0  0
  -29.8195  -20.8660   18.0920 C   0  0  0  0  0  0
  -29.4678  -22.1944   17.7166 C   0  0  0  0  0  0
  -28.8329  -22.8106   19.8664 C   0  0  0  0  0  0
  -29.4823  -22.6707   16.2697 C   0  0  0  0  0  0
  -30.3130  -21.7933   15.3391 C   0  0  0  0  0  0
  -29.9765  -20.3224   15.5844 C   0  0  0  0  0  0
  -30.4324  -18.5521   21.2349 C   0  0  0  0  0  0
  -28.7312  -17.9755   19.6364 C   0  0  0  0  0  0
  -30.9464  -17.0545   21.2860 C   0  0  0  0  0  0
  -29.0613  -16.4406   19.7472 C   0  0  0  0  0  0
  -29.9098  -18.9361   19.8444 C   0  0  0  0  0  0
  -30.3620  -19.9016   17.0138 C   0  0  1  0  0  0
  -31.8968  -19.7475   17.0931 C   0  0  0  0  0  0
  -28.0549  -23.9025   20.6824 C   0  0  0  0  0  0
  -28.5992  -25.3863   20.9343 C   0  0  0  0  0  0
  -28.9979  -23.1217   18.5712 N   0  0  0  0  0  0
  -30.1270  -15.9520   20.6698 N   0  0  0  0  0  0
  -31.4489  -12.5053   19.1453 H   0  0  0  0  0  0
  -30.2984  -11.4807   19.9639 H   0  0  0  0  0  0
  -29.7909  -11.7366   17.4887 H   0  0  0  0  0  0
  -29.6108  -13.4623   17.7075 H   0  0  0  0  0  0
  -27.8971  -11.2507   18.8970 H   0  0  0  0  0  0
  -27.3725  -12.4783   17.7779 H   0  0  0  0  0  0
  -27.5675  -14.1841   19.3555 H   0  0  0  0  0  0
  -28.7224  -12.2735   21.4671 H   0  0  0  0  0  0
  -28.4164  -13.9835   21.6923 H   0  0  0  0  0  0
  -25.2744   -9.5645   22.4798 H   0  0  0  0  0  0
  -23.9979   -7.4583   22.7443 H   0  0  0  0  0  0
  -21.0849   -8.8727   19.8959 H   0  0  0  0  0  0
  -22.3654  -10.9661   19.6178 H   0  0  0  0  0  0
  -21.1979   -7.6135   23.9728 H   0  0  0  0  0  0
  -21.1510   -6.0531   25.9097 H   0  0  0  0  0  0
  -22.0595   -2.7607   23.2870 H   0  0  0  0  0  0
  -22.4038  -11.9866   22.4861 H   0  0  0  0  0  0
  -21.1083  -13.1253   22.2606 H   0  0  0  0  0  0
  -24.6414  -15.8308   20.5223 H   0  0  0  0  0  0
  -26.2613  -15.6313   20.0863 H   0  0  0  0  0  0
  -26.7189  -32.5469   23.1102 H   0  0  0  0  0  0
  -25.0053  -33.9721   25.0401 H   0  0  0  0  0  0
  -22.7177  -31.2981   21.3865 H   0  0  0  0  0  0
  -23.3745  -35.9634   23.3300 H   0  0  0  0  0  0
  -24.3588  -36.8923   22.2058 H   0  0  0  0  0  0
  -23.7249  -37.6498   23.6671 H   0  0  0  0  0  0
  -26.0887  -31.5509   20.5998 H   0  0  0  0  0  0
  -26.8427  -30.8494   21.9996 H   0  0  0  0  0  0
  -28.1324  -29.0157   21.1819 H   0  0  0  0  0  0
  -26.0598  -25.9067   19.0435 H   0  0  0  0  0  0
  -23.9991  -27.2661   19.0364 H   0  0  0  0  0  0
  -23.7735  -30.5738   19.3991 H   0  0  0  0  0  0
  -22.7663  -29.2307   19.8533 H   0  0  0  0  0  0
  -25.1302  -36.1925   25.0815 H   0  0  0  0  0  0
  -20.9998  -28.3326   24.1398 H   0  0  0  0  0  0
  -20.5716  -26.2341   23.3632 H   0  0  0  0  0  0
  -21.6652  -26.7484   22.1198 H   0  0  0  0  0  0
  -19.6922  -25.6304   21.1280 H   0  0  0  0  0  0
  -19.6704  -27.3200   20.6757 H   0  0  0  0  0  0
  -17.4207  -26.6706   21.4038 H   0  0  0  0  0  0
  -18.0328  -26.0117   22.9047 H   0  0  0  0  0  0
  -19.7931  -30.7301   24.2280 H   0  0  0  0  0  0
  -17.5011  -31.6286   24.5195 H   0  0  0  0  0  0
  -15.5359  -30.3022   23.7646 H   0  0  0  0  0  0
  -15.8682  -28.0888   22.6999 H   0  0  0  0  0  0
  -24.5859  -30.7148   25.7734 H   0  0  0  0  0  0
  -24.8965  -32.2924   26.4883 H   0  0  0  0  0  0
  -25.8017  -30.8866   27.0186 H   0  0  0  0  0  0
  -26.2922  -29.6756   24.1204 H   0  0  0  0  0  0
  -27.4006  -29.7270   25.4704 H   0  0  0  0  0  0
  -27.8795  -30.4267   23.9429 H   0  0  0  0  0  0
  -27.2658  -33.3633   26.2038 H   0  0  0  0  0  0
  -28.3871  -32.6877   25.0327 H   0  0  0  0  0  0
  -28.0697  -31.8472   26.5420 H   0  0  0  0  0  0
  -28.2580  -38.0119   24.7504 H   0  0  0  0  0  0
  -28.1089  -36.2645   24.6266 H   0  0  0  0  0  0
  -27.2299  -37.1438   25.8861 H   0  0  0  0  0  0
  -20.9376  -29.8776   21.6856 H   0  0  0  0  0  0
  -26.0164  -38.2846   24.1409 H   0  0  0  0  0  0
  -28.9484  -21.2294   21.3699 H   0  0  0  0  0  0
  -29.8226  -23.7051   16.2027 H   0  0  0  0  0  0
  -28.4495  -22.6647   15.9189 H   0  0  0  0  0  0
  -31.3726  -21.9711   15.5198 H   0  0  0  0  0  0
  -30.1332  -22.0717   14.3030 H   0  0  0  0  0  0
  -30.4711  -19.6902   14.8448 H   0  0  0  0  0  0
  -28.9060  -20.1725   15.4328 H   0  0  0  0  0  0
  -31.2531  -19.2193   21.5068 H   0  0  0  0  0  0
  -29.6482  -18.7108   21.9754 H   0  0  0  0  0  0
  -27.9429  -18.2355   20.3450 H   0  0  0  0  0  0
  -28.2967  -18.1597   18.6553 H   0  0  0  0  0  0
  -31.1374  -16.7912   22.3278 H   0  0  0  0  0  0
  -31.9275  -17.0583   20.8071 H   0  0  0  0  0  0
  -29.2932  -16.0722   18.7443 H   0  0  0  0  0  0
  -28.1363  -15.9828   20.0658 H   0  0  0  0  0  0
  -30.6963  -18.5809   19.1909 H   0  0  0  0  0  0
  -29.9063  -18.9210   17.1521 H   0  0  0  0  0  0
  -32.4004  -20.7066   16.9868 H   0  0  0  0  0  0
  -32.2622  -19.1027   16.2931 H   0  0  0  0  0  0
  -32.2512  -19.3176   18.0271 H   0  0  0  0  0  0
  -27.9288  -23.4616   21.6706 H   0  0  0  0  0  0
  -27.0441  -23.9712   20.2803 H   0  0  0  0  0  0
  -29.6718  -25.3178   21.1141 H   0  0  0  0  0  0
  -28.1883  -25.7038   21.8942 H   0  0  0  0  0  0
  1 25  1  0  0  0
  1 30  2  0  0  0
  1 89  1  0  0  0
  2  3  1  0  0  0
  2 25  1  0  0  0
  2 90  1  0  0  0
  2 91  1  0  0  0
  3  4  1  0  0  0
  3 92  1  0  0  0
  3 93  1  0  0  0
  4  5  1  0  0  0
  4 94  1  0  0  0
  4 95  1  0  0  0
  5  6  1  0  0  0
  5 26  1  0  0  0
  5 96  1  0  0  0
  6 25  1  0  0  0
  6 97  1  0  0  0
  6 98  1  0  0  0
  7  8  2  0  0  0
  7 26  1  0  0  0
  7 29  1  0  0  0
  8  9  1  0  0  0
  8 22  1  0  0  0
  9 10  1  0  0  0
  9 27  2  0  0  0
 10 11  2  0  0  0
 10 15  1  0  0  0
 11 12  1  0  0  0
 11 99  1  0  0  0
 12 13  2  0  0  0
 12100  1  0  0  0
 13 14  1  0  0  0
 13 31  1  0  0  0
 14 15  2  0  0  0
 14101  1  0  0  0
 15102  1  0  0  0
 16 17  2  0  0  0
 16 21  1  0  0  0
 16 31  1  0  0  0
 17 18  1  0  0  0
 17103  1  0  0  0
 18 19  2  0  0  0
 18104  1  0  0  0
 19 20  1  0  0  0
 19 24  1  0  0  0
 20 21  2  0  0  0
 20105  1  0  0  0
 21 23  1  0  0  0
 22 28  1  0  0  0
 22 32  2  0  0  0
 26 27  1  0  0  0
 28106  1  0  0  0
 28107  1  0  0  0
 29108  1  0  0  0
 29109  1  0  0  0
 33 34  1  0  0  0
 33 66  1  0  0  0
 33 70  2  0  0  0
 34 36  1  0  0  0
 34 59  1  0  0  0
 34110  1  0  0  0
 35 44  2  0  0  0
 35 45  1  0  0  0
 35 68  1  0  0  0
 36 56  1  0  0  0
 36111  1  0  0  0
 37 39  1  0  0  0
 37 47  1  0  0  0
 37 66  1  0  0  0
 37112  1  0  0  0
 38 43  2  0  0  0
 38 46  1  0  0  0
 38 47  1  0  0  0
 39 64  1  0  0  0
 39 67  2  0  0  0
 40 52  1  0  0  0
 40 53  2  0  0  0
 40 58  1  0  0  0
 41113  1  0  0  0
 41114  1  0  0  0
 41115  1  0  0  0
 41 48  1  0  0  0
 42 43  1  0  0  0
 42 66  1  0  0  0
 42116  1  0  0  0
 42117  1  0  0  0
 43 44  1  0  0  0
 44118  1  0  0  0
 45 46  2  0  0  0
 45119  1  0  0  0
 46120  1  0  0  0
 47121  1  0  0  0
 47122  1  0  0  0
 48 56  1  0  0  0
 48 65  1  0  0  0
 48123  1  0  0  0
 49 50  1  0  0  0
 49 53  1  0  0  0
 49 64  1  0  0  0
 49124  1  0  0  0
 50 51  1  0  0  0
 50125  1  0  0  0
 50126  1  0  0  0
 51 52  1  0  0  0
 51127  1  0  0  0
 51128  1  0  0  0
 52129  1  0  0  0
 52130  1  0  0  0
 53 54  1  0  0  0
 54 55  2  0  0  0
 54131  1  0  0  0
 55 57  1  0  0  0
 55132  1  0  0  0
 56 69  2  0  0  0
 57 58  2  0  0  0
 57133  1  0  0  0
 58134  1  0  0  0
 59 60  1  0  0  0
 59 61  1  0  0  0
 59 62  1  0  0  0
 60135  1  0  0  0
 60136  1  0  0  0
 60137  1  0  0  0
 61138  1  0  0  0
 61139  1  0  0  0
 61140  1  0  0  0
 62141  1  0  0  0
 62142  1  0  0  0
 62143  1  0  0  0
 63 65  1  0  0  0
 63144  1  0  0  0
 63145  1  0  0  0
 63146  1  0  0  0
 64147  1  0  0  0
 65148  1  0  0  0
 68 87  1  0  0  0
 71 72  2  0  0  0
 71 75  1  0  0  0
 71149  1  0  0  0
 72 73  1  0  0  0
 72 83  1  0  0  0
 73 74  2  0  0  0
 73 84  1  0  0  0
 74 76  1  0  0  0
 74 88  1  0  0  0
 75 86  1  0  0  0
 75 88  2  0  0  0
 76 77  1  0  0  0
 76150  1  0  0  0
 76151  1  0  0  0
 77 78  1  0  0  0
 77152  1  0  0  0
 77153  1  0  0  0
 78 84  1  0  0  0
 78154  1  0  0  0
 78155  1  0  0  0
 79 81  1  0  0  0
 79 83  1  0  0  0
 79156  1  0  0  0
 79157  1  0  0  0
 80 82  1  0  0  0
 80 83  1  0  0  0
 80158  1  0  0  0
 80159  1  0  0  0
 81 89  1  0  0  0
 81160  1  0  0  0
 81161  1  0  0  0
 82 89  1  0  0  0
 82162  1  0  0  0
 82163  1  0  0  0
 83164  1  0  0  0
 84 85  1  0  0  0
 84165  1  0  0  0
 85166  1  0  0  0
 85167  1  0  0  0
 85168  1  0  0  0
 86 87  1  0  0  0
 86169  1  0  0  0
 86170  1  0  0  0
 87171  1  0  0  0
 87172  1  0  0  0
M  ISO  4   1 100  68 101  87 101  89 100
M  END
> <chiral flag>
0

> <version>
0

> <s_m_source_file>
/data/baiqing/PycharmProjects/Reinvent-master-3.2/result/LINK_invent/BTK/process_docking_weight1_custom_sum_contain_oxygen_bond_distance_aromatic_linkinvent_7_9_3/rearranged_h_0172.sdf

> <i_m_source_file_index>
19

> <r_mmod_Potential_Energy-OPLS-2005>
251.512191772461

> <r_mmod_Stretch_Energy-OPLS-2005>
95.9189376831055

> <r_mmod_Bend_Energy-OPLS-2005>
207.134475708008

> <r_mmod_Torsional_Energy-OPLS-2005>
354.928894042969

> <r_mmod_Improper_Torsional_Energy-OPLS-2005>
6.85502433776855

> <r_mmod_Van_der_Waal_Energy-OPLS-2005>
155.116012573242

> <r_mmod_Electrostatic_Energy-OPLS-2005>
-419.893218994141

> <r_mmod_Solvation_Energy-OPLS-2005>
-215.789489746094

> <b_mmod_Minimization_Converged-OPLS-2005>
0

> <r_mmod_RMS_Derivative-OPLS-2005>
4.03208351135254

$$$$
19
                    3D
 Structure written by MMmdl.
170179  0  0  1  0            999 V2000
  -30.6409  -14.6342   20.4785 C   0  0  0  0  0  0
  -30.4276  -12.3831   19.4531 C   0  0  0  0  0  0
  -29.5027  -12.4927   18.2217 C   0  0  0  0  0  0
  -28.0236  -12.3471   18.6321 C   0  0  0  0  0  0
  -27.6474  -13.2240   19.8569 C   0  0  2  0  0  0
  -28.6936  -13.0977   20.9863 C   0  0  0  0  0  0
  -25.2506  -13.8195   20.5675 C   0  0  0  0  0  0
  -24.1804  -13.0449   20.9207 C   0  0  0  0  0  0
  -24.6385  -11.6912   20.8760 C   0  0  0  0  0  0
  -23.9064  -10.4290   21.0415 C   0  0  0  0  0  0
  -24.3610   -9.4200   21.9190 C   0  0  0  0  0  0
  -23.6283   -8.2239   22.0755 C   0  0  0  0  0  0
  -22.4265   -8.0280   21.3545 C   0  0  0  0  0  0
  -21.9911   -9.0255   20.4644 C   0  0  0  0  0  0
  -22.7244  -10.2126   20.3055 C   0  0  0  0  0  0
  -21.6848   -6.0727   22.5282 C   0  0  0  0  0  0
  -21.4012   -6.5628   23.8216 C   0  0  0  0  0  0
  -21.3654   -5.6784   24.9178 C   0  0  0  0  0  0
  -21.6047   -4.3048   24.7233 C   0  0  0  0  0  0
  -21.8820   -3.8135   23.4353 C   0  0  0  0  0  0
  -21.9190   -4.6954   22.3406 C   0  0  0  0  0  0
  -22.7811  -13.5215   21.1879 C   0  0  0  0  0  0
  -22.1655   -4.2132   21.0988 F   0  0  0  0  0  0
  -21.5629   -3.4536   25.7746 F   0  0  0  0  0  0
  -30.0036  -13.4251   20.4104 N   0  0  0  0  0  0
  -26.2948  -12.9394   20.3297 N   0  0  0  0  0  0
  -25.9318  -11.6535   20.5765 N   0  0  0  0  0  0
  -22.0453  -12.8200   22.0404 N   0  0  0  0  0  0
  -25.4196  -15.1930   20.4057 N   0  0  0  0  0  0
  -31.8209  -14.7549   20.1365 O   0  0  0  0  0  0
  -21.6633   -6.8872   21.4236 O   0  0  0  0  0  0
  -22.3508  -14.5540   20.6734 O   0  0  0  0  0  0
  -24.6292  -31.8560   23.1981 C   0  0  0  0  0  0
  -25.9133  -32.4781   23.8325 C   0  0  1  0  0  0
  -27.2305  -27.3066   20.1065 C   0  0  0  0  0  0
  -25.5940  -33.8572   24.2270 N   0  0  0  0  0  0
  -23.4252  -30.4743   21.5437 C   0  0  2  0  0  0
  -24.8739  -28.9232   20.1126 C   0  0  0  0  0  0
  -22.7506  -29.4577   22.4944 C   0  0  0  0  0  0
  -18.0277  -28.1397   22.8467 C   0  0  0  0  0  0
  -24.1492  -36.7273   23.2640 C   0  0  0  0  0  0
  -25.9653  -30.7828   21.3704 C   0  0  0  0  0  0
  -26.0442  -29.4058   20.7144 C   0  0  0  0  0  0
  -27.2293  -28.6063   20.7059 C   0  0  0  0  0  0
  -26.0404  -26.8751   19.4893 C   0  0  0  0  0  0
  -24.8712  -27.6602   19.4973 C   0  0  0  0  0  0
  -23.6413  -29.8040   20.1613 C   0  0  0  0  0  0
  -25.4116  -36.3071   24.0323 C   0  0  1  0  0  0
  -20.5879  -28.3698   23.1283 C   0  0  2  0  0  0
  -20.6786  -26.9434   22.5394 C   0  0  0  0  0  0
  -19.5757  -26.6406   21.5206 C   0  0  0  0  0  0
  -18.1930  -26.7945   22.1606 C   0  0  0  0  0  0
  -19.1531  -28.8859   23.2866 C   0  0  0  0  0  0
  -18.9464  -30.1458   23.8895 C   0  0  0  0  0  0
  -17.6469  -30.6609   24.0554 C   0  0  0  0  0  0
  -25.9052  -34.9449   23.5092 C   0  0  0  0  0  0
  -16.5357  -29.9091   23.6347 C   0  0  0  0  0  0
  -16.7265  -28.6508   23.0357 C   0  0  0  0  0  0
  -26.4516  -31.6600   25.0719 C   0  0  0  0  0  0
  -25.3738  -31.3690   26.1436 C   0  0  0  0  0  0
  -27.0407  -30.3055   24.6160 C   0  0  0  0  0  0
  -27.6050  -32.4369   25.7496 C   0  0  0  0  0  0
  -27.5580  -37.1789   24.8475 C   0  0  0  0  0  0
  -21.4217  -29.3027   22.3689 N   0  0  0  0  0  0
  -26.4297  -37.3754   23.9408 N   0  0  0  0  0  0
  -24.6926  -31.0543   22.0948 N   0  0  0  0  0  0
  -23.4230  -28.8128   23.3035 O   0  0  0  0  0  0
  -28.3259  -26.4316   20.0774 O   0  0  0  0  0  0
  -26.5616  -34.8912   22.4661 O   0  0  0  0  0  0
  -23.5450  -32.1369   23.7298 O   0  0  0  0  0  0
  -27.4593  -22.7460   20.5608 C   0  0  0  0  0  0
  -28.4812  -23.7454   20.4738 C   0  0  0  0  0  0
  -27.7684  -21.3475   20.3698 C   0  0  0  0  0  0
  -29.7674  -23.2269   20.1476 C   0  0  0  0  0  0
  -29.1182  -20.9287   20.1904 C   0  0  0  0  0  0
  -29.2124  -18.3544   20.9007 C   0  0  0  0  0  0
  -30.8034  -19.2368   19.3818 C   0  0  0  0  0  0
  -30.3009  -17.2175   20.6476 C   0  0  2  0  0  0
  -30.8430  -17.6936   19.2856 C   0  0  2  0  0  0
  -26.0378  -23.1933   20.9017 C   0  0  0  0  0  0
  -30.9517  -24.1453   19.9199 C   0  0  0  0  0  0
  -26.1549  -19.8523   21.6646 C   0  0  0  0  0  0
  -26.6442  -20.3157   20.2852 C   0  0  0  0  0  0
  -28.2408  -25.2481   20.9578 C   0  0  0  0  0  0
  -30.0615  -21.8932   20.0363 N   0  0  0  0  0  0
  -29.5622  -19.5542   20.0759 N   0  0  0  0  0  0
  -29.8784  -15.7568   20.6870 N   0  0  0  0  0  0
  -32.1724  -17.1603   18.9455 N   0  3  0  0  0  0
  -31.4715  -12.4918   19.1508 H   0  0  0  0  0  0
  -30.3527  -11.3918   19.9047 H   0  0  0  0  0  0
  -29.7606  -11.7337   17.4813 H   0  0  0  0  0  0
  -29.6549  -13.4576   17.7370 H   0  0  0  0  0  0
  -27.8468  -11.2955   18.8622 H   0  0  0  0  0  0
  -27.3751  -12.5828   17.7877 H   0  0  0  0  0  0
  -27.6603  -14.2561   19.5056 H   0  0  0  0  0  0
  -28.6995  -12.0842   21.3897 H   0  0  0  0  0  0
  -28.4532  -13.7550   21.8224 H   0  0  0  0  0  0
  -25.2752   -9.5664   22.4774 H   0  0  0  0  0  0
  -23.9978   -7.4626   22.7476 H   0  0  0  0  0  0
  -21.0845   -8.8781   19.8952 H   0  0  0  0  0  0
  -22.3720  -10.9660   19.6160 H   0  0  0  0  0  0
  -21.2010   -7.6139   23.9715 H   0  0  0  0  0  0
  -21.1471   -6.0518   25.9082 H   0  0  0  0  0  0
  -22.0606   -2.7597   23.2871 H   0  0  0  0  0  0
  -22.4042  -11.9836   22.4769 H   0  0  0  0  0  0
  -21.1068  -13.1214   22.2611 H   0  0  0  0  0  0
  -24.6495  -15.8434   20.5181 H   0  0  0  0  0  0
  -26.2541  -15.6286   20.0362 H   0  0  0  0  0  0
  -26.7204  -32.5460   23.1066 H   0  0  0  0  0  0
  -25.0139  -33.9685   25.0453 H   0  0  0  0  0  0
  -22.7211  -31.2945   21.3971 H   0  0  0  0  0  0
  -23.3771  -35.9596   23.3302 H   0  0  0  0  0  0
  -24.3557  -36.8891   22.2052 H   0  0  0  0  0  0
  -23.7244  -37.6463   23.6674 H   0  0  0  0  0  0
  -26.0925  -31.5479   20.6023 H   0  0  0  0  0  0
  -26.8464  -30.8392   21.9969 H   0  0  0  0  0  0
  -28.1321  -28.9662   21.1794 H   0  0  0  0  0  0
  -26.0133  -25.9113   19.0003 H   0  0  0  0  0  0
  -23.9713  -27.2838   19.0320 H   0  0  0  0  0  0
  -23.7579  -30.5780   19.4014 H   0  0  0  0  0  0
  -22.7632  -29.2285   19.8641 H   0  0  0  0  0  0
  -25.1295  -36.1901   25.0812 H   0  0  0  0  0  0
  -20.9930  -28.3281   24.1418 H   0  0  0  0  0  0
  -20.5751  -26.2295   23.3578 H   0  0  0  0  0  0
  -21.6642  -26.7518   22.1151 H   0  0  0  0  0  0
  -19.6940  -25.6324   21.1232 H   0  0  0  0  0  0
  -19.6702  -27.3220   20.6748 H   0  0  0  0  0  0
  -17.4203  -26.6687   21.4008 H   0  0  0  0  0  0
  -18.0312  -26.0091   22.9004 H   0  0  0  0  0  0
  -19.7943  -30.7247   24.2287 H   0  0  0  0  0  0
  -17.5031  -31.6288   24.5160 H   0  0  0  0  0  0
  -15.5355  -30.2990   23.7698 H   0  0  0  0  0  0
  -15.8655  -28.0835   22.7090 H   0  0  0  0  0  0
  -24.5938  -30.7033   25.7734 H   0  0  0  0  0  0
  -24.8907  -32.2824   26.4901 H   0  0  0  0  0  0
  -25.8066  -30.8842   27.0190 H   0  0  0  0  0  0
  -26.3002  -29.6746   24.1239 H   0  0  0  0  0  0
  -27.4203  -29.7364   25.4646 H   0  0  0  0  0  0
  -27.8805  -30.4382   23.9333 H   0  0  0  0  0  0
  -27.2671  -33.3700   26.1985 H   0  0  0  0  0  0
  -28.3893  -32.6852   25.0350 H   0  0  0  0  0  0
  -28.0671  -31.8552   26.5460 H   0  0  0  0  0  0
  -28.2584  -38.0098   24.7518 H   0  0  0  0  0  0
  -28.1087  -36.2617   24.6329 H   0  0  0  0  0  0
  -27.2271  -37.1444   25.8869 H   0  0  0  0  0  0
  -20.9435  -29.8742   21.6854 H   0  0  0  0  0  0
  -26.0188  -38.2824   24.1433 H   0  0  0  0  0  0
  -29.1654  -18.6138   21.9600 H   0  0  0  0  0  0
  -28.2280  -17.9857   20.6153 H   0  0  0  0  0  0
  -30.8401  -19.7165   18.4037 H   0  0  0  0  0  0
  -31.6410  -19.6167   19.9700 H   0  0  0  0  0  0
  -31.0825  -17.3469   21.3994 H   0  0  0  0  0  0
  -30.1353  -17.3604   18.5245 H   0  0  0  0  0  0
  -25.7362  -24.0164   20.2552 H   0  0  0  0  0  0
  -25.9921  -23.5353   21.9371 H   0  0  0  0  0  0
  -25.2708  -22.4323   20.7999 H   0  0  0  0  0  0
  -31.4239  -24.4122   20.8637 H   0  0  0  0  0  0
  -30.6426  -25.0592   19.4151 H   0  0  0  0  0  0
  -31.7025  -23.6653   19.2909 H   0  0  0  0  0  0
  -25.3788  -19.0924   21.5678 H   0  0  0  0  0  0
  -25.7415  -20.6765   22.2441 H   0  0  0  0  0  0
  -26.9687  -19.4274   22.2493 H   0  0  0  0  0  0
  -26.9537  -19.4641   19.6800 H   0  0  0  0  0  0
  -25.8208  -20.7206   19.6967 H   0  0  0  0  0  0
  -29.0013  -25.4234   21.7201 H   0  0  0  0  0  0
  -27.3141  -25.3052   21.5264 H   0  0  0  0  0  0
  -28.9023  -15.5805   20.8707 H   0  0  0  0  0  0
  -32.8965  -17.6035   19.4803 H   0  0  0  0  0  0
  -32.3683  -17.2776   17.9671 H   0  0  0  0  0  0
  -32.1844  -16.1696   19.1737 H   0  0  0  0  0  0
  1 25  1  0  0  0
  1 30  2  0  0  0
  1 87  1  0  0  0
  2  3  1  0  0  0
  2 25  1  0  0  0
  2 89  1  0  0  0
  2 90  1  0  0  0
  3  4  1  0  0  0
  3 91  1  0  0  0
  3 92  1  0  0  0
  4  5  1  0  0  0
  4 93  1  0  0  0
  4 94  1  0  0  0
  5  6  1  0  0  0
  5 26  1  0  0  0
  5 95  1  0  0  0
  6 25  1  0  0  0
  6 96  1  0  0  0
  6 97  1  0  0  0
  7  8  2  0  0  0
  7 26  1  0  0  0
  7 29  1  0  0  0
  8  9  1  0  0  0
  8 22  1  0  0  0
  9 10  1  0  0  0
  9 27  2  0  0  0
 10 11  2  0  0  0
 10 15  1  0  0  0
 11 12  1  0  0  0
 11 98  1  0  0  0
 12 13  2  0  0  0
 12 99  1  0  0  0
 13 14  1  0  0  0
 13 31  1  0  0  0
 14 15  2  0  0  0
 14100  1  0  0  0
 15101  1  0  0  0
 16 17  2  0  0  0
 16 21  1  0  0  0
 16 31  1  0  0  0
 17 18  1  0  0  0
 17102  1  0  0  0
 18 19  2  0  0  0
 18103  1  0  0  0
 19 20  1  0  0  0
 19 24  1  0  0  0
 20 21  2  0  0  0
 20104  1  0  0  0
 21 23  1  0  0  0
 22 28  1  0  0  0
 22 32  2  0  0  0
 26 27  1  0  0  0
 28105  1  0  0  0
 28106  1  0  0  0
 29107  1  0  0  0
 29108  1  0  0  0
 33 34  1  0  0  0
 33 66  1  0  0  0
 33 70  2  0  0  0
 34 36  1  0  0  0
 34 59  1  0  0  0
 34109  1  0  0  0
 35 44  2  0  0  0
 35 45  1  0  0  0
 35 68  1  0  0  0
 36 56  1  0  0  0
 36110  1  0  0  0
 37 39  1  0  0  0
 37 47  1  0  0  0
 37 66  1  0  0  0
 37111  1  0  0  0
 38 43  2  0  0  0
 38 46  1  0  0  0
 38 47  1  0  0  0
 39 64  1  0  0  0
 39 67  2  0  0  0
 40 52  1  0  0  0
 40 53  2  0  0  0
 40 58  1  0  0  0
 41112  1  0  0  0
 41113  1  0  0  0
 41114  1  0  0  0
 41 48  1  0  0  0
 42 43  1  0  0  0
 42 66  1  0  0  0
 42115  1  0  0  0
 42116  1  0  0  0
 43 44  1  0  0  0
 44117  1  0  0  0
 45 46  2  0  0  0
 45118  1  0  0  0
 46119  1  0  0  0
 47120  1  0  0  0
 47121  1  0  0  0
 48 56  1  0  0  0
 48 65  1  0  0  0
 48122  1  0  0  0
 49 50  1  0  0  0
 49 53  1  0  0  0
 49 64  1  0  0  0
 49123  1  0  0  0
 50 51  1  0  0  0
 50124  1  0  0  0
 50125  1  0  0  0
 51 52  1  0  0  0
 51126  1  0  0  0
 51127  1  0  0  0
 52128  1  0  0  0
 52129  1  0  0  0
 53 54  1  0  0  0
 54 55  2  0  0  0
 54130  1  0  0  0
 55 57  1  0  0  0
 55131  1  0  0  0
 56 69  2  0  0  0
 57 58  2  0  0  0
 57132  1  0  0  0
 58133  1  0  0  0
 59 60  1  0  0  0
 59 61  1  0  0  0
 59 62  1  0  0  0
 60134  1  0  0  0
 60135  1  0  0  0
 60136  1  0  0  0
 61137  1  0  0  0
 61138  1  0  0  0
 61139  1  0  0  0
 62140  1  0  0  0
 62141  1  0  0  0
 62142  1  0  0  0
 63 65  1  0  0  0
 63143  1  0  0  0
 63144  1  0  0  0
 63145  1  0  0  0
 64146  1  0  0  0
 65147  1  0  0  0
 68 84  1  0  0  0
 71 72  2  0  0  0
 71 73  1  0  0  0
 71 80  1  0  0  0
 72 74  1  0  0  0
 72 84  1  0  0  0
 73 75  2  0  0  0
 73 83  1  0  0  0
 74 81  1  0  0  0
 74 85  2  0  0  0
 75 85  1  0  0  0
 75 86  1  0  0  0
 76 78  1  0  0  0
 76 86  1  0  0  0
 76148  1  0  0  0
 76149  1  0  0  0
 77 79  1  0  0  0
 77 86  1  0  0  0
 77150  1  0  0  0
 77151  1  0  0  0
 78 79  1  0  0  0
 78 87  1  0  0  0
 78152  1  0  0  0
 79 88  1  0  0  0
 79153  1  0  0  0
 80154  1  0  0  0
 80155  1  0  0  0
 80156  1  0  0  0
 81157  1  0  0  0
 81158  1  0  0  0
 81159  1  0  0  0
 82 83  1  0  0  0
 82160  1  0  0  0
 82161  1  0  0  0
 82162  1  0  0  0
 83163  1  0  0  0
 83164  1  0  0  0
 84165  1  0  0  0
 84166  1  0  0  0
 87167  1  0  0  0
 88168  1  0  0  0
 88169  1  0  0  0
 88170  1  0  0  0
M  CHG  1  88   1
M  ISO  4   1 100  68 101  84 101  87 100
M  END
> <chiral flag>
0

> <version>
0

> <s_m_source_file>
/data/baiqing/PycharmProjects/Reinvent-master-3.2/result/LINK_invent/BTK/process_docking_weight1_custom_sum_contain_oxygen_bond_distance_aromatic_linkinvent_7_9_3/rearranged_h_0172.sdf

> <i_m_source_file_index>
20

> <r_mmod_Potential_Energy-OPLS-2005>
-372.342041015625

> <r_mmod_Stretch_Energy-OPLS-2005>
91.9602737426758

> <r_mmod_Bend_Energy-OPLS-2005>
202.947814941406

> <r_mmod_Torsional_Energy-OPLS-2005>
333.290679931641

> <r_mmod_Improper_Torsional_Energy-OPLS-2005>
8.58686447143555

> <r_mmod_Van_der_Waal_Energy-OPLS-2005>
153.500534057617

> <r_mmod_Electrostatic_Energy-OPLS-2005>
-738.992431640625

> <r_mmod_Solvation_Energy-OPLS-2005>
-475.264343261719

> <b_mmod_Minimization_Converged-OPLS-2005>
0

> <r_mmod_RMS_Derivative-OPLS-2005>
3.51862478256226

$$$$
20
                    3D
 Structure written by MMmdl.
158167  0  0  1  0            999 V2000
  -30.6244  -14.7676   20.4799 C   0  0  0  0  0  0
  -30.4296  -12.4801   19.4679 C   0  0  0  0  0  0
  -29.5043  -12.5224   18.2325 C   0  0  0  0  0  0
  -28.0283  -12.3547   18.6418 C   0  0  0  0  0  0
  -27.6398  -13.2377   19.8582 C   0  0  2  0  0  0
  -28.6903  -13.1443   20.9843 C   0  0  0  0  0  0
  -25.2477  -13.8208   20.5718 C   0  0  0  0  0  0
  -24.1779  -13.0429   20.9213 C   0  0  0  0  0  0
  -24.6395  -11.6920   20.8757 C   0  0  0  0  0  0
  -23.9074  -10.4284   21.0394 C   0  0  0  0  0  0
  -24.3624   -9.4195   21.9166 C   0  0  0  0  0  0
  -23.6290   -8.2240   22.0740 C   0  0  0  0  0  0
  -22.4271   -8.0284   21.3537 C   0  0  0  0  0  0
  -21.9909   -9.0255   20.4639 C   0  0  0  0  0  0
  -22.7245  -10.2127   20.3045 C   0  0  0  0  0  0
  -21.6855   -6.0738   22.5285 C   0  0  0  0  0  0
  -21.4026   -6.5637   23.8223 C   0  0  0  0  0  0
  -21.3653   -5.6788   24.9176 C   0  0  0  0  0  0
  -21.6038   -4.3054   24.7223 C   0  0  0  0  0  0
  -21.8818   -3.8149   23.4344 C   0  0  0  0  0  0
  -21.9197   -4.6967   22.3400 C   0  0  0  0  0  0
  -22.7799  -13.5214   21.1862 C   0  0  0  0  0  0
  -22.1667   -4.2160   21.0977 F   0  0  0  0  0  0
  -21.5604   -3.4532   25.7727 F   0  0  0  0  0  0
  -29.9772  -13.5454   20.3994 N   0  0  0  0  0  0
  -26.2934  -12.9438   20.3349 N   0  0  0  0  0  0
  -25.9338  -11.6571   20.5799 N   0  0  0  0  0  0
  -22.0469  -12.8196   22.0430 N   0  0  0  0  0  0
  -25.4076  -15.1930   20.4129 N   0  0  0  0  0  0
  -31.8062  -14.8233   20.1241 O   0  0  0  0  0  0
  -21.6632   -6.8880   21.4247 O   0  0  0  0  0  0
  -22.3466  -14.5512   20.6712 O   0  0  0  0  0  0
  -24.6334  -31.8538   23.1988 C   0  0  0  0  0  0
  -25.9153  -32.4748   23.8334 C   0  0  1  0  0  0
  -27.2159  -27.2276   20.1102 C   0  0  0  0  0  0
  -25.5939  -33.8556   24.2248 N   0  0  0  0  0  0
  -23.4318  -30.4788   21.5404 C   0  0  2  0  0  0
  -24.8804  -28.9261   20.1038 C   0  0  0  0  0  0
  -22.7495  -29.4614   22.4878 C   0  0  0  0  0  0
  -18.0288  -28.1399   22.8483 C   0  0  0  0  0  0
  -24.1491  -36.7271   23.2638 C   0  0  0  0  0  0
  -25.9833  -30.7468   21.3948 C   0  0  0  0  0  0
  -26.0506  -29.3687   20.7328 C   0  0  0  0  0  0
  -27.2135  -28.5247   20.7418 C   0  0  0  0  0  0
  -26.0329  -26.8861   19.4367 C   0  0  0  0  0  0
  -24.8777  -27.6893   19.4456 C   0  0  0  0  0  0
  -23.6534  -29.8176   20.1552 C   0  0  0  0  0  0
  -25.4119  -36.3069   24.0326 C   0  0  1  0  0  0
  -20.5896  -28.3723   23.1259 C   0  0  2  0  0  0
  -20.6784  -26.9437   22.5420 C   0  0  0  0  0  0
  -19.5767  -26.6394   21.5215 C   0  0  0  0  0  0
  -18.1935  -26.7952   22.1608 C   0  0  0  0  0  0
  -19.1544  -28.8870   23.2867 C   0  0  0  0  0  0
  -18.9470  -30.1459   23.8901 C   0  0  0  0  0  0
  -17.6477  -30.6602   24.0569 C   0  0  0  0  0  0
  -25.9063  -34.9442   23.5091 C   0  0  0  0  0  0
  -16.5361  -29.9103   23.6334 C   0  0  0  0  0  0
  -16.7276  -28.6515   23.0362 C   0  0  0  0  0  0
  -26.4503  -31.6582   25.0737 C   0  0  0  0  0  0
  -25.3696  -31.3749   26.1436 C   0  0  0  0  0  0
  -27.0377  -30.2982   24.6299 C   0  0  0  0  0  0
  -27.6046  -32.4336   25.7511 C   0  0  0  0  0  0
  -27.5582  -37.1792   24.8458 C   0  0  0  0  0  0
  -21.4197  -29.3068   22.3619 N   0  0  0  0  0  0
  -26.4290  -37.3775   23.9408 N   0  0  0  0  0  0
  -24.7010  -31.0459   22.0996 N   0  0  0  0  0  0
  -23.4172  -28.8154   23.2993 O   0  0  0  0  0  0
  -28.2771  -26.2866   20.2122 O   0  0  0  0  0  0
  -26.5638  -34.8926   22.4663 O   0  0  0  0  0  0
  -23.5473  -32.1390   23.7251 O   0  0  0  0  0  0
  -29.0184  -22.4682   20.1241 C   0  0  0  0  0  0
  -26.6576  -21.5488   19.1784 C   0  0  0  0  0  0
  -28.1093  -23.5007   19.6109 C   0  0  0  0  0  0
  -26.9235  -22.9261   19.0495 C   0  0  0  0  0  0
  -28.7151  -21.0374   20.1023 C   0  0  0  0  0  0
  -28.8104  -17.8469   21.7502 C   0  0  0  0  0  0
  -28.8711  -16.3002   21.5858 C   0  0  0  0  0  0
  -30.3058  -17.3212   20.0224 C   0  0  0  0  0  0
  -29.2335  -18.4406   20.4055 C   0  0  2  0  0  0
  -25.9306  -23.6618   18.1651 C   0  0  0  0  0  0
  -28.5011  -25.0613   19.3363 C   0  0  0  0  0  0
  -27.5100  -20.6402   19.6765 N   0  0  0  0  0  0
  -29.9030  -15.9700   20.5891 N   0  0  0  0  0  0
  -29.5947  -19.9299   20.4407 N   0  0  0  0  0  0
  -31.4667  -12.6081   19.1524 H   0  0  0  0  0  0
  -30.3877  -11.5034   19.9522 H   0  0  0  0  0  0
  -29.7858  -11.7448   17.5218 H   0  0  0  0  0  0
  -29.6342  -13.4736   17.7158 H   0  0  0  0  0  0
  -27.8713  -11.3036   18.8839 H   0  0  0  0  0  0
  -27.3759  -12.5736   17.7950 H   0  0  0  0  0  0
  -27.6367  -14.2662   19.4966 H   0  0  0  0  0  0
  -28.7443  -12.1262   21.3718 H   0  0  0  0  0  0
  -28.4164  -13.7581   21.8390 H   0  0  0  0  0  0
  -25.2767   -9.5663   22.4736 H   0  0  0  0  0  0
  -23.9987   -7.4632   22.7463 H   0  0  0  0  0  0
  -21.0830   -8.8784   19.8954 H   0  0  0  0  0  0
  -22.3701  -10.9662   19.6154 H   0  0  0  0  0  0
  -21.2047   -7.6156   23.9721 H   0  0  0  0  0  0
  -21.1460   -6.0524   25.9073 H   0  0  0  0  0  0
  -22.0604   -2.7619   23.2843 H   0  0  0  0  0  0
  -22.4137  -11.9885   22.4818 H   0  0  0  0  0  0
  -21.1092  -13.1188   22.2678 H   0  0  0  0  0  0
  -24.6348  -15.8386   20.5328 H   0  0  0  0  0  0
  -26.2598  -15.6484   20.1135 H   0  0  0  0  0  0
  -26.7208  -32.5392   23.1057 H   0  0  0  0  0  0
  -25.0072  -33.9699   25.0385 H   0  0  0  0  0  0
  -22.7321  -31.3050   21.3961 H   0  0  0  0  0  0
  -23.3779  -35.9578   23.3295 H   0  0  0  0  0  0
  -24.3558  -36.8896   22.2049 H   0  0  0  0  0  0
  -23.7239  -37.6458   23.6681 H   0  0  0  0  0  0
  -26.1382  -31.5054   20.6262 H   0  0  0  0  0  0
  -26.8551  -30.7902   22.0368 H   0  0  0  0  0  0
  -28.0980  -28.8464   21.2736 H   0  0  0  0  0  0
  -25.9815  -25.9619   18.9176 H   0  0  0  0  0  0
  -23.9877  -27.3465   18.9354 H   0  0  0  0  0  0
  -23.7818  -30.5980   19.4042 H   0  0  0  0  0  0
  -22.7712  -29.2545   19.8448 H   0  0  0  0  0  0
  -25.1302  -36.1913   25.0819 H   0  0  0  0  0  0
  -20.9968  -28.3347   24.1389 H   0  0  0  0  0  0
  -20.5674  -26.2353   23.3633 H   0  0  0  0  0  0
  -21.6662  -26.7465   22.1241 H   0  0  0  0  0  0
  -19.6940  -25.6300   21.1256 H   0  0  0  0  0  0
  -19.6721  -27.3188   20.6731 H   0  0  0  0  0  0
  -17.4219  -26.6701   21.3989 H   0  0  0  0  0  0
  -18.0317  -26.0087   22.8992 H   0  0  0  0  0  0
  -19.7951  -30.7252   24.2285 H   0  0  0  0  0  0
  -17.5052  -31.6284   24.5174 H   0  0  0  0  0  0
  -15.5368  -30.3022   23.7666 H   0  0  0  0  0  0
  -15.8671  -28.0834   22.7099 H   0  0  0  0  0  0
  -24.6011  -30.6903   25.7817 H   0  0  0  0  0  0
  -24.8709  -32.2900   26.4641 H   0  0  0  0  0  0
  -25.8019  -30.9164   27.0340 H   0  0  0  0  0  0
  -26.2995  -29.6703   24.1293 H   0  0  0  0  0  0
  -27.3982  -29.7279   25.4872 H   0  0  0  0  0  0
  -27.8909  -30.4222   23.9627 H   0  0  0  0  0  0
  -27.2647  -33.3675   26.2005 H   0  0  0  0  0  0
  -28.3892  -32.6815   25.0349 H   0  0  0  0  0  0
  -28.0669  -31.8506   26.5484 H   0  0  0  0  0  0
  -28.2602  -38.0089   24.7505 H   0  0  0  0  0  0
  -28.1081  -36.2622   24.6284 H   0  0  0  0  0  0
  -27.2299  -37.1430   25.8860 H   0  0  0  0  0  0
  -20.9372  -29.8769   21.6812 H   0  0  0  0  0  0
  -26.0171  -38.2845   24.1426 H   0  0  0  0  0  0
  -29.9950  -22.7797   20.4684 H   0  0  0  0  0  0
  -25.7513  -21.1304   18.7654 H   0  0  0  0  0  0
  -29.5218  -18.1475   22.5223 H   0  0  0  0  0  0
  -27.8242  -18.1881   22.0658 H   0  0  0  0  0  0
  -27.9081  -15.9436   21.2262 H   0  0  0  0  0  0
  -29.0663  -15.8206   22.5464 H   0  0  0  0  0  0
  -31.2846  -17.5759   20.4306 H   0  0  0  0  0  0
  -30.4201  -17.2542   18.9393 H   0  0  0  0  0  0
  -28.3965  -18.3103   19.7182 H   0  0  0  0  0  0
  -25.4702  -22.9687   17.4581 H   0  0  0  0  0  0
  -26.3964  -24.4209   17.5392 H   0  0  0  0  0  0
  -25.1149  -24.0789   18.7550 H   0  0  0  0  0  0
  -28.1966  -25.3229   18.3250 H   0  0  0  0  0  0
  -29.5873  -25.0291   19.2506 H   0  0  0  0  0  0
  -30.5311  -20.1615   20.7560 H   0  0  0  0  0  0
  1 25  1  0  0  0
  1 30  2  0  0  0
  1 83  1  0  0  0
  2  3  1  0  0  0
  2 25  1  0  0  0
  2 85  1  0  0  0
  2 86  1  0  0  0
  3  4  1  0  0  0
  3 87  1  0  0  0
  3 88  1  0  0  0
  4  5  1  0  0  0
  4 89  1  0  0  0
  4 90  1  0  0  0
  5  6  1  0  0  0
  5 26  1  0  0  0
  5 91  1  0  0  0
  6 25  1  0  0  0
  6 92  1  0  0  0
  6 93  1  0  0  0
  7  8  2  0  0  0
  7 26  1  0  0  0
  7 29  1  0  0  0
  8  9  1  0  0  0
  8 22  1  0  0  0
  9 10  1  0  0  0
  9 27  2  0  0  0
 10 11  2  0  0  0
 10 15  1  0  0  0
 11 12  1  0  0  0
 11 94  1  0  0  0
 12 13  2  0  0  0
 12 95  1  0  0  0
 13 14  1  0  0  0
 13 31  1  0  0  0
 14 15  2  0  0  0
 14 96  1  0  0  0
 15 97  1  0  0  0
 16 17  2  0  0  0
 16 21  1  0  0  0
 16 31  1  0  0  0
 17 18  1  0  0  0
 17 98  1  0  0  0
 18 19  2  0  0  0
 18 99  1  0  0  0
 19 20  1  0  0  0
 19 24  1  0  0  0
 20 21  2  0  0  0
 20100  1  0  0  0
 21 23  1  0  0  0
 22 28  1  0  0  0
 22 32  2  0  0  0
 26 27  1  0  0  0
 28101  1  0  0  0
 28102  1  0  0  0
 29103  1  0  0  0
 29104  1  0  0  0
 33 34  1  0  0  0
 33 66  1  0  0  0
 33 70  2  0  0  0
 34 36  1  0  0  0
 34 59  1  0  0  0
 34105  1  0  0  0
 35 44  2  0  0  0
 35 45  1  0  0  0
 35 68  1  0  0  0
 36 56  1  0  0  0
 36106  1  0  0  0
 37 39  1  0  0  0
 37 47  1  0  0  0
 37 66  1  0  0  0
 37107  1  0  0  0
 38 43  2  0  0  0
 38 46  1  0  0  0
 38 47  1  0  0  0
 39 64  1  0  0  0
 39 67  2  0  0  0
 40 52  1  0  0  0
 40 53  2  0  0  0
 40 58  1  0  0  0
 41108  1  0  0  0
 41109  1  0  0  0
 41110  1  0  0  0
 41 48  1  0  0  0
 42 43  1  0  0  0
 42 66  1  0  0  0
 42111  1  0  0  0
 42112  1  0  0  0
 43 44  1  0  0  0
 44113  1  0  0  0
 45 46  2  0  0  0
 45114  1  0  0  0
 46115  1  0  0  0
 47116  1  0  0  0
 47117  1  0  0  0
 48 56  1  0  0  0
 48 65  1  0  0  0
 48118  1  0  0  0
 49 50  1  0  0  0
 49 53  1  0  0  0
 49 64  1  0  0  0
 49119  1  0  0  0
 50 51  1  0  0  0
 50120  1  0  0  0
 50121  1  0  0  0
 51 52  1  0  0  0
 51122  1  0  0  0
 51123  1  0  0  0
 52124  1  0  0  0
 52125  1  0  0  0
 53 54  1  0  0  0
 54 55  2  0  0  0
 54126  1  0  0  0
 55 57  1  0  0  0
 55127  1  0  0  0
 56 69  2  0  0  0
 57 58  2  0  0  0
 57128  1  0  0  0
 58129  1  0  0  0
 59 60  1  0  0  0
 59 61  1  0  0  0
 59 62  1  0  0  0
 60130  1  0  0  0
 60131  1  0  0  0
 60132  1  0  0  0
 61133  1  0  0  0
 61134  1  0  0  0
 61135  1  0  0  0
 62136  1  0  0  0
 62137  1  0  0  0
 62138  1  0  0  0
 63 65  1  0  0  0
 63139  1  0  0  0
 63140  1  0  0  0
 63141  1  0  0  0
 64142  1  0  0  0
 65143  1  0  0  0
 68 81  1  0  0  0
 71 73  2  0  0  0
 71 75  1  0  0  0
 71144  1  0  0  0
 72 74  2  0  0  0
 72 82  1  0  0  0
 72145  1  0  0  0
 73 74  1  0  0  0
 73 81  1  0  0  0
 74 80  1  0  0  0
 75 82  2  0  0  0
 75 84  1  0  0  0
 76 77  1  0  0  0
 76 79  1  0  0  0
 76146  1  0  0  0
 76147  1  0  0  0
 77 83  1  0  0  0
 77148  1  0  0  0
 77149  1  0  0  0
 78 79  1  0  0  0
 78 83  1  0  0  0
 78150  1  0  0  0
 78151  1  0  0  0
 79 84  1  0  0  0
 79152  1  0  0  0
 80153  1  0  0  0
 80154  1  0  0  0
 80155  1  0  0  0
 81156  1  0  0  0
 81157  1  0  0  0
 84158  1  0  0  0
M  ISO  4   1 100  68 101  81 101  83 100
M  END
> <chiral flag>
0

> <version>
0

> <s_m_source_file>
/data/baiqing/PycharmProjects/Reinvent-master-3.2/result/LINK_invent/BTK/process_docking_weight1_custom_sum_contain_oxygen_bond_distance_aromatic_linkinvent_7_9_3/rearranged_h_0172.sdf

> <i_m_source_file_index>
21

> <r_mmod_Potential_Energy-OPLS-2005>
229.1494140625

> <r_mmod_Stretch_Energy-OPLS-2005>
147.623916625977

> <r_mmod_Bend_Energy-OPLS-2005>
262.434844970703

> <r_mmod_Torsional_Energy-OPLS-2005>
311.404113769531

> <r_mmod_Improper_Torsional_Energy-OPLS-2005>
14.1979103088379

> <r_mmod_Van_der_Waal_Energy-OPLS-2005>
147.535491943359

> <r_mmod_Electrostatic_Energy-OPLS-2005>
-522.201232910156

> <r_mmod_Solvation_Energy-OPLS-2005>
-233.00146484375

> <b_mmod_Minimization_Converged-OPLS-2005>
0

> <r_mmod_RMS_Derivative-OPLS-2005>
1.96346056461334

$$$$
21
                    3D
 Structure written by MMmdl.
165174  0  0  1  0            999 V2000
  -30.5649  -14.9264   20.3309 C   0  0  0  0  0  0
  -30.4399  -12.5552   19.4743 C   0  0  0  0  0  0
  -29.5170  -12.4466   18.2395 C   0  0  0  0  0  0
  -28.0365  -12.3058   18.6554 C   0  0  0  0  0  0
  -27.6223  -13.2373   19.8280 C   0  0  2  0  0  0
  -28.6811  -13.2932   20.9470 C   0  0  0  0  0  0
  -25.2470  -13.8179   20.5765 C   0  0  0  0  0  0
  -24.1764  -13.0425   20.9243 C   0  0  0  0  0  0
  -24.6364  -11.6906   20.8767 C   0  0  0  0  0  0
  -23.9050  -10.4288   21.0407 C   0  0  0  0  0  0
  -24.3602   -9.4210   21.9188 C   0  0  0  0  0  0
  -23.6295   -8.2237   22.0754 C   0  0  0  0  0  0
  -22.4283   -8.0264   21.3542 C   0  0  0  0  0  0
  -21.9912   -9.0229   20.4640 C   0  0  0  0  0  0
  -22.7229  -10.2119   20.3051 C   0  0  0  0  0  0
  -21.6855   -6.0723   22.5277 C   0  0  0  0  0  0
  -21.4012   -6.5630   23.8209 C   0  0  0  0  0  0
  -21.3660   -5.6786   24.9174 C   0  0  0  0  0  0
  -21.6045   -4.3049   24.7226 C   0  0  0  0  0  0
  -21.8818   -3.8137   23.4348 C   0  0  0  0  0  0
  -21.9196   -4.6952   22.3402 C   0  0  0  0  0  0
  -22.7788  -13.5209   21.1881 C   0  0  0  0  0  0
  -22.1668   -4.2138   21.0980 F   0  0  0  0  0  0
  -21.5634   -3.4532   25.7737 F   0  0  0  0  0  0
  -29.9493  -13.6781   20.3142 N   0  0  0  0  0  0
  -26.2872  -12.9377   20.3298 N   0  0  0  0  0  0
  -25.9298  -11.6522   20.5780 N   0  0  0  0  0  0
  -22.0421  -12.8189   22.0409 N   0  0  0  0  0  0
  -25.4165  -15.1914   20.4249 N   0  0  0  0  0  0
  -31.7997  -14.9495   20.2669 O   0  0  0  0  0  0
  -21.6644   -6.8861   21.4240 O   0  0  0  0  0  0
  -22.3490  -14.5522   20.6734 O   0  0  0  0  0  0
  -24.6412  -31.8470   23.1922 C   0  0  0  0  0  0
  -25.9204  -32.4707   23.8282 C   0  0  1  0  0  0
  -27.2220  -27.1798   20.1229 C   0  0  0  0  0  0
  -25.5976  -33.8507   24.2212 N   0  0  0  0  0  0
  -23.4401  -30.4685   21.5396 C   0  0  2  0  0  0
  -24.8863  -28.9048   20.1067 C   0  0  0  0  0  0
  -22.7554  -29.4550   22.4903 C   0  0  0  0  0  0
  -18.0292  -28.1395   22.8475 C   0  0  0  0  0  0
  -24.1481  -36.7230   23.2636 C   0  0  0  0  0  0
  -25.9930  -30.7345   21.3815 C   0  0  0  0  0  0
  -26.0632  -29.3500   20.7202 C   0  0  0  0  0  0
  -27.2275  -28.4998   20.7198 C   0  0  0  0  0  0
  -26.0075  -26.8189   19.4942 C   0  0  0  0  0  0
  -24.8678  -27.6487   19.4845 C   0  0  0  0  0  0
  -23.6610  -29.8020   20.1562 C   0  0  0  0  0  0
  -25.4106  -36.3023   24.0324 C   0  0  1  0  0  0
  -20.5906  -28.3701   23.1264 C   0  0  2  0  0  0
  -20.6780  -26.9412   22.5408 C   0  0  0  0  0  0
  -19.5757  -26.6383   21.5213 C   0  0  0  0  0  0
  -18.1935  -26.7937   22.1616 C   0  0  0  0  0  0
  -19.1552  -28.8868   23.2863 C   0  0  0  0  0  0
  -18.9461  -30.1470   23.8876 C   0  0  0  0  0  0
  -17.6456  -30.6587   24.0554 C   0  0  0  0  0  0
  -25.9071  -34.9407   23.5073 C   0  0  0  0  0  0
  -16.5344  -29.9070   23.6350 C   0  0  0  0  0  0
  -16.7278  -28.6497   23.0356 C   0  0  0  0  0  0
  -26.4538  -31.6554   25.0704 C   0  0  0  0  0  0
  -25.3739  -31.3678   26.1403 C   0  0  0  0  0  0
  -27.0419  -30.2979   24.6208 C   0  0  0  0  0  0
  -27.6057  -32.4313   25.7511 C   0  0  0  0  0  0
  -27.5567  -37.1768   24.8453 C   0  0  0  0  0  0
  -21.4249  -29.3031   22.3653 N   0  0  0  0  0  0
  -26.4252  -37.3753   23.9436 N   0  0  0  0  0  0
  -24.7115  -31.0364   22.0940 N   0  0  0  0  0  0
  -23.4220  -28.8106   23.3035 O   0  0  0  0  0  0
  -28.2878  -26.2232   20.2342 O   0  0  0  0  0  0
  -26.5637  -34.8906   22.4635 O   0  0  0  0  0  0
  -23.5547  -32.1326   23.7182 O   0  0  0  0  0  0
  -28.6310  -20.9552   18.9293 C   0  0  0  0  0  0
  -28.4733  -22.3785   18.6847 C   0  0  0  0  0  0
  -29.0549  -20.4383   20.1985 C   0  0  0  0  0  0
  -28.6181  -23.3771   19.7126 C   0  0  0  0  0  0
  -29.2270  -21.5148   21.1482 C   0  0  0  0  0  0
  -30.2021  -17.0265   17.8964 C   0  0  0  0  0  0
  -30.8880  -17.9565   18.8901 C   0  0  0  0  0  0
  -29.2385  -16.1853   18.7457 C   0  0  0  0  0  0
  -30.2027  -17.6458   20.2259 C   0  0  1  0  0  0
  -28.2907  -19.9831   17.8041 C   0  0  0  0  0  0
  -28.1382  -22.8503   17.2649 C   0  0  0  0  0  0
  -29.6375  -21.1877   22.5708 C   0  0  0  0  0  0
  -29.0724  -18.8267   20.5859 C   0  0  0  0  0  0
  -28.4247  -24.9805   19.3488 C   0  0  0  0  0  0
  -29.0182  -22.8782   20.9259 N   0  0  0  0  0  0
  -29.8084  -16.1231   20.1026 N   0  0  0  0  0  0
  -31.4710  -12.7100   19.1520 H   0  0  0  0  0  0
  -30.4373  -11.6238   20.0418 H   0  0  0  0  0  0
  -29.8074  -11.5813   17.6424 H   0  0  0  0  0  0
  -29.6525  -13.3022   17.5799 H   0  0  0  0  0  0
  -27.8854  -11.2665   18.9466 H   0  0  0  0  0  0
  -27.3864  -12.4737   17.7962 H   0  0  0  0  0  0
  -27.5520  -14.2310   19.3977 H   0  0  0  0  0  0
  -28.7689  -12.3357   21.4631 H   0  0  0  0  0  0
  -28.3989  -14.0329   21.6983 H   0  0  0  0  0  0
  -25.2733   -9.5706   22.4778 H   0  0  0  0  0  0
  -24.0012   -7.4630   22.7470 H   0  0  0  0  0  0
  -21.0849   -8.8725   19.8939 H   0  0  0  0  0  0
  -22.3667  -10.9648   19.6162 H   0  0  0  0  0  0
  -21.1993   -7.6137   23.9706 H   0  0  0  0  0  0
  -21.1491   -6.0517   25.9076 H   0  0  0  0  0  0
  -22.0596   -2.7600   23.2839 H   0  0  0  0  0  0
  -22.4035  -11.9842   22.4782 H   0  0  0  0  0  0
  -21.1019  -13.1188   22.2576 H   0  0  0  0  0  0
  -24.6531  -15.8462   20.5568 H   0  0  0  0  0  0
  -26.2776  -15.6381   20.1375 H   0  0  0  0  0  0
  -26.7262  -32.5325   23.1009 H   0  0  0  0  0  0
  -25.0167  -33.9617   25.0391 H   0  0  0  0  0  0
  -22.7402  -31.2931   21.3925 H   0  0  0  0  0  0
  -23.3774  -35.9525   23.3232 H   0  0  0  0  0  0
  -24.3589  -36.8921   22.2065 H   0  0  0  0  0  0
  -23.7187  -37.6388   23.6706 H   0  0  0  0  0  0
  -26.1390  -31.4903   20.6083 H   0  0  0  0  0  0
  -26.8689  -30.7853   22.0165 H   0  0  0  0  0  0
  -28.1223  -28.8352   21.2261 H   0  0  0  0  0  0
  -25.8688  -25.8438   19.0563 H   0  0  0  0  0  0
  -23.9612  -27.2909   19.0152 H   0  0  0  0  0  0
  -23.7928  -30.5796   19.4037 H   0  0  0  0  0  0
  -22.7755  -29.2435   19.8487 H   0  0  0  0  0  0
  -25.1286  -36.1831   25.0814 H   0  0  0  0  0  0
  -20.9989  -28.3263   24.1392 H   0  0  0  0  0  0
  -20.5682  -26.2298   23.3611 H   0  0  0  0  0  0
  -21.6645  -26.7431   22.1201 H   0  0  0  0  0  0
  -19.6913  -25.6295   21.1245 H   0  0  0  0  0  0
  -19.6711  -27.3191   20.6744 H   0  0  0  0  0  0
  -17.4218  -26.6701   21.4004 H   0  0  0  0  0  0
  -18.0313  -26.0079   22.9008 H   0  0  0  0  0  0
  -19.7933  -30.7300   24.2228 H   0  0  0  0  0  0
  -17.5001  -31.6264   24.5157 H   0  0  0  0  0  0
  -15.5342  -30.2944   23.7707 H   0  0  0  0  0  0
  -15.8683  -28.0812   22.7068 H   0  0  0  0  0  0
  -24.5973  -30.6968   25.7719 H   0  0  0  0  0  0
  -24.8867  -32.2828   26.4778 H   0  0  0  0  0  0
  -25.8065  -30.8903   27.0206 H   0  0  0  0  0  0
  -26.3023  -29.6697   24.1231 H   0  0  0  0  0  0
  -27.4117  -29.7263   25.4727 H   0  0  0  0  0  0
  -27.8889  -30.4271   23.9467 H   0  0  0  0  0  0
  -27.2658  -33.3662   26.1973 H   0  0  0  0  0  0
  -28.3951  -32.6775   25.0401 H   0  0  0  0  0  0
  -28.0622  -31.8497   26.5530 H   0  0  0  0  0  0
  -28.2504  -38.0140   24.7591 H   0  0  0  0  0  0
  -28.1142  -36.2674   24.6158 H   0  0  0  0  0  0
  -27.2308  -37.1259   25.8857 H   0  0  0  0  0  0
  -20.9456  -29.8736   21.6835 H   0  0  0  0  0  0
  -26.0105  -38.2804   24.1488 H   0  0  0  0  0  0
  -30.9453  -16.3898   17.4124 H   0  0  0  0  0  0
  -29.6816  -17.5633   17.1037 H   0  0  0  0  0  0
  -30.8277  -19.0069   18.6052 H   0  0  0  0  0  0
  -31.9505  -17.7087   18.9466 H   0  0  0  0  0  0
  -29.0843  -15.2283   18.2610 H   0  0  0  0  0  0
  -28.2559  -16.6546   18.7925 H   0  0  0  0  0  0
  -30.9713  -17.7187   20.9974 H   0  0  0  0  0  0
  -27.3790  -20.2836   17.2866 H   0  0  0  0  0  0
  -28.1031  -18.9716   18.1486 H   0  0  0  0  0  0
  -29.1018  -19.9450   17.0759 H   0  0  0  0  0  0
  -28.4431  -22.1475   16.4919 H   0  0  0  0  0  0
  -28.6633  -23.7707   17.0104 H   0  0  0  0  0  0
  -27.0666  -23.0233   17.1582 H   0  0  0  0  0  0
  -30.5153  -20.5408   22.5759 H   0  0  0  0  0  0
  -28.8291  -20.6746   23.0919 H   0  0  0  0  0  0
  -29.8834  -22.0850   23.1389 H   0  0  0  0  0  0
  -28.1115  -18.4527   20.2377 H   0  0  0  0  0  0
  -28.9416  -18.7736   21.6652 H   0  0  0  0  0  0
  -27.6708  -25.0349   18.5718 H   0  0  0  0  0  0
  -29.3402  -25.2042   18.8012 H   0  0  0  0  0  0
  1 25  1  0  0  0
  1 30  2  0  0  0
  1 86  1  0  0  0
  2  3  1  0  0  0
  2 25  1  0  0  0
  2 87  1  0  0  0
  2 88  1  0  0  0
  3  4  1  0  0  0
  3 89  1  0  0  0
  3 90  1  0  0  0
  4  5  1  0  0  0
  4 91  1  0  0  0
  4 92  1  0  0  0
  5  6  1  0  0  0
  5 26  1  0  0  0
  5 93  1  0  0  0
  6 25  1  0  0  0
  6 94  1  0  0  0
  6 95  1  0  0  0
  7  8  2  0  0  0
  7 26  1  0  0  0
  7 29  1  0  0  0
  8  9  1  0  0  0
  8 22  1  0  0  0
  9 10  1  0  0  0
  9 27  2  0  0  0
 10 11  2  0  0  0
 10 15  1  0  0  0
 11 12  1  0  0  0
 11 96  1  0  0  0
 12 13  2  0  0  0
 12 97  1  0  0  0
 13 14  1  0  0  0
 13 31  1  0  0  0
 14 15  2  0  0  0
 14 98  1  0  0  0
 15 99  1  0  0  0
 16 17  2  0  0  0
 16 21  1  0  0  0
 16 31  1  0  0  0
 17 18  1  0  0  0
 17100  1  0  0  0
 18 19  2  0  0  0
 18101  1  0  0  0
 19 20  1  0  0  0
 19 24  1  0  0  0
 20 21  2  0  0  0
 20102  1  0  0  0
 21 23  1  0  0  0
 22 28  1  0  0  0
 22 32  2  0  0  0
 26 27  1  0  0  0
 28103  1  0  0  0
 28104  1  0  0  0
 29105  1  0  0  0
 29106  1  0  0  0
 33 34  1  0  0  0
 33 66  1  0  0  0
 33 70  2  0  0  0
 34 36  1  0  0  0
 34 59  1  0  0  0
 34107  1  0  0  0
 35 44  2  0  0  0
 35 45  1  0  0  0
 35 68  1  0  0  0
 36 56  1  0  0  0
 36108  1  0  0  0
 37 39  1  0  0  0
 37 47  1  0  0  0
 37 66  1  0  0  0
 37109  1  0  0  0
 38 43  2  0  0  0
 38 46  1  0  0  0
 38 47  1  0  0  0
 39 64  1  0  0  0
 39 67  2  0  0  0
 40 52  1  0  0  0
 40 53  2  0  0  0
 40 58  1  0  0  0
 41110  1  0  0  0
 41111  1  0  0  0
 41112  1  0  0  0
 41 48  1  0  0  0
 42 43  1  0  0  0
 42 66  1  0  0  0
 42113  1  0  0  0
 42114  1  0  0  0
 43 44  1  0  0  0
 44115  1  0  0  0
 45 46  2  0  0  0
 45116  1  0  0  0
 46117  1  0  0  0
 47118  1  0  0  0
 47119  1  0  0  0
 48 56  1  0  0  0
 48 65  1  0  0  0
 48120  1  0  0  0
 49 50  1  0  0  0
 49 53  1  0  0  0
 49 64  1  0  0  0
 49121  1  0  0  0
 50 51  1  0  0  0
 50122  1  0  0  0
 50123  1  0  0  0
 51 52  1  0  0  0
 51124  1  0  0  0
 51125  1  0  0  0
 52126  1  0  0  0
 52127  1  0  0  0
 53 54  1  0  0  0
 54 55  2  0  0  0
 54128  1  0  0  0
 55 57  1  0  0  0
 55129  1  0  0  0
 56 69  2  0  0  0
 57 58  2  0  0  0
 57130  1  0  0  0
 58131  1  0  0  0
 59 60  1  0  0  0
 59 61  1  0  0  0
 59 62  1  0  0  0
 60132  1  0  0  0
 60133  1  0  0  0
 60134  1  0  0  0
 61135  1  0  0  0
 61136  1  0  0  0
 61137  1  0  0  0
 62138  1  0  0  0
 62139  1  0  0  0
 62140  1  0  0  0
 63 65  1  0  0  0
 63141  1  0  0  0
 63142  1  0  0  0
 63143  1  0  0  0
 64144  1  0  0  0
 65145  1  0  0  0
 68 84  1  0  0  0
 71 72  2  0  0  0
 71 73  1  0  0  0
 71 80  1  0  0  0
 72 74  1  0  0  0
 72 81  1  0  0  0
 73 75  2  0  0  0
 73 83  1  0  0  0
 74 84  1  0  0  0
 74 85  2  0  0  0
 75 82  1  0  0  0
 75 85  1  0  0  0
 76 77  1  0  0  0
 76 78  1  0  0  0
 76146  1  0  0  0
 76147  1  0  0  0
 77 79  1  0  0  0
 77148  1  0  0  0
 77149  1  0  0  0
 78 86  1  0  0  0
 78150  1  0  0  0
 78151  1  0  0  0
 79 83  1  0  0  0
 79 86  1  0  0  0
 79152  1  0  0  0
 80153  1  0  0  0
 80154  1  0  0  0
 80155  1  0  0  0
 81156  1  0  0  0
 81157  1  0  0  0
 81158  1  0  0  0
 82159  1  0  0  0
 82160  1  0  0  0
 82161  1  0  0  0
 83162  1  0  0  0
 83163  1  0  0  0
 84164  1  0  0  0
 84165  1  0  0  0
M  ISO  4   1 100  68 101  84 101  86 100
M  END
> <chiral flag>
0

> <version>
0

> <s_m_source_file>
/data/baiqing/PycharmProjects/Reinvent-master-3.2/result/LINK_invent/BTK/process_docking_weight1_custom_sum_contain_oxygen_bond_distance_aromatic_linkinvent_7_9_3/rearranged_h_0172.sdf

> <i_m_source_file_index>
22

> <r_mmod_Potential_Energy-OPLS-2005>
607.311157226562

> <r_mmod_Stretch_Energy-OPLS-2005>
226.313537597656

> <r_mmod_Bend_Energy-OPLS-2005>
311.151733398438

> <r_mmod_Torsional_Energy-OPLS-2005>
363.512603759766

> <r_mmod_Improper_Torsional_Energy-OPLS-2005>
15.3066177368164

> <r_mmod_Van_der_Waal_Energy-OPLS-2005>
149.858047485352

> <r_mmod_Electrostatic_Energy-OPLS-2005>
-409.848785400391

> <r_mmod_Solvation_Energy-OPLS-2005>
-226.400741577148

> <b_mmod_Minimization_Converged-OPLS-2005>
0

> <r_mmod_RMS_Derivative-OPLS-2005>
1.74548995494843

$$$$
22
                    3D
 Structure written by MMmdl.
162171  0  0  1  0            999 V2000
  -30.6249  -14.8535   20.4175 C   0  0  0  0  0  0
  -30.4189  -12.5254   19.4897 C   0  0  0  0  0  0
  -29.5048  -12.5023   18.2478 C   0  0  0  0  0  0
  -28.0375  -12.3105   18.6714 C   0  0  0  0  0  0
  -27.6268  -13.2468   19.8395 C   0  0  2  0  0  0
  -28.6734  -13.2765   20.9717 C   0  0  0  0  0  0
  -25.2450  -13.8218   20.5759 C   0  0  0  0  0  0
  -24.1759  -13.0441   20.9240 C   0  0  0  0  0  0
  -24.6375  -11.6929   20.8772 C   0  0  0  0  0  0
  -23.9068  -10.4294   21.0420 C   0  0  0  0  0  0
  -24.3621   -9.4198   21.9191 C   0  0  0  0  0  0
  -23.6294   -8.2232   22.0754 C   0  0  0  0  0  0
  -22.4267   -8.0273   21.3551 C   0  0  0  0  0  0
  -21.9916   -9.0246   20.4642 C   0  0  0  0  0  0
  -22.7245  -10.2127   20.3057 C   0  0  0  0  0  0
  -21.6850   -6.0727   22.5282 C   0  0  0  0  0  0
  -21.4013   -6.5644   23.8205 C   0  0  0  0  0  0
  -21.3665   -5.6798   24.9178 C   0  0  0  0  0  0
  -21.6040   -4.3061   24.7229 C   0  0  0  0  0  0
  -21.8814   -3.8141   23.4358 C   0  0  0  0  0  0
  -21.9196   -4.6963   22.3404 C   0  0  0  0  0  0
  -22.7776  -13.5201   21.1891 C   0  0  0  0  0  0
  -22.1658   -4.2143   21.0986 F   0  0  0  0  0  0
  -21.5627   -3.4542   25.7748 F   0  0  0  0  0  0
  -29.9571  -13.6382   20.3615 N   0  0  0  0  0  0
  -26.2876  -12.9456   20.3303 N   0  0  0  0  0  0
  -25.9312  -11.6585   20.5785 N   0  0  0  0  0  0
  -22.0442  -12.8166   22.0451 N   0  0  0  0  0  0
  -25.4144  -15.1946   20.4217 N   0  0  0  0  0  0
  -31.8338  -14.8444   20.1611 O   0  0  0  0  0  0
  -21.6635   -6.8871   21.4236 O   0  0  0  0  0  0
  -22.3454  -14.5508   20.6747 O   0  0  0  0  0  0
  -24.6327  -31.8511   23.1923 C   0  0  0  0  0  0
  -25.9112  -32.4735   23.8298 C   0  0  1  0  0  0
  -27.2093  -27.1867   20.1399 C   0  0  0  0  0  0
  -25.5872  -33.8549   24.2198 N   0  0  0  0  0  0
  -23.4344  -30.4705   21.5378 C   0  0  2  0  0  0
  -24.8803  -28.9077   20.1071 C   0  0  0  0  0  0
  -22.7513  -29.4574   22.4906 C   0  0  0  0  0  0
  -18.0279  -28.1410   22.8484 C   0  0  0  0  0  0
  -24.1493  -36.7313   23.2659 C   0  0  0  0  0  0
  -25.9847  -30.7379   21.3868 C   0  0  0  0  0  0
  -26.0535  -29.3537   20.7285 C   0  0  0  0  0  0
  -27.2125  -28.5027   20.7389 C   0  0  0  0  0  0
  -26.0126  -26.8302   19.4784 C   0  0  0  0  0  0
  -24.8706  -27.6580   19.4695 C   0  0  0  0  0  0
  -23.6551  -29.8029   20.1540 C   0  0  0  0  0  0
  -25.4120  -36.3075   24.0322 C   0  0  1  0  0  0
  -20.5883  -28.3718   23.1289 C   0  0  2  0  0  0
  -20.6783  -26.9443   22.5423 C   0  0  0  0  0  0
  -19.5749  -26.6402   21.5232 C   0  0  0  0  0  0
  -18.1923  -26.7952   22.1625 C   0  0  0  0  0  0
  -19.1535  -28.8877   23.2872 C   0  0  0  0  0  0
  -18.9461  -30.1478   23.8891 C   0  0  0  0  0  0
  -17.6463  -30.6614   24.0564 C   0  0  0  0  0  0
  -25.9053  -34.9438   23.5073 C   0  0  0  0  0  0
  -16.5346  -29.9120   23.6345 C   0  0  0  0  0  0
  -16.7266  -28.6532   23.0366 C   0  0  0  0  0  0
  -26.4437  -31.6586   25.0713 C   0  0  0  0  0  0
  -25.3611  -31.3757   26.1384 C   0  0  0  0  0  0
  -27.0340  -30.3015   24.6260 C   0  0  0  0  0  0
  -27.5999  -32.4349   25.7445 C   0  0  0  0  0  0
  -27.5592  -37.1802   24.8457 C   0  0  0  0  0  0
  -21.4216  -29.3053   22.3658 N   0  0  0  0  0  0
  -26.4306  -37.3771   23.9395 N   0  0  0  0  0  0
  -24.7034  -31.0402   22.0942 N   0  0  0  0  0  0
  -23.4179  -28.8135   23.3048 O   0  0  0  0  0  0
  -28.2875  -26.2558   20.2575 O   0  0  0  0  0  0
  -26.5673  -34.8911   22.4675 O   0  0  0  0  0  0
  -23.5462  -32.1380   23.7160 O   0  0  0  0  0  0
  -28.0745  -21.0039   21.9214 C   0  0  0  0  0  0
  -28.8362  -20.8865   20.7421 C   0  0  0  0  0  0
  -28.9350  -22.1629   20.0030 C   0  0  0  0  0  0
  -28.3393  -23.4316   20.4772 C   0  0  0  0  0  0
  -27.6208  -23.3051   21.6874 C   0  0  0  0  0  0
  -29.9677  -18.5588   21.6683 C   0  0  0  0  0  0
  -28.7033  -18.3105   19.6620 C   0  0  0  0  0  0
  -30.6917  -17.1646   21.3813 C   0  0  0  0  0  0
  -29.4047  -16.8700   19.4312 C   0  0  0  0  0  0
  -29.5164  -19.4229   20.4293 C   0  0  0  0  0  0
  -29.6573  -22.1900   18.6673 C   0  0  0  0  0  0
  -26.8738  -24.4747   22.3046 C   0  0  0  0  0  0
  -28.3334  -24.8444   19.6580 C   0  0  0  0  0  0
  -27.4984  -22.1419   22.3681 N   0  0  0  0  0  0
  -29.9674  -16.1009   20.6022 N   0  0  0  0  0  0
  -31.4590  -12.6377   19.1795 H   0  0  0  0  0  0
  -30.3725  -11.5780   20.0298 H   0  0  0  0  0  0
  -29.8070  -11.7034   17.5699 H   0  0  0  0  0  0
  -29.6114  -13.4352   17.6923 H   0  0  0  0  0  0
  -27.9204  -11.2707   18.9778 H   0  0  0  0  0  0
  -27.3713  -12.4511   17.8193 H   0  0  0  0  0  0
  -27.5877  -14.2476   19.4128 H   0  0  0  0  0  0
  -28.7366  -12.3107   21.4738 H   0  0  0  0  0  0
  -28.3956  -14.0095   21.7310 H   0  0  0  0  0  0
  -25.2758   -9.5676   22.4775 H   0  0  0  0  0  0
  -23.9998   -7.4618   22.7470 H   0  0  0  0  0  0
  -21.0848   -8.8769   19.8940 H   0  0  0  0  0  0
  -22.3700  -10.9675   19.6169 H   0  0  0  0  0  0
  -21.2011   -7.6149   23.9720 H   0  0  0  0  0  0
  -21.1484   -6.0526   25.9082 H   0  0  0  0  0  0
  -22.0595   -2.7606   23.2859 H   0  0  0  0  0  0
  -22.4085  -11.9831   22.4824 H   0  0  0  0  0  0
  -21.1057  -13.1166   22.2674 H   0  0  0  0  0  0
  -24.6545  -15.8529   20.5546 H   0  0  0  0  0  0
  -26.2793  -15.6393   20.1430 H   0  0  0  0  0  0
  -26.7174  -32.5346   23.1041 H   0  0  0  0  0  0
  -24.9911  -33.9669   25.0266 H   0  0  0  0  0  0
  -22.7325  -31.2948   21.3922 H   0  0  0  0  0  0
  -23.3752  -35.9656   23.3292 H   0  0  0  0  0  0
  -24.3585  -36.8966   22.2084 H   0  0  0  0  0  0
  -23.7230  -37.6498   23.6710 H   0  0  0  0  0  0
  -26.1337  -31.4956   20.6153 H   0  0  0  0  0  0
  -26.8573  -30.7874   22.0271 H   0  0  0  0  0  0
  -28.0996  -28.8330   21.2602 H   0  0  0  0  0  0
  -25.9067  -25.8750   18.9919 H   0  0  0  0  0  0
  -23.9720  -27.3110   18.9786 H   0  0  0  0  0  0
  -23.7877  -30.5786   19.3988 H   0  0  0  0  0  0
  -22.7704  -29.2429   19.8454 H   0  0  0  0  0  0
  -25.1311  -36.1960   25.0823 H   0  0  0  0  0  0
  -20.9942  -28.3320   24.1419 H   0  0  0  0  0  0
  -20.5734  -26.2331   23.3633 H   0  0  0  0  0  0
  -21.6660  -26.7520   22.1190 H   0  0  0  0  0  0
  -19.6921  -25.6316   21.1268 H   0  0  0  0  0  0
  -19.6680  -27.3211   20.6769 H   0  0  0  0  0  0
  -17.4202  -26.6702   21.4019 H   0  0  0  0  0  0
  -18.0297  -26.0110   22.9033 H   0  0  0  0  0  0
  -19.7937  -30.7286   24.2261 H   0  0  0  0  0  0
  -17.5023  -31.6281   24.5195 H   0  0  0  0  0  0
  -15.5341  -30.3017   23.7694 H   0  0  0  0  0  0
  -15.8656  -28.0844   22.7115 H   0  0  0  0  0  0
  -24.5786  -30.7124   25.7657 H   0  0  0  0  0  0
  -24.8784  -32.2936   26.4759 H   0  0  0  0  0  0
  -25.7851  -30.8929   27.0192 H   0  0  0  0  0  0
  -26.2975  -29.6684   24.1298 H   0  0  0  0  0  0
  -27.4032  -29.7346   25.4811 H   0  0  0  0  0  0
  -27.8820  -30.4300   23.9530 H   0  0  0  0  0  0
  -27.2648  -33.3708   26.1929 H   0  0  0  0  0  0
  -28.3823  -32.6798   25.0245 H   0  0  0  0  0  0
  -28.0636  -31.8519   26.5406 H   0  0  0  0  0  0
  -28.2598  -38.0118   24.7527 H   0  0  0  0  0  0
  -28.1097  -36.2633   24.6277 H   0  0  0  0  0  0
  -27.2290  -37.1441   25.8855 H   0  0  0  0  0  0
  -20.9427  -29.8761   21.6829 H   0  0  0  0  0  0
  -26.0194  -38.2860   24.1372 H   0  0  0  0  0  0
  -27.9109  -20.1468   22.5560 H   0  0  0  0  0  0
  -30.6330  -19.1620   22.2877 H   0  0  0  0  0  0
  -29.1049  -18.3392   22.2966 H   0  0  0  0  0  0
  -27.7631  -18.1460   20.1889 H   0  0  0  0  0  0
  -28.4192  -18.7125   18.6886 H   0  0  0  0  0  0
  -30.9784  -16.7311   22.3408 H   0  0  0  0  0  0
  -31.6321  -17.3843   20.8720 H   0  0  0  0  0  0
  -30.2199  -17.0051   18.7169 H   0  0  0  0  0  0
  -28.6922  -16.2258   18.9172 H   0  0  0  0  0  0
  -30.4194  -19.6247   19.8539 H   0  0  0  0  0  0
  -29.9215  -21.1953   18.3135 H   0  0  0  0  0  0
  -30.5696  -22.7821   18.7402 H   0  0  0  0  0  0
  -29.0225  -22.6478   17.9066 H   0  0  0  0  0  0
  -26.1248  -24.8570   21.6115 H   0  0  0  0  0  0
  -27.5587  -25.2839   22.5599 H   0  0  0  0  0  0
  -26.3536  -24.1828   23.2177 H   0  0  0  0  0  0
  -27.5970  -24.7293   18.8677 H   0  0  0  0  0  0
  -29.2776  -24.8516   19.1152 H   0  0  0  0  0  0
  1 25  1  0  0  0
  1 30  2  0  0  0
  1 85  1  0  0  0
  2  3  1  0  0  0
  2 25  1  0  0  0
  2 86  1  0  0  0
  2 87  1  0  0  0
  3  4  1  0  0  0
  3 88  1  0  0  0
  3 89  1  0  0  0
  4  5  1  0  0  0
  4 90  1  0  0  0
  4 91  1  0  0  0
  5  6  1  0  0  0
  5 26  1  0  0  0
  5 92  1  0  0  0
  6 25  1  0  0  0
  6 93  1  0  0  0
  6 94  1  0  0  0
  7  8  2  0  0  0
  7 26  1  0  0  0
  7 29  1  0  0  0
  8  9  1  0  0  0
  8 22  1  0  0  0
  9 10  1  0  0  0
  9 27  2  0  0  0
 10 11  2  0  0  0
 10 15  1  0  0  0
 11 12  1  0  0  0
 11 95  1  0  0  0
 12 13  2  0  0  0
 12 96  1  0  0  0
 13 14  1  0  0  0
 13 31  1  0  0  0
 14 15  2  0  0  0
 14 97  1  0  0  0
 15 98  1  0  0  0
 16 17  2  0  0  0
 16 21  1  0  0  0
 16 31  1  0  0  0
 17 18  1  0  0  0
 17 99  1  0  0  0
 18 19  2  0  0  0
 18100  1  0  0  0
 19 20  1  0  0  0
 19 24  1  0  0  0
 20 21  2  0  0  0
 20101  1  0  0  0
 21 23  1  0  0  0
 22 28  1  0  0  0
 22 32  2  0  0  0
 26 27  1  0  0  0
 28102  1  0  0  0
 28103  1  0  0  0
 29104  1  0  0  0
 29105  1  0  0  0
 33 34  1  0  0  0
 33 66  1  0  0  0
 33 70  2  0  0  0
 34 36  1  0  0  0
 34 59  1  0  0  0
 34106  1  0  0  0
 35 44  2  0  0  0
 35 45  1  0  0  0
 35 68  1  0  0  0
 36 56  1  0  0  0
 36107  1  0  0  0
 37 39  1  0  0  0
 37 47  1  0  0  0
 37 66  1  0  0  0
 37108  1  0  0  0
 38 43  2  0  0  0
 38 46  1  0  0  0
 38 47  1  0  0  0
 39 64  1  0  0  0
 39 67  2  0  0  0
 40 52  1  0  0  0
 40 53  2  0  0  0
 40 58  1  0  0  0
 41109  1  0  0  0
 41110  1  0  0  0
 41111  1  0  0  0
 41 48  1  0  0  0
 42 43  1  0  0  0
 42 66  1  0  0  0
 42112  1  0  0  0
 42113  1  0  0  0
 43 44  1  0  0  0
 44114  1  0  0  0
 45 46  2  0  0  0
 45115  1  0  0  0
 46116  1  0  0  0
 47117  1  0  0  0
 47118  1  0  0  0
 48 56  1  0  0  0
 48 65  1  0  0  0
 48119  1  0  0  0
 49 50  1  0  0  0
 49 53  1  0  0  0
 49 64  1  0  0  0
 49120  1  0  0  0
 50 51  1  0  0  0
 50121  1  0  0  0
 50122  1  0  0  0
 51 52  1  0  0  0
 51123  1  0  0  0
 51124  1  0  0  0
 52125  1  0  0  0
 52126  1  0  0  0
 53 54  1  0  0  0
 54 55  2  0  0  0
 54127  1  0  0  0
 55 57  1  0  0  0
 55128  1  0  0  0
 56 69  2  0  0  0
 57 58  2  0  0  0
 57129  1  0  0  0
 58130  1  0  0  0
 59 60  1  0  0  0
 59 61  1  0  0  0
 59 62  1  0  0  0
 60131  1  0  0  0
 60132  1  0  0  0
 60133  1  0  0  0
 61134  1  0  0  0
 61135  1  0  0  0
 61136  1  0  0  0
 62137  1  0  0  0
 62138  1  0  0  0
 62139  1  0  0  0
 63 65  1  0  0  0
 63140  1  0  0  0
 63141  1  0  0  0
 63142  1  0  0  0
 64143  1  0  0  0
 65144  1  0  0  0
 68 83  1  0  0  0
 71 72  2  0  0  0
 71 84  1  0  0  0
 71145  1  0  0  0
 72 73  1  0  0  0
 72 80  1  0  0  0
 73 74  2  0  0  0
 73 81  1  0  0  0
 74 75  1  0  0  0
 74 83  1  0  0  0
 75 82  1  0  0  0
 75 84  2  0  0  0
 76 78  1  0  0  0
 76 80  1  0  0  0
 76146  1  0  0  0
 76147  1  0  0  0
 77 79  1  0  0  0
 77 80  1  0  0  0
 77148  1  0  0  0
 77149  1  0  0  0
 78 85  1  0  0  0
 78150  1  0  0  0
 78151  1  0  0  0
 79 85  1  0  0  0
 79152  1  0  0  0
 79153  1  0  0  0
 80154  1  0  0  0
 81155  1  0  0  0
 81156  1  0  0  0
 81157  1  0  0  0
 82158  1  0  0  0
 82159  1  0  0  0
 82160  1  0  0  0
 83161  1  0  0  0
 83162  1  0  0  0
M  ISO  4   1 100  68 101  83 101  85 100
M  END
> <chiral flag>
0

> <version>
0

> <s_m_source_file>
/data/baiqing/PycharmProjects/Reinvent-master-3.2/result/LINK_invent/BTK/process_docking_weight1_custom_sum_contain_oxygen_bond_distance_aromatic_linkinvent_7_9_3/rearranged_h_0172.sdf

> <i_m_source_file_index>
23

> <r_mmod_Potential_Energy-OPLS-2005>
449.001495361328

> <r_mmod_Stretch_Energy-OPLS-2005>
186.333618164062

> <r_mmod_Bend_Energy-OPLS-2005>
249.155853271484

> <r_mmod_Torsional_Energy-OPLS-2005>
324.812042236328

> <r_mmod_Improper_Torsional_Energy-OPLS-2005>
8.81513404846191

> <r_mmod_Van_der_Waal_Energy-OPLS-2005>
139.279357910156

> <r_mmod_Electrostatic_Energy-OPLS-2005>
-394.070159912109

> <r_mmod_Solvation_Energy-OPLS-2005>
-207.985046386719

> <b_mmod_Minimization_Converged-OPLS-2005>
0

> <r_mmod_RMS_Derivative-OPLS-2005>
2.27377533912659

$$$$
23
                    3D
 Structure written by MMmdl.
177188  0  0  1  0            999 V2000
  -30.7056  -14.5806   20.4984 C   0  0  0  0  0  0
  -30.4133  -12.3588   19.4512 C   0  0  0  0  0  0
  -29.4953  -12.4912   18.2194 C   0  0  0  0  0  0
  -28.0189  -12.3476   18.6345 C   0  0  0  0  0  0
  -27.6482  -13.2267   19.8596 C   0  0  2  0  0  0
  -28.6958  -13.1172   20.9904 C   0  0  0  0  0  0
  -25.2543  -13.8204   20.5709 C   0  0  0  0  0  0
  -24.1817  -13.0452   20.9191 C   0  0  0  0  0  0
  -24.6397  -11.6922   20.8739 C   0  0  0  0  0  0
  -23.9072  -10.4297   21.0397 C   0  0  0  0  0  0
  -24.3624   -9.4213   21.9175 C   0  0  0  0  0  0
  -23.6303   -8.2243   22.0741 C   0  0  0  0  0  0
  -22.4284   -8.0280   21.3534 C   0  0  0  0  0  0
  -21.9920   -9.0255   20.4634 C   0  0  0  0  0  0
  -22.7243  -10.2136   20.3046 C   0  0  0  0  0  0
  -21.6857   -6.0738   22.5274 C   0  0  0  0  0  0
  -21.4013   -6.5639   23.8209 C   0  0  0  0  0  0
  -21.3661   -5.6788   24.9169 C   0  0  0  0  0  0
  -21.6047   -4.3051   24.7216 C   0  0  0  0  0  0
  -21.8821   -3.8145   23.4337 C   0  0  0  0  0  0
  -21.9194   -4.6965   22.3395 C   0  0  0  0  0  0
  -22.7837  -13.5232   21.1858 C   0  0  0  0  0  0
  -22.1662   -4.2151   21.0972 F   0  0  0  0  0  0
  -21.5635   -3.4533   25.7726 F   0  0  0  0  0  0
  -30.0106  -13.4071   20.4078 N   0  0  0  0  0  0
  -26.2976  -12.9404   20.3347 N   0  0  0  0  0  0
  -25.9331  -11.6546   20.5780 N   0  0  0  0  0  0
  -22.0492  -12.8209   22.0416 N   0  0  0  0  0  0
  -25.4278  -15.1923   20.4134 N   0  0  0  0  0  0
  -31.8916  -14.6452   20.1614 O   0  0  0  0  0  0
  -21.6645   -6.8879   21.4233 O   0  0  0  0  0  0
  -22.3509  -14.5537   20.6715 O   0  0  0  0  0  0
  -24.6258  -31.8644   23.2090 C   0  0  0  0  0  0
  -25.9119  -32.4804   23.8393 C   0  0  1  0  0  0
  -27.2104  -27.3408   20.0963 C   0  0  0  0  0  0
  -25.5943  -33.8604   24.2321 N   0  0  0  0  0  0
  -23.4166  -30.4942   21.5529 C   0  0  2  0  0  0
  -24.8570  -28.9643   20.1103 C   0  0  0  0  0  0
  -22.7474  -29.4658   22.4962 C   0  0  0  0  0  0
  -18.0289  -28.1388   22.8494 C   0  0  0  0  0  0
  -24.1487  -36.7301   23.2637 C   0  0  0  0  0  0
  -25.9595  -30.8006   21.3794 C   0  0  0  0  0  0
  -26.0301  -29.4338   20.7145 C   0  0  0  0  0  0
  -27.2110  -28.6337   20.7022 C   0  0  0  0  0  0
  -26.0074  -26.9333   19.4631 C   0  0  0  0  0  0
  -24.8463  -27.7168   19.4788 C   0  0  0  0  0  0
  -23.6273  -29.8425   20.1644 C   0  0  0  0  0  0
  -25.4112  -36.3102   24.0336 C   0  0  1  0  0  0
  -20.5891  -28.3692   23.1288 C   0  0  2  0  0  0
  -20.6783  -26.9419   22.5408 C   0  0  0  0  0  0
  -19.5753  -26.6390   21.5218 C   0  0  0  0  0  0
  -18.1933  -26.7934   22.1628 C   0  0  0  0  0  0
  -19.1542  -28.8857   23.2887 C   0  0  0  0  0  0
  -18.9462  -30.1460   23.8901 C   0  0  0  0  0  0
  -17.6459  -30.6591   24.0567 C   0  0  0  0  0  0
  -25.9054  -34.9467   23.5122 C   0  0  0  0  0  0
  -16.5354  -29.9088   23.6329 C   0  0  0  0  0  0
  -16.7273  -28.6507   23.0350 C   0  0  0  0  0  0
  -26.4496  -31.6600   25.0753 C   0  0  0  0  0  0
  -25.3730  -31.3732   26.1482 C   0  0  0  0  0  0
  -27.0328  -30.3025   24.6194 C   0  0  0  0  0  0
  -27.6058  -32.4329   25.7519 C   0  0  0  0  0  0
  -27.5587  -37.1804   24.8461 C   0  0  0  0  0  0
  -21.4192  -29.3057   22.3694 N   0  0  0  0  0  0
  -26.4293  -37.3796   23.9416 N   0  0  0  0  0  0
  -24.6862  -31.0679   22.1035 N   0  0  0  0  0  0
  -23.4209  -28.8188   23.3026 O   0  0  0  0  0  0
  -28.3168  -26.4755   20.1499 O   0  0  0  0  0  0
  -26.5612  -34.8922   22.4684 O   0  0  0  0  0  0
  -23.5427  -32.1431   23.7430 O   0  0  0  0  0  0
  -30.8061  -21.6252   19.9860 C   0  0  0  0  0  0
  -30.8851  -25.2125   19.0051 C   0  0  0  0  0  0
  -31.2511  -22.8828   19.5229 C   0  0  0  0  0  0
  -30.3871  -24.0083   19.5405 C   0  0  0  0  0  0
  -29.0624  -23.8946   20.0482 C   0  0  0  0  0  0
  -28.6362  -22.5932   20.5191 C   0  0  0  0  0  0
  -29.4975  -21.4401   20.4701 C   0  0  0  0  0  0
  -32.1926  -25.2760   18.5085 C   0  0  0  0  0  0
  -32.5554  -23.0413   18.9948 C   0  0  0  0  0  0
  -33.9252  -27.2357   18.6107 C   0  0  0  0  0  0
  -32.5553  -27.8678   18.6261 C   0  0  0  0  0  0
  -29.0530  -17.9290   19.6618 C   0  0  0  0  0  0
  -29.7506  -17.9819   21.9924 C   0  0  0  0  0  0
  -29.7765  -16.5572   19.4768 C   0  0  0  0  0  0
  -30.4852  -16.6138   21.8148 C   0  0  0  0  0  0
  -32.7656  -26.5370   17.9372 C   0  0  0  0  0  0
  -29.7353  -18.8350   20.7061 C   0  0  0  0  0  0
  -27.2128  -22.4226   21.0526 C   0  0  0  0  0  0
  -33.5515  -21.8955   18.9168 C   0  0  0  0  0  0
  -28.0229  -25.0575   19.8687 C   0  0  0  0  0  0
  -33.0109  -24.2107   18.5034 N   0  0  0  0  0  0
  -30.0075  -15.7473   20.7051 N   0  0  0  0  0  0
  -29.0522  -20.1486   20.8860 N   0  0  0  0  0  0
  -31.4587  -12.4399   19.1492 H   0  0  0  0  0  0
  -30.3103  -11.3724   19.9066 H   0  0  0  0  0  0
  -29.7487  -11.7335   17.4766 H   0  0  0  0  0  0
  -29.6518  -13.4582   17.7390 H   0  0  0  0  0  0
  -27.8469  -11.2965   18.8690 H   0  0  0  0  0  0
  -27.3645  -12.5804   17.7934 H   0  0  0  0  0  0
  -27.6578  -14.2577   19.5080 H   0  0  0  0  0  0
  -28.6920  -12.1198   21.4322 H   0  0  0  0  0  0
  -28.4627  -13.8145   21.7970 H   0  0  0  0  0  0
  -25.2770   -9.5691   22.4753 H   0  0  0  0  0  0
  -24.0014   -7.4635   22.7463 H   0  0  0  0  0  0
  -21.0848   -8.8769   19.8943 H   0  0  0  0  0  0
  -22.3696  -10.9675   19.6154 H   0  0  0  0  0  0
  -21.1998   -7.6145   23.9712 H   0  0  0  0  0  0
  -21.1487   -6.0516   25.9076 H   0  0  0  0  0  0
  -22.0600   -2.7608   23.2830 H   0  0  0  0  0  0
  -22.4124  -11.9866   22.4780 H   0  0  0  0  0  0
  -21.1110  -13.1215   22.2642 H   0  0  0  0  0  0
  -24.6703  -15.8559   20.5355 H   0  0  0  0  0  0
  -26.2983  -15.6290   20.1366 H   0  0  0  0  0  0
  -26.7194  -32.5469   23.1145 H   0  0  0  0  0  0
  -25.0094  -33.9748   25.0468 H   0  0  0  0  0  0
  -22.7097  -31.3153   21.4186 H   0  0  0  0  0  0
  -23.3762  -35.9620   23.3287 H   0  0  0  0  0  0
  -24.3588  -36.8930   22.2054 H   0  0  0  0  0  0
  -23.7215  -37.6492   23.6660 H   0  0  0  0  0  0
  -26.0937  -31.5689   20.6168 H   0  0  0  0  0  0
  -26.8397  -30.8413   22.0091 H   0  0  0  0  0  0
  -28.1087  -28.9882   21.1891 H   0  0  0  0  0  0
  -25.9062  -25.9893   18.9510 H   0  0  0  0  0  0
  -23.9476  -27.3510   19.0006 H   0  0  0  0  0  0
  -23.7478  -30.6252   19.4144 H   0  0  0  0  0  0
  -22.7460  -29.2755   19.8591 H   0  0  0  0  0  0
  -25.1286  -36.1961   25.0830 H   0  0  0  0  0  0
  -20.9978  -28.3258   24.1410 H   0  0  0  0  0  0
  -20.5700  -26.2300   23.3606 H   0  0  0  0  0  0
  -21.6647  -26.7461   22.1184 H   0  0  0  0  0  0
  -19.6910  -25.6301   21.1248 H   0  0  0  0  0  0
  -19.6687  -27.3203   20.6751 H   0  0  0  0  0  0
  -17.4205  -26.6690   21.4029 H   0  0  0  0  0  0
  -18.0325  -26.0072   22.9018 H   0  0  0  0  0  0
  -19.7935  -30.7283   24.2264 H   0  0  0  0  0  0
  -17.5011  -31.6265   24.5173 H   0  0  0  0  0  0
  -15.5353  -30.2990   23.7651 H   0  0  0  0  0  0
  -15.8674  -28.0828   22.7059 H   0  0  0  0  0  0
  -24.5906  -30.7082   25.7813 H   0  0  0  0  0  0
  -24.8920  -32.2894   26.4918 H   0  0  0  0  0  0
  -25.8056  -30.8901   27.0253 H   0  0  0  0  0  0
  -26.2896  -29.6792   24.1212 H   0  0  0  0  0  0
  -27.4020  -29.7269   25.4693 H   0  0  0  0  0  0
  -27.8773  -30.4319   23.9422 H   0  0  0  0  0  0
  -27.2675  -33.3629   26.2103 H   0  0  0  0  0  0
  -28.3863  -32.6893   25.0342 H   0  0  0  0  0  0
  -28.0735  -31.8451   26.5428 H   0  0  0  0  0  0
  -28.2593  -38.0115   24.7542 H   0  0  0  0  0  0
  -28.1095  -36.2652   24.6244 H   0  0  0  0  0  0
  -27.2312  -37.1397   25.8863 H   0  0  0  0  0  0
  -20.9369  -29.8793   21.6916 H   0  0  0  0  0  0
  -26.0179  -38.2871   24.1429 H   0  0  0  0  0  0
  -31.4892  -20.7954   19.9492 H   0  0  0  0  0  0
  -30.2847  -26.1066   18.9640 H   0  0  0  0  0  0
  -34.2952  -26.8090   19.5412 H   0  0  0  0  0  0
  -34.6779  -27.6931   17.9723 H   0  0  0  0  0  0
  -32.4060  -28.7430   17.9978 H   0  0  0  0  0  0
  -32.0190  -27.8726   19.5734 H   0  0  0  0  0  0
  -28.0143  -17.7501   19.9453 H   0  0  0  0  0  0
  -29.0171  -18.4425   18.6997 H   0  0  0  0  0  0
  -30.2347  -18.5404   22.7947 H   0  0  0  0  0  0
  -28.7295  -17.7967   22.3300 H   0  0  0  0  0  0
  -30.7384  -16.7493   18.9969 H   0  0  0  0  0  0
  -29.2083  -15.9584   18.7635 H   0  0  0  0  0  0
  -30.4135  -16.0520   22.7477 H   0  0  0  0  0  0
  -31.5487  -16.8179   21.6690 H   0  0  0  0  0  0
  -32.7441  -26.5212   16.8483 H   0  0  0  0  0  0
  -30.7696  -18.9770   20.4016 H   0  0  0  0  0  0
  -27.0282  -23.1251   21.8654 H   0  0  0  0  0  0
  -26.9993  -21.4371   21.4602 H   0  0  0  0  0  0
  -26.4843  -22.6019   20.2617 H   0  0  0  0  0  0
  -33.1362  -21.0595   18.3539 H   0  0  0  0  0  0
  -33.8091  -21.5461   19.9166 H   0  0  0  0  0  0
  -34.4750  -22.1960   18.4204 H   0  0  0  0  0  0
  -27.1318  -24.8202   20.4427 H   0  0  0  0  0  0
  -27.7524  -24.9818   18.8151 H   0  0  0  0  0  0
  -28.1025  -20.0973   21.2411 H   0  0  0  0  0  0
  1 25  1  0  0  0
  1 30  2  0  0  0
  1 92  1  0  0  0
  2  3  1  0  0  0
  2 25  1  0  0  0
  2 94  1  0  0  0
  2 95  1  0  0  0
  3  4  1  0  0  0
  3 96  1  0  0  0
  3 97  1  0  0  0
  4  5  1  0  0  0
  4 98  1  0  0  0
  4 99  1  0  0  0
  5  6  1  0  0  0
  5 26  1  0  0  0
  5100  1  0  0  0
  6 25  1  0  0  0
  6101  1  0  0  0
  6102  1  0  0  0
  7  8  2  0  0  0
  7 26  1  0  0  0
  7 29  1  0  0  0
  8  9  1  0  0  0
  8 22  1  0  0  0
  9 10  1  0  0  0
  9 27  2  0  0  0
 10 11  2  0  0  0
 10 15  1  0  0  0
 11 12  1  0  0  0
 11103  1  0  0  0
 12 13  2  0  0  0
 12104  1  0  0  0
 13 14  1  0  0  0
 13 31  1  0  0  0
 14 15  2  0  0  0
 14105  1  0  0  0
 15106  1  0  0  0
 16 17  2  0  0  0
 16 21  1  0  0  0
 16 31  1  0  0  0
 17 18  1  0  0  0
 17107  1  0  0  0
 18 19  2  0  0  0
 18108  1  0  0  0
 19 20  1  0  0  0
 19 24  1  0  0  0
 20 21  2  0  0  0
 20109  1  0  0  0
 21 23  1  0  0  0
 22 28  1  0  0  0
 22 32  2  0  0  0
 26 27  1  0  0  0
 28110  1  0  0  0
 28111  1  0  0  0
 29112  1  0  0  0
 29113  1  0  0  0
 33 34  1  0  0  0
 33 66  1  0  0  0
 33 70  2  0  0  0
 34 36  1  0  0  0
 34 59  1  0  0  0
 34114  1  0  0  0
 35 44  2  0  0  0
 35 45  1  0  0  0
 35 68  1  0  0  0
 36 56  1  0  0  0
 36115  1  0  0  0
 37 39  1  0  0  0
 37 47  1  0  0  0
 37 66  1  0  0  0
 37116  1  0  0  0
 38 43  2  0  0  0
 38 46  1  0  0  0
 38 47  1  0  0  0
 39 64  1  0  0  0
 39 67  2  0  0  0
 40 52  1  0  0  0
 40 53  2  0  0  0
 40 58  1  0  0  0
 41117  1  0  0  0
 41118  1  0  0  0
 41119  1  0  0  0
 41 48  1  0  0  0
 42 43  1  0  0  0
 42 66  1  0  0  0
 42120  1  0  0  0
 42121  1  0  0  0
 43 44  1  0  0  0
 44122  1  0  0  0
 45 46  2  0  0  0
 45123  1  0  0  0
 46124  1  0  0  0
 47125  1  0  0  0
 47126  1  0  0  0
 48 56  1  0  0  0
 48 65  1  0  0  0
 48127  1  0  0  0
 49 50  1  0  0  0
 49 53  1  0  0  0
 49 64  1  0  0  0
 49128  1  0  0  0
 50 51  1  0  0  0
 50129  1  0  0  0
 50130  1  0  0  0
 51 52  1  0  0  0
 51131  1  0  0  0
 51132  1  0  0  0
 52133  1  0  0  0
 52134  1  0  0  0
 53 54  1  0  0  0
 54 55  2  0  0  0
 54135  1  0  0  0
 55 57  1  0  0  0
 55136  1  0  0  0
 56 69  2  0  0  0
 57 58  2  0  0  0
 57137  1  0  0  0
 58138  1  0  0  0
 59 60  1  0  0  0
 59 61  1  0  0  0
 59 62  1  0  0  0
 60139  1  0  0  0
 60140  1  0  0  0
 60141  1  0  0  0
 61142  1  0  0  0
 61143  1  0  0  0
 61144  1  0  0  0
 62145  1  0  0  0
 62146  1  0  0  0
 62147  1  0  0  0
 63 65  1  0  0  0
 63148  1  0  0  0
 63149  1  0  0  0
 63150  1  0  0  0
 64151  1  0  0  0
 65152  1  0  0  0
 68 90  1  0  0  0
 71 73  2  0  0  0
 71 77  1  0  0  0
 71153  1  0  0  0
 72 74  1  0  0  0
 72 78  2  0  0  0
 72154  1  0  0  0
 73 74  1  0  0  0
 73 79  1  0  0  0
 74 75  2  0  0  0
 75 76  1  0  0  0
 75 90  1  0  0  0
 76 77  2  0  0  0
 76 88  1  0  0  0
 77 93  1  0  0  0
 78 91  1  0  0  0
 78 86  1  0  0  0
 79 89  1  0  0  0
 79 91  2  0  0  0
 80 81  1  0  0  0
 80 86  1  0  0  0
 80155  1  0  0  0
 80156  1  0  0  0
 81 86  1  0  0  0
 81157  1  0  0  0
 81158  1  0  0  0
 82 84  1  0  0  0
 82 87  1  0  0  0
 82159  1  0  0  0
 82160  1  0  0  0
 83 85  1  0  0  0
 83 87  1  0  0  0
 83161  1  0  0  0
 83162  1  0  0  0
 84 92  1  0  0  0
 84163  1  0  0  0
 84164  1  0  0  0
 85 92  1  0  0  0
 85165  1  0  0  0
 85166  1  0  0  0
 86167  1  0  0  0
 87 93  1  0  0  0
 87168  1  0  0  0
 88169  1  0  0  0
 88170  1  0  0  0
 88171  1  0  0  0
 89172  1  0  0  0
 89173  1  0  0  0
 89174  1  0  0  0
 90175  1  0  0  0
 90176  1  0  0  0
 93177  1  0  0  0
M  ISO  4   1 100  68 101  90 101  92 100
M  END
> <chiral flag>
0

> <version>
0

> <s_m_source_file>
/data/baiqing/PycharmProjects/Reinvent-master-3.2/result/LINK_invent/BTK/process_docking_weight1_custom_sum_contain_oxygen_bond_distance_aromatic_linkinvent_7_9_3/rearranged_h_0172.sdf

> <i_m_source_file_index>
24

> <r_mmod_Potential_Energy-OPLS-2005>
-11.7670431137085

> <r_mmod_Stretch_Energy-OPLS-2005>
74.242561340332

> <r_mmod_Bend_Energy-OPLS-2005>
160.44758605957

> <r_mmod_Torsional_Energy-OPLS-2005>
345.235931396484

> <r_mmod_Improper_Torsional_Energy-OPLS-2005>
12.2951412200928

> <r_mmod_Van_der_Waal_Energy-OPLS-2005>
195.529602050781

> <r_mmod_Electrostatic_Energy-OPLS-2005>
-629.063537597656

> <r_mmod_Solvation_Energy-OPLS-2005>
-213.501007080078

> <b_mmod_Minimization_Converged-OPLS-2005>
0

> <r_mmod_RMS_Derivative-OPLS-2005>
1.01779448986053

$$$$
24
                    3D
 Structure written by MMmdl.
166177  0  0  1  0            999 V2000
  -30.6151  -14.5704   20.6386 C   0  0  0  0  0  0
  -30.4435  -12.3903   19.4185 C   0  0  0  0  0  0
  -29.4973  -12.5265   18.2057 C   0  0  0  0  0  0
  -28.0234  -12.3595   18.6249 C   0  0  0  0  0  0
  -27.6604  -13.1978   19.8773 C   0  0  2  0  0  0
  -28.7009  -12.9742   20.9937 C   0  0  0  0  0  0
  -25.2644  -13.8128   20.5703 C   0  0  0  0  0  0
  -24.1863  -13.0421   20.9190 C   0  0  0  0  0  0
  -24.6394  -11.6894   20.8742 C   0  0  0  0  0  0
  -23.9063  -10.4284   21.0417 C   0  0  0  0  0  0
  -24.3627   -9.4204   21.9196 C   0  0  0  0  0  0
  -23.6302   -8.2243   22.0763 C   0  0  0  0  0  0
  -22.4287   -8.0290   21.3539 C   0  0  0  0  0  0
  -21.9920   -9.0268   20.4649 C   0  0  0  0  0  0
  -22.7246  -10.2142   20.3070 C   0  0  0  0  0  0
  -21.6840   -6.0748   22.5286 C   0  0  0  0  0  0
  -21.3998   -6.5648   23.8221 C   0  0  0  0  0  0
  -21.3664   -5.6800   24.9189 C   0  0  0  0  0  0
  -21.6044   -4.3066   24.7228 C   0  0  0  0  0  0
  -21.8824   -3.8156   23.4344 C   0  0  0  0  0  0
  -21.9192   -4.6974   22.3399 C   0  0  0  0  0  0
  -22.7902  -13.5259   21.1833 C   0  0  0  0  0  0
  -22.1666   -4.2162   21.0972 F   0  0  0  0  0  0
  -21.5638   -3.4554   25.7737 F   0  0  0  0  0  0
  -30.0121  -13.3589   20.4450 N   0  0  0  0  0  0
  -26.3018  -12.9257   20.3361 N   0  0  0  0  0  0
  -25.9316  -11.6435   20.5782 N   0  0  0  0  0  0
  -22.0539  -12.8240   22.0377 N   0  0  0  0  0  0
  -25.4430  -15.1851   20.4140 N   0  0  0  0  0  0
  -31.7508  -14.8172   20.2192 O   0  0  0  0  0  0
  -21.6635   -6.8892   21.4246 O   0  0  0  0  0  0
  -22.3608  -14.5574   20.6706 O   0  0  0  0  0  0
  -24.6261  -31.8551   23.2075 C   0  0  0  0  0  0
  -25.9094  -32.4753   23.8357 C   0  0  1  0  0  0
  -27.2305  -27.3416   20.1182 C   0  0  0  0  0  0
  -25.5917  -33.8564   24.2292 N   0  0  0  0  0  0
  -23.4172  -30.4757   21.5513 C   0  0  2  0  0  0
  -24.8659  -28.9354   20.1202 C   0  0  0  0  0  0
  -22.7487  -29.4539   22.4979 C   0  0  0  0  0  0
  -18.0292  -28.1323   22.8453 C   0  0  0  0  0  0
  -24.1481  -36.7303   23.2632 C   0  0  0  0  0  0
  -25.9557  -30.7976   21.3680 C   0  0  0  0  0  0
  -26.0367  -29.4237   20.7191 C   0  0  0  0  0  0
  -27.2262  -28.6401   20.7048 C   0  0  0  0  0  0
  -26.0418  -26.9021   19.4928 C   0  0  0  0  0  0
  -24.8693  -27.6783   19.4966 C   0  0  0  0  0  0
  -23.6329  -29.8129   20.1659 C   0  0  0  0  0  0
  -25.4099  -36.3081   24.0333 C   0  0  1  0  0  0
  -20.5878  -28.3599   23.1316 C   0  0  2  0  0  0
  -20.6734  -26.9302   22.5458 C   0  0  0  0  0  0
  -19.5758  -26.6331   21.5187 C   0  0  0  0  0  0
  -18.1917  -26.7884   22.1548 C   0  0  0  0  0  0
  -19.1533  -28.8786   23.2868 C   0  0  0  0  0  0
  -18.9453  -30.1386   23.8868 C   0  0  0  0  0  0
  -17.6454  -30.6516   24.0539 C   0  0  0  0  0  0
  -25.9042  -34.9445   23.5109 C   0  0  0  0  0  0
  -16.5334  -29.9010   23.6332 C   0  0  0  0  0  0
  -16.7279  -28.6436   23.0334 C   0  0  0  0  0  0
  -26.4565  -31.6567   25.0687 C   0  0  0  0  0  0
  -25.3848  -31.3674   26.1450 C   0  0  0  0  0  0
  -27.0450  -30.3004   24.6131 C   0  0  0  0  0  0
  -27.6179  -32.4283   25.7378 C   0  0  0  0  0  0
  -27.5588  -37.1749   24.8439 C   0  0  0  0  0  0
  -21.4196  -29.2966   22.3742 N   0  0  0  0  0  0
  -26.4260  -37.3777   23.9448 N   0  0  0  0  0  0
  -24.6859  -31.0552   22.1020 N   0  0  0  0  0  0
  -23.4215  -28.8055   23.3036 O   0  0  0  0  0  0
  -28.3526  -26.5118   20.1156 O   0  0  0  0  0  0
  -26.5584  -34.8893   22.4656 O   0  0  0  0  0  0
  -23.5407  -32.1361   23.7384 O   0  0  0  0  0  0
  -30.7839  -20.7172   22.5297 C   0  0  0  0  0  0
  -31.3038  -22.0176   22.6541 C   0  0  0  0  0  0
  -30.6936  -23.0697   21.9417 C   0  0  0  0  0  0
  -29.5829  -22.8066   21.1147 C   0  0  0  0  0  0
  -29.6974  -20.4851   21.6694 C   0  0  0  0  0  0
  -32.4714  -22.3175   23.5186 C   0  0  0  0  0  0
  -31.2686  -24.4743   22.1154 C   0  0  0  0  0  0
  -28.9201  -17.1267   22.8637 C   0  0  0  0  0  0
  -27.4993  -24.0901   20.0557 C   0  0  0  0  0  0
  -32.7630  -24.4408   22.5230 C   0  0  0  0  0  0
  -28.6466  -18.6411   22.8562 C   0  0  0  0  0  0
  -29.8568  -18.0965   20.8761 C   0  0  0  0  0  0
  -28.9840  -23.9449   20.2501 C   0  0  1  0  0  0
  -30.0207  -16.8569   21.8166 C   0  0  2  0  0  0
  -28.2239  -25.2044   20.7859 C   0  0  2  0  0  0
  -29.1209  -21.5149   20.9703 N   0  0  0  0  0  0
  -33.0989  -23.4321   23.5320 N   0  0  0  0  0  0
  -29.1332  -19.1793   21.5856 N   0  0  0  0  0  0
  -29.8074  -15.5050   21.2210 N   0  0  0  0  0  0
  -31.4797  -12.5487   19.1149 H   0  0  0  0  0  0
  -30.4000  -11.3770   19.8204 H   0  0  0  0  0  0
  -29.7522  -11.7895   17.4449 H   0  0  0  0  0  0
  -29.6335  -13.5024   17.7398 H   0  0  0  0  0  0
  -27.8560  -11.3016   18.8293 H   0  0  0  0  0  0
  -27.3621  -12.6129   17.7965 H   0  0  0  0  0  0
  -27.7054  -14.2444   19.5771 H   0  0  0  0  0  0
  -28.7224  -11.9245   21.2957 H   0  0  0  0  0  0
  -28.4397  -13.5231   21.8993 H   0  0  0  0  0  0
  -25.2784   -9.5672   22.4760 H   0  0  0  0  0  0
  -24.0013   -7.4633   22.7481 H   0  0  0  0  0  0
  -21.0853   -8.8790   19.8948 H   0  0  0  0  0  0
  -22.3721  -10.9693   19.6173 H   0  0  0  0  0  0
  -21.1978   -7.6160   23.9718 H   0  0  0  0  0  0
  -21.1485   -6.0540   25.9089 H   0  0  0  0  0  0
  -22.0596   -2.7618   23.2841 H   0  0  0  0  0  0
  -22.4163  -11.9881   22.4715 H   0  0  0  0  0  0
  -21.1174  -13.1262   22.2610 H   0  0  0  0  0  0
  -24.6859  -15.8481   20.5434 H   0  0  0  0  0  0
  -26.2969  -15.6197   20.0881 H   0  0  0  0  0  0
  -26.7141  -32.5476   23.1099 H   0  0  0  0  0  0
  -25.0097  -33.9693   25.0452 H   0  0  0  0  0  0
  -22.7082  -31.2927   21.4133 H   0  0  0  0  0  0
  -23.3741  -35.9609   23.3218 H   0  0  0  0  0  0
  -24.3590  -36.9025   22.2054 H   0  0  0  0  0  0
  -23.7228  -37.6465   23.6736 H   0  0  0  0  0  0
  -26.0635  -31.5578   20.5908 H   0  0  0  0  0  0
  -26.8427  -30.8630   21.9888 H   0  0  0  0  0  0
  -28.1324  -29.0130   21.1665 H   0  0  0  0  0  0
  -26.0028  -25.9518   18.9845 H   0  0  0  0  0  0
  -23.9785  -27.3061   19.0139 H   0  0  0  0  0  0
  -23.7575  -30.5930   19.4151 H   0  0  0  0  0  0
  -22.7558  -29.2409   19.8582 H   0  0  0  0  0  0
  -25.1280  -36.1889   25.0815 H   0  0  0  0  0  0
  -20.9915  -28.3103   24.1451 H   0  0  0  0  0  0
  -20.5556  -26.2144   23.3613 H   0  0  0  0  0  0
  -21.6616  -26.7294   22.1293 H   0  0  0  0  0  0
  -19.6900  -25.6249   21.1189 H   0  0  0  0  0  0
  -19.6749  -27.3144   20.6708 H   0  0  0  0  0  0
  -17.4218  -26.6659   21.3902 H   0  0  0  0  0  0
  -18.0276  -25.9996   22.8904 H   0  0  0  0  0  0
  -19.7936  -30.7211   24.2201 H   0  0  0  0  0  0
  -17.5020  -31.6204   24.5125 H   0  0  0  0  0  0
  -15.5337  -30.2898   23.7705 H   0  0  0  0  0  0
  -15.8667  -28.0789   22.7039 H   0  0  0  0  0  0
  -24.6009  -30.7034   25.7792 H   0  0  0  0  0  0
  -24.9040  -32.2825   26.4913 H   0  0  0  0  0  0
  -25.8203  -30.8830   27.0206 H   0  0  0  0  0  0
  -26.2989  -29.6569   24.1453 H   0  0  0  0  0  0
  -27.4519  -29.7439   25.4592 H   0  0  0  0  0  0
  -27.8697  -30.4317   23.9118 H   0  0  0  0  0  0
  -27.2911  -33.3630   26.1949 H   0  0  0  0  0  0
  -28.3956  -32.6759   25.0136 H   0  0  0  0  0  0
  -28.0915  -31.8412   26.5268 H   0  0  0  0  0  0
  -28.2562  -38.0095   24.7586 H   0  0  0  0  0  0
  -28.1160  -36.2640   24.6157 H   0  0  0  0  0  0
  -27.2345  -37.1273   25.8850 H   0  0  0  0  0  0
  -20.9326  -29.8762   21.7066 H   0  0  0  0  0  0
  -26.0146  -38.2819   24.1559 H   0  0  0  0  0  0
  -31.2201  -19.9094   23.1044 H   0  0  0  0  0  0
  -32.7906  -21.5179   24.1963 H   0  0  0  0  0  0
  -30.6753  -25.0021   22.8635 H   0  0  0  0  0  0
  -31.1821  -25.0501   21.1912 H   0  0  0  0  0  0
  -27.9951  -16.6116   22.5972 H   0  0  0  0  0  0
  -29.1930  -16.7760   23.8614 H   0  0  0  0  0  0
  -26.8518  -23.4554   20.6549 H   0  0  0  0  0  0
  -27.2012  -24.2051   19.0180 H   0  0  0  0  0  0
  -33.0381  -25.4309   22.8873 H   0  0  0  0  0  0
  -33.3742  -24.2734   21.6322 H   0  0  0  0  0  0
  -29.1254  -19.1045   23.7216 H   0  0  0  0  0  0
  -27.5800  -18.8453   22.9613 H   0  0  0  0  0  0
  -29.2506  -17.8298   20.0109 H   0  0  0  0  0  0
  -30.8201  -18.4356   20.4951 H   0  0  0  0  0  0
  -29.6198  -24.1037   19.3815 H   0  0  0  0  0  0
  -30.9879  -16.8997   22.3195 H   0  0  0  0  0  0
  -28.0732  -25.2965   21.8599 H   0  0  0  0  0  0
  -28.8860  -15.1387   21.3953 H   0  0  0  0  0  0
  1 25  1  0  0  0
  1 30  2  0  0  0
  1 89  1  0  0  0
  2  3  1  0  0  0
  2 25  1  0  0  0
  2 90  1  0  0  0
  2 91  1  0  0  0
  3  4  1  0  0  0
  3 92  1  0  0  0
  3 93  1  0  0  0
  4  5  1  0  0  0
  4 94  1  0  0  0
  4 95  1  0  0  0
  5  6  1  0  0  0
  5 26  1  0  0  0
  5 96  1  0  0  0
  6 25  1  0  0  0
  6 97  1  0  0  0
  6 98  1  0  0  0
  7  8  2  0  0  0
  7 26  1  0  0  0
  7 29  1  0  0  0
  8  9  1  0  0  0
  8 22  1  0  0  0
  9 10  1  0  0  0
  9 27  2  0  0  0
 10 11  2  0  0  0
 10 15  1  0  0  0
 11 12  1  0  0  0
 11 99  1  0  0  0
 12 13  2  0  0  0
 12100  1  0  0  0
 13 14  1  0  0  0
 13 31  1  0  0  0
 14 15  2  0  0  0
 14101  1  0  0  0
 15102  1  0  0  0
 16 17  2  0  0  0
 16 21  1  0  0  0
 16 31  1  0  0  0
 17 18  1  0  0  0
 17103  1  0  0  0
 18 19  2  0  0  0
 18104  1  0  0  0
 19 20  1  0  0  0
 19 24  1  0  0  0
 20 21  2  0  0  0
 20105  1  0  0  0
 21 23  1  0  0  0
 22 28  1  0  0  0
 22 32  2  0  0  0
 26 27  1  0  0  0
 28106  1  0  0  0
 28107  1  0  0  0
 29108  1  0  0  0
 29109  1  0  0  0
 33 34  1  0  0  0
 33 66  1  0  0  0
 33 70  2  0  0  0
 34 36  1  0  0  0
 34 59  1  0  0  0
 34110  1  0  0  0
 35 44  2  0  0  0
 35 45  1  0  0  0
 35 68  1  0  0  0
 36 56  1  0  0  0
 36111  1  0  0  0
 37 39  1  0  0  0
 37 47  1  0  0  0
 37 66  1  0  0  0
 37112  1  0  0  0
 38 43  2  0  0  0
 38 46  1  0  0  0
 38 47  1  0  0  0
 39 64  1  0  0  0
 39 67  2  0  0  0
 40 52  1  0  0  0
 40 53  2  0  0  0
 40 58  1  0  0  0
 41113  1  0  0  0
 41114  1  0  0  0
 41115  1  0  0  0
 41 48  1  0  0  0
 42 43  1  0  0  0
 42 66  1  0  0  0
 42116  1  0  0  0
 42117  1  0  0  0
 43 44  1  0  0  0
 44118  1  0  0  0
 45 46  2  0  0  0
 45119  1  0  0  0
 46120  1  0  0  0
 47121  1  0  0  0
 47122  1  0  0  0
 48 56  1  0  0  0
 48 65  1  0  0  0
 48123  1  0  0  0
 49 50  1  0  0  0
 49 53  1  0  0  0
 49 64  1  0  0  0
 49124  1  0  0  0
 50 51  1  0  0  0
 50125  1  0  0  0
 50126  1  0  0  0
 51 52  1  0  0  0
 51127  1  0  0  0
 51128  1  0  0  0
 52129  1  0  0  0
 52130  1  0  0  0
 53 54  1  0  0  0
 54 55  2  0  0  0
 54131  1  0  0  0
 55 57  1  0  0  0
 55132  1  0  0  0
 56 69  2  0  0  0
 57 58  2  0  0  0
 57133  1  0  0  0
 58134  1  0  0  0
 59 60  1  0  0  0
 59 61  1  0  0  0
 59 62  1  0  0  0
 60135  1  0  0  0
 60136  1  0  0  0
 60137  1  0  0  0
 61138  1  0  0  0
 61139  1  0  0  0
 61140  1  0  0  0
 62141  1  0  0  0
 62142  1  0  0  0
 62143  1  0  0  0
 63 65  1  0  0  0
 63144  1  0  0  0
 63145  1  0  0  0
 63146  1  0  0  0
 64147  1  0  0  0
 65148  1  0  0  0
 68 85  1  0  0  0
 71 72  2  0  0  0
 71 75  1  0  0  0
 71149  1  0  0  0
 72 73  1  0  0  0
 72 76  1  0  0  0
 73 74  2  0  0  0
 73 77  1  0  0  0
 74 86  1  0  0  0
 74 83  1  0  0  0
 75 86  2  0  0  0
 75 88  1  0  0  0
 76 87  2  0  0  0
 76150  1  0  0  0
 77 80  1  0  0  0
 77151  1  0  0  0
 77152  1  0  0  0
 78 81  1  0  0  0
 78 84  1  0  0  0
 78153  1  0  0  0
 78154  1  0  0  0
 79 83  1  0  0  0
 79 85  1  0  0  0
 79155  1  0  0  0
 79156  1  0  0  0
 80 87  1  0  0  0
 80157  1  0  0  0
 80158  1  0  0  0
 81 88  1  0  0  0
 81159  1  0  0  0
 81160  1  0  0  0
 82 84  1  0  0  0
 82 88  1  0  0  0
 82161  1  0  0  0
 82162  1  0  0  0
 83 85  1  0  0  0
 83163  1  0  0  0
 84 89  1  0  0  0
 84164  1  0  0  0
 85165  1  0  0  0
 89166  1  0  0  0
M  ISO  4   1 100  68 101  85 101  89 100
M  END
> <chiral flag>
0

> <version>
0

> <s_m_source_file>
/data/baiqing/PycharmProjects/Reinvent-master-3.2/result/LINK_invent/BTK/process_docking_weight1_custom_sum_contain_oxygen_bond_distance_aromatic_linkinvent_7_9_3/rearranged_h_0172.sdf

> <i_m_source_file_index>
25

> <r_mmod_Potential_Energy-OPLS-2005>
-66.8915557861328

> <r_mmod_Stretch_Energy-OPLS-2005>
67.7785873413086

> <r_mmod_Bend_Energy-OPLS-2005>
160.757095336914

> <r_mmod_Torsional_Energy-OPLS-2005>
327.753875732422

> <r_mmod_Improper_Torsional_Energy-OPLS-2005>
8.15538215637207

> <r_mmod_Van_der_Waal_Energy-OPLS-2005>
154.49543762207

> <r_mmod_Electrostatic_Energy-OPLS-2005>
-556.005126953125

> <r_mmod_Solvation_Energy-OPLS-2005>
-265.862243652344

> <b_mmod_Minimization_Converged-OPLS-2005>
0

> <r_mmod_RMS_Derivative-OPLS-2005>
5.46068525314331

$$$$
25
                    3D
 Structure written by MMmdl.
171182  0  0  1  0            999 V2000
  -30.7270  -14.5450   20.5902 C   0  0  0  0  0  0
  -30.4165  -12.3625   19.4437 C   0  0  0  0  0  0
  -29.4924  -12.5015   18.2170 C   0  0  0  0  0  0
  -28.0204  -12.3183   18.6303 C   0  0  0  0  0  0
  -27.6495  -13.1875   19.8557 C   0  0  2  0  0  0
  -28.6952  -13.0307   20.9915 C   0  0  0  0  0  0
  -25.2560  -13.8107   20.5645 C   0  0  0  0  0  0
  -24.1814  -13.0411   20.9197 C   0  0  0  0  0  0
  -24.6353  -11.6875   20.8765 C   0  0  0  0  0  0
  -23.9026  -10.4274   21.0433 C   0  0  0  0  0  0
  -24.3591   -9.4191   21.9203 C   0  0  0  0  0  0
  -23.6276   -8.2222   22.0760 C   0  0  0  0  0  0
  -22.4260   -8.0265   21.3545 C   0  0  0  0  0  0
  -21.9888   -9.0239   20.4651 C   0  0  0  0  0  0
  -22.7209  -10.2121   20.3069 C   0  0  0  0  0  0
  -21.6839   -6.0729   22.5283 C   0  0  0  0  0  0
  -21.4002   -6.5637   23.8216 C   0  0  0  0  0  0
  -21.3658   -5.6792   24.9179 C   0  0  0  0  0  0
  -21.6046   -4.3055   24.7228 C   0  0  0  0  0  0
  -21.8820   -3.8145   23.4350 C   0  0  0  0  0  0
  -21.9189   -4.6959   22.3406 C   0  0  0  0  0  0
  -22.7846  -13.5235   21.1862 C   0  0  0  0  0  0
  -22.1660   -4.2147   21.0983 F   0  0  0  0  0  0
  -21.5634   -3.4536   25.7741 F   0  0  0  0  0  0
  -30.0146  -13.3788   20.4432 N   0  0  0  0  0  0
  -26.2952  -12.9231   20.3276 N   0  0  0  0  0  0
  -25.9262  -11.6420   20.5764 N   0  0  0  0  0  0
  -22.0470  -12.8243   22.0417 N   0  0  0  0  0  0
  -25.4273  -15.1821   20.4017 N   0  0  0  0  0  0
  -31.8407  -14.6504   20.0651 O   0  0  0  0  0  0
  -21.6625   -6.8863   21.4239 O   0  0  0  0  0  0
  -22.3547  -14.5549   20.6712 O   0  0  0  0  0  0
  -24.6187  -31.8656   23.2078 C   0  0  0  0  0  0
  -25.9068  -32.4808   23.8383 C   0  0  1  0  0  0
  -27.2325  -27.3989   20.1043 C   0  0  0  0  0  0
  -25.5915  -33.8607   24.2318 N   0  0  0  0  0  0
  -23.4081  -30.4901   21.5490 C   0  0  2  0  0  0
  -24.8543  -28.9545   20.1130 C   0  0  0  0  0  0
  -22.7433  -29.4653   22.4973 C   0  0  0  0  0  0
  -18.0276  -28.1379   22.8491 C   0  0  0  0  0  0
  -24.1486  -36.7303   23.2640 C   0  0  0  0  0  0
  -25.9414  -30.8224   21.3654 C   0  0  0  0  0  0
  -26.0185  -29.4558   20.7086 C   0  0  0  0  0  0
  -27.2113  -28.6887   20.6949 C   0  0  0  0  0  0
  -26.0461  -26.9266   19.4944 C   0  0  0  0  0  0
  -24.8658  -27.6917   19.4994 C   0  0  0  0  0  0
  -23.6175  -29.8236   20.1638 C   0  0  0  0  0  0
  -25.4108  -36.3102   24.0338 C   0  0  1  0  0  0
  -20.5870  -28.3672   23.1307 C   0  0  2  0  0  0
  -20.6766  -26.9404   22.5415 C   0  0  0  0  0  0
  -19.5747  -26.6383   21.5211 C   0  0  0  0  0  0
  -18.1922  -26.7931   22.1617 C   0  0  0  0  0  0
  -19.1526  -28.8841   23.2896 C   0  0  0  0  0  0
  -18.9452  -30.1445   23.8909 C   0  0  0  0  0  0
  -17.6455  -30.6587   24.0560 C   0  0  0  0  0  0
  -25.9040  -34.9468   23.5124 C   0  0  0  0  0  0
  -16.5345  -29.9085   23.6330 C   0  0  0  0  0  0
  -16.7265  -28.6499   23.0356 C   0  0  0  0  0  0
  -26.4482  -31.6597   25.0726 C   0  0  0  0  0  0
  -25.3741  -31.3724   26.1474 C   0  0  0  0  0  0
  -27.0302  -30.3030   24.6123 C   0  0  0  0  0  0
  -27.6064  -32.4312   25.7482 C   0  0  0  0  0  0
  -27.5582  -37.1801   24.8461 C   0  0  0  0  0  0
  -21.4157  -29.3036   22.3712 N   0  0  0  0  0  0
  -26.4288  -37.3793   23.9418 N   0  0  0  0  0  0
  -24.6746  -31.0737   22.0989 N   0  0  0  0  0  0
  -23.4193  -28.8195   23.3025 O   0  0  0  0  0  0
  -28.3825  -26.6212   20.1444 O   0  0  0  0  0  0
  -26.5599  -34.8923   22.4684 O   0  0  0  0  0  0
  -23.5372  -32.1418   23.7457 O   0  0  0  0  0  0
  -29.0823  -22.3958   21.6078 C   0  0  0  0  0  0
  -30.0414  -20.4215   19.8834 C   0  0  0  0  0  0
  -29.1633  -21.0516   22.0581 C   0  0  0  0  0  0
  -29.4617  -22.7839   20.3041 C   0  0  0  0  0  0
  -29.6609  -20.0367   21.1895 C   0  0  0  0  0  0
  -29.9507  -21.7662   19.4430 C   0  0  0  0  0  0
  -27.4863  -19.9394   23.7477 C   0  0  0  0  0  0
  -27.5189  -21.4084   24.0904 C   0  0  0  0  0  0
  -28.8148  -17.6021   20.9071 C   0  0  0  0  0  0
  -31.1944  -17.9393   21.5127 C   0  0  0  0  0  0
  -28.4045  -24.6226   18.7549 C   0  0  0  0  0  0
  -28.9078  -16.1482   21.4472 C   0  0  0  0  0  0
  -31.2274  -16.4833   22.0633 C   0  0  0  0  0  0
  -28.7317  -20.7504   23.4676 C   0  0  0  0  0  0
  -29.3696  -24.2476   19.8611 C   0  0  1  0  0  0
  -29.7840  -18.5517   21.6320 C   0  0  0  0  0  0
  -28.1838  -25.1842   20.1371 C   0  0  1  0  0  0
  -30.3946  -22.0994   18.0285 C   0  0  0  0  0  0
  -30.2717  -15.5727   21.3846 N   0  0  0  0  0  0
  -31.4591  -12.4540   19.1353 H   0  0  0  0  0  0
  -30.3335  -11.3620   19.8715 H   0  0  0  0  0  0
  -29.7609  -11.7670   17.4565 H   0  0  0  0  0  0
  -29.6297  -13.4824   17.7588 H   0  0  0  0  0  0
  -27.8661  -11.2638   18.8630 H   0  0  0  0  0  0
  -27.3607  -12.5439   17.7918 H   0  0  0  0  0  0
  -27.6621  -14.2027   19.4680 H   0  0  0  0  0  0
  -28.7065  -11.9984   21.3448 H   0  0  0  0  0  0
  -28.4385  -13.6160   21.8730 H   0  0  0  0  0  0
  -25.2731   -9.5668   22.4780 H   0  0  0  0  0  0
  -23.9988   -7.4605   22.7470 H   0  0  0  0  0  0
  -21.0824   -8.8754   19.8952 H   0  0  0  0  0  0
  -22.3673  -10.9663   19.6181 H   0  0  0  0  0  0
  -21.1985   -7.6144   23.9717 H   0  0  0  0  0  0
  -21.1484   -6.0523   25.9083 H   0  0  0  0  0  0
  -22.0600   -2.7606   23.2850 H   0  0  0  0  0  0
  -22.4055  -11.9890   22.4804 H   0  0  0  0  0  0
  -21.1099  -13.1301   22.2629 H   0  0  0  0  0  0
  -24.6604  -15.8356   20.5149 H   0  0  0  0  0  0
  -26.2750  -15.6204   20.0670 H   0  0  0  0  0  0
  -26.7142  -32.5510   23.1146 H   0  0  0  0  0  0
  -25.0082  -33.9762   25.0475 H   0  0  0  0  0  0
  -22.6987  -31.3084   21.4090 H   0  0  0  0  0  0
  -23.3756  -35.9625   23.3287 H   0  0  0  0  0  0
  -24.3588  -36.8932   22.2057 H   0  0  0  0  0  0
  -23.7218  -37.6496   23.6662 H   0  0  0  0  0  0
  -26.0606  -31.5893   20.5985 H   0  0  0  0  0  0
  -26.8272  -30.8726   21.9872 H   0  0  0  0  0  0
  -28.1078  -29.0715   21.1628 H   0  0  0  0  0  0
  -26.0123  -25.9614   19.0108 H   0  0  0  0  0  0
  -23.9722  -27.3013   19.0322 H   0  0  0  0  0  0
  -23.7274  -30.5987   19.4044 H   0  0  0  0  0  0
  -22.7410  -29.2443   19.8673 H   0  0  0  0  0  0
  -25.1283  -36.1960   25.0830 H   0  0  0  0  0  0
  -20.9963  -28.3233   24.1428 H   0  0  0  0  0  0
  -20.5660  -26.2281   23.3604 H   0  0  0  0  0  0
  -21.6635  -26.7439   22.1209 H   0  0  0  0  0  0
  -19.6906  -25.6294   21.1239 H   0  0  0  0  0  0
  -19.6693  -27.3195   20.6745 H   0  0  0  0  0  0
  -17.4198  -26.6692   21.4008 H   0  0  0  0  0  0
  -18.0310  -26.0061   22.8999 H   0  0  0  0  0  0
  -19.7927  -30.7253   24.2289 H   0  0  0  0  0  0
  -17.5012  -31.6272   24.5152 H   0  0  0  0  0  0
  -15.5347  -30.2992   23.7651 H   0  0  0  0  0  0
  -15.8661  -28.0821   22.7077 H   0  0  0  0  0  0
  -24.5899  -30.7090   25.7811 H   0  0  0  0  0  0
  -24.8953  -32.2889   26.4932 H   0  0  0  0  0  0
  -25.8086  -30.8878   27.0226 H   0  0  0  0  0  0
  -26.2844  -29.6793   24.1181 H   0  0  0  0  0  0
  -27.4060  -29.7272   25.4590 H   0  0  0  0  0  0
  -27.8691  -30.4329   23.9283 H   0  0  0  0  0  0
  -27.2702  -33.3622   26.2058 H   0  0  0  0  0  0
  -28.3877  -32.6851   25.0305 H   0  0  0  0  0  0
  -28.0727  -31.8432   26.5397 H   0  0  0  0  0  0
  -28.2592  -38.0107   24.7524 H   0  0  0  0  0  0
  -28.1085  -36.2640   24.6259 H   0  0  0  0  0  0
  -27.2311  -37.1413   25.8867 H   0  0  0  0  0  0
  -20.9320  -29.8762   21.6936 H   0  0  0  0  0  0
  -26.0174  -38.2869   24.1430 H   0  0  0  0  0  0
  -28.7217  -23.1561   22.2870 H   0  0  0  0  0  0
  -30.4126  -19.6666   19.2044 H   0  0  0  0  0  0
  -26.8734  -19.6376   22.9003 H   0  0  0  0  0  0
  -27.5169  -19.2358   24.5775 H   0  0  0  0  0  0
  -27.5685  -21.6662   25.1467 H   0  0  0  0  0  0
  -26.9097  -22.0693   23.4772 H   0  0  0  0  0  0
  -27.7932  -17.9648   21.0304 H   0  0  0  0  0  0
  -29.0140  -17.6104   19.8345 H   0  0  0  0  0  0
  -31.5283  -17.9468   20.4746 H   0  0  0  0  0  0
  -31.9040  -18.5536   22.0688 H   0  0  0  0  0  0
  -27.6954  -23.8700   18.4162 H   0  0  0  0  0  0
  -28.7668  -25.3013   17.9854 H   0  0  0  0  0  0
  -28.1854  -15.5759   20.8915 H   0  0  0  0  0  0
  -28.5713  -16.1178   22.4847 H   0  0  0  0  0  0
  -30.9808  -16.4933   23.1258 H   0  0  0  0  0  0
  -32.2506  -16.1056   22.0194 H   0  0  0  0  0  0
  -29.5966  -20.5883   24.1088 H   0  0  0  0  0  0
  -30.3593  -24.6994   19.8429 H   0  0  0  0  0  0
  -29.5357  -18.4943   22.6897 H   0  0  0  0  0  0
  -27.3649  -24.8197   20.7563 H   0  0  0  0  0  0
  -30.9319  -21.2678   17.5716 H   0  0  0  0  0  0
  -31.0603  -22.9626   18.0211 H   0  0  0  0  0  0
  -29.5320  -22.3228   17.4003 H   0  0  0  0  0  0
  1 25  1  0  0  0
  1 30  2  0  0  0
  1 89  1  0  0  0
  2  3  1  0  0  0
  2 25  1  0  0  0
  2 90  1  0  0  0
  2 91  1  0  0  0
  3  4  1  0  0  0
  3 92  1  0  0  0
  3 93  1  0  0  0
  4  5  1  0  0  0
  4 94  1  0  0  0
  4 95  1  0  0  0
  5  6  1  0  0  0
  5 26  1  0  0  0
  5 96  1  0  0  0
  6 25  1  0  0  0
  6 97  1  0  0  0
  6 98  1  0  0  0
  7  8  2  0  0  0
  7 26  1  0  0  0
  7 29  1  0  0  0
  8  9  1  0  0  0
  8 22  1  0  0  0
  9 10  1  0  0  0
  9 27  2  0  0  0
 10 11  2  0  0  0
 10 15  1  0  0  0
 11 12  1  0  0  0
 11 99  1  0  0  0
 12 13  2  0  0  0
 12100  1  0  0  0
 13 14  1  0  0  0
 13 31  1  0  0  0
 14 15  2  0  0  0
 14101  1  0  0  0
 15102  1  0  0  0
 16 17  2  0  0  0
 16 21  1  0  0  0
 16 31  1  0  0  0
 17 18  1  0  0  0
 17103  1  0  0  0
 18 19  2  0  0  0
 18104  1  0  0  0
 19 20  1  0  0  0
 19 24  1  0  0  0
 20 21  2  0  0  0
 20105  1  0  0  0
 21 23  1  0  0  0
 22 28  1  0  0  0
 22 32  2  0  0  0
 26 27  1  0  0  0
 28106  1  0  0  0
 28107  1  0  0  0
 29108  1  0  0  0
 29109  1  0  0  0
 33 34  1  0  0  0
 33 66  1  0  0  0
 33 70  2  0  0  0
 34 36  1  0  0  0
 34 59  1  0  0  0
 34110  1  0  0  0
 35 44  2  0  0  0
 35 45  1  0  0  0
 35 68  1  0  0  0
 36 56  1  0  0  0
 36111  1  0  0  0
 37 39  1  0  0  0
 37 47  1  0  0  0
 37 66  1  0  0  0
 37112  1  0  0  0
 38 43  2  0  0  0
 38 46  1  0  0  0
 38 47  1  0  0  0
 39 64  1  0  0  0
 39 67  2  0  0  0
 40 52  1  0  0  0
 40 53  2  0  0  0
 40 58  1  0  0  0
 41113  1  0  0  0
 41114  1  0  0  0
 41115  1  0  0  0
 41 48  1  0  0  0
 42 43  1  0  0  0
 42 66  1  0  0  0
 42116  1  0  0  0
 42117  1  0  0  0
 43 44  1  0  0  0
 44118  1  0  0  0
 45 46  2  0  0  0
 45119  1  0  0  0
 46120  1  0  0  0
 47121  1  0  0  0
 47122  1  0  0  0
 48 56  1  0  0  0
 48 65  1  0  0  0
 48123  1  0  0  0
 49 50  1  0  0  0
 49 53  1  0  0  0
 49 64  1  0  0  0
 49124  1  0  0  0
 50 51  1  0  0  0
 50125  1  0  0  0
 50126  1  0  0  0
 51 52  1  0  0  0
 51127  1  0  0  0
 51128  1  0  0  0
 52129  1  0  0  0
 52130  1  0  0  0
 53 54  1  0  0  0
 54 55  2  0  0  0
 54131  1  0  0  0
 55 57  1  0  0  0
 55132  1  0  0  0
 56 69  2  0  0  0
 57 58  2  0  0  0
 57133  1  0  0  0
 58134  1  0  0  0
 59 60  1  0  0  0
 59 61  1  0  0  0
 59 62  1  0  0  0
 60135  1  0  0  0
 60136  1  0  0  0
 60137  1  0  0  0
 61138  1  0  0  0
 61139  1  0  0  0
 61140  1  0  0  0
 62141  1  0  0  0
 62142  1  0  0  0
 62143  1  0  0  0
 63 65  1  0  0  0
 63144  1  0  0  0
 63145  1  0  0  0
 63146  1  0  0  0
 64147  1  0  0  0
 65148  1  0  0  0
 68 87  1  0  0  0
 71 73  2  0  0  0
 71 74  1  0  0  0
 71149  1  0  0  0
 72 75  2  0  0  0
 72 76  1  0  0  0
 72150  1  0  0  0
 73 75  1  0  0  0
 73 84  1  0  0  0
 74 76  2  0  0  0
 74 85  1  0  0  0
 75 86  1  0  0  0
 76 88  1  0  0  0
 77 78  1  0  0  0
 77 84  1  0  0  0
 77151  1  0  0  0
 77152  1  0  0  0
 78 84  1  0  0  0
 78153  1  0  0  0
 78154  1  0  0  0
 79 82  1  0  0  0
 79 86  1  0  0  0
 79155  1  0  0  0
 79156  1  0  0  0
 80 83  1  0  0  0
 80 86  1  0  0  0
 80157  1  0  0  0
 80158  1  0  0  0
 81 85  1  0  0  0
 81 87  1  0  0  0
 81159  1  0  0  0
 81160  1  0  0  0
 82 89  1  0  0  0
 82161  1  0  0  0
 82162  1  0  0  0
 83 89  1  0  0  0
 83163  1  0  0  0
 83164  1  0  0  0
 84165  1  0  0  0
 85 87  1  0  0  0
 85166  1  0  0  0
 86167  1  0  0  0
 87168  1  0  0  0
 88169  1  0  0  0
 88170  1  0  0  0
 88171  1  0  0  0
M  ISO  4   1 100  68 101  87 101  89 100
M  END
> <chiral flag>
0

> <version>
0

> <s_m_source_file>
/data/baiqing/PycharmProjects/Reinvent-master-3.2/result/LINK_invent/BTK/process_docking_weight1_custom_sum_contain_oxygen_bond_distance_aromatic_linkinvent_7_9_3/rearranged_h_0172.sdf

> <i_m_source_file_index>
26

> <r_mmod_Potential_Energy-OPLS-2005>
224.360382080078

> <r_mmod_Stretch_Energy-OPLS-2005>
54.6471672058105

> <r_mmod_Bend_Energy-OPLS-2005>
132.007705688477

> <r_mmod_Torsional_Energy-OPLS-2005>
348.622314453125

> <r_mmod_Improper_Torsional_Energy-OPLS-2005>
2.77048420906067

> <r_mmod_Van_der_Waal_Energy-OPLS-2005>
157.953109741211

> <r_mmod_Electrostatic_Energy-OPLS-2005>
-300.814086914062

> <r_mmod_Solvation_Energy-OPLS-2005>
-193.671234130859

> <b_mmod_Minimization_Converged-OPLS-2005>
0

> <r_mmod_RMS_Derivative-OPLS-2005>
0.673082828521729

$$$$
26
                    3D
 Structure written by MMmdl.
180190  0  0  1  0            999 V2000
  -30.2104  -15.6126   20.6568 C   0  0  0  0  0  0
  -30.3932  -13.1128   19.6461 C   0  0  0  0  0  0
  -29.5571  -12.7093   18.3895 C   0  0  0  0  0  0
  -28.1256  -12.3248   18.7857 C   0  0  0  0  0  0
  -27.5812  -13.3044   19.8491 C   0  0  2  0  0  0
  -28.5449  -13.5745   21.0241 C   0  0  0  0  0  0
  -25.2182  -13.8270   20.5760 C   0  0  0  0  0  0
  -24.1587  -13.0406   20.9244 C   0  0  0  0  0  0
  -24.6298  -11.6923   20.8731 C   0  0  0  0  0  0
  -23.9041  -10.4272   21.0385 C   0  0  0  0  0  0
  -24.3612   -9.4202   21.9167 C   0  0  0  0  0  0
  -23.6295   -8.2234   22.0743 C   0  0  0  0  0  0
  -22.4278   -8.0262   21.3533 C   0  0  0  0  0  0
  -21.9899   -9.0225   20.4635 C   0  0  0  0  0  0
  -22.7215  -10.2107   20.3039 C   0  0  0  0  0  0
  -21.6856   -6.0727   22.5281 C   0  0  0  0  0  0
  -21.4021   -6.5633   23.8214 C   0  0  0  0  0  0
  -21.3659   -5.6784   24.9175 C   0  0  0  0  0  0
  -21.6041   -4.3048   24.7226 C   0  0  0  0  0  0
  -21.8822   -3.8140   23.4349 C   0  0  0  0  0  0
  -21.9195   -4.6955   22.3405 C   0  0  0  0  0  0
  -22.7631  -13.5152   21.1921 C   0  0  0  0  0  0
  -22.1661   -4.2139   21.0983 F   0  0  0  0  0  0
  -21.5624   -3.4534   25.7741 F   0  0  0  0  0  0
  -29.7232  -14.2448   20.4595 N   0  0  0  0  0  0
  -26.2577  -12.9567   20.3208 N   0  0  0  0  0  0
  -25.9224  -11.6646   20.5668 N   0  0  0  0  0  0
  -22.0334  -12.8119   22.0499 N   0  0  0  0  0  0
  -25.3828  -15.2014   20.4286 N   0  0  0  0  0  0
  -31.4370  -15.5720   20.4014 O   0  0  0  0  0  0
  -21.6639   -6.8865   21.4242 O   0  0  0  0  0  0
  -22.3309  -14.5462   20.6786 O   0  0  0  0  0  0
  -24.7288  -31.7276   23.5040 C   0  0  0  0  0  0
  -25.9654  -32.4713   24.0001 C   0  0  1  0  0  0
  -27.4053  -27.1589   19.3629 C   0  0  0  0  0  0
  -25.6075  -33.8680   24.2917 N   0  0  0  0  0  0
  -23.2582  -30.0672   21.9759 C   0  0  2  0  0  0
  -25.2379  -28.7272   19.2449 C   0  0  0  0  0  0
  -22.5095  -29.2750   22.8969 C   0  0  0  0  0  0
  -17.9331  -28.1182   22.8445 C   0  0  0  0  0  0
  -24.1507  -36.7235   23.2503 C   0  0  0  0  0  0
  -26.8930  -30.2444   22.0682 C   0  0  0  0  0  0
  -26.7739  -29.1406   20.1612 C   0  0  0  0  0  0
  -27.8034  -28.2978   20.0396 C   0  0  0  0  0  0
  -26.5090  -27.1422   18.2919 C   0  0  0  0  0  0
  -25.3105  -27.8034   18.3046 C   0  0  0  0  0  0
  -23.1967  -29.0067   19.9428 C   0  0  0  0  0  0
  -25.4090  -36.3062   24.0274 C   0  0  1  0  0  0
  -20.4268  -28.2296   23.2547 C   0  0  2  0  0  0
  -20.5456  -26.8401   22.5989 C   0  0  0  0  0  0
  -19.4943  -26.6184   21.5186 C   0  0  0  0  0  0
  -18.0993  -26.7846   22.1313 C   0  0  0  0  0  0
  -19.0473  -28.8232   23.3395 C   0  0  0  0  0  0
  -18.8847  -30.0971   23.9275 C   0  0  0  0  0  0
  -17.6028  -30.6531   24.0564 C   0  0  0  0  0  0
  -25.9027  -34.9323   23.5304 C   0  0  0  0  0  0
  -16.4832  -29.9280   23.6101 C   0  0  0  0  0  0
  -16.6484  -28.6675   23.0061 C   0  0  0  0  0  0
  -26.5046  -31.7253   25.2732 C   0  0  0  0  0  0
  -25.4004  -31.4608   26.3232 C   0  0  0  0  0  0
  -27.1644  -30.3567   25.0074 C   0  0  0  0  0  0
  -27.6294  -32.5699   25.8910 C   0  0  0  0  0  0
  -27.5553  -37.1787   24.8453 C   0  0  0  0  0  0
  -21.2546  -29.1484   22.5611 N   0  0  0  0  0  0
  -26.4305  -37.3723   23.9335 N   0  0  0  0  0  0
  -24.9526  -30.5815   22.8361 N   0  0  0  0  0  0
  -23.1059  -28.6599   23.7670 O   0  0  0  0  0  0
  -27.4597  -25.9590   19.9533 O   0  0  0  0  0  0
  -26.5552  -34.8561   22.4851 O   0  0  0  0  0  0
  -23.5963  -32.1540   23.7698 O   0  0  0  0  0  0
  -28.0938  -26.8729   22.6882 C   0  0  0  0  0  0
  -26.5392  -25.1519   22.4758 C   0  0  0  0  0  0
  -26.6962  -26.7655   22.4157 C   0  0  0  0  0  0
  -29.0481  -25.7925   22.6644 C   0  0  0  0  0  0
  -27.5913  -23.9329   22.3369 C   0  0  0  0  0  0
  -27.7701  -19.4891   20.8787 C   0  0  0  0  0  0
  -29.3108  -19.7123   22.4241 C   0  0  0  0  0  0
  -25.3659  -30.8258   20.6325 C   0  0  0  0  0  0
  -28.4965  -17.9696   20.3386 C   0  0  0  0  0  0
  -30.0908  -18.2489   21.8232 C   0  0  0  0  0  0
  -25.6287  -28.3967   22.0662 C   0  0  1  0  0  0
  -24.5549  -30.7202   20.2076 C   0  0  2  0  0  0
  -28.4542  -20.8905   21.5627 C   0  0  0  0  0  0
  -24.7345  -28.3580   21.4435 C   0  0  2  0  0  0
  -30.5126  -26.1283   22.8641 C   0  0  0  0  0  0
  -24.4135  -31.2405   18.6777 C   0  0  0  0  0  0
  -24.5938  -25.7913   20.2264 C   0  0  0  0  0  0
  -26.1159  -25.2155   19.8522 C   0  0  0  0  0  0
  -28.8308  -24.4509   22.4386 N   0  0  0  0  0  0
  -29.4939  -16.9652   21.0756 N   0  0  0  0  0  0
  -27.5726  -22.3127   22.1176 N   0  0  0  0  0  0
  -24.1623  -26.8925   21.2740 N   0  3  0  0  0  0
  -31.3856  -13.4147   19.3096 H   0  0  0  0  0  0
  -30.5662  -12.2393   20.2777 H   0  0  0  0  0  0
  -30.0356  -11.8886   17.8530 H   0  0  0  0  0  0
  -29.5261  -13.5527   17.6981 H   0  0  0  0  0  0
  -28.1451  -11.3143   19.1955 H   0  0  0  0  0  0
  -27.4756  -12.2939   17.9102 H   0  0  0  0  0  0
  -27.4706  -14.2483   19.3139 H   0  0  0  0  0  0
  -28.7939  -12.6617   21.5671 H   0  0  0  0  0  0
  -28.0738  -14.2427   21.7471 H   0  0  0  0  0  0
  -25.2754   -9.5699   22.4742 H   0  0  0  0  0  0
  -24.0007   -7.4631   22.7467 H   0  0  0  0  0  0
  -21.0826   -8.8735   19.8948 H   0  0  0  0  0  0
  -22.3653  -10.9643   19.6156 H   0  0  0  0  0  0
  -21.2020   -7.6142   23.9715 H   0  0  0  0  0  0
  -21.1474   -6.0515   25.9075 H   0  0  0  0  0  0
  -22.0604   -2.7603   23.2852 H   0  0  0  0  0  0
  -22.3993  -11.9782   22.4854 H   0  0  0  0  0  0
  -21.0957  -13.1121   22.2755 H   0  0  0  0  0  0
  -24.6175  -15.8552   20.5548 H   0  0  0  0  0  0
  -26.2369  -15.6462   20.1201 H   0  0  0  0  0  0
  -26.7431  -32.5013   23.2475 H   0  0  0  0  0  0
  -25.0266  -34.0176   25.1038 H   0  0  0  0  0  0
  -22.6166  -30.9546   21.9222 H   0  0  0  0  0  0
  -23.3756  -35.9583   23.3207 H   0  0  0  0  0  0
  -24.3621  -36.8762   22.1908 H   0  0  0  0  0  0
  -23.7271  -37.6486   23.6430 H   0  0  0  0  0  0
  -27.4727  -31.1537   21.8923 H   0  0  0  0  0  0
  -27.5618  -29.6688   22.6886 H   0  0  0  0  0  0
  -28.6136  -28.3163   20.7478 H   0  0  0  0  0  0
  -26.5551  -26.3290   17.5809 H   0  0  0  0  0  0
  -24.4821  -27.5406   17.6603 H   0  0  0  0  0  0
  -22.5791  -29.5597   19.2358 H   0  0  0  0  0  0
  -22.6010  -28.0938   19.9499 H   0  0  0  0  0  0
  -25.1188  -36.2062   25.0758 H   0  0  0  0  0  0
  -20.7481  -28.1301   24.2957 H   0  0  0  0  0  0
  -20.3753  -26.0886   23.3721 H   0  0  0  0  0  0
  -21.5472  -26.6371   22.2257 H   0  0  0  0  0  0
  -19.5937  -25.6239   21.0829 H   0  0  0  0  0  0
  -19.6361  -27.3346   20.7079 H   0  0  0  0  0  0
  -17.3434  -26.6951   21.3494 H   0  0  0  0  0  0
  -17.9019  -25.9846   22.8465 H   0  0  0  0  0  0
  -19.7425  -30.6421   24.2974 H   0  0  0  0  0  0
  -17.4751  -31.6251   24.5136 H   0  0  0  0  0  0
  -15.4920  -30.3462   23.7203 H   0  0  0  0  0  0
  -15.7810  -28.1306   22.6481 H   0  0  0  0  0  0
  -24.6796  -30.7048   26.0081 H   0  0  0  0  0  0
  -24.8449  -32.3693   26.5600 H   0  0  0  0  0  0
  -25.8257  -31.1039   27.2618 H   0  0  0  0  0  0
  -26.5041  -29.6049   24.5883 H   0  0  0  0  0  0
  -27.4826  -29.9142   25.9526 H   0  0  0  0  0  0
  -28.0946  -30.4691   24.4529 H   0  0  0  0  0  0
  -27.2636  -33.5225   26.2752 H   0  0  0  0  0  0
  -28.4078  -32.7937   25.1599 H   0  0  0  0  0  0
  -28.1062  -32.0646   26.7324 H   0  0  0  0  0  0
  -28.2592  -38.0067   24.7472 H   0  0  0  0  0  0
  -28.1042  -36.2591   24.6362 H   0  0  0  0  0  0
  -27.2214  -37.1506   25.8843 H   0  0  0  0  0  0
  -20.8530  -29.6891   21.8070 H   0  0  0  0  0  0
  -26.0205  -38.2819   24.1268 H   0  0  0  0  0  0
  -28.5089  -27.8537   22.8473 H   0  0  0  0  0  0
  -25.5223  -24.7904   22.4757 H   0  0  0  0  0  0
  -26.9838  -19.1851   21.5721 H   0  0  0  0  0  0
  -27.2073  -19.8481   20.0166 H   0  0  0  0  0  0
  -30.0994  -20.2625   22.9391 H   0  0  0  0  0  0
  -28.6630  -19.3886   23.2412 H   0  0  0  0  0  0
  -26.1526  -31.2129   19.9461 H   0  0  0  0  0  0
  -25.5212  -31.8444   21.0662 H   0  0  0  0  0  0
  -28.9945  -18.1989   19.3949 H   0  0  0  0  0  0
  -27.6612  -17.3378   20.0370 H   0  0  0  0  0  0
  -30.6120  -17.8254   22.6813 H   0  0  0  0  0  0
  -30.9024  -18.5888   21.1771 H   0  0  0  0  0  0
  -25.3088  -28.3902   23.1077 H   0  0  0  0  0  0
  -23.8623  -31.5303   20.5093 H   0  0  0  0  0  0
  -29.1481  -21.2999   20.8270 H   0  0  0  0  0  0
  -25.3751  -27.6261   21.0402 H   0  0  0  0  0  0
  -30.6386  -27.0909   23.3601 H   0  0  0  0  0  0
  -31.0221  -26.1756   21.9015 H   0  0  0  0  0  0
  -31.0098  -25.3731   23.4742 H   0  0  0  0  0  0
  -25.0612  -30.7635   17.9413 H   0  0  0  0  0  0
  -24.6664  -32.3013   18.6106 H   0  0  0  0  0  0
  -23.3963  -31.2013   18.2924 H   0  0  0  0  0  0
  -24.0653  -24.9013   20.5715 H   0  0  0  0  0  0
  -24.0430  -25.9749   19.3071 H   0  0  0  0  0  0
  -26.0280  -24.8055   18.8450 H   0  0  0  0  0  0
  -26.2199  -24.2279   20.2873 H   0  0  0  0  0  0
  -26.6138  -22.0097   22.2635 H   0  0  0  0  0  0
  -23.1617  -26.9685   21.1870 H   0  0  0  0  0  0
  -24.3206  -26.4616   22.1739 H   0  0  0  0  0  0
  1 25  1  0  0  0
  1 30  2  0  0  0
  1 90  1  0  0  0
  2  3  1  0  0  0
  2 25  1  0  0  0
  2 93  1  0  0  0
  2 94  1  0  0  0
  3  4  1  0  0  0
  3 95  1  0  0  0
  3 96  1  0  0  0
  4  5  1  0  0  0
  4 97  1  0  0  0
  4 98  1  0  0  0
  5  6  1  0  0  0
  5 26  1  0  0  0
  5 99  1  0  0  0
  6 25  1  0  0  0
  6100  1  0  0  0
  6101  1  0  0  0
  7  8  2  0  0  0
  7 26  1  0  0  0
  7 29  1  0  0  0
  8  9  1  0  0  0
  8 22  1  0  0  0
  9 10  1  0  0  0
  9 27  2  0  0  0
 10 11  2  0  0  0
 10 15  1  0  0  0
 11 12  1  0  0  0
 11102  1  0  0  0
 12 13  2  0  0  0
 12103  1  0  0  0
 13 14  1  0  0  0
 13 31  1  0  0  0
 14 15  2  0  0  0
 14104  1  0  0  0
 15105  1  0  0  0
 16 17  2  0  0  0
 16 21  1  0  0  0
 16 31  1  0  0  0
 17 18  1  0  0  0
 17106  1  0  0  0
 18 19  2  0  0  0
 18107  1  0  0  0
 19 20  1  0  0  0
 19 24  1  0  0  0
 20 21  2  0  0  0
 20108  1  0  0  0
 21 23  1  0  0  0
 22 28  1  0  0  0
 22 32  2  0  0  0
 26 27  1  0  0  0
 28109  1  0  0  0
 28110  1  0  0  0
 29111  1  0  0  0
 29112  1  0  0  0
 33 34  1  0  0  0
 33 66  1  0  0  0
 33 70  2  0  0  0
 34 36  1  0  0  0
 34 59  1  0  0  0
 34113  1  0  0  0
 35 44  2  0  0  0
 35 45  1  0  0  0
 35 68  1  0  0  0
 36 56  1  0  0  0
 36114  1  0  0  0
 37 39  1  0  0  0
 37 47  1  0  0  0
 37 66  1  0  0  0
 37115  1  0  0  0
 38 43  2  0  0  0
 38 46  1  0  0  0
 38 47  1  0  0  0
 39 64  1  0  0  0
 39 67  2  0  0  0
 40 52  1  0  0  0
 40 53  2  0  0  0
 40 58  1  0  0  0
 41116  1  0  0  0
 41117  1  0  0  0
 41118  1  0  0  0
 41 48  1  0  0  0
 42 43  1  0  0  0
 42 66  1  0  0  0
 42119  1  0  0  0
 42120  1  0  0  0
 43 44  1  0  0  0
 44121  1  0  0  0
 45 46  2  0  0  0
 45122  1  0  0  0
 46123  1  0  0  0
 47124  1  0  0  0
 47125  1  0  0  0
 48 56  1  0  0  0
 48 65  1  0  0  0
 48126  1  0  0  0
 49 50  1  0  0  0
 49 53  1  0  0  0
 49 64  1  0  0  0
 49127  1  0  0  0
 50 51  1  0  0  0
 50128  1  0  0  0
 50129  1  0  0  0
 51 52  1  0  0  0
 51130  1  0  0  0
 51131  1  0  0  0
 52132  1  0  0  0
 52133  1  0  0  0
 53 54  1  0  0  0
 54 55  2  0  0  0
 54134  1  0  0  0
 55 57  1  0  0  0
 55135  1  0  0  0
 56 69  2  0  0  0
 57 58  2  0  0  0
 57136  1  0  0  0
 58137  1  0  0  0
 59 60  1  0  0  0
 59 61  1  0  0  0
 59 62  1  0  0  0
 60138  1  0  0  0
 60139  1  0  0  0
 60140  1  0  0  0
 61141  1  0  0  0
 61142  1  0  0  0
 61143  1  0  0  0
 62144  1  0  0  0
 62145  1  0  0  0
 62146  1  0  0  0
 63 65  1  0  0  0
 63147  1  0  0  0
 63148  1  0  0  0
 63149  1  0  0  0
 64150  1  0  0  0
 65151  1  0  0  0
 68 88  1  0  0  0
 71 73  2  0  0  0
 71 74  1  0  0  0
 71152  1  0  0  0
 72 73  1  0  0  0
 72 75  2  0  0  0
 72153  1  0  0  0
 73 81  1  0  0  0
 74 85  1  0  0  0
 74 89  2  0  0  0
 75 89  1  0  0  0
 75 91  1  0  0  0
 76 79  1  0  0  0
 76 83  1  0  0  0
 76154  1  0  0  0
 76155  1  0  0  0
 77 80  1  0  0  0
 77 83  1  0  0  0
 77156  1  0  0  0
 77157  1  0  0  0
 78 81  1  0  0  0
 78 82  1  0  0  0
 78158  1  0  0  0
 78159  1  0  0  0
 79 90  1  0  0  0
 79160  1  0  0  0
 79161  1  0  0  0
 80 90  1  0  0  0
 80162  1  0  0  0
 80163  1  0  0  0
 81 84  1  0  0  0
 81164  1  0  0  0
 82 84  1  0  0  0
 82 86  1  0  0  0
 82165  1  0  0  0
 83 91  1  0  0  0
 83166  1  0  0  0
 84 92  1  0  0  0
 84167  1  0  0  0
 85168  1  0  0  0
 85169  1  0  0  0
 85170  1  0  0  0
 86171  1  0  0  0
 86172  1  0  0  0
 86173  1  0  0  0
 87 88  1  0  0  0
 87 92  1  0  0  0
 87174  1  0  0  0
 87175  1  0  0  0
 88176  1  0  0  0
 88177  1  0  0  0
 91178  1  0  0  0
 92179  1  0  0  0
 92180  1  0  0  0
M  CHG  1  92   1
M  ISO  4   1 100  68 101  88 101  90 100
M  END
> <chiral flag>
0

> <version>
0

> <s_m_source_file>
/data/baiqing/PycharmProjects/Reinvent-master-3.2/result/LINK_invent/BTK/process_docking_weight1_custom_sum_contain_oxygen_bond_distance_aromatic_linkinvent_7_9_3/rearranged_h_0172.sdf

> <i_m_source_file_index>
27

> <r_mmod_Potential_Energy-OPLS-2005>
15072.478515625

> <r_mmod_Stretch_Energy-OPLS-2005>
8614.046875

> <r_mmod_Bend_Energy-OPLS-2005>
1499.90539550781

> <r_mmod_Torsional_Energy-OPLS-2005>
608.863464355469

> <r_mmod_Improper_Torsional_Energy-OPLS-2005>
30.4702548980713

> <r_mmod_Van_der_Waal_Energy-OPLS-2005>
3248.68017578125

> <r_mmod_Electrostatic_Energy-OPLS-2005>
-432.083862304688

> <r_mmod_Solvation_Energy-OPLS-2005>
-443.051971435547

> <b_mmod_Minimization_Converged-OPLS-2005>
0

> <r_mmod_RMS_Derivative-OPLS-2005>
2.5283842086792

$$$$
27
                    3D
 Structure written by MMmdl.
165174  0  0  1  0            999 V2000
  -30.6694  -14.7146   20.4662 C   0  0  0  0  0  0
  -30.4200  -12.4419   19.4721 C   0  0  0  0  0  0
  -29.5023  -12.5000   18.2339 C   0  0  0  0  0  0
  -28.0323  -12.3218   18.6556 C   0  0  0  0  0  0
  -27.6389  -13.2318   19.8505 C   0  0  2  0  0  0
  -28.6858  -13.1941   20.9847 C   0  0  0  0  0  0
  -25.2518  -13.8201   20.5719 C   0  0  0  0  0  0
  -24.1797  -13.0447   20.9196 C   0  0  0  0  0  0
  -24.6381  -11.6922   20.8746 C   0  0  0  0  0  0
  -23.9062  -10.4302   21.0407 C   0  0  0  0  0  0
  -24.3614   -9.4219   21.9188 C   0  0  0  0  0  0
  -23.6290   -8.2253   22.0763 C   0  0  0  0  0  0
  -22.4275   -8.0284   21.3547 C   0  0  0  0  0  0
  -21.9911   -9.0257   20.4651 C   0  0  0  0  0  0
  -22.7237  -10.2137   20.3057 C   0  0  0  0  0  0
  -21.6855   -6.0735   22.5276 C   0  0  0  0  0  0
  -21.4011   -6.5639   23.8207 C   0  0  0  0  0  0
  -21.3658   -5.6794   24.9169 C   0  0  0  0  0  0
  -21.6038   -4.3056   24.7219 C   0  0  0  0  0  0
  -21.8818   -3.8146   23.4344 C   0  0  0  0  0  0
  -21.9192   -4.6962   22.3398 C   0  0  0  0  0  0
  -22.7825  -13.5234   21.1865 C   0  0  0  0  0  0
  -22.1663   -4.2147   21.0975 F   0  0  0  0  0  0
  -21.5632   -3.4541   25.7734 F   0  0  0  0  0  0
  -29.9859  -13.5216   20.3893 N   0  0  0  0  0  0
  -26.2932  -12.9398   20.3320 N   0  0  0  0  0  0
  -25.9317  -11.6542   20.5788 N   0  0  0  0  0  0
  -22.0473  -12.8211   22.0411 N   0  0  0  0  0  0
  -25.4265  -15.1928   20.4169 N   0  0  0  0  0  0
  -31.8675  -14.7420   20.1698 O   0  0  0  0  0  0
  -21.6640   -6.8877   21.4238 O   0  0  0  0  0  0
  -22.3514  -14.5554   20.6737 O   0  0  0  0  0  0
  -24.6336  -31.8571   23.2037 C   0  0  0  0  0  0
  -25.9158  -32.4777   23.8369 C   0  0  1  0  0  0
  -27.2015  -27.2518   20.1181 C   0  0  0  0  0  0
  -25.5960  -33.8579   24.2284 N   0  0  0  0  0  0
  -23.4295  -30.4865   21.5486 C   0  0  2  0  0  0
  -24.8734  -28.9502   20.1051 C   0  0  0  0  0  0
  -22.7520  -29.4615   22.4914 C   0  0  0  0  0  0
  -18.0293  -28.1388   22.8485 C   0  0  0  0  0  0
  -24.1476  -36.7278   23.2643 C   0  0  0  0  0  0
  -25.9798  -30.7657   21.3895 C   0  0  0  0  0  0
  -26.0489  -29.3913   20.7266 C   0  0  0  0  0  0
  -27.2146  -28.5530   20.7312 C   0  0  0  0  0  0
  -26.0079  -26.9160   19.4274 C   0  0  0  0  0  0
  -24.8593  -27.7198   19.4444 C   0  0  0  0  0  0
  -23.6459  -29.8362   20.1602 C   0  0  0  0  0  0
  -25.4107  -36.3079   24.0331 C   0  0  1  0  0  0
  -20.5902  -28.3699   23.1258 C   0  0  2  0  0  0
  -20.6789  -26.9418   22.5391 C   0  0  0  0  0  0
  -19.5753  -26.6379   21.5208 C   0  0  0  0  0  0
  -18.1928  -26.7934   22.1615 C   0  0  0  0  0  0
  -19.1551  -28.8862   23.2865 C   0  0  0  0  0  0
  -18.9475  -30.1461   23.8880 C   0  0  0  0  0  0
  -17.6478  -30.6595   24.0558 C   0  0  0  0  0  0
  -25.9057  -34.9451   23.5105 C   0  0  0  0  0  0
  -16.5364  -29.9093   23.6341 C   0  0  0  0  0  0
  -16.7283  -28.6511   23.0367 C   0  0  0  0  0  0
  -26.4525  -31.6612   25.0757 C   0  0  0  0  0  0
  -25.3738  -31.3737   26.1464 C   0  0  0  0  0  0
  -27.0424  -30.3048   24.6251 C   0  0  0  0  0  0
  -27.6056  -32.4385   25.7541 C   0  0  0  0  0  0
  -27.5568  -37.1795   24.8474 C   0  0  0  0  0  0
  -21.4228  -29.3059   22.3659 N   0  0  0  0  0  0
  -26.4279  -37.3778   23.9415 N   0  0  0  0  0  0
  -24.7004  -31.0535   22.1032 N   0  0  0  0  0  0
  -23.4218  -28.8122   23.2989 O   0  0  0  0  0  0
  -28.2474  -26.2900   20.2195 O   0  0  0  0  0  0
  -26.5609  -34.8924   22.4660 O   0  0  0  0  0  0
  -23.5479  -32.1407   23.7316 O   0  0  0  0  0  0
  -29.3897  -20.6819   20.4520 C   0  0  0  0  0  0
  -30.3509  -21.7453   20.3004 C   0  0  0  0  0  0
  -29.9460  -23.1313   20.1825 C   0  0  0  0  0  0
  -28.0564  -21.1637   20.5971 C   0  0  0  0  0  0
  -28.5723  -23.4904   20.2694 C   0  0  0  0  0  0
  -29.9501  -18.3473   21.7580 C   0  0  0  0  0  0
  -28.9760  -18.1161   19.5566 C   0  0  0  0  0  0
  -30.5814  -16.8975   21.6285 C   0  0  0  0  0  0
  -29.6110  -16.6731   19.4110 C   0  0  0  0  0  0
  -29.8033  -19.1171   20.4163 C   0  0  0  0  0  0
  -31.8353  -21.3960   20.2387 C   0  0  0  0  0  0
  -30.9784  -24.2249   19.9337 C   0  0  0  0  0  0
  -26.8859  -20.2375   20.8663 C   0  0  0  0  0  0
  -27.8712  -24.8731   19.8591 C   0  0  0  0  0  0
  -27.6910  -22.4777   20.5031 N   0  0  0  0  0  0
  -29.9925  -15.9240   20.6507 N   0  0  0  0  0  0
  -31.4630  -12.5417   19.1665 H   0  0  0  0  0  0
  -30.3455  -11.4714   19.9659 H   0  0  0  0  0  0
  -29.7841  -11.7272   17.5173 H   0  0  0  0  0  0
  -29.6272  -13.4559   17.7231 H   0  0  0  0  0  0
  -27.8981  -11.2752   18.9318 H   0  0  0  0  0  0
  -27.3689  -12.4990   17.8081 H   0  0  0  0  0  0
  -27.6250  -14.2474   19.4589 H   0  0  0  0  0  0
  -28.7179  -12.2113   21.4581 H   0  0  0  0  0  0
  -28.4283  -13.9103   21.7670 H   0  0  0  0  0  0
  -25.2752   -9.5695   22.4770 H   0  0  0  0  0  0
  -23.9996   -7.4643   22.7484 H   0  0  0  0  0  0
  -21.0847   -8.8770   19.8954 H   0  0  0  0  0  0
  -22.3692  -10.9675   19.6170 H   0  0  0  0  0  0
  -21.2001   -7.6144   23.9707 H   0  0  0  0  0  0
  -21.1484   -6.0525   25.9072 H   0  0  0  0  0  0
  -22.0596   -2.7609   23.2844 H   0  0  0  0  0  0
  -22.4094  -11.9850   22.4749 H   0  0  0  0  0  0
  -21.1102  -13.1250   22.2651 H   0  0  0  0  0  0
  -24.6706  -15.8570   20.5407 H   0  0  0  0  0  0
  -26.2951  -15.6299   20.1359 H   0  0  0  0  0  0
  -26.7219  -32.5426   23.1103 H   0  0  0  0  0  0
  -25.0157  -33.9728   25.0467 H   0  0  0  0  0  0
  -22.7255  -31.3096   21.4099 H   0  0  0  0  0  0
  -23.3757  -35.9593   23.3298 H   0  0  0  0  0  0
  -24.3561  -36.8906   22.2058 H   0  0  0  0  0  0
  -23.7210  -37.6466   23.6681 H   0  0  0  0  0  0
  -26.1222  -31.5275   20.6222 H   0  0  0  0  0  0
  -26.8568  -30.8114   22.0235 H   0  0  0  0  0  0
  -28.1041  -28.8797   21.2510 H   0  0  0  0  0  0
  -25.8975  -25.9990   18.8705 H   0  0  0  0  0  0
  -23.9667  -27.3852   18.9333 H   0  0  0  0  0  0
  -23.7702  -30.6209   19.4127 H   0  0  0  0  0  0
  -22.7633  -29.2735   19.8504 H   0  0  0  0  0  0
  -25.1283  -36.1930   25.0824 H   0  0  0  0  0  0
  -20.9983  -28.3272   24.1388 H   0  0  0  0  0  0
  -20.5704  -26.2307   23.3598 H   0  0  0  0  0  0
  -21.6652  -26.7452   22.1166 H   0  0  0  0  0  0
  -19.6911  -25.6288   21.1251 H   0  0  0  0  0  0
  -19.6687  -27.3177   20.6731 H   0  0  0  0  0  0
  -17.4200  -26.6694   21.4014 H   0  0  0  0  0  0
  -18.0309  -26.0072   22.9004 H   0  0  0  0  0  0
  -19.7953  -30.7280   24.2240 H   0  0  0  0  0  0
  -17.5040  -31.6284   24.5148 H   0  0  0  0  0  0
  -15.5367  -30.2995   23.7692 H   0  0  0  0  0  0
  -15.8675  -28.0838   22.7092 H   0  0  0  0  0  0
  -24.5925  -30.7083   25.7774 H   0  0  0  0  0  0
  -24.8916  -32.2897   26.4891 H   0  0  0  0  0  0
  -25.8039  -30.8910   27.0248 H   0  0  0  0  0  0
  -26.3047  -29.6758   24.1255 H   0  0  0  0  0  0
  -27.4122  -29.7340   25.4778 H   0  0  0  0  0  0
  -27.8901  -30.4368   23.9520 H   0  0  0  0  0  0
  -27.2661  -33.3725   26.2037 H   0  0  0  0  0  0
  -28.3907  -32.6885   25.0394 H   0  0  0  0  0  0
  -28.0682  -31.8569   26.5526 H   0  0  0  0  0  0
  -28.2580  -38.0098   24.7539 H   0  0  0  0  0  0
  -28.1068  -36.2628   24.6289 H   0  0  0  0  0  0
  -27.2283  -37.1429   25.8875 H   0  0  0  0  0  0
  -20.9410  -29.8838   21.6913 H   0  0  0  0  0  0
  -26.0157  -38.2846   24.1438 H   0  0  0  0  0  0
  -30.5754  -18.9317   22.4341 H   0  0  0  0  0  0
  -28.9812  -18.2701   22.2503 H   0  0  0  0  0  0
  -27.9762  -17.9924   19.9668 H   0  0  0  0  0  0
  -28.8414  -18.5345   18.5583 H   0  0  0  0  0  0
  -30.5698  -16.4273   22.6133 H   0  0  0  0  0  0
  -31.6373  -17.0287   21.3818 H   0  0  0  0  0  0
  -30.5000  -16.7609   18.7836 H   0  0  0  0  0  0
  -28.9180  -16.0564   18.8385 H   0  0  0  0  0  0
  -30.7858  -19.0920   19.9477 H   0  0  0  0  0  0
  -32.0804  -20.6033   20.9450 H   0  0  0  0  0  0
  -32.4824  -22.2297   20.5044 H   0  0  0  0  0  0
  -32.1055  -21.0633   19.2364 H   0  0  0  0  0  0
  -31.6516  -23.9504   19.1209 H   0  0  0  0  0  0
  -31.5727  -24.3903   20.8339 H   0  0  0  0  0  0
  -30.5256  -25.1786   19.6644 H   0  0  0  0  0  0
  -27.1518  -19.4534   21.5723 H   0  0  0  0  0  0
  -26.5390  -19.7805   19.9398 H   0  0  0  0  0  0
  -26.0471  -20.7805   21.3032 H   0  0  0  0  0  0
  -26.8694  -24.7206   20.2632 H   0  0  0  0  0  0
  -27.7817  -24.8351   18.7725 H   0  0  0  0  0  0
  1 25  1  0  0  0
  1 30  2  0  0  0
  1 86  1  0  0  0
  2  3  1  0  0  0
  2 25  1  0  0  0
  2 87  1  0  0  0
  2 88  1  0  0  0
  3  4  1  0  0  0
  3 89  1  0  0  0
  3 90  1  0  0  0
  4  5  1  0  0  0
  4 91  1  0  0  0
  4 92  1  0  0  0
  5  6  1  0  0  0
  5 26  1  0  0  0
  5 93  1  0  0  0
  6 25  1  0  0  0
  6 94  1  0  0  0
  6 95  1  0  0  0
  7  8  2  0  0  0
  7 26  1  0  0  0
  7 29  1  0  0  0
  8  9  1  0  0  0
  8 22  1  0  0  0
  9 10  1  0  0  0
  9 27  2  0  0  0
 10 11  2  0  0  0
 10 15  1  0  0  0
 11 12  1  0  0  0
 11 96  1  0  0  0
 12 13  2  0  0  0
 12 97  1  0  0  0
 13 14  1  0  0  0
 13 31  1  0  0  0
 14 15  2  0  0  0
 14 98  1  0  0  0
 15 99  1  0  0  0
 16 17  2  0  0  0
 16 21  1  0  0  0
 16 31  1  0  0  0
 17 18  1  0  0  0
 17100  1  0  0  0
 18 19  2  0  0  0
 18101  1  0  0  0
 19 20  1  0  0  0
 19 24  1  0  0  0
 20 21  2  0  0  0
 20102  1  0  0  0
 21 23  1  0  0  0
 22 28  1  0  0  0
 22 32  2  0  0  0
 26 27  1  0  0  0
 28103  1  0  0  0
 28104  1  0  0  0
 29105  1  0  0  0
 29106  1  0  0  0
 33 34  1  0  0  0
 33 66  1  0  0  0
 33 70  2  0  0  0
 34 36  1  0  0  0
 34 59  1  0  0  0
 34107  1  0  0  0
 35 44  2  0  0  0
 35 45  1  0  0  0
 35 68  1  0  0  0
 36 56  1  0  0  0
 36108  1  0  0  0
 37 39  1  0  0  0
 37 47  1  0  0  0
 37 66  1  0  0  0
 37109  1  0  0  0
 38 43  2  0  0  0
 38 46  1  0  0  0
 38 47  1  0  0  0
 39 64  1  0  0  0
 39 67  2  0  0  0
 40 52  1  0  0  0
 40 53  2  0  0  0
 40 58  1  0  0  0
 41110  1  0  0  0
 41111  1  0  0  0
 41112  1  0  0  0
 41 48  1  0  0  0
 42 43  1  0  0  0
 42 66  1  0  0  0
 42113  1  0  0  0
 42114  1  0  0  0
 43 44  1  0  0  0
 44115  1  0  0  0
 45 46  2  0  0  0
 45116  1  0  0  0
 46117  1  0  0  0
 47118  1  0  0  0
 47119  1  0  0  0
 48 56  1  0  0  0
 48 65  1  0  0  0
 48120  1  0  0  0
 49 50  1  0  0  0
 49 53  1  0  0  0
 49 64  1  0  0  0
 49121  1  0  0  0
 50 51  1  0  0  0
 50122  1  0  0  0
 50123  1  0  0  0
 51 52  1  0  0  0
 51124  1  0  0  0
 51125  1  0  0  0
 52126  1  0  0  0
 52127  1  0  0  0
 53 54  1  0  0  0
 54 55  2  0  0  0
 54128  1  0  0  0
 55 57  1  0  0  0
 55129  1  0  0  0
 56 69  2  0  0  0
 57 58  2  0  0  0
 57130  1  0  0  0
 58131  1  0  0  0
 59 60  1  0  0  0
 59 61  1  0  0  0
 59 62  1  0  0  0
 60132  1  0  0  0
 60133  1  0  0  0
 60134  1  0  0  0
 61135  1  0  0  0
 61136  1  0  0  0
 61137  1  0  0  0
 62138  1  0  0  0
 62139  1  0  0  0
 62140  1  0  0  0
 63 65  1  0  0  0
 63141  1  0  0  0
 63142  1  0  0  0
 63143  1  0  0  0
 64144  1  0  0  0
 65145  1  0  0  0
 68 84  1  0  0  0
 71 72  2  0  0  0
 71 74  1  0  0  0
 71 80  1  0  0  0
 72 73  1  0  0  0
 72 81  1  0  0  0
 73 75  2  0  0  0
 73 82  1  0  0  0
 74 83  1  0  0  0
 74 85  2  0  0  0
 75 84  1  0  0  0
 75 85  1  0  0  0
 76 78  1  0  0  0
 76 80  1  0  0  0
 76146  1  0  0  0
 76147  1  0  0  0
 77 79  1  0  0  0
 77 80  1  0  0  0
 77148  1  0  0  0
 77149  1  0  0  0
 78 86  1  0  0  0
 78150  1  0  0  0
 78151  1  0  0  0
 79 86  1  0  0  0
 79152  1  0  0  0
 79153  1  0  0  0
 80154  1  0  0  0
 81155  1  0  0  0
 81156  1  0  0  0
 81157  1  0  0  0
 82158  1  0  0  0
 82159  1  0  0  0
 82160  1  0  0  0
 83161  1  0  0  0
 83162  1  0  0  0
 83163  1  0  0  0
 84164  1  0  0  0
 84165  1  0  0  0
M  ISO  4   1 100  68 101  84 101  86 100
M  END
> <chiral flag>
0

> <version>
0

> <s_m_source_file>
/data/baiqing/PycharmProjects/Reinvent-master-3.2/result/LINK_invent/BTK/process_docking_weight1_custom_sum_contain_oxygen_bond_distance_aromatic_linkinvent_7_9_3/rearranged_h_0172.sdf

> <i_m_source_file_index>
28

> <r_mmod_Potential_Energy-OPLS-2005>
322.044281005859

> <r_mmod_Stretch_Energy-OPLS-2005>
123.411468505859

> <r_mmod_Bend_Energy-OPLS-2005>
214.870346069336

> <r_mmod_Torsional_Energy-OPLS-2005>
335.452423095703

> <r_mmod_Improper_Torsional_Energy-OPLS-2005>
10.6883735656738

> <r_mmod_Van_der_Waal_Energy-OPLS-2005>
165.145645141602

> <r_mmod_Electrostatic_Energy-OPLS-2005>
-410.88623046875

> <r_mmod_Solvation_Energy-OPLS-2005>
-209.603042602539

> <b_mmod_Minimization_Converged-OPLS-2005>
0

> <r_mmod_RMS_Derivative-OPLS-2005>
1.44500160217285

$$$$
28
                    3D
 Structure written by MMmdl.
167177  0  0  1  0            999 V2000
  -30.5818  -14.9216   20.4186 C   0  0  0  0  0  0
  -30.4357  -12.5702   19.4975 C   0  0  0  0  0  0
  -29.5208  -12.5318   18.2530 C   0  0  0  0  0  0
  -28.0514  -12.3301   18.6696 C   0  0  0  0  0  0
  -27.6308  -13.2566   19.8414 C   0  0  2  0  0  0
  -28.6773  -13.2800   20.9772 C   0  0  0  0  0  0
  -25.2432  -13.8241   20.5749 C   0  0  0  0  0  0
  -24.1759  -13.0448   20.9264 C   0  0  0  0  0  0
  -24.6386  -11.6940   20.8767 C   0  0  0  0  0  0
  -23.9075  -10.4301   21.0402 C   0  0  0  0  0  0
  -24.3615   -9.4215   21.9186 C   0  0  0  0  0  0
  -23.6293   -8.2255   22.0747 C   0  0  0  0  0  0
  -22.4278   -8.0297   21.3547 C   0  0  0  0  0  0
  -21.9916   -9.0270   20.4639 C   0  0  0  0  0  0
  -22.7247  -10.2148   20.3054 C   0  0  0  0  0  0
  -21.6861   -6.0741   22.5274 C   0  0  0  0  0  0
  -21.4019   -6.5636   23.8217 C   0  0  0  0  0  0
  -21.3666   -5.6780   24.9162 C   0  0  0  0  0  0
  -21.6046   -4.3046   24.7207 C   0  0  0  0  0  0
  -21.8815   -3.8148   23.4323 C   0  0  0  0  0  0
  -21.9179   -4.6969   22.3389 C   0  0  0  0  0  0
  -22.7769  -13.5205   21.1900 C   0  0  0  0  0  0
  -22.1656   -4.2161   21.0964 F   0  0  0  0  0  0
  -21.5618   -3.4524   25.7719 F   0  0  0  0  0  0
  -29.9565  -13.6769   20.3749 N   0  0  0  0  0  0
  -26.2878  -12.9506   20.3269 N   0  0  0  0  0  0
  -25.9328  -11.6624   20.5744 N   0  0  0  0  0  0
  -22.0389  -12.8220   22.0461 N   0  0  0  0  0  0
  -25.4041  -15.1978   20.4175 N   0  0  0  0  0  0
  -31.7770  -14.9477   20.1161 O   0  0  0  0  0  0
  -21.6642   -6.8901   21.4249 O   0  0  0  0  0  0
  -22.3458  -14.5503   20.6726 O   0  0  0  0  0  0
  -24.6449  -31.8437   23.1852 C   0  0  0  0  0  0
  -25.9206  -32.4689   23.8258 C   0  0  1  0  0  0
  -27.2191  -27.1177   20.1527 C   0  0  0  0  0  0
  -25.5928  -33.8495   24.2165 N   0  0  0  0  0  0
  -23.4490  -30.4616   21.5341 C   0  0  2  0  0  0
  -24.8981  -28.8844   20.1145 C   0  0  0  0  0  0
  -22.7581  -29.4542   22.4875 C   0  0  0  0  0  0
  -18.0307  -28.1403   22.8480 C   0  0  0  0  0  0
  -24.1479  -36.7253   23.2647 C   0  0  0  0  0  0
  -26.0075  -30.7130   21.3851 C   0  0  0  0  0  0
  -26.0798  -29.3217   20.7267 C   0  0  0  0  0  0
  -27.2412  -28.4570   20.7230 C   0  0  0  0  0  0
  -26.0056  -26.7852   19.5077 C   0  0  0  0  0  0
  -24.8749  -27.6300   19.4907 C   0  0  0  0  0  0
  -23.6753  -29.7888   20.1552 C   0  0  0  0  0  0
  -25.4113  -36.3025   24.0315 C   0  0  1  0  0  0
  -20.5923  -28.3718   23.1241 C   0  0  2  0  0  0
  -20.6790  -26.9422   22.5412 C   0  0  0  0  0  0
  -19.5758  -26.6380   21.5225 C   0  0  0  0  0  0
  -18.1942  -26.7941   22.1638 C   0  0  0  0  0  0
  -19.1571  -28.8878   23.2852 C   0  0  0  0  0  0
  -18.9487  -30.1477   23.8873 C   0  0  0  0  0  0
  -17.6485  -30.6592   24.0568 C   0  0  0  0  0  0
  -25.9068  -34.9404   23.5057 C   0  0  0  0  0  0
  -16.5373  -29.9087   23.6341 C   0  0  0  0  0  0
  -16.7299  -28.6514   23.0351 C   0  0  0  0  0  0
  -26.4497  -31.6563   25.0713 C   0  0  0  0  0  0
  -25.3657  -31.3793   26.1396 C   0  0  0  0  0  0
  -27.0349  -30.2941   24.6320 C   0  0  0  0  0  0
  -27.6003  -32.4351   25.7515 C   0  0  0  0  0  0
  -27.5568  -37.1781   24.8466 C   0  0  0  0  0  0
  -21.4276  -29.3035   22.3607 N   0  0  0  0  0  0
  -26.4274  -37.3741   23.9413 N   0  0  0  0  0  0
  -24.7209  -31.0273   22.0895 N   0  0  0  0  0  0
  -23.4220  -28.8109   23.3045 O   0  0  0  0  0  0
  -28.2717  -26.1228   20.2072 O   0  0  0  0  0  0
  -26.5678  -34.8911   22.4651 O   0  0  0  0  0  0
  -23.5563  -32.1321   23.7055 O   0  0  0  0  0  0
  -32.3742  -18.3990   24.5258 C   0  0  0  0  0  0
  -32.8340  -17.3940   23.6581 C   0  0  0  0  0  0
  -31.2530  -19.1689   24.1694 C   0  0  0  0  0  0
  -32.1653  -17.1539   22.4437 C   0  0  0  0  0  0
  -30.5769  -18.9232   22.9530 C   0  0  0  0  0  0
  -31.0126  -17.8934   22.0861 C   0  0  0  0  0  0
  -29.3911  -19.7862   22.5638 C   0  0  0  0  0  0
  -30.1614  -23.4668   21.2248 C   0  0  0  0  0  0
  -29.3332  -19.0105   20.3671 C   0  0  0  0  0  0
  -30.2943  -17.6534   20.7480 C   0  0  2  0  0  0
  -29.3787  -22.6706   22.2724 C   0  0  2  0  0  0
  -29.0086  -23.2429   20.2752 C   0  0  1  0  0  0
  -28.7807  -21.7740   21.1234 C   0  0  1  0  0  0
  -28.4306  -23.3909   23.2316 C   0  0  0  0  0  0
  -27.9681  -24.5838   20.1831 C   0  0  0  0  0  0
  -29.8587  -16.1318   20.6044 N   0  0  0  0  0  0
  -29.5633  -20.3514   21.1821 N   0  3  1  0  0  0
  -31.4718  -12.7119   19.1840 H   0  0  0  0  0  0
  -30.4200  -11.6165   20.0292 H   0  0  0  0  0  0
  -29.8348  -11.7355   17.5764 H   0  0  0  0  0  0
  -29.6238  -13.4640   17.6945 H   0  0  0  0  0  0
  -27.9331  -11.2880   18.9678 H   0  0  0  0  0  0
  -27.3917  -12.4786   17.8133 H   0  0  0  0  0  0
  -27.5952  -14.2612   19.4191 H   0  0  0  0  0  0
  -28.7538  -12.3032   21.4595 H   0  0  0  0  0  0
  -28.3886  -13.9869   21.7569 H   0  0  0  0  0  0
  -25.2748   -9.5692   22.4773 H   0  0  0  0  0  0
  -23.9995   -7.4637   22.7461 H   0  0  0  0  0  0
  -21.0851   -8.8795   19.8942 H   0  0  0  0  0  0
  -22.3705  -10.9691   19.6165 H   0  0  0  0  0  0
  -21.2045   -7.6148   23.9725 H   0  0  0  0  0  0
  -21.1489   -6.0504   25.9072 H   0  0  0  0  0  0
  -22.0592   -2.7612   23.2803 H   0  0  0  0  0  0
  -22.3983  -11.9914   22.4922 H   0  0  0  0  0  0
  -21.0995  -13.1266   22.2606 H   0  0  0  0  0  0
  -24.6244  -15.8388   20.5214 H   0  0  0  0  0  0
  -26.2305  -15.6442   20.0418 H   0  0  0  0  0  0
  -26.7275  -32.5282   23.0992 H   0  0  0  0  0  0
  -24.9969  -33.9605   25.0237 H   0  0  0  0  0  0
  -22.7499  -31.2861   21.3783 H   0  0  0  0  0  0
  -23.3743  -35.9585   23.3310 H   0  0  0  0  0  0
  -24.3553  -36.8895   22.2062 H   0  0  0  0  0  0
  -23.7240  -37.6450   23.6694 H   0  0  0  0  0  0
  -26.1642  -31.4682   20.6135 H   0  0  0  0  0  0
  -26.8769  -30.7618   22.0293 H   0  0  0  0  0  0
  -28.1444  -28.7933   21.2141 H   0  0  0  0  0  0
  -25.8897  -25.8298   19.0226 H   0  0  0  0  0  0
  -23.9719  -27.2862   19.0054 H   0  0  0  0  0  0
  -23.8128  -30.5621   19.3984 H   0  0  0  0  0  0
  -22.7881  -29.2331   19.8454 H   0  0  0  0  0  0
  -25.1300  -36.1847   25.0806 H   0  0  0  0  0  0
  -21.0018  -28.3319   24.1367 H   0  0  0  0  0  0
  -20.5687  -26.2342   23.3637 H   0  0  0  0  0  0
  -21.6658  -26.7423   22.1216 H   0  0  0  0  0  0
  -19.6916  -25.6285   21.1267 H   0  0  0  0  0  0
  -19.6689  -27.3180   20.6745 H   0  0  0  0  0  0
  -17.4211  -26.6694   21.4040 H   0  0  0  0  0  0
  -18.0330  -26.0090   22.9042 H   0  0  0  0  0  0
  -19.7961  -30.7303   24.2240 H   0  0  0  0  0  0
  -17.5033  -31.6264   24.5186 H   0  0  0  0  0  0
  -15.5373  -30.2978   23.7674 H   0  0  0  0  0  0
  -15.8706  -28.0823   22.7070 H   0  0  0  0  0  0
  -24.5813  -30.7166   25.7724 H   0  0  0  0  0  0
  -24.8861  -32.2994   26.4748 H   0  0  0  0  0  0
  -25.7898  -30.9005   27.0228 H   0  0  0  0  0  0
  -26.2960  -29.6676   24.1304 H   0  0  0  0  0  0
  -27.3908  -29.7239   25.4913 H   0  0  0  0  0  0
  -27.8897  -30.4157   23.9665 H   0  0  0  0  0  0
  -27.2547  -33.3656   26.2042 H   0  0  0  0  0  0
  -28.3833  -32.6925   25.0369 H   0  0  0  0  0  0
  -28.0645  -31.8522   26.5482 H   0  0  0  0  0  0
  -28.2581  -38.0080   24.7493 H   0  0  0  0  0  0
  -28.1062  -36.2606   24.6300 H   0  0  0  0  0  0
  -27.2288  -37.1445   25.8871 H   0  0  0  0  0  0
  -20.9503  -29.8714   21.6744 H   0  0  0  0  0  0
  -26.0138  -38.2812   24.1404 H   0  0  0  0  0  0
  -32.8904  -18.5846   25.4585 H   0  0  0  0  0  0
  -33.7089  -16.8135   23.9180 H   0  0  0  0  0  0
  -30.9172  -19.9507   24.8374 H   0  0  0  0  0  0
  -32.5791  -16.4063   21.7887 H   0  0  0  0  0  0
  -29.2070  -20.4954   23.3641 H   0  0  0  0  0  0
  -28.4905  -19.1722   22.6166 H   0  0  0  0  0  0
  -31.0811  -22.9788   20.8948 H   0  0  0  0  0  0
  -30.3489  -24.5108   21.4795 H   0  0  0  0  0  0
  -28.2842  -18.7309   20.4672 H   0  0  0  0  0  0
  -29.4476  -19.2335   19.3068 H   0  0  0  0  0  0
  -31.1115  -17.7246   20.0273 H   0  0  0  0  0  0
  -30.1865  -22.2191   22.8492 H   0  0  0  0  0  0
  -29.4056  -23.0240   19.2820 H   0  0  0  0  0  0
  -27.7162  -21.5827   21.2682 H   0  0  0  0  0  0
  -27.3864  -23.2579   22.9493 H   0  0  0  0  0  0
  -28.6301  -24.4613   23.2694 H   0  0  0  0  0  0
  -28.5331  -23.0072   24.2473 H   0  0  0  0  0  0
  -27.1933  -24.4434   20.9366 H   0  0  0  0  0  0
  -27.4423  -24.4321   19.2424 H   0  0  0  0  0  0
  -28.8687  -15.9846   20.7264 H   0  0  0  0  0  0
  -30.5445  -20.5657   21.0878 H   0  0  0  0  0  0
  1 25  1  0  0  0
  1 30  2  0  0  0
  1 86  1  0  0  0
  2  3  1  0  0  0
  2 25  1  0  0  0
  2 88  1  0  0  0
  2 89  1  0  0  0
  3  4  1  0  0  0
  3 90  1  0  0  0
  3 91  1  0  0  0
  4  5  1  0  0  0
  4 92  1  0  0  0
  4 93  1  0  0  0
  5  6  1  0  0  0
  5 26  1  0  0  0
  5 94  1  0  0  0
  6 25  1  0  0  0
  6 95  1  0  0  0
  6 96  1  0  0  0
  7  8  2  0  0  0
  7 26  1  0  0  0
  7 29  1  0  0  0
  8  9  1  0  0  0
  8 22  1  0  0  0
  9 10  1  0  0  0
  9 27  2  0  0  0
 10 11  2  0  0  0
 10 15  1  0  0  0
 11 12  1  0  0  0
 11 97  1  0  0  0
 12 13  2  0  0  0
 12 98  1  0  0  0
 13 14  1  0  0  0
 13 31  1  0  0  0
 14 15  2  0  0  0
 14 99  1  0  0  0
 15100  1  0  0  0
 16 17  2  0  0  0
 16 21  1  0  0  0
 16 31  1  0  0  0
 17 18  1  0  0  0
 17101  1  0  0  0
 18 19  2  0  0  0
 18102  1  0  0  0
 19 20  1  0  0  0
 19 24  1  0  0  0
 20 21  2  0  0  0
 20103  1  0  0  0
 21 23  1  0  0  0
 22 28  1  0  0  0
 22 32  2  0  0  0
 26 27  1  0  0  0
 28104  1  0  0  0
 28105  1  0  0  0
 29106  1  0  0  0
 29107  1  0  0  0
 33 34  1  0  0  0
 33 66  1  0  0  0
 33 70  2  0  0  0
 34 36  1  0  0  0
 34 59  1  0  0  0
 34108  1  0  0  0
 35 44  2  0  0  0
 35 45  1  0  0  0
 35 68  1  0  0  0
 36 56  1  0  0  0
 36109  1  0  0  0
 37 39  1  0  0  0
 37 47  1  0  0  0
 37 66  1  0  0  0
 37110  1  0  0  0
 38 43  2  0  0  0
 38 46  1  0  0  0
 38 47  1  0  0  0
 39 64  1  0  0  0
 39 67  2  0  0  0
 40 52  1  0  0  0
 40 53  2  0  0  0
 40 58  1  0  0  0
 41111  1  0  0  0
 41112  1  0  0  0
 41113  1  0  0  0
 41 48  1  0  0  0
 42 43  1  0  0  0
 42 66  1  0  0  0
 42114  1  0  0  0
 42115  1  0  0  0
 43 44  1  0  0  0
 44116  1  0  0  0
 45 46  2  0  0  0
 45117  1  0  0  0
 46118  1  0  0  0
 47119  1  0  0  0
 47120  1  0  0  0
 48 56  1  0  0  0
 48 65  1  0  0  0
 48121  1  0  0  0
 49 50  1  0  0  0
 49 53  1  0  0  0
 49 64  1  0  0  0
 49122  1  0  0  0
 50 51  1  0  0  0
 50123  1  0  0  0
 50124  1  0  0  0
 51 52  1  0  0  0
 51125  1  0  0  0
 51126  1  0  0  0
 52127  1  0  0  0
 52128  1  0  0  0
 53 54  1  0  0  0
 54 55  2  0  0  0
 54129  1  0  0  0
 55 57  1  0  0  0
 55130  1  0  0  0
 56 69  2  0  0  0
 57 58  2  0  0  0
 57131  1  0  0  0
 58132  1  0  0  0
 59 60  1  0  0  0
 59 61  1  0  0  0
 59 62  1  0  0  0
 60133  1  0  0  0
 60134  1  0  0  0
 60135  1  0  0  0
 61136  1  0  0  0
 61137  1  0  0  0
 61138  1  0  0  0
 62139  1  0  0  0
 62140  1  0  0  0
 62141  1  0  0  0
 63 65  1  0  0  0
 63142  1  0  0  0
 63143  1  0  0  0
 63144  1  0  0  0
 64145  1  0  0  0
 65146  1  0  0  0
 68 85  1  0  0  0
 71 72  2  0  0  0
 71 73  1  0  0  0
 71147  1  0  0  0
 72 74  1  0  0  0
 72148  1  0  0  0
 73 75  2  0  0  0
 73149  1  0  0  0
 74 76  2  0  0  0
 74150  1  0  0  0
 75 76  1  0  0  0
 75 77  1  0  0  0
 76 80  1  0  0  0
 77151  1  0  0  0
 77152  1  0  0  0
 77 87  1  0  0  0
 78 81  1  0  0  0
 78 82  1  0  0  0
 78153  1  0  0  0
 78154  1  0  0  0
 79 80  1  0  0  0
 79 87  1  0  0  0
 79155  1  0  0  0
 79156  1  0  0  0
 80 86  1  0  0  0
 80157  1  0  0  0
 81 83  1  0  0  0
 81 84  1  0  0  0
 81158  1  0  0  0
 82 83  1  0  0  0
 82 85  1  0  0  0
 82159  1  0  0  0
 83 87  1  0  0  0
 83160  1  0  0  0
 84161  1  0  0  0
 84162  1  0  0  0
 84163  1  0  0  0
 85164  1  0  0  0
 85165  1  0  0  0
 86166  1  0  0  0
 87167  1  0  0  0
M  CHG  1  87   1
M  ISO  4   1 100  68 101  85 101  86 100
M  END
> <chiral flag>
0

> <version>
0

> <s_m_source_file>
/data/baiqing/PycharmProjects/Reinvent-master-3.2/result/LINK_invent/BTK/process_docking_weight1_custom_sum_contain_oxygen_bond_distance_aromatic_linkinvent_7_9_3/rearranged_h_0172.sdf

> <i_m_source_file_index>
29

> <r_mmod_Potential_Energy-OPLS-2005>
544.073425292969

> <r_mmod_Stretch_Energy-OPLS-2005>
313.475250244141

> <r_mmod_Bend_Energy-OPLS-2005>
363.826385498047

> <r_mmod_Torsional_Energy-OPLS-2005>
292.607788085938

> <r_mmod_Improper_Torsional_Energy-OPLS-2005>
4.36276054382324

> <r_mmod_Van_der_Waal_Energy-OPLS-2005>
159.59130859375

> <r_mmod_Electrostatic_Energy-OPLS-2005>
-318.437225341797

> <r_mmod_Solvation_Energy-OPLS-2005>
-458.930755615234

> <b_mmod_Minimization_Converged-OPLS-2005>
0

> <r_mmod_RMS_Derivative-OPLS-2005>
2.38152050971985

$$$$
29
                    3D
 Structure written by MMmdl.
164173  0  0  1  0            999 V2000
  -30.6173  -14.8293   20.4452 C   0  0  0  0  0  0
  -30.4362  -12.5175   19.4644 C   0  0  0  0  0  0
  -29.5185  -12.5300   18.2199 C   0  0  0  0  0  0
  -28.0473  -12.3245   18.6308 C   0  0  0  0  0  0
  -27.6355  -13.2218   19.8265 C   0  0  2  0  0  0
  -28.6833  -13.1854   20.9599 C   0  0  0  0  0  0
  -25.2419  -13.8108   20.5601 C   0  0  0  0  0  0
  -24.1747  -13.0384   20.9182 C   0  0  0  0  0  0
  -24.6372  -11.6875   20.8741 C   0  0  0  0  0  0
  -23.9073  -10.4252   21.0409 C   0  0  0  0  0  0
  -24.3639   -9.4169   21.9195 C   0  0  0  0  0  0
  -23.6281   -8.2222   22.0755 C   0  0  0  0  0  0
  -22.4250   -8.0263   21.3550 C   0  0  0  0  0  0
  -21.9880   -9.0229   20.4643 C   0  0  0  0  0  0
  -22.7239  -10.2088   20.3054 C   0  0  0  0  0  0
  -21.6828   -6.0724   22.5276 C   0  0  0  0  0  0
  -21.3965   -6.5610   23.8210 C   0  0  0  0  0  0
  -21.3651   -5.6765   24.9169 C   0  0  0  0  0  0
  -21.6044   -4.3031   24.7211 C   0  0  0  0  0  0
  -21.8809   -3.8138   23.4317 C   0  0  0  0  0  0
  -21.9175   -4.6959   22.3380 C   0  0  0  0  0  0
  -22.7760  -13.5177   21.1858 C   0  0  0  0  0  0
  -22.1688   -4.2167   21.0967 F   0  0  0  0  0  0
  -21.5657   -3.4530   25.7735 F   0  0  0  0  0  0
  -29.9658  -13.6011   20.3745 N   0  0  0  0  0  0
  -26.2889  -12.9337   20.3134 N   0  0  0  0  0  0
  -25.9300  -11.6507   20.5705 N   0  0  0  0  0  0
  -22.0360  -12.8219   22.0400 N   0  0  0  0  0  0
  -25.3908  -15.1851   20.3971 N   0  0  0  0  0  0
  -31.8133  -14.8540   20.1338 O   0  0  0  0  0  0
  -21.6613   -6.8871   21.4246 O   0  0  0  0  0  0
  -22.3481  -14.5511   20.6729 O   0  0  0  0  0  0
  -24.6310  -31.8519   23.1986 C   0  0  0  0  0  0
  -25.9144  -32.4726   23.8327 C   0  0  1  0  0  0
  -27.2296  -27.2547   20.1164 C   0  0  0  0  0  0
  -25.5915  -33.8528   24.2260 N   0  0  0  0  0  0
  -23.4309  -30.4727   21.5409 C   0  0  2  0  0  0
  -24.8815  -28.9222   20.0983 C   0  0  0  0  0  0
  -22.7537  -29.4555   22.4914 C   0  0  0  0  0  0
  -18.0286  -28.1359   22.8489 C   0  0  0  0  0  0
  -24.1474  -36.7280   23.2636 C   0  0  0  0  0  0
  -25.9746  -30.7627   21.3783 C   0  0  0  0  0  0
  -26.0499  -29.3870   20.7140 C   0  0  0  0  0  0
  -27.2223  -28.5614   20.7175 C   0  0  0  0  0  0
  -26.0308  -26.8535   19.5036 C   0  0  0  0  0  0
  -24.8763  -27.6623   19.4807 C   0  0  0  0  0  0
  -23.6499  -29.8074   20.1538 C   0  0  0  0  0  0
  -25.4091  -36.3069   24.0353 C   0  0  1  0  0  0
  -20.5892  -28.3661   23.1253 C   0  0  2  0  0  0
  -20.6763  -26.9364   22.5406 C   0  0  0  0  0  0
  -19.5735  -26.6349   21.5196 C   0  0  0  0  0  0
  -18.1918  -26.7922   22.1612 C   0  0  0  0  0  0
  -19.1544  -28.8835   23.2854 C   0  0  0  0  0  0
  -18.9469  -30.1447   23.8851 C   0  0  0  0  0  0
  -17.6459  -30.6567   24.0560 C   0  0  0  0  0  0
  -25.9022  -34.9423   23.5125 C   0  0  0  0  0  0
  -16.5355  -29.9059   23.6328 C   0  0  0  0  0  0
  -16.7264  -28.6486   23.0337 C   0  0  0  0  0  0
  -26.4499  -31.6559   25.0723 C   0  0  0  0  0  0
  -25.3739  -31.3709   26.1468 C   0  0  0  0  0  0
  -27.0342  -30.2991   24.6190 C   0  0  0  0  0  0
  -27.6035  -32.4312   25.7511 C   0  0  0  0  0  0
  -27.5577  -37.1785   24.8455 C   0  0  0  0  0  0
  -21.4230  -29.3025   22.3679 N   0  0  0  0  0  0
  -26.4262  -37.3776   23.9434 N   0  0  0  0  0  0
  -24.6980  -31.0466   22.0953 N   0  0  0  0  0  0
  -23.4227  -28.8065   23.2987 O   0  0  0  0  0  0
  -28.3164  -26.3558   20.2525 O   0  0  0  0  0  0
  -26.5599  -34.8921   22.4688 O   0  0  0  0  0  0
  -23.5472  -32.1305   23.7310 O   0  0  0  0  0  0
  -28.2735  -23.6506   19.4053 C   0  0  0  0  0  0
  -27.2755  -23.1436   18.5098 C   0  0  0  0  0  0
  -29.0300  -22.5932   20.0885 C   0  0  0  0  0  0
  -27.0399  -21.7442   18.4227 C   0  0  0  0  0  0
  -28.7893  -21.1653   19.8556 C   0  0  0  0  0  0
  -28.4498  -17.9104   21.2833 C   0  0  0  0  0  0
  -28.6341  -16.3673   21.1837 C   0  0  0  0  0  0
  -30.4516  -17.4479   20.1667 C   0  0  0  0  0  0
  -29.2785  -18.5423   20.1630 C   0  0  2  0  0  0
  -26.4650  -24.0330   17.5643 C   0  0  0  0  0  0
  -30.1457  -23.0070   21.0367 C   0  0  0  0  0  0
  -25.9468  -21.1640   17.5314 C   0  0  0  0  0  0
  -28.6974  -25.2192   19.3417 C   0  0  0  0  0  0
  -27.7738  -20.8107   19.0575 N   0  0  0  0  0  0
  -29.9265  -16.0636   20.5436 N   0  0  0  0  0  0
  -29.5612  -20.0380   20.3609 N   0  0  0  0  0  0
  -31.4741  -12.6484   19.1550 H   0  0  0  0  0  0
  -30.3986  -11.5485   19.9625 H   0  0  0  0  0  0
  -29.8226  -11.7656   17.5016 H   0  0  0  0  0  0
  -29.6233  -13.4894   17.7075 H   0  0  0  0  0  0
  -27.9155  -11.2748   18.8926 H   0  0  0  0  0  0
  -27.4014  -12.5250   17.7740 H   0  0  0  0  0  0
  -27.6124  -14.2244   19.4071 H   0  0  0  0  0  0
  -28.7569  -12.1799   21.3788 H   0  0  0  0  0  0
  -28.3849  -13.8171   21.7906 H   0  0  0  0  0  0
  -25.2798   -9.5634   22.4804 H   0  0  0  0  0  0
  -23.9964   -7.4595   22.7484 H   0  0  0  0  0  0
  -21.0776   -8.8748   19.8981 H   0  0  0  0  0  0
  -22.3708  -10.9627   19.6158 H   0  0  0  0  0  0
  -21.1994   -7.6127   23.9724 H   0  0  0  0  0  0
  -21.1487   -6.0496   25.9078 H   0  0  0  0  0  0
  -22.0616   -2.7611   23.2796 H   0  0  0  0  0  0
  -22.3877  -11.9856   22.4831 H   0  0  0  0  0  0
  -21.1010  -13.1389   22.2610 H   0  0  0  0  0  0
  -24.6193  -15.8239   20.5502 H   0  0  0  0  0  0
  -26.2288  -15.6483   20.0759 H   0  0  0  0  0  0
  -26.7211  -32.5406   23.1059 H   0  0  0  0  0  0
  -25.0100  -33.9610   25.0457 H   0  0  0  0  0  0
  -22.7275  -31.2957   21.3966 H   0  0  0  0  0  0
  -23.3751  -35.9586   23.3269 H   0  0  0  0  0  0
  -24.3555  -36.8930   22.2045 H   0  0  0  0  0  0
  -23.7206  -37.6469   23.6677 H   0  0  0  0  0  0
  -26.1104  -31.5255   20.6116 H   0  0  0  0  0  0
  -26.8530  -30.8115   22.0113 H   0  0  0  0  0  0
  -28.1117  -28.9023   21.2304 H   0  0  0  0  0  0
  -25.9453  -25.8613   19.1231 H   0  0  0  0  0  0
  -23.9749  -27.2873   19.0148 H   0  0  0  0  0  0
  -23.7694  -30.5818   19.3947 H   0  0  0  0  0  0
  -22.7706  -29.2356   19.8522 H   0  0  0  0  0  0
  -25.1258  -36.1931   25.0840 H   0  0  0  0  0  0
  -20.9926  -28.3255   24.1392 H   0  0  0  0  0  0
  -20.5604  -26.2268   23.3612 H   0  0  0  0  0  0
  -21.6642  -26.7367   22.1235 H   0  0  0  0  0  0
  -19.6864  -25.6254   21.1226 H   0  0  0  0  0  0
  -19.6674  -27.3164   20.6721 H   0  0  0  0  0  0
  -17.4180  -26.6662   21.4027 H   0  0  0  0  0  0
  -18.0316  -26.0071   22.8997 H   0  0  0  0  0  0
  -19.7938  -30.7280   24.2198 H   0  0  0  0  0  0
  -17.5007  -31.6247   24.5165 H   0  0  0  0  0  0
  -15.5351  -30.2923   23.7667 H   0  0  0  0  0  0
  -15.8682  -28.0780   22.7039 H   0  0  0  0  0  0
  -24.5917  -30.7024   25.7864 H   0  0  0  0  0  0
  -24.8896  -32.2847   26.4909 H   0  0  0  0  0  0
  -25.8071  -30.8921   27.0254 H   0  0  0  0  0  0
  -26.2907  -29.6754   24.1195 H   0  0  0  0  0  0
  -27.4024  -29.7251   25.4703 H   0  0  0  0  0  0
  -27.8800  -30.4302   23.9434 H   0  0  0  0  0  0
  -27.2627  -33.3625   26.2051 H   0  0  0  0  0  0
  -28.3855  -32.6833   25.0344 H   0  0  0  0  0  0
  -28.0673  -31.8451   26.5452 H   0  0  0  0  0  0
  -28.2562  -38.0111   24.7535 H   0  0  0  0  0  0
  -28.1095  -36.2641   24.6228 H   0  0  0  0  0  0
  -27.2290  -37.1399   25.8849 H   0  0  0  0  0  0
  -20.9410  -29.8810   21.6948 H   0  0  0  0  0  0
  -26.0162  -38.2854   24.1446 H   0  0  0  0  0  0
  -28.8320  -18.2464   22.2486 H   0  0  0  0  0  0
  -27.3993  -18.2038   21.2423 H   0  0  0  0  0  0
  -27.8435  -15.9814   20.5510 H   0  0  0  0  0  0
  -28.5311  -15.9221   22.1747 H   0  0  0  0  0  0
  -31.1985  -17.7248   20.9166 H   0  0  0  0  0  0
  -30.9679  -17.4245   19.2067 H   0  0  0  0  0  0
  -28.7299  -18.4160   19.2246 H   0  0  0  0  0  0
  -26.8810  -25.0201   17.3861 H   0  0  0  0  0  0
  -25.4486  -24.1480   17.9425 H   0  0  0  0  0  0
  -26.3861  -23.5848   16.5747 H   0  0  0  0  0  0
  -29.8625  -23.8861   21.6223 H   0  0  0  0  0  0
  -31.0504  -23.2470   20.4777 H   0  0  0  0  0  0
  -30.3782  -22.2203   21.7527 H   0  0  0  0  0  0
  -26.1946  -21.2750   16.4738 H   0  0  0  0  0  0
  -24.9938  -21.6599   17.7176 H   0  0  0  0  0  0
  -25.7977  -20.0992   17.7212 H   0  0  0  0  0  0
  -28.6341  -25.5886   18.3212 H   0  0  0  0  0  0
  -29.7773  -25.1781   19.4794 H   0  0  0  0  0  0
  -30.3351  -20.2647   20.9759 H   0  0  0  0  0  0
  1 25  1  0  0  0
  1 30  2  0  0  0
  1 85  1  0  0  0
  2  3  1  0  0  0
  2 25  1  0  0  0
  2 87  1  0  0  0
  2 88  1  0  0  0
  3  4  1  0  0  0
  3 89  1  0  0  0
  3 90  1  0  0  0
  4  5  1  0  0  0
  4 91  1  0  0  0
  4 92  1  0  0  0
  5  6  1  0  0  0
  5 26  1  0  0  0
  5 93  1  0  0  0
  6 25  1  0  0  0
  6 94  1  0  0  0
  6 95  1  0  0  0
  7  8  2  0  0  0
  7 26  1  0  0  0
  7 29  1  0  0  0
  8  9  1  0  0  0
  8 22  1  0  0  0
  9 10  1  0  0  0
  9 27  2  0  0  0
 10 11  2  0  0  0
 10 15  1  0  0  0
 11 12  1  0  0  0
 11 96  1  0  0  0
 12 13  2  0  0  0
 12 97  1  0  0  0
 13 14  1  0  0  0
 13 31  1  0  0  0
 14 15  2  0  0  0
 14 98  1  0  0  0
 15 99  1  0  0  0
 16 17  2  0  0  0
 16 21  1  0  0  0
 16 31  1  0  0  0
 17 18  1  0  0  0
 17100  1  0  0  0
 18 19  2  0  0  0
 18101  1  0  0  0
 19 20  1  0  0  0
 19 24  1  0  0  0
 20 21  2  0  0  0
 20102  1  0  0  0
 21 23  1  0  0  0
 22 28  1  0  0  0
 22 32  2  0  0  0
 26 27  1  0  0  0
 28103  1  0  0  0
 28104  1  0  0  0
 29105  1  0  0  0
 29106  1  0  0  0
 33 34  1  0  0  0
 33 66  1  0  0  0
 33 70  2  0  0  0
 34 36  1  0  0  0
 34 59  1  0  0  0
 34107  1  0  0  0
 35 44  2  0  0  0
 35 45  1  0  0  0
 35 68  1  0  0  0
 36 56  1  0  0  0
 36108  1  0  0  0
 37 39  1  0  0  0
 37 47  1  0  0  0
 37 66  1  0  0  0
 37109  1  0  0  0
 38 43  2  0  0  0
 38 46  1  0  0  0
 38 47  1  0  0  0
 39 64  1  0  0  0
 39 67  2  0  0  0
 40 52  1  0  0  0
 40 53  2  0  0  0
 40 58  1  0  0  0
 41110  1  0  0  0
 41111  1  0  0  0
 41112  1  0  0  0
 41 48  1  0  0  0
 42 43  1  0  0  0
 42 66  1  0  0  0
 42113  1  0  0  0
 42114  1  0  0  0
 43 44  1  0  0  0
 44115  1  0  0  0
 45 46  2  0  0  0
 45116  1  0  0  0
 46117  1  0  0  0
 47118  1  0  0  0
 47119  1  0  0  0
 48 56  1  0  0  0
 48 65  1  0  0  0
 48120  1  0  0  0
 49 50  1  0  0  0
 49 53  1  0  0  0
 49 64  1  0  0  0
 49121  1  0  0  0
 50 51  1  0  0  0
 50122  1  0  0  0
 50123  1  0  0  0
 51 52  1  0  0  0
 51124  1  0  0  0
 51125  1  0  0  0
 52126  1  0  0  0
 52127  1  0  0  0
 53 54  1  0  0  0
 54 55  2  0  0  0
 54128  1  0  0  0
 55 57  1  0  0  0
 55129  1  0  0  0
 56 69  2  0  0  0
 57 58  2  0  0  0
 57130  1  0  0  0
 58131  1  0  0  0
 59 60  1  0  0  0
 59 61  1  0  0  0
 59 62  1  0  0  0
 60132  1  0  0  0
 60133  1  0  0  0
 60134  1  0  0  0
 61135  1  0  0  0
 61136  1  0  0  0
 61137  1  0  0  0
 62138  1  0  0  0
 62139  1  0  0  0
 62140  1  0  0  0
 63 65  1  0  0  0
 63141  1  0  0  0
 63142  1  0  0  0
 63143  1  0  0  0
 64144  1  0  0  0
 65145  1  0  0  0
 68 83  1  0  0  0
 71 72  2  0  0  0
 71 73  1  0  0  0
 71 83  1  0  0  0
 72 74  1  0  0  0
 72 80  1  0  0  0
 73 75  2  0  0  0
 73 81  1  0  0  0
 74 82  1  0  0  0
 74 84  2  0  0  0
 75 84  1  0  0  0
 75 86  1  0  0  0
 76 77  1  0  0  0
 76 79  1  0  0  0
 76146  1  0  0  0
 76147  1  0  0  0
 77 85  1  0  0  0
 77148  1  0  0  0
 77149  1  0  0  0
 78 79  1  0  0  0
 78 85  1  0  0  0
 78150  1  0  0  0
 78151  1  0  0  0
 79 86  1  0  0  0
 79152  1  0  0  0
 80153  1  0  0  0
 80154  1  0  0  0
 80155  1  0  0  0
 81156  1  0  0  0
 81157  1  0  0  0
 81158  1  0  0  0
 82159  1  0  0  0
 82160  1  0  0  0
 82161  1  0  0  0
 83162  1  0  0  0
 83163  1  0  0  0
 86164  1  0  0  0
M  ISO  4   1 100  68 101  83 101  85 100
M  END
> <chiral flag>
0

> <version>
0

> <s_m_source_file>
/data/baiqing/PycharmProjects/Reinvent-master-3.2/result/LINK_invent/BTK/process_docking_weight1_custom_sum_contain_oxygen_bond_distance_aromatic_linkinvent_7_9_3/rearranged_h_0172.sdf

> <i_m_source_file_index>
30

> <r_mmod_Potential_Energy-OPLS-2005>
207.921295166016

> <r_mmod_Stretch_Energy-OPLS-2005>
152.339080810547

> <r_mmod_Bend_Energy-OPLS-2005>
277.294769287109

> <r_mmod_Torsional_Energy-OPLS-2005>
307.13427734375

> <r_mmod_Improper_Torsional_Energy-OPLS-2005>
11.0442352294922

> <r_mmod_Van_der_Waal_Energy-OPLS-2005>
148.066146850586

> <r_mmod_Electrostatic_Energy-OPLS-2005>
-561.325561523438

> <r_mmod_Solvation_Energy-OPLS-2005>
-236.064880371094

> <b_mmod_Minimization_Converged-OPLS-2005>
0

> <r_mmod_RMS_Derivative-OPLS-2005>
5.39202880859375

$$$$
30
                    3D
 Structure written by MMmdl.
173182  0  0  1  0            999 V2000
  -29.6008  -15.8418   20.3052 C   0  0  0  0  0  0
  -30.2872  -13.2872   19.5727 C   0  0  0  0  0  0
  -29.5092  -12.7078   18.3506 C   0  0  0  0  0  0
  -28.0928  -12.2706   18.7618 C   0  0  0  0  0  0
  -27.5009  -13.2650   19.7850 C   0  0  2  0  0  0
  -28.4269  -13.5919   20.9502 C   0  0  0  0  0  0
  -25.1930  -13.8154   20.5676 C   0  0  0  0  0  0
  -24.1389  -13.0353   20.9305 C   0  0  0  0  0  0
  -24.6068  -11.6849   20.8808 C   0  0  0  0  0  0
  -23.8875  -10.4239   21.0472 C   0  0  0  0  0  0
  -24.3519   -9.4181   21.9212 C   0  0  0  0  0  0
  -23.6242   -8.2196   22.0762 C   0  0  0  0  0  0
  -22.4223   -8.0226   21.3552 C   0  0  0  0  0  0
  -21.9825   -9.0181   20.4655 C   0  0  0  0  0  0
  -22.7101  -10.2075   20.3076 C   0  0  0  0  0  0
  -21.6836   -6.0704   22.5287 C   0  0  0  0  0  0
  -21.4001   -6.5627   23.8215 C   0  0  0  0  0  0
  -21.3651   -5.6791   24.9186 C   0  0  0  0  0  0
  -21.6033   -4.3052   24.7243 C   0  0  0  0  0  0
  -21.8820   -3.8131   23.4371 C   0  0  0  0  0  0
  -21.9194   -4.6938   22.3421 C   0  0  0  0  0  0
  -22.7477  -13.5160   21.1989 C   0  0  0  0  0  0
  -22.1662   -4.2131   21.0998 F   0  0  0  0  0  0
  -21.5627   -3.4539   25.7760 F   0  0  0  0  0  0
  -29.4508  -14.3765   20.2940 N   0  0  0  0  0  0
  -26.2067  -12.9286   20.2837 N   0  0  0  0  0  0
  -25.8899  -11.6441   20.5558 N   0  0  0  0  0  0
  -22.0166  -12.8169   22.0574 N   0  0  0  0  0  0
  -25.3705  -15.1900   20.4182 N   0  0  0  0  0  0
  -30.8528  -15.9530   20.1244 O   0  0  0  0  0  0
  -21.6607   -6.8819   21.4240 O   0  0  0  0  0  0
  -22.3224  -14.5504   20.6858 O   0  0  0  0  0  0
  -24.7997  -31.8914   22.6851 C   0  0  0  0  0  0
  -25.9838  -32.4624   23.6172 C   0  0  1  0  0  0
  -26.4277  -28.0873   21.5849 C   0  0  0  0  0  0
  -25.6023  -33.8156   24.0798 N   0  0  0  0  0  0
  -24.1331  -29.4496   21.0491 C   0  0  2  0  0  0
  -25.4135  -29.0143   19.4387 C   0  0  0  0  0  0
  -23.6016  -27.6235   22.1537 C   0  0  0  0  0  0
  -18.1230  -28.0498   22.8484 C   0  0  0  0  0  0
  -24.1466  -36.7210   23.2707 C   0  0  0  0  0  0
  -26.1222  -31.0580   20.8139 C   0  0  0  0  0  0
  -26.4350  -29.7250   20.1665 C   0  0  0  0  0  0
  -27.2972  -28.9411   20.9275 C   0  0  0  0  0  0
  -26.0194  -27.1073   20.5735 C   0  0  0  0  0  0
  -25.4301  -27.6174   19.4104 C   0  0  0  0  0  0
  -24.0653  -29.5206   19.5565 C   0  0  0  0  0  0
  -25.4150  -36.2830   24.0192 C   0  0  1  0  0  0
  -20.7416  -27.5243   23.2567 C   0  0  2  0  0  0
  -20.3666  -26.2569   22.5502 C   0  0  0  0  0  0
  -19.3302  -26.4069   21.4552 C   0  0  0  0  0  0
  -18.0289  -26.7379   22.1232 C   0  0  0  0  0  0
  -19.3917  -28.5446   23.3266 C   0  0  0  0  0  0
  -19.2574  -29.8355   23.9529 C   0  0  0  0  0  0
  -18.0081  -30.5233   24.0939 C   0  0  0  0  0  0
  -25.9210  -34.9452   23.4422 C   0  0  0  0  0  0
  -16.8081  -29.9584   23.6335 C   0  0  0  0  0  0
  -16.8789  -28.7091   23.0183 C   0  0  0  0  0  0
  -26.4441  -31.6793   24.9531 C   0  0  0  0  0  0
  -25.3671  -31.4666   26.0556 C   0  0  0  0  0  0
  -27.0715  -30.3126   24.6311 C   0  0  0  0  0  0
  -27.5819  -32.4746   25.6586 C   0  0  0  0  0  0
  -27.5524  -37.1709   24.8442 C   0  0  0  0  0  0
  -22.3535  -27.4473   23.0202 N   0  0  0  0  0  0
  -26.4163  -37.3702   23.9512 N   0  0  0  0  0  0
  -24.9132  -30.9135   21.5872 N   0  0  0  0  0  0
  -24.2483  -27.0650   23.0022 O   0  0  0  0  0  0
  -25.6364  -28.8701   22.7162 O   0  0  0  0  0  0
  -26.5958  -34.9390   22.4125 O   0  0  0  0  0  0
  -23.6848  -32.2945   23.0916 O   0  0  0  0  0  0
  -23.4924  -25.0074   20.6845 C   0  0  0  0  0  0
  -22.3927  -25.8138   18.7469 C   0  0  0  0  0  0
  -22.5595  -26.2898   20.0990 C   0  0  0  0  0  0
  -22.9902  -24.5991   18.1866 C   0  0  0  0  0  0
  -24.2256  -23.6202   20.0987 C   0  0  0  0  0  0
  -26.8145  -19.6116   19.2499 C   0  0  0  0  0  0
  -26.6845  -19.4815   21.3832 C   0  0  0  0  0  0
  -28.1206  -18.3237   19.2938 C   0  0  0  0  0  0
  -27.9155  -18.1319   21.3969 C   0  0  0  0  0  0
  -26.3754  -20.8816   20.3696 C   0  0  0  0  0  0
  -21.4821  -26.6068   17.8065 C   0  0  0  0  0  0
  -22.6615  -24.2002   16.7558 C   0  0  0  0  0  0
  -21.3092  -30.6192   21.0213 C   0  0  0  0  0  0
  -23.6900  -29.6229   23.3210 C   0  0  0  0  0  0
  -21.9071  -29.3704   21.7311 C   0  0  2  0  0  0
  -23.8263  -23.6749   18.8005 N   0  3  0  0  0  0
  -28.4836  -17.0633   20.2931 N   0  0  0  0  0  0
  -21.8257  -27.8582   20.4891 N   0  0  0  0  0  0
  -25.1073  -22.2252   20.5575 N   0  0  0  0  0  0
  -31.2303  -13.7055   19.2188 H   0  0  0  0  0  0
  -30.5769  -12.4899   20.2585 H   0  0  0  0  0  0
  -30.0537  -11.8789   17.8996 H   0  0  0  0  0  0
  -29.4363  -13.4776   17.5796 H   0  0  0  0  0  0
  -28.1541  -11.2778   19.2097 H   0  0  0  0  0  0
  -27.4461  -12.1789   17.8879 H   0  0  0  0  0  0
  -27.3468  -14.1742   19.1982 H   0  0  0  0  0  0
  -28.7858  -12.7060   21.4750 H   0  0  0  0  0  0
  -27.9254  -14.2250   21.6865 H   0  0  0  0  0  0
  -25.2656   -9.5712   22.4792 H   0  0  0  0  0  0
  -23.9978   -7.4588   22.7478 H   0  0  0  0  0  0
  -21.0754   -8.8663   19.8970 H   0  0  0  0  0  0
  -22.3523  -10.9618   19.6207 H   0  0  0  0  0  0
  -21.1978   -7.6135   23.9712 H   0  0  0  0  0  0
  -21.1468   -6.0525   25.9087 H   0  0  0  0  0  0
  -22.0606   -2.7592   23.2877 H   0  0  0  0  0  0
  -22.3792  -11.9813   22.4923 H   0  0  0  0  0  0
  -21.0801  -13.1218   22.2832 H   0  0  0  0  0  0
  -24.6073  -15.8462   20.5449 H   0  0  0  0  0  0
  -26.2136  -15.6320   20.0747 H   0  0  0  0  0  0
  -26.8793  -32.5724   23.0107 H   0  0  0  0  0  0
  -25.0117  -33.8724   24.8955 H   0  0  0  0  0  0
  -23.5985  -30.3813   21.0322 H   0  0  0  0  0  0
  -23.3781  -35.9472   23.3119 H   0  0  0  0  0  0
  -24.3527  -36.9232   22.2177 H   0  0  0  0  0  0
  -23.7133  -37.6223   23.7077 H   0  0  0  0  0  0
  -25.9501  -31.7906   20.0253 H   0  0  0  0  0  0
  -26.9963  -31.4011   21.3565 H   0  0  0  0  0  0
  -27.9493  -29.5085   21.5704 H   0  0  0  0  0  0
  -25.7989  -26.0940   20.8593 H   0  0  0  0  0  0
  -24.7866  -27.0130   18.7919 H   0  0  0  0  0  0
  -24.0052  -30.5187   19.1123 H   0  0  0  0  0  0
  -23.3754  -28.8783   19.0207 H   0  0  0  0  0  0
  -25.1416  -36.1246   25.0643 H   0  0  0  0  0  0
  -20.7852  -27.2684   24.3153 H   0  0  0  0  0  0
  -19.9507  -25.5774   23.2927 H   0  0  0  0  0  0
  -21.1988  -25.6733   22.1726 H   0  0  0  0  0  0
  -19.2212  -25.4640   20.9223 H   0  0  0  0  0  0
  -19.5390  -27.1608   20.7044 H   0  0  0  0  0  0
  -17.2335  -26.7847   21.3764 H   0  0  0  0  0  0
  -17.7387  -25.9559   22.8258 H   0  0  0  0  0  0
  -20.1395  -30.2827   24.3857 H   0  0  0  0  0  0
  -17.9887  -31.4738   24.6078 H   0  0  0  0  0  0
  -15.8653  -30.4779   23.7417 H   0  0  0  0  0  0
  -15.9680  -28.2505   22.6576 H   0  0  0  0  0  0
  -25.6641  -30.6842   26.7544 H   0  0  0  0  0  0
  -24.3911  -31.2029   25.6780 H   0  0  0  0  0  0
  -25.2167  -32.3651   26.6531 H   0  0  0  0  0  0
  -27.4856  -30.2714   23.6257 H   0  0  0  0  0  0
  -26.3523  -29.5100   24.7774 H   0  0  0  0  0  0
  -27.8936  -30.0633   25.3019 H   0  0  0  0  0  0
  -27.2537  -33.4503   26.0188 H   0  0  0  0  0  0
  -28.4179  -32.6493   24.9819 H   0  0  0  0  0  0
  -27.9757  -31.9492   26.5299 H   0  0  0  0  0  0
  -28.2341  -38.0175   24.7607 H   0  0  0  0  0  0
  -28.1187  -36.2686   24.6069 H   0  0  0  0  0  0
  -27.2307  -37.1133   25.8853 H   0  0  0  0  0  0
  -22.7058  -26.8528   23.7552 H   0  0  0  0  0  0
  -25.9918  -38.2654   24.1803 H   0  0  0  0  0  0
  -23.6975  -25.0566   21.7403 H   0  0  0  0  0  0
  -25.8865  -19.0869   19.0145 H   0  0  0  0  0  0
  -27.0245  -20.1567   18.3293 H   0  0  0  0  0  0
  -26.7556  -19.9005   22.3870 H   0  0  0  0  0  0
  -25.7273  -18.9585   21.4176 H   0  0  0  0  0  0
  -29.0658  -18.8652   19.2058 H   0  0  0  0  0  0
  -28.0309  -17.8315   18.3250 H   0  0  0  0  0  0
  -27.5674  -17.4714   22.1934 H   0  0  0  0  0  0
  -28.8212  -18.5722   21.8134 H   0  0  0  0  0  0
  -27.2812  -21.4803   20.4538 H   0  0  0  0  0  0
  -21.2846  -27.6318   18.1062 H   0  0  0  0  0  0
  -20.5219  -26.0957   17.7305 H   0  0  0  0  0  0
  -21.8940  -26.6773   16.8007 H   0  0  0  0  0  0
  -21.5818  -24.1656   16.6126 H   0  0  0  0  0  0
  -23.0456  -23.2135   16.4999 H   0  0  0  0  0  0
  -23.0804  -24.9102   16.0438 H   0  0  0  0  0  0
  -21.2950  -31.4808   21.6902 H   0  0  0  0  0  0
  -20.2769  -30.4153   20.7327 H   0  0  0  0  0  0
  -21.8183  -30.9108   20.1041 H   0  0  0  0  0  0
  -23.5245  -30.3701   24.0689 H   0  0  0  0  0  0
  -23.5350  -29.0246   24.2228 H   0  0  0  0  0  0
  -21.0991  -29.5077   22.3798 H   0  0  0  0  0  0
  -24.1201  -22.8815   18.2262 H   0  0  0  0  0  0
  -21.1714  -28.0914   19.7519 H   0  0  0  0  0  0
  -24.9771  -22.2174   21.5588 H   0  0  0  0  0  0
  1 25  1  0  0  0
  1 30  2  0  0  0
  1 87  1  0  0  0
  2  3  1  0  0  0
  2 25  1  0  0  0
  2 90  1  0  0  0
  2 91  1  0  0  0
  3  4  1  0  0  0
  3 92  1  0  0  0
  3 93  1  0  0  0
  4  5  1  0  0  0
  4 94  1  0  0  0
  4 95  1  0  0  0
  5  6  1  0  0  0
  5 26  1  0  0  0
  5 96  1  0  0  0
  6 25  1  0  0  0
  6 97  1  0  0  0
  6 98  1  0  0  0
  7  8  2  0  0  0
  7 26  1  0  0  0
  7 29  1  0  0  0
  8  9  1  0  0  0
  8 22  1  0  0  0
  9 10  1  0  0  0
  9 27  2  0  0  0
 10 11  2  0  0  0
 10 15  1  0  0  0
 11 12  1  0  0  0
 11 99  1  0  0  0
 12 13  2  0  0  0
 12100  1  0  0  0
 13 14  1  0  0  0
 13 31  1  0  0  0
 14 15  2  0  0  0
 14101  1  0  0  0
 15102  1  0  0  0
 16 17  2  0  0  0
 16 21  1  0  0  0
 16 31  1  0  0  0
 17 18  1  0  0  0
 17103  1  0  0  0
 18 19  2  0  0  0
 18104  1  0  0  0
 19 20  1  0  0  0
 19 24  1  0  0  0
 20 21  2  0  0  0
 20105  1  0  0  0
 21 23  1  0  0  0
 22 28  1  0  0  0
 22 32  2  0  0  0
 26 27  1  0  0  0
 28106  1  0  0  0
 28107  1  0  0  0
 29108  1  0  0  0
 29109  1  0  0  0
 33 34  1  0  0  0
 33 66  1  0  0  0
 33 70  2  0  0  0
 34 36  1  0  0  0
 34 59  1  0  0  0
 34110  1  0  0  0
 35 44  2  0  0  0
 35 45  1  0  0  0
 35 68  1  0  0  0
 36 56  1  0  0  0
 36111  1  0  0  0
 37 39  1  0  0  0
 37 47  1  0  0  0
 37 66  1  0  0  0
 37112  1  0  0  0
 38 43  2  0  0  0
 38 46  1  0  0  0
 38 47  1  0  0  0
 39 64  1  0  0  0
 39 67  2  0  0  0
 40 52  1  0  0  0
 40 53  2  0  0  0
 40 58  1  0  0  0
 41113  1  0  0  0
 41114  1  0  0  0
 41115  1  0  0  0
 41 48  1  0  0  0
 42 43  1  0  0  0
 42 66  1  0  0  0
 42116  1  0  0  0
 42117  1  0  0  0
 43 44  1  0  0  0
 44118  1  0  0  0
 45 46  2  0  0  0
 45119  1  0  0  0
 46120  1  0  0  0
 47121  1  0  0  0
 47122  1  0  0  0
 48 56  1  0  0  0
 48 65  1  0  0  0
 48123  1  0  0  0
 49 50  1  0  0  0
 49 53  1  0  0  0
 49 64  1  0  0  0
 49124  1  0  0  0
 50 51  1  0  0  0
 50125  1  0  0  0
 50126  1  0  0  0
 51 52  1  0  0  0
 51127  1  0  0  0
 51128  1  0  0  0
 52129  1  0  0  0
 52130  1  0  0  0
 53 54  1  0  0  0
 54 55  2  0  0  0
 54131  1  0  0  0
 55 57  1  0  0  0
 55132  1  0  0  0
 56 69  2  0  0  0
 57 58  2  0  0  0
 57133  1  0  0  0
 58134  1  0  0  0
 59 60  1  0  0  0
 59 61  1  0  0  0
 59 62  1  0  0  0
 60135  1  0  0  0
 60136  1  0  0  0
 60137  1  0  0  0
 61138  1  0  0  0
 61139  1  0  0  0
 61140  1  0  0  0
 62141  1  0  0  0
 62142  1  0  0  0
 62143  1  0  0  0
 63 65  1  0  0  0
 63144  1  0  0  0
 63145  1  0  0  0
 63146  1  0  0  0
 64147  1  0  0  0
 65148  1  0  0  0
 68 84  1  0  0  0
 71 73  2  0  0  0
 71 75  1  0  0  0
 71149  1  0  0  0
 72 73  1  0  0  0
 72 74  2  0  0  0
 72 81  1  0  0  0
 73 88  1  0  0  0
 74 82  1  0  0  0
 74 86  1  0  0  0
 75 86  2  0  0  0
 75 89  1  0  0  0
 76 78  1  0  0  0
 76 80  1  0  0  0
 76150  1  0  0  0
 76151  1  0  0  0
 77 79  1  0  0  0
 77 80  1  0  0  0
 77152  1  0  0  0
 77153  1  0  0  0
 78 87  1  0  0  0
 78154  1  0  0  0
 78155  1  0  0  0
 79 87  1  0  0  0
 79156  1  0  0  0
 79157  1  0  0  0
 80 89  1  0  0  0
 80158  1  0  0  0
 81159  1  0  0  0
 81160  1  0  0  0
 81161  1  0  0  0
 82162  1  0  0  0
 82163  1  0  0  0
 82164  1  0  0  0
 83165  1  0  0  0
 83166  1  0  0  0
 83167  1  0  0  0
 83 85  1  0  0  0
 84 85  1  0  0  0
 84168  1  0  0  0
 84169  1  0  0  0
 85 88  1  0  0  0
 85170  1  0  0  0
 86171  1  0  0  0
 88172  1  0  0  0
 89173  1  0  0  0
M  CHG  1  86   1
M  ISO  4   1 100  68 101  84 101  87 100
M  END
> <chiral flag>
0

> <version>
0

> <s_m_source_file>
/data/baiqing/PycharmProjects/Reinvent-master-3.2/result/LINK_invent/BTK/process_docking_weight1_custom_sum_contain_oxygen_bond_distance_aromatic_linkinvent_7_9_3/rearranged_h_0172.sdf

> <i_m_source_file_index>
31

> <r_mmod_Potential_Energy-OPLS-2005>
14819.361328125

> <r_mmod_Stretch_Energy-OPLS-2005>
4942.48779296875

> <r_mmod_Bend_Energy-OPLS-2005>
2210.20922851562

> <r_mmod_Torsional_Energy-OPLS-2005>
776.134094238281

> <r_mmod_Improper_Torsional_Energy-OPLS-2005>
104.512168884277

> <r_mmod_Van_der_Waal_Energy-OPLS-2005>
1929.11682128906

> <r_mmod_Electrostatic_Energy-OPLS-2005>
-232.947235107422

> <r_mmod_Solvation_Energy-OPLS-2005>
-374.511077880859

> <b_mmod_Minimization_Converged-OPLS-2005>
0

> <r_mmod_RMS_Derivative-OPLS-2005>
6.84871244430542

$$$$
31
                    3D
 Structure written by MMmdl.
175184  0  0  1  0            999 V2000
  -30.7043  -14.5324   20.4780 C   0  0  0  0  0  0
  -30.4217  -12.3209   19.4348 C   0  0  0  0  0  0
  -29.4966  -12.4615   18.2078 C   0  0  0  0  0  0
  -28.0150  -12.3409   18.6231 C   0  0  0  0  0  0
  -27.6508  -13.2079   19.8597 C   0  0  2  0  0  0
  -28.7041  -13.0753   20.9834 C   0  0  0  0  0  0
  -25.2561  -13.8128   20.5723 C   0  0  0  0  0  0
  -24.1808  -13.0429   20.9221 C   0  0  0  0  0  0
  -24.6357  -11.6894   20.8746 C   0  0  0  0  0  0
  -23.9017  -10.4295   21.0387 C   0  0  0  0  0  0
  -24.3588   -9.4220   21.9156 C   0  0  0  0  0  0
  -23.6281   -8.2236   22.0717 C   0  0  0  0  0  0
  -22.4272   -8.0256   21.3503 C   0  0  0  0  0  0
  -21.9898   -9.0234   20.4614 C   0  0  0  0  0  0
  -22.7208  -10.2124   20.3031 C   0  0  0  0  0  0
  -21.6840   -6.0724   22.5266 C   0  0  0  0  0  0
  -21.4008   -6.5618   23.8201 C   0  0  0  0  0  0
  -21.3667   -5.6766   24.9160 C   0  0  0  0  0  0
  -21.6051   -4.3025   24.7210 C   0  0  0  0  0  0
  -21.8825   -3.8118   23.4322 C   0  0  0  0  0  0
  -21.9194   -4.6950   22.3389 C   0  0  0  0  0  0
  -22.7827  -13.5248   21.1846 C   0  0  0  0  0  0
  -22.1667   -4.2138   21.0959 F   0  0  0  0  0  0
  -21.5644   -3.4524   25.7733 F   0  0  0  0  0  0
  -30.0222  -13.3565   20.3992 N   0  0  0  0  0  0
  -26.2982  -12.9294   20.3353 N   0  0  0  0  0  0
  -25.9283  -11.6472   20.5777 N   0  0  0  0  0  0
  -22.0432  -12.8266   22.0398 N   0  0  0  0  0  0
  -25.4289  -15.1836   20.4114 N   0  0  0  0  0  0
  -31.8995  -14.6312   20.1875 O   0  0  0  0  0  0
  -21.6606   -6.8877   21.4225 O   0  0  0  0  0  0
  -22.3559  -14.5569   20.6697 O   0  0  0  0  0  0
  -24.6211  -31.8663   23.2098 C   0  0  0  0  0  0
  -25.9083  -32.4814   23.8402 C   0  0  1  0  0  0
  -27.2301  -27.4007   20.0884 C   0  0  0  0  0  0
  -25.5926  -33.8612   24.2333 N   0  0  0  0  0  0
  -23.4103  -30.4942   21.5501 C   0  0  2  0  0  0
  -24.8548  -28.9626   20.1152 C   0  0  0  0  0  0
  -22.7438  -29.4680   22.4950 C   0  0  0  0  0  0
  -18.0275  -28.1396   22.8480 C   0  0  0  0  0  0
  -24.1487  -36.7315   23.2636 C   0  0  0  0  0  0
  -25.9455  -30.8234   21.3681 C   0  0  0  0  0  0
  -26.0218  -29.4583   20.7084 C   0  0  0  0  0  0
  -27.2143  -28.6905   20.6845 C   0  0  0  0  0  0
  -26.0362  -26.9428   19.4758 C   0  0  0  0  0  0
  -24.8600  -27.7075   19.4929 C   0  0  0  0  0  0
  -23.6202  -29.8318   20.1651 C   0  0  0  0  0  0
  -25.4103  -36.3106   24.0338 C   0  0  1  0  0  0
  -20.5880  -28.3694   23.1286 C   0  0  2  0  0  0
  -20.6762  -26.9423   22.5397 C   0  0  0  0  0  0
  -19.5744  -26.6394   21.5198 C   0  0  0  0  0  0
  -18.1927  -26.7944   22.1613 C   0  0  0  0  0  0
  -19.1532  -28.8856   23.2887 C   0  0  0  0  0  0
  -18.9454  -30.1454   23.8905 C   0  0  0  0  0  0
  -17.6457  -30.6593   24.0564 C   0  0  0  0  0  0
  -25.9035  -34.9475   23.5119 C   0  0  0  0  0  0
  -16.5347  -29.9092   23.6331 C   0  0  0  0  0  0
  -16.7265  -28.6514   23.0345 C   0  0  0  0  0  0
  -26.4491  -31.6604   25.0746 C   0  0  0  0  0  0
  -25.3747  -31.3724   26.1490 C   0  0  0  0  0  0
  -27.0313  -30.3033   24.6155 C   0  0  0  0  0  0
  -27.6081  -32.4318   25.7497 C   0  0  0  0  0  0
  -27.5584  -37.1805   24.8461 C   0  0  0  0  0  0
  -21.4170  -29.3067   22.3698 N   0  0  0  0  0  0
  -26.4286  -37.3793   23.9420 N   0  0  0  0  0  0
  -24.6778  -31.0745   22.1007 N   0  0  0  0  0  0
  -23.4194  -28.8192   23.2992 O   0  0  0  0  0  0
  -28.3776  -26.6160   20.1084 O   0  0  0  0  0  0
  -26.5584  -34.8925   22.4680 O   0  0  0  0  0  0
  -23.5391  -32.1420   23.7465 O   0  0  0  0  0  0
  -30.2688  -16.7057   21.5547 C   0  0  0  0  0  0
  -29.6089  -16.2533   19.2350 C   0  0  0  0  0  0
  -30.1846  -18.1852   21.0449 C   0  0  0  0  0  0
  -28.5656  -17.3881   19.3238 C   0  0  0  0  0  0
  -30.1081  -21.9690   19.4403 C   0  0  0  0  0  0
  -28.5882  -22.1036   21.3106 C   0  0  0  0  0  0
  -29.5124  -20.6435   18.8887 C   0  0  2  0  0  0
  -27.8652  -20.7691   20.9628 C   0  0  1  0  0  0
  -28.5711  -19.8647   19.8869 C   0  0  2  0  0  0
  -30.6015  -19.8413   18.1449 C   0  0  0  0  0  0
  -27.4221  -20.0160   22.2364 C   0  0  0  0  0  0
  -30.3561  -24.5534   21.4462 C   0  0  0  0  0  0
  -28.1617  -25.1836   20.2275 C   0  0  0  0  0  0
  -29.4303  -24.2745   20.2441 C   0  0  2  0  0  0
  -29.9491  -15.6648   20.5439 N   0  0  0  0  0  0
  -28.9108  -18.4508   20.3176 N   0  3  0  0  0  0
  -29.0707  -22.8103   20.0938 N   0  3  1  0  0  0
  -31.4677  -12.4077   19.1334 H   0  0  0  0  0  0
  -30.3173  -11.3323   19.8829 H   0  0  0  0  0  0
  -29.7414  -11.6898   17.4764 H   0  0  0  0  0  0
  -29.6703  -13.4155   17.7101 H   0  0  0  0  0  0
  -27.8290  -11.2890   18.8448 H   0  0  0  0  0  0
  -27.3642  -12.5929   17.7851 H   0  0  0  0  0  0
  -27.6596  -14.2413   19.5214 H   0  0  0  0  0  0
  -28.6959  -12.0707   21.4117 H   0  0  0  0  0  0
  -28.4762  -13.7614   21.8000 H   0  0  0  0  0  0
  -25.2724   -9.5722   22.4727 H   0  0  0  0  0  0
  -23.9997   -7.4655   22.7459 H   0  0  0  0  0  0
  -21.0817   -8.8740   19.8962 H   0  0  0  0  0  0
  -22.3636  -10.9644   19.6135 H   0  0  0  0  0  0
  -21.1976   -7.6127   23.9709 H   0  0  0  0  0  0
  -21.1489   -6.0475   25.9073 H   0  0  0  0  0  0
  -22.0601   -2.7584   23.2792 H   0  0  0  0  0  0
  -22.4040  -11.9942   22.4836 H   0  0  0  0  0  0
  -21.1041  -13.1299   22.2553 H   0  0  0  0  0  0
  -24.6560  -15.8339   20.5028 H   0  0  0  0  0  0
  -26.2759  -15.6099   20.0662 H   0  0  0  0  0  0
  -26.7156  -32.5511   23.1166 H   0  0  0  0  0  0
  -25.0112  -33.9766   25.0502 H   0  0  0  0  0  0
  -22.7017  -31.3139   21.4102 H   0  0  0  0  0  0
  -23.3752  -35.9645   23.3285 H   0  0  0  0  0  0
  -24.3586  -36.8941   22.2055 H   0  0  0  0  0  0
  -23.7226  -37.6513   23.6650 H   0  0  0  0  0  0
  -26.0631  -31.5901   20.6012 H   0  0  0  0  0  0
  -26.8328  -30.8716   21.9883 H   0  0  0  0  0  0
  -28.1160  -29.0753   21.1421 H   0  0  0  0  0  0
  -25.9700  -26.0007   18.9570 H   0  0  0  0  0  0
  -23.9668  -27.3241   19.0204 H   0  0  0  0  0  0
  -23.7336  -30.6076   19.4068 H   0  0  0  0  0  0
  -22.7440  -29.2533   19.8662 H   0  0  0  0  0  0
  -25.1275  -36.1968   25.0827 H   0  0  0  0  0  0
  -20.9970  -28.3257   24.1409 H   0  0  0  0  0  0
  -20.5658  -26.2309   23.3594 H   0  0  0  0  0  0
  -21.6632  -26.7449   22.1199 H   0  0  0  0  0  0
  -19.6902  -25.6296   21.1248 H   0  0  0  0  0  0
  -19.6698  -27.3190   20.6717 H   0  0  0  0  0  0
  -17.4201  -26.6690   21.4013 H   0  0  0  0  0  0
  -18.0337  -26.0083   22.9009 H   0  0  0  0  0  0
  -19.7929  -30.7266   24.2287 H   0  0  0  0  0  0
  -17.5012  -31.6278   24.5163 H   0  0  0  0  0  0
  -15.5346  -30.2995   23.7650 H   0  0  0  0  0  0
  -15.8668  -28.0832   22.7048 H   0  0  0  0  0  0
  -24.5924  -30.7063   25.7832 H   0  0  0  0  0  0
  -24.8926  -32.2876   26.4935 H   0  0  0  0  0  0
  -25.8093  -30.8902   27.0254 H   0  0  0  0  0  0
  -26.2855  -29.6799   24.1206 H   0  0  0  0  0  0
  -27.4048  -29.7280   25.4637 H   0  0  0  0  0  0
  -27.8719  -30.4330   23.9333 H   0  0  0  0  0  0
  -27.2723  -33.3622   26.2087 H   0  0  0  0  0  0
  -28.3879  -32.6867   25.0307 H   0  0  0  0  0  0
  -28.0766  -31.8430   26.5392 H   0  0  0  0  0  0
  -28.2591  -38.0115   24.7522 H   0  0  0  0  0  0
  -28.1086  -36.2642   24.6256 H   0  0  0  0  0  0
  -27.2307  -37.1425   25.8866 H   0  0  0  0  0  0
  -20.9332  -29.8811   21.6937 H   0  0  0  0  0  0
  -26.0179  -38.2873   24.1426 H   0  0  0  0  0  0
  -29.5684  -16.5730   22.3816 H   0  0  0  0  0  0
  -31.2602  -16.5397   21.9826 H   0  0  0  0  0  0
  -30.5189  -16.6318   18.7624 H   0  0  0  0  0  0
  -29.2375  -15.4934   18.5506 H   0  0  0  0  0  0
  -31.0383  -18.3731   20.3975 H   0  0  0  0  0  0
  -30.2911  -18.8766   21.8811 H   0  0  0  0  0  0
  -27.6002  -16.9719   19.6126 H   0  0  0  0  0  0
  -28.4123  -17.7936   18.3217 H   0  0  0  0  0  0
  -30.5602  -22.5175   18.6133 H   0  0  0  0  0  0
  -30.9145  -21.7630   20.1454 H   0  0  0  0  0  0
  -29.4266  -21.9124   21.9835 H   0  0  0  0  0  0
  -27.9002  -22.7466   21.8610 H   0  0  0  0  0  0
  -28.8401  -20.9699   18.0926 H   0  0  0  0  0  0
  -26.9304  -21.0881   20.4953 H   0  0  0  0  0  0
  -27.7115  -19.6500   19.2478 H   0  0  0  0  0  0
  -31.4939  -19.6975   18.7509 H   0  0  0  0  0  0
  -30.9234  -20.3839   17.2547 H   0  0  0  0  0  0
  -30.2621  -18.8699   17.7966 H   0  0  0  0  0  0
  -28.2662  -19.7351   22.8678 H   0  0  0  0  0  0
  -26.8524  -19.1152   22.0053 H   0  0  0  0  0  0
  -26.7715  -20.6436   22.8459 H   0  0  0  0  0  0
  -30.6557  -25.6024   21.4640 H   0  0  0  0  0  0
  -31.2703  -23.9616   21.3937 H   0  0  0  0  0  0
  -29.8736  -24.3398   22.3995 H   0  0  0  0  0  0
  -27.5660  -25.0023   21.1234 H   0  0  0  0  0  0
  -27.5814  -24.8286   19.3792 H   0  0  0  0  0  0
  -29.9809  -24.5553   19.3452 H   0  0  0  0  0  0
  -28.2203  -18.2883   21.0371 H   0  0  0  0  0  0
  -28.2955  -22.8217   19.4450 H   0  0  0  0  0  0
  1 25  1  0  0  0
  1 30  2  0  0  0
  1 85  1  0  0  0
  2  3  1  0  0  0
  2 25  1  0  0  0
  2 88  1  0  0  0
  2 89  1  0  0  0
  3  4  1  0  0  0
  3 90  1  0  0  0
  3 91  1  0  0  0
  4  5  1  0  0  0
  4 92  1  0  0  0
  4 93  1  0  0  0
  5  6  1  0  0  0
  5 26  1  0  0  0
  5 94  1  0  0  0
  6 25  1  0  0  0
  6 95  1  0  0  0
  6 96  1  0  0  0
  7  8  2  0  0  0
  7 26  1  0  0  0
  7 29  1  0  0  0
  8  9  1  0  0  0
  8 22  1  0  0  0
  9 10  1  0  0  0
  9 27  2  0  0  0
 10 11  2  0  0  0
 10 15  1  0  0  0
 11 12  1  0  0  0
 11 97  1  0  0  0
 12 13  2  0  0  0
 12 98  1  0  0  0
 13 14  1  0  0  0
 13 31  1  0  0  0
 14 15  2  0  0  0
 14 99  1  0  0  0
 15100  1  0  0  0
 16 17  2  0  0  0
 16 21  1  0  0  0
 16 31  1  0  0  0
 17 18  1  0  0  0
 17101  1  0  0  0
 18 19  2  0  0  0
 18102  1  0  0  0
 19 20  1  0  0  0
 19 24  1  0  0  0
 20 21  2  0  0  0
 20103  1  0  0  0
 21 23  1  0  0  0
 22 28  1  0  0  0
 22 32  2  0  0  0
 26 27  1  0  0  0
 28104  1  0  0  0
 28105  1  0  0  0
 29106  1  0  0  0
 29107  1  0  0  0
 33 34  1  0  0  0
 33 66  1  0  0  0
 33 70  2  0  0  0
 34 36  1  0  0  0
 34 59  1  0  0  0
 34108  1  0  0  0
 35 44  2  0  0  0
 35 45  1  0  0  0
 35 68  1  0  0  0
 36 56  1  0  0  0
 36109  1  0  0  0
 37 39  1  0  0  0
 37 47  1  0  0  0
 37 66  1  0  0  0
 37110  1  0  0  0
 38 43  2  0  0  0
 38 46  1  0  0  0
 38 47  1  0  0  0
 39 64  1  0  0  0
 39 67  2  0  0  0
 40 52  1  0  0  0
 40 53  2  0  0  0
 40 58  1  0  0  0
 41111  1  0  0  0
 41112  1  0  0  0
 41113  1  0  0  0
 41 48  1  0  0  0
 42 43  1  0  0  0
 42 66  1  0  0  0
 42114  1  0  0  0
 42115  1  0  0  0
 43 44  1  0  0  0
 44116  1  0  0  0
 45 46  2  0  0  0
 45117  1  0  0  0
 46118  1  0  0  0
 47119  1  0  0  0
 47120  1  0  0  0
 48 56  1  0  0  0
 48 65  1  0  0  0
 48121  1  0  0  0
 49 50  1  0  0  0
 49 53  1  0  0  0
 49 64  1  0  0  0
 49122  1  0  0  0
 50 51  1  0  0  0
 50123  1  0  0  0
 50124  1  0  0  0
 51 52  1  0  0  0
 51125  1  0  0  0
 51126  1  0  0  0
 52127  1  0  0  0
 52128  1  0  0  0
 53 54  1  0  0  0
 54 55  2  0  0  0
 54129  1  0  0  0
 55 57  1  0  0  0
 55130  1  0  0  0
 56 69  2  0  0  0
 57 58  2  0  0  0
 57131  1  0  0  0
 58132  1  0  0  0
 59 60  1  0  0  0
 59 61  1  0  0  0
 59 62  1  0  0  0
 60133  1  0  0  0
 60134  1  0  0  0
 60135  1  0  0  0
 61136  1  0  0  0
 61137  1  0  0  0
 61138  1  0  0  0
 62139  1  0  0  0
 62140  1  0  0  0
 62141  1  0  0  0
 63 65  1  0  0  0
 63142  1  0  0  0
 63143  1  0  0  0
 63144  1  0  0  0
 64145  1  0  0  0
 65146  1  0  0  0
 68 83  1  0  0  0
 71 73  1  0  0  0
 71 85  1  0  0  0
 71147  1  0  0  0
 71148  1  0  0  0
 72 74  1  0  0  0
 72 85  1  0  0  0
 72149  1  0  0  0
 72150  1  0  0  0
 73151  1  0  0  0
 73152  1  0  0  0
 73 86  1  0  0  0
 74 86  1  0  0  0
 74153  1  0  0  0
 74154  1  0  0  0
 75 77  1  0  0  0
 75155  1  0  0  0
 75156  1  0  0  0
 75 87  1  0  0  0
 76 78  1  0  0  0
 76 87  1  0  0  0
 76157  1  0  0  0
 76158  1  0  0  0
 77 79  1  0  0  0
 77 80  1  0  0  0
 77159  1  0  0  0
 78 79  1  0  0  0
 78 81  1  0  0  0
 78160  1  0  0  0
 79 86  1  0  0  0
 79161  1  0  0  0
 80162  1  0  0  0
 80163  1  0  0  0
 80164  1  0  0  0
 81165  1  0  0  0
 81166  1  0  0  0
 81167  1  0  0  0
 82168  1  0  0  0
 82169  1  0  0  0
 82170  1  0  0  0
 82 84  1  0  0  0
 83 84  1  0  0  0
 83171  1  0  0  0
 83172  1  0  0  0
 84 87  1  0  0  0
 84173  1  0  0  0
 86174  1  0  0  0
 87175  1  0  0  0
M  CHG  2  86   1  87   1
M  ISO  4   1 100  68 101  83 101  85 100
M  END
> <chiral flag>
0

> <version>
0

> <s_m_source_file>
/data/baiqing/PycharmProjects/Reinvent-master-3.2/result/LINK_invent/BTK/process_docking_weight1_custom_sum_contain_oxygen_bond_distance_aromatic_linkinvent_7_9_3/rearranged_h_0172.sdf

> <i_m_source_file_index>
32

> <r_mmod_Potential_Energy-OPLS-2005>
214.988296508789

> <r_mmod_Stretch_Energy-OPLS-2005>
57.157341003418

> <r_mmod_Bend_Energy-OPLS-2005>
168.818023681641

> <r_mmod_Torsional_Energy-OPLS-2005>
501.937622070312

> <r_mmod_Improper_Torsional_Energy-OPLS-2005>
12.6998701095581

> <r_mmod_Van_der_Waal_Energy-OPLS-2005>
146.648620605469

> <r_mmod_Electrostatic_Energy-OPLS-2005>
216.30403137207

> <r_mmod_Solvation_Energy-OPLS-2005>
-916.159484863281

> <b_mmod_Minimization_Converged-OPLS-2005>
0

> <r_mmod_RMS_Derivative-OPLS-2005>
3.20505857467651

$$$$
32
                    3D
 Structure written by MMmdl.
160171  0  0  1  0            999 V2000
  -30.5330  -14.8741   20.5252 C   0  0  0  0  0  0
  -30.4562  -12.5588   19.4727 C   0  0  0  0  0  0
  -29.5205  -12.5457   18.2396 C   0  0  0  0  0  0
  -28.0496  -12.3350   18.6523 C   0  0  0  0  0  0
  -27.6423  -13.2304   19.8497 C   0  0  2  0  0  0
  -28.6851  -13.1492   20.9795 C   0  0  0  0  0  0
  -25.2526  -13.8178   20.5691 C   0  0  0  0  0  0
  -24.1807  -13.0429   20.9187 C   0  0  0  0  0  0
  -24.6397  -11.6904   20.8725 C   0  0  0  0  0  0
  -23.9069  -10.4286   21.0397 C   0  0  0  0  0  0
  -24.3620   -9.4204   21.9178 C   0  0  0  0  0  0
  -23.6293   -8.2241   22.0752 C   0  0  0  0  0  0
  -22.4274   -8.0278   21.3543 C   0  0  0  0  0  0
  -21.9910   -9.0250   20.4644 C   0  0  0  0  0  0
  -22.7240  -10.2128   20.3048 C   0  0  0  0  0  0
  -21.6853   -6.0733   22.5277 C   0  0  0  0  0  0
  -21.4015   -6.5636   23.8210 C   0  0  0  0  0  0
  -21.3660   -5.6789   24.9172 C   0  0  0  0  0  0
  -21.6045   -4.3053   24.7223 C   0  0  0  0  0  0
  -21.8819   -3.8144   23.4344 C   0  0  0  0  0  0
  -21.9194   -4.6961   22.3400 C   0  0  0  0  0  0
  -22.7833  -13.5215   21.1863 C   0  0  0  0  0  0
  -22.1661   -4.2145   21.0979 F   0  0  0  0  0  0
  -21.5630   -3.4537   25.7737 F   0  0  0  0  0  0
  -29.9702  -13.6020   20.4171 N   0  0  0  0  0  0
  -26.2940  -12.9375   20.3251 N   0  0  0  0  0  0
  -25.9325  -11.6519   20.5712 N   0  0  0  0  0  0
  -22.0484  -12.8202   22.0424 N   0  0  0  0  0  0
  -25.4249  -15.1904   20.4161 N   0  0  0  0  0  0
  -31.6724  -15.0484   20.0762 O   0  0  0  0  0  0
  -21.6638   -6.8875   21.4238 O   0  0  0  0  0  0
  -22.3510  -14.5521   20.6717 O   0  0  0  0  0  0
  -24.6399  -31.8469   23.1890 C   0  0  0  0  0  0
  -25.9182  -32.4713   23.8276 C   0  0  1  0  0  0
  -27.2241  -27.1743   20.1443 C   0  0  0  0  0  0
  -25.5942  -33.8516   24.2201 N   0  0  0  0  0  0
  -23.4416  -30.4659   21.5347 C   0  0  2  0  0  0
  -24.8910  -28.8941   20.1132 C   0  0  0  0  0  0
  -22.7549  -29.4560   22.4875 C   0  0  0  0  0  0
  -18.0302  -28.1395   22.8480 C   0  0  0  0  0  0
  -24.1488  -36.7260   23.2644 C   0  0  0  0  0  0
  -25.9944  -30.7336   21.3801 C   0  0  0  0  0  0
  -26.0678  -29.3470   20.7230 C   0  0  0  0  0  0
  -27.2373  -28.5043   20.7172 C   0  0  0  0  0  0
  -26.0185  -26.8060   19.5104 C   0  0  0  0  0  0
  -24.8766  -27.6352   19.4925 C   0  0  0  0  0  0
  -23.6657  -29.7923   20.1548 C   0  0  0  0  0  0
  -25.4119  -36.3044   24.0323 C   0  0  1  0  0  0
  -20.5912  -28.3715   23.1249 C   0  0  2  0  0  0
  -20.6786  -26.9423   22.5405 C   0  0  0  0  0  0
  -19.5760  -26.6382   21.5213 C   0  0  0  0  0  0
  -18.1940  -26.7936   22.1623 C   0  0  0  0  0  0
  -19.1558  -28.8873   23.2858 C   0  0  0  0  0  0
  -18.9477  -30.1470   23.8882 C   0  0  0  0  0  0
  -17.6475  -30.6593   24.0561 C   0  0  0  0  0  0
  -25.9067  -34.9419   23.5069 C   0  0  0  0  0  0
  -16.5365  -29.9087   23.6340 C   0  0  0  0  0  0
  -16.7288  -28.6505   23.0360 C   0  0  0  0  0  0
  -26.4519  -31.6571   25.0706 C   0  0  0  0  0  0
  -25.3715  -31.3746   26.1408 C   0  0  0  0  0  0
  -27.0381  -30.2978   24.6252 C   0  0  0  0  0  0
  -27.6054  -32.4335   25.7490 C   0  0  0  0  0  0
  -27.5575  -37.1786   24.8469 C   0  0  0  0  0  0
  -21.4245  -29.3047   22.3626 N   0  0  0  0  0  0
  -26.4286  -37.3753   23.9412 N   0  0  0  0  0  0
  -24.7118  -31.0357   22.0902 N   0  0  0  0  0  0
  -23.4208  -28.8111   23.3015 O   0  0  0  0  0  0
  -28.3021  -26.2295   20.1806 O   0  0  0  0  0  0
  -26.5651  -34.8913   22.4647 O   0  0  0  0  0  0
  -23.5527  -32.1323   23.7135 O   0  0  0  0  0  0
  -30.2314  -20.0413   21.3288 C   0  0  0  0  0  0
  -29.5895  -18.9417   20.6610 C   0  0  0  0  0  0
  -29.0520  -21.8078   20.1793 C   0  0  0  0  0  0
  -28.4054  -20.7026   19.4894 C   0  0  0  0  0  0
  -25.9463  -21.1769   18.7205 C   0  0  0  0  0  0
  -26.3395  -19.8970   18.0399 C   0  0  0  0  0  0
  -30.2814  -17.2000   22.6465 C   0  0  0  0  0  0
  -27.9525  -24.0626   18.9602 C   0  0  0  0  0  0
  -29.7090  -15.7908   22.5552 C   0  0  0  0  0  0
  -28.9891  -23.4319   19.8715 C   0  0  1  0  0  0
  -27.4047  -20.9254   18.3881 C   0  0  0  0  0  0
  -29.5175  -17.4660   21.3694 C   0  0  2  0  0  0
  -28.0458  -24.7105   20.3202 C   0  0  1  0  0  0
  -29.9817  -21.3905   21.1017 N   0  0  0  0  0  0
  -28.6609  -19.3461   19.7330 N   0  0  0  0  0  0
  -29.7423  -15.9138   21.0730 N   0  0  0  0  0  0
  -31.4837  -12.7462   19.1565 H   0  0  0  0  0  0
  -30.4711  -11.5812   19.9574 H   0  0  0  0  0  0
  -29.8277  -11.7678   17.5394 H   0  0  0  0  0  0
  -29.6146  -13.4916   17.7043 H   0  0  0  0  0  0
  -27.9280  -11.2852   18.9220 H   0  0  0  0  0  0
  -27.3874  -12.5100   17.8035 H   0  0  0  0  0  0
  -27.6372  -14.2559   19.4790 H   0  0  0  0  0  0
  -28.7654  -12.1292   21.3579 H   0  0  0  0  0  0
  -28.3590  -13.7457   21.8273 H   0  0  0  0  0  0
  -25.2766   -9.5680   22.4752 H   0  0  0  0  0  0
  -24.0000   -7.4633   22.7473 H   0  0  0  0  0  0
  -21.0841   -8.8767   19.8953 H   0  0  0  0  0  0
  -22.3696  -10.9665   19.6156 H   0  0  0  0  0  0
  -21.2007   -7.6144   23.9711 H   0  0  0  0  0  0
  -21.1483   -6.0521   25.9075 H   0  0  0  0  0  0
  -22.0599   -2.7604   23.2844 H   0  0  0  0  0  0
  -22.4106  -11.9859   22.4801 H   0  0  0  0  0  0
  -21.1102  -13.1223   22.2640 H   0  0  0  0  0  0
  -24.6645  -15.8506   20.5363 H   0  0  0  0  0  0
  -26.2879  -15.6289   20.1195 H   0  0  0  0  0  0
  -26.7248  -32.5337   23.1008 H   0  0  0  0  0  0
  -25.0086  -33.9634   25.0348 H   0  0  0  0  0  0
  -22.7427  -31.2905   21.3802 H   0  0  0  0  0  0
  -23.3759  -35.9582   23.3298 H   0  0  0  0  0  0
  -24.3575  -36.8894   22.2059 H   0  0  0  0  0  0
  -23.7229  -37.6450   23.6682 H   0  0  0  0  0  0
  -26.1429  -31.4897   20.6079 H   0  0  0  0  0  0
  -26.8675  -30.7851   22.0190 H   0  0  0  0  0  0
  -28.1387  -28.8503   21.2035 H   0  0  0  0  0  0
  -25.9367  -25.8418   19.0322 H   0  0  0  0  0  0
  -23.9766  -27.2816   19.0086 H   0  0  0  0  0  0
  -23.7985  -30.5647   19.3966 H   0  0  0  0  0  0
  -22.7818  -29.2306   19.8472 H   0  0  0  0  0  0
  -25.1305  -36.1878   25.0814 H   0  0  0  0  0  0
  -21.0007  -28.3298   24.1369 H   0  0  0  0  0  0
  -20.5683  -26.2328   23.3617 H   0  0  0  0  0  0
  -21.6652  -26.7433   22.1199 H   0  0  0  0  0  0
  -19.6921  -25.6287   21.1254 H   0  0  0  0  0  0
  -19.6699  -27.3183   20.6734 H   0  0  0  0  0  0
  -17.4210  -26.6688   21.4024 H   0  0  0  0  0  0
  -18.0337  -26.0079   22.9020 H   0  0  0  0  0  0
  -19.7953  -30.7291   24.2241 H   0  0  0  0  0  0
  -17.5029  -31.6274   24.5161 H   0  0  0  0  0  0
  -15.5365  -30.2984   23.7671 H   0  0  0  0  0  0
  -15.8687  -28.0817   22.7088 H   0  0  0  0  0  0
  -24.5902  -30.7086   25.7728 H   0  0  0  0  0  0
  -24.8897  -32.2922   26.4792 H   0  0  0  0  0  0
  -25.8007  -30.8948   27.0212 H   0  0  0  0  0  0
  -26.2986  -29.6706   24.1260 H   0  0  0  0  0  0
  -27.4020  -29.7268   25.4804 H   0  0  0  0  0  0
  -27.8880  -30.4234   23.9541 H   0  0  0  0  0  0
  -27.2653  -33.3660   26.2006 H   0  0  0  0  0  0
  -28.3895  -32.6852   25.0337 H   0  0  0  0  0  0
  -28.0687  -31.8500   26.5454 H   0  0  0  0  0  0
  -28.2588  -38.0087   24.7516 H   0  0  0  0  0  0
  -28.1075  -36.2616   24.6296 H   0  0  0  0  0  0
  -27.2296  -37.1434   25.8873 H   0  0  0  0  0  0
  -20.9449  -29.8764   21.6811 H   0  0  0  0  0  0
  -26.0158  -38.2824   24.1412 H   0  0  0  0  0  0
  -30.9007  -19.8418   22.1528 H   0  0  0  0  0  0
  -25.6476  -21.1172   19.7652 H   0  0  0  0  0  0
  -25.3975  -21.8974   18.1172 H   0  0  0  0  0  0
  -26.0598  -19.7937   16.9935 H   0  0  0  0  0  0
  -26.2701  -18.9853   18.6305 H   0  0  0  0  0  0
  -31.3649  -17.2538   22.5230 H   0  0  0  0  0  0
  -29.9426  -17.7723   23.5107 H   0  0  0  0  0  0
  -27.0063  -23.5671   18.7804 H   0  0  0  0  0  0
  -28.3355  -24.6178   18.1069 H   0  0  0  0  0  0
  -28.7039  -15.7024   22.9755 H   0  0  0  0  0  0
  -30.3695  -15.0478   23.0105 H   0  0  0  0  0  0
  -30.0191  -23.7157   19.6660 H   0  0  0  0  0  0
  -27.8464  -21.4849   17.5654 H   0  0  0  0  0  0
  -28.4620  -17.5577   21.6468 H   0  0  0  0  0  0
  -27.2538  -24.5072   21.0392 H   0  0  0  0  0  0
  1 25  1  0  0  0
  1 30  2  0  0  0
  1 86  1  0  0  0
  2  3  1  0  0  0
  2 25  1  0  0  0
  2 87  1  0  0  0
  2 88  1  0  0  0
  3  4  1  0  0  0
  3 89  1  0  0  0
  3 90  1  0  0  0
  4  5  1  0  0  0
  4 91  1  0  0  0
  4 92  1  0  0  0
  5  6  1  0  0  0
  5 26  1  0  0  0
  5 93  1  0  0  0
  6 25  1  0  0  0
  6 94  1  0  0  0
  6 95  1  0  0  0
  7  8  2  0  0  0
  7 26  1  0  0  0
  7 29  1  0  0  0
  8  9  1  0  0  0
  8 22  1  0  0  0
  9 10  1  0  0  0
  9 27  2  0  0  0
 10 11  2  0  0  0
 10 15  1  0  0  0
 11 12  1  0  0  0
 11 96  1  0  0  0
 12 13  2  0  0  0
 12 97  1  0  0  0
 13 14  1  0  0  0
 13 31  1  0  0  0
 14 15  2  0  0  0
 14 98  1  0  0  0
 15 99  1  0  0  0
 16 17  2  0  0  0
 16 21  1  0  0  0
 16 31  1  0  0  0
 17 18  1  0  0  0
 17100  1  0  0  0
 18 19  2  0  0  0
 18101  1  0  0  0
 19 20  1  0  0  0
 19 24  1  0  0  0
 20 21  2  0  0  0
 20102  1  0  0  0
 21 23  1  0  0  0
 22 28  1  0  0  0
 22 32  2  0  0  0
 26 27  1  0  0  0
 28103  1  0  0  0
 28104  1  0  0  0
 29105  1  0  0  0
 29106  1  0  0  0
 33 34  1  0  0  0
 33 66  1  0  0  0
 33 70  2  0  0  0
 34 36  1  0  0  0
 34 59  1  0  0  0
 34107  1  0  0  0
 35 44  2  0  0  0
 35 45  1  0  0  0
 35 68  1  0  0  0
 36 56  1  0  0  0
 36108  1  0  0  0
 37 39  1  0  0  0
 37 47  1  0  0  0
 37 66  1  0  0  0
 37109  1  0  0  0
 38 43  2  0  0  0
 38 46  1  0  0  0
 38 47  1  0  0  0
 39 64  1  0  0  0
 39 67  2  0  0  0
 40 52  1  0  0  0
 40 53  2  0  0  0
 40 58  1  0  0  0
 41110  1  0  0  0
 41111  1  0  0  0
 41112  1  0  0  0
 41 48  1  0  0  0
 42 43  1  0  0  0
 42 66  1  0  0  0
 42113  1  0  0  0
 42114  1  0  0  0
 43 44  1  0  0  0
 44115  1  0  0  0
 45 46  2  0  0  0
 45116  1  0  0  0
 46117  1  0  0  0
 47118  1  0  0  0
 47119  1  0  0  0
 48 56  1  0  0  0
 48 65  1  0  0  0
 48120  1  0  0  0
 49 50  1  0  0  0
 49 53  1  0  0  0
 49 64  1  0  0  0
 49121  1  0  0  0
 50 51  1  0  0  0
 50122  1  0  0  0
 50123  1  0  0  0
 51 52  1  0  0  0
 51124  1  0  0  0
 51125  1  0  0  0
 52126  1  0  0  0
 52127  1  0  0  0
 53 54  1  0  0  0
 54 55  2  0  0  0
 54128  1  0  0  0
 55 57  1  0  0  0
 55129  1  0  0  0
 56 69  2  0  0  0
 57 58  2  0  0  0
 57130  1  0  0  0
 58131  1  0  0  0
 59 60  1  0  0  0
 59 61  1  0  0  0
 59 62  1  0  0  0
 60132  1  0  0  0
 60133  1  0  0  0
 60134  1  0  0  0
 61135  1  0  0  0
 61136  1  0  0  0
 61137  1  0  0  0
 62138  1  0  0  0
 62139  1  0  0  0
 62140  1  0  0  0
 63 65  1  0  0  0
 63141  1  0  0  0
 63142  1  0  0  0
 63143  1  0  0  0
 64144  1  0  0  0
 65145  1  0  0  0
 68 83  1  0  0  0
 71 72  2  0  0  0
 71 84  1  0  0  0
 71146  1  0  0  0
 72 85  1  0  0  0
 72 82  1  0  0  0
 73 74  1  0  0  0
 73 84  2  0  0  0
 73 80  1  0  0  0
 74 85  2  0  0  0
 74 81  1  0  0  0
 75 76  1  0  0  0
 75 81  1  0  0  0
 75147  1  0  0  0
 75148  1  0  0  0
 76 81  1  0  0  0
 76149  1  0  0  0
 76150  1  0  0  0
 77 79  1  0  0  0
 77 82  1  0  0  0
 77151  1  0  0  0
 77152  1  0  0  0
 78 80  1  0  0  0
 78 83  1  0  0  0
 78153  1  0  0  0
 78154  1  0  0  0
 79 86  1  0  0  0
 79155  1  0  0  0
 79156  1  0  0  0
 80 83  1  0  0  0
 80157  1  0  0  0
 81158  1  0  0  0
 82 86  1  0  0  0
 82159  1  0  0  0
 83160  1  0  0  0
M  ISO  4   1 100  68 101  83 101  86 100
M  END
> <chiral flag>
0

> <version>
0

> <s_m_source_file>
/data/baiqing/PycharmProjects/Reinvent-master-3.2/result/LINK_invent/BTK/process_docking_weight1_custom_sum_contain_oxygen_bond_distance_aromatic_linkinvent_7_9_3/rearranged_h_0172.sdf

> <i_m_source_file_index>
33

> <r_mmod_Potential_Energy-OPLS-2005>
722.493530273438

> <r_mmod_Stretch_Energy-OPLS-2005>
231.858932495117

> <r_mmod_Bend_Energy-OPLS-2005>
370.629058837891

> <r_mmod_Torsional_Energy-OPLS-2005>
307.613342285156

> <r_mmod_Improper_Torsional_Energy-OPLS-2005>
16.5481109619141

> <r_mmod_Van_der_Waal_Energy-OPLS-2005>
144.057800292969

> <r_mmod_Electrostatic_Energy-OPLS-2005>
-276.276153564453

> <r_mmod_Solvation_Energy-OPLS-2005>
-219.157455444336

> <b_mmod_Minimization_Converged-OPLS-2005>
0

> <r_mmod_RMS_Derivative-OPLS-2005>
0.460083603858948

$$$$
33
                    3D
 Structure written by MMmdl.
184193  0  0  1  0            999 V2000
  -30.6309  -14.7698   20.4629 C   0  0  0  0  0  0
  -30.4178  -12.4689   19.4858 C   0  0  0  0  0  0
  -29.5054  -12.5048   18.2427 C   0  0  0  0  0  0
  -28.0361  -12.3209   18.6578 C   0  0  0  0  0  0
  -27.6358  -13.2351   19.8461 C   0  0  2  0  0  0
  -28.6773  -13.2005   20.9856 C   0  0  0  0  0  0
  -25.2489  -13.8206   20.5700 C   0  0  0  0  0  0
  -24.1783  -13.0448   20.9207 C   0  0  0  0  0  0
  -24.6360  -11.6928   20.8728 C   0  0  0  0  0  0
  -23.9048  -10.4289   21.0393 C   0  0  0  0  0  0
  -24.3608   -9.4213   21.9186 C   0  0  0  0  0  0
  -23.6290   -8.2238   22.0744 C   0  0  0  0  0  0
  -22.4269   -8.0263   21.3529 C   0  0  0  0  0  0
  -21.9896   -9.0236   20.4633 C   0  0  0  0  0  0
  -22.7207  -10.2126   20.3048 C   0  0  0  0  0  0
  -21.6851   -6.0726   22.5277 C   0  0  0  0  0  0
  -21.4019   -6.5639   23.8205 C   0  0  0  0  0  0
  -21.3663   -5.6791   24.9173 C   0  0  0  0  0  0
  -21.6047   -4.3054   24.7218 C   0  0  0  0  0  0
  -21.8822   -3.8137   23.4345 C   0  0  0  0  0  0
  -21.9193   -4.6959   22.3393 C   0  0  0  0  0  0
  -22.7802  -13.5241   21.1851 C   0  0  0  0  0  0
  -22.1661   -4.2145   21.0970 F   0  0  0  0  0  0
  -21.5606   -3.4539   25.7736 F   0  0  0  0  0  0
  -29.9763  -13.5540   20.3999 N   0  0  0  0  0  0
  -26.2895  -12.9411   20.3262 N   0  0  0  0  0  0
  -25.9290  -11.6554   20.5731 N   0  0  0  0  0  0
  -22.0459  -12.8223   22.0421 N   0  0  0  0  0  0
  -25.4201  -15.1917   20.4115 N   0  0  0  0  0  0
  -31.7984  -14.8075   20.0831 O   0  0  0  0  0  0
  -21.6628   -6.8869   21.4230 O   0  0  0  0  0  0
  -22.3492  -14.5548   20.6708 O   0  0  0  0  0  0
  -24.6354  -31.8515   23.1930 C   0  0  0  0  0  0
  -25.9165  -32.4726   23.8287 C   0  0  1  0  0  0
  -27.2222  -27.2477   20.1009 C   0  0  0  0  0  0
  -25.5953  -33.8528   24.2214 N   0  0  0  0  0  0
  -23.4321  -30.4746   21.5357 C   0  0  2  0  0  0
  -24.8763  -28.9144   20.1024 C   0  0  0  0  0  0
  -22.7527  -29.4607   22.4874 C   0  0  0  0  0  0
  -18.0319  -28.1396   22.8483 C   0  0  0  0  0  0
  -24.1490  -36.7281   23.2634 C   0  0  0  0  0  0
  -25.9789  -30.7573   21.3740 C   0  0  0  0  0  0
  -26.0481  -29.3792   20.7110 C   0  0  0  0  0  0
  -27.2205  -28.5566   20.6999 C   0  0  0  0  0  0
  -26.0217  -26.8413   19.4908 C   0  0  0  0  0  0
  -24.8674  -27.6516   19.4864 C   0  0  0  0  0  0
  -23.6501  -29.8067   20.1515 C   0  0  0  0  0  0
  -25.4121  -36.3044   24.0308 C   0  0  1  0  0  0
  -20.5913  -28.3733   23.1234 C   0  0  2  0  0  0
  -20.6802  -26.9453   22.5372 C   0  0  0  0  0  0
  -19.5761  -26.6384   21.5202 C   0  0  0  0  0  0
  -18.1962  -26.7929   22.1648 C   0  0  0  0  0  0
  -19.1566  -28.8890   23.2846 C   0  0  0  0  0  0
  -18.9479  -30.1486   23.8869 C   0  0  0  0  0  0
  -17.6472  -30.6594   24.0564 C   0  0  0  0  0  0
  -25.9071  -34.9416   23.5069 C   0  0  0  0  0  0
  -16.5371  -29.9096   23.6314 C   0  0  0  0  0  0
  -16.7306  -28.6509   23.0352 C   0  0  0  0  0  0
  -26.4518  -31.6567   25.0698 C   0  0  0  0  0  0
  -25.3746  -31.3726   26.1417 C   0  0  0  0  0  0
  -27.0373  -30.2965   24.6243 C   0  0  0  0  0  0
  -27.6045  -32.4341   25.7493 C   0  0  0  0  0  0
  -27.5578  -37.1795   24.8464 C   0  0  0  0  0  0
  -21.4230  -29.3076   22.3613 N   0  0  0  0  0  0
  -26.4288  -37.3749   23.9411 N   0  0  0  0  0  0
  -24.7010  -31.0479   22.0900 N   0  0  0  0  0  0
  -23.4220  -28.8142   23.2970 O   0  0  0  0  0  0
  -28.3138  -26.3549   20.2104 O   0  0  0  0  0  0
  -26.5638  -34.8909   22.4631 O   0  0  0  0  0  0
  -23.5501  -32.1353   23.7220 O   0  0  0  0  0  0
  -27.6311  -20.7635   19.4996 C   0  0  0  0  0  0
  -26.9615  -21.6436   18.6236 C   0  0  0  0  0  0
  -28.6066  -21.2276   20.3925 C   0  0  0  0  0  0
  -27.2379  -23.0448   18.5971 C   0  0  0  0  0  0
  -28.8973  -22.6740   20.3508 C   0  0  0  0  0  0
  -28.1994  -23.6315   19.4903 C   0  0  0  0  0  0
  -28.9788  -18.1530   23.1428 C   0  0  0  0  0  0
  -31.5703  -18.6483   23.0102 C   0  0  0  0  0  0
  -30.3557  -18.2399   23.9023 C   0  0  1  0  0  0
  -29.0825  -18.5257   21.6114 C   0  0  2  0  0  0
  -30.2639  -17.4001   21.1998 C   0  0  1  0  0  0
  -31.6920  -17.9334   21.6114 C   0  0  0  0  0  0
  -25.9097  -21.0364   17.7017 C   0  0  0  0  0  0
  -26.4826  -23.8642   17.5431 C   0  0  0  0  0  0
  -30.0073  -23.2347   21.2366 C   0  0  0  0  0  0
  -30.3225  -19.0710   25.1954 C   0  0  0  0  0  0
  -32.8176  -16.8863   21.7744 C   0  0  0  0  0  0
  -32.1914  -18.9129   20.5285 C   0  0  0  0  0  0
  -28.2815  -20.8228   22.7193 C   0  0  0  0  0  0
  -28.6240  -25.1896   19.3092 C   0  0  0  0  0  0
  -29.1277  -20.2365   21.5429 C   0  0  2  0  0  0
  -29.9206  -15.9320   20.7875 N   0  0  0  0  0  0
  -31.4620  -12.5646   19.1827 H   0  0  0  0  0  0
  -30.3470  -11.5007   19.9839 H   0  0  0  0  0  0
  -29.7967  -11.7214   17.5419 H   0  0  0  0  0  0
  -29.6287  -13.4509   17.7121 H   0  0  0  0  0  0
  -27.9058  -11.2759   18.9396 H   0  0  0  0  0  0
  -27.3760  -12.4894   17.8052 H   0  0  0  0  0  0
  -27.6239  -14.2508   19.4500 H   0  0  0  0  0  0
  -28.7139  -12.2130   21.4474 H   0  0  0  0  0  0
  -28.3991  -13.8959   21.7787 H   0  0  0  0  0  0
  -25.2756   -9.5683   22.4770 H   0  0  0  0  0  0
  -23.9988   -7.4629   22.7478 H   0  0  0  0  0  0
  -21.0808   -8.8742   19.8965 H   0  0  0  0  0  0
  -22.3645  -10.9659   19.6149 H   0  0  0  0  0  0
  -21.2029   -7.6153   23.9707 H   0  0  0  0  0  0
  -21.1476   -6.0523   25.9071 H   0  0  0  0  0  0
  -22.0604   -2.7603   23.2832 H   0  0  0  0  0  0
  -22.4086  -11.9902   22.4823 H   0  0  0  0  0  0
  -21.1081  -13.1246   22.2650 H   0  0  0  0  0  0
  -24.6511  -15.8460   20.5049 H   0  0  0  0  0  0
  -26.2624  -15.6235   20.0539 H   0  0  0  0  0  0
  -26.7229  -32.5359   23.1021 H   0  0  0  0  0  0
  -25.0118  -33.9636   25.0373 H   0  0  0  0  0  0
  -22.7298  -31.2968   21.3869 H   0  0  0  0  0  0
  -23.3742  -35.9624   23.3296 H   0  0  0  0  0  0
  -24.3576  -36.8915   22.2050 H   0  0  0  0  0  0
  -23.7265  -37.6476   23.6679 H   0  0  0  0  0  0
  -26.1252  -31.5161   20.6039 H   0  0  0  0  0  0
  -26.8527  -30.7992   22.0126 H   0  0  0  0  0  0
  -28.1211  -28.9065   21.1843 H   0  0  0  0  0  0
  -25.9421  -25.8528   19.0776 H   0  0  0  0  0  0
  -23.9616  -27.2787   19.0294 H   0  0  0  0  0  0
  -23.7809  -30.5828   19.3966 H   0  0  0  0  0  0
  -22.7658  -29.2456   19.8455 H   0  0  0  0  0  0
  -25.1303  -36.1869   25.0800 H   0  0  0  0  0  0
  -21.0028  -28.3329   24.1347 H   0  0  0  0  0  0
  -20.5736  -26.2356   23.3586 H   0  0  0  0  0  0
  -21.6660  -26.7487   22.1125 H   0  0  0  0  0  0
  -19.6929  -25.6277   21.1272 H   0  0  0  0  0  0
  -19.6651  -27.3168   20.6700 H   0  0  0  0  0  0
  -17.4200  -26.6645   21.4100 H   0  0  0  0  0  0
  -18.0412  -26.0105   22.9083 H   0  0  0  0  0  0
  -19.7955  -30.7319   24.2218 H   0  0  0  0  0  0
  -17.5022  -31.6275   24.5154 H   0  0  0  0  0  0
  -15.5367  -30.2987   23.7632 H   0  0  0  0  0  0
  -15.8711  -28.0821   22.7069 H   0  0  0  0  0  0
  -24.5920  -30.7069   25.7759 H   0  0  0  0  0  0
  -24.8946  -32.2903   26.4827 H   0  0  0  0  0  0
  -25.8063  -30.8921   27.0217 H   0  0  0  0  0  0
  -26.2979  -29.6717   24.1216 H   0  0  0  0  0  0
  -27.3964  -29.7236   25.4800 H   0  0  0  0  0  0
  -27.8904  -30.4182   23.9560 H   0  0  0  0  0  0
  -27.2592  -33.3639   26.2052 H   0  0  0  0  0  0
  -28.3873  -32.6931   25.0355 H   0  0  0  0  0  0
  -28.0703  -31.8513   26.5447 H   0  0  0  0  0  0
  -28.2576  -38.0104   24.7496 H   0  0  0  0  0  0
  -28.1087  -36.2627   24.6299 H   0  0  0  0  0  0
  -27.2304  -37.1465   25.8867 H   0  0  0  0  0  0
  -20.9422  -29.8832   21.6835 H   0  0  0  0  0  0
  -26.0151  -38.2813   24.1416 H   0  0  0  0  0  0
  -27.3568  -19.7180   19.5192 H   0  0  0  0  0  0
  -28.1695  -18.6210   23.6956 H   0  0  0  0  0  0
  -28.6247  -17.1225   23.2179 H   0  0  0  0  0  0
  -32.4690  -18.4759   23.6053 H   0  0  0  0  0  0
  -31.5894  -19.7294   22.8936 H   0  0  0  0  0  0
  -30.5644  -17.2226   24.2359 H   0  0  0  0  0  0
  -28.1410  -18.2161   21.1537 H   0  0  0  0  0  0
  -30.3049  -16.7494   22.0658 H   0  0  0  0  0  0
  -25.6838  -20.0020   17.9615 H   0  0  0  0  0  0
  -26.2472  -21.0414   16.6660 H   0  0  0  0  0  0
  -24.9716  -21.5863   17.7594 H   0  0  0  0  0  0
  -26.5097  -23.3581   16.5782 H   0  0  0  0  0  0
  -26.8570  -24.8588   17.3353 H   0  0  0  0  0  0
  -25.4377  -23.9685   17.8343 H   0  0  0  0  0  0
  -30.9613  -23.1808   20.7115 H   0  0  0  0  0  0
  -30.1270  -22.7133   22.1822 H   0  0  0  0  0  0
  -29.8221  -24.2759   21.4983 H   0  0  0  0  0  0
  -30.3059  -20.1419   24.9981 H   0  0  0  0  0  0
  -31.2164  -18.8900   25.7938 H   0  0  0  0  0  0
  -29.4621  -18.8182   25.8129 H   0  0  0  0  0  0
  -32.5139  -16.0279   22.3724 H   0  0  0  0  0  0
  -33.6966  -17.3097   22.2602 H   0  0  0  0  0  0
  -33.1915  -16.5403   20.8137 H   0  0  0  0  0  0
  -31.4558  -19.6631   20.2483 H   0  0  0  0  0  0
  -32.4369  -18.3788   19.6099 H   0  0  0  0  0  0
  -33.0908  -19.4390   20.8495 H   0  0  0  0  0  0
  -27.2627  -20.4311   22.6934 H   0  0  0  0  0  0
  -28.1648  -21.9047   22.7065 H   0  0  0  0  0  0
  -28.7074  -20.6403   23.6976 H   0  0  0  0  0  0
  -28.4985  -25.5269   18.2855 H   0  0  0  0  0  0
  -29.7123  -25.1527   19.3519 H   0  0  0  0  0  0
  -30.1481  -20.5523   21.7031 H   0  0  0  0  0  0
  -28.9469  -15.7189   20.9389 H   0  0  0  0  0  0
  1 25  1  0  0  0
  1 30  2  0  0  0
  1 92  1  0  0  0
  2  3  1  0  0  0
  2 25  1  0  0  0
  2 93  1  0  0  0
  2 94  1  0  0  0
  3  4  1  0  0  0
  3 95  1  0  0  0
  3 96  1  0  0  0
  4  5  1  0  0  0
  4 97  1  0  0  0
  4 98  1  0  0  0
  5  6  1  0  0  0
  5 26  1  0  0  0
  5 99  1  0  0  0
  6 25  1  0  0  0
  6100  1  0  0  0
  6101  1  0  0  0
  7  8  2  0  0  0
  7 26  1  0  0  0
  7 29  1  0  0  0
  8  9  1  0  0  0
  8 22  1  0  0  0
  9 10  1  0  0  0
  9 27  2  0  0  0
 10 11  2  0  0  0
 10 15  1  0  0  0
 11 12  1  0  0  0
 11102  1  0  0  0
 12 13  2  0  0  0
 12103  1  0  0  0
 13 14  1  0  0  0
 13 31  1  0  0  0
 14 15  2  0  0  0
 14104  1  0  0  0
 15105  1  0  0  0
 16 17  2  0  0  0
 16 21  1  0  0  0
 16 31  1  0  0  0
 17 18  1  0  0  0
 17106  1  0  0  0
 18 19  2  0  0  0
 18107  1  0  0  0
 19 20  1  0  0  0
 19 24  1  0  0  0
 20 21  2  0  0  0
 20108  1  0  0  0
 21 23  1  0  0  0
 22 28  1  0  0  0
 22 32  2  0  0  0
 26 27  1  0  0  0
 28109  1  0  0  0
 28110  1  0  0  0
 29111  1  0  0  0
 29112  1  0  0  0
 33 34  1  0  0  0
 33 66  1  0  0  0
 33 70  2  0  0  0
 34 36  1  0  0  0
 34 59  1  0  0  0
 34113  1  0  0  0
 35 44  2  0  0  0
 35 45  1  0  0  0
 35 68  1  0  0  0
 36 56  1  0  0  0
 36114  1  0  0  0
 37 39  1  0  0  0
 37 47  1  0  0  0
 37 66  1  0  0  0
 37115  1  0  0  0
 38 43  2  0  0  0
 38 46  1  0  0  0
 38 47  1  0  0  0
 39 64  1  0  0  0
 39 67  2  0  0  0
 40 52  1  0  0  0
 40 53  2  0  0  0
 40 58  1  0  0  0
 41116  1  0  0  0
 41117  1  0  0  0
 41118  1  0  0  0
 41 48  1  0  0  0
 42 43  1  0  0  0
 42 66  1  0  0  0
 42119  1  0  0  0
 42120  1  0  0  0
 43 44  1  0  0  0
 44121  1  0  0  0
 45 46  2  0  0  0
 45122  1  0  0  0
 46123  1  0  0  0
 47124  1  0  0  0
 47125  1  0  0  0
 48 56  1  0  0  0
 48 65  1  0  0  0
 48126  1  0  0  0
 49 50  1  0  0  0
 49 53  1  0  0  0
 49 64  1  0  0  0
 49127  1  0  0  0
 50 51  1  0  0  0
 50128  1  0  0  0
 50129  1  0  0  0
 51 52  1  0  0  0
 51130  1  0  0  0
 51131  1  0  0  0
 52132  1  0  0  0
 52133  1  0  0  0
 53 54  1  0  0  0
 54 55  2  0  0  0
 54134  1  0  0  0
 55 57  1  0  0  0
 55135  1  0  0  0
 56 69  2  0  0  0
 57 58  2  0  0  0
 57136  1  0  0  0
 58137  1  0  0  0
 59 60  1  0  0  0
 59 61  1  0  0  0
 59 62  1  0  0  0
 60138  1  0  0  0
 60139  1  0  0  0
 60140  1  0  0  0
 61141  1  0  0  0
 61142  1  0  0  0
 61143  1  0  0  0
 62144  1  0  0  0
 62145  1  0  0  0
 62146  1  0  0  0
 63 65  1  0  0  0
 63147  1  0  0  0
 63148  1  0  0  0
 63149  1  0  0  0
 64150  1  0  0  0
 65151  1  0  0  0
 68 90  1  0  0  0
 71 72  2  0  0  0
 71 73  1  0  0  0
 71152  1  0  0  0
 72 74  1  0  0  0
 72 83  1  0  0  0
 73 75  2  0  0  0
 73 91  1  0  0  0
 74 76  2  0  0  0
 74 84  1  0  0  0
 75 76  1  0  0  0
 75 85  1  0  0  0
 76 90  1  0  0  0
 77 79  1  0  0  0
 77153  1  0  0  0
 77154  1  0  0  0
 77 80  1  0  0  0
 78 79  1  0  0  0
 78 82  1  0  0  0
 78155  1  0  0  0
 78156  1  0  0  0
 79 86  1  0  0  0
 79157  1  0  0  0
 80 81  1  0  0  0
 80 91  1  0  0  0
 80158  1  0  0  0
 81 82  1  0  0  0
 81 92  1  0  0  0
 81159  1  0  0  0
 82 87  1  0  0  0
 82 88  1  0  0  0
 83160  1  0  0  0
 83161  1  0  0  0
 83162  1  0  0  0
 84163  1  0  0  0
 84164  1  0  0  0
 84165  1  0  0  0
 85166  1  0  0  0
 85167  1  0  0  0
 85168  1  0  0  0
 86169  1  0  0  0
 86170  1  0  0  0
 86171  1  0  0  0
 87172  1  0  0  0
 87173  1  0  0  0
 87174  1  0  0  0
 88175  1  0  0  0
 88176  1  0  0  0
 88177  1  0  0  0
 89178  1  0  0  0
 89179  1  0  0  0
 89180  1  0  0  0
 89 91  1  0  0  0
 90181  1  0  0  0
 90182  1  0  0  0
 91183  1  0  0  0
 92184  1  0  0  0
M  ISO  4   1 100  68 101  90 101  92 100
M  END
> <chiral flag>
0

> <version>
0

> <s_m_source_file>
/data/baiqing/PycharmProjects/Reinvent-master-3.2/result/LINK_invent/BTK/process_docking_weight1_custom_sum_contain_oxygen_bond_distance_aromatic_linkinvent_7_9_3/rearranged_h_0172.sdf

> <i_m_source_file_index>
34

> <r_mmod_Potential_Energy-OPLS-2005>
661.380187988281

> <r_mmod_Stretch_Energy-OPLS-2005>
217.344467163086

> <r_mmod_Bend_Energy-OPLS-2005>
449.713623046875

> <r_mmod_Torsional_Energy-OPLS-2005>
298.010101318359

> <r_mmod_Improper_Torsional_Energy-OPLS-2005>
7.1804027557373

> <r_mmod_Van_der_Waal_Energy-OPLS-2005>
217.358642578125

> <r_mmod_Electrostatic_Energy-OPLS-2005>
-431.650421142578

> <r_mmod_Solvation_Energy-OPLS-2005>
-192.170806884766

> <b_mmod_Minimization_Converged-OPLS-2005>
0

> <r_mmod_RMS_Derivative-OPLS-2005>
2.91846227645874

$$$$
34
                    3D
 Structure written by MMmdl.
160170  0  0  1  0            999 V2000
  -30.5417  -14.9987   20.4468 C   0  0  0  0  0  0
  -30.4442  -12.6337   19.4981 C   0  0  0  0  0  0
  -29.5218  -12.5792   18.2601 C   0  0  0  0  0  0
  -28.0589  -12.3491   18.6744 C   0  0  0  0  0  0
  -27.6376  -13.2601   19.8570 C   0  0  2  0  0  0
  -28.6858  -13.2787   20.9911 C   0  0  0  0  0  0
  -25.2526  -13.8259   20.5748 C   0  0  0  0  0  0
  -24.1842  -13.0462   20.9239 C   0  0  0  0  0  0
  -24.6462  -11.6947   20.8753 C   0  0  0  0  0  0
  -23.9131  -10.4315   21.0417 C   0  0  0  0  0  0
  -24.3626   -9.4255   21.9223 C   0  0  0  0  0  0
  -23.6284   -8.2304   22.0791 C   0  0  0  0  0  0
  -22.4280   -8.0326   21.3569 C   0  0  0  0  0  0
  -21.9941   -9.0296   20.4651 C   0  0  0  0  0  0
  -22.7285  -10.2167   20.3075 C   0  0  0  0  0  0
  -21.6877   -6.0764   22.5283 C   0  0  0  0  0  0
  -21.4004   -6.5643   23.8212 C   0  0  0  0  0  0
  -21.3663   -5.6791   24.9168 C   0  0  0  0  0  0
  -21.6059   -4.3044   24.7227 C   0  0  0  0  0  0
  -21.8802   -3.8165   23.4349 C   0  0  0  0  0  0
  -21.9210   -4.6999   22.3404 C   0  0  0  0  0  0
  -22.7832  -13.5241   21.1865 C   0  0  0  0  0  0
  -22.1672   -4.2229   21.0960 F   0  0  0  0  0  0
  -21.5672   -3.4517   25.7736 F   0  0  0  0  0  0
  -29.9556  -13.7259   20.4006 N   0  0  0  0  0  0
  -26.2973  -12.9519   20.3351 N   0  0  0  0  0  0
  -25.9409  -11.6621   20.5726 N   0  0  0  0  0  0
  -22.0491  -12.8251   22.0407 N   0  0  0  0  0  0
  -25.4151  -15.1981   20.4153 N   0  0  0  0  0  0
  -31.7213  -15.0636   20.0904 O   0  0  0  0  0  0
  -21.6683   -6.8911   21.4242 O   0  0  0  0  0  0
  -22.3508  -14.5532   20.6675 O   0  0  0  0  0  0
  -24.6519  -31.8378   23.1875 C   0  0  0  0  0  0
  -25.9282  -32.4658   23.8312 C   0  0  1  0  0  0
  -27.2337  -27.0656   20.2241 C   0  0  0  0  0  0
  -25.6045  -33.8472   24.2232 N   0  0  0  0  0  0
  -23.4592  -30.4476   21.5322 C   0  0  2  0  0  0
  -24.9158  -28.8502   20.1358 C   0  0  0  0  0  0
  -22.7608  -29.4496   22.4915 C   0  0  0  0  0  0
  -18.0292  -28.1337   22.8468 C   0  0  0  0  0  0
  -24.1461  -36.7193   23.2637 C   0  0  0  0  0  0
  -26.0146  -30.6960   21.3898 C   0  0  0  0  0  0
  -26.0920  -29.2921   20.7495 C   0  0  0  0  0  0
  -27.2538  -28.4218   20.7640 C   0  0  0  0  0  0
  -26.0275  -26.7262   19.5745 C   0  0  0  0  0  0
  -24.9000  -27.5829   19.5292 C   0  0  0  0  0  0
  -23.6917  -29.7588   20.1608 C   0  0  0  0  0  0
  -25.4112  -36.2992   24.0307 C   0  0  1  0  0  0
  -20.5907  -28.3667   23.1236 C   0  0  2  0  0  0
  -20.6778  -26.9361   22.5410 C   0  0  0  0  0  0
  -19.5753  -26.6313   21.5212 C   0  0  0  0  0  0
  -18.1930  -26.7888   22.1591 C   0  0  0  0  0  0
  -19.1558  -28.8832   23.2818 C   0  0  0  0  0  0
  -18.9475  -30.1447   23.8814 C   0  0  0  0  0  0
  -17.6469  -30.6547   24.0526 C   0  0  0  0  0  0
  -25.9080  -34.9370   23.5063 C   0  0  0  0  0  0
  -16.5352  -29.9010   23.6361 C   0  0  0  0  0  0
  -16.7267  -28.6420   23.0386 C   0  0  0  0  0  0
  -26.4567  -31.6553   25.0782 C   0  0  0  0  0  0
  -25.3737  -31.3791   26.1469 C   0  0  0  0  0  0
  -27.0451  -30.2952   24.6382 C   0  0  0  0  0  0
  -27.6053  -32.4342   25.7622 C   0  0  0  0  0  0
  -27.5554  -37.1758   24.8466 C   0  0  0  0  0  0
  -21.4294  -29.3013   22.3650 N   0  0  0  0  0  0
  -26.4245  -37.3739   23.9428 N   0  0  0  0  0  0
  -24.7274  -31.0181   22.0929 N   0  0  0  0  0  0
  -23.4233  -28.8067   23.3097 O   0  0  0  0  0  0
  -28.3152  -26.0929   20.2098 O   0  0  0  0  0  0
  -26.5589  -34.8863   22.4589 O   0  0  0  0  0  0
  -23.5621  -32.1258   23.7068 O   0  0  0  0  0  0
  -30.0498  -20.6405   22.8375 C   0  0  0  0  0  0
  -29.4778  -21.7593   22.1837 C   0  0  0  0  0  0
  -30.1953  -19.3731   22.2195 C   0  0  0  0  0  0
  -29.0297  -21.6774   20.8515 C   0  0  0  0  0  0
  -29.6853  -19.1849   20.9103 C   0  0  0  0  0  0
  -31.9888  -18.4808   24.0087 C   0  0  0  0  0  0
  -32.3198  -17.8574   22.6765 C   0  0  0  0  0  0
  -27.3634  -22.8144   19.0605 C   0  0  0  0  0  0
  -28.7624  -23.1135   18.5904 C   0  0  0  0  0  0
  -30.8888  -18.2544   22.9811 C   0  0  0  0  0  0
  -28.4692  -23.0719   20.0738 C   0  0  0  0  0  0
  -29.9015  -17.7007   20.1565 C   0  0  0  0  0  0
  -28.3269  -24.6119   20.7994 C   0  0  0  0  0  0
  -29.1385  -20.3622   20.2712 N   0  0  0  0  0  0
  -29.7898  -16.1936   20.6946 N   0  0  0  0  0  0
  -31.4725  -12.8127   19.1766 H   0  0  0  0  0  0
  -30.4545  -11.6738   20.0122 H   0  0  0  0  0  0
  -29.8338  -11.7904   17.5739 H   0  0  0  0  0  0
  -29.6038  -13.5148   17.7010 H   0  0  0  0  0  0
  -27.9480  -11.2993   18.9436 H   0  0  0  0  0  0
  -27.4041  -12.5258   17.8234 H   0  0  0  0  0  0
  -27.5960  -14.2666   19.4377 H   0  0  0  0  0  0
  -28.7948  -12.2889   21.4439 H   0  0  0  0  0  0
  -28.3844  -13.9623   21.7853 H   0  0  0  0  0  0
  -25.2791   -9.5765   22.4787 H   0  0  0  0  0  0
  -24.0029   -7.4686   22.7460 H   0  0  0  0  0  0
  -21.0963   -8.8770   19.8858 H   0  0  0  0  0  0
  -22.3767  -10.9699   19.6147 H   0  0  0  0  0  0
  -21.1911   -7.6125   23.9732 H   0  0  0  0  0  0
  -21.1523   -6.0523   25.9073 H   0  0  0  0  0  0
  -22.0573   -2.7639   23.2841 H   0  0  0  0  0  0
  -22.4036  -11.9890   22.4818 H   0  0  0  0  0  0
  -21.1092  -13.1273   22.2506 H   0  0  0  0  0  0
  -24.6300  -15.8392   20.4652 H   0  0  0  0  0  0
  -26.2652  -15.6468   20.1005 H   0  0  0  0  0  0
  -26.7355  -32.5253   23.1051 H   0  0  0  0  0  0
  -25.0380  -33.9615   25.0504 H   0  0  0  0  0  0
  -22.7616  -31.2717   21.3705 H   0  0  0  0  0  0
  -23.3771  -35.9480   23.3264 H   0  0  0  0  0  0
  -24.3532  -36.8858   22.2058 H   0  0  0  0  0  0
  -23.7152  -37.6346   23.6693 H   0  0  0  0  0  0
  -26.1616  -31.4423   20.6086 H   0  0  0  0  0  0
  -26.8854  -30.7660   22.0301 H   0  0  0  0  0  0
  -28.1558  -28.7698   21.2454 H   0  0  0  0  0  0
  -25.9391  -25.7506   19.1207 H   0  0  0  0  0  0
  -23.9985  -27.2353   19.0450 H   0  0  0  0  0  0
  -23.8305  -30.5220   19.3925 H   0  0  0  0  0  0
  -22.8074  -29.1960   19.8550 H   0  0  0  0  0  0
  -25.1293  -36.1814   25.0796 H   0  0  0  0  0  0
  -20.9928  -28.3207   24.1370 H   0  0  0  0  0  0
  -20.5660  -26.2261   23.3617 H   0  0  0  0  0  0
  -21.6649  -26.7346   22.1221 H   0  0  0  0  0  0
  -19.6919  -25.6207   21.1275 H   0  0  0  0  0  0
  -19.6719  -27.3076   20.6708 H   0  0  0  0  0  0
  -17.4219  -26.6635   21.3959 H   0  0  0  0  0  0
  -18.0296  -26.0020   22.8969 H   0  0  0  0  0  0
  -19.7947  -30.7306   24.2104 H   0  0  0  0  0  0
  -17.5000  -31.6217   24.5121 H   0  0  0  0  0  0
  -15.5342  -30.2864   23.7763 H   0  0  0  0  0  0
  -15.8665  -28.0699   22.7185 H   0  0  0  0  0  0
  -24.5917  -30.7115   25.7826 H   0  0  0  0  0  0
  -24.8949  -32.3003   26.4804 H   0  0  0  0  0  0
  -25.8020  -30.9057   27.0313 H   0  0  0  0  0  0
  -26.3081  -29.6679   24.1347 H   0  0  0  0  0  0
  -27.4003  -29.7243   25.4973 H   0  0  0  0  0  0
  -27.9008  -30.4193   23.9744 H   0  0  0  0  0  0
  -27.2576  -33.3611   26.2201 H   0  0  0  0  0  0
  -28.3924  -32.6961   25.0539 H   0  0  0  0  0  0
  -28.0667  -31.8502   26.5597 H   0  0  0  0  0  0
  -28.2539  -38.0085   24.7563 H   0  0  0  0  0  0
  -28.1075  -36.2619   24.6236 H   0  0  0  0  0  0
  -27.2257  -37.1320   25.8860 H   0  0  0  0  0  0
  -20.9533  -29.8764   21.6841 H   0  0  0  0  0  0
  -26.0095  -38.2766   24.1561 H   0  0  0  0  0  0
  -30.4017  -20.7673   23.8498 H   0  0  0  0  0  0
  -29.4045  -22.6954   22.7229 H   0  0  0  0  0  0
  -32.3883  -19.4777   24.1879 H   0  0  0  0  0  0
  -32.0148  -17.8272   24.8825 H   0  0  0  0  0  0
  -32.5723  -16.7968   22.6787 H   0  0  0  0  0  0
  -32.9073  -18.4639   21.9831 H   0  0  0  0  0  0
  -26.9958  -21.7947   18.9632 H   0  0  0  0  0  0
  -26.6168  -23.5841   18.8833 H   0  0  0  0  0  0
  -28.9509  -24.0903   18.1520 H   0  0  0  0  0  0
  -29.3370  -22.2901   18.1672 H   0  0  0  0  0  0
  -30.1754  -17.4653   23.2126 H   0  0  0  0  0  0
  -30.8801  -17.7606   19.6811 H   0  0  0  0  0  0
  -29.1960  -17.7157   19.3285 H   0  0  0  0  0  0
  -29.2129  -24.6610   21.4326 H   0  0  0  0  0  0
  -27.5147  -24.5560   21.5229 H   0  0  0  0  0  0
  -28.8848  -16.0055   21.0975 H   0  0  0  0  0  0
  1 25  1  0  0  0
  1 30  2  0  0  0
  1 85  1  0  0  0
  2  3  1  0  0  0
  2 25  1  0  0  0
  2 86  1  0  0  0
  2 87  1  0  0  0
  3  4  1  0  0  0
  3 88  1  0  0  0
  3 89  1  0  0  0
  4  5  1  0  0  0
  4 90  1  0  0  0
  4 91  1  0  0  0
  5  6  1  0  0  0
  5 26  1  0  0  0
  5 92  1  0  0  0
  6 25  1  0  0  0
  6 93  1  0  0  0
  6 94  1  0  0  0
  7  8  2  0  0  0
  7 26  1  0  0  0
  7 29  1  0  0  0
  8  9  1  0  0  0
  8 22  1  0  0  0
  9 10  1  0  0  0
  9 27  2  0  0  0
 10 11  2  0  0  0
 10 15  1  0  0  0
 11 12  1  0  0  0
 11 95  1  0  0  0
 12 13  2  0  0  0
 12 96  1  0  0  0
 13 14  1  0  0  0
 13 31  1  0  0  0
 14 15  2  0  0  0
 14 97  1  0  0  0
 15 98  1  0  0  0
 16 17  2  0  0  0
 16 21  1  0  0  0
 16 31  1  0  0  0
 17 18  1  0  0  0
 17 99  1  0  0  0
 18 19  2  0  0  0
 18100  1  0  0  0
 19 20  1  0  0  0
 19 24  1  0  0  0
 20 21  2  0  0  0
 20101  1  0  0  0
 21 23  1  0  0  0
 22 28  1  0  0  0
 22 32  2  0  0  0
 26 27  1  0  0  0
 28102  1  0  0  0
 28103  1  0  0  0
 29104  1  0  0  0
 29105  1  0  0  0
 33 34  1  0  0  0
 33 66  1  0  0  0
 33 70  2  0  0  0
 34 36  1  0  0  0
 34 59  1  0  0  0
 34106  1  0  0  0
 35 44  2  0  0  0
 35 45  1  0  0  0
 35 68  1  0  0  0
 36 56  1  0  0  0
 36107  1  0  0  0
 37 39  1  0  0  0
 37 47  1  0  0  0
 37 66  1  0  0  0
 37108  1  0  0  0
 38 43  2  0  0  0
 38 46  1  0  0  0
 38 47  1  0  0  0
 39 64  1  0  0  0
 39 67  2  0  0  0
 40 52  1  0  0  0
 40 53  2  0  0  0
 40 58  1  0  0  0
 41109  1  0  0  0
 41110  1  0  0  0
 41111  1  0  0  0
 41 48  1  0  0  0
 42 43  1  0  0  0
 42 66  1  0  0  0
 42112  1  0  0  0
 42113  1  0  0  0
 43 44  1  0  0  0
 44114  1  0  0  0
 45 46  2  0  0  0
 45115  1  0  0  0
 46116  1  0  0  0
 47117  1  0  0  0
 47118  1  0  0  0
 48 56  1  0  0  0
 48 65  1  0  0  0
 48119  1  0  0  0
 49 50  1  0  0  0
 49 53  1  0  0  0
 49 64  1  0  0  0
 49120  1  0  0  0
 50 51  1  0  0  0
 50121  1  0  0  0
 50122  1  0  0  0
 51 52  1  0  0  0
 51123  1  0  0  0
 51124  1  0  0  0
 52125  1  0  0  0
 52126  1  0  0  0
 53 54  1  0  0  0
 54 55  2  0  0  0
 54127  1  0  0  0
 55 57  1  0  0  0
 55128  1  0  0  0
 56 69  2  0  0  0
 57 58  2  0  0  0
 57129  1  0  0  0
 58130  1  0  0  0
 59 60  1  0  0  0
 59 61  1  0  0  0
 59 62  1  0  0  0
 60131  1  0  0  0
 60132  1  0  0  0
 60133  1  0  0  0
 61134  1  0  0  0
 61135  1  0  0  0
 61136  1  0  0  0
 62137  1  0  0  0
 62138  1  0  0  0
 62139  1  0  0  0
 63 65  1  0  0  0
 63140  1  0  0  0
 63141  1  0  0  0
 63142  1  0  0  0
 64143  1  0  0  0
 65144  1  0  0  0
 68 83  1  0  0  0
 71 72  2  0  0  0
 71 73  1  0  0  0
 71145  1  0  0  0
 72 74  1  0  0  0
 72146  1  0  0  0
 73 75  2  0  0  0
 73 80  1  0  0  0
 74 81  1  0  0  0
 74 84  2  0  0  0
 75 82  1  0  0  0
 75 84  1  0  0  0
 76 77  1  0  0  0
 76 80  1  0  0  0
 76147  1  0  0  0
 76148  1  0  0  0
 77 80  1  0  0  0
 77149  1  0  0  0
 77150  1  0  0  0
 78 79  1  0  0  0
 78 81  1  0  0  0
 78151  1  0  0  0
 78152  1  0  0  0
 79 81  1  0  0  0
 79153  1  0  0  0
 79154  1  0  0  0
 80155  1  0  0  0
 81 83  1  0  0  0
 82 85  1  0  0  0
 82156  1  0  0  0
 82157  1  0  0  0
 83158  1  0  0  0
 83159  1  0  0  0
 85160  1  0  0  0
M  ISO  4   1 100  68 101  83 101  85 100
M  END
> <chiral flag>
0

> <version>
0

> <s_m_source_file>
/data/baiqing/PycharmProjects/Reinvent-master-3.2/result/LINK_invent/BTK/process_docking_weight1_custom_sum_contain_oxygen_bond_distance_aromatic_linkinvent_7_9_3/rearranged_h_0172.sdf

> <i_m_source_file_index>
35

> <r_mmod_Potential_Energy-OPLS-2005>
514.062133789062

> <r_mmod_Stretch_Energy-OPLS-2005>
351.930877685547

> <r_mmod_Bend_Energy-OPLS-2005>
320.107574462891

> <r_mmod_Torsional_Energy-OPLS-2005>
296.441619873047

> <r_mmod_Improper_Torsional_Energy-OPLS-2005>
5.66703033447266

> <r_mmod_Van_der_Waal_Energy-OPLS-2005>
114.660263061523

> <r_mmod_Electrostatic_Energy-OPLS-2005>
-583.217834472656

> <r_mmod_Solvation_Energy-OPLS-2005>
-223.6376953125

> <b_mmod_Minimization_Converged-OPLS-2005>
0

> <r_mmod_RMS_Derivative-OPLS-2005>
6.84635496139526

$$$$
35
                    3D
 Structure written by MMmdl.
163173  0  0  1  0            999 V2000
  -30.5457  -14.9861   20.4107 C   0  0  0  0  0  0
  -30.4373  -12.6161   19.4968 C   0  0  0  0  0  0
  -29.5233  -12.5385   18.2533 C   0  0  0  0  0  0
  -28.0562  -12.3232   18.6708 C   0  0  0  0  0  0
  -27.6269  -13.2575   19.8328 C   0  0  2  0  0  0
  -28.6698  -13.3094   20.9674 C   0  0  0  0  0  0
  -25.2461  -13.8230   20.5720 C   0  0  0  0  0  0
  -24.1778  -13.0446   20.9219 C   0  0  0  0  0  0
  -24.6406  -11.6933   20.8737 C   0  0  0  0  0  0
  -23.9090  -10.4298   21.0393 C   0  0  0  0  0  0
  -24.3638   -9.4213   21.9173 C   0  0  0  0  0  0
  -23.6312   -8.2246   22.0746 C   0  0  0  0  0  0
  -22.4291   -8.0284   21.3541 C   0  0  0  0  0  0
  -21.9928   -9.0257   20.4640 C   0  0  0  0  0  0
  -22.7261  -10.2137   20.3047 C   0  0  0  0  0  0
  -21.6854   -6.0740   22.5281 C   0  0  0  0  0  0
  -21.4016   -6.5642   23.8213 C   0  0  0  0  0  0
  -21.3663   -5.6795   24.9177 C   0  0  0  0  0  0
  -21.6044   -4.3057   24.7226 C   0  0  0  0  0  0
  -21.8819   -3.8147   23.4347 C   0  0  0  0  0  0
  -21.9193   -4.6966   22.3404 C   0  0  0  0  0  0
  -22.7797  -13.5213   21.1874 C   0  0  0  0  0  0
  -22.1661   -4.2152   21.0980 F   0  0  0  0  0  0
  -21.5633   -3.4539   25.7736 F   0  0  0  0  0  0
  -29.9375  -13.7286   20.3579 N   0  0  0  0  0  0
  -26.2886  -12.9479   20.3232 N   0  0  0  0  0  0
  -25.9340  -11.6596   20.5717 N   0  0  0  0  0  0
  -22.0448  -12.8200   22.0431 N   0  0  0  0  0  0
  -25.4165  -15.1956   20.4184 N   0  0  0  0  0  0
  -31.7581  -15.0165   20.1729 O   0  0  0  0  0  0
  -21.6650   -6.8884   21.4242 O   0  0  0  0  0  0
  -22.3477  -14.5513   20.6717 O   0  0  0  0  0  0
  -24.6491  -31.8409   23.1870 C   0  0  0  0  0  0
  -25.9247  -32.4673   23.8270 C   0  0  1  0  0  0
  -27.2046  -27.0905   20.1399 C   0  0  0  0  0  0
  -25.5980  -33.8482   24.2189 N   0  0  0  0  0  0
  -23.4538  -30.4634   21.5345 C   0  0  2  0  0  0
  -24.9010  -28.8909   20.1074 C   0  0  0  0  0  0
  -22.7597  -29.4537   22.4845 C   0  0  0  0  0  0
  -18.0307  -28.1398   22.8478 C   0  0  0  0  0  0
  -24.1493  -36.7245   23.2643 C   0  0  0  0  0  0
  -26.0157  -30.6980   21.3951 C   0  0  0  0  0  0
  -26.0830  -29.3070   20.7331 C   0  0  0  0  0  0
  -27.2356  -28.4236   20.7353 C   0  0  0  0  0  0
  -25.9955  -26.8024   19.4631 C   0  0  0  0  0  0
  -24.8735  -27.6535   19.4559 C   0  0  0  0  0  0
  -23.6812  -29.7985   20.1529 C   0  0  0  0  0  0
  -25.4125  -36.3020   24.0315 C   0  0  1  0  0  0
  -20.5926  -28.3727   23.1221 C   0  0  2  0  0  0
  -20.6786  -26.9425   22.5401 C   0  0  0  0  0  0
  -19.5762  -26.6384   21.5209 C   0  0  0  0  0  0
  -18.1943  -26.7937   22.1618 C   0  0  0  0  0  0
  -19.1566  -28.8882   23.2843 C   0  0  0  0  0  0
  -18.9479  -30.1473   23.8877 C   0  0  0  0  0  0
  -17.6472  -30.6589   24.0556 C   0  0  0  0  0  0
  -25.9087  -34.9393   23.5061 C   0  0  0  0  0  0
  -16.5363  -29.9081   23.6336 C   0  0  0  0  0  0
  -16.7289  -28.6498   23.0361 C   0  0  0  0  0  0
  -26.4545  -31.6546   25.0723 C   0  0  0  0  0  0
  -25.3715  -31.3742   26.1405 C   0  0  0  0  0  0
  -27.0413  -30.2935   24.6337 C   0  0  0  0  0  0
  -27.6083  -32.4304   25.7502 C   0  0  0  0  0  0
  -27.5580  -37.1776   24.8460 C   0  0  0  0  0  0
  -21.4283  -29.3052   22.3594 N   0  0  0  0  0  0
  -26.4286  -37.3736   23.9408 N   0  0  0  0  0  0
  -24.7267  -31.0228   22.0929 N   0  0  0  0  0  0
  -23.4219  -28.8076   23.3003 O   0  0  0  0  0  0
  -28.2132  -26.0415   20.2126 O   0  0  0  0  0  0
  -26.5668  -34.8893   22.4639 O   0  0  0  0  0  0
  -23.5599  -32.1302   23.7062 O   0  0  0  0  0  0
  -28.6014  -20.7464   19.2881 C   0  0  0  0  0  0
  -29.3468  -20.1032   20.3296 C   0  0  0  0  0  0
  -29.7244  -21.1084   21.3075 C   0  0  0  0  0  0
  -29.2873  -22.5180   21.2360 C   0  0  0  0  0  0
  -28.5521  -23.0609   20.1257 C   0  0  0  0  0  0
  -31.8786  -21.4359   22.8053 C   0  0  0  0  0  0
  -31.9893  -20.0798   22.1692 C   0  0  0  0  0  0
  -30.1660  -17.4353   21.4281 C   0  0  0  0  0  0
  -29.8091  -18.4831   20.2883 C   0  0  1  0  0  0
  -30.6196  -20.6704   22.4377 C   0  0  0  0  0  0
  -29.1170  -17.1926   19.6597 C   0  0  1  0  0  0
  -29.5774  -23.4780   22.3841 C   0  0  0  0  0  0
  -29.3574  -16.8485   18.1924 C   0  0  0  0  0  0
  -27.7860  -24.5468   19.9628 C   0  0  0  0  0  0
  -28.2472  -22.0919   19.1919 N   0  0  0  0  0  0
  -29.8110  -16.2085   20.6043 N   0  0  0  0  0  0
  -31.4709  -12.7730   19.1849 H   0  0  0  0  0  0
  -30.4330  -11.6708   20.0424 H   0  0  0  0  0  0
  -29.8493  -11.7345   17.5923 H   0  0  0  0  0  0
  -29.6099  -13.4613   17.6776 H   0  0  0  0  0  0
  -27.9527  -11.2826   18.9784 H   0  0  0  0  0  0
  -27.3944  -12.4542   17.8138 H   0  0  0  0  0  0
  -27.5828  -14.2570   19.3996 H   0  0  0  0  0  0
  -28.7662  -12.3423   21.4626 H   0  0  0  0  0  0
  -28.3650  -14.0255   21.7324 H   0  0  0  0  0  0
  -25.2779   -9.5696   22.4754 H   0  0  0  0  0  0
  -24.0023   -7.4637   22.7465 H   0  0  0  0  0  0
  -21.0856   -8.8778   19.8950 H   0  0  0  0  0  0
  -22.3709  -10.9677   19.6160 H   0  0  0  0  0  0
  -21.2005   -7.6150   23.9723 H   0  0  0  0  0  0
  -21.1485   -6.0519   25.9082 H   0  0  0  0  0  0
  -22.0594   -2.7609   23.2842 H   0  0  0  0  0  0
  -22.4071  -11.9877   22.4839 H   0  0  0  0  0  0
  -21.1055  -13.1209   22.2610 H   0  0  0  0  0  0
  -24.6584  -15.8570   20.5453 H   0  0  0  0  0  0
  -26.2845  -15.6338   20.1383 H   0  0  0  0  0  0
  -26.7311  -32.5262   23.0991 H   0  0  0  0  0  0
  -25.0083  -33.9587   25.0307 H   0  0  0  0  0  0
  -22.7581  -31.2910   21.3811 H   0  0  0  0  0  0
  -23.3763  -35.9571   23.3279 H   0  0  0  0  0  0
  -24.3584  -36.8906   22.2067 H   0  0  0  0  0  0
  -23.7236  -37.6426   23.6697 H   0  0  0  0  0  0
  -26.1808  -31.4513   20.6232 H   0  0  0  0  0  0
  -26.8831  -30.7451   22.0420 H   0  0  0  0  0  0
  -28.1306  -28.7357   21.2552 H   0  0  0  0  0  0
  -25.8578  -25.8699   18.9406 H   0  0  0  0  0  0
  -23.9759  -27.3334   18.9445 H   0  0  0  0  0  0
  -23.8190  -30.5741   19.3986 H   0  0  0  0  0  0
  -22.7944  -29.2436   19.8419 H   0  0  0  0  0  0
  -25.1313  -36.1842   25.0807 H   0  0  0  0  0  0
  -21.0018  -28.3314   24.1341 H   0  0  0  0  0  0
  -20.5657  -26.2348   23.3626 H   0  0  0  0  0  0
  -21.6652  -26.7408   22.1210 H   0  0  0  0  0  0
  -19.6917  -25.6290   21.1251 H   0  0  0  0  0  0
  -19.6698  -27.3180   20.6728 H   0  0  0  0  0  0
  -17.4213  -26.6691   21.4018 H   0  0  0  0  0  0
  -18.0332  -26.0081   22.9013 H   0  0  0  0  0  0
  -19.7955  -30.7299   24.2239 H   0  0  0  0  0  0
  -17.5023  -31.6269   24.5159 H   0  0  0  0  0  0
  -15.5362  -30.2973   23.7676 H   0  0  0  0  0  0
  -15.8689  -28.0803   22.7097 H   0  0  0  0  0  0
  -24.5930  -30.7047   25.7719 H   0  0  0  0  0  0
  -24.8859  -32.2920   26.4733 H   0  0  0  0  0  0
  -25.7991  -30.8986   27.0241 H   0  0  0  0  0  0
  -26.3043  -29.6644   24.1332 H   0  0  0  0  0  0
  -27.3992  -29.7245   25.4926 H   0  0  0  0  0  0
  -27.8967  -30.4149   23.9689 H   0  0  0  0  0  0
  -27.2700  -33.3639   26.2005 H   0  0  0  0  0  0
  -28.3934  -32.6797   25.0352 H   0  0  0  0  0  0
  -28.0704  -31.8467   26.5473 H   0  0  0  0  0  0
  -28.2574  -38.0093   24.7519 H   0  0  0  0  0  0
  -28.1098  -36.2622   24.6265 H   0  0  0  0  0  0
  -27.2305  -37.1394   25.8865 H   0  0  0  0  0  0
  -20.9500  -29.8785   21.6785 H   0  0  0  0  0  0
  -26.0149  -38.2802   24.1409 H   0  0  0  0  0  0
  -28.2773  -20.1465   18.4500 H   0  0  0  0  0  0
  -32.1762  -22.2828   22.1900 H   0  0  0  0  0  0
  -32.1341  -21.5109   23.8599 H   0  0  0  0  0  0
  -32.3387  -19.2748   22.8119 H   0  0  0  0  0  0
  -32.3374  -20.0436   21.1389 H   0  0  0  0  0  0
  -29.5224  -17.5439   22.3016 H   0  0  0  0  0  0
  -31.2101  -17.4709   21.7390 H   0  0  0  0  0  0
  -30.7421  -18.5845   19.7310 H   0  0  0  0  0  0
  -30.0357  -20.2364   23.2473 H   0  0  0  0  0  0
  -28.0478  -17.2227   19.8768 H   0  0  0  0  0  0
  -29.5765  -22.9685   23.3476 H   0  0  0  0  0  0
  -28.8231  -24.2628   22.4468 H   0  0  0  0  0  0
  -30.5423  -23.9659   22.2450 H   0  0  0  0  0  0
  -30.4202  -16.8189   17.9519 H   0  0  0  0  0  0
  -28.9022  -17.5937   17.5396 H   0  0  0  0  0  0
  -28.9276  -15.8824   17.9276 H   0  0  0  0  0  0
  -26.8578  -24.4118   20.5197 H   0  0  0  0  0  0
  -27.4985  -24.5350   18.9115 H   0  0  0  0  0  0
  1 25  1  0  0  0
  1 30  2  0  0  0
  1 86  1  0  0  0
  2  3  1  0  0  0
  2 25  1  0  0  0
  2 87  1  0  0  0
  2 88  1  0  0  0
  3  4  1  0  0  0
  3 89  1  0  0  0
  3 90  1  0  0  0
  4  5  1  0  0  0
  4 91  1  0  0  0
  4 92  1  0  0  0
  5  6  1  0  0  0
  5 26  1  0  0  0
  5 93  1  0  0  0
  6 25  1  0  0  0
  6 94  1  0  0  0
  6 95  1  0  0  0
  7  8  2  0  0  0
  7 26  1  0  0  0
  7 29  1  0  0  0
  8  9  1  0  0  0
  8 22  1  0  0  0
  9 10  1  0  0  0
  9 27  2  0  0  0
 10 11  2  0  0  0
 10 15  1  0  0  0
 11 12  1  0  0  0
 11 96  1  0  0  0
 12 13  2  0  0  0
 12 97  1  0  0  0
 13 14  1  0  0  0
 13 31  1  0  0  0
 14 15  2  0  0  0
 14 98  1  0  0  0
 15 99  1  0  0  0
 16 17  2  0  0  0
 16 21  1  0  0  0
 16 31  1  0  0  0
 17 18  1  0  0  0
 17100  1  0  0  0
 18 19  2  0  0  0
 18101  1  0  0  0
 19 20  1  0  0  0
 19 24  1  0  0  0
 20 21  2  0  0  0
 20102  1  0  0  0
 21 23  1  0  0  0
 22 28  1  0  0  0
 22 32  2  0  0  0
 26 27  1  0  0  0
 28103  1  0  0  0
 28104  1  0  0  0
 29105  1  0  0  0
 29106  1  0  0  0
 33 34  1  0  0  0
 33 66  1  0  0  0
 33 70  2  0  0  0
 34 36  1  0  0  0
 34 59  1  0  0  0
 34107  1  0  0  0
 35 44  2  0  0  0
 35 45  1  0  0  0
 35 68  1  0  0  0
 36 56  1  0  0  0
 36108  1  0  0  0
 37 39  1  0  0  0
 37 47  1  0  0  0
 37 66  1  0  0  0
 37109  1  0  0  0
 38 43  2  0  0  0
 38 46  1  0  0  0
 38 47  1  0  0  0
 39 64  1  0  0  0
 39 67  2  0  0  0
 40 52  1  0  0  0
 40 53  2  0  0  0
 40 58  1  0  0  0
 41110  1  0  0  0
 41111  1  0  0  0
 41112  1  0  0  0
 41 48  1  0  0  0
 42 43  1  0  0  0
 42 66  1  0  0  0
 42113  1  0  0  0
 42114  1  0  0  0
 43 44  1  0  0  0
 44115  1  0  0  0
 45 46  2  0  0  0
 45116  1  0  0  0
 46117  1  0  0  0
 47118  1  0  0  0
 47119  1  0  0  0
 48 56  1  0  0  0
 48 65  1  0  0  0
 48120  1  0  0  0
 49 50  1  0  0  0
 49 53  1  0  0  0
 49 64  1  0  0  0
 49121  1  0  0  0
 50 51  1  0  0  0
 50122  1  0  0  0
 50123  1  0  0  0
 51 52  1  0  0  0
 51124  1  0  0  0
 51125  1  0  0  0
 52126  1  0  0  0
 52127  1  0  0  0
 53 54  1  0  0  0
 54 55  2  0  0  0
 54128  1  0  0  0
 55 57  1  0  0  0
 55129  1  0  0  0
 56 69  2  0  0  0
 57 58  2  0  0  0
 57130  1  0  0  0
 58131  1  0  0  0
 59 60  1  0  0  0
 59 61  1  0  0  0
 59 62  1  0  0  0
 60132  1  0  0  0
 60133  1  0  0  0
 60134  1  0  0  0
 61135  1  0  0  0
 61136  1  0  0  0
 61137  1  0  0  0
 62138  1  0  0  0
 62139  1  0  0  0
 62140  1  0  0  0
 63 65  1  0  0  0
 63141  1  0  0  0
 63142  1  0  0  0
 63143  1  0  0  0
 64144  1  0  0  0
 65145  1  0  0  0
 68 84  1  0  0  0
 71 72  2  0  0  0
 71 85  1  0  0  0
 71146  1  0  0  0
 72 73  1  0  0  0
 72 79  1  0  0  0
 73 74  2  0  0  0
 73 80  1  0  0  0
 74 75  1  0  0  0
 74 82  1  0  0  0
 75 84  1  0  0  0
 75 85  2  0  0  0
 76 77  1  0  0  0
 76 80  1  0  0  0
 76147  1  0  0  0
 76148  1  0  0  0
 77 80  1  0  0  0
 77149  1  0  0  0
 77150  1  0  0  0
 78 79  1  0  0  0
 78 86  1  0  0  0
 78151  1  0  0  0
 78152  1  0  0  0
 79 81  1  0  0  0
 79153  1  0  0  0
 80154  1  0  0  0
 81 83  1  0  0  0
 81 86  1  0  0  0
 81155  1  0  0  0
 82156  1  0  0  0
 82157  1  0  0  0
 82158  1  0  0  0
 83159  1  0  0  0
 83160  1  0  0  0
 83161  1  0  0  0
 84162  1  0  0  0
 84163  1  0  0  0
M  ISO  4   1 100  68 101  84 101  86 100
M  END
> <chiral flag>
0

> <version>
0

> <s_m_source_file>
/data/baiqing/PycharmProjects/Reinvent-master-3.2/result/LINK_invent/BTK/process_docking_weight1_custom_sum_contain_oxygen_bond_distance_aromatic_linkinvent_7_9_3/rearranged_h_0172.sdf

> <i_m_source_file_index>
36

> <r_mmod_Potential_Energy-OPLS-2005>
609.860717773438

> <r_mmod_Stretch_Energy-OPLS-2005>
265.992584228516

> <r_mmod_Bend_Energy-OPLS-2005>
312.916351318359

> <r_mmod_Torsional_Energy-OPLS-2005>
321.183837890625

> <r_mmod_Improper_Torsional_Energy-OPLS-2005>
8.88156604766846

> <r_mmod_Van_der_Waal_Energy-OPLS-2005>
128.679061889648

> <r_mmod_Electrostatic_Energy-OPLS-2005>
-447.857666015625

> <r_mmod_Solvation_Energy-OPLS-2005>
-212.239730834961

> <b_mmod_Minimization_Converged-OPLS-2005>
0

> <r_mmod_RMS_Derivative-OPLS-2005>
1.12301695346832

$$$$
36
                    3D
 Structure written by MMmdl.
165175  0  0  1  0            999 V2000
  -30.6476  -14.7547   20.4633 C   0  0  0  0  0  0
  -30.4205  -12.4657   19.4775 C   0  0  0  0  0  0
  -29.5038  -12.5029   18.2371 C   0  0  0  0  0  0
  -28.0329  -12.3266   18.6560 C   0  0  0  0  0  0
  -27.6366  -13.2401   19.8474 C   0  0  2  0  0  0
  -28.6817  -13.2050   20.9821 C   0  0  0  0  0  0
  -25.2494  -13.8222   20.5717 C   0  0  0  0  0  0
  -24.1788  -13.0455   20.9210 C   0  0  0  0  0  0
  -24.6388  -11.6935   20.8747 C   0  0  0  0  0  0
  -23.9071  -10.4304   21.0403 C   0  0  0  0  0  0
  -24.3621   -9.4219   21.9182 C   0  0  0  0  0  0
  -23.6295   -8.2253   22.0753 C   0  0  0  0  0  0
  -22.4279   -8.0287   21.3541 C   0  0  0  0  0  0
  -21.9915   -9.0262   20.4642 C   0  0  0  0  0  0
  -22.7243  -10.2142   20.3054 C   0  0  0  0  0  0
  -21.6855   -6.0738   22.5272 C   0  0  0  0  0  0
  -21.4016   -6.5641   23.8205 C   0  0  0  0  0  0
  -21.3660   -5.6794   24.9166 C   0  0  0  0  0  0
  -21.6046   -4.3057   24.7217 C   0  0  0  0  0  0
  -21.8819   -3.8148   23.4339 C   0  0  0  0  0  0
  -21.9193   -4.6965   22.3396 C   0  0  0  0  0  0
  -22.7809  -13.5227   21.1872 C   0  0  0  0  0  0
  -22.1662   -4.2151   21.0972 F   0  0  0  0  0  0
  -21.5630   -3.4542   25.7731 F   0  0  0  0  0  0
  -29.9752  -13.5524   20.3852 N   0  0  0  0  0  0
  -26.2918  -12.9442   20.3298 N   0  0  0  0  0  0
  -25.9324  -11.6576   20.5768 N   0  0  0  0  0  0
  -22.0467  -12.8205   22.0428 N   0  0  0  0  0  0
  -25.4214  -15.1943   20.4145 N   0  0  0  0  0  0
  -31.8486  -14.7678   20.1717 O   0  0  0  0  0  0
  -21.6644   -6.8882   21.4235 O   0  0  0  0  0  0
  -22.3490  -14.5535   20.6729 O   0  0  0  0  0  0
  -24.6359  -31.8542   23.2012 C   0  0  0  0  0  0
  -25.9178  -32.4746   23.8347 C   0  0  1  0  0  0
  -27.1978  -27.2237   20.1209 C   0  0  0  0  0  0
  -25.5965  -33.8551   24.2263 N   0  0  0  0  0  0
  -23.4320  -30.4836   21.5462 C   0  0  2  0  0  0
  -24.8759  -28.9408   20.1057 C   0  0  0  0  0  0
  -22.7522  -29.4608   22.4902 C   0  0  0  0  0  0
  -18.0295  -28.1392   22.8479 C   0  0  0  0  0  0
  -24.1493  -36.7271   23.2637 C   0  0  0  0  0  0
  -25.9855  -30.7522   21.3932 C   0  0  0  0  0  0
  -26.0528  -29.3763   20.7284 C   0  0  0  0  0  0
  -27.2156  -28.5295   20.7328 C   0  0  0  0  0  0
  -26.0000  -26.8961   19.4360 C   0  0  0  0  0  0
  -24.8579  -27.7094   19.4479 C   0  0  0  0  0  0
  -23.6505  -29.8312   20.1589 C   0  0  0  0  0  0
  -25.4118  -36.3059   24.0325 C   0  0  1  0  0  0
  -20.5902  -28.3709   23.1255 C   0  0  2  0  0  0
  -20.6787  -26.9425   22.5398 C   0  0  0  0  0  0
  -19.5759  -26.6382   21.5210 C   0  0  0  0  0  0
  -18.1936  -26.7932   22.1617 C   0  0  0  0  0  0
  -19.1550  -28.8869   23.2859 C   0  0  0  0  0  0
  -18.9472  -30.1467   23.8882 C   0  0  0  0  0  0
  -17.6473  -30.6594   24.0563 C   0  0  0  0  0  0
  -25.9068  -34.9434   23.5094 C   0  0  0  0  0  0
  -16.5362  -29.9086   23.6342 C   0  0  0  0  0  0
  -16.7281  -28.6504   23.0361 C   0  0  0  0  0  0
  -26.4531  -31.6575   25.0746 C   0  0  0  0  0  0
  -25.3733  -31.3738   26.1449 C   0  0  0  0  0  0
  -27.0396  -30.2982   24.6280 C   0  0  0  0  0  0
  -27.6074  -32.4332   25.7516 C   0  0  0  0  0  0
  -27.5583  -37.1785   24.8459 C   0  0  0  0  0  0
  -21.4225  -29.3057   22.3645 N   0  0  0  0  0  0
  -26.4283  -37.3763   23.9421 N   0  0  0  0  0  0
  -24.7037  -31.0481   22.1015 N   0  0  0  0  0  0
  -23.4211  -28.8125   23.2994 O   0  0  0  0  0  0
  -28.2342  -26.2433   20.2136 O   0  0  0  0  0  0
  -26.5631  -34.8910   22.4656 O   0  0  0  0  0  0
  -23.5502  -32.1388   23.7285 O   0  0  0  0  0  0
  -28.3333  -22.7529   21.4544 C   0  0  0  0  0  0
  -28.5638  -23.4282   20.2260 C   0  0  0  0  0  0
  -28.6219  -21.3544   21.6412 C   0  0  0  0  0  0
  -29.1634  -22.5702   19.2510 C   0  0  0  0  0  0
  -29.1484  -20.5530   20.5762 C   0  0  0  0  0  0
  -30.8388  -17.3197   22.3032 C   0  0  0  0  0  0
  -31.5553  -18.2130   21.2535 C   0  0  0  0  0  0
  -28.6328  -18.0397   21.3326 C   0  0  0  0  0  0
  -30.2796  -17.0333   19.4277 C   0  0  0  0  0  0
  -29.5459  -16.7552   21.6613 C   0  0  1  0  0  0
  -30.6019  -18.4644   20.0585 C   0  0  1  0  0  0
  -28.3511  -20.7832   23.0220 C   0  0  0  0  0  0
  -29.4744  -23.0875   17.8594 C   0  0  0  0  0  0
  -27.8367  -24.8198   19.8685 C   0  0  0  0  0  0
  -29.4432  -21.2290   19.4300 N   0  0  0  0  0  0
  -29.3792  -19.1039   20.5905 N   0  0  0  0  0  0
  -29.9397  -15.9674   20.4433 N   0  0  0  0  0  0
  -31.4627  -12.5702   19.1718 H   0  0  0  0  0  0
  -30.3544  -11.4985   19.9787 H   0  0  0  0  0  0
  -29.7885  -11.7210   17.5320 H   0  0  0  0  0  0
  -29.6275  -13.4515   17.7120 H   0  0  0  0  0  0
  -27.8978  -11.2807   18.9351 H   0  0  0  0  0  0
  -27.3713  -12.5007   17.8068 H   0  0  0  0  0  0
  -27.6234  -14.2569   19.4537 H   0  0  0  0  0  0
  -28.7235  -12.2196   21.4480 H   0  0  0  0  0  0
  -28.4152  -13.9098   21.7704 H   0  0  0  0  0  0
  -25.2765   -9.5697   22.4760 H   0  0  0  0  0  0
  -24.0002   -7.4649   22.7477 H   0  0  0  0  0  0
  -21.0846   -8.8782   19.8950 H   0  0  0  0  0  0
  -22.3699  -10.9682   19.6166 H   0  0  0  0  0  0
  -21.2010   -7.6149   23.9706 H   0  0  0  0  0  0
  -21.1483   -6.0525   25.9069 H   0  0  0  0  0  0
  -22.0598   -2.7610   23.2837 H   0  0  0  0  0  0
  -22.4094  -11.9852   22.4785 H   0  0  0  0  0  0
  -21.1091  -13.1222   22.2665 H   0  0  0  0  0  0
  -24.6564  -15.8515   20.5203 H   0  0  0  0  0  0
  -26.2759  -15.6283   20.0897 H   0  0  0  0  0  0
  -26.7233  -32.5379   23.1071 H   0  0  0  0  0  0
  -25.0132  -33.9688   25.0424 H   0  0  0  0  0  0
  -22.7295  -31.3078   21.4057 H   0  0  0  0  0  0
  -23.3761  -35.9594   23.3278 H   0  0  0  0  0  0
  -24.3583  -36.8914   22.2053 H   0  0  0  0  0  0
  -23.7241  -37.6462   23.6677 H   0  0  0  0  0  0
  -26.1388  -31.5136   20.6274 H   0  0  0  0  0  0
  -26.8581  -30.7914   22.0334 H   0  0  0  0  0  0
  -28.1048  -28.8493   21.2578 H   0  0  0  0  0  0
  -25.8779  -25.9747   18.8897 H   0  0  0  0  0  0
  -23.9638  -27.3771   18.9385 H   0  0  0  0  0  0
  -23.7784  -30.6133   19.4101 H   0  0  0  0  0  0
  -22.7666  -29.2709   19.8489 H   0  0  0  0  0  0
  -25.1297  -36.1890   25.0815 H   0  0  0  0  0  0
  -20.9993  -28.3289   24.1377 H   0  0  0  0  0  0
  -20.5697  -26.2323   23.3604 H   0  0  0  0  0  0
  -21.6654  -26.7452   22.1186 H   0  0  0  0  0  0
  -19.6928  -25.6290   21.1246 H   0  0  0  0  0  0
  -19.6698  -27.3189   20.6734 H   0  0  0  0  0  0
  -17.4208  -26.6683   21.4013 H   0  0  0  0  0  0
  -18.0335  -26.0072   22.9011 H   0  0  0  0  0  0
  -19.7947  -30.7284   24.2242 H   0  0  0  0  0  0
  -17.5026  -31.6275   24.5163 H   0  0  0  0  0  0
  -15.5363  -30.2985   23.7683 H   0  0  0  0  0  0
  -15.8674  -28.0821   22.7097 H   0  0  0  0  0  0
  -24.5932  -30.7061   25.7771 H   0  0  0  0  0  0
  -24.8903  -32.2912   26.4826 H   0  0  0  0  0  0
  -25.8032  -30.8947   27.0254 H   0  0  0  0  0  0
  -26.3010  -29.6701   24.1285 H   0  0  0  0  0  0
  -27.4034  -29.7273   25.4831 H   0  0  0  0  0  0
  -27.8901  -30.4236   23.9577 H   0  0  0  0  0  0
  -27.2686  -33.3655   26.2046 H   0  0  0  0  0  0
  -28.3906  -32.6854   25.0354 H   0  0  0  0  0  0
  -28.0716  -31.8487   26.5470 H   0  0  0  0  0  0
  -28.2567  -38.0114   24.7549 H   0  0  0  0  0  0
  -28.1114  -36.2649   24.6226 H   0  0  0  0  0  0
  -27.2306  -37.1355   25.8860 H   0  0  0  0  0  0
  -20.9419  -29.8795   21.6855 H   0  0  0  0  0  0
  -26.0152  -38.2826   24.1449 H   0  0  0  0  0  0
  -27.8554  -23.3001   22.2547 H   0  0  0  0  0  0
  -30.5803  -17.9154   23.1801 H   0  0  0  0  0  0
  -31.4996  -16.5282   22.6574 H   0  0  0  0  0  0
  -32.4591  -17.7159   20.8976 H   0  0  0  0  0  0
  -31.8785  -19.1529   21.7034 H   0  0  0  0  0  0
  -28.2196  -18.4135   22.2622 H   0  0  0  0  0  0
  -27.7722  -17.7385   20.7340 H   0  0  0  0  0  0
  -31.1359  -16.7281   18.8242 H   0  0  0  0  0  0
  -29.4537  -17.1144   18.7200 H   0  0  0  0  0  0
  -29.0238  -16.1015   22.3615 H   0  0  0  0  0  0
  -31.0687  -19.1113   19.3144 H   0  0  0  0  0  0
  -28.3304  -21.5717   23.7750 H   0  0  0  0  0  0
  -29.1364  -20.0875   23.3177 H   0  0  0  0  0  0
  -27.3857  -20.2778   23.0478 H   0  0  0  0  0  0
  -29.9834  -24.0501   17.9134 H   0  0  0  0  0  0
  -28.5575  -23.2128   17.2835 H   0  0  0  0  0  0
  -30.1210  -22.4015   17.3112 H   0  0  0  0  0  0
  -26.8577  -24.6573   20.3215 H   0  0  0  0  0  0
  -27.6703  -24.8022   18.7922 H   0  0  0  0  0  0
  1 25  1  0  0  0
  1 30  2  0  0  0
  1 87  1  0  0  0
  2  3  1  0  0  0
  2 25  1  0  0  0
  2 88  1  0  0  0
  2 89  1  0  0  0
  3  4  1  0  0  0
  3 90  1  0  0  0
  3 91  1  0  0  0
  4  5  1  0  0  0
  4 92  1  0  0  0
  4 93  1  0  0  0
  5  6  1  0  0  0
  5 26  1  0  0  0
  5 94  1  0  0  0
  6 25  1  0  0  0
  6 95  1  0  0  0
  6 96  1  0  0  0
  7  8  2  0  0  0
  7 26  1  0  0  0
  7 29  1  0  0  0
  8  9  1  0  0  0
  8 22  1  0  0  0
  9 10  1  0  0  0
  9 27  2  0  0  0
 10 11  2  0  0  0
 10 15  1  0  0  0
 11 12  1  0  0  0
 11 97  1  0  0  0
 12 13  2  0  0  0
 12 98  1  0  0  0
 13 14  1  0  0  0
 13 31  1  0  0  0
 14 15  2  0  0  0
 14 99  1  0  0  0
 15100  1  0  0  0
 16 17  2  0  0  0
 16 21  1  0  0  0
 16 31  1  0  0  0
 17 18  1  0  0  0
 17101  1  0  0  0
 18 19  2  0  0  0
 18102  1  0  0  0
 19 20  1  0  0  0
 19 24  1  0  0  0
 20 21  2  0  0  0
 20103  1  0  0  0
 21 23  1  0  0  0
 22 28  1  0  0  0
 22 32  2  0  0  0
 26 27  1  0  0  0
 28104  1  0  0  0
 28105  1  0  0  0
 29106  1  0  0  0
 29107  1  0  0  0
 33 34  1  0  0  0
 33 66  1  0  0  0
 33 70  2  0  0  0
 34 36  1  0  0  0
 34 59  1  0  0  0
 34108  1  0  0  0
 35 44  2  0  0  0
 35 45  1  0  0  0
 35 68  1  0  0  0
 36 56  1  0  0  0
 36109  1  0  0  0
 37 39  1  0  0  0
 37 47  1  0  0  0
 37 66  1  0  0  0
 37110  1  0  0  0
 38 43  2  0  0  0
 38 46  1  0  0  0
 38 47  1  0  0  0
 39 64  1  0  0  0
 39 67  2  0  0  0
 40 52  1  0  0  0
 40 53  2  0  0  0
 40 58  1  0  0  0
 41111  1  0  0  0
 41112  1  0  0  0
 41113  1  0  0  0
 41 48  1  0  0  0
 42 43  1  0  0  0
 42 66  1  0  0  0
 42114  1  0  0  0
 42115  1  0  0  0
 43 44  1  0  0  0
 44116  1  0  0  0
 45 46  2  0  0  0
 45117  1  0  0  0
 46118  1  0  0  0
 47119  1  0  0  0
 47120  1  0  0  0
 48 56  1  0  0  0
 48 65  1  0  0  0
 48121  1  0  0  0
 49 50  1  0  0  0
 49 53  1  0  0  0
 49 64  1  0  0  0
 49122  1  0  0  0
 50 51  1  0  0  0
 50123  1  0  0  0
 50124  1  0  0  0
 51 52  1  0  0  0
 51125  1  0  0  0
 51126  1  0  0  0
 52127  1  0  0  0
 52128  1  0  0  0
 53 54  1  0  0  0
 54 55  2  0  0  0
 54129  1  0  0  0
 55 57  1  0  0  0
 55130  1  0  0  0
 56 69  2  0  0  0
 57 58  2  0  0  0
 57131  1  0  0  0
 58132  1  0  0  0
 59 60  1  0  0  0
 59 61  1  0  0  0
 59 62  1  0  0  0
 60133  1  0  0  0
 60134  1  0  0  0
 60135  1  0  0  0
 61136  1  0  0  0
 61137  1  0  0  0
 61138  1  0  0  0
 62139  1  0  0  0
 62140  1  0  0  0
 62141  1  0  0  0
 63 65  1  0  0  0
 63142  1  0  0  0
 63143  1  0  0  0
 63144  1  0  0  0
 64145  1  0  0  0
 65146  1  0  0  0
 68 84  1  0  0  0
 71 72  2  0  0  0
 71 73  1  0  0  0
 71147  1  0  0  0
 72 74  1  0  0  0
 72 84  1  0  0  0
 73 75  2  0  0  0
 73 82  1  0  0  0
 74 83  1  0  0  0
 74 85  2  0  0  0
 75 85  1  0  0  0
 75 86  1  0  0  0
 76 77  1  0  0  0
 76148  1  0  0  0
 76149  1  0  0  0
 76 80  1  0  0  0
 77150  1  0  0  0
 77151  1  0  0  0
 77 81  1  0  0  0
 78 80  1  0  0  0
 78 86  1  0  0  0
 78152  1  0  0  0
 78153  1  0  0  0
 79 81  1  0  0  0
 79 87  1  0  0  0
 79154  1  0  0  0
 79155  1  0  0  0
 80 87  1  0  0  0
 80156  1  0  0  0
 81 86  1  0  0  0
 81157  1  0  0  0
 82158  1  0  0  0
 82159  1  0  0  0
 82160  1  0  0  0
 83161  1  0  0  0
 83162  1  0  0  0
 83163  1  0  0  0
 84164  1  0  0  0
 84165  1  0  0  0
M  ISO  4   1 100  68 101  84 101  87 100
M  END
> <chiral flag>
0

> <version>
0

> <s_m_source_file>
/data/baiqing/PycharmProjects/Reinvent-master-3.2/result/LINK_invent/BTK/process_docking_weight1_custom_sum_contain_oxygen_bond_distance_aromatic_linkinvent_7_9_3/rearranged_h_0172.sdf

> <i_m_source_file_index>
37

> <r_mmod_Potential_Energy-OPLS-2005>
385.3603515625

> <r_mmod_Stretch_Energy-OPLS-2005>
140.382461547852

> <r_mmod_Bend_Energy-OPLS-2005>
236.081619262695

> <r_mmod_Torsional_Energy-OPLS-2005>
430.959136962891

> <r_mmod_Improper_Torsional_Energy-OPLS-2005>
20.0535907745361

> <r_mmod_Van_der_Waal_Energy-OPLS-2005>
188.412643432617

> <r_mmod_Electrostatic_Energy-OPLS-2005>
-518.027099609375

> <r_mmod_Solvation_Energy-OPLS-2005>
-221.694641113281

> <b_mmod_Minimization_Converged-OPLS-2005>
0

> <r_mmod_RMS_Derivative-OPLS-2005>
0.860931217670441

$$$$
37
                    3D
 Structure written by MMmdl.
159168  0  0  1  0            999 V2000
  -30.4934  -15.1123   20.3994 C   0  0  0  0  0  0
  -30.4336  -12.6995   19.5191 C   0  0  0  0  0  0
  -29.5296  -12.5524   18.2729 C   0  0  0  0  0  0
  -28.0674  -12.3146   18.6878 C   0  0  0  0  0  0
  -27.6165  -13.2666   19.8250 C   0  0  2  0  0  0
  -28.6515  -13.3756   20.9625 C   0  0  0  0  0  0
  -25.2425  -13.8258   20.5744 C   0  0  0  0  0  0
  -24.1759  -13.0453   20.9227 C   0  0  0  0  0  0
  -24.6396  -11.6942   20.8732 C   0  0  0  0  0  0
  -23.9092  -10.4305   21.0388 C   0  0  0  0  0  0
  -24.3640   -9.4214   21.9168 C   0  0  0  0  0  0
  -23.6313   -8.2249   22.0746 C   0  0  0  0  0  0
  -22.4289   -8.0289   21.3543 C   0  0  0  0  0  0
  -21.9929   -9.0252   20.4639 C   0  0  0  0  0  0
  -22.7262  -10.2132   20.3047 C   0  0  0  0  0  0
  -21.6862   -6.0738   22.5275 C   0  0  0  0  0  0
  -21.4011   -6.5638   23.8204 C   0  0  0  0  0  0
  -21.3657   -5.6794   24.9167 C   0  0  0  0  0  0
  -21.6051   -4.3060   24.7220 C   0  0  0  0  0  0
  -21.8826   -3.8149   23.4341 C   0  0  0  0  0  0
  -21.9202   -4.6969   22.3397 C   0  0  0  0  0  0
  -22.7776  -13.5196   21.1886 C   0  0  0  0  0  0
  -22.1676   -4.2155   21.0976 F   0  0  0  0  0  0
  -21.5628   -3.4539   25.7734 F   0  0  0  0  0  0
  -29.9050  -13.8320   20.3530 N   0  0  0  0  0  0
  -26.2830  -12.9498   20.3201 N   0  0  0  0  0  0
  -25.9323  -11.6606   20.5683 N   0  0  0  0  0  0
  -22.0450  -12.8141   22.0438 N   0  0  0  0  0  0
  -25.4137  -15.1994   20.4246 N   0  0  0  0  0  0
  -31.7064  -15.1209   20.1555 O   0  0  0  0  0  0
  -21.6648   -6.8883   21.4243 O   0  0  0  0  0  0
  -22.3427  -14.5491   20.6745 O   0  0  0  0  0  0
  -24.6557  -31.8347   23.1788 C   0  0  0  0  0  0
  -25.9282  -32.4651   23.8221 C   0  0  1  0  0  0
  -27.2152  -27.0209   20.1827 C   0  0  0  0  0  0
  -25.6002  -33.8462   24.2162 N   0  0  0  0  0  0
  -23.4632  -30.4503   21.5235 C   0  0  2  0  0  0
  -24.9169  -28.8522   20.1145 C   0  0  0  0  0  0
  -22.7619  -29.4519   22.4803 C   0  0  0  0  0  0
  -18.0317  -28.1402   22.8468 C   0  0  0  0  0  0
  -24.1504  -36.7227   23.2640 C   0  0  0  0  0  0
  -26.0281  -30.6737   21.3938 C   0  0  0  0  0  0
  -26.0979  -29.2699   20.7426 C   0  0  0  0  0  0
  -27.2486  -28.3744   20.7514 C   0  0  0  0  0  0
  -26.0109  -26.7357   19.5042 C   0  0  0  0  0  0
  -24.8939  -27.6030   19.4759 C   0  0  0  0  0  0
  -23.6976  -29.7688   20.1484 C   0  0  0  0  0  0
  -25.4142  -36.3005   24.0309 C   0  0  1  0  0  0
  -20.5936  -28.3764   23.1207 C   0  0  2  0  0  0
  -20.6799  -26.9458   22.5395 C   0  0  0  0  0  0
  -19.5777  -26.6386   21.5198 C   0  0  0  0  0  0
  -18.1953  -26.7935   22.1609 C   0  0  0  0  0  0
  -19.1570  -28.8895   23.2827 C   0  0  0  0  0  0
  -18.9489  -30.1483   23.8867 C   0  0  0  0  0  0
  -17.6484  -30.6594   24.0543 C   0  0  0  0  0  0
  -25.9100  -34.9386   23.5045 C   0  0  0  0  0  0
  -16.5377  -29.9085   23.6324 C   0  0  0  0  0  0
  -16.7302  -28.6497   23.0362 C   0  0  0  0  0  0
  -26.4561  -31.6538   25.0690 C   0  0  0  0  0  0
  -25.3710  -31.3728   26.1359 C   0  0  0  0  0  0
  -27.0430  -30.2923   24.6324 C   0  0  0  0  0  0
  -27.6090  -32.4296   25.7474 C   0  0  0  0  0  0
  -27.5582  -37.1776   24.8464 C   0  0  0  0  0  0
  -21.4302  -29.3066   22.3551 N   0  0  0  0  0  0
  -26.4292  -37.3732   23.9404 N   0  0  0  0  0  0
  -24.7353  -31.0111   22.0861 N   0  0  0  0  0  0
  -23.4214  -28.8079   23.3000 O   0  0  0  0  0  0
  -28.2351  -25.9657   20.2050 O   0  0  0  0  0  0
  -26.5681  -34.8885   22.4620 O   0  0  0  0  0  0
  -23.5657  -32.1288   23.6946 O   0  0  0  0  0  0
  -29.9333  -20.6338   18.8942 C   0  0  0  0  0  0
  -29.2554  -20.3156   20.0859 C   0  0  0  0  0  0
  -28.6394  -21.5735   20.6759 C   0  0  0  0  0  0
  -28.6895  -22.9737   20.0749 C   0  0  0  0  0  0
  -29.3925  -22.9593   18.8495 C   0  0  0  0  0  0
  -29.2782  -17.3636   19.5256 C   0  0  0  0  0  0
  -29.2304  -18.6514   20.5028 C   0  0  1  0  0  0
  -30.3019  -17.6801   21.2112 C   0  0  1  0  0  0
  -27.9041  -21.4183   21.9929 C   0  0  0  0  0  0
  -29.4886  -24.2070   17.9916 C   0  0  0  0  0  0
  -30.2909  -17.5704   22.7309 C   0  0  0  0  0  0
  -27.9345  -24.4271   20.5716 C   0  0  0  0  0  0
  -29.9946  -21.8623   18.3187 N   0  0  0  0  0  0
  -29.7675  -16.3724   20.5871 N   0  0  0  0  0  0
  -31.4609  -12.8749   19.1992 H   0  0  0  0  0  0
  -30.4609  -11.7697   20.0902 H   0  0  0  0  0  0
  -29.8773  -11.7336   17.6409 H   0  0  0  0  0  0
  -29.5972  -13.4569   17.6679 H   0  0  0  0  0  0
  -27.9859  -11.2806   19.0211 H   0  0  0  0  0  0
  -27.4068  -12.4104   17.8251 H   0  0  0  0  0  0
  -27.5534  -14.2486   19.3579 H   0  0  0  0  0  0
  -28.7782  -12.4235   21.4787 H   0  0  0  0  0  0
  -28.3202  -14.1008   21.7072 H   0  0  0  0  0  0
  -25.2797   -9.5682   22.4713 H   0  0  0  0  0  0
  -24.0043   -7.4630   22.7447 H   0  0  0  0  0  0
  -21.0880   -8.8761   19.8912 H   0  0  0  0  0  0
  -22.3742  -10.9657   19.6137 H   0  0  0  0  0  0
  -21.1993   -7.6147   23.9707 H   0  0  0  0  0  0
  -21.1471   -6.0519   25.9068 H   0  0  0  0  0  0
  -22.0608   -2.7617   23.2837 H   0  0  0  0  0  0
  -22.4121  -11.9850   22.4867 H   0  0  0  0  0  0
  -21.1031  -13.1067   22.2594 H   0  0  0  0  0  0
  -24.6655  -15.8674   20.5768 H   0  0  0  0  0  0
  -26.2843  -15.6372   20.1473 H   0  0  0  0  0  0
  -26.7335  -32.5220   23.0924 H   0  0  0  0  0  0
  -25.0111  -33.9561   25.0291 H   0  0  0  0  0  0
  -22.7705  -31.2789   21.3572 H   0  0  0  0  0  0
  -23.3774  -35.9543   23.3267 H   0  0  0  0  0  0
  -24.3598  -36.8900   22.2060 H   0  0  0  0  0  0
  -23.7243  -37.6402   23.6710 H   0  0  0  0  0  0
  -26.1953  -31.4212   20.6163 H   0  0  0  0  0  0
  -26.8939  -30.7306   22.0428 H   0  0  0  0  0  0
  -28.1508  -28.6932   21.2550 H   0  0  0  0  0  0
  -25.9121  -25.7869   18.9963 H   0  0  0  0  0  0
  -23.9978  -27.2810   18.9646 H   0  0  0  0  0  0
  -23.8510  -30.5393   19.3920 H   0  0  0  0  0  0
  -22.8065  -29.2210   19.8317 H   0  0  0  0  0  0
  -25.1331  -36.1798   25.0798 H   0  0  0  0  0  0
  -21.0032  -28.3360   24.1333 H   0  0  0  0  0  0
  -20.5694  -26.2379   23.3625 H   0  0  0  0  0  0
  -21.6663  -26.7452   22.1195 H   0  0  0  0  0  0
  -19.6953  -25.6280   21.1266 H   0  0  0  0  0  0
  -19.6712  -27.3156   20.6694 H   0  0  0  0  0  0
  -17.4225  -26.6678   21.4005 H   0  0  0  0  0  0
  -18.0380  -26.0079   22.9016 H   0  0  0  0  0  0
  -19.7962  -30.7294   24.2247 H   0  0  0  0  0  0
  -17.5034  -31.6273   24.5149 H   0  0  0  0  0  0
  -15.5377  -30.2978   23.7673 H   0  0  0  0  0  0
  -15.8700  -28.0798   22.7133 H   0  0  0  0  0  0
  -24.5923  -30.7052   25.7649 H   0  0  0  0  0  0
  -24.8849  -32.2892   26.4715 H   0  0  0  0  0  0
  -25.7981  -30.8934   27.0178 H   0  0  0  0  0  0
  -26.3067  -29.6611   24.1339 H   0  0  0  0  0  0
  -27.4015  -29.7269   25.4933 H   0  0  0  0  0  0
  -27.8985  -30.4129   23.9675 H   0  0  0  0  0  0
  -27.2722  -33.3639   26.1979 H   0  0  0  0  0  0
  -28.3948  -32.6792   25.0327 H   0  0  0  0  0  0
  -28.0699  -31.8441   26.5441 H   0  0  0  0  0  0
  -28.2578  -38.0097   24.7527 H   0  0  0  0  0  0
  -28.1109  -36.2624   24.6274 H   0  0  0  0  0  0
  -27.2295  -37.1376   25.8867 H   0  0  0  0  0  0
  -20.9558  -29.8756   21.6678 H   0  0  0  0  0  0
  -26.0141  -38.2792   24.1403 H   0  0  0  0  0  0
  -30.4339  -19.8509   18.3437 H   0  0  0  0  0  0
  -29.9851  -17.4776   18.6999 H   0  0  0  0  0  0
  -28.2966  -17.1222   19.1190 H   0  0  0  0  0  0
  -28.3068  -18.5550   21.0741 H   0  0  0  0  0  0
  -31.3082  -17.9035   20.8465 H   0  0  0  0  0  0
  -27.4302  -20.4402   22.0736 H   0  0  0  0  0  0
  -27.1250  -22.1720   22.1025 H   0  0  0  0  0  0
  -28.5993  -21.5284   22.8261 H   0  0  0  0  0  0
  -28.4979  -24.6316   17.8223 H   0  0  0  0  0  0
  -29.9181  -23.9929   17.0125 H   0  0  0  0  0  0
  -30.1143  -24.9599   18.4703 H   0  0  0  0  0  0
  -29.2868  -17.3741   23.1075 H   0  0  0  0  0  0
  -30.6338  -18.4981   23.1893 H   0  0  0  0  0  0
  -30.9387  -16.7670   23.0825 H   0  0  0  0  0  0
  -28.0157  -24.4091   21.6581 H   0  0  0  0  0  0
  -26.8735  -24.2599   20.3906 H   0  0  0  0  0  0
  1 25  1  0  0  0
  1 30  2  0  0  0
  1 84  1  0  0  0
  2  3  1  0  0  0
  2 25  1  0  0  0
  2 85  1  0  0  0
  2 86  1  0  0  0
  3  4  1  0  0  0
  3 87  1  0  0  0
  3 88  1  0  0  0
  4  5  1  0  0  0
  4 89  1  0  0  0
  4 90  1  0  0  0
  5  6  1  0  0  0
  5 26  1  0  0  0
  5 91  1  0  0  0
  6 25  1  0  0  0
  6 92  1  0  0  0
  6 93  1  0  0  0
  7  8  2  0  0  0
  7 26  1  0  0  0
  7 29  1  0  0  0
  8  9  1  0  0  0
  8 22  1  0  0  0
  9 10  1  0  0  0
  9 27  2  0  0  0
 10 11  2  0  0  0
 10 15  1  0  0  0
 11 12  1  0  0  0
 11 94  1  0  0  0
 12 13  2  0  0  0
 12 95  1  0  0  0
 13 14  1  0  0  0
 13 31  1  0  0  0
 14 15  2  0  0  0
 14 96  1  0  0  0
 15 97  1  0  0  0
 16 17  2  0  0  0
 16 21  1  0  0  0
 16 31  1  0  0  0
 17 18  1  0  0  0
 17 98  1  0  0  0
 18 19  2  0  0  0
 18 99  1  0  0  0
 19 20  1  0  0  0
 19 24  1  0  0  0
 20 21  2  0  0  0
 20100  1  0  0  0
 21 23  1  0  0  0
 22 28  1  0  0  0
 22 32  2  0  0  0
 26 27  1  0  0  0
 28101  1  0  0  0
 28102  1  0  0  0
 29103  1  0  0  0
 29104  1  0  0  0
 33 34  1  0  0  0
 33 66  1  0  0  0
 33 70  2  0  0  0
 34 36  1  0  0  0
 34 59  1  0  0  0
 34105  1  0  0  0
 35 44  2  0  0  0
 35 45  1  0  0  0
 35 68  1  0  0  0
 36 56  1  0  0  0
 36106  1  0  0  0
 37 39  1  0  0  0
 37 47  1  0  0  0
 37 66  1  0  0  0
 37107  1  0  0  0
 38 43  2  0  0  0
 38 46  1  0  0  0
 38 47  1  0  0  0
 39 64  1  0  0  0
 39 67  2  0  0  0
 40 52  1  0  0  0
 40 53  2  0  0  0
 40 58  1  0  0  0
 41108  1  0  0  0
 41109  1  0  0  0
 41110  1  0  0  0
 41 48  1  0  0  0
 42 43  1  0  0  0
 42 66  1  0  0  0
 42111  1  0  0  0
 42112  1  0  0  0
 43 44  1  0  0  0
 44113  1  0  0  0
 45 46  2  0  0  0
 45114  1  0  0  0
 46115  1  0  0  0
 47116  1  0  0  0
 47117  1  0  0  0
 48 56  1  0  0  0
 48 65  1  0  0  0
 48118  1  0  0  0
 49 50  1  0  0  0
 49 53  1  0  0  0
 49 64  1  0  0  0
 49119  1  0  0  0
 50 51  1  0  0  0
 50120  1  0  0  0
 50121  1  0  0  0
 51 52  1  0  0  0
 51122  1  0  0  0
 51123  1  0  0  0
 52124  1  0  0  0
 52125  1  0  0  0
 53 54  1  0  0  0
 54 55  2  0  0  0
 54126  1  0  0  0
 55 57  1  0  0  0
 55127  1  0  0  0
 56 69  2  0  0  0
 57 58  2  0  0  0
 57128  1  0  0  0
 58129  1  0  0  0
 59 60  1  0  0  0
 59 61  1  0  0  0
 59 62  1  0  0  0
 60130  1  0  0  0
 60131  1  0  0  0
 60132  1  0  0  0
 61133  1  0  0  0
 61134  1  0  0  0
 61135  1  0  0  0
 62136  1  0  0  0
 62137  1  0  0  0
 62138  1  0  0  0
 63 65  1  0  0  0
 63139  1  0  0  0
 63140  1  0  0  0
 63141  1  0  0  0
 64142  1  0  0  0
 65143  1  0  0  0
 68 82  1  0  0  0
 71 72  2  0  0  0
 71 83  1  0  0  0
 71144  1  0  0  0
 72 73  1  0  0  0
 72 77  1  0  0  0
 73 74  2  0  0  0
 73 79  1  0  0  0
 74 75  1  0  0  0
 74 82  1  0  0  0
 75 80  1  0  0  0
 75 83  2  0  0  0
 76 77  1  0  0  0
 76 84  1  0  0  0
 76145  1  0  0  0
 76146  1  0  0  0
 77 78  1  0  0  0
 77147  1  0  0  0
 78 81  1  0  0  0
 78 84  1  0  0  0
 78148  1  0  0  0
 79149  1  0  0  0
 79150  1  0  0  0
 79151  1  0  0  0
 80152  1  0  0  0
 80153  1  0  0  0
 80154  1  0  0  0
 81155  1  0  0  0
 81156  1  0  0  0
 81157  1  0  0  0
 82158  1  0  0  0
 82159  1  0  0  0
M  ISO  4   1 100  68 101  82 101  84 100
M  END
> <chiral flag>
0

> <version>
0

> <s_m_source_file>
/data/baiqing/PycharmProjects/Reinvent-master-3.2/result/LINK_invent/BTK/process_docking_weight1_custom_sum_contain_oxygen_bond_distance_aromatic_linkinvent_7_9_3/rearranged_h_0172.sdf

> <i_m_source_file_index>
38

> <r_mmod_Potential_Energy-OPLS-2005>
795.585815429688

> <r_mmod_Stretch_Energy-OPLS-2005>
383.28564453125

> <r_mmod_Bend_Energy-OPLS-2005>
326.038757324219

> <r_mmod_Torsional_Energy-OPLS-2005>
289.617645263672

> <r_mmod_Improper_Torsional_Energy-OPLS-2005>
10.1600217819214

> <r_mmod_Van_der_Waal_Energy-OPLS-2005>
119.670539855957

> <r_mmod_Electrostatic_Energy-OPLS-2005>
-442.900848388672

> <r_mmod_Solvation_Energy-OPLS-2005>
-206.757400512695

> <b_mmod_Minimization_Converged-OPLS-2005>
0

> <r_mmod_RMS_Derivative-OPLS-2005>
2.78922200202942

$$$$
38
                    3D
 Structure written by MMmdl.
169179  0  0  1  0            999 V2000
  -30.5885  -14.7364   20.4959 C   0  0  0  0  0  0
  -30.4354  -12.4532   19.4815 C   0  0  0  0  0  0
  -29.5155  -12.5525   18.2422 C   0  0  0  0  0  0
  -28.0368  -12.3655   18.6396 C   0  0  0  0  0  0
  -27.6483  -13.2344   19.8642 C   0  0  2  0  0  0
  -28.6877  -13.1223   21.0022 C   0  0  0  0  0  0
  -25.2533  -13.8207   20.5760 C   0  0  0  0  0  0
  -24.1799  -13.0438   20.9192 C   0  0  0  0  0  0
  -24.6400  -11.6916   20.8712 C   0  0  0  0  0  0
  -23.9057  -10.4302   21.0371 C   0  0  0  0  0  0
  -24.3616   -9.4232   21.9173 C   0  0  0  0  0  0
  -23.6286   -8.2255   22.0764 C   0  0  0  0  0  0
  -22.4265   -8.0285   21.3549 C   0  0  0  0  0  0
  -21.9901   -9.0275   20.4667 C   0  0  0  0  0  0
  -22.7226  -10.2142   20.3042 C   0  0  0  0  0  0
  -21.6851   -6.0723   22.5280 C   0  0  0  0  0  0
  -21.4016   -6.5612   23.8216 C   0  0  0  0  0  0
  -21.3669   -5.6770   24.9181 C   0  0  0  0  0  0
  -21.6040   -4.3032   24.7230 C   0  0  0  0  0  0
  -21.8808   -3.8133   23.4350 C   0  0  0  0  0  0
  -21.9203   -4.6957   22.3408 C   0  0  0  0  0  0
  -22.7810  -13.5226   21.1832 C   0  0  0  0  0  0
  -22.1655   -4.2143   21.0980 F   0  0  0  0  0  0
  -21.5655   -3.4514   25.7742 F   0  0  0  0  0  0
  -29.9991  -13.4882   20.4497 N   0  0  0  0  0  0
  -26.2965  -12.9421   20.3307 N   0  0  0  0  0  0
  -25.9323  -11.6551   20.5702 N   0  0  0  0  0  0
  -22.0440  -12.8270   22.0397 N   0  0  0  0  0  0
  -25.4258  -15.1928   20.4301 N   0  0  0  0  0  0
  -31.7292  -14.8847   20.0425 O   0  0  0  0  0  0
  -21.6626   -6.8883   21.4243 O   0  0  0  0  0  0
  -22.3488  -14.5532   20.6687 O   0  0  0  0  0  0
  -24.6322  -31.8542   23.1981 C   0  0  0  0  0  0
  -25.9147  -32.4756   23.8324 C   0  0  1  0  0  0
  -27.2136  -27.2472   20.1304 C   0  0  0  0  0  0
  -25.5937  -33.8552   24.2254 N   0  0  0  0  0  0
  -23.4286  -30.4784   21.5410 C   0  0  2  0  0  0
  -24.8743  -28.9206   20.1157 C   0  0  0  0  0  0
  -22.7501  -29.4605   22.4898 C   0  0  0  0  0  0
  -18.0314  -28.1414   22.8498 C   0  0  0  0  0  0
  -24.1476  -36.7256   23.2638 C   0  0  0  0  0  0
  -25.9746  -30.7637   21.3794 C   0  0  0  0  0  0
  -26.0482  -29.3824   20.7252 C   0  0  0  0  0  0
  -27.2226  -28.5583   20.7199 C   0  0  0  0  0  0
  -26.0143  -26.8552   19.5039 C   0  0  0  0  0  0
  -24.8641  -27.6640   19.4917 C   0  0  0  0  0  0
  -23.6470  -29.8103   20.1592 C   0  0  0  0  0  0
  -25.4110  -36.3066   24.0334 C   0  0  1  0  0  0
  -20.5910  -28.3706   23.1285 C   0  0  2  0  0  0
  -20.6783  -26.9418   22.5424 C   0  0  0  0  0  0
  -19.5749  -26.6414   21.5226 C   0  0  0  0  0  0
  -18.1941  -26.7966   22.1644 C   0  0  0  0  0  0
  -19.1566  -28.8882   23.2897 C   0  0  0  0  0  0
  -18.9476  -30.1485   23.8902 C   0  0  0  0  0  0
  -17.6468  -30.6611   24.0572 C   0  0  0  0  0  0
  -25.9049  -34.9439   23.5104 C   0  0  0  0  0  0
  -16.5364  -29.9102   23.6336 C   0  0  0  0  0  0
  -16.7298  -28.6525   23.0359 C   0  0  0  0  0  0
  -26.4514  -31.6592   25.0712 C   0  0  0  0  0  0
  -25.3723  -31.3761   26.1426 C   0  0  0  0  0  0
  -27.0343  -30.3009   24.6204 C   0  0  0  0  0  0
  -27.6096  -32.4315   25.7464 C   0  0  0  0  0  0
  -27.5578  -37.1783   24.8468 C   0  0  0  0  0  0
  -21.4204  -29.3050   22.3648 N   0  0  0  0  0  0
  -26.4278  -37.3777   23.9421 N   0  0  0  0  0  0
  -24.6978  -31.0508   22.0961 N   0  0  0  0  0  0
  -23.4209  -28.8133   23.2984 O   0  0  0  0  0  0
  -28.3055  -26.3449   20.1081 O   0  0  0  0  0  0
  -26.5626  -34.8907   22.4667 O   0  0  0  0  0  0
  -23.5475  -32.1361   23.7276 O   0  0  0  0  0  0
  -28.1132  -19.3559   19.3825 C   0  0  0  0  0  0
  -29.7760  -18.3875   20.8326 C   0  0  0  0  0  0
  -29.1374  -19.5951   20.3172 C   0  0  0  0  0  0
  -27.7701  -18.0362   19.0304 C   0  0  0  0  0  0
  -29.4014  -17.0470   20.4089 C   0  0  0  0  0  0
  -26.8398  -16.8736   16.8925 C   0  0  0  0  0  0
  -26.5570  -18.3450   16.7211 C   0  0  0  0  0  0
  -30.8744  -21.1987   21.3076 C   0  0  0  0  0  0
  -30.7038  -23.0779   19.9210 C   0  0  0  0  0  0
  -29.4298  -21.1011   20.7815 C   0  0  1  0  0  0
  -26.6281  -17.7444   18.1075 C   0  0  0  0  0  0
  -29.3244  -22.4036   19.8008 C   0  0  1  0  0  0
  -27.6013  -23.7523   18.4032 C   0  0  0  0  0  0
  -28.1474  -24.9449   20.6563 C   0  0  0  0  0  0
  -28.1257  -23.5225   19.8341 C   0  0  2  0  0  0
  -28.3862  -16.9396   19.5276 N   0  0  0  0  0  0
  -29.8726  -15.7950   21.0309 N   0  0  0  0  0  0
  -31.2800  -22.6044   21.1855 N   0  3  0  0  0  0
  -31.4797  -12.5764   19.1888 H   0  0  0  0  0  0
  -30.3701  -11.4604   19.9332 H   0  0  0  0  0  0
  -29.8058  -11.8164   17.4925 H   0  0  0  0  0  0
  -29.6427  -13.5292   17.7714 H   0  0  0  0  0  0
  -27.8780  -11.3115   18.8679 H   0  0  0  0  0  0
  -27.3895  -12.5992   17.7935 H   0  0  0  0  0  0
  -27.6556  -14.2652   19.5100 H   0  0  0  0  0  0
  -28.7158  -12.1045   21.3958 H   0  0  0  0  0  0
  -28.4077  -13.7608   21.8418 H   0  0  0  0  0  0
  -25.2756   -9.5707   22.4742 H   0  0  0  0  0  0
  -24.0013   -7.4632   22.7444 H   0  0  0  0  0  0
  -21.0852   -8.8780   19.8951 H   0  0  0  0  0  0
  -22.3688  -10.9687   19.6132 H   0  0  0  0  0  0
  -21.1978   -7.6107   23.9727 H   0  0  0  0  0  0
  -21.1500   -6.0484   25.9089 H   0  0  0  0  0  0
  -22.0588   -2.7600   23.2836 H   0  0  0  0  0  0
  -22.4062  -11.9968   22.4837 H   0  0  0  0  0  0
  -21.1066  -13.1341   22.2590 H   0  0  0  0  0  0
  -24.6689  -15.8505   20.5850 H   0  0  0  0  0  0
  -26.2948  -15.6420   20.1600 H   0  0  0  0  0  0
  -26.7185  -32.5404   23.1033 H   0  0  0  0  0  0
  -25.0069  -33.9662   25.0399 H   0  0  0  0  0  0
  -22.7260  -31.3026   21.3983 H   0  0  0  0  0  0
  -23.3766  -35.9557   23.3290 H   0  0  0  0  0  0
  -24.3560  -36.8890   22.2051 H   0  0  0  0  0  0
  -23.7196  -37.6441   23.6659 H   0  0  0  0  0  0
  -26.1138  -31.5237   20.6096 H   0  0  0  0  0  0
  -26.8521  -30.8150   22.0131 H   0  0  0  0  0  0
  -28.1216  -28.9066   21.2082 H   0  0  0  0  0  0
  -25.9515  -25.9015   19.0173 H   0  0  0  0  0  0
  -23.9658  -27.3089   19.0051 H   0  0  0  0  0  0
  -23.7661  -30.5840   19.3986 H   0  0  0  0  0  0
  -22.7658  -29.2408   19.8572 H   0  0  0  0  0  0
  -25.1296  -36.1897   25.0832 H   0  0  0  0  0  0
  -21.0044  -28.3290   24.1389 H   0  0  0  0  0  0
  -20.5712  -26.2298   23.3627 H   0  0  0  0  0  0
  -21.6648  -26.7462   22.1203 H   0  0  0  0  0  0
  -19.6891  -25.6330   21.1251 H   0  0  0  0  0  0
  -19.6692  -27.3217   20.6749 H   0  0  0  0  0  0
  -17.4217  -26.6754   21.4036 H   0  0  0  0  0  0
  -18.0318  -26.0121   22.9050 H   0  0  0  0  0  0
  -19.7942  -30.7334   24.2261 H   0  0  0  0  0  0
  -17.5012  -31.6277   24.5191 H   0  0  0  0  0  0
  -15.5362  -30.3001   23.7660 H   0  0  0  0  0  0
  -15.8708  -28.0849   22.7055 H   0  0  0  0  0  0
  -24.5902  -30.7109   25.7743 H   0  0  0  0  0  0
  -24.8893  -32.2930   26.4813 H   0  0  0  0  0  0
  -25.8027  -30.8962   27.0225 H   0  0  0  0  0  0
  -26.2903  -29.6760   24.1248 H   0  0  0  0  0  0
  -27.4035  -29.7286   25.4725 H   0  0  0  0  0  0
  -27.8790  -30.4276   23.9429 H   0  0  0  0  0  0
  -27.2771  -33.3672   26.1967 H   0  0  0  0  0  0
  -28.3941  -32.6788   25.0296 H   0  0  0  0  0  0
  -28.0713  -31.8467   26.5426 H   0  0  0  0  0  0
  -28.2619  -38.0063   24.7549 H   0  0  0  0  0  0
  -28.1069  -36.2614   24.6278 H   0  0  0  0  0  0
  -27.2302  -37.1410   25.8871 H   0  0  0  0  0  0
  -20.9377  -29.8742   21.6838 H   0  0  0  0  0  0
  -26.0166  -38.2848   24.1454 H   0  0  0  0  0  0
  -27.5594  -20.1822   18.9588 H   0  0  0  0  0  0
  -30.5423  -18.4779   21.5900 H   0  0  0  0  0  0
  -27.8547  -16.5319   16.7021 H   0  0  0  0  0  0
  -26.0483  -16.1702   16.6398 H   0  0  0  0  0  0
  -25.5762  -18.6093   16.3290 H   0  0  0  0  0  0
  -27.3795  -18.9791   16.3980 H   0  0  0  0  0  0
  -31.5431  -20.6206   20.6664 H   0  0  0  0  0  0
  -30.9786  -20.8236   22.3258 H   0  0  0  0  0  0
  -30.6788  -24.1660   19.8595 H   0  0  0  0  0  0
  -31.3446  -22.7311   19.1065 H   0  0  0  0  0  0
  -28.7594  -21.2905   21.6194 H   0  0  0  0  0  0
  -25.6966  -17.6484   18.6585 H   0  0  0  0  0  0
  -29.3190  -21.9648   18.8025 H   0  0  0  0  0  0
  -27.6308  -22.8453   17.7977 H   0  0  0  0  0  0
  -28.1806  -24.5204   17.8892 H   0  0  0  0  0  0
  -26.5558  -24.0495   18.4016 H   0  0  0  0  0  0
  -28.9036  -24.8533   21.4359 H   0  0  0  0  0  0
  -27.2165  -24.9633   21.2239 H   0  0  0  0  0  0
  -27.3249  -22.9595   20.3180 H   0  0  0  0  0  0
  -29.1464  -15.4089   21.6139 H   0  0  0  0  0  0
  -32.2838  -22.6998   21.1956 H   0  0  0  0  0  0
  -30.9044  -23.1363   21.9530 H   0  0  0  0  0  0
  1 25  1  0  0  0
  1 30  2  0  0  0
  1 87  1  0  0  0
  2  3  1  0  0  0
  2 25  1  0  0  0
  2 89  1  0  0  0
  2 90  1  0  0  0
  3  4  1  0  0  0
  3 91  1  0  0  0
  3 92  1  0  0  0
  4  5  1  0  0  0
  4 93  1  0  0  0
  4 94  1  0  0  0
  5  6  1  0  0  0
  5 26  1  0  0  0
  5 95  1  0  0  0
  6 25  1  0  0  0
  6 96  1  0  0  0
  6 97  1  0  0  0
  7  8  2  0  0  0
  7 26  1  0  0  0
  7 29  1  0  0  0
  8  9  1  0  0  0
  8 22  1  0  0  0
  9 10  1  0  0  0
  9 27  2  0  0  0
 10 11  2  0  0  0
 10 15  1  0  0  0
 11 12  1  0  0  0
 11 98  1  0  0  0
 12 13  2  0  0  0
 12 99  1  0  0  0
 13 14  1  0  0  0
 13 31  1  0  0  0
 14 15  2  0  0  0
 14100  1  0  0  0
 15101  1  0  0  0
 16 17  2  0  0  0
 16 21  1  0  0  0
 16 31  1  0  0  0
 17 18  1  0  0  0
 17102  1  0  0  0
 18 19  2  0  0  0
 18103  1  0  0  0
 19 20  1  0  0  0
 19 24  1  0  0  0
 20 21  2  0  0  0
 20104  1  0  0  0
 21 23  1  0  0  0
 22 28  1  0  0  0
 22 32  2  0  0  0
 26 27  1  0  0  0
 28105  1  0  0  0
 28106  1  0  0  0
 29107  1  0  0  0
 29108  1  0  0  0
 33 34  1  0  0  0
 33 66  1  0  0  0
 33 70  2  0  0  0
 34 36  1  0  0  0
 34 59  1  0  0  0
 34109  1  0  0  0
 35 44  2  0  0  0
 35 45  1  0  0  0
 35 68  1  0  0  0
 36 56  1  0  0  0
 36110  1  0  0  0
 37 39  1  0  0  0
 37 47  1  0  0  0
 37 66  1  0  0  0
 37111  1  0  0  0
 38 43  2  0  0  0
 38 46  1  0  0  0
 38 47  1  0  0  0
 39 64  1  0  0  0
 39 67  2  0  0  0
 40 52  1  0  0  0
 40 53  2  0  0  0
 40 58  1  0  0  0
 41112  1  0  0  0
 41113  1  0  0  0
 41114  1  0  0  0
 41 48  1  0  0  0
 42 43  1  0  0  0
 42 66  1  0  0  0
 42115  1  0  0  0
 42116  1  0  0  0
 43 44  1  0  0  0
 44117  1  0  0  0
 45 46  2  0  0  0
 45118  1  0  0  0
 46119  1  0  0  0
 47120  1  0  0  0
 47121  1  0  0  0
 48 56  1  0  0  0
 48 65  1  0  0  0
 48122  1  0  0  0
 49 50  1  0  0  0
 49 53  1  0  0  0
 49 64  1  0  0  0
 49123  1  0  0  0
 50 51  1  0  0  0
 50124  1  0  0  0
 50125  1  0  0  0
 51 52  1  0  0  0
 51126  1  0  0  0
 51127  1  0  0  0
 52128  1  0  0  0
 52129  1  0  0  0
 53 54  1  0  0  0
 54 55  2  0  0  0
 54130  1  0  0  0
 55 57  1  0  0  0
 55131  1  0  0  0
 56 69  2  0  0  0
 57 58  2  0  0  0
 57132  1  0  0  0
 58133  1  0  0  0
 59 60  1  0  0  0
 59 61  1  0  0  0
 59 62  1  0  0  0
 60134  1  0  0  0
 60135  1  0  0  0
 60136  1  0  0  0
 61137  1  0  0  0
 61138  1  0  0  0
 61139  1  0  0  0
 62140  1  0  0  0
 62141  1  0  0  0
 62142  1  0  0  0
 63 65  1  0  0  0
 63143  1  0  0  0
 63144  1  0  0  0
 63145  1  0  0  0
 64146  1  0  0  0
 65147  1  0  0  0
 68 84  1  0  0  0
 71 73  2  0  0  0
 71 74  1  0  0  0
 71148  1  0  0  0
 72 73  1  0  0  0
 72 75  2  0  0  0
 72149  1  0  0  0
 73 80  1  0  0  0
 74 86  2  0  0  0
 74 81  1  0  0  0
 75 86  1  0  0  0
 75 87  1  0  0  0
 76 77  1  0  0  0
 76 81  1  0  0  0
 76150  1  0  0  0
 76151  1  0  0  0
 77 81  1  0  0  0
 77152  1  0  0  0
 77153  1  0  0  0
 78 80  1  0  0  0
 78 88  1  0  0  0
 78154  1  0  0  0
 78155  1  0  0  0
 79 88  1  0  0  0
 79156  1  0  0  0
 79157  1  0  0  0
 79 82  1  0  0  0
 80 82  1  0  0  0
 80158  1  0  0  0
 81159  1  0  0  0
 82 85  1  0  0  0
 82160  1  0  0  0
 83161  1  0  0  0
 83162  1  0  0  0
 83163  1  0  0  0
 83 85  1  0  0  0
 84 85  1  0  0  0
 84164  1  0  0  0
 84165  1  0  0  0
 85166  1  0  0  0
 87167  1  0  0  0
 88168  1  0  0  0
 88169  1  0  0  0
M  CHG  1  88   1
M  ISO  4   1 100  68 101  84 101  87 100
M  END
> <chiral flag>
0

> <version>
0

> <s_m_source_file>
/data/baiqing/PycharmProjects/Reinvent-master-3.2/result/LINK_invent/BTK/process_docking_weight1_custom_sum_contain_oxygen_bond_distance_aromatic_linkinvent_7_9_3/rearranged_h_0172.sdf

> <i_m_source_file_index>
39

> <r_mmod_Potential_Energy-OPLS-2005>
32.455810546875

> <r_mmod_Stretch_Energy-OPLS-2005>
137.994125366211

> <r_mmod_Bend_Energy-OPLS-2005>
246.091262817383

> <r_mmod_Torsional_Energy-OPLS-2005>
386.028198242188

> <r_mmod_Improper_Torsional_Energy-OPLS-2005>
7.38262271881104

> <r_mmod_Van_der_Waal_Energy-OPLS-2005>
122.03483581543

> <r_mmod_Electrostatic_Energy-OPLS-2005>
-469.30224609375

> <r_mmod_Solvation_Energy-OPLS-2005>
-480.938049316406

> <b_mmod_Minimization_Converged-OPLS-2005>
0

> <r_mmod_RMS_Derivative-OPLS-2005>
3.91896677017212

$$$$
39
                    3D
 Structure written by MMmdl.
163172  0  0  1  0            999 V2000
  -30.3858  -15.3529   20.3348 C   0  0  0  0  0  0
  -30.4462  -12.8562   19.5470 C   0  0  0  0  0  0
  -29.5507  -12.5831   18.3083 C   0  0  0  0  0  0
  -28.0987  -12.2961   18.7287 C   0  0  0  0  0  0
  -27.6106  -13.2797   19.8192 C   0  0  2  0  0  0
  -28.6360  -13.4890   20.9529 C   0  0  0  0  0  0
  -25.2394  -13.8245   20.5778 C   0  0  0  0  0  0
  -24.1735  -13.0425   20.9233 C   0  0  0  0  0  0
  -24.6402  -11.6927   20.8737 C   0  0  0  0  0  0
  -23.9099  -10.4296   21.0395 C   0  0  0  0  0  0
  -24.3647   -9.4213   21.9171 C   0  0  0  0  0  0
  -23.6320   -8.2245   22.0746 C   0  0  0  0  0  0
  -22.4298   -8.0290   21.3540 C   0  0  0  0  0  0
  -21.9934   -9.0263   20.4636 C   0  0  0  0  0  0
  -22.7268  -10.2140   20.3047 C   0  0  0  0  0  0
  -21.6860   -6.0736   22.5280 C   0  0  0  0  0  0
  -21.4019   -6.5634   23.8213 C   0  0  0  0  0  0
  -21.3662   -5.6786   24.9174 C   0  0  0  0  0  0
  -21.6043   -4.3048   24.7230 C   0  0  0  0  0  0
  -21.8820   -3.8142   23.4354 C   0  0  0  0  0  0
  -21.9198   -4.6959   22.3410 C   0  0  0  0  0  0
  -22.7751  -13.5171   21.1896 C   0  0  0  0  0  0
  -22.1670   -4.2145   21.0987 F   0  0  0  0  0  0
  -21.5633   -3.4534   25.7742 F   0  0  0  0  0  0
  -29.8728  -14.0121   20.3434 N   0  0  0  0  0  0
  -26.2820  -12.9526   20.3203 N   0  0  0  0  0  0
  -25.9341  -11.6627   20.5684 N   0  0  0  0  0  0
  -22.0426  -12.8148   22.0455 N   0  0  0  0  0  0
  -25.4073  -15.1987   20.4343 N   0  0  0  0  0  0
  -31.6051  -15.3372   20.1016 O   0  0  0  0  0  0
  -21.6658   -6.8892   21.4246 O   0  0  0  0  0  0
  -22.3424  -14.5480   20.6762 O   0  0  0  0  0  0
  -24.6669  -31.8181   23.1659 C   0  0  0  0  0  0
  -25.9322  -32.4562   23.8143 C   0  0  1  0  0  0
  -27.2312  -26.8839   20.1941 C   0  0  0  0  0  0
  -25.5964  -33.8380   24.2045 N   0  0  0  0  0  0
  -23.4847  -30.4239   21.5173 C   0  0  2  0  0  0
  -24.9400  -28.7971   20.1192 C   0  0  0  0  0  0
  -22.7681  -29.4397   22.4786 C   0  0  0  0  0  0
  -18.0320  -28.1402   22.8474 C   0  0  0  0  0  0
  -24.1492  -36.7191   23.2649 C   0  0  0  0  0  0
  -26.0552  -30.6106   21.4012 C   0  0  0  0  0  0
  -26.1255  -29.1937   20.7503 C   0  0  0  0  0  0
  -27.2640  -28.2612   20.7553 C   0  0  0  0  0  0
  -26.0114  -26.6435   19.5223 C   0  0  0  0  0  0
  -24.9107  -27.5432   19.4842 C   0  0  0  0  0  0
  -23.7277  -29.7296   20.1483 C   0  0  0  0  0  0
  -25.4138  -36.2952   24.0295 C   0  0  1  0  0  0
  -20.5948  -28.3744   23.1192 C   0  0  2  0  0  0
  -20.6790  -26.9421   22.5408 C   0  0  0  0  0  0
  -19.5765  -26.6372   21.5219 C   0  0  0  0  0  0
  -18.1949  -26.7937   22.1627 C   0  0  0  0  0  0
  -19.1585  -28.8897   23.2817 C   0  0  0  0  0  0
  -18.9490  -30.1487   23.8849 C   0  0  0  0  0  0
  -17.6480  -30.6593   24.0551 C   0  0  0  0  0  0
  -25.9108  -34.9336   23.5001 C   0  0  0  0  0  0
  -16.5369  -29.9074   23.6347 C   0  0  0  0  0  0
  -16.7298  -28.6494   23.0370 C   0  0  0  0  0  0
  -26.4568  -31.6523   25.0682 C   0  0  0  0  0  0
  -25.3689  -31.3783   26.1335 C   0  0  0  0  0  0
  -27.0468  -30.2882   24.6439 C   0  0  0  0  0  0
  -27.6056  -32.4339   25.7489 C   0  0  0  0  0  0
  -27.5568  -37.1754   24.8469 C   0  0  0  0  0  0
  -21.4347  -29.3024   22.3539 N   0  0  0  0  0  0
  -26.4282  -37.3691   23.9402 N   0  0  0  0  0  0
  -24.7574  -30.9790   22.0818 N   0  0  0  0  0  0
  -23.4196  -28.7981   23.3061 O   0  0  0  0  0  0
  -28.2625  -25.7895   20.2296 O   0  0  0  0  0  0
  -26.5727  -34.8881   22.4601 O   0  0  0  0  0  0
  -23.5721  -32.1169   23.6721 O   0  0  0  0  0  0
  -31.7965  -21.9020   18.7797 C   0  0  0  0  0  0
  -30.8183  -20.9982   19.1768 C   0  0  0  0  0  0
  -31.7637  -23.2002   19.2646 C   0  0  0  0  0  0
  -30.6411  -23.6494   19.9944 C   0  0  0  0  0  0
  -29.4188  -22.8915   20.1147 C   0  0  0  0  0  0
  -29.6776  -21.2978   19.9688 C   0  0  0  0  0  0
  -30.0921  -18.5664   20.7873 C   0  0  0  0  0  0
  -28.3216  -19.0907   19.4580 C   0  0  0  0  0  0
  -29.5569  -16.9460   20.4586 C   0  0  1  0  0  0
  -28.7466  -17.5375   19.2399 C   0  0  2  0  0  0
  -32.9577  -24.1002   18.9693 C   0  0  0  0  0  0
  -30.8214  -24.9968   20.6950 C   0  0  0  0  0  0
  -28.1435  -24.1073   20.2798 C   0  0  0  0  0  0
  -29.2055  -19.8591   20.3685 N   0  0  0  0  0  0
  -29.4301  -17.3809   17.9386 N   0  3  0  0  0  0
  -31.4613  -13.0687   19.2090 H   0  0  0  0  0  0
  -30.5305  -11.9600   20.1666 H   0  0  0  0  0  0
  -29.9438  -11.7422   17.7347 H   0  0  0  0  0  0
  -29.5765  -13.4458   17.6410 H   0  0  0  0  0  0
  -28.0633  -11.2765   19.1163 H   0  0  0  0  0  0
  -27.4372  -12.3162   17.8631 H   0  0  0  0  0  0
  -27.5141  -14.2365   19.3044 H   0  0  0  0  0  0
  -28.8118  -12.5662   21.5080 H   0  0  0  0  0  0
  -28.2544  -14.2127   21.6743 H   0  0  0  0  0  0
  -25.2802   -9.5676   22.4729 H   0  0  0  0  0  0
  -24.0028   -7.4627   22.7460 H   0  0  0  0  0  0
  -21.0865   -8.8785   19.8941 H   0  0  0  0  0  0
  -22.3734  -10.9675   19.6151 H   0  0  0  0  0  0
  -21.2008   -7.6140   23.9718 H   0  0  0  0  0  0
  -21.1486   -6.0515   25.9075 H   0  0  0  0  0  0
  -22.0600   -2.7604   23.2857 H   0  0  0  0  0  0
  -22.4088  -11.9830   22.4842 H   0  0  0  0  0  0
  -21.1031  -13.1132   22.2673 H   0  0  0  0  0  0
  -24.6506  -15.8553   20.5947 H   0  0  0  0  0  0
  -26.2748  -15.6484   20.1812 H   0  0  0  0  0  0
  -26.7384  -32.5097   23.0851 H   0  0  0  0  0  0
  -25.0044  -33.9453   25.0146 H   0  0  0  0  0  0
  -22.8000  -31.2562   21.3405 H   0  0  0  0  0  0
  -23.3769  -35.9510   23.3303 H   0  0  0  0  0  0
  -24.3560  -36.8846   22.2065 H   0  0  0  0  0  0
  -23.7245  -37.6372   23.6717 H   0  0  0  0  0  0
  -26.2357  -31.3484   20.6187 H   0  0  0  0  0  0
  -26.9144  -30.6741   22.0571 H   0  0  0  0  0  0
  -28.1668  -28.5707   21.2628 H   0  0  0  0  0  0
  -25.8855  -25.6892   19.0312 H   0  0  0  0  0  0
  -24.0113  -27.2327   18.9714 H   0  0  0  0  0  0
  -23.8821  -30.4931   19.3853 H   0  0  0  0  0  0
  -22.8374  -29.1815   19.8354 H   0  0  0  0  0  0
  -25.1346  -36.1749   25.0788 H   0  0  0  0  0  0
  -21.0028  -28.3348   24.1318 H   0  0  0  0  0  0
  -20.5668  -26.2357   23.3649 H   0  0  0  0  0  0
  -21.6654  -26.7389   22.1220 H   0  0  0  0  0  0
  -19.6921  -25.6273   21.1275 H   0  0  0  0  0  0
  -19.6708  -27.3163   20.6737 H   0  0  0  0  0  0
  -17.4217  -26.6685   21.4028 H   0  0  0  0  0  0
  -18.0334  -26.0086   22.9031 H   0  0  0  0  0  0
  -19.7958  -30.7321   24.2194 H   0  0  0  0  0  0
  -17.5024  -31.6273   24.5153 H   0  0  0  0  0  0
  -15.5367  -30.2953   23.7700 H   0  0  0  0  0  0
  -15.8703  -28.0792   22.7114 H   0  0  0  0  0  0
  -24.5865  -30.7148   25.7628 H   0  0  0  0  0  0
  -24.8893  -32.2992   26.4655 H   0  0  0  0  0  0
  -25.7906  -30.8998   27.0181 H   0  0  0  0  0  0
  -26.3135  -29.6548   24.1430 H   0  0  0  0  0  0
  -27.3968  -29.7257   25.5105 H   0  0  0  0  0  0
  -27.9094  -30.4049   23.9876 H   0  0  0  0  0  0
  -27.2608  -33.3664   26.1970 H   0  0  0  0  0  0
  -28.3916  -32.6863   25.0359 H   0  0  0  0  0  0
  -28.0676  -31.8537   26.5484 H   0  0  0  0  0  0
  -28.2584  -38.0048   24.7498 H   0  0  0  0  0  0
  -28.1065  -36.2576   24.6330 H   0  0  0  0  0  0
  -27.2277  -37.1435   25.8869 H   0  0  0  0  0  0
  -20.9607  -29.8690   21.6650 H   0  0  0  0  0  0
  -26.0133  -38.2749   24.1406 H   0  0  0  0  0  0
  -32.6362  -21.5516   18.1951 H   0  0  0  0  0  0
  -31.0192  -19.9944   18.8413 H   0  0  0  0  0  0
  -31.1065  -18.6581   20.3990 H   0  0  0  0  0  0
  -30.2319  -18.6395   21.8666 H   0  0  0  0  0  0
  -27.3337  -19.1050   19.9227 H   0  0  0  0  0  0
  -28.2017  -19.6123   18.5069 H   0  0  0  0  0  0
  -28.8175  -16.7489   21.2337 H   0  0  0  0  0  0
  -27.8255  -16.9603   19.1446 H   0  0  0  0  0  0
  -33.5967  -23.6750   18.1945 H   0  0  0  0  0  0
  -33.5701  -24.2370   19.8606 H   0  0  0  0  0  0
  -32.6336  -25.0798   18.6146 H   0  0  0  0  0  0
  -31.8252  -25.0947   21.1084 H   0  0  0  0  0  0
  -30.1663  -25.1013   21.5590 H   0  0  0  0  0  0
  -30.6734  -25.8300   20.0066 H   0  0  0  0  0  0
  -27.6479  -23.8776   21.2227 H   0  0  0  0  0  0
  -27.4144  -23.8450   19.5140 H   0  0  0  0  0  0
  -30.3127  -17.8585   17.9223 H   0  0  0  0  0  0
  -28.8576  -17.7674   17.2073 H   0  0  0  0  0  0
  -29.5865  -16.4155   17.7121 H   0  0  0  0  0  0
  1 25  1  0  0  0
  1 30  2  0  0  0
  1 79  1  0  0  0
  2  3  1  0  0  0
  2 25  1  0  0  0
  2 86  1  0  0  0
  2 87  1  0  0  0
  3  4  1  0  0  0
  3 88  1  0  0  0
  3 89  1  0  0  0
  4  5  1  0  0  0
  4 90  1  0  0  0
  4 91  1  0  0  0
  5  6  1  0  0  0
  5 26  1  0  0  0
  5 92  1  0  0  0
  6 25  1  0  0  0
  6 93  1  0  0  0
  6 94  1  0  0  0
  7  8  2  0  0  0
  7 26  1  0  0  0
  7 29  1  0  0  0
  8  9  1  0  0  0
  8 22  1  0  0  0
  9 10  1  0  0  0
  9 27  2  0  0  0
 10 11  2  0  0  0
 10 15  1  0  0  0
 11 12  1  0  0  0
 11 95  1  0  0  0
 12 13  2  0  0  0
 12 96  1  0  0  0
 13 14  1  0  0  0
 13 31  1  0  0  0
 14 15  2  0  0  0
 14 97  1  0  0  0
 15 98  1  0  0  0
 16 17  2  0  0  0
 16 21  1  0  0  0
 16 31  1  0  0  0
 17 18  1  0  0  0
 17 99  1  0  0  0
 18 19  2  0  0  0
 18100  1  0  0  0
 19 20  1  0  0  0
 19 24  1  0  0  0
 20 21  2  0  0  0
 20101  1  0  0  0
 21 23  1  0  0  0
 22 28  1  0  0  0
 22 32  2  0  0  0
 26 27  1  0  0  0
 28102  1  0  0  0
 28103  1  0  0  0
 29104  1  0  0  0
 29105  1  0  0  0
 33 34  1  0  0  0
 33 66  1  0  0  0
 33 70  2  0  0  0
 34 36  1  0  0  0
 34 59  1  0  0  0
 34106  1  0  0  0
 35 44  2  0  0  0
 35 45  1  0  0  0
 35 68  1  0  0  0
 36 56  1  0  0  0
 36107  1  0  0  0
 37 39  1  0  0  0
 37 47  1  0  0  0
 37 66  1  0  0  0
 37108  1  0  0  0
 38 43  2  0  0  0
 38 46  1  0  0  0
 38 47  1  0  0  0
 39 64  1  0  0  0
 39 67  2  0  0  0
 40 52  1  0  0  0
 40 53  2  0  0  0
 40 58  1  0  0  0
 41109  1  0  0  0
 41110  1  0  0  0
 41111  1  0  0  0
 41 48  1  0  0  0
 42 43  1  0  0  0
 42 66  1  0  0  0
 42112  1  0  0  0
 42113  1  0  0  0
 43 44  1  0  0  0
 44114  1  0  0  0
 45 46  2  0  0  0
 45115  1  0  0  0
 46116  1  0  0  0
 47117  1  0  0  0
 47118  1  0  0  0
 48 56  1  0  0  0
 48 65  1  0  0  0
 48119  1  0  0  0
 49 50  1  0  0  0
 49 53  1  0  0  0
 49 64  1  0  0  0
 49120  1  0  0  0
 50 51  1  0  0  0
 50121  1  0  0  0
 50122  1  0  0  0
 51 52  1  0  0  0
 51123  1  0  0  0
 51124  1  0  0  0
 52125  1  0  0  0
 52126  1  0  0  0
 53 54  1  0  0  0
 54 55  2  0  0  0
 54127  1  0  0  0
 55 57  1  0  0  0
 55128  1  0  0  0
 56 69  2  0  0  0
 57 58  2  0  0  0
 57129  1  0  0  0
 58130  1  0  0  0
 59 60  1  0  0  0
 59 61  1  0  0  0
 59 62  1  0  0  0
 60131  1  0  0  0
 60132  1  0  0  0
 60133  1  0  0  0
 61134  1  0  0  0
 61135  1  0  0  0
 61136  1  0  0  0
 62137  1  0  0  0
 62138  1  0  0  0
 62139  1  0  0  0
 63 65  1  0  0  0
 63140  1  0  0  0
 63141  1  0  0  0
 63142  1  0  0  0
 64143  1  0  0  0
 65144  1  0  0  0
 68 83  1  0  0  0
 71 72  2  0  0  0
 71 73  1  0  0  0
 71145  1  0  0  0
 72 76  1  0  0  0
 72146  1  0  0  0
 73 74  2  0  0  0
 73 81  1  0  0  0
 74 75  1  0  0  0
 74 82  1  0  0  0
 75 76  2  0  0  0
 75 83  1  0  0  0
 76 84  1  0  0  0
 77 79  1  0  0  0
 77 84  1  0  0  0
 77147  1  0  0  0
 77148  1  0  0  0
 78 80  1  0  0  0
 78 84  1  0  0  0
 78149  1  0  0  0
 78150  1  0  0  0
 79 80  1  0  0  0
 79151  1  0  0  0
 80 85  1  0  0  0
 80152  1  0  0  0
 81153  1  0  0  0
 81154  1  0  0  0
 81155  1  0  0  0
 82156  1  0  0  0
 82157  1  0  0  0
 82158  1  0  0  0
 83159  1  0  0  0
 83160  1  0  0  0
 85161  1  0  0  0
 85162  1  0  0  0
 85163  1  0  0  0
M  CHG  1  85   1
M  ISO  4   1 100  68 101  79 100  83 101
M  END
> <chiral flag>
0

> <version>
0

> <s_m_source_file>
/data/baiqing/PycharmProjects/Reinvent-master-3.2/result/LINK_invent/BTK/process_docking_weight1_custom_sum_contain_oxygen_bond_distance_aromatic_linkinvent_7_9_3/rearranged_h_0172.sdf

> <i_m_source_file_index>
40

> <r_mmod_Potential_Energy-OPLS-2005>
1578.04577636719

> <r_mmod_Stretch_Energy-OPLS-2005>
697.943298339844

> <r_mmod_Bend_Energy-OPLS-2005>
598.127258300781

> <r_mmod_Torsional_Energy-OPLS-2005>
359.967620849609

> <r_mmod_Improper_Torsional_Energy-OPLS-2005>
8.41662120819092

> <r_mmod_Van_der_Waal_Energy-OPLS-2005>
143.17529296875

> <r_mmod_Electrostatic_Energy-OPLS-2005>
-243.282379150391

> <r_mmod_Solvation_Energy-OPLS-2005>
-517.826538085938

> <b_mmod_Minimization_Converged-OPLS-2005>
0

> <r_mmod_RMS_Derivative-OPLS-2005>
1.95773470401764

$$$$
40
                    3D
 Structure written by MMmdl.
173184  0  0  1  0            999 V2000
  -30.6824  -14.5839   20.5543 C   0  0  0  0  0  0
  -30.4291  -12.3790   19.4374 C   0  0  0  0  0  0
  -29.4928  -12.4778   18.2156 C   0  0  0  0  0  0
  -28.0215  -12.2905   18.6353 C   0  0  0  0  0  0
  -27.6371  -13.1767   19.8444 C   0  0  2  0  0  0
  -28.6885  -13.0717   20.9757 C   0  0  0  0  0  0
  -25.2506  -13.8027   20.5673 C   0  0  0  0  0  0
  -24.1783  -13.0367   20.9217 C   0  0  0  0  0  0
  -24.6323  -11.6824   20.8784 C   0  0  0  0  0  0
  -23.9012  -10.4252   21.0469 C   0  0  0  0  0  0
  -24.3588   -9.4170   21.9230 C   0  0  0  0  0  0
  -23.6281   -8.2199   22.0770 C   0  0  0  0  0  0
  -22.4272   -8.0250   21.3546 C   0  0  0  0  0  0
  -21.9900   -9.0236   20.4656 C   0  0  0  0  0  0
  -22.7212  -10.2122   20.3088 C   0  0  0  0  0  0
  -21.6835   -6.0720   22.5287 C   0  0  0  0  0  0
  -21.3996   -6.5619   23.8219 C   0  0  0  0  0  0
  -21.3669   -5.6772   24.9181 C   0  0  0  0  0  0
  -21.6061   -4.3038   24.7234 C   0  0  0  0  0  0
  -21.8826   -3.8134   23.4349 C   0  0  0  0  0  0
  -21.9196   -4.6951   22.3408 C   0  0  0  0  0  0
  -22.7831  -13.5218   21.1880 C   0  0  0  0  0  0
  -22.1680   -4.2138   21.0987 F   0  0  0  0  0  0
  -21.5633   -3.4527   25.7748 F   0  0  0  0  0  0
  -30.0025  -13.4043   20.4082 N   0  0  0  0  0  0
  -26.2894  -12.9143   20.3262 N   0  0  0  0  0  0
  -25.9216  -11.6350   20.5759 N   0  0  0  0  0  0
  -22.0457  -12.8255   22.0438 N   0  0  0  0  0  0
  -25.4117  -15.1757   20.4058 N   0  0  0  0  0  0
  -31.8577  -14.6932   20.1936 O   0  0  0  0  0  0
  -21.6617   -6.8868   21.4251 O   0  0  0  0  0  0
  -22.3563  -14.5554   20.6711 O   0  0  0  0  0  0
  -24.6140  -31.8683   23.2206 C   0  0  0  0  0  0
  -25.9074  -32.4799   23.8413 C   0  0  1  0  0  0
  -27.1849  -27.3626   20.1137 C   0  0  0  0  0  0
  -25.5960  -33.8603   24.2324 N   0  0  0  0  0  0
  -23.4002  -30.5010   21.5657 C   0  0  2  0  0  0
  -24.8348  -28.9754   20.1249 C   0  0  0  0  0  0
  -22.7408  -29.4611   22.5008 C   0  0  0  0  0  0
  -18.0244  -28.1303   22.8523 C   0  0  0  0  0  0
  -24.1467  -36.7285   23.2626 C   0  0  0  0  0  0
  -25.9379  -30.8070   21.3926 C   0  0  0  0  0  0
  -26.0003  -29.4411   20.7405 C   0  0  0  0  0  0
  -27.1764  -28.6438   20.7363 C   0  0  0  0  0  0
  -25.9988  -26.9658   19.4555 C   0  0  0  0  0  0
  -24.8345  -27.7431   19.4690 C   0  0  0  0  0  0
  -23.6106  -29.8555   20.1737 C   0  0  0  0  0  0
  -25.4113  -36.3105   24.0308 C   0  0  1  0  0  0
  -20.5831  -28.3655   23.1349 C   0  0  2  0  0  0
  -20.6780  -26.9387   22.5481 C   0  0  0  0  0  0
  -19.5753  -26.6260   21.5294 C   0  0  0  0  0  0
  -18.1976  -26.7781   22.1783 C   0  0  0  0  0  0
  -19.1493  -28.8827   23.2855 C   0  0  0  0  0  0
  -18.9415  -30.1457   23.8785 C   0  0  0  0  0  0
  -17.6410  -30.6592   24.0437 C   0  0  0  0  0  0
  -25.9056  -34.9465   23.5105 C   0  0  0  0  0  0
  -16.5313  -29.9053   23.6250 C   0  0  0  0  0  0
  -16.7233  -28.6415   23.0377 C   0  0  0  0  0  0
  -26.4502  -31.6580   25.0739 C   0  0  0  0  0  0
  -25.3748  -31.3748   26.1485 C   0  0  0  0  0  0
  -27.0332  -30.3006   24.6134 C   0  0  0  0  0  0
  -27.6068  -32.4305   25.7516 C   0  0  0  0  0  0
  -27.5564  -37.1826   24.8460 C   0  0  0  0  0  0
  -21.4133  -29.3005   22.3756 N   0  0  0  0  0  0
  -26.4282  -37.3815   23.9387 N   0  0  0  0  0  0
  -24.6690  -31.0733   22.1167 N   0  0  0  0  0  0
  -23.4195  -28.8099   23.3004 O   0  0  0  0  0  0
  -28.3366  -26.5717   20.1581 O   0  0  0  0  0  0
  -26.5596  -34.8928   22.4656 O   0  0  0  0  0  0
  -23.5332  -32.1472   23.7595 O   0  0  0  0  0  0
  -27.9083  -20.6709   22.4787 C   0  0  0  0  0  0
  -29.0238  -22.0546   20.4057 C   0  0  0  0  0  0
  -27.5618  -22.0376   22.3217 C   0  0  0  0  0  0
  -28.0827  -22.7514   21.2057 C   0  0  0  0  0  0
  -28.7609  -20.0338   21.5521 C   0  0  0  0  0  0
  -27.0911  -23.7263   24.2611 C   0  0  0  0  0  0
  -26.6067  -22.3944   24.7734 C   0  0  0  0  0  0
  -28.7013  -17.7882   20.2668 C   0  0  0  0  0  0
  -30.4130  -18.0458   22.0162 C   0  0  0  0  0  0
  -27.9965  -24.7439   18.4459 C   0  0  0  0  0  0
  -28.8429  -16.2434   20.3314 C   0  0  0  0  0  0
  -30.5522  -16.4946   22.1572 C   0  0  0  0  0  0
  -26.7886  -23.7932   18.5736 C   0  0  0  0  0  0
  -26.5988  -22.6780   23.2877 C   0  0  0  0  0  0
  -27.5114  -24.1567   20.8041 C   0  0  1  0  0  0
  -29.0033  -18.4964   21.5946 C   0  0  0  0  0  0
  -28.3728  -25.1188   19.8960 C   0  0  1  0  0  0
  -29.3497  -20.7464   20.5634 N   0  0  0  0  0  0
  -30.0040  -15.6723   21.0511 N   0  0  0  0  0  0
  -26.3260  -23.8746   19.9742 N   0  3  0  0  0  0
  -31.4665  -12.5010   19.1229 H   0  0  0  0  0  0
  -30.3770  -11.3910   19.8959 H   0  0  0  0  0  0
  -29.7645  -11.7217   17.4782 H   0  0  0  0  0  0
  -29.6182  -13.4448   17.7257 H   0  0  0  0  0  0
  -27.8810  -11.2401   18.8908 H   0  0  0  0  0  0
  -27.3565  -12.4893   17.7932 H   0  0  0  0  0  0
  -27.6169  -14.1770   19.4355 H   0  0  0  0  0  0
  -28.7118  -12.0595   21.3836 H   0  0  0  0  0  0
  -28.4309  -13.7268   21.8080 H   0  0  0  0  0  0
  -25.2754   -9.5643   22.4778 H   0  0  0  0  0  0
  -24.0006   -7.4591   22.7483 H   0  0  0  0  0  0
  -21.0832   -8.8780   19.8950 H   0  0  0  0  0  0
  -22.3721  -10.9676   19.6177 H   0  0  0  0  0  0
  -21.1962   -7.6122   23.9718 H   0  0  0  0  0  0
  -21.1492   -6.0496   25.9083 H   0  0  0  0  0  0
  -22.0595   -2.7593   23.2856 H   0  0  0  0  0  0
  -22.4046  -11.9901   22.4828 H   0  0  0  0  0  0
  -21.1066  -13.1278   22.2618 H   0  0  0  0  0  0
  -24.6332  -15.8159   20.5219 H   0  0  0  0  0  0
  -26.2445  -15.6234   20.0496 H   0  0  0  0  0  0
  -26.7116  -32.5503   23.1148 H   0  0  0  0  0  0
  -25.0239  -33.9730   25.0560 H   0  0  0  0  0  0
  -22.6878  -31.3199   21.4421 H   0  0  0  0  0  0
  -23.3715  -35.9630   23.3328 H   0  0  0  0  0  0
  -24.3563  -36.8866   22.2029 H   0  0  0  0  0  0
  -23.7204  -37.6498   23.6628 H   0  0  0  0  0  0
  -26.0612  -31.5644   20.6186 H   0  0  0  0  0  0
  -26.8238  -30.8573   22.0123 H   0  0  0  0  0  0
  -28.0686  -29.0041   21.2278 H   0  0  0  0  0  0
  -25.9060  -26.0804   18.8703 H   0  0  0  0  0  0
  -23.9526  -27.4040   18.9418 H   0  0  0  0  0  0
  -23.7480  -30.6395   19.4288 H   0  0  0  0  0  0
  -22.7309  -29.2931   19.8556 H   0  0  0  0  0  0
  -25.1285  -36.1997   25.0793 H   0  0  0  0  0  0
  -20.9837  -28.3287   24.1502 H   0  0  0  0  0  0
  -20.5736  -26.2272   23.3686 H   0  0  0  0  0  0
  -21.6678  -26.7502   22.1319 H   0  0  0  0  0  0
  -19.6607  -27.3015   20.6764 H   0  0  0  0  0  0
  -19.6937  -25.6113   21.1453 H   0  0  0  0  0  0
  -17.4198  -26.6323   21.4280 H   0  0  0  0  0  0
  -18.0572  -25.9998   22.9301 H   0  0  0  0  0  0
  -19.7909  -30.7282   24.2073 H   0  0  0  0  0  0
  -17.5002  -31.6306   24.4947 H   0  0  0  0  0  0
  -15.5323  -30.2983   23.7536 H   0  0  0  0  0  0
  -15.8628  -28.0689   22.7196 H   0  0  0  0  0  0
  -24.5935  -30.7069   25.7854 H   0  0  0  0  0  0
  -24.8919  -32.2925   26.4853 H   0  0  0  0  0  0
  -25.8079  -30.8999   27.0292 H   0  0  0  0  0  0
  -26.2902  -29.6811   24.1103 H   0  0  0  0  0  0
  -27.4005  -29.7201   25.4607 H   0  0  0  0  0  0
  -27.8783  -30.4286   23.9361 H   0  0  0  0  0  0
  -27.2671  -33.3603   26.2097 H   0  0  0  0  0  0
  -28.3898  -32.6869   25.0364 H   0  0  0  0  0  0
  -28.0709  -31.8425   26.5445 H   0  0  0  0  0  0
  -28.2619  -38.0096   24.7523 H   0  0  0  0  0  0
  -28.1021  -36.2635   24.6293 H   0  0  0  0  0  0
  -27.2274  -37.1487   25.8865 H   0  0  0  0  0  0
  -20.9340  -29.8762   21.6970 H   0  0  0  0  0  0
  -26.0151  -38.2869   24.1484 H   0  0  0  0  0  0
  -27.4746  -20.0968   23.2879 H   0  0  0  0  0  0
  -29.4657  -22.5297   19.5445 H   0  0  0  0  0  0
  -28.1614  -23.9054   24.3378 H   0  0  0  0  0  0
  -26.4614  -24.5946   24.4375 H   0  0  0  0  0  0
  -25.6514  -22.3972   25.2963 H   0  0  0  0  0  0
  -27.3604  -21.7201   25.1735 H   0  0  0  0  0  0
  -27.6858  -18.0335   19.9506 H   0  0  0  0  0  0
  -29.3503  -18.1860   19.4858 H   0  0  0  0  0  0
  -31.1385  -18.4180   21.2936 H   0  0  0  0  0  0
  -30.6679  -18.5131   22.9680 H   0  0  0  0  0  0
  -27.7762  -25.6176   17.8303 H   0  0  0  0  0  0
  -28.8136  -24.2289   17.9423 H   0  0  0  0  0  0
  -28.8404  -15.8876   19.2991 H   0  0  0  0  0  0
  -27.9621  -15.8513   20.8323 H   0  0  0  0  0  0
  -30.0230  -16.1772   23.0558 H   0  0  0  0  0  0
  -31.6004  -16.2514   22.3386 H   0  0  0  0  0  0
  -27.1058  -22.7709   18.3689 H   0  0  0  0  0  0
  -25.9922  -24.0207   17.8656 H   0  0  0  0  0  0
  -25.6171  -22.8127   22.8360 H   0  0  0  0  0  0
  -27.2177  -24.6933   21.7065 H   0  0  0  0  0  0
  -28.3017  -18.0953   22.3279 H   0  0  0  0  0  0
  -29.4219  -24.8728   20.0626 H   0  0  0  0  0  0
  -25.8472  -23.0339   20.2578 H   0  0  0  0  0  0
  -25.6692  -24.6374   20.0580 H   0  0  0  0  0  0
  1 25  1  0  0  0
  1 30  2  0  0  0
  1 89  1  0  0  0
  2  3  1  0  0  0
  2 25  1  0  0  0
  2 91  1  0  0  0
  2 92  1  0  0  0
  3  4  1  0  0  0
  3 93  1  0  0  0
  3 94  1  0  0  0
  4  5  1  0  0  0
  4 95  1  0  0  0
  4 96  1  0  0  0
  5  6  1  0  0  0
  5 26  1  0  0  0
  5 97  1  0  0  0
  6 25  1  0  0  0
  6 98  1  0  0  0
  6 99  1  0  0  0
  7  8  2  0  0  0
  7 26  1  0  0  0
  7 29  1  0  0  0
  8  9  1  0  0  0
  8 22  1  0  0  0
  9 10  1  0  0  0
  9 27  2  0  0  0
 10 11  2  0  0  0
 10 15  1  0  0  0
 11 12  1  0  0  0
 11100  1  0  0  0
 12 13  2  0  0  0
 12101  1  0  0  0
 13 14  1  0  0  0
 13 31  1  0  0  0
 14 15  2  0  0  0
 14102  1  0  0  0
 15103  1  0  0  0
 16 17  2  0  0  0
 16 21  1  0  0  0
 16 31  1  0  0  0
 17 18  1  0  0  0
 17104  1  0  0  0
 18 19  2  0  0  0
 18105  1  0  0  0
 19 20  1  0  0  0
 19 24  1  0  0  0
 20 21  2  0  0  0
 20106  1  0  0  0
 21 23  1  0  0  0
 22 28  1  0  0  0
 22 32  2  0  0  0
 26 27  1  0  0  0
 28107  1  0  0  0
 28108  1  0  0  0
 29109  1  0  0  0
 29110  1  0  0  0
 33 34  1  0  0  0
 33 66  1  0  0  0
 33 70  2  0  0  0
 34 36  1  0  0  0
 34 59  1  0  0  0
 34111  1  0  0  0
 35 44  2  0  0  0
 35 45  1  0  0  0
 35 68  1  0  0  0
 36 56  1  0  0  0
 36112  1  0  0  0
 37 39  1  0  0  0
 37 47  1  0  0  0
 37 66  1  0  0  0
 37113  1  0  0  0
 38 43  2  0  0  0
 38 46  1  0  0  0
 38 47  1  0  0  0
 39 64  1  0  0  0
 39 67  2  0  0  0
 40 52  1  0  0  0
 40 53  2  0  0  0
 40 58  1  0  0  0
 41114  1  0  0  0
 41115  1  0  0  0
 41116  1  0  0  0
 41 48  1  0  0  0
 42 43  1  0  0  0
 42 66  1  0  0  0
 42117  1  0  0  0
 42118  1  0  0  0
 43 44  1  0  0  0
 44119  1  0  0  0
 45 46  2  0  0  0
 45120  1  0  0  0
 46121  1  0  0  0
 47122  1  0  0  0
 47123  1  0  0  0
 48 56  1  0  0  0
 48 65  1  0  0  0
 48124  1  0  0  0
 49 50  1  0  0  0
 49 53  1  0  0  0
 49 64  1  0  0  0
 49125  1  0  0  0
 50 51  1  0  0  0
 50126  1  0  0  0
 50127  1  0  0  0
 51 52  1  0  0  0
 51128  1  0  0  0
 51129  1  0  0  0
 52130  1  0  0  0
 52131  1  0  0  0
 53 54  1  0  0  0
 54 55  2  0  0  0
 54132  1  0  0  0
 55 57  1  0  0  0
 55133  1  0  0  0
 56 69  2  0  0  0
 57 58  2  0  0  0
 57134  1  0  0  0
 58135  1  0  0  0
 59 60  1  0  0  0
 59 61  1  0  0  0
 59 62  1  0  0  0
 60136  1  0  0  0
 60137  1  0  0  0
 60138  1  0  0  0
 61139  1  0  0  0
 61140  1  0  0  0
 61141  1  0  0  0
 62142  1  0  0  0
 62143  1  0  0  0
 62144  1  0  0  0
 63 65  1  0  0  0
 63145  1  0  0  0
 63146  1  0  0  0
 63147  1  0  0  0
 64148  1  0  0  0
 65149  1  0  0  0
 68 87  1  0  0  0
 71 73  2  0  0  0
 71 75  1  0  0  0
 71150  1  0  0  0
 72 74  2  0  0  0
 72 88  1  0  0  0
 72151  1  0  0  0
 73 74  1  0  0  0
 73 84  1  0  0  0
 74 85  1  0  0  0
 75 88  2  0  0  0
 75 86  1  0  0  0
 76 77  1  0  0  0
 76 84  1  0  0  0
 76152  1  0  0  0
 76153  1  0  0  0
 77 84  1  0  0  0
 77154  1  0  0  0
 77155  1  0  0  0
 78 81  1  0  0  0
 78 86  1  0  0  0
 78156  1  0  0  0
 78157  1  0  0  0
 79 82  1  0  0  0
 79 86  1  0  0  0
 79158  1  0  0  0
 79159  1  0  0  0
 80 83  1  0  0  0
 80 87  1  0  0  0
 80160  1  0  0  0
 80161  1  0  0  0
 81 89  1  0  0  0
 81162  1  0  0  0
 81163  1  0  0  0
 82 89  1  0  0  0
 82164  1  0  0  0
 82165  1  0  0  0
 83 90  1  0  0  0
 83166  1  0  0  0
 83167  1  0  0  0
 84168  1  0  0  0
 85 87  1  0  0  0
 85 90  1  0  0  0
 85169  1  0  0  0
 86170  1  0  0  0
 87171  1  0  0  0
 90172  1  0  0  0
 90173  1  0  0  0
M  CHG  1  90   1
M  ISO  4   1 100  68 101  87 101  89 100
M  END
> <chiral flag>
0

> <version>
0

> <s_m_source_file>
/data/baiqing/PycharmProjects/Reinvent-master-3.2/result/LINK_invent/BTK/process_docking_weight1_custom_sum_contain_oxygen_bond_distance_aromatic_linkinvent_7_9_3/rearranged_h_0172.sdf

> <i_m_source_file_index>
41

> <r_mmod_Potential_Energy-OPLS-2005>
43.0632743835449

> <r_mmod_Stretch_Energy-OPLS-2005>
62.4784317016602

> <r_mmod_Bend_Energy-OPLS-2005>
170.833404541016

> <r_mmod_Torsional_Energy-OPLS-2005>
409.562042236328

> <r_mmod_Improper_Torsional_Energy-OPLS-2005>
3.17073154449463

> <r_mmod_Van_der_Waal_Energy-OPLS-2005>
157.2109375

> <r_mmod_Electrostatic_Energy-OPLS-2005>
-356.837677001953

> <r_mmod_Solvation_Energy-OPLS-2005>
-441.003936767578

> <b_mmod_Minimization_Converged-OPLS-2005>
0

> <r_mmod_RMS_Derivative-OPLS-2005>
4.46164655685425

$$$$
41
                    3D
 Structure written by MMmdl.
168177  0  0  1  0            999 V2000
  -30.7214  -14.4881   20.5457 C   0  0  0  0  0  0
  -30.4117  -12.3127   19.4344 C   0  0  0  0  0  0
  -29.4905  -12.4966   18.2116 C   0  0  0  0  0  0
  -28.0133  -12.3600   18.6253 C   0  0  0  0  0  0
  -27.6561  -13.2156   19.8710 C   0  0  2  0  0  0
  -28.6992  -13.0388   20.9977 C   0  0  0  0  0  0
  -25.2538  -13.8157   20.5623 C   0  0  0  0  0  0
  -24.1810  -13.0433   20.9161 C   0  0  0  0  0  0
  -24.6387  -11.6906   20.8745 C   0  0  0  0  0  0
  -23.9057  -10.4292   21.0410 C   0  0  0  0  0  0
  -24.3609   -9.4207   21.9186 C   0  0  0  0  0  0
  -23.6286   -8.2242   22.0754 C   0  0  0  0  0  0
  -22.4270   -8.0278   21.3541 C   0  0  0  0  0  0
  -21.9905   -9.0252   20.4643 C   0  0  0  0  0  0
  -22.7231  -10.2132   20.3057 C   0  0  0  0  0  0
  -21.6854   -6.0731   22.5275 C   0  0  0  0  0  0
  -21.4012   -6.5633   23.8206 C   0  0  0  0  0  0
  -21.3659   -5.6788   24.9170 C   0  0  0  0  0  0
  -21.6047   -4.3051   24.7222 C   0  0  0  0  0  0
  -21.8820   -3.8142   23.4342 C   0  0  0  0  0  0
  -21.9189   -4.6958   22.3398 C   0  0  0  0  0  0
  -22.7838  -13.5231   21.1833 C   0  0  0  0  0  0
  -22.1660   -4.2143   21.0977 F   0  0  0  0  0  0
  -21.5631   -3.4536   25.7736 F   0  0  0  0  0  0
  -30.0256  -13.3235   20.4333 N   0  0  0  0  0  0
  -26.3003  -12.9358   20.3374 N   0  0  0  0  0  0
  -25.9325  -11.6513   20.5808 N   0  0  0  0  0  0
  -22.0481  -12.8226   22.0393 N   0  0  0  0  0  0
  -25.4210  -15.1851   20.3908 N   0  0  0  0  0  0
  -31.8706  -14.6111   20.1153 O   0  0  0  0  0  0
  -21.6635   -6.8873   21.4238 O   0  0  0  0  0  0
  -22.3526  -14.5545   20.6696 O   0  0  0  0  0  0
  -24.6164  -31.8672   23.2116 C   0  0  0  0  0  0
  -25.9062  -32.4812   23.8402 C   0  0  1  0  0  0
  -27.2225  -27.4054   20.0970 C   0  0  0  0  0  0
  -25.5926  -33.8613   24.2332 N   0  0  0  0  0  0
  -23.4045  -30.4941   21.5520 C   0  0  2  0  0  0
  -24.8488  -28.9656   20.1092 C   0  0  0  0  0  0
  -22.7426  -29.4649   22.4971 C   0  0  0  0  0  0
  -18.0276  -28.1372   22.8475 C   0  0  0  0  0  0
  -24.1488  -36.7301   23.2639 C   0  0  0  0  0  0
  -25.9381  -30.8230   21.3722 C   0  0  0  0  0  0
  -26.0121  -29.4588   20.7129 C   0  0  0  0  0  0
  -27.1998  -28.6863   20.7048 C   0  0  0  0  0  0
  -26.0414  -26.9526   19.4588 C   0  0  0  0  0  0
  -24.8610  -27.7133   19.4774 C   0  0  0  0  0  0
  -23.6135  -29.8351   20.1638 C   0  0  0  0  0  0
  -25.4111  -36.3100   24.0336 C   0  0  1  0  0  0
  -20.5866  -28.3660   23.1298 C   0  0  2  0  0  0
  -20.6766  -26.9391   22.5409 C   0  0  0  0  0  0
  -19.5747  -26.6375   21.5206 C   0  0  0  0  0  0
  -18.1923  -26.7914   22.1616 C   0  0  0  0  0  0
  -19.1527  -28.8833   23.2880 C   0  0  0  0  0  0
  -18.9461  -30.1433   23.8896 C   0  0  0  0  0  0
  -17.6467  -30.6578   24.0554 C   0  0  0  0  0  0
  -25.9043  -34.9469   23.5124 C   0  0  0  0  0  0
  -16.5356  -29.9074   23.6330 C   0  0  0  0  0  0
  -16.7268  -28.6495   23.0343 C   0  0  0  0  0  0
  -26.4489  -31.6596   25.0735 C   0  0  0  0  0  0
  -25.3756  -31.3707   26.1485 C   0  0  0  0  0  0
  -27.0331  -30.3037   24.6127 C   0  0  0  0  0  0
  -27.6055  -32.4320   25.7503 C   0  0  0  0  0  0
  -27.5576  -37.1807   24.8465 C   0  0  0  0  0  0
  -21.4151  -29.3027   22.3709 N   0  0  0  0  0  0
  -26.4296  -37.3787   23.9405 N   0  0  0  0  0  0
  -24.6712  -31.0762   22.1028 N   0  0  0  0  0  0
  -23.4194  -28.8173   23.2997 O   0  0  0  0  0  0
  -28.3729  -26.6295   20.1524 O   0  0  0  0  0  0
  -26.5588  -34.8916   22.4677 O   0  0  0  0  0  0
  -23.5351  -32.1436   23.7499 O   0  0  0  0  0  0
  -30.0725  -19.4623   21.0582 C   0  0  0  0  0  0
  -29.1435  -20.4831   21.4325 C   0  0  0  0  0  0
  -27.8192  -20.0776   21.7625 C   0  0  0  0  0  0
  -29.6480  -18.1017   21.1033 C   0  0  0  0  0  0
  -27.4990  -18.7001   21.7309 C   0  0  0  0  0  0
  -31.9043  -20.8316   19.6856 C   0  0  0  0  0  0
  -32.1146  -19.3761   19.3794 C   0  0  0  0  0  0
  -31.5097  -19.7821   20.7091 C   0  0  0  0  0  0
  -26.7379  -21.0644   22.2078 C   0  0  0  0  0  0
  -26.1178  -18.1895   22.1011 C   0  0  0  0  0  0
  -29.5670  -21.9662   21.5775 C   0  0  0  0  0  0
  -30.6126  -16.9326   20.8526 C   0  0  0  0  0  0
  -29.2363  -24.3273   20.7283 C   0  0  0  0  0  0
  -28.2316  -25.2031   19.9345 C   0  0  0  0  0  0
  -28.3876  -17.7424   21.4137 N   0  0  0  0  0  0
  -30.0526  -15.5739   20.9733 N   0  0  0  0  0  0
  -29.0160  -22.8579   20.5222 N   0  3  0  0  0  0
  -31.4577  -12.3933   19.1325 H   0  0  0  0  0  0
  -30.3012  -11.3106   19.8521 H   0  0  0  0  0  0
  -29.7317  -11.7607   17.4434 H   0  0  0  0  0  0
  -29.6592  -13.4765   17.7622 H   0  0  0  0  0  0
  -27.8269  -11.3061   18.8344 H   0  0  0  0  0  0
  -27.3623  -12.6226   17.7904 H   0  0  0  0  0  0
  -27.6887  -14.2581   19.5541 H   0  0  0  0  0  0
  -28.6757  -12.0192   21.3852 H   0  0  0  0  0  0
  -28.4694  -13.6861   21.8454 H   0  0  0  0  0  0
  -25.2755   -9.5681   22.4761 H   0  0  0  0  0  0
  -23.9992   -7.4634   22.7476 H   0  0  0  0  0  0
  -21.0836   -8.8769   19.8948 H   0  0  0  0  0  0
  -22.3689  -10.9671   19.6164 H   0  0  0  0  0  0
  -21.2005   -7.6139   23.9707 H   0  0  0  0  0  0
  -21.1482   -6.0517   25.9072 H   0  0  0  0  0  0
  -22.0600   -2.7604   23.2845 H   0  0  0  0  0  0
  -22.4096  -11.9879   22.4768 H   0  0  0  0  0  0
  -21.1107  -13.1259   22.2619 H   0  0  0  0  0  0
  -24.6486  -15.8353   20.4792 H   0  0  0  0  0  0
  -26.2835  -15.6281   20.0991 H   0  0  0  0  0  0
  -26.7126  -32.5514   23.1153 H   0  0  0  0  0  0
  -25.0110  -33.9775   25.0498 H   0  0  0  0  0  0
  -22.6936  -31.3121   21.4172 H   0  0  0  0  0  0
  -23.3749  -35.9634   23.3314 H   0  0  0  0  0  0
  -24.3589  -36.8905   22.2051 H   0  0  0  0  0  0
  -23.7238  -37.6508   23.6654 H   0  0  0  0  0  0
  -26.0620  -31.5926   20.6088 H   0  0  0  0  0  0
  -26.8221  -30.8670   21.9970 H   0  0  0  0  0  0
  -28.0927  -29.0584   21.1880 H   0  0  0  0  0  0
  -25.9987  -26.0097   18.9339 H   0  0  0  0  0  0
  -23.9713  -27.3342   18.9934 H   0  0  0  0  0  0
  -23.7225  -30.6156   19.4102 H   0  0  0  0  0  0
  -22.7359  -29.2602   19.8637 H   0  0  0  0  0  0
  -25.1282  -36.1974   25.0830 H   0  0  0  0  0  0
  -20.9958  -28.3239   24.1419 H   0  0  0  0  0  0
  -20.5679  -26.2265   23.3601 H   0  0  0  0  0  0
  -21.6633  -26.7431   22.1197 H   0  0  0  0  0  0
  -19.6912  -25.6290   21.1223 H   0  0  0  0  0  0
  -19.6697  -27.3195   20.6747 H   0  0  0  0  0  0
  -17.4192  -26.6658   21.4019 H   0  0  0  0  0  0
  -18.0318  -26.0057   22.9013 H   0  0  0  0  0  0
  -19.7943  -30.7231   24.2281 H   0  0  0  0  0  0
  -17.5027  -31.6264   24.5139 H   0  0  0  0  0  0
  -15.5351  -30.2969   23.7667 H   0  0  0  0  0  0
  -15.8666  -28.0819   22.7054 H   0  0  0  0  0  0
  -24.5922  -30.7061   25.7828 H   0  0  0  0  0  0
  -24.8956  -32.2868   26.4948 H   0  0  0  0  0  0
  -25.8107  -30.8871   27.0242 H   0  0  0  0  0  0
  -26.2880  -29.6790   24.1186 H   0  0  0  0  0  0
  -27.4101  -29.7289   25.4598 H   0  0  0  0  0  0
  -27.8722  -30.4350   23.9287 H   0  0  0  0  0  0
  -27.2674  -33.3615   26.2097 H   0  0  0  0  0  0
  -28.3867  -32.6892   25.0338 H   0  0  0  0  0  0
  -28.0726  -31.8440   26.5415 H   0  0  0  0  0  0
  -28.2590  -38.0102   24.7508 H   0  0  0  0  0  0
  -28.1072  -36.2637   24.6301 H   0  0  0  0  0  0
  -27.2291  -37.1458   25.8865 H   0  0  0  0  0  0
  -20.9316  -29.8770   21.6948 H   0  0  0  0  0  0
  -26.0183  -38.2863   24.1422 H   0  0  0  0  0  0
  -31.1314  -21.3325   19.1082 H   0  0  0  0  0  0
  -32.7980  -21.4222   19.8802 H   0  0  0  0  0  0
  -33.1410  -19.0132   19.3783 H   0  0  0  0  0  0
  -31.4677  -18.9535   18.6129 H   0  0  0  0  0  0
  -32.1412  -19.6832   21.5914 H   0  0  0  0  0  0
  -26.9943  -22.1127   22.0807 H   0  0  0  0  0  0
  -26.5139  -20.9167   23.2652 H   0  0  0  0  0  0
  -25.8153  -20.9022   21.6480 H   0  0  0  0  0  0
  -25.7875  -18.6089   23.0511 H   0  0  0  0  0  0
  -26.1110  -17.1056   22.2113 H   0  0  0  0  0  0
  -25.3928  -18.4559   21.3318 H   0  0  0  0  0  0
  -30.6489  -22.0770   21.6183 H   0  0  0  0  0  0
  -29.2273  -22.3120   22.5541 H   0  0  0  0  0  0
  -31.4560  -17.0261   21.5383 H   0  0  0  0  0  0
  -31.0098  -17.0385   19.8437 H   0  0  0  0  0  0
  -29.1202  -24.5632   21.7865 H   0  0  0  0  0  0
  -30.2615  -24.5862   20.4607 H   0  0  0  0  0  0
  -27.2464  -24.8586   20.2501 H   0  0  0  0  0  0
  -28.3170  -25.0029   18.8658 H   0  0  0  0  0  0
  -29.0867  -15.5139   21.2603 H   0  0  0  0  0  0
  -28.0273  -22.6695   20.4887 H   0  0  0  0  0  0
  -29.3970  -22.5714   19.6345 H   0  0  0  0  0  0
  1 25  1  0  0  0
  1 30  2  0  0  0
  1 86  1  0  0  0
  2  3  1  0  0  0
  2 25  1  0  0  0
  2 88  1  0  0  0
  2 89  1  0  0  0
  3  4  1  0  0  0
  3 90  1  0  0  0
  3 91  1  0  0  0
  4  5  1  0  0  0
  4 92  1  0  0  0
  4 93  1  0  0  0
  5  6  1  0  0  0
  5 26  1  0  0  0
  5 94  1  0  0  0
  6 25  1  0  0  0
  6 95  1  0  0  0
  6 96  1  0  0  0
  7  8  2  0  0  0
  7 26  1  0  0  0
  7 29  1  0  0  0
  8  9  1  0  0  0
  8 22  1  0  0  0
  9 10  1  0  0  0
  9 27  2  0  0  0
 10 11  2  0  0  0
 10 15  1  0  0  0
 11 12  1  0  0  0
 11 97  1  0  0  0
 12 13  2  0  0  0
 12 98  1  0  0  0
 13 14  1  0  0  0
 13 31  1  0  0  0
 14 15  2  0  0  0
 14 99  1  0  0  0
 15100  1  0  0  0
 16 17  2  0  0  0
 16 21  1  0  0  0
 16 31  1  0  0  0
 17 18  1  0  0  0
 17101  1  0  0  0
 18 19  2  0  0  0
 18102  1  0  0  0
 19 20  1  0  0  0
 19 24  1  0  0  0
 20 21  2  0  0  0
 20103  1  0  0  0
 21 23  1  0  0  0
 22 28  1  0  0  0
 22 32  2  0  0  0
 26 27  1  0  0  0
 28104  1  0  0  0
 28105  1  0  0  0
 29106  1  0  0  0
 29107  1  0  0  0
 33 34  1  0  0  0
 33 66  1  0  0  0
 33 70  2  0  0  0
 34 36  1  0  0  0
 34 59  1  0  0  0
 34108  1  0  0  0
 35 44  2  0  0  0
 35 45  1  0  0  0
 35 68  1  0  0  0
 36 56  1  0  0  0
 36109  1  0  0  0
 37 39  1  0  0  0
 37 47  1  0  0  0
 37 66  1  0  0  0
 37110  1  0  0  0
 38 43  2  0  0  0
 38 46  1  0  0  0
 38 47  1  0  0  0
 39 64  1  0  0  0
 39 67  2  0  0  0
 40 52  1  0  0  0
 40 53  2  0  0  0
 40 58  1  0  0  0
 41111  1  0  0  0
 41112  1  0  0  0
 41113  1  0  0  0
 41 48  1  0  0  0
 42 43  1  0  0  0
 42 66  1  0  0  0
 42114  1  0  0  0
 42115  1  0  0  0
 43 44  1  0  0  0
 44116  1  0  0  0
 45 46  2  0  0  0
 45117  1  0  0  0
 46118  1  0  0  0
 47119  1  0  0  0
 47120  1  0  0  0
 48 56  1  0  0  0
 48 65  1  0  0  0
 48121  1  0  0  0
 49 50  1  0  0  0
 49 53  1  0  0  0
 49 64  1  0  0  0
 49122  1  0  0  0
 50 51  1  0  0  0
 50123  1  0  0  0
 50124  1  0  0  0
 51 52  1  0  0  0
 51125  1  0  0  0
 51126  1  0  0  0
 52127  1  0  0  0
 52128  1  0  0  0
 53 54  1  0  0  0
 54 55  2  0  0  0
 54129  1  0  0  0
 55 57  1  0  0  0
 55130  1  0  0  0
 56 69  2  0  0  0
 57 58  2  0  0  0
 57131  1  0  0  0
 58132  1  0  0  0
 59 60  1  0  0  0
 59 61  1  0  0  0
 59 62  1  0  0  0
 60133  1  0  0  0
 60134  1  0  0  0
 60135  1  0  0  0
 61136  1  0  0  0
 61137  1  0  0  0
 61138  1  0  0  0
 62139  1  0  0  0
 62140  1  0  0  0
 62141  1  0  0  0
 63 65  1  0  0  0
 63142  1  0  0  0
 63143  1  0  0  0
 63144  1  0  0  0
 64145  1  0  0  0
 65146  1  0  0  0
 68 84  1  0  0  0
 71 72  1  0  0  0
 71 74  2  0  0  0
 71 78  1  0  0  0
 72 73  2  0  0  0
 72 81  1  0  0  0
 73 75  1  0  0  0
 73 79  1  0  0  0
 74 82  1  0  0  0
 74 85  1  0  0  0
 75 80  1  0  0  0
 75 85  2  0  0  0
 76 77  1  0  0  0
 76 78  1  0  0  0
 76147  1  0  0  0
 76148  1  0  0  0
 77 78  1  0  0  0
 77149  1  0  0  0
 77150  1  0  0  0
 78151  1  0  0  0
 79152  1  0  0  0
 79153  1  0  0  0
 79154  1  0  0  0
 80155  1  0  0  0
 80156  1  0  0  0
 80157  1  0  0  0
 81 87  1  0  0  0
 81158  1  0  0  0
 81159  1  0  0  0
 82 86  1  0  0  0
 82160  1  0  0  0
 82161  1  0  0  0
 83 84  1  0  0  0
 83 87  1  0  0  0
 83162  1  0  0  0
 83163  1  0  0  0
 84164  1  0  0  0
 84165  1  0  0  0
 86166  1  0  0  0
 87167  1  0  0  0
 87168  1  0  0  0
M  CHG  1  87   1
M  ISO  4   1 100  68 101  84 101  86 100
M  END
> <chiral flag>
0

> <version>
0

> <s_m_source_file>
/data/baiqing/PycharmProjects/Reinvent-master-3.2/result/LINK_invent/BTK/process_docking_weight1_custom_sum_contain_oxygen_bond_distance_aromatic_linkinvent_7_9_3/rearranged_h_0172.sdf

> <i_m_source_file_index>
42

> <r_mmod_Potential_Energy-OPLS-2005>
-503.435913085938

> <r_mmod_Stretch_Energy-OPLS-2005>
45.3960075378418

> <r_mmod_Bend_Energy-OPLS-2005>
102.835487365723

> <r_mmod_Torsional_Energy-OPLS-2005>
219.983703613281

> <r_mmod_Improper_Torsional_Energy-OPLS-2005>
4.68598079681396

> <r_mmod_Van_der_Waal_Energy-OPLS-2005>
165.076202392578

> <r_mmod_Electrostatic_Energy-OPLS-2005>
-605.8251953125

> <r_mmod_Solvation_Energy-OPLS-2005>
-455.531402587891

> <b_mmod_Minimization_Converged-OPLS-2005>
0

> <r_mmod_RMS_Derivative-OPLS-2005>
1.08461582660675

$$$$
42
                    3D
 Structure written by MMmdl.
174183  0  0  1  0            999 V2000
  -30.7117  -14.4880   20.5082 C   0  0  0  0  0  0
  -30.4123  -12.2969   19.4454 C   0  0  0  0  0  0
  -29.4994  -12.4878   18.2170 C   0  0  0  0  0  0
  -28.0187  -12.3574   18.6234 C   0  0  0  0  0  0
  -27.6573  -13.2146   19.8670 C   0  0  2  0  0  0
  -28.6984  -13.0447   20.9982 C   0  0  0  0  0  0
  -25.2568  -13.8132   20.5653 C   0  0  0  0  0  0
  -24.1831  -13.0416   20.9173 C   0  0  0  0  0  0
  -24.6397  -11.6890   20.8730 C   0  0  0  0  0  0
  -23.9061  -10.4282   21.0406 C   0  0  0  0  0  0
  -24.3611   -9.4202   21.9188 C   0  0  0  0  0  0
  -23.6289   -8.2236   22.0758 C   0  0  0  0  0  0
  -22.4273   -8.0272   21.3543 C   0  0  0  0  0  0
  -21.9904   -9.0249   20.4648 C   0  0  0  0  0  0
  -22.7231  -10.2130   20.3057 C   0  0  0  0  0  0
  -21.6851   -6.0730   22.5285 C   0  0  0  0  0  0
  -21.4009   -6.5638   23.8216 C   0  0  0  0  0  0
  -21.3657   -5.6791   24.9180 C   0  0  0  0  0  0
  -21.6046   -4.3052   24.7231 C   0  0  0  0  0  0
  -21.8818   -3.8145   23.4349 C   0  0  0  0  0  0
  -21.9192   -4.6960   22.3405 C   0  0  0  0  0  0
  -22.7859  -13.5230   21.1845 C   0  0  0  0  0  0
  -22.1660   -4.2144   21.0981 F   0  0  0  0  0  0
  -21.5634   -3.4536   25.7743 F   0  0  0  0  0  0
  -30.0283  -13.3151   20.4366 N   0  0  0  0  0  0
  -26.3011  -12.9336   20.3337 N   0  0  0  0  0  0
  -25.9331  -11.6489   20.5765 N   0  0  0  0  0  0
  -22.0486  -12.8236   22.0398 N   0  0  0  0  0  0
  -25.4262  -15.1822   20.4028 N   0  0  0  0  0  0
  -31.8813  -14.5887   20.1302 O   0  0  0  0  0  0
  -21.6631   -6.8874   21.4244 O   0  0  0  0  0  0
  -22.3550  -14.5538   20.6696 O   0  0  0  0  0  0
  -24.6149  -31.8685   23.2115 C   0  0  0  0  0  0
  -25.9042  -32.4820   23.8408 C   0  0  1  0  0  0
  -27.2284  -27.4272   20.0996 C   0  0  0  0  0  0
  -25.5895  -33.8620   24.2334 N   0  0  0  0  0  0
  -23.4029  -30.4954   21.5515 C   0  0  2  0  0  0
  -24.8493  -28.9677   20.1107 C   0  0  0  0  0  0
  -22.7412  -29.4670   22.4980 C   0  0  0  0  0  0
  -18.0274  -28.1384   22.8491 C   0  0  0  0  0  0
  -24.1484  -36.7310   23.2638 C   0  0  0  0  0  0
  -25.9346  -30.8340   21.3664 C   0  0  0  0  0  0
  -26.0119  -29.4710   20.7077 C   0  0  0  0  0  0
  -27.2060  -28.7111   20.6950 C   0  0  0  0  0  0
  -26.0465  -26.9522   19.4800 C   0  0  0  0  0  0
  -24.8627  -27.7092   19.4908 C   0  0  0  0  0  0
  -23.6117  -29.8333   20.1642 C   0  0  0  0  0  0
  -25.4104  -36.3106   24.0337 C   0  0  1  0  0  0
  -20.5867  -28.3664   23.1313 C   0  0  2  0  0  0
  -20.6763  -26.9400   22.5410 C   0  0  0  0  0  0
  -19.5743  -26.6390   21.5206 C   0  0  0  0  0  0
  -18.1922  -26.7930   22.1624 C   0  0  0  0  0  0
  -19.1524  -28.8844   23.2900 C   0  0  0  0  0  0
  -18.9450  -30.1454   23.8904 C   0  0  0  0  0  0
  -17.6451  -30.6588   24.0573 C   0  0  0  0  0  0
  -25.9033  -34.9472   23.5131 C   0  0  0  0  0  0
  -16.5345  -29.9088   23.6337 C   0  0  0  0  0  0
  -16.7261  -28.6511   23.0348 C   0  0  0  0  0  0
  -26.4471  -31.6595   25.0731 C   0  0  0  0  0  0
  -25.3737  -31.3702   26.1477 C   0  0  0  0  0  0
  -27.0303  -30.3035   24.6108 C   0  0  0  0  0  0
  -27.6050  -32.4311   25.7490 C   0  0  0  0  0  0
  -27.5580  -37.1813   24.8466 C   0  0  0  0  0  0
  -21.4139  -29.3036   22.3722 N   0  0  0  0  0  0
  -26.4292  -37.3788   23.9408 N   0  0  0  0  0  0
  -24.6689  -31.0793   22.1015 N   0  0  0  0  0  0
  -23.4187  -28.8198   23.3009 O   0  0  0  0  0  0
  -28.3773  -26.6553   20.1537 O   0  0  0  0  0  0
  -26.5593  -34.8922   22.4691 O   0  0  0  0  0  0
  -23.5341  -32.1432   23.7511 O   0  0  0  0  0  0
  -29.5935  -20.5564   21.2312 C   0  0  0  0  0  0
  -28.4005  -20.3023   21.9523 C   0  0  0  0  0  0
  -30.3157  -19.4427   20.7228 C   0  0  0  0  0  0
  -27.9487  -18.9641   22.0759 C   0  0  0  0  0  0
  -29.7631  -18.1386   20.8650 C   0  0  0  0  0  0
  -27.5837  -21.4745   22.5086 C   0  0  0  0  0  0
  -30.0540  -22.0096   20.9793 C   0  0  0  0  0  0
  -28.3012  -22.8324   22.4352 C   0  0  0  0  0  0
  -31.6488  -19.6593   20.0037 C   0  0  0  0  0  0
  -26.6950  -17.3379   23.6007 C   0  0  0  0  0  0
  -25.4946  -18.5192   21.6806 C   0  0  0  0  0  0
  -29.9368  -16.9373   18.6658 C   0  0  0  0  0  0
  -29.3374  -24.4173   20.8075 C   0  0  0  0  0  0
  -28.1557  -25.2313   20.2239 C   0  0  0  0  0  0
  -26.6107  -18.6050   22.7304 C   0  0  0  0  0  0
  -30.3538  -16.9105   20.1508 C   0  0  2  0  0  0
  -28.5958  -17.9266   21.5025 N   0  0  0  0  0  0
  -29.9785  -15.5981   20.7168 N   0  0  0  0  0  0
  -28.9526  -22.9995   21.1157 N   0  3  1  0  0  0
  -31.4616  -12.3651   19.1519 H   0  0  0  0  0  0
  -30.2869  -11.2985   19.8665 H   0  0  0  0  0  0
  -29.7421  -11.7516   17.4496 H   0  0  0  0  0  0
  -29.6761  -13.4675   17.7696 H   0  0  0  0  0  0
  -27.8271  -11.3040   18.8311 H   0  0  0  0  0  0
  -27.3736  -12.6218   17.7844 H   0  0  0  0  0  0
  -27.6859  -14.2549   19.5419 H   0  0  0  0  0  0
  -28.6692  -12.0304   21.3985 H   0  0  0  0  0  0
  -28.4756  -13.7066   21.8366 H   0  0  0  0  0  0
  -25.2756   -9.5681   22.4762 H   0  0  0  0  0  0
  -24.0000   -7.4625   22.7477 H   0  0  0  0  0  0
  -21.0837   -8.8766   19.8954 H   0  0  0  0  0  0
  -22.3691  -10.9668   19.6164 H   0  0  0  0  0  0
  -21.1991   -7.6145   23.9719 H   0  0  0  0  0  0
  -21.1485   -6.0520   25.9084 H   0  0  0  0  0  0
  -22.0597   -2.7605   23.2851 H   0  0  0  0  0  0
  -22.4078  -11.9893   22.4799 H   0  0  0  0  0  0
  -21.1104  -13.1284   22.2584 H   0  0  0  0  0  0
  -24.6642  -15.8365   20.5375 H   0  0  0  0  0  0
  -26.2918  -15.6299   20.1312 H   0  0  0  0  0  0
  -26.7115  -32.5538   23.1178 H   0  0  0  0  0  0
  -25.0055  -33.9784   25.0486 H   0  0  0  0  0  0
  -22.6913  -31.3129   21.4155 H   0  0  0  0  0  0
  -23.3739  -35.9651   23.3306 H   0  0  0  0  0  0
  -24.3581  -36.8914   22.2052 H   0  0  0  0  0  0
  -23.7246  -37.6523   23.6644 H   0  0  0  0  0  0
  -26.0509  -31.6043   20.6030 H   0  0  0  0  0  0
  -26.8213  -30.8823   21.9869 H   0  0  0  0  0  0
  -28.1007  -29.0942   21.1671 H   0  0  0  0  0  0
  -26.0124  -25.9942   18.9820 H   0  0  0  0  0  0
  -23.9703  -27.3213   19.0184 H   0  0  0  0  0  0
  -23.7188  -30.6109   19.4066 H   0  0  0  0  0  0
  -22.7362  -29.2528   19.8675 H   0  0  0  0  0  0
  -25.1286  -36.1967   25.0831 H   0  0  0  0  0  0
  -20.9969  -28.3223   24.1430 H   0  0  0  0  0  0
  -20.5670  -26.2265   23.3592 H   0  0  0  0  0  0
  -21.6637  -26.7450   22.1207 H   0  0  0  0  0  0
  -19.6898  -25.6302   21.1235 H   0  0  0  0  0  0
  -19.6688  -27.3209   20.6743 H   0  0  0  0  0  0
  -17.4195  -26.6677   21.4025 H   0  0  0  0  0  0
  -18.0331  -26.0071   22.9024 H   0  0  0  0  0  0
  -19.7924  -30.7275   24.2267 H   0  0  0  0  0  0
  -17.5007  -31.6268   24.5175 H   0  0  0  0  0  0
  -15.5348  -30.2995   23.7661 H   0  0  0  0  0  0
  -15.8660  -28.0845   22.7044 H   0  0  0  0  0  0
  -24.5900  -30.7059   25.7813 H   0  0  0  0  0  0
  -24.8941  -32.2861   26.4942 H   0  0  0  0  0  0
  -25.8091  -30.8856   27.0225 H   0  0  0  0  0  0
  -26.2853  -29.6797   24.1154 H   0  0  0  0  0  0
  -27.4066  -29.7268   25.4567 H   0  0  0  0  0  0
  -27.8689  -30.4355   23.9266 H   0  0  0  0  0  0
  -27.2673  -33.3598   26.2106 H   0  0  0  0  0  0
  -28.3842  -32.6895   25.0304 H   0  0  0  0  0  0
  -28.0736  -31.8409   26.5377 H   0  0  0  0  0  0
  -28.2608  -38.0103   24.7510 H   0  0  0  0  0  0
  -28.1071  -36.2637   24.6294 H   0  0  0  0  0  0
  -27.2301  -37.1464   25.8870 H   0  0  0  0  0  0
  -20.9283  -29.8760   21.6957 H   0  0  0  0  0  0
  -26.0176  -38.2864   24.1408 H   0  0  0  0  0  0
  -27.3352  -21.2937   23.5548 H   0  0  0  0  0  0
  -26.6395  -21.5271   21.9646 H   0  0  0  0  0  0
  -30.4534  -22.0918   19.9680 H   0  0  0  0  0  0
  -30.8642  -22.2536   21.6680 H   0  0  0  0  0  0
  -29.0563  -22.9051   23.2199 H   0  0  0  0  0  0
  -27.5825  -23.6280   22.6327 H   0  0  0  0  0  0
  -32.1384  -20.5847   20.3049 H   0  0  0  0  0  0
  -31.5080  -19.6935   18.9232 H   0  0  0  0  0  0
  -32.3730  -18.8803   20.2345 H   0  0  0  0  0  0
  -27.4740  -17.4364   24.3571 H   0  0  0  0  0  0
  -26.9187  -16.4538   23.0030 H   0  0  0  0  0  0
  -25.7525  -17.1550   24.1171 H   0  0  0  0  0  0
  -25.3582  -19.4771   21.1791 H   0  0  0  0  0  0
  -24.5415  -18.2422   22.1316 H   0  0  0  0  0  0
  -25.7358  -17.7867   20.9138 H   0  0  0  0  0  0
  -30.2453  -17.8639   18.1840 H   0  0  0  0  0  0
  -28.8542  -16.8626   18.5603 H   0  0  0  0  0  0
  -30.3863  -16.1211   18.1002 H   0  0  0  0  0  0
  -29.7218  -24.8968   21.7085 H   0  0  0  0  0  0
  -30.1513  -24.4372   20.0816 H   0  0  0  0  0  0
  -27.2774  -25.0437   20.8445 H   0  0  0  0  0  0
  -27.9277  -24.8529   19.2266 H   0  0  0  0  0  0
  -26.3290  -19.3939   23.4230 H   0  0  0  0  0  0
  -31.4365  -16.9913   20.2139 H   0  0  0  0  0  0
  -29.0326  -15.5236   21.0593 H   0  0  0  0  0  0
  -28.2755  -22.7117   20.4249 H   0  0  0  0  0  0
  1 25  1  0  0  0
  1 30  2  0  0  0
  1 88  1  0  0  0
  2  3  1  0  0  0
  2 25  1  0  0  0
  2 90  1  0  0  0
  2 91  1  0  0  0
  3  4  1  0  0  0
  3 92  1  0  0  0
  3 93  1  0  0  0
  4  5  1  0  0  0
  4 94  1  0  0  0
  4 95  1  0  0  0
  5  6  1  0  0  0
  5 26  1  0  0  0
  5 96  1  0  0  0
  6 25  1  0  0  0
  6 97  1  0  0  0
  6 98  1  0  0  0
  7  8  2  0  0  0
  7 26  1  0  0  0
  7 29  1  0  0  0
  8  9  1  0  0  0
  8 22  1  0  0  0
  9 10  1  0  0  0
  9 27  2  0  0  0
 10 11  2  0  0  0
 10 15  1  0  0  0
 11 12  1  0  0  0
 11 99  1  0  0  0
 12 13  2  0  0  0
 12100  1  0  0  0
 13 14  1  0  0  0
 13 31  1  0  0  0
 14 15  2  0  0  0
 14101  1  0  0  0
 15102  1  0  0  0
 16 17  2  0  0  0
 16 21  1  0  0  0
 16 31  1  0  0  0
 17 18  1  0  0  0
 17103  1  0  0  0
 18 19  2  0  0  0
 18104  1  0  0  0
 19 20  1  0  0  0
 19 24  1  0  0  0
 20 21  2  0  0  0
 20105  1  0  0  0
 21 23  1  0  0  0
 22 28  1  0  0  0
 22 32  2  0  0  0
 26 27  1  0  0  0
 28106  1  0  0  0
 28107  1  0  0  0
 29108  1  0  0  0
 29109  1  0  0  0
 33 34  1  0  0  0
 33 66  1  0  0  0
 33 70  2  0  0  0
 34 36  1  0  0  0
 34 59  1  0  0  0
 34110  1  0  0  0
 35 44  2  0  0  0
 35 45  1  0  0  0
 35 68  1  0  0  0
 36 56  1  0  0  0
 36111  1  0  0  0
 37 39  1  0  0  0
 37 47  1  0  0  0
 37 66  1  0  0  0
 37112  1  0  0  0
 38 43  2  0  0  0
 38 46  1  0  0  0
 38 47  1  0  0  0
 39 64  1  0  0  0
 39 67  2  0  0  0
 40 52  1  0  0  0
 40 53  2  0  0  0
 40 58  1  0  0  0
 41113  1  0  0  0
 41114  1  0  0  0
 41115  1  0  0  0
 41 48  1  0  0  0
 42 43  1  0  0  0
 42 66  1  0  0  0
 42116  1  0  0  0
 42117  1  0  0  0
 43 44  1  0  0  0
 44118  1  0  0  0
 45 46  2  0  0  0
 45119  1  0  0  0
 46120  1  0  0  0
 47121  1  0  0  0
 47122  1  0  0  0
 48 56  1  0  0  0
 48 65  1  0  0  0
 48123  1  0  0  0
 49 50  1  0  0  0
 49 53  1  0  0  0
 49 64  1  0  0  0
 49124  1  0  0  0
 50 51  1  0  0  0
 50125  1  0  0  0
 50126  1  0  0  0
 51 52  1  0  0  0
 51127  1  0  0  0
 51128  1  0  0  0
 52129  1  0  0  0
 52130  1  0  0  0
 53 54  1  0  0  0
 54 55  2  0  0  0
 54131  1  0  0  0
 55 57  1  0  0  0
 55132  1  0  0  0
 56 69  2  0  0  0
 57 58  2  0  0  0
 57133  1  0  0  0
 58134  1  0  0  0
 59 60  1  0  0  0
 59 61  1  0  0  0
 59 62  1  0  0  0
 60135  1  0  0  0
 60136  1  0  0  0
 60137  1  0  0  0
 61138  1  0  0  0
 61139  1  0  0  0
 61140  1  0  0  0
 62141  1  0  0  0
 62142  1  0  0  0
 62143  1  0  0  0
 63 65  1  0  0  0
 63144  1  0  0  0
 63145  1  0  0  0
 63146  1  0  0  0
 64147  1  0  0  0
 65148  1  0  0  0
 68 84  1  0  0  0
 71 72  1  0  0  0
 71 73  2  0  0  0
 71 77  1  0  0  0
 72 74  2  0  0  0
 72 76  1  0  0  0
 73 75  1  0  0  0
 73 79  1  0  0  0
 74 85  1  0  0  0
 74 87  1  0  0  0
 75 86  1  0  0  0
 75 87  2  0  0  0
 76 78  1  0  0  0
 76149  1  0  0  0
 76150  1  0  0  0
 77 89  1  0  0  0
 77151  1  0  0  0
 77152  1  0  0  0
 78 89  1  0  0  0
 78153  1  0  0  0
 78154  1  0  0  0
 79155  1  0  0  0
 79156  1  0  0  0
 79157  1  0  0  0
 80158  1  0  0  0
 80159  1  0  0  0
 80160  1  0  0  0
 80 85  1  0  0  0
 81 85  1  0  0  0
 81161  1  0  0  0
 81162  1  0  0  0
 81163  1  0  0  0
 82164  1  0  0  0
 82165  1  0  0  0
 82166  1  0  0  0
 82 86  1  0  0  0
 83 84  1  0  0  0
 83167  1  0  0  0
 83168  1  0  0  0
 83 89  1  0  0  0
 84169  1  0  0  0
 84170  1  0  0  0
 85171  1  0  0  0
 86 88  1  0  0  0
 86172  1  0  0  0
 88173  1  0  0  0
 89174  1  0  0  0
M  CHG  1  89   1
M  ISO  4   1 100  68 101  84 101  88 100
M  END
> <chiral flag>
0

> <version>
0

> <s_m_source_file>
/data/baiqing/PycharmProjects/Reinvent-master-3.2/result/LINK_invent/BTK/process_docking_weight1_custom_sum_contain_oxygen_bond_distance_aromatic_linkinvent_7_9_3/rearranged_h_0172.sdf

> <i_m_source_file_index>
43

> <r_mmod_Potential_Energy-OPLS-2005>
-447.283355712891

> <r_mmod_Stretch_Energy-OPLS-2005>
43.8728790283203

> <r_mmod_Bend_Energy-OPLS-2005>
100.294456481934

> <r_mmod_Torsional_Energy-OPLS-2005>
220.969177246094

> <r_mmod_Improper_Torsional_Energy-OPLS-2005>
9.22411823272705

> <r_mmod_Van_der_Waal_Energy-OPLS-2005>
170.082977294922

> <r_mmod_Electrostatic_Energy-OPLS-2005>
-579.445922851562

> <r_mmod_Solvation_Energy-OPLS-2005>
-432.190155029297

> <b_mmod_Minimization_Converged-OPLS-2005>
0

> <r_mmod_RMS_Derivative-OPLS-2005>
1.08693373203278

$$$$
43
                    3D
 Structure written by MMmdl.
168178  0  0  1  0            999 V2000
  -30.2855  -15.7737   20.3439 C   0  0  0  0  0  0
  -30.4013  -13.1991   19.5300 C   0  0  0  0  0  0
  -29.5453  -12.6957   18.3314 C   0  0  0  0  0  0
  -28.1350  -12.3053   18.7889 C   0  0  0  0  0  0
  -27.5869  -13.3253   19.8105 C   0  0  2  0  0  0
  -28.5950  -13.7327   20.9151 C   0  0  0  0  0  0
  -25.2292  -13.8319   20.5842 C   0  0  0  0  0  0
  -24.1695  -13.0442   20.9304 C   0  0  0  0  0  0
  -24.6423  -11.6958   20.8768 C   0  0  0  0  0  0
  -23.9129  -10.4298   21.0390 C   0  0  0  0  0  0
  -24.3658   -9.4210   21.9179 C   0  0  0  0  0  0
  -23.6317   -8.2253   22.0753 C   0  0  0  0  0  0
  -22.4297   -8.0292   21.3546 C   0  0  0  0  0  0
  -21.9946   -9.0267   20.4644 C   0  0  0  0  0  0
  -22.7290  -10.2138   20.3046 C   0  0  0  0  0  0
  -21.6860   -6.0742   22.5276 C   0  0  0  0  0  0
  -21.4021   -6.5642   23.8212 C   0  0  0  0  0  0
  -21.3662   -5.6793   24.9173 C   0  0  0  0  0  0
  -21.6044   -4.3057   24.7220 C   0  0  0  0  0  0
  -21.8817   -3.8148   23.4340 C   0  0  0  0  0  0
  -21.9196   -4.6969   22.3400 C   0  0  0  0  0  0
  -22.7702  -13.5157   21.1926 C   0  0  0  0  0  0
  -22.1662   -4.2155   21.0978 F   0  0  0  0  0  0
  -21.5628   -3.4539   25.7733 F   0  0  0  0  0  0
  -29.7336  -14.4040   20.2336 N   0  0  0  0  0  0
  -26.2755  -12.9679   20.3280 N   0  0  0  0  0  0
  -25.9378  -11.6728   20.5700 N   0  0  0  0  0  0
  -22.0371  -12.8134   22.0474 N   0  0  0  0  0  0
  -25.3879  -15.2070   20.4314 N   0  0  0  0  0  0
  -31.5199  -15.6252   20.2100 O   0  0  0  0  0  0
  -21.6653   -6.8895   21.4243 O   0  0  0  0  0  0
  -22.3381  -14.5459   20.6765 O   0  0  0  0  0  0
  -24.6925  -31.7889   23.1420 C   0  0  0  0  0  0
  -25.9463  -32.4410   23.8004 C   0  0  1  0  0  0
  -27.2225  -26.6016   20.2200 C   0  0  0  0  0  0
  -25.5999  -33.8241   24.1881 N   0  0  0  0  0  0
  -23.5238  -30.3857   21.4979 C   0  0  2  0  0  0
  -24.9814  -28.7074   20.1146 C   0  0  0  0  0  0
  -22.7808  -29.4248   22.4658 C   0  0  0  0  0  0
  -18.0349  -28.1427   22.8446 C   0  0  0  0  0  0
  -24.1495  -36.7141   23.2657 C   0  0  0  0  0  0
  -26.1064  -30.4868   21.4230 C   0  0  0  0  0  0
  -26.1690  -29.0407   20.7746 C   0  0  0  0  0  0
  -27.2675  -28.0159   20.7969 C   0  0  0  0  0  0
  -26.0066  -26.5064   19.4909 C   0  0  0  0  0  0
  -24.9457  -27.4691   19.4484 C   0  0  0  0  0  0
  -23.7836  -29.6767   20.1356 C   0  0  0  0  0  0
  -25.4144  -36.2861   24.0269 C   0  0  1  0  0  0
  -20.5984  -28.3796   23.1111 C   0  0  2  0  0  0
  -20.6812  -26.9441   22.5400 C   0  0  0  0  0  0
  -19.5793  -26.6368   21.5212 C   0  0  0  0  0  0
  -18.1973  -26.7958   22.1609 C   0  0  0  0  0  0
  -19.1617  -28.8937   23.2762 C   0  0  0  0  0  0
  -18.9526  -30.1517   23.8815 C   0  0  0  0  0  0
  -17.6513  -30.6606   24.0548 C   0  0  0  0  0  0
  -25.9129  -34.9256   23.4917 C   0  0  0  0  0  0
  -16.5402  -29.9089   23.6352 C   0  0  0  0  0  0
  -16.7331  -28.6513   23.0365 C   0  0  0  0  0  0
  -26.4610  -31.6484   25.0668 C   0  0  0  0  0  0
  -25.3637  -31.3826   26.1253 C   0  0  0  0  0  0
  -27.0572  -30.2811   24.6638 C   0  0  0  0  0  0
  -27.6025  -32.4375   25.7499 C   0  0  0  0  0  0
  -27.5555  -37.1724   24.8461 C   0  0  0  0  0  0
  -21.4443  -29.3031   22.3422 N   0  0  0  0  0  0
  -26.4262  -37.3630   23.9405 N   0  0  0  0  0  0
  -24.7989  -30.9226   22.0739 N   0  0  0  0  0  0
  -23.4207  -28.7851   23.3036 O   0  0  0  0  0  0
  -28.1645  -25.3365   20.3400 O   0  0  0  0  0  0
  -26.5795  -34.8856   22.4550 O   0  0  0  0  0  0
  -23.5924  -32.1017   23.6304 O   0  0  0  0  0  0
  -30.7170  -23.9352   23.8909 C   0  0  0  0  0  0
  -32.4845  -22.2951   23.7600 C   0  0  0  0  0  0
  -31.5871  -24.7665   24.6264 C   0  0  0  0  0  0
  -31.1670  -22.6762   23.4461 C   0  0  0  0  0  0
  -32.8850  -24.2778   24.8807 C   0  0  0  0  0  0
  -30.7179  -26.3622   26.5193 C   0  0  0  0  0  0
  -29.6961  -26.4544   25.4118 C   0  0  0  0  0  0
  -28.7041  -18.3133   20.9890 C   0  0  0  0  0  0
  -30.2738  -18.7068   19.8895 C   0  0  0  0  0  0
  -31.1407  -26.1289   25.0875 C   0  0  0  0  0  0
  -28.9826  -19.8103   20.1583 C   0  0  0  0  0  0
  -30.2341  -21.7426   22.6884 C   0  0  0  0  0  0
  -28.1279  -23.5510   20.0037 C   0  0  0  0  0  0
  -28.8170  -21.7734   20.6196 C   0  0  2  0  0  0
  -33.3298  -23.0825   24.4611 N   0  0  0  0  0  0
  -29.6664  -17.2516   20.2440 N   0  0  0  0  0  0
  -33.8128  -25.0234   25.5877 N   0  0  0  0  0  0
  -30.0972  -22.1366   21.2680 N   0  3  0  0  0  0
  -31.3814  -13.4739   19.1397 H   0  0  0  0  0  0
  -30.6022  -12.3881   20.2325 H   0  0  0  0  0  0
  -30.0321  -11.8546   17.8370 H   0  0  0  0  0  0
  -29.4753  -13.4905   17.5872 H   0  0  0  0  0  0
  -28.1945  -11.3208   19.2553 H   0  0  0  0  0  0
  -27.4636  -12.2068   17.9346 H   0  0  0  0  0  0
  -27.4244  -14.2241   19.2129 H   0  0  0  0  0  0
  -28.8966  -12.8822   21.5290 H   0  0  0  0  0  0
  -28.1328  -14.4497   21.5946 H   0  0  0  0  0  0
  -25.2793   -9.5687   22.4763 H   0  0  0  0  0  0
  -24.0017   -7.4647   22.7481 H   0  0  0  0  0  0
  -21.0874   -8.8799   19.8949 H   0  0  0  0  0  0
  -22.3752  -10.9680   19.6158 H   0  0  0  0  0  0
  -21.2014   -7.6151   23.9719 H   0  0  0  0  0  0
  -21.1486   -6.0523   25.9079 H   0  0  0  0  0  0
  -22.0591   -2.7612   23.2840 H   0  0  0  0  0  0
  -22.4015  -11.9812   22.4873 H   0  0  0  0  0  0
  -21.0975  -13.1123   22.2657 H   0  0  0  0  0  0
  -24.6168  -15.8544   20.5524 H   0  0  0  0  0  0
  -26.2386  -15.6557   20.1165 H   0  0  0  0  0  0
  -26.7555  -32.4849   23.0723 H   0  0  0  0  0  0
  -25.0033  -33.9271   24.9956 H   0  0  0  0  0  0
  -22.8550  -31.2255   21.3004 H   0  0  0  0  0  0
  -23.3774  -35.9454   23.3261 H   0  0  0  0  0  0
  -24.3557  -36.8882   22.2086 H   0  0  0  0  0  0
  -23.7253  -37.6291   23.6795 H   0  0  0  0  0  0
  -26.3162  -31.2045   20.6289 H   0  0  0  0  0  0
  -26.9538  -30.5595   22.0911 H   0  0  0  0  0  0
  -28.1531  -28.2761   21.3596 H   0  0  0  0  0  0
  -25.8230  -25.5746   18.9749 H   0  0  0  0  0  0
  -24.0527  -27.2066   18.8978 H   0  0  0  0  0  0
  -23.9723  -30.4354   19.3753 H   0  0  0  0  0  0
  -22.8860  -29.1522   19.8049 H   0  0  0  0  0  0
  -25.1358  -36.1609   25.0758 H   0  0  0  0  0  0
  -21.0072  -28.3451   24.1238 H   0  0  0  0  0  0
  -20.5680  -26.2421   23.3674 H   0  0  0  0  0  0
  -21.6669  -26.7376   22.1214 H   0  0  0  0  0  0
  -19.6953  -25.6255   21.1303 H   0  0  0  0  0  0
  -19.6751  -27.3129   20.6701 H   0  0  0  0  0  0
  -17.4245  -26.6707   21.4012 H   0  0  0  0  0  0
  -18.0350  -26.0113   22.9014 H   0  0  0  0  0  0
  -19.8005  -30.7345   24.2154 H   0  0  0  0  0  0
  -17.5071  -31.6279   24.5166 H   0  0  0  0  0  0
  -15.5401  -30.2961   23.7735 H   0  0  0  0  0  0
  -15.8734  -28.0812   22.7116 H   0  0  0  0  0  0
  -24.5861  -30.7149   25.7524 H   0  0  0  0  0  0
  -24.8786  -32.3053   26.4434 H   0  0  0  0  0  0
  -25.7764  -30.9137   27.0192 H   0  0  0  0  0  0
  -26.3310  -29.6377   24.1659 H   0  0  0  0  0  0
  -27.4000  -29.7310   25.5410 H   0  0  0  0  0  0
  -27.9281  -30.3918   24.0178 H   0  0  0  0  0  0
  -27.2555  -33.3770   26.1812 H   0  0  0  0  0  0
  -28.3962  -32.6788   25.0418 H   0  0  0  0  0  0
  -28.0554  -31.8692   26.5638 H   0  0  0  0  0  0
  -28.2508  -38.0071   24.7494 H   0  0  0  0  0  0
  -28.1112  -36.2584   24.6294 H   0  0  0  0  0  0
  -27.2269  -37.1351   25.8861 H   0  0  0  0  0  0
  -20.9763  -29.8704   21.6491 H   0  0  0  0  0  0
  -26.0084  -38.2670   24.1432 H   0  0  0  0  0  0
  -29.7131  -24.2622   23.6634 H   0  0  0  0  0  0
  -32.8753  -21.3396   23.4406 H   0  0  0  0  0  0
  -30.6566  -25.5001   27.1817 H   0  0  0  0  0  0
  -31.0131  -27.2968   26.9932 H   0  0  0  0  0  0
  -29.3309  -27.4507   25.1661 H   0  0  0  0  0  0
  -28.9489  -25.6640   25.3691 H   0  0  0  0  0  0
  -27.6514  -18.0302   20.9390 H   0  0  0  0  0  0
  -28.9536  -18.4074   22.0486 H   0  0  0  0  0  0
  -31.1264  -18.9472   20.5283 H   0  0  0  0  0  0
  -30.6279  -18.7693   18.8595 H   0  0  0  0  0  0
  -31.7308  -26.9074   24.6050 H   0  0  0  0  0  0
  -28.3563  -19.7079   19.2712 H   0  0  0  0  0  0
  -29.2733  -21.7760   23.2051 H   0  0  0  0  0  0
  -30.5771  -20.7092   22.7536 H   0  0  0  0  0  0
  -27.0560  -23.3749   19.9151 H   0  0  0  0  0  0
  -28.4588  -23.5610   18.9658 H   0  0  0  0  0  0
  -28.0930  -21.6956   21.4307 H   0  0  0  0  0  0
  -33.4765  -25.7929   26.1535 H   0  0  0  0  0  0
  -34.6146  -24.5423   25.9764 H   0  0  0  0  0  0
  -30.8684  -21.7788   20.7275 H   0  0  0  0  0  0
  -30.1586  -23.1410   21.2241 H   0  0  0  0  0  0
  1 25  1  0  0  0
  1 30  2  0  0  0
  1 86  1  0  0  0
  2  3  1  0  0  0
  2 25  1  0  0  0
  2 89  1  0  0  0
  2 90  1  0  0  0
  3  4  1  0  0  0
  3 91  1  0  0  0
  3 92  1  0  0  0
  4  5  1  0  0  0
  4 93  1  0  0  0
  4 94  1  0  0  0
  5  6  1  0  0  0
  5 26  1  0  0  0
  5 95  1  0  0  0
  6 25  1  0  0  0
  6 96  1  0  0  0
  6 97  1  0  0  0
  7  8  2  0  0  0
  7 26  1  0  0  0
  7 29  1  0  0  0
  8  9  1  0  0  0
  8 22  1  0  0  0
  9 10  1  0  0  0
  9 27  2  0  0  0
 10 11  2  0  0  0
 10 15  1  0  0  0
 11 12  1  0  0  0
 11 98  1  0  0  0
 12 13  2  0  0  0
 12 99  1  0  0  0
 13 14  1  0  0  0
 13 31  1  0  0  0
 14 15  2  0  0  0
 14100  1  0  0  0
 15101  1  0  0  0
 16 17  2  0  0  0
 16 21  1  0  0  0
 16 31  1  0  0  0
 17 18  1  0  0  0
 17102  1  0  0  0
 18 19  2  0  0  0
 18103  1  0  0  0
 19 20  1  0  0  0
 19 24  1  0  0  0
 20 21  2  0  0  0
 20104  1  0  0  0
 21 23  1  0  0  0
 22 28  1  0  0  0
 22 32  2  0  0  0
 26 27  1  0  0  0
 28105  1  0  0  0
 28106  1  0  0  0
 29107  1  0  0  0
 29108  1  0  0  0
 33 34  1  0  0  0
 33 66  1  0  0  0
 33 70  2  0  0  0
 34 36  1  0  0  0
 34 59  1  0  0  0
 34109  1  0  0  0
 35 44  2  0  0  0
 35 45  1  0  0  0
 35 68  1  0  0  0
 36 56  1  0  0  0
 36110  1  0  0  0
 37 39  1  0  0  0
 37 47  1  0  0  0
 37 66  1  0  0  0
 37111  1  0  0  0
 38 43  2  0  0  0
 38 46  1  0  0  0
 38 47  1  0  0  0
 39 64  1  0  0  0
 39 67  2  0  0  0
 40 52  1  0  0  0
 40 53  2  0  0  0
 40 58  1  0  0  0
 41112  1  0  0  0
 41113  1  0  0  0
 41114  1  0  0  0
 41 48  1  0  0  0
 42 43  1  0  0  0
 42 66  1  0  0  0
 42115  1  0  0  0
 42116  1  0  0  0
 43 44  1  0  0  0
 44117  1  0  0  0
 45 46  2  0  0  0
 45118  1  0  0  0
 46119  1  0  0  0
 47120  1  0  0  0
 47121  1  0  0  0
 48 56  1  0  0  0
 48 65  1  0  0  0
 48122  1  0  0  0
 49 50  1  0  0  0
 49 53  1  0  0  0
 49 64  1  0  0  0
 49123  1  0  0  0
 50 51  1  0  0  0
 50124  1  0  0  0
 50125  1  0  0  0
 51 52  1  0  0  0
 51126  1  0  0  0
 51127  1  0  0  0
 52128  1  0  0  0
 52129  1  0  0  0
 53 54  1  0  0  0
 54 55  2  0  0  0
 54130  1  0  0  0
 55 57  1  0  0  0
 55131  1  0  0  0
 56 69  2  0  0  0
 57 58  2  0  0  0
 57132  1  0  0  0
 58133  1  0  0  0
 59 60  1  0  0  0
 59 61  1  0  0  0
 59 62  1  0  0  0
 60134  1  0  0  0
 60135  1  0  0  0
 60136  1  0  0  0
 61137  1  0  0  0
 61138  1  0  0  0
 61139  1  0  0  0
 62140  1  0  0  0
 62141  1  0  0  0
 62142  1  0  0  0
 63 65  1  0  0  0
 63143  1  0  0  0
 63144  1  0  0  0
 63145  1  0  0  0
 64146  1  0  0  0
 65147  1  0  0  0
 68 83  1  0  0  0
 71 73  2  0  0  0
 71 74  1  0  0  0
 71148  1  0  0  0
 72 74  2  0  0  0
 72 85  1  0  0  0
 72149  1  0  0  0
 73 75  1  0  0  0
 73 80  1  0  0  0
 74 82  1  0  0  0
 75 85  2  0  0  0
 75 87  1  0  0  0
 76 77  1  0  0  0
 76 80  1  0  0  0
 76150  1  0  0  0
 76151  1  0  0  0
 77 80  1  0  0  0
 77152  1  0  0  0
 77153  1  0  0  0
 78 86  1  0  0  0
 78154  1  0  0  0
 78155  1  0  0  0
 78 81  1  0  0  0
 79 81  1  0  0  0
 79 86  1  0  0  0
 79156  1  0  0  0
 79157  1  0  0  0
 80158  1  0  0  0
 81 84  1  0  0  0
 81159  1  0  0  0
 82 88  1  0  0  0
 82160  1  0  0  0
 82161  1  0  0  0
 83162  1  0  0  0
 83163  1  0  0  0
 83 84  1  0  0  0
 84 88  1  0  0  0
 84164  1  0  0  0
 87165  1  0  0  0
 87166  1  0  0  0
 88167  1  0  0  0
 88168  1  0  0  0
M  CHG  1  88   1
M  ISO  4   1 100  68 101  83 101  86 100
M  END
> <chiral flag>
0

> <version>
0

> <s_m_source_file>
/data/baiqing/PycharmProjects/Reinvent-master-3.2/result/LINK_invent/BTK/process_docking_weight1_custom_sum_contain_oxygen_bond_distance_aromatic_linkinvent_7_9_3/rearranged_h_0172.sdf

> <i_m_source_file_index>
44

> <r_mmod_Potential_Energy-OPLS-2005>
2792.15649414062

> <r_mmod_Stretch_Energy-OPLS-2005>
1320.83386230469

> <r_mmod_Bend_Energy-OPLS-2005>
800.811096191406

> <r_mmod_Torsional_Energy-OPLS-2005>
346.4013671875

> <r_mmod_Improper_Torsional_Energy-OPLS-2005>
18.0925273895264

> <r_mmod_Van_der_Waal_Energy-OPLS-2005>
126.550079345703

> <r_mmod_Electrostatic_Energy-OPLS-2005>
-435.541412353516

> <r_mmod_Solvation_Energy-OPLS-2005>
-505.218170166016

> <b_mmod_Minimization_Converged-OPLS-2005>
0

> <r_mmod_RMS_Derivative-OPLS-2005>
1.37775504589081

$$$$
44
                    3D
 Structure written by MMmdl.
155164  0  0  1  0            999 V2000
  -30.6209  -14.9261   20.4560 C   0  0  0  0  0  0
  -30.4406  -12.5875   19.4909 C   0  0  0  0  0  0
  -29.5133  -12.5189   18.2560 C   0  0  0  0  0  0
  -28.0536  -12.2841   18.6848 C   0  0  0  0  0  0
  -27.6307  -13.2249   19.8377 C   0  0  2  0  0  0
  -28.6849  -13.2581   20.9708 C   0  0  0  0  0  0
  -25.2447  -13.8133   20.5658 C   0  0  0  0  0  0
  -24.1764  -13.0398   20.9243 C   0  0  0  0  0  0
  -24.6368  -11.6884   20.8797 C   0  0  0  0  0  0
  -23.9052  -10.4273   21.0437 C   0  0  0  0  0  0
  -24.3607   -9.4182   21.9200 C   0  0  0  0  0  0
  -23.6279   -8.2221   22.0757 C   0  0  0  0  0  0
  -22.4263   -8.0266   21.3541 C   0  0  0  0  0  0
  -21.9905   -9.0241   20.4643 C   0  0  0  0  0  0
  -22.7235  -10.2118   20.3067 C   0  0  0  0  0  0
  -21.6844   -6.0724   22.5272 C   0  0  0  0  0  0
  -21.4007   -6.5633   23.8204 C   0  0  0  0  0  0
  -21.3658   -5.6788   24.9170 C   0  0  0  0  0  0
  -21.6044   -4.3051   24.7222 C   0  0  0  0  0  0
  -21.8823   -3.8142   23.4345 C   0  0  0  0  0  0
  -21.9187   -4.6955   22.3400 C   0  0  0  0  0  0
  -22.7783  -13.5189   21.1885 C   0  0  0  0  0  0
  -22.1658   -4.2148   21.0974 F   0  0  0  0  0  0
  -21.5632   -3.4533   25.7735 F   0  0  0  0  0  0
  -29.9561  -13.6959   20.3685 N   0  0  0  0  0  0
  -26.2888  -12.9341   20.3281 N   0  0  0  0  0  0
  -25.9304  -11.6503   20.5818 N   0  0  0  0  0  0
  -22.0433  -12.8185   22.0446 N   0  0  0  0  0  0
  -25.4016  -15.1837   20.3902 N   0  0  0  0  0  0
  -31.8232  -14.9172   20.1710 O   0  0  0  0  0  0
  -21.6625   -6.8866   21.4234 O   0  0  0  0  0  0
  -22.3476  -14.5497   20.6719 O   0  0  0  0  0  0
  -24.6434  -31.8467   23.1922 C   0  0  0  0  0  0
  -25.9206  -32.4713   23.8294 C   0  0  1  0  0  0
  -27.2215  -27.1492   20.1423 C   0  0  0  0  0  0
  -25.5962  -33.8514   24.2222 N   0  0  0  0  0  0
  -23.4465  -30.4682   21.5399 C   0  0  2  0  0  0
  -24.8966  -28.9054   20.1142 C   0  0  0  0  0  0
  -22.7565  -29.4557   22.4890 C   0  0  0  0  0  0
  -18.0293  -28.1412   22.8457 C   0  0  0  0  0  0
  -24.1489  -36.7261   23.2642 C   0  0  0  0  0  0
  -26.0048  -30.7241   21.3911 C   0  0  0  0  0  0
  -26.0769  -29.3373   20.7320 C   0  0  0  0  0  0
  -27.2405  -28.4761   20.7318 C   0  0  0  0  0  0
  -26.0115  -26.8308   19.4780 C   0  0  0  0  0  0
  -24.8776  -27.6622   19.4739 C   0  0  0  0  0  0
  -23.6714  -29.8026   20.1583 C   0  0  0  0  0  0
  -25.4121  -36.3050   24.0328 C   0  0  1  0  0  0
  -20.5909  -28.3723   23.1239 C   0  0  2  0  0  0
  -20.6788  -26.9432   22.5403 C   0  0  0  0  0  0
  -19.5760  -26.6386   21.5224 C   0  0  0  0  0  0
  -18.1934  -26.7938   22.1625 C   0  0  0  0  0  0
  -19.1558  -28.8878   23.2832 C   0  0  0  0  0  0
  -18.9477  -30.1468   23.8858 C   0  0  0  0  0  0
  -17.6478  -30.6596   24.0549 C   0  0  0  0  0  0
  -25.9077  -34.9421   23.5090 C   0  0  0  0  0  0
  -16.5364  -29.9085   23.6347 C   0  0  0  0  0  0
  -16.7277  -28.6514   23.0351 C   0  0  0  0  0  0
  -26.4517  -31.6556   25.0716 C   0  0  0  0  0  0
  -25.3696  -31.3739   26.1413 C   0  0  0  0  0  0
  -27.0354  -30.2939   24.6284 C   0  0  0  0  0  0
  -27.6091  -32.4289   25.7463 C   0  0  0  0  0  0
  -27.5574  -37.1786   24.8465 C   0  0  0  0  0  0
  -21.4265  -29.3052   22.3623 N   0  0  0  0  0  0
  -26.4283  -37.3763   23.9417 N   0  0  0  0  0  0
  -24.7183  -31.0328   22.0961 N   0  0  0  0  0  0
  -23.4206  -28.8081   23.3025 O   0  0  0  0  0  0
  -28.2621  -26.1438   20.2063 O   0  0  0  0  0  0
  -26.5662  -34.8903   22.4668 O   0  0  0  0  0  0
  -23.5559  -32.1342   23.7146 O   0  0  0  0  0  0
  -28.7872  -22.4079   21.4170 C   0  0  0  0  0  0
  -28.6862  -23.2425   20.2563 C   0  0  0  0  0  0
  -29.0554  -22.4646   19.1149 C   0  0  0  0  0  0
  -29.3613  -20.3865   20.2789 C   0  0  0  0  0  0
  -28.2907  -18.0192   21.0439 C   0  0  0  0  0  0
  -28.5940  -16.4804   21.0335 C   0  0  0  0  0  0
  -30.5332  -17.6293   20.3852 C   0  0  0  0  0  0
  -29.3517  -18.7312   20.2059 C   0  0  2  0  0  0
  -29.0224  -23.0813   17.7304 C   0  0  0  0  0  0
  -27.8335  -24.6536   20.1921 C   0  0  0  0  0  0
  -29.1227  -21.0578   21.4251 N   0  0  0  0  0  0
  -29.3660  -21.1121   19.1407 N   0  0  0  0  0  0
  -29.9703  -16.1976   20.5873 N   0  0  0  0  0  0
  -31.4711  -12.7341   19.1625 H   0  0  0  0  0  0
  -30.4432  -11.6391   20.0322 H   0  0  0  0  0  0
  -29.8384  -11.7258   17.5812 H   0  0  0  0  0  0
  -29.5845  -13.4508   17.6932 H   0  0  0  0  0  0
  -27.9682  -11.2463   19.0119 H   0  0  0  0  0  0
  -27.3811  -12.3949   17.8334 H   0  0  0  0  0  0
  -27.5851  -14.2026   19.3677 H   0  0  0  0  0  0
  -28.7896  -12.2715   21.4249 H   0  0  0  0  0  0
  -28.3807  -13.9137   21.7825 H   0  0  0  0  0  0
  -25.2748   -9.5657   22.4784 H   0  0  0  0  0  0
  -23.9978   -7.4612   22.7483 H   0  0  0  0  0  0
  -21.0841   -8.8764   19.8951 H   0  0  0  0  0  0
  -22.3696  -10.9661   19.6183 H   0  0  0  0  0  0
  -21.2000   -7.6145   23.9708 H   0  0  0  0  0  0
  -21.1476   -6.0519   25.9070 H   0  0  0  0  0  0
  -22.0607   -2.7606   23.2841 H   0  0  0  0  0  0
  -22.4042  -11.9837   22.4820 H   0  0  0  0  0  0
  -21.1064  -13.1221   22.2681 H   0  0  0  0  0  0
  -24.6232  -15.8279   20.4689 H   0  0  0  0  0  0
  -26.2265  -15.6077   19.9897 H   0  0  0  0  0  0
  -26.7251  -32.5313   23.1005 H   0  0  0  0  0  0
  -25.0059  -33.9632   25.0334 H   0  0  0  0  0  0
  -22.7489  -31.2945   21.3870 H   0  0  0  0  0  0
  -23.3763  -35.9578   23.3303 H   0  0  0  0  0  0
  -24.3577  -36.8908   22.2060 H   0  0  0  0  0  0
  -23.7237  -37.6450   23.6682 H   0  0  0  0  0  0
  -26.1579  -31.4795   20.6193 H   0  0  0  0  0  0
  -26.8775  -30.7756   22.0295 H   0  0  0  0  0  0
  -28.1356  -28.8042   21.2414 H   0  0  0  0  0  0
  -25.8772  -25.9017   18.9510 H   0  0  0  0  0  0
  -23.9807  -27.3222   18.9757 H   0  0  0  0  0  0
  -23.8064  -30.5810   19.4072 H   0  0  0  0  0  0
  -22.7851  -29.2463   19.8458 H   0  0  0  0  0  0
  -25.1304  -36.1887   25.0821 H   0  0  0  0  0  0
  -20.9968  -28.3312   24.1384 H   0  0  0  0  0  0
  -20.5728  -26.2318   23.3615 H   0  0  0  0  0  0
  -21.6650  -26.7476   22.1175 H   0  0  0  0  0  0
  -19.6940  -25.6299   21.1254 H   0  0  0  0  0  0
  -19.6709  -27.3193   20.6755 H   0  0  0  0  0  0
  -17.4210  -26.6658   21.4030 H   0  0  0  0  0  0
  -18.0331  -26.0112   22.9050 H   0  0  0  0  0  0
  -19.7950  -30.7286   24.2214 H   0  0  0  0  0  0
  -17.5030  -31.6277   24.5160 H   0  0  0  0  0  0
  -15.5360  -30.2972   23.7707 H   0  0  0  0  0  0
  -15.8675  -28.0821   22.7090 H   0  0  0  0  0  0
  -24.5871  -30.7106   25.7708 H   0  0  0  0  0  0
  -24.8871  -32.2906   26.4805 H   0  0  0  0  0  0
  -25.7962  -30.8902   27.0209 H   0  0  0  0  0  0
  -26.2948  -29.6659   24.1313 H   0  0  0  0  0  0
  -27.3976  -29.7235   25.4848 H   0  0  0  0  0  0
  -27.8869  -30.4150   23.9585 H   0  0  0  0  0  0
  -27.2786  -33.3697   26.1869 H   0  0  0  0  0  0
  -28.3975  -32.6664   25.0309 H   0  0  0  0  0  0
  -28.0641  -31.8475   26.5492 H   0  0  0  0  0  0
  -28.2586  -38.0078   24.7531 H   0  0  0  0  0  0
  -28.1069  -36.2626   24.6279 H   0  0  0  0  0  0
  -27.2287  -37.1436   25.8856 H   0  0  0  0  0  0
  -20.9474  -29.8771   21.6816 H   0  0  0  0  0  0
  -26.0161  -38.2829   24.1417 H   0  0  0  0  0  0
  -28.4788  -22.7992   22.3753 H   0  0  0  0  0  0
  -28.3491  -18.3909   22.0674 H   0  0  0  0  0  0
  -27.2856  -18.2424   20.6846 H   0  0  0  0  0  0
  -27.9070  -16.0114   20.3439 H   0  0  0  0  0  0
  -28.4237  -16.0695   22.0287 H   0  0  0  0  0  0
  -31.1259  -17.8766   21.2656 H   0  0  0  0  0  0
  -31.2178  -17.6571   19.5368 H   0  0  0  0  0  0
  -29.0407  -18.5640   19.1733 H   0  0  0  0  0  0
  -27.9940  -23.2093   17.3954 H   0  0  0  0  0  0
  -29.5413  -22.4595   17.0008 H   0  0  0  0  0  0
  -29.5034  -24.0592   17.7407 H   0  0  0  0  0  0
  -27.0846  -24.5634   20.9797 H   0  0  0  0  0  0
  -27.2835  -24.5076   19.2679 H   0  0  0  0  0  0
  1 25  1  0  0  0
  1 30  2  0  0  0
  1 83  1  0  0  0
  2  3  1  0  0  0
  2 25  1  0  0  0
  2 84  1  0  0  0
  2 85  1  0  0  0
  3  4  1  0  0  0
  3 86  1  0  0  0
  3 87  1  0  0  0
  4  5  1  0  0  0
  4 88  1  0  0  0
  4 89  1  0  0  0
  5  6  1  0  0  0
  5 26  1  0  0  0
  5 90  1  0  0  0
  6 25  1  0  0  0
  6 91  1  0  0  0
  6 92  1  0  0  0
  7  8  2  0  0  0
  7 26  1  0  0  0
  7 29  1  0  0  0
  8  9  1  0  0  0
  8 22  1  0  0  0
  9 10  1  0  0  0
  9 27  2  0  0  0
 10 11  2  0  0  0
 10 15  1  0  0  0
 11 12  1  0  0  0
 11 93  1  0  0  0
 12 13  2  0  0  0
 12 94  1  0  0  0
 13 14  1  0  0  0
 13 31  1  0  0  0
 14 15  2  0  0  0
 14 95  1  0  0  0
 15 96  1  0  0  0
 16 17  2  0  0  0
 16 21  1  0  0  0
 16 31  1  0  0  0
 17 18  1  0  0  0
 17 97  1  0  0  0
 18 19  2  0  0  0
 18 98  1  0  0  0
 19 20  1  0  0  0
 19 24  1  0  0  0
 20 21  2  0  0  0
 20 99  1  0  0  0
 21 23  1  0  0  0
 22 28  1  0  0  0
 22 32  2  0  0  0
 26 27  1  0  0  0
 28100  1  0  0  0
 28101  1  0  0  0
 29102  1  0  0  0
 29103  1  0  0  0
 33 34  1  0  0  0
 33 66  1  0  0  0
 33 70  2  0  0  0
 34 36  1  0  0  0
 34 59  1  0  0  0
 34104  1  0  0  0
 35 44  2  0  0  0
 35 45  1  0  0  0
 35 68  1  0  0  0
 36 56  1  0  0  0
 36105  1  0  0  0
 37 39  1  0  0  0
 37 47  1  0  0  0
 37 66  1  0  0  0
 37106  1  0  0  0
 38 43  2  0  0  0
 38 46  1  0  0  0
 38 47  1  0  0  0
 39 64  1  0  0  0
 39 67  2  0  0  0
 40 52  1  0  0  0
 40 53  2  0  0  0
 40 58  1  0  0  0
 41107  1  0  0  0
 41108  1  0  0  0
 41109  1  0  0  0
 41 48  1  0  0  0
 42 43  1  0  0  0
 42 66  1  0  0  0
 42110  1  0  0  0
 42111  1  0  0  0
 43 44  1  0  0  0
 44112  1  0  0  0
 45 46  2  0  0  0
 45113  1  0  0  0
 46114  1  0  0  0
 47115  1  0  0  0
 47116  1  0  0  0
 48 56  1  0  0  0
 48 65  1  0  0  0
 48117  1  0  0  0
 49 50  1  0  0  0
 49 53  1  0  0  0
 49 64  1  0  0  0
 49118  1  0  0  0
 50 51  1  0  0  0
 50119  1  0  0  0
 50120  1  0  0  0
 51 52  1  0  0  0
 51121  1  0  0  0
 51122  1  0  0  0
 52123  1  0  0  0
 52124  1  0  0  0
 53 54  1  0  0  0
 54 55  2  0  0  0
 54125  1  0  0  0
 55 57  1  0  0  0
 55126  1  0  0  0
 56 69  2  0  0  0
 57 58  2  0  0  0
 57127  1  0  0  0
 58128  1  0  0  0
 59 60  1  0  0  0
 59 61  1  0  0  0
 59 62  1  0  0  0
 60129  1  0  0  0
 60130  1  0  0  0
 60131  1  0  0  0
 61132  1  0  0  0
 61133  1  0  0  0
 61134  1  0  0  0
 62135  1  0  0  0
 62136  1  0  0  0
 62137  1  0  0  0
 63 65  1  0  0  0
 63138  1  0  0  0
 63139  1  0  0  0
 63140  1  0  0  0
 64141  1  0  0  0
 65142  1  0  0  0
 68 80  1  0  0  0
 71 72  2  0  0  0
 71 81  1  0  0  0
 71143  1  0  0  0
 72 73  1  0  0  0
 72 80  1  0  0  0
 73 79  1  0  0  0
 73 82  2  0  0  0
 74 81  2  0  0  0
 74 82  1  0  0  0
 74 78  1  0  0  0
 75 76  1  0  0  0
 75 78  1  0  0  0
 75144  1  0  0  0
 75145  1  0  0  0
 76 83  1  0  0  0
 76146  1  0  0  0
 76147  1  0  0  0
 77 78  1  0  0  0
 77 83  1  0  0  0
 77148  1  0  0  0
 77149  1  0  0  0
 78150  1  0  0  0
 79151  1  0  0  0
 79152  1  0  0  0
 79153  1  0  0  0
 80154  1  0  0  0
 80155  1  0  0  0
M  ISO  4   1 100  68 101  80 101  83 100
M  END
> <chiral flag>
0

> <version>
0

> <s_m_source_file>
/data/baiqing/PycharmProjects/Reinvent-master-3.2/result/LINK_invent/BTK/process_docking_weight1_custom_sum_contain_oxygen_bond_distance_aromatic_linkinvent_7_9_3/rearranged_h_0172.sdf

> <i_m_source_file_index>
45

> <r_mmod_Potential_Energy-OPLS-2005>
293.165496826172

> <r_mmod_Stretch_Energy-OPLS-2005>
211.473937988281

> <r_mmod_Bend_Energy-OPLS-2005>
307.320953369141

> <r_mmod_Torsional_Energy-OPLS-2005>
319.774536132812

> <r_mmod_Improper_Torsional_Energy-OPLS-2005>
12.5309953689575

> <r_mmod_Van_der_Waal_Energy-OPLS-2005>
146.951019287109

> <r_mmod_Electrostatic_Energy-OPLS-2005>
-649.319702148438

> <r_mmod_Solvation_Energy-OPLS-2005>
-233.266021728516

> <b_mmod_Minimization_Converged-OPLS-2005>
0

> <r_mmod_RMS_Derivative-OPLS-2005>
2.41252112388611

$$$$
45
                    3D
 Structure written by MMmdl.
181190  0  0  1  0            999 V2000
  -30.7074  -14.6671   20.3417 C   0  0  0  0  0  0
  -30.4071  -12.3769   19.4854 C   0  0  0  0  0  0
  -29.5364  -12.4925   18.2097 C   0  0  0  0  0  0
  -28.0275  -12.6684   18.4931 C   0  0  0  0  0  0
  -27.7112  -12.7655   19.9910 C   0  0  2  0  0  0
  -28.6894  -13.3728   20.9873 C   0  0  0  0  0  0
  -25.3093  -13.7551   20.5542 C   0  0  0  0  0  0
  -24.1861  -13.0362   20.8975 C   0  0  0  0  0  0
  -24.5719  -11.6665   20.8718 C   0  0  0  0  0  0
  -23.8381  -10.4229   21.0536 C   0  0  0  0  0  0
  -24.3148   -9.4197   21.9230 C   0  0  0  0  0  0
  -23.6033   -8.2158   22.0741 C   0  0  0  0  0  0
  -22.4050   -8.0136   21.3522 C   0  0  0  0  0  0
  -21.9531   -9.0028   20.4631 C   0  0  0  0  0  0
  -22.6662  -10.2006   20.3072 C   0  0  0  0  0  0
  -21.6801   -6.0592   22.5265 C   0  0  0  0  0  0
  -21.3985   -6.5541   23.8166 C   0  0  0  0  0  0
  -21.3579   -5.6748   24.9161 C   0  0  0  0  0  0
  -21.6022   -4.2987   24.7294 C   0  0  0  0  0  0
  -21.8854   -3.8039   23.4460 C   0  0  0  0  0  0
  -21.9182   -4.6836   22.3476 C   0  0  0  0  0  0
  -22.8064  -13.5613   21.1587 C   0  0  0  0  0  0
  -22.1668   -4.2017   21.1061 F   0  0  0  0  0  0
  -21.5561   -3.4493   25.7818 F   0  0  0  0  0  0
  -30.0235  -13.4917   20.3864 N   0  0  0  0  0  0
  -26.3050  -12.7858   20.3604 N   0  0  0  0  0  0
  -25.8380  -11.5488   20.5769 N   0  0  0  0  0  0
  -22.0563  -12.8722   22.0140 N   0  0  0  0  0  0
  -25.5334  -15.1189   20.4264 N   0  0  0  0  0  0
  -31.9164  -14.7085   20.1057 O   0  0  0  0  0  0
  -21.6534   -6.8701   21.4177 O   0  0  0  0  0  0
  -22.3887  -14.5918   20.6380 O   0  0  0  0  0  0
  -24.6259  -31.8587   23.2067 C   0  0  0  0  0  0
  -25.9129  -32.4764   23.8365 C   0  0  1  0  0  0
  -27.2358  -27.3644   20.1035 C   0  0  0  0  0  0
  -25.5966  -33.8585   24.2318 N   0  0  0  0  0  0
  -23.4193  -30.4838   21.5507 C   0  0  2  0  0  0
  -24.8663  -28.9386   20.1200 C   0  0  0  0  0  0
  -22.7504  -29.4595   22.4962 C   0  0  0  0  0  0
  -18.0261  -28.1406   22.8484 C   0  0  0  0  0  0
  -24.1486  -36.7269   23.2639 C   0  0  0  0  0  0
  -25.9580  -30.7997   21.3774 C   0  0  0  0  0  0
  -26.0319  -29.4292   20.7224 C   0  0  0  0  0  0
  -27.2195  -28.6495   20.7145 C   0  0  0  0  0  0
  -26.0501  -26.9028   19.4921 C   0  0  0  0  0  0
  -24.8688  -27.6741   19.5023 C   0  0  0  0  0  0
  -23.6368  -29.8219   20.1658 C   0  0  0  0  0  0
  -25.4107  -36.3094   24.0344 C   0  0  1  0  0  0
  -20.5889  -28.3712   23.1303 C   0  0  2  0  0  0
  -20.6778  -26.9434   22.5432 C   0  0  0  0  0  0
  -19.5756  -26.6408   21.5241 C   0  0  0  0  0  0
  -18.1914  -26.7951   22.1624 C   0  0  0  0  0  0
  -19.1532  -28.8875   23.2885 C   0  0  0  0  0  0
  -18.9439  -30.1462   23.8920 C   0  0  0  0  0  0
  -17.6441  -30.6611   24.0555 C   0  0  0  0  0  0
  -25.9038  -34.9450   23.5149 C   0  0  0  0  0  0
  -16.5328  -29.9112   23.6320 C   0  0  0  0  0  0
  -16.7245  -28.6529   23.0339 C   0  0  0  0  0  0
  -26.4508  -31.6585   25.0746 C   0  0  0  0  0  0
  -25.3716  -31.3731   26.1465 C   0  0  0  0  0  0
  -27.0350  -30.3022   24.6181 C   0  0  0  0  0  0
  -27.6109  -32.4292   25.7501 C   0  0  0  0  0  0
  -27.5570  -37.1786   24.8471 C   0  0  0  0  0  0
  -21.4228  -29.3051   22.3724 N   0  0  0  0  0  0
  -26.4275  -37.3785   23.9428 N   0  0  0  0  0  0
  -24.6849  -31.0624   22.1029 N   0  0  0  0  0  0
  -23.4205  -28.8155   23.3057 O   0  0  0  0  0  0
  -28.3803  -26.5707   20.0726 O   0  0  0  0  0  0
  -26.5600  -34.8927   22.4698 O   0  0  0  0  0  0
  -23.5414  -32.1402   23.7410 O   0  0  0  0  0  0
  -29.1287  -16.1804   17.1215 C   0  0  0  0  0  0
  -26.4438  -16.7086   16.6104 C   0  0  0  0  0  0
  -28.4814  -17.1879   17.8829 C   0  0  0  0  0  0
  -28.4756  -15.4930   16.0739 C   0  0  0  0  0  0
  -27.1202  -17.4817   17.5766 C   0  0  0  0  0  0
  -27.1032  -15.7166   15.8594 C   0  0  0  0  0  0
  -30.3168  -18.3105   20.7805 C   0  0  0  0  0  0
  -29.3561  -17.9539   18.9048 C   0  0  1  0  0  0
  -28.9170  -18.6719   20.2325 C   0  0  2  0  0  0
  -30.4041  -17.1505   19.7625 C   0  0  2  0  0  0
  -29.2618  -14.5175   15.2106 C   0  0  0  0  0  0
  -26.3308  -18.6233   18.1852 C   0  0  0  0  0  0
  -26.3058  -14.9360   14.8330 C   0  0  0  0  0  0
  -27.6228  -20.2270   21.7728 C   0  0  0  0  0  0
  -28.7916  -25.5961   22.1913 C   0  0  0  0  0  0
  -29.2550  -21.4435   20.2093 C   0  0  0  0  0  0
  -29.1199  -24.0791   20.1321 C   0  0  0  0  0  0
  -28.3467  -20.1513   20.4110 C   0  0  1  0  0  0
  -28.2939  -25.2832   20.7684 C   0  0  2  0  0  0
  -29.9569  -15.8093   20.2721 N   0  0  0  0  0  0
  -28.4511  -22.7282   20.2763 N   0  3  0  0  0  0
  -31.4661  -12.3981   19.2132 H   0  0  0  0  0  0
  -30.2607  -11.4257   19.9965 H   0  0  0  0  0  0
  -29.7041  -11.6345   17.5605 H   0  0  0  0  0  0
  -29.8795  -13.3575   17.6401 H   0  0  0  0  0  0
  -27.4769  -11.8306   18.0567 H   0  0  0  0  0  0
  -27.6651  -13.5626   17.9805 H   0  0  0  0  0  0
  -28.0075  -11.7352   20.2118 H   0  0  0  0  0  0
  -28.7411  -12.7903   21.9081 H   0  0  0  0  0  0
  -28.2873  -14.3347   21.3065 H   0  0  0  0  0  0
  -25.2296   -9.5773   22.4761 H   0  0  0  0  0  0
  -23.9782   -7.4577   22.7461 H   0  0  0  0  0  0
  -21.0454   -8.8450   19.8982 H   0  0  0  0  0  0
  -22.3077  -10.9500   19.6173 H   0  0  0  0  0  0
  -21.2013   -7.6064   23.9675 H   0  0  0  0  0  0
  -21.1274   -6.0476   25.9045 H   0  0  0  0  0  0
  -22.0687   -2.7503   23.3046 H   0  0  0  0  0  0
  -22.4179  -12.0479   22.4626 H   0  0  0  0  0  0
  -21.1226  -13.1905   22.2266 H   0  0  0  0  0  0
  -24.7571  -15.7612   20.5408 H   0  0  0  0  0  0
  -26.3665  -15.5522   20.0538 H   0  0  0  0  0  0
  -26.7221  -32.5450   23.1110 H   0  0  0  0  0  0
  -25.0172  -33.9742   25.0518 H   0  0  0  0  0  0
  -22.7109  -31.3021   21.4057 H   0  0  0  0  0  0
  -23.3770  -35.9580   23.3313 H   0  0  0  0  0  0
  -24.3556  -36.8860   22.2044 H   0  0  0  0  0  0
  -23.7202  -37.6467   23.6631 H   0  0  0  0  0  0
  -26.0879  -31.5565   20.6039 H   0  0  0  0  0  0
  -26.8441  -30.8462   21.9996 H   0  0  0  0  0  0
  -28.1190  -29.0153   21.1906 H   0  0  0  0  0  0
  -26.0419  -25.9443   18.9897 H   0  0  0  0  0  0
  -23.9714  -27.2907   19.0322 H   0  0  0  0  0  0
  -23.7755  -30.6045   19.4179 H   0  0  0  0  0  0
  -22.7561  -29.2606   19.8444 H   0  0  0  0  0  0
  -25.1264  -36.1940   25.0822 H   0  0  0  0  0  0
  -20.9889  -28.3268   24.1456 H   0  0  0  0  0  0
  -20.5740  -26.2292   23.3627 H   0  0  0  0  0  0
  -21.6638  -26.7514   22.1186 H   0  0  0  0  0  0
  -19.6936  -25.6331   21.1241 H   0  0  0  0  0  0
  -19.6700  -27.3263   20.6816 H   0  0  0  0  0  0
  -17.4196  -26.6710   21.4004 H   0  0  0  0  0  0
  -18.0271  -26.0104   22.9029 H   0  0  0  0  0  0
  -19.7907  -30.7261   24.2333 H   0  0  0  0  0  0
  -17.4984  -31.6286   24.5166 H   0  0  0  0  0  0
  -15.5330  -30.3005   23.7649 H   0  0  0  0  0  0
  -15.8634  -28.0842   22.7048 H   0  0  0  0  0  0
  -24.5938  -30.7015   25.7791 H   0  0  0  0  0  0
  -24.8841  -32.2895   26.4814 H   0  0  0  0  0  0
  -25.8023  -30.8969   27.0286 H   0  0  0  0  0  0
  -26.2930  -29.6760   24.1207 H   0  0  0  0  0  0
  -27.4082  -29.7275   25.4665 H   0  0  0  0  0  0
  -27.8782  -30.4355   23.9401 H   0  0  0  0  0  0
  -27.2797  -33.3628   26.2068 H   0  0  0  0  0  0
  -28.3930  -32.6767   25.0306 H   0  0  0  0  0  0
  -28.0770  -31.8392   26.5405 H   0  0  0  0  0  0
  -28.2592  -38.0083   24.7507 H   0  0  0  0  0  0
  -28.1060  -36.2600   24.6301 H   0  0  0  0  0  0
  -27.2287  -37.1445   25.8880 H   0  0  0  0  0  0
  -20.9447  -29.8682   21.6851 H   0  0  0  0  0  0
  -26.0160  -38.2855   24.1459 H   0  0  0  0  0  0
  -30.1568  -15.9229   17.3363 H   0  0  0  0  0  0
  -25.4016  -16.8989   16.4198 H   0  0  0  0  0  0
  -30.3795  -18.0399   21.8351 H   0  0  0  0  0  0
  -31.0427  -19.0988   20.5460 H   0  0  0  0  0  0
  -29.9019  -18.6772   18.3012 H   0  0  0  0  0  0
  -28.2084  -17.9719   20.6773 H   0  0  0  0  0  0
  -31.3680  -17.1127   19.2559 H   0  0  0  0  0  0
  -29.0347  -14.6399   14.1547 H   0  0  0  0  0  0
  -30.3406  -14.6376   15.3190 H   0  0  0  0  0  0
  -29.0236  -13.4955   15.4986 H   0  0  0  0  0  0
  -25.3226  -18.7157   17.7777 H   0  0  0  0  0  0
  -26.8122  -19.5667   17.9405 H   0  0  0  0  0  0
  -26.2383  -18.4760   19.2598 H   0  0  0  0  0  0
  -26.7553  -15.0168   13.8483 H   0  0  0  0  0  0
  -25.2883  -15.3192   14.7604 H   0  0  0  0  0  0
  -26.2405  -13.8858   15.1044 H   0  0  0  0  0  0
  -26.8242  -19.4830   21.8302 H   0  0  0  0  0  0
  -27.1481  -21.1898   21.9600 H   0  0  0  0  0  0
  -28.3099  -20.0387   22.5952 H   0  0  0  0  0  0
  -28.8913  -24.6946   22.7937 H   0  0  0  0  0  0
  -28.1160  -26.2746   22.7177 H   0  0  0  0  0  0
  -29.7689  -26.0764   22.1590 H   0  0  0  0  0  0
  -29.7873  -21.3998   19.2602 H   0  0  0  0  0  0
  -30.0258  -21.4727   20.9811 H   0  0  0  0  0  0
  -30.1207  -24.0433   20.5676 H   0  0  0  0  0  0
  -29.2702  -24.2589   19.0682 H   0  0  0  0  0  0
  -27.5541  -20.2937   19.6993 H   0  0  0  0  0  0
  -27.2483  -24.9706   20.8460 H   0  0  0  0  0  0
  -28.9655  -15.6896   20.4093 H   0  0  0  0  0  0
  -27.9701  -22.6913   21.1624 H   0  0  0  0  0  0
  -27.7343  -22.6714   19.5678 H   0  0  0  0  0  0
  1 25  1  0  0  0
  1 30  2  0  0  0
  1 90  1  0  0  0
  2  3  1  0  0  0
  2 25  1  0  0  0
  2 92  1  0  0  0
  2 93  1  0  0  0
  3  4  1  0  0  0
  3 94  1  0  0  0
  3 95  1  0  0  0
  4  5  1  0  0  0
  4 96  1  0  0  0
  4 97  1  0  0  0
  5  6  1  0  0  0
  5 26  1  0  0  0
  5 98  1  0  0  0
  6 25  1  0  0  0
  6 99  1  0  0  0
  6100  1  0  0  0
  7  8  2  0  0  0
  7 26  1  0  0  0
  7 29  1  0  0  0
  8  9  1  0  0  0
  8 22  1  0  0  0
  9 10  1  0  0  0
  9 27  2  0  0  0
 10 11  2  0  0  0
 10 15  1  0  0  0
 11 12  1  0  0  0
 11101  1  0  0  0
 12 13  2  0  0  0
 12102  1  0  0  0
 13 14  1  0  0  0
 13 31  1  0  0  0
 14 15  2  0  0  0
 14103  1  0  0  0
 15104  1  0  0  0
 16 17  2  0  0  0
 16 21  1  0  0  0
 16 31  1  0  0  0
 17 18  1  0  0  0
 17105  1  0  0  0
 18 19  2  0  0  0
 18106  1  0  0  0
 19 20  1  0  0  0
 19 24  1  0  0  0
 20 21  2  0  0  0
 20107  1  0  0  0
 21 23  1  0  0  0
 22 28  1  0  0  0
 22 32  2  0  0  0
 26 27  1  0  0  0
 28108  1  0  0  0
 28109  1  0  0  0
 29110  1  0  0  0
 29111  1  0  0  0
 33 34  1  0  0  0
 33 66  1  0  0  0
 33 70  2  0  0  0
 34 36  1  0  0  0
 34 59  1  0  0  0
 34112  1  0  0  0
 35 44  2  0  0  0
 35 45  1  0  0  0
 35 68  1  0  0  0
 36 56  1  0  0  0
 36113  1  0  0  0
 37 39  1  0  0  0
 37 47  1  0  0  0
 37 66  1  0  0  0
 37114  1  0  0  0
 38 43  2  0  0  0
 38 46  1  0  0  0
 38 47  1  0  0  0
 39 64  1  0  0  0
 39 67  2  0  0  0
 40 52  1  0  0  0
 40 53  2  0  0  0
 40 58  1  0  0  0
 41115  1  0  0  0
 41116  1  0  0  0
 41117  1  0  0  0
 41 48  1  0  0  0
 42 43  1  0  0  0
 42 66  1  0  0  0
 42118  1  0  0  0
 42119  1  0  0  0
 43 44  1  0  0  0
 44120  1  0  0  0
 45 46  2  0  0  0
 45121  1  0  0  0
 46122  1  0  0  0
 47123  1  0  0  0
 47124  1  0  0  0
 48 56  1  0  0  0
 48 65  1  0  0  0
 48125  1  0  0  0
 49 50  1  0  0  0
 49 53  1  0  0  0
 49 64  1  0  0  0
 49126  1  0  0  0
 50 51  1  0  0  0
 50127  1  0  0  0
 50128  1  0  0  0
 51 52  1  0  0  0
 51129  1  0  0  0
 51130  1  0  0  0
 52131  1  0  0  0
 52132  1  0  0  0
 53 54  1  0  0  0
 54 55  2  0  0  0
 54133  1  0  0  0
 55 57  1  0  0  0
 55134  1  0  0  0
 56 69  2  0  0  0
 57 58  2  0  0  0
 57135  1  0  0  0
 58136  1  0  0  0
 59 60  1  0  0  0
 59 61  1  0  0  0
 59 62  1  0  0  0
 60137  1  0  0  0
 60138  1  0  0  0
 60139  1  0  0  0
 61140  1  0  0  0
 61141  1  0  0  0
 61142  1  0  0  0
 62143  1  0  0  0
 62144  1  0  0  0
 62145  1  0  0  0
 63 65  1  0  0  0
 63146  1  0  0  0
 63147  1  0  0  0
 63148  1  0  0  0
 64149  1  0  0  0
 65150  1  0  0  0
 68 89  1  0  0  0
 71 73  2  0  0  0
 71 74  1  0  0  0
 71151  1  0  0  0
 72 75  2  0  0  0
 72 76  1  0  0  0
 72152  1  0  0  0
 73 75  1  0  0  0
 73 78  1  0  0  0
 74 76  2  0  0  0
 74 81  1  0  0  0
 75 82  1  0  0  0
 76 83  1  0  0  0
 77 80  1  0  0  0
 77153  1  0  0  0
 77154  1  0  0  0
 77 79  1  0  0  0
 78 79  1  0  0  0
 78 80  1  0  0  0
 78155  1  0  0  0
 79 88  1  0  0  0
 79156  1  0  0  0
 80 90  1  0  0  0
 80157  1  0  0  0
 81158  1  0  0  0
 81159  1  0  0  0
 81160  1  0  0  0
 82161  1  0  0  0
 82162  1  0  0  0
 82163  1  0  0  0
 83164  1  0  0  0
 83165  1  0  0  0
 83166  1  0  0  0
 84167  1  0  0  0
 84168  1  0  0  0
 84169  1  0  0  0
 84 88  1  0  0  0
 85170  1  0  0  0
 85171  1  0  0  0
 85172  1  0  0  0
 85 89  1  0  0  0
 86 88  1  0  0  0
 86 91  1  0  0  0
 86173  1  0  0  0
 86174  1  0  0  0
 87 89  1  0  0  0
 87 91  1  0  0  0
 87175  1  0  0  0
 87176  1  0  0  0
 88177  1  0  0  0
 89178  1  0  0  0
 90179  1  0  0  0
 91180  1  0  0  0
 91181  1  0  0  0
M  CHG  1  91   1
M  ISO  4   1 100  68 101  89 101  90 100
M  END
> <chiral flag>
0

> <version>
0

> <s_m_source_file>
/data/baiqing/PycharmProjects/Reinvent-master-3.2/result/LINK_invent/BTK/process_docking_weight1_custom_sum_contain_oxygen_bond_distance_aromatic_linkinvent_7_9_3/rearranged_h_0172.sdf

> <i_m_source_file_index>
46

> <r_mmod_Potential_Energy-OPLS-2005>
114.557281494141

> <r_mmod_Stretch_Energy-OPLS-2005>
76.0598526000977

> <r_mmod_Bend_Energy-OPLS-2005>
217.579437255859

> <r_mmod_Torsional_Energy-OPLS-2005>
325.212890625

> <r_mmod_Improper_Torsional_Energy-OPLS-2005>
7.90577459335327

> <r_mmod_Van_der_Waal_Energy-OPLS-2005>
139.765213012695

> <r_mmod_Electrostatic_Energy-OPLS-2005>
-316.289489746094

> <r_mmod_Solvation_Energy-OPLS-2005>
-443.020446777344

> <b_mmod_Minimization_Converged-OPLS-2005>
0

> <r_mmod_RMS_Derivative-OPLS-2005>
12.1409387588501

$$$$
46
                    3D
 Structure written by MMmdl.
174183  0  0  1  0            999 V2000
  -30.6635  -14.5382   20.4980 C   0  0  0  0  0  0
  -30.4172  -12.3256   19.4348 C   0  0  0  0  0  0
  -29.4939  -12.5014   18.2099 C   0  0  0  0  0  0
  -28.0125  -12.3657   18.6190 C   0  0  0  0  0  0
  -27.6532  -13.2154   19.8686 C   0  0  2  0  0  0
  -28.7000  -13.0308   20.9916 C   0  0  0  0  0  0
  -25.2536  -13.8138   20.5672 C   0  0  0  0  0  0
  -24.1798  -13.0414   20.9148 C   0  0  0  0  0  0
  -24.6346  -11.6878   20.8676 C   0  0  0  0  0  0
  -23.9004  -10.4272   21.0333 C   0  0  0  0  0  0
  -24.3581   -9.4229   21.9143 C   0  0  0  0  0  0
  -23.6283   -8.2255   22.0737 C   0  0  0  0  0  0
  -22.4281   -8.0236   21.3516 C   0  0  0  0  0  0
  -21.9867   -9.0192   20.4621 C   0  0  0  0  0  0
  -22.7153  -10.2084   20.3027 C   0  0  0  0  0  0
  -21.6867   -6.0719   22.5278 C   0  0  0  0  0  0
  -21.4018   -6.5630   23.8213 C   0  0  0  0  0  0
  -21.3664   -5.6779   24.9165 C   0  0  0  0  0  0
  -21.6048   -4.3041   24.7222 C   0  0  0  0  0  0
  -21.8829   -3.8138   23.4342 C   0  0  0  0  0  0
  -21.9202   -4.6949   22.3402 C   0  0  0  0  0  0
  -22.7814  -13.5205   21.1831 C   0  0  0  0  0  0
  -22.1666   -4.2139   21.0975 F   0  0  0  0  0  0
  -21.5645   -3.4529   25.7738 F   0  0  0  0  0  0
  -30.0227  -13.3369   20.4306 N   0  0  0  0  0  0
  -26.2991  -12.9334   20.3350 N   0  0  0  0  0  0
  -25.9301  -11.6473   20.5774 N   0  0  0  0  0  0
  -22.0439  -12.8213   22.0382 N   0  0  0  0  0  0
  -25.4184  -15.1893   20.4114 N   0  0  0  0  0  0
  -31.8226  -14.6902   20.1101 O   0  0  0  0  0  0
  -21.6647   -6.8844   21.4227 O   0  0  0  0  0  0
  -22.3503  -14.5493   20.6652 O   0  0  0  0  0  0
  -24.6143  -31.8684   23.2070 C   0  0  0  0  0  0
  -25.9031  -32.4826   23.8379 C   0  0  1  0  0  0
  -27.2322  -27.4401   20.0869 C   0  0  0  0  0  0
  -25.5861  -33.8616   24.2300 N   0  0  0  0  0  0
  -23.4025  -30.4916   21.5506 C   0  0  2  0  0  0
  -24.8473  -28.9602   20.1117 C   0  0  0  0  0  0
  -22.7422  -29.4646   22.4987 C   0  0  0  0  0  0
  -18.0276  -28.1374   22.8495 C   0  0  0  0  0  0
  -24.1472  -36.7334   23.2635 C   0  0  0  0  0  0
  -25.9316  -30.8369   21.3586 C   0  0  0  0  0  0
  -26.0089  -29.4722   20.7030 C   0  0  0  0  0  0
  -27.2071  -28.7208   20.6847 C   0  0  0  0  0  0
  -26.0558  -26.9475   19.4793 C   0  0  0  0  0  0
  -24.8656  -27.6966   19.4967 C   0  0  0  0  0  0
  -23.6085  -29.8251   20.1644 C   0  0  0  0  0  0
  -25.4098  -36.3115   24.0322 C   0  0  1  0  0  0
  -20.5867  -28.3650   23.1331 C   0  0  2  0  0  0
  -20.6753  -26.9392   22.5429 C   0  0  0  0  0  0
  -19.5730  -26.6380   21.5223 C   0  0  0  0  0  0
  -18.1906  -26.7921   22.1621 C   0  0  0  0  0  0
  -19.1531  -28.8826   23.2907 C   0  0  0  0  0  0
  -18.9442  -30.1436   23.8918 C   0  0  0  0  0  0
  -17.6445  -30.6584   24.0566 C   0  0  0  0  0  0
  -25.9027  -34.9480   23.5127 C   0  0  0  0  0  0
  -16.5341  -29.9092   23.6321 C   0  0  0  0  0  0
  -16.7262  -28.6505   23.0343 C   0  0  0  0  0  0
  -26.4437  -31.6608   25.0717 C   0  0  0  0  0  0
  -25.3672  -31.3759   26.1460 C   0  0  0  0  0  0
  -27.0237  -30.3021   24.6108 C   0  0  0  0  0  0
  -27.6011  -32.4323   25.7495 C   0  0  0  0  0  0
  -27.5593  -37.1805   24.8446 C   0  0  0  0  0  0
  -21.4140  -29.3027   22.3740 N   0  0  0  0  0  0
  -26.4286  -37.3811   23.9414 N   0  0  0  0  0  0
  -24.6681  -31.0794   22.0971 N   0  0  0  0  0  0
  -23.4205  -28.8161   23.3007 O   0  0  0  0  0  0
  -28.3778  -26.6678   20.1168 O   0  0  0  0  0  0
  -26.5626  -34.8940   22.4716 O   0  0  0  0  0  0
  -23.5335  -32.1409   23.7477 O   0  0  0  0  0  0
  -29.4428  -18.0339   21.1648 C   0  0  0  0  0  0
  -30.4223  -19.6075   19.6330 C   0  0  0  0  0  0
  -30.8064  -17.3453   19.3027 C   0  0  0  0  0  0
  -29.6487  -19.3954   20.7945 C   0  0  0  0  0  0
  -30.0623  -16.9790   20.4464 C   0  0  0  0  0  0
  -30.0810  -22.5376   22.7917 C   0  0  0  0  0  0
  -30.1658  -21.3154   23.6966 C   0  0  0  0  0  0
  -29.0462  -20.5845   21.6120 C   0  0  2  0  0  0
  -29.7203  -22.0073   21.3902 C   0  0  1  0  0  0
  -29.1135  -20.3338   23.1602 C   0  0  2  0  0  0
  -28.2304  -25.7678   22.3397 C   0  0  0  0  0  0
  -27.7998  -19.7425   25.1956 C   0  0  0  0  0  0
  -27.1119  -21.7207   23.9200 C   0  0  0  0  0  0
  -29.3558  -24.3950   20.4718 C   0  0  0  0  0  0
  -28.2407  -25.4228   20.8374 C   0  0  2  0  0  0
  -30.9760  -18.6206   18.9038 N   0  0  0  0  0  0
  -29.8948  -15.6012   20.8549 N   0  0  0  0  0  0
  -28.8988  -22.9697   20.5773 N   0  3  0  0  0  0
  -27.7859  -20.3975   23.8632 N   0  3  0  0  0  0
  -31.4620  -12.4211   19.1386 H   0  0  0  0  0  0
  -30.3084  -11.3212   19.8501 H   0  0  0  0  0  0
  -29.7347  -11.7662   17.4385 H   0  0  0  0  0  0
  -29.6641  -13.4800   17.7557 H   0  0  0  0  0  0
  -27.8188  -11.3123   18.8216 H   0  0  0  0  0  0
  -27.3627  -12.6354   17.7863 H   0  0  0  0  0  0
  -27.6778  -14.2596   19.5539 H   0  0  0  0  0  0
  -28.6912  -12.0044   21.3636 H   0  0  0  0  0  0
  -28.4684  -13.6593   21.8540 H   0  0  0  0  0  0
  -25.2724   -9.5765   22.4692 H   0  0  0  0  0  0
  -24.0039   -7.4667   22.7476 H   0  0  0  0  0  0
  -21.0800   -8.8634   19.8941 H   0  0  0  0  0  0
  -22.3547  -10.9589   19.6137 H   0  0  0  0  0  0
  -21.2007   -7.6143   23.9709 H   0  0  0  0  0  0
  -21.1474   -6.0507   25.9066 H   0  0  0  0  0  0
  -22.0614   -2.7598   23.2842 H   0  0  0  0  0  0
  -22.4070  -11.9949   22.4896 H   0  0  0  0  0  0
  -21.1026  -13.1215   22.2468 H   0  0  0  0  0  0
  -24.6396  -15.8321   20.5023 H   0  0  0  0  0  0
  -26.2787  -15.6374   20.1241 H   0  0  0  0  0  0
  -26.7119  -32.5529   23.1157 H   0  0  0  0  0  0
  -24.9906  -33.9770   25.0358 H   0  0  0  0  0  0
  -22.6916  -31.3079   21.4129 H   0  0  0  0  0  0
  -23.3742  -35.9663   23.3253 H   0  0  0  0  0  0
  -24.3583  -36.9011   22.2066 H   0  0  0  0  0  0
  -23.7201  -37.6509   23.6689 H   0  0  0  0  0  0
  -26.0430  -31.6039   20.5905 H   0  0  0  0  0  0
  -26.8187  -30.8891   21.9763 H   0  0  0  0  0  0
  -28.1039  -29.1089   21.1475 H   0  0  0  0  0  0
  -26.0506  -25.9843   18.9892 H   0  0  0  0  0  0
  -23.9723  -27.2989   19.0351 H   0  0  0  0  0  0
  -23.7122  -30.5992   19.4035 H   0  0  0  0  0  0
  -22.7311  -29.2444   19.8704 H   0  0  0  0  0  0
  -25.1275  -36.1983   25.0816 H   0  0  0  0  0  0
  -20.9962  -28.3204   24.1446 H   0  0  0  0  0  0
  -20.5642  -26.2260   23.3610 H   0  0  0  0  0  0
  -21.6618  -26.7409   22.1229 H   0  0  0  0  0  0
  -19.6882  -25.6288   21.1236 H   0  0  0  0  0  0
  -19.6680  -27.3204   20.6758 H   0  0  0  0  0  0
  -17.4187  -26.6693   21.4020 H   0  0  0  0  0  0
  -18.0291  -26.0063   22.9006 H   0  0  0  0  0  0
  -19.7917  -30.7259   24.2302 H   0  0  0  0  0  0
  -17.4994  -31.6263   24.5149 H   0  0  0  0  0  0
  -15.5343  -30.2999   23.7616 H   0  0  0  0  0  0
  -15.8650  -28.0832   22.7040 H   0  0  0  0  0  0
  -24.5814  -30.7149   25.7786 H   0  0  0  0  0  0
  -24.8900  -32.2944   26.4900 H   0  0  0  0  0  0
  -25.7988  -30.8912   27.0219 H   0  0  0  0  0  0
  -26.2777  -29.6843   24.1087 H   0  0  0  0  0  0
  -27.3888  -29.7235   25.4602 H   0  0  0  0  0  0
  -27.8680  -30.4327   23.9324 H   0  0  0  0  0  0
  -27.2608  -33.3601   26.2123 H   0  0  0  0  0  0
  -28.3799  -32.6928   25.0304 H   0  0  0  0  0  0
  -28.0689  -31.8402   26.5373 H   0  0  0  0  0  0
  -28.2562  -38.0148   24.7560 H   0  0  0  0  0  0
  -28.1131  -36.2685   24.6163 H   0  0  0  0  0  0
  -27.2330  -37.1322   25.8849 H   0  0  0  0  0  0
  -20.9284  -29.8811   21.7018 H   0  0  0  0  0  0
  -26.0169  -38.2886   24.1454 H   0  0  0  0  0  0
  -28.8212  -17.7867   22.0127 H   0  0  0  0  0  0
  -30.6076  -20.5984   19.2468 H   0  0  0  0  0  0
  -31.2607  -16.6159   18.6533 H   0  0  0  0  0  0
  -31.0176  -23.0998   22.7891 H   0  0  0  0  0  0
  -29.3183  -23.1965   23.1880 H   0  0  0  0  0  0
  -30.0572  -21.5557   24.7547 H   0  0  0  0  0  0
  -31.1528  -20.8651   23.5845 H   0  0  0  0  0  0
  -27.9977  -20.6364   21.3137 H   0  0  0  0  0  0
  -30.6831  -21.9038   20.8931 H   0  0  0  0  0  0
  -29.4954  -19.3369   23.3716 H   0  0  0  0  0  0
  -28.0824  -24.8918   22.9619 H   0  0  0  0  0  0
  -27.4187  -26.4501   22.5888 H   0  0  0  0  0  0
  -29.1619  -26.2470   22.6428 H   0  0  0  0  0  0
  -28.1076  -18.6996   25.1260 H   0  0  0  0  0  0
  -26.8065  -19.7458   25.6422 H   0  0  0  0  0  0
  -28.4759  -20.2436   25.8875 H   0  0  0  0  0  0
  -27.0121  -22.1699   22.9329 H   0  0  0  0  0  0
  -27.6421  -22.4197   24.5661 H   0  0  0  0  0  0
  -26.1042  -21.6188   24.3255 H   0  0  0  0  0  0
  -30.2624  -24.5904   21.0444 H   0  0  0  0  0  0
  -29.6382  -24.5506   19.4291 H   0  0  0  0  0  0
  -27.2847  -24.9611   20.5854 H   0  0  0  0  0  0
  -29.0381  -15.3720   21.3327 H   0  0  0  0  0  0
  -27.9418  -22.9746   20.8920 H   0  0  0  0  0  0
  -28.8642  -22.6187   19.6317 H   0  0  0  0  0  0
  -27.1613  -19.8105   23.3276 H   0  0  0  0  0  0
  1 25  1  0  0  0
  1 30  2  0  0  0
  1 87  1  0  0  0
  2  3  1  0  0  0
  2 25  1  0  0  0
  2 90  1  0  0  0
  2 91  1  0  0  0
  3  4  1  0  0  0
  3 92  1  0  0  0
  3 93  1  0  0  0
  4  5  1  0  0  0
  4 94  1  0  0  0
  4 95  1  0  0  0
  5  6  1  0  0  0
  5 26  1  0  0  0
  5 96  1  0  0  0
  6 25  1  0  0  0
  6 97  1  0  0  0
  6 98  1  0  0  0
  7  8  2  0  0  0
  7 26  1  0  0  0
  7 29  1  0  0  0
  8  9  1  0  0  0
  8 22  1  0  0  0
  9 10  1  0  0  0
  9 27  2  0  0  0
 10 11  2  0  0  0
 10 15  1  0  0  0
 11 12  1  0  0  0
 11 99  1  0  0  0
 12 13  2  0  0  0
 12100  1  0  0  0
 13 14  1  0  0  0
 13 31  1  0  0  0
 14 15  2  0  0  0
 14101  1  0  0  0
 15102  1  0  0  0
 16 17  2  0  0  0
 16 21  1  0  0  0
 16 31  1  0  0  0
 17 18  1  0  0  0
 17103  1  0  0  0
 18 19  2  0  0  0
 18104  1  0  0  0
 19 20  1  0  0  0
 19 24  1  0  0  0
 20 21  2  0  0  0
 20105  1  0  0  0
 21 23  1  0  0  0
 22 28  1  0  0  0
 22 32  2  0  0  0
 26 27  1  0  0  0
 28106  1  0  0  0
 28107  1  0  0  0
 29108  1  0  0  0
 29109  1  0  0  0
 33 34  1  0  0  0
 33 66  1  0  0  0
 33 70  2  0  0  0
 34 36  1  0  0  0
 34 59  1  0  0  0
 34110  1  0  0  0
 35 44  2  0  0  0
 35 45  1  0  0  0
 35 68  1  0  0  0
 36 56  1  0  0  0
 36111  1  0  0  0
 37 39  1  0  0  0
 37 47  1  0  0  0
 37 66  1  0  0  0
 37112  1  0  0  0
 38 43  2  0  0  0
 38 46  1  0  0  0
 38 47  1  0  0  0
 39 64  1  0  0  0
 39 67  2  0  0  0
 40 52  1  0  0  0
 40 53  2  0  0  0
 40 58  1  0  0  0
 41113  1  0  0  0
 41114  1  0  0  0
 41115  1  0  0  0
 41 48  1  0  0  0
 42 43  1  0  0  0
 42 66  1  0  0  0
 42116  1  0  0  0
 42117  1  0  0  0
 43 44  1  0  0  0
 44118  1  0  0  0
 45 46  2  0  0  0
 45119  1  0  0  0
 46120  1  0  0  0
 47121  1  0  0  0
 47122  1  0  0  0
 48 56  1  0  0  0
 48 65  1  0  0  0
 48123  1  0  0  0
 49 50  1  0  0  0
 49 53  1  0  0  0
 49 64  1  0  0  0
 49124  1  0  0  0
 50 51  1  0  0  0
 50125  1  0  0  0
 50126  1  0  0  0
 51 52  1  0  0  0
 51127  1  0  0  0
 51128  1  0  0  0
 52129  1  0  0  0
 52130  1  0  0  0
 53 54  1  0  0  0
 54 55  2  0  0  0
 54131  1  0  0  0
 55 57  1  0  0  0
 55132  1  0  0  0
 56 69  2  0  0  0
 57 58  2  0  0  0
 57133  1  0  0  0
 58134  1  0  0  0
 59 60  1  0  0  0
 59 61  1  0  0  0
 59 62  1  0  0  0
 60135  1  0  0  0
 60136  1  0  0  0
 60137  1  0  0  0
 61138  1  0  0  0
 61139  1  0  0  0
 61140  1  0  0  0
 62141  1  0  0  0
 62142  1  0  0  0
 62143  1  0  0  0
 63 65  1  0  0  0
 63144  1  0  0  0
 63145  1  0  0  0
 63146  1  0  0  0
 64147  1  0  0  0
 65148  1  0  0  0
 68 85  1  0  0  0
 71 74  2  0  0  0
 71 75  1  0  0  0
 71149  1  0  0  0
 72 74  1  0  0  0
 72 86  2  0  0  0
 72150  1  0  0  0
 73 75  2  0  0  0
 73 86  1  0  0  0
 73151  1  0  0  0
 74 78  1  0  0  0
 75 87  1  0  0  0
 76 77  1  0  0  0
 76 79  1  0  0  0
 76152  1  0  0  0
 76153  1  0  0  0
 77154  1  0  0  0
 77155  1  0  0  0
 77 80  1  0  0  0
 78 79  1  0  0  0
 78 80  1  0  0  0
 78156  1  0  0  0
 79 88  1  0  0  0
 79157  1  0  0  0
 80 89  1  0  0  0
 80158  1  0  0  0
 81159  1  0  0  0
 81160  1  0  0  0
 81161  1  0  0  0
 81 85  1  0  0  0
 82162  1  0  0  0
 82163  1  0  0  0
 82164  1  0  0  0
 82 89  1  0  0  0
 83 89  1  0  0  0
 83165  1  0  0  0
 83166  1  0  0  0
 83167  1  0  0  0
 84 85  1  0  0  0
 84 88  1  0  0  0
 84168  1  0  0  0
 84169  1  0  0  0
 85170  1  0  0  0
 87171  1  0  0  0
 88172  1  0  0  0
 88173  1  0  0  0
 89174  1  0  0  0
M  CHG  2  88   1  89   1
M  ISO  4   1 100  68 101  85 101  87 100
M  END
> <chiral flag>
0

> <version>
0

> <s_m_source_file>
/data/baiqing/PycharmProjects/Reinvent-master-3.2/result/LINK_invent/BTK/process_docking_weight1_custom_sum_contain_oxygen_bond_distance_aromatic_linkinvent_7_9_3/rearranged_h_0172.sdf

> <i_m_source_file_index>
47

> <r_mmod_Potential_Energy-OPLS-2005>
-339.326934814453

> <r_mmod_Stretch_Energy-OPLS-2005>
55.4250526428223

> <r_mmod_Bend_Energy-OPLS-2005>
133.302093505859

> <r_mmod_Torsional_Energy-OPLS-2005>
366.7880859375

> <r_mmod_Improper_Torsional_Energy-OPLS-2005>
4.13789176940918

> <r_mmod_Van_der_Waal_Energy-OPLS-2005>
160.011535644531

> <r_mmod_Electrostatic_Energy-OPLS-2005>
-62.4853324890137

> <r_mmod_Solvation_Energy-OPLS-2005>
-1016.43811035156

> <b_mmod_Minimization_Converged-OPLS-2005>
0

> <r_mmod_RMS_Derivative-OPLS-2005>
4.50232172012329

$$$$
47
                    3D
 Structure written by MMmdl.
154163  0  0  1  0            999 V2000
  -30.5197  -15.0389   20.3865 C   0  0  0  0  0  0
  -30.4406  -12.6436   19.5118 C   0  0  0  0  0  0
  -29.5303  -12.5420   18.2656 C   0  0  0  0  0  0
  -28.0644  -12.3166   18.6808 C   0  0  0  0  0  0
  -27.6250  -13.2598   19.8307 C   0  0  2  0  0  0
  -28.6666  -13.3338   20.9685 C   0  0  0  0  0  0
  -25.2436  -13.8239   20.5709 C   0  0  0  0  0  0
  -24.1774  -13.0448   20.9237 C   0  0  0  0  0  0
  -24.6416  -11.6942   20.8757 C   0  0  0  0  0  0
  -23.9101  -10.4302   21.0405 C   0  0  0  0  0  0
  -24.3641   -9.4211   21.9180 C   0  0  0  0  0  0
  -23.6303   -8.2253   22.0751 C   0  0  0  0  0  0
  -22.4289   -8.0284   21.3539 C   0  0  0  0  0  0
  -21.9935   -9.0268   20.4649 C   0  0  0  0  0  0
  -22.7275  -10.2140   20.3056 C   0  0  0  0  0  0
  -21.6859   -6.0736   22.5280 C   0  0  0  0  0  0
  -21.4025   -6.5637   23.8216 C   0  0  0  0  0  0
  -21.3665   -5.6784   24.9172 C   0  0  0  0  0  0
  -21.6044   -4.3046   24.7217 C   0  0  0  0  0  0
  -21.8815   -3.8145   23.4334 C   0  0  0  0  0  0
  -21.9194   -4.6965   22.3398 C   0  0  0  0  0  0
  -22.7784  -13.5200   21.1881 C   0  0  0  0  0  0
  -22.1654   -4.2154   21.0974 F   0  0  0  0  0  0
  -21.5624   -3.4529   25.7725 F   0  0  0  0  0  0
  -29.9331  -13.7659   20.3615 N   0  0  0  0  0  0
  -26.2867  -12.9494   20.3213 N   0  0  0  0  0  0
  -25.9347  -11.6613   20.5726 N   0  0  0  0  0  0
  -22.0424  -12.8205   22.0443 N   0  0  0  0  0  0
  -25.4063  -15.1973   20.4138 N   0  0  0  0  0  0
  -31.7286  -15.0805   20.1291 O   0  0  0  0  0  0
  -21.6639   -6.8887   21.4243 O   0  0  0  0  0  0
  -22.3470  -14.5493   20.6689 O   0  0  0  0  0  0
  -24.6510  -31.8384   23.1829 C   0  0  0  0  0  0
  -25.9250  -32.4663   23.8254 C   0  0  1  0  0  0
  -27.2172  -27.0627   20.1587 C   0  0  0  0  0  0
  -25.5968  -33.8473   24.2170 N   0  0  0  0  0  0
  -23.4597  -30.4560   21.5300 C   0  0  2  0  0  0
  -24.9110  -28.8732   20.1100 C   0  0  0  0  0  0
  -22.7616  -29.4516   22.4825 C   0  0  0  0  0  0
  -18.0321  -28.1395   22.8479 C   0  0  0  0  0  0
  -24.1493  -36.7242   23.2648 C   0  0  0  0  0  0
  -26.0226  -30.6876   21.3964 C   0  0  0  0  0  0
  -26.0925  -29.2933   20.7341 C   0  0  0  0  0  0
  -27.2454  -28.4070   20.7372 C   0  0  0  0  0  0
  -26.0109  -26.7725   19.4812 C   0  0  0  0  0  0
  -24.8883  -27.6286   19.4652 C   0  0  0  0  0  0
  -23.6911  -29.7845   20.1509 C   0  0  0  0  0  0
  -25.4132  -36.3021   24.0313 C   0  0  1  0  0  0
  -20.5941  -28.3735   23.1219 C   0  0  2  0  0  0
  -20.6799  -26.9426   22.5408 C   0  0  0  0  0  0
  -19.5769  -26.6372   21.5221 C   0  0  0  0  0  0
  -18.1952  -26.7935   22.1629 C   0  0  0  0  0  0
  -19.1577  -28.8884   23.2843 C   0  0  0  0  0  0
  -18.9483  -30.1476   23.8871 C   0  0  0  0  0  0
  -17.6475  -30.6591   24.0558 C   0  0  0  0  0  0
  -25.9083  -34.9393   23.5054 C   0  0  0  0  0  0
  -16.5366  -29.9080   23.6333 C   0  0  0  0  0  0
  -16.7305  -28.6498   23.0360 C   0  0  0  0  0  0
  -26.4529  -31.6555   25.0730 C   0  0  0  0  0  0
  -25.3679  -31.3767   26.1402 C   0  0  0  0  0  0
  -27.0404  -30.2934   24.6376 C   0  0  0  0  0  0
  -27.6045  -32.4335   25.7527 C   0  0  0  0  0  0
  -27.5576  -37.1786   24.8467 C   0  0  0  0  0  0
  -21.4299  -29.3050   22.3575 N   0  0  0  0  0  0
  -26.4300  -37.3734   23.9390 N   0  0  0  0  0  0
  -24.7311  -31.0168   22.0904 N   0  0  0  0  0  0
  -23.4225  -28.8072   23.3013 O   0  0  0  0  0  0
  -28.2405  -26.0174   20.2330 O   0  0  0  0  0  0
  -26.5678  -34.8898   22.4640 O   0  0  0  0  0  0
  -23.5610  -32.1294   23.6995 O   0  0  0  0  0  0
  -29.3704  -22.3327   21.4551 C   0  0  0  0  0  0
  -29.7501  -18.9831   21.3199 C   0  0  0  0  0  0
  -29.0379  -18.8287   19.4931 C   0  0  0  0  0  0
  -28.9130  -23.0588   20.2064 C   0  0  1  0  0  0
  -30.0396  -17.8266   20.2508 C   0  0  2  0  0  0
  -28.6433  -21.3875   20.5124 C   0  0  1  0  0  0
  -27.0304  -24.3199   21.5679 C   0  0  0  0  0  0
  -27.9164  -24.4541   20.3140 C   0  0  1  0  0  0
  -29.7455  -16.2520   20.4834 N   0  0  0  0  0  0
  -29.5465  -20.0645   20.2478 N   0  3  1  0  0  0
  -31.4752  -12.8019   19.2027 H   0  0  0  0  0  0
  -30.4374  -11.7046   20.0681 H   0  0  0  0  0  0
  -29.8675  -11.7354   17.6134 H   0  0  0  0  0  0
  -29.6075  -13.4601   17.6816 H   0  0  0  0  0  0
  -27.9720  -11.2776   19.0012 H   0  0  0  0  0  0
  -27.4053  -12.4296   17.8188 H   0  0  0  0  0  0
  -27.5736  -14.2524   19.3819 H   0  0  0  0  0  0
  -28.7735  -12.3717   21.4722 H   0  0  0  0  0  0
  -28.3528  -14.0505   21.7287 H   0  0  0  0  0  0
  -25.2791   -9.5667   22.4752 H   0  0  0  0  0  0
  -23.9999   -7.4647   22.7469 H   0  0  0  0  0  0
  -21.0863   -8.8803   19.8963 H   0  0  0  0  0  0
  -22.3747  -10.9669   19.6156 H   0  0  0  0  0  0
  -21.2026   -7.6148   23.9723 H   0  0  0  0  0  0
  -21.1490   -6.0508   25.9074 H   0  0  0  0  0  0
  -22.0592   -2.7604   23.2832 H   0  0  0  0  0  0
  -22.4041  -11.9896   22.4880 H   0  0  0  0  0  0
  -21.1033  -13.1226   22.2603 H   0  0  0  0  0  0
  -24.6285  -15.8397   20.5213 H   0  0  0  0  0  0
  -26.2366  -15.6437   20.0480 H   0  0  0  0  0  0
  -26.7325  -32.5240   23.0989 H   0  0  0  0  0  0
  -25.0049  -33.9572   25.0272 H   0  0  0  0  0  0
  -22.7672  -31.2850   21.3717 H   0  0  0  0  0  0
  -23.3757  -35.9570   23.3310 H   0  0  0  0  0  0
  -24.3569  -36.8873   22.2060 H   0  0  0  0  0  0
  -23.7246  -37.6438   23.6684 H   0  0  0  0  0  0
  -26.1935  -31.4416   20.6269 H   0  0  0  0  0  0
  -26.8870  -30.7349   22.0472 H   0  0  0  0  0  0
  -28.1428  -28.7246   21.2485 H   0  0  0  0  0  0
  -25.8938  -25.8261   18.9768 H   0  0  0  0  0  0
  -23.9908  -27.3037   18.9574 H   0  0  0  0  0  0
  -23.8356  -30.5597   19.3970 H   0  0  0  0  0  0
  -22.8037  -29.2324   19.8354 H   0  0  0  0  0  0
  -25.1322  -36.1851   25.0807 H   0  0  0  0  0  0
  -21.0041  -28.3327   24.1339 H   0  0  0  0  0  0
  -20.5690  -26.2347   23.3635 H   0  0  0  0  0  0
  -21.6660  -26.7421   22.1200 H   0  0  0  0  0  0
  -19.6919  -25.6273   21.1272 H   0  0  0  0  0  0
  -19.6695  -27.3166   20.6736 H   0  0  0  0  0  0
  -17.4221  -26.6694   21.4031 H   0  0  0  0  0  0
  -18.0336  -26.0083   22.9028 H   0  0  0  0  0  0
  -19.7954  -30.7305   24.2226 H   0  0  0  0  0  0
  -17.5022  -31.6265   24.5166 H   0  0  0  0  0  0
  -15.5364  -30.2967   23.7662 H   0  0  0  0  0  0
  -15.8709  -28.0800   22.7088 H   0  0  0  0  0  0
  -24.5857  -30.7131   25.7699 H   0  0  0  0  0  0
  -24.8870  -32.2957   26.4767 H   0  0  0  0  0  0
  -25.7925  -30.8958   27.0223 H   0  0  0  0  0  0
  -26.3038  -29.6642   24.1368 H   0  0  0  0  0  0
  -27.3953  -29.7264   25.4993 H   0  0  0  0  0  0
  -27.8981  -30.4132   23.9757 H   0  0  0  0  0  0
  -27.2625  -33.3653   26.2048 H   0  0  0  0  0  0
  -28.3891  -32.6874   25.0386 H   0  0  0  0  0  0
  -28.0678  -31.8502   26.5495 H   0  0  0  0  0  0
  -28.2601  -38.0076   24.7495 H   0  0  0  0  0  0
  -28.1069  -36.2603   24.6327 H   0  0  0  0  0  0
  -27.2288  -37.1473   25.8872 H   0  0  0  0  0  0
  -20.9521  -29.8755   21.6734 H   0  0  0  0  0  0
  -26.0163  -38.2804   24.1374 H   0  0  0  0  0  0
  -28.8688  -22.5421   22.3975 H   0  0  0  0  0  0
  -30.4479  -22.2233   21.5603 H   0  0  0  0  0  0
  -30.5969  -19.2020   21.9709 H   0  0  0  0  0  0
  -28.8527  -18.8145   21.9204 H   0  0  0  0  0  0
  -27.9812  -18.6246   19.6823 H   0  0  0  0  0  0
  -29.2150  -18.8968   18.4195 H   0  0  0  0  0  0
  -29.6604  -23.2030   19.4285 H   0  0  0  0  0  0
  -31.0471  -17.9581   19.8502 H   0  0  0  0  0  0
  -27.6335  -21.0935   20.7884 H   0  0  0  0  0  0
  -26.6356  -23.3090   21.6695 H   0  0  0  0  0  0
  -26.1695  -24.9857   21.5466 H   0  0  0  0  0  0
  -27.5955  -24.5524   22.4704 H   0  0  0  0  0  0
  -27.2596  -24.2963   19.4615 H   0  0  0  0  0  0
  -28.7719  -16.0522   20.6572 H   0  0  0  0  0  0
  -30.4424  -20.3254   19.8666 H   0  0  0  0  0  0
  1 25  1  0  0  0
  1 30  2  0  0  0
  1 79  1  0  0  0
  2  3  1  0  0  0
  2 25  1  0  0  0
  2 81  1  0  0  0
  2 82  1  0  0  0
  3  4  1  0  0  0
  3 83  1  0  0  0
  3 84  1  0  0  0
  4  5  1  0  0  0
  4 85  1  0  0  0
  4 86  1  0  0  0
  5  6  1  0  0  0
  5 26  1  0  0  0
  5 87  1  0  0  0
  6 25  1  0  0  0
  6 88  1  0  0  0
  6 89  1  0  0  0
  7  8  2  0  0  0
  7 26  1  0  0  0
  7 29  1  0  0  0
  8  9  1  0  0  0
  8 22  1  0  0  0
  9 10  1  0  0  0
  9 27  2  0  0  0
 10 11  2  0  0  0
 10 15  1  0  0  0
 11 12  1  0  0  0
 11 90  1  0  0  0
 12 13  2  0  0  0
 12 91  1  0  0  0
 13 14  1  0  0  0
 13 31  1  0  0  0
 14 15  2  0  0  0
 14 92  1  0  0  0
 15 93  1  0  0  0
 16 17  2  0  0  0
 16 21  1  0  0  0
 16 31  1  0  0  0
 17 18  1  0  0  0
 17 94  1  0  0  0
 18 19  2  0  0  0
 18 95  1  0  0  0
 19 20  1  0  0  0
 19 24  1  0  0  0
 20 21  2  0  0  0
 20 96  1  0  0  0
 21 23  1  0  0  0
 22 28  1  0  0  0
 22 32  2  0  0  0
 26 27  1  0  0  0
 28 97  1  0  0  0
 28 98  1  0  0  0
 29 99  1  0  0  0
 29100  1  0  0  0
 33 34  1  0  0  0
 33 66  1  0  0  0
 33 70  2  0  0  0
 34 36  1  0  0  0
 34 59  1  0  0  0
 34101  1  0  0  0
 35 44  2  0  0  0
 35 45  1  0  0  0
 35 68  1  0  0  0
 36 56  1  0  0  0
 36102  1  0  0  0
 37 39  1  0  0  0
 37 47  1  0  0  0
 37 66  1  0  0  0
 37103  1  0  0  0
 38 43  2  0  0  0
 38 46  1  0  0  0
 38 47  1  0  0  0
 39 64  1  0  0  0
 39 67  2  0  0  0
 40 52  1  0  0  0
 40 53  2  0  0  0
 40 58  1  0  0  0
 41104  1  0  0  0
 41105  1  0  0  0
 41106  1  0  0  0
 41 48  1  0  0  0
 42 43  1  0  0  0
 42 66  1  0  0  0
 42107  1  0  0  0
 42108  1  0  0  0
 43 44  1  0  0  0
 44109  1  0  0  0
 45 46  2  0  0  0
 45110  1  0  0  0
 46111  1  0  0  0
 47112  1  0  0  0
 47113  1  0  0  0
 48 56  1  0  0  0
 48 65  1  0  0  0
 48114  1  0  0  0
 49 50  1  0  0  0
 49 53  1  0  0  0
 49 64  1  0  0  0
 49115  1  0  0  0
 50 51  1  0  0  0
 50116  1  0  0  0
 50117  1  0  0  0
 51 52  1  0  0  0
 51118  1  0  0  0
 51119  1  0  0  0
 52120  1  0  0  0
 52121  1  0  0  0
 53 54  1  0  0  0
 54 55  2  0  0  0
 54122  1  0  0  0
 55 57  1  0  0  0
 55123  1  0  0  0
 56 69  2  0  0  0
 57 58  2  0  0  0
 57124  1  0  0  0
 58125  1  0  0  0
 59 60  1  0  0  0
 59 61  1  0  0  0
 59 62  1  0  0  0
 60126  1  0  0  0
 60127  1  0  0  0
 60128  1  0  0  0
 61129  1  0  0  0
 61130  1  0  0  0
 61131  1  0  0  0
 62132  1  0  0  0
 62133  1  0  0  0
 62134  1  0  0  0
 63 65  1  0  0  0
 63135  1  0  0  0
 63136  1  0  0  0
 63137  1  0  0  0
 64138  1  0  0  0
 65139  1  0  0  0
 68 78  1  0  0  0
 71140  1  0  0  0
 71141  1  0  0  0
 71 74  1  0  0  0
 71 76  1  0  0  0
 72 75  1  0  0  0
 72142  1  0  0  0
 72143  1  0  0  0
 72 80  1  0  0  0
 73 75  1  0  0  0
 73 80  1  0  0  0
 73144  1  0  0  0
 73145  1  0  0  0
 74 76  1  0  0  0
 74 78  1  0  0  0
 74146  1  0  0  0
 75 79  1  0  0  0
 75147  1  0  0  0
 76 80  1  0  0  0
 76148  1  0  0  0
 77149  1  0  0  0
 77150  1  0  0  0
 77151  1  0  0  0
 77 78  1  0  0  0
 78152  1  0  0  0
 79153  1  0  0  0
 80154  1  0  0  0
M  CHG  1  80   1
M  ISO  4   1 100  68 101  78 101  79 100
M  END
> <chiral flag>
0

> <version>
0

> <s_m_source_file>
/data/baiqing/PycharmProjects/Reinvent-master-3.2/result/LINK_invent/BTK/process_docking_weight1_custom_sum_contain_oxygen_bond_distance_aromatic_linkinvent_7_9_3/rearranged_h_0172.sdf

> <i_m_source_file_index>
48

> <r_mmod_Potential_Energy-OPLS-2005>
619.811462402344

> <r_mmod_Stretch_Energy-OPLS-2005>
356.704620361328

> <r_mmod_Bend_Energy-OPLS-2005>
354.853118896484

> <r_mmod_Torsional_Energy-OPLS-2005>
282.730743408203

> <r_mmod_Improper_Torsional_Energy-OPLS-2005>
4.68123006820679

> <r_mmod_Van_der_Waal_Energy-OPLS-2005>
118.175277709961

> <r_mmod_Electrostatic_Energy-OPLS-2005>
-273.121246337891

> <r_mmod_Solvation_Energy-OPLS-2005>
-489.401123046875

> <b_mmod_Minimization_Converged-OPLS-2005>
0

> <r_mmod_RMS_Derivative-OPLS-2005>
1.69468331336975

$$$$
48
                    3D
 Structure written by MMmdl.
156165  0  0  1  0            999 V2000
  -30.9854  -14.2805   20.4025 C   0  0  0  0  0  0
  -30.2667  -12.2059   19.4094 C   0  0  0  0  0  0
  -29.3624  -12.4843   18.1927 C   0  0  0  0  0  0
  -27.8764  -12.6586   18.6203 C   0  0  0  0  0  0
  -27.6591  -13.7696   19.7488 C   0  0  2  0  0  0
  -28.6567  -13.2950   20.8855 C   0  0  0  0  0  0
  -25.3068  -15.4441   20.4961 C   0  0  0  0  0  0
  -24.3221  -14.1099   20.7342 C   0  0  0  0  0  0
  -24.6568  -12.5724   20.7540 C   0  0  0  0  0  0
  -23.9784  -11.0201   20.9700 C   0  0  0  0  0  0
  -24.4242   -9.9127   21.8297 C   0  0  0  0  0  0
  -23.7638   -8.6217   22.0184 C   0  0  0  0  0  0
  -22.5635   -8.2745   21.3426 C   0  0  0  0  0  0
  -22.1264   -9.2829   20.4445 C   0  0  0  0  0  0
  -22.7920  -10.5573   20.2805 C   0  0  0  0  0  0
  -21.8035   -6.1832   22.5014 C   0  0  0  0  0  0
  -21.4889   -6.6326   23.8052 C   0  0  0  0  0  0
  -21.3918   -5.7266   24.8856 C   0  0  0  0  0  0
  -21.6010   -4.3504   24.6884 C   0  0  0  0  0  0
  -21.8735   -3.8778   23.3957 C   0  0  0  0  0  0
  -21.9578   -4.7789   22.3102 C   0  0  0  0  0  0
  -22.8235  -14.0539   21.0184 C   0  0  0  0  0  0
  -22.1832   -4.2797   21.0735 F   0  0  0  0  0  0
  -21.5409   -3.4832   25.7339 F   0  0  0  0  0  0
  -30.0455  -13.2972   20.3484 N   0  0  0  0  0  0
  -26.2097  -14.0616   20.1990 N   0  0  0  0  0  0
  -25.8843  -12.6842   20.4639 N   0  0  0  0  0  0
  -22.2824  -13.2110   21.9250 N   0  0  0  0  0  0
  -25.9489  -17.5880   22.2120 N   0  0  0  0  0  0
  -32.1644  -14.1701   20.1061 O   0  0  0  0  0  0
  -21.8544   -7.0541   21.4112 O   0  0  0  0  0  0
  -22.0998  -14.8318   20.4329 O   0  0  0  0  0  0
  -24.7670  -31.6652   23.0801 C   0  0  0  0  0  0
  -25.9843  -32.3791   23.7606 C   0  0  1  0  0  0
  -26.3681  -25.4411   20.3119 C   0  0  0  0  0  0
  -25.6045  -33.7741   24.1352 N   0  0  0  0  0  0
  -23.5807  -30.2833   21.4664 C   0  0  2  0  0  0
  -24.8709  -28.4004   20.0848 C   0  0  0  0  0  0
  -22.7852  -29.3725   22.4438 C   0  0  0  0  0  0
  -18.0286  -28.1454   22.8375 C   0  0  0  0  0  0
  -24.1465  -36.6928   23.2664 C   0  0  0  0  0  0
  -26.1372  -29.9087   21.5479 C   0  0  0  0  0  0
  -26.0083  -28.3797   20.8795 C   0  0  0  0  0  0
  -26.7386  -26.9503   20.9419 C   0  0  0  0  0  0
  -25.4594  -26.0032   19.3467 C   0  0  0  0  0  0
  -24.7349  -27.2655   19.2686 C   0  0  0  0  0  0
  -23.8405  -29.5682   20.0973 C   0  0  0  0  0  0
  -25.4166  -36.2562   24.0179 C   0  0  1  0  0  0
  -20.5907  -28.3808   23.1023 C   0  0  2  0  0  0
  -20.6703  -26.9418   22.5431 C   0  0  0  0  0  0
  -19.5740  -26.6311   21.5196 C   0  0  0  0  0  0
  -18.1905  -26.7962   22.1550 C   0  0  0  0  0  0
  -19.1565  -28.8961   23.2645 C   0  0  0  0  0  0
  -18.9509  -30.1517   23.8739 C   0  0  0  0  0  0
  -17.6501  -30.6624   24.0536 C   0  0  0  0  0  0
  -25.9240  -34.8954   23.4696 C   0  0  0  0  0  0
  -16.5366  -29.9120   23.6362 C   0  0  0  0  0  0
  -16.7265  -28.6546   23.0364 C   0  0  0  0  0  0
  -26.4752  -31.6418   25.0691 C   0  0  0  0  0  0
  -25.3519  -31.4068   26.1093 C   0  0  0  0  0  0
  -27.0881  -30.2678   24.7431 C   0  0  0  0  0  0
  -27.6030  -32.4580   25.7467 C   0  0  0  0  0  0
  -27.5544  -37.1590   24.8441 C   0  0  0  0  0  0
  -21.4469  -29.2889   22.3210 N   0  0  0  0  0  0
  -26.4203  -37.3468   23.9430 N   0  0  0  0  0  0
  -24.8827  -30.6951   22.0731 N   0  0  0  0  0  0
  -23.3944  -28.7381   23.3058 O   0  0  0  0  0  0
  -26.6154  -23.5959   20.3904 O   0  0  0  0  0  0
  -26.6038  -34.8756   22.4425 O   0  0  0  0  0  0
  -23.6559  -32.0394   23.5190 O   0  0  0  0  0  0
  -25.9113  -15.4518   22.6148 C   0  0  0  0  0  0
  -24.1166  -16.4176   22.1877 C   0  0  0  0  0  0
  -27.3277  -16.1891   21.2930 C   0  0  0  0  0  0
  -25.5996  -18.9045   20.3096 C   0  0  0  0  0  0
  -29.6471  -17.4426   19.4983 C   0  0  0  0  0  0
  -30.4250  -16.2233   19.0413 C   0  0  0  0  0  0
  -30.7295  -16.4883   21.3409 C   0  0  0  0  0  0
  -29.4696  -17.2452   21.0539 C   0  0  2  0  0  0
  -22.9020  -16.3397   23.0982 C   0  0  0  0  0  0
  -25.7877  -21.3848   20.2093 C   0  0  0  0  0  0
  -24.1894  -17.8748   20.9199 N   0  0  0  0  0  0
  -26.8739  -17.6544   20.1943 N   0  0  0  0  0  0
  -30.5430  -15.5087   20.2936 N   0  0  0  0  0  0
  -28.6315  -16.2003   21.6051 O   0  0  0  0  0  0
  -31.3073  -12.1068   19.1016 H   0  0  0  0  0  0
  -29.9937  -11.2645   19.8847 H   0  0  0  0  0  0
  -29.4473  -11.6674   17.4757 H   0  0  0  0  0  0
  -29.7014  -13.3777   17.6696 H   0  0  0  0  0  0
  -27.5477  -11.6798   18.9712 H   0  0  0  0  0  0
  -27.2678  -12.8826   17.7411 H   0  0  0  0  0  0
  -28.0030  -14.6943   19.2887 H   0  0  0  0  0  0
  -28.3907  -12.2928   21.2267 H   0  0  0  0  0  0
  -28.5822  -13.8913   21.7874 H   0  0  0  0  0  0
  -25.3255  -10.0855   22.3989 H   0  0  0  0  0  0
  -24.2080   -7.9051   22.6899 H   0  0  0  0  0  0
  -21.2456   -9.0862   19.8489 H   0  0  0  0  0  0
  -22.3486  -11.2470   19.5740 H   0  0  0  0  0  0
  -21.3246   -7.6866   23.9771 H   0  0  0  0  0  0
  -21.1698   -6.0944   25.8783 H   0  0  0  0  0  0
  -22.0146   -2.8200   23.2332 H   0  0  0  0  0  0
  -22.8494  -12.5738   22.4605 H   0  0  0  0  0  0
  -21.2827  -13.2230   22.0715 H   0  0  0  0  0  0
  -25.0266  -17.9248   21.8192 H   0  0  0  0  0  0
  -26.5952  -17.8501   21.4246 H   0  0  0  0  0  0
  -26.8008  -32.4056   23.0377 H   0  0  0  0  0  0
  -24.9851  -33.8618   24.9252 H   0  0  0  0  0  0
  -22.9657  -31.1617   21.2574 H   0  0  0  0  0  0
  -23.3820  -35.9170   23.3091 H   0  0  0  0  0  0
  -24.3473  -36.8912   22.2136 H   0  0  0  0  0  0
  -23.7119  -37.5937   23.6991 H   0  0  0  0  0  0
  -26.5709  -30.5350   20.7662 H   0  0  0  0  0  0
  -26.9247  -29.8437   22.2801 H   0  0  0  0  0  0
  -27.5459  -26.9272   21.6596 H   0  0  0  0  0  0
  -25.0864  -25.2774   18.6381 H   0  0  0  0  0  0
  -23.9472  -27.3015   18.5282 H   0  0  0  0  0  0
  -24.2006  -30.3065   19.3794 H   0  0  0  0  0  0
  -22.8931  -29.2131   19.6854 H   0  0  0  0  0  0
  -25.1398  -36.1186   25.0655 H   0  0  0  0  0  0
  -20.9937  -28.3533   24.1174 H   0  0  0  0  0  0
  -20.5485  -26.2439   23.3748 H   0  0  0  0  0  0
  -21.6561  -26.7256   22.1292 H   0  0  0  0  0  0
  -19.6884  -25.6168   21.1354 H   0  0  0  0  0  0
  -19.6747  -27.3004   20.6646 H   0  0  0  0  0  0
  -17.4180  -26.6662   21.3961 H   0  0  0  0  0  0
  -18.0300  -26.0163   22.9010 H   0  0  0  0  0  0
  -19.7991  -30.7361   24.2059 H   0  0  0  0  0  0
  -17.5073  -31.6313   24.5167 H   0  0  0  0  0  0
  -15.5370  -30.2997   23.7826 H   0  0  0  0  0  0
  -15.8647  -28.0857   22.7166 H   0  0  0  0  0  0
  -24.5693  -30.7486   25.7307 H   0  0  0  0  0  0
  -24.8748  -32.3417   26.4057 H   0  0  0  0  0  0
  -25.7367  -30.9426   27.0180 H   0  0  0  0  0  0
  -26.3522  -29.5686   24.3468 H   0  0  0  0  0  0
  -27.4787  -29.7960   25.6476 H   0  0  0  0  0  0
  -27.9360  -30.3552   24.0635 H   0  0  0  0  0  0
  -27.2452  -33.4081   26.1466 H   0  0  0  0  0  0
  -28.4071  -32.6853   25.0444 H   0  0  0  0  0  0
  -28.0476  -31.9159   26.5828 H   0  0  0  0  0  0
  -28.2403  -38.0036   24.7639 H   0  0  0  0  0  0
  -28.1183  -36.2568   24.6063 H   0  0  0  0  0  0
  -27.2278  -37.0950   25.8833 H   0  0  0  0  0  0
  -20.9921  -29.8522   21.6193 H   0  0  0  0  0  0
  -25.9935  -38.2448   24.1561 H   0  0  0  0  0  0
  -26.1055  -14.7748   23.4339 H   0  0  0  0  0  0
  -28.7827  -17.5689   18.8479 H   0  0  0  0  0  0
  -30.2459  -18.3392   19.3233 H   0  0  0  0  0  0
  -31.3943  -16.5078   18.6419 H   0  0  0  0  0  0
  -29.9022  -15.6417   18.2790 H   0  0  0  0  0  0
  -30.7681  -16.0535   22.3424 H   0  0  0  0  0  0
  -31.6276  -17.0852   21.1729 H   0  0  0  0  0  0
  -29.4038  -18.1875   21.6048 H   0  0  0  0  0  0
  -22.8220  -15.3585   23.5531 H   0  0  0  0  0  0
  -21.9801  -16.5203   22.5480 H   0  0  0  0  0  0
  -22.9503  -17.0687   23.9049 H   0  0  0  0  0  0
  -24.8768  -21.5685   20.7781 H   0  0  0  0  0  0
  -25.4682  -21.4833   19.1715 H   0  0  0  0  0  0
  1 25  1  0  0  0
  1 30  2  0  0  0
  1 83  1  0  0  0
  2  3  1  0  0  0
  2 25  1  0  0  0
  2 85  1  0  0  0
  2 86  1  0  0  0
  3  4  1  0  0  0
  3 87  1  0  0  0
  3 88  1  0  0  0
  4  5  1  0  0  0
  4 89  1  0  0  0
  4 90  1  0  0  0
  5  6  1  0  0  0
  5 26  1  0  0  0
  5 91  1  0  0  0
  6 25  1  0  0  0
  6 92  1  0  0  0
  6 93  1  0  0  0
  7  8  2  0  0  0
  7 26  1  0  0  0
  7 29  1  0  0  0
  8  9  1  0  0  0
  8 22  1  0  0  0
  9 10  1  0  0  0
  9 27  2  0  0  0
 10 11  2  0  0  0
 10 15  1  0  0  0
 11 12  1  0  0  0
 11 94  1  0  0  0
 12 13  2  0  0  0
 12 95  1  0  0  0
 13 14  1  0  0  0
 13 31  1  0  0  0
 14 15  2  0  0  0
 14 96  1  0  0  0
 15 97  1  0  0  0
 16 17  2  0  0  0
 16 21  1  0  0  0
 16 31  1  0  0  0
 17 18  1  0  0  0
 17 98  1  0  0  0
 18 19  2  0  0  0
 18 99  1  0  0  0
 19 20  1  0  0  0
 19 24  1  0  0  0
 20 21  2  0  0  0
 20100  1  0  0  0
 21 23  1  0  0  0
 22 28  1  0  0  0
 22 32  2  0  0  0
 26 27  1  0  0  0
 28101  1  0  0  0
 28102  1  0  0  0
 29103  1  0  0  0
 29104  1  0  0  0
 33 34  1  0  0  0
 33 66  1  0  0  0
 33 70  2  0  0  0
 34 36  1  0  0  0
 34 59  1  0  0  0
 34105  1  0  0  0
 35 44  2  0  0  0
 35 45  1  0  0  0
 35 68  1  0  0  0
 36 56  1  0  0  0
 36106  1  0  0  0
 37 39  1  0  0  0
 37 47  1  0  0  0
 37 66  1  0  0  0
 37107  1  0  0  0
 38 43  2  0  0  0
 38 46  1  0  0  0
 38 47  1  0  0  0
 39 64  1  0  0  0
 39 67  2  0  0  0
 40 52  1  0  0  0
 40 53  2  0  0  0
 40 58  1  0  0  0
 41108  1  0  0  0
 41109  1  0  0  0
 41110  1  0  0  0
 41 48  1  0  0  0
 42 43  1  0  0  0
 42 66  1  0  0  0
 42111  1  0  0  0
 42112  1  0  0  0
 43 44  1  0  0  0
 44113  1  0  0  0
 45 46  2  0  0  0
 45114  1  0  0  0
 46115  1  0  0  0
 47116  1  0  0  0
 47117  1  0  0  0
 48 56  1  0  0  0
 48 65  1  0  0  0
 48118  1  0  0  0
 49 50  1  0  0  0
 49 53  1  0  0  0
 49 64  1  0  0  0
 49119  1  0  0  0
 50 51  1  0  0  0
 50120  1  0  0  0
 50121  1  0  0  0
 51 52  1  0  0  0
 51122  1  0  0  0
 51123  1  0  0  0
 52124  1  0  0  0
 52125  1  0  0  0
 53 54  1  0  0  0
 54 55  2  0  0  0
 54126  1  0  0  0
 55 57  1  0  0  0
 55127  1  0  0  0
 56 69  2  0  0  0
 57 58  2  0  0  0
 57128  1  0  0  0
 58129  1  0  0  0
 59 60  1  0  0  0
 59 61  1  0  0  0
 59 62  1  0  0  0
 60130  1  0  0  0
 60131  1  0  0  0
 60132  1  0  0  0
 61133  1  0  0  0
 61134  1  0  0  0
 61135  1  0  0  0
 62136  1  0  0  0
 62137  1  0  0  0
 62138  1  0  0  0
 63 65  1  0  0  0
 63139  1  0  0  0
 63140  1  0  0  0
 63141  1  0  0  0
 64142  1  0  0  0
 65143  1  0  0  0
 68 80  1  0  0  0
 71 72  2  0  0  0
 71 73  1  0  0  0
 71144  1  0  0  0
 72 79  1  0  0  0
 72 81  1  0  0  0
 73 82  2  0  0  0
 73 84  1  0  0  0
 74 80  1  0  0  0
 74 81  2  0  0  0
 74 82  1  0  0  0
 75 76  1  0  0  0
 75 78  1  0  0  0
 75145  1  0  0  0
 75146  1  0  0  0
 76 83  1  0  0  0
 76147  1  0  0  0
 76148  1  0  0  0
 77 78  1  0  0  0
 77 83  1  0  0  0
 77149  1  0  0  0
 77150  1  0  0  0
 78 84  1  0  0  0
 78151  1  0  0  0
 79152  1  0  0  0
 79153  1  0  0  0
 79154  1  0  0  0
 80155  1  0  0  0
 80156  1  0  0  0
M  ISO  4   1 100  68 101  80 101  83 100
M  END
> <chiral flag>
0

> <version>
0

> <s_m_source_file>
/data/baiqing/PycharmProjects/Reinvent-master-3.2/result/LINK_invent/BTK/process_docking_weight1_custom_sum_contain_oxygen_bond_distance_aromatic_linkinvent_7_9_3/rearranged_h_0172.sdf

> <i_m_source_file_index>
49

> <r_mmod_Potential_Energy-OPLS-2005>
20496.1484375

> <r_mmod_Stretch_Energy-OPLS-2005>
11645.7412109375

> <r_mmod_Bend_Energy-OPLS-2005>
1568.80432128906

> <r_mmod_Torsional_Energy-OPLS-2005>
605.57763671875

> <r_mmod_Improper_Torsional_Energy-OPLS-2005>
73.2130355834961

> <r_mmod_Van_der_Waal_Energy-OPLS-2005>
2986.724609375

> <r_mmod_Electrostatic_Energy-OPLS-2005>
-772.176574707031

> <r_mmod_Solvation_Energy-OPLS-2005>
-235.803649902344

> <b_mmod_Minimization_Converged-OPLS-2005>
0

> <r_mmod_RMS_Derivative-OPLS-2005>
16.1379776000977

$$$$
49
                    3D
 Structure written by MMmdl.
161171  0  0  1  0            999 V2000
  -30.5220  -15.0288   20.4419 C   0  0  0  0  0  0
  -30.4279  -12.6449   19.5148 C   0  0  0  0  0  0
  -29.5213  -12.5541   18.2654 C   0  0  0  0  0  0
  -28.0545  -12.3289   18.6758 C   0  0  0  0  0  0
  -27.6227  -13.2584   19.8415 C   0  0  2  0  0  0
  -28.6585  -13.3143   20.9815 C   0  0  0  0  0  0
  -25.2458  -13.8225   20.5724 C   0  0  0  0  0  0
  -24.1768  -13.0436   20.9202 C   0  0  0  0  0  0
  -24.6383  -11.6927   20.8716 C   0  0  0  0  0  0
  -23.9064  -10.4293   21.0383 C   0  0  0  0  0  0
  -24.3627   -9.4218   21.9159 C   0  0  0  0  0  0
  -23.6308   -8.2250   22.0741 C   0  0  0  0  0  0
  -22.4282   -8.0280   21.3546 C   0  0  0  0  0  0
  -21.9908   -9.0241   20.4627 C   0  0  0  0  0  0
  -22.7233  -10.2124   20.3031 C   0  0  0  0  0  0
  -21.6878   -6.0729   22.5289 C   0  0  0  0  0  0
  -21.4009   -6.5627   23.8215 C   0  0  0  0  0  0
  -21.3667   -5.6788   24.9179 C   0  0  0  0  0  0
  -21.6058   -4.3051   24.7241 C   0  0  0  0  0  0
  -21.8826   -3.8142   23.4359 C   0  0  0  0  0  0
  -21.9193   -4.6954   22.3410 C   0  0  0  0  0  0
  -22.7794  -13.5214   21.1872 C   0  0  0  0  0  0
  -22.1667   -4.2147   21.0988 F   0  0  0  0  0  0
  -21.5636   -3.4536   25.7750 F   0  0  0  0  0  0
  -29.9184  -13.7617   20.3787 N   0  0  0  0  0  0
  -26.2861  -12.9458   20.3276 N   0  0  0  0  0  0
  -25.9324  -11.6570   20.5716 N   0  0  0  0  0  0
  -22.0467  -12.8185   22.0425 N   0  0  0  0  0  0
  -25.4173  -15.1946   20.4192 N   0  0  0  0  0  0
  -31.7131  -15.0525   20.1073 O   0  0  0  0  0  0
  -21.6660   -6.8877   21.4251 O   0  0  0  0  0  0
  -22.3472  -14.5514   20.6711 O   0  0  0  0  0  0
  -24.6498  -31.8372   23.1840 C   0  0  0  0  0  0
  -25.9252  -32.4680   23.8215 C   0  0  1  0  0  0
  -27.2005  -27.0484   20.1716 C   0  0  0  0  0  0
  -25.5982  -33.8479   24.2138 N   0  0  0  0  0  0
  -23.4555  -30.4538   21.5321 C   0  0  2  0  0  0
  -24.9071  -28.8704   20.1096 C   0  0  0  0  0  0
  -22.7573  -29.4505   22.4856 C   0  0  0  0  0  0
  -18.0290  -28.1414   22.8475 C   0  0  0  0  0  0
  -24.1500  -36.7232   23.2631 C   0  0  0  0  0  0
  -26.0163  -30.6830   21.3949 C   0  0  0  0  0  0
  -26.0869  -29.2858   20.7391 C   0  0  0  0  0  0
  -27.2357  -28.3932   20.7492 C   0  0  0  0  0  0
  -25.9977  -26.7604   19.4915 C   0  0  0  0  0  0
  -24.8829  -27.6277   19.4639 C   0  0  0  0  0  0
  -23.6848  -29.7784   20.1527 C   0  0  0  0  0  0
  -25.4138  -36.3019   24.0301 C   0  0  1  0  0  0
  -20.5906  -28.3734   23.1241 C   0  0  2  0  0  0
  -20.6791  -26.9437   22.5418 C   0  0  0  0  0  0
  -19.5773  -26.6391   21.5221 C   0  0  0  0  0  0
  -18.1947  -26.7957   22.1615 C   0  0  0  0  0  0
  -19.1551  -28.8898   23.2845 C   0  0  0  0  0  0
  -18.9471  -30.1489   23.8877 C   0  0  0  0  0  0
  -17.6472  -30.6626   24.0545 C   0  0  0  0  0  0
  -25.9090  -34.9407   23.5030 C   0  0  0  0  0  0
  -16.5359  -29.9100   23.6362 C   0  0  0  0  0  0
  -16.7272  -28.6510   23.0388 C   0  0  0  0  0  0
  -26.4535  -31.6583   25.0690 C   0  0  0  0  0  0
  -25.3702  -31.3767   26.1363 C   0  0  0  0  0  0
  -27.0396  -30.2972   24.6334 C   0  0  0  0  0  0
  -27.6056  -32.4361   25.7485 C   0  0  0  0  0  0
  -27.5611  -37.1751   24.8433 C   0  0  0  0  0  0
  -21.4260  -29.3045   22.3592 N   0  0  0  0  0  0
  -26.4279  -37.3770   23.9442 N   0  0  0  0  0  0
  -24.7281  -31.0140   22.0927 N   0  0  0  0  0  0
  -23.4176  -28.8058   23.3044 O   0  0  0  0  0  0
  -28.2216  -26.0037   20.2139 O   0  0  0  0  0  0
  -26.5653  -34.8934   22.4592 O   0  0  0  0  0  0
  -23.5620  -32.1266   23.7044 O   0  0  0  0  0  0
  -30.0305  -23.3058   19.4110 C   0  0  0  0  0  0
  -29.4272  -20.6125   20.1231 C   0  0  0  0  0  0
  -28.8441  -23.1079   20.1397 C   0  0  0  0  0  0
  -30.5595  -21.0033   19.3444 C   0  0  0  0  0  0
  -31.7311  -18.8843   16.5680 C   0  0  0  0  0  0
  -30.6499  -19.9200   16.3777 C   0  0  0  0  0  0
  -28.9875  -18.3549   21.7869 C   0  0  0  0  0  0
  -28.9854  -16.7603   21.6840 C   0  0  0  0  0  0
  -30.0730  -17.6635   19.8745 C   0  0  0  0  0  0
  -29.1346  -18.9511   20.3708 C   0  0  2  0  0  0
  -31.7432  -20.1498   17.3965 C   0  0  0  0  0  0
  -27.8775  -24.4566   20.4249 C   0  0  0  0  0  0
  -30.8489  -22.2938   19.0230 N   0  0  0  0  0  0
  -28.5686  -21.7224   20.4829 N   0  0  0  0  0  0
  -29.7858  -16.2790   20.5295 N   0  0  0  0  0  0
  -31.4442  -20.0578   18.8182 N   0  0  0  0  0  0
  -31.4630  -12.7988   19.2058 H   0  0  0  0  0  0
  -30.4254  -11.6985   20.0590 H   0  0  0  0  0  0
  -29.8508  -11.7497   17.6057 H   0  0  0  0  0  0
  -29.6046  -13.4770   17.6906 H   0  0  0  0  0  0
  -27.9490  -11.2838   18.9708 H   0  0  0  0  0  0
  -27.3991  -12.4673   17.8160 H   0  0  0  0  0  0
  -27.5731  -14.2573   19.4052 H   0  0  0  0  0  0
  -28.7723  -12.3369   21.4551 H   0  0  0  0  0  0
  -28.3414  -14.0067   21.7618 H   0  0  0  0  0  0
  -25.2773   -9.5713   22.4729 H   0  0  0  0  0  0
  -24.0027   -7.4649   22.7468 H   0  0  0  0  0  0
  -21.0842   -8.8739   19.8928 H   0  0  0  0  0  0
  -22.3679  -10.9649   19.6140 H   0  0  0  0  0  0
  -21.1978   -7.6130   23.9711 H   0  0  0  0  0  0
  -21.1499   -6.0517   25.9084 H   0  0  0  0  0  0
  -22.0593   -2.7600   23.2870 H   0  0  0  0  0  0
  -22.4087  -11.9846   22.4804 H   0  0  0  0  0  0
  -21.1070  -13.1177   22.2620 H   0  0  0  0  0  0
  -24.6565  -15.8559   20.5225 H   0  0  0  0  0  0
  -26.2758  -15.6257   20.1022 H   0  0  0  0  0  0
  -26.7288  -32.5264   23.0896 H   0  0  0  0  0  0
  -25.0108  -33.9546   25.0278 H   0  0  0  0  0  0
  -22.7666  -31.2854   21.3738 H   0  0  0  0  0  0
  -23.3843  -35.9473   23.3152 H   0  0  0  0  0  0
  -24.3599  -36.9010   22.2075 H   0  0  0  0  0  0
  -23.7162  -37.6345   23.6757 H   0  0  0  0  0  0
  -26.1831  -31.4360   20.6233 H   0  0  0  0  0  0
  -26.8788  -30.7300   22.0459 H   0  0  0  0  0  0
  -28.1312  -28.7054   21.2685 H   0  0  0  0  0  0
  -25.8817  -25.8172   18.9804 H   0  0  0  0  0  0
  -23.9854  -27.3162   18.9482 H   0  0  0  0  0  0
  -23.8224  -30.5476   19.3930 H   0  0  0  0  0  0
  -22.7977  -29.2198   19.8480 H   0  0  0  0  0  0
  -25.1345  -36.1789   25.0794 H   0  0  0  0  0  0
  -20.9979  -28.3331   24.1369 H   0  0  0  0  0  0
  -20.5751  -26.2317   23.3612 H   0  0  0  0  0  0
  -21.6655  -26.7505   22.1184 H   0  0  0  0  0  0
  -19.6947  -25.6289   21.1287 H   0  0  0  0  0  0
  -19.6757  -27.3170   20.6732 H   0  0  0  0  0  0
  -17.4234  -26.6702   21.4004 H   0  0  0  0  0  0
  -18.0349  -26.0101   22.9021 H   0  0  0  0  0  0
  -19.7944  -30.7303   24.2268 H   0  0  0  0  0  0
  -17.5028  -31.6332   24.5098 H   0  0  0  0  0  0
  -15.5362  -30.2996   23.7740 H   0  0  0  0  0  0
  -15.8651  -28.0815   22.7167 H   0  0  0  0  0  0
  -24.5891  -30.7110   25.7656 H   0  0  0  0  0  0
  -24.8882  -32.2942   26.4763 H   0  0  0  0  0  0
  -25.7968  -30.8946   27.0163 H   0  0  0  0  0  0
  -26.3011  -29.6698   24.1336 H   0  0  0  0  0  0
  -27.3930  -29.7295   25.4950 H   0  0  0  0  0  0
  -27.8963  -30.4166   23.9695 H   0  0  0  0  0  0
  -27.2642  -33.3689   26.1974 H   0  0  0  0  0  0
  -28.3920  -32.6872   25.0358 H   0  0  0  0  0  0
  -28.0646  -31.8542   26.5478 H   0  0  0  0  0  0
  -28.2507  -38.0177   24.7720 H   0  0  0  0  0  0
  -28.1246  -36.2740   24.5980 H   0  0  0  0  0  0
  -27.2338  -37.1042   25.8820 H   0  0  0  0  0  0
  -20.9481  -29.8675   21.6687 H   0  0  0  0  0  0
  -26.0129  -38.2797   24.1598 H   0  0  0  0  0  0
  -30.3113  -24.2987   19.0955 H   0  0  0  0  0  0
  -32.4685  -18.7894   15.7747 H   0  0  0  0  0  0
  -31.4405  -17.9446   17.0338 H   0  0  0  0  0  0
  -29.6543  -19.6681   16.7361 H   0  0  0  0  0  0
  -30.6786  -20.5040   15.4588 H   0  0  0  0  0  0
  -29.8397  -18.6705   22.3902 H   0  0  0  0  0  0
  -28.0967  -18.7297   22.2922 H   0  0  0  0  0  0
  -27.9630  -16.4076   21.5433 H   0  0  0  0  0  0
  -29.3421  -16.3159   22.6150 H   0  0  0  0  0  0
  -31.1171  -17.8539   20.1276 H   0  0  0  0  0  0
  -30.0192  -17.5562   18.7915 H   0  0  0  0  0  0
  -28.1658  -18.8053   19.8902 H   0  0  0  0  0  0
  -32.5128  -20.8894   17.1785 H   0  0  0  0  0  0
  -27.5944  -24.3819   21.4742 H   0  0  0  0  0  0
  -26.9571  -24.2328   19.8905 H   0  0  0  0  0  0
  -31.2351  -19.1166   19.1340 H   0  0  0  0  0  0
  1 25  1  0  0  0
  1 30  2  0  0  0
  1 85  1  0  0  0
  2  3  1  0  0  0
  2 25  1  0  0  0
  2 87  1  0  0  0
  2 88  1  0  0  0
  3  4  1  0  0  0
  3 89  1  0  0  0
  3 90  1  0  0  0
  4  5  1  0  0  0
  4 91  1  0  0  0
  4 92  1  0  0  0
  5  6  1  0  0  0
  5 26  1  0  0  0
  5 93  1  0  0  0
  6 25  1  0  0  0
  6 94  1  0  0  0
  6 95  1  0  0  0
  7  8  2  0  0  0
  7 26  1  0  0  0
  7 29  1  0  0  0
  8  9  1  0  0  0
  8 22  1  0  0  0
  9 10  1  0  0  0
  9 27  2  0  0  0
 10 11  2  0  0  0
 10 15  1  0  0  0
 11 12  1  0  0  0
 11 96  1  0  0  0
 12 13  2  0  0  0
 12 97  1  0  0  0
 13 14  1  0  0  0
 13 31  1  0  0  0
 14 15  2  0  0  0
 14 98  1  0  0  0
 15 99  1  0  0  0
 16 17  2  0  0  0
 16 21  1  0  0  0
 16 31  1  0  0  0
 17 18  1  0  0  0
 17100  1  0  0  0
 18 19  2  0  0  0
 18101  1  0  0  0
 19 20  1  0  0  0
 19 24  1  0  0  0
 20 21  2  0  0  0
 20102  1  0  0  0
 21 23  1  0  0  0
 22 28  1  0  0  0
 22 32  2  0  0  0
 26 27  1  0  0  0
 28103  1  0  0  0
 28104  1  0  0  0
 29105  1  0  0  0
 29106  1  0  0  0
 33 34  1  0  0  0
 33 66  1  0  0  0
 33 70  2  0  0  0
 34 36  1  0  0  0
 34 59  1  0  0  0
 34107  1  0  0  0
 35 44  2  0  0  0
 35 45  1  0  0  0
 35 68  1  0  0  0
 36 56  1  0  0  0
 36108  1  0  0  0
 37 39  1  0  0  0
 37 47  1  0  0  0
 37 66  1  0  0  0
 37109  1  0  0  0
 38 43  2  0  0  0
 38 46  1  0  0  0
 38 47  1  0  0  0
 39 64  1  0  0  0
 39 67  2  0  0  0
 40 52  1  0  0  0
 40 53  2  0  0  0
 40 58  1  0  0  0
 41110  1  0  0  0
 41111  1  0  0  0
 41112  1  0  0  0
 41 48  1  0  0  0
 42 43  1  0  0  0
 42 66  1  0  0  0
 42113  1  0  0  0
 42114  1  0  0  0
 43 44  1  0  0  0
 44115  1  0  0  0
 45 46  2  0  0  0
 45116  1  0  0  0
 46117  1  0  0  0
 47118  1  0  0  0
 47119  1  0  0  0
 48 56  1  0  0  0
 48 65  1  0  0  0
 48120  1  0  0  0
 49 50  1  0  0  0
 49 53  1  0  0  0
 49 64  1  0  0  0
 49121  1  0  0  0
 50 51  1  0  0  0
 50122  1  0  0  0
 50123  1  0  0  0
 51 52  1  0  0  0
 51124  1  0  0  0
 51125  1  0  0  0
 52126  1  0  0  0
 52127  1  0  0  0
 53 54  1  0  0  0
 54 55  2  0  0  0
 54128  1  0  0  0
 55 57  1  0  0  0
 55129  1  0  0  0
 56 69  2  0  0  0
 57 58  2  0  0  0
 57130  1  0  0  0
 58131  1  0  0  0
 59 60  1  0  0  0
 59 61  1  0  0  0
 59 62  1  0  0  0
 60132  1  0  0  0
 60133  1  0  0  0
 60134  1  0  0  0
 61135  1  0  0  0
 61136  1  0  0  0
 61137  1  0  0  0
 62138  1  0  0  0
 62139  1  0  0  0
 62140  1  0  0  0
 63 65  1  0  0  0
 63141  1  0  0  0
 63142  1  0  0  0
 63143  1  0  0  0
 64144  1  0  0  0
 65145  1  0  0  0
 68 82  1  0  0  0
 71 73  2  0  0  0
 71 83  1  0  0  0
 71146  1  0  0  0
 72 74  1  0  0  0
 72 84  2  0  0  0
 72 80  1  0  0  0
 73 82  1  0  0  0
 73 84  1  0  0  0
 74 83  2  0  0  0
 74 86  1  0  0  0
 75 76  1  0  0  0
 75 81  1  0  0  0
 75147  1  0  0  0
 75148  1  0  0  0
 76 81  1  0  0  0
 76149  1  0  0  0
 76150  1  0  0  0
 77 78  1  0  0  0
 77 80  1  0  0  0
 77151  1  0  0  0
 77152  1  0  0  0
 78 85  1  0  0  0
 78153  1  0  0  0
 78154  1  0  0  0
 79 80  1  0  0  0
 79 85  1  0  0  0
 79155  1  0  0  0
 79156  1  0  0  0
 80157  1  0  0  0
 81 86  1  0  0  0
 81158  1  0  0  0
 82159  1  0  0  0
 82160  1  0  0  0
 86161  1  0  0  0
M  ISO  4   1 100  68 101  82 101  85 100
M  END
> <chiral flag>
0

> <version>
0

> <s_m_source_file>
/data/baiqing/PycharmProjects/Reinvent-master-3.2/result/LINK_invent/BTK/process_docking_weight1_custom_sum_contain_oxygen_bond_distance_aromatic_linkinvent_7_9_3/rearranged_h_0172.sdf

> <i_m_source_file_index>
50

> <r_mmod_Potential_Energy-OPLS-2005>
997.249572753906

> <r_mmod_Stretch_Energy-OPLS-2005>
345.064208984375

> <r_mmod_Bend_Energy-OPLS-2005>
337.911834716797

> <r_mmod_Torsional_Energy-OPLS-2005>
359.206329345703

> <r_mmod_Improper_Torsional_Energy-OPLS-2005>
16.0289630889893

> <r_mmod_Van_der_Waal_Energy-OPLS-2005>
125.814697265625

> <r_mmod_Electrostatic_Energy-OPLS-2005>
-217.019729614258

> <r_mmod_Solvation_Energy-OPLS-2005>
-231.119384765625

> <b_mmod_Minimization_Converged-OPLS-2005>
0

> <r_mmod_RMS_Derivative-OPLS-2005>
3.3555269241333

$$$$
50
                    3D
 Structure written by MMmdl.
170179  0  0  1  0            999 V2000
  -30.6635  -14.5462   20.5420 C   0  0  0  0  0  0
  -30.4313  -12.3476   19.4257 C   0  0  0  0  0  0
  -29.4979  -12.5076   18.2069 C   0  0  0  0  0  0
  -28.0204  -12.3556   18.6212 C   0  0  0  0  0  0
  -27.6568  -13.2088   19.8660 C   0  0  2  0  0  0
  -28.7018  -13.0230   20.9883 C   0  0  0  0  0  0
  -25.2582  -13.8160   20.5676 C   0  0  0  0  0  0
  -24.1840  -13.0436   20.9185 C   0  0  0  0  0  0
  -24.6397  -11.6903   20.8740 C   0  0  0  0  0  0
  -23.9067  -10.4290   21.0410 C   0  0  0  0  0  0
  -24.3620   -9.4208   21.9190 C   0  0  0  0  0  0
  -23.6300   -8.2240   22.0756 C   0  0  0  0  0  0
  -22.4281   -8.0279   21.3545 C   0  0  0  0  0  0
  -21.9916   -9.0252   20.4647 C   0  0  0  0  0  0
  -22.7241  -10.2133   20.3059 C   0  0  0  0  0  0
  -21.6854   -6.0742   22.5285 C   0  0  0  0  0  0
  -21.4008   -6.5643   23.8219 C   0  0  0  0  0  0
  -21.3661   -5.6794   24.9181 C   0  0  0  0  0  0
  -21.6047   -4.3058   24.7229 C   0  0  0  0  0  0
  -21.8819   -3.8150   23.4349 C   0  0  0  0  0  0
  -21.9194   -4.6968   22.3406 C   0  0  0  0  0  0
  -22.7865  -13.5238   21.1852 C   0  0  0  0  0  0
  -22.1664   -4.2156   21.0983 F   0  0  0  0  0  0
  -21.5630   -3.4545   25.7741 F   0  0  0  0  0  0
  -30.0226  -13.3476   20.4259 N   0  0  0  0  0  0
  -26.3007  -12.9325   20.3331 N   0  0  0  0  0  0
  -25.9325  -11.6486   20.5758 N   0  0  0  0  0  0
  -22.0506  -12.8226   22.0403 N   0  0  0  0  0  0
  -25.4317  -15.1878   20.4072 N   0  0  0  0  0  0
  -31.8210  -14.7190   20.1498 O   0  0  0  0  0  0
  -21.6642   -6.8882   21.4246 O   0  0  0  0  0  0
  -22.3555  -14.5552   20.6716 O   0  0  0  0  0  0
  -24.6177  -31.8649   23.2066 C   0  0  0  0  0  0
  -25.9056  -32.4809   23.8377 C   0  0  1  0  0  0
  -27.2351  -27.4012   20.1100 C   0  0  0  0  0  0
  -25.5903  -33.8608   24.2315 N   0  0  0  0  0  0
  -23.4087  -30.4863   21.5471 C   0  0  2  0  0  0
  -24.8587  -28.9445   20.1174 C   0  0  0  0  0  0
  -22.7428  -29.4642   22.4971 C   0  0  0  0  0  0
  -18.0274  -28.1381   22.8487 C   0  0  0  0  0  0
  -24.1487  -36.7304   23.2637 C   0  0  0  0  0  0
  -25.9405  -30.8207   21.3644 C   0  0  0  0  0  0
  -26.0208  -29.4507   20.7155 C   0  0  0  0  0  0
  -27.2164  -28.6878   20.7062 C   0  0  0  0  0  0
  -26.0590  -26.9159   19.5059 C   0  0  0  0  0  0
  -24.8742  -27.6776   19.5077 C   0  0  0  0  0  0
  -23.6206  -29.8141   20.1642 C   0  0  0  0  0  0
  -25.4110  -36.3105   24.0336 C   0  0  1  0  0  0
  -20.5867  -28.3672   23.1306 C   0  0  2  0  0  0
  -20.6766  -26.9403   22.5413 C   0  0  0  0  0  0
  -19.5747  -26.6382   21.5212 C   0  0  0  0  0  0
  -18.1923  -26.7929   22.1616 C   0  0  0  0  0  0
  -19.1525  -28.8841   23.2895 C   0  0  0  0  0  0
  -18.9454  -30.1447   23.8906 C   0  0  0  0  0  0
  -17.6455  -30.6585   24.0568 C   0  0  0  0  0  0
  -25.9035  -34.9468   23.5122 C   0  0  0  0  0  0
  -16.5344  -29.9086   23.6331 C   0  0  0  0  0  0
  -16.7264  -28.6504   23.0351 C   0  0  0  0  0  0
  -26.4479  -31.6592   25.0714 C   0  0  0  0  0  0
  -25.3735  -31.3704   26.1459 C   0  0  0  0  0  0
  -27.0305  -30.3028   24.6099 C   0  0  0  0  0  0
  -27.6055  -32.4309   25.7476 C   0  0  0  0  0  0
  -27.5584  -37.1806   24.8464 C   0  0  0  0  0  0
  -21.4150  -29.3036   22.3713 N   0  0  0  0  0  0
  -26.4295  -37.3792   23.9410 N   0  0  0  0  0  0
  -24.6739  -31.0724   22.0978 N   0  0  0  0  0  0
  -23.4184  -28.8182   23.3027 O   0  0  0  0  0  0
  -28.3682  -26.6084   20.0812 O   0  0  0  0  0  0
  -26.5596  -34.8926   22.4683 O   0  0  0  0  0  0
  -23.5361  -32.1411   23.7441 O   0  0  0  0  0  0
  -29.6405  -23.7885   19.5117 C   0  0  0  0  0  0
  -28.7704  -24.0934   20.5988 C   0  0  0  0  0  0
  -29.8601  -22.4165   19.1398 C   0  0  0  0  0  0
  -28.2923  -22.9805   21.3446 C   0  0  0  0  0  0
  -29.3128  -21.3916   19.9655 C   0  0  0  0  0  0
  -29.0683  -17.9907   21.2195 C   0  0  0  0  0  0
  -30.7397  -17.8325   19.9849 C   0  0  0  0  0  0
  -30.0242  -19.0546   20.6271 C   0  0  1  0  0  0
  -30.2653  -16.9996   21.1989 C   0  0  2  0  0  0
  -30.3607  -24.9210   18.7826 C   0  0  0  0  0  0
  -27.4273  -23.1525   22.5815 C   0  0  0  0  0  0
  -29.9282  -21.2442   16.8271 C   0  0  0  0  0  0
  -32.0586  -21.4618   18.2368 C   0  0  0  0  0  0
  -28.4182  -25.5457   21.0664 C   0  0  0  0  0  0
  -30.6910  -22.0695   17.8817 C   0  0  0  0  0  0
  -28.5740  -21.6875   21.0493 N   0  0  0  0  0  0
  -29.4611  -20.0179   19.6617 N   0  0  0  0  0  0
  -29.8923  -15.5810   20.9595 N   0  0  0  0  0  0
  -31.4731  -12.4671   19.1222 H   0  0  0  0  0  0
  -30.3532  -11.3424   19.8426 H   0  0  0  0  0  0
  -29.7483  -11.7736   17.4402 H   0  0  0  0  0  0
  -29.6509  -13.4879   17.7519 H   0  0  0  0  0  0
  -27.8440  -11.2999   18.8318 H   0  0  0  0  0  0
  -27.3666  -12.6109   17.7863 H   0  0  0  0  0  0
  -27.6882  -14.2509   19.5475 H   0  0  0  0  0  0
  -28.6970  -11.9936   21.3485 H   0  0  0  0  0  0
  -28.4601  -13.6385   21.8562 H   0  0  0  0  0  0
  -25.2767   -9.5689   22.4761 H   0  0  0  0  0  0
  -24.0018   -7.4633   22.7468 H   0  0  0  0  0  0
  -21.0851   -8.8766   19.8946 H   0  0  0  0  0  0
  -22.3704  -10.9671   19.6166 H   0  0  0  0  0  0
  -21.1990   -7.6148   23.9725 H   0  0  0  0  0  0
  -21.1486   -6.0523   25.9083 H   0  0  0  0  0  0
  -22.0596   -2.7613   23.2850 H   0  0  0  0  0  0
  -22.4116  -11.9878   22.4779 H   0  0  0  0  0  0
  -21.1122  -13.1250   22.2605 H   0  0  0  0  0  0
  -24.6657  -15.8442   20.5109 H   0  0  0  0  0  0
  -26.2821  -15.6237   20.0737 H   0  0  0  0  0  0
  -26.7127  -32.5520   23.1140 H   0  0  0  0  0  0
  -25.0082  -33.9771   25.0480 H   0  0  0  0  0  0
  -22.6987  -31.3032   21.4029 H   0  0  0  0  0  0
  -23.3757  -35.9629   23.3295 H   0  0  0  0  0  0
  -24.3586  -36.8924   22.2054 H   0  0  0  0  0  0
  -23.7225  -37.6499   23.6657 H   0  0  0  0  0  0
  -26.0545  -31.5827   20.5922 H   0  0  0  0  0  0
  -26.8276  -30.8788   21.9837 H   0  0  0  0  0  0
  -28.1156  -29.0756   21.1640 H   0  0  0  0  0  0
  -26.0616  -25.9418   19.0371 H   0  0  0  0  0  0
  -23.9824  -27.2821   19.0418 H   0  0  0  0  0  0
  -23.7293  -30.5855   19.4011 H   0  0  0  0  0  0
  -22.7447  -29.2327   19.8698 H   0  0  0  0  0  0
  -25.1289  -36.1970   25.0829 H   0  0  0  0  0  0
  -20.9962  -28.3243   24.1427 H   0  0  0  0  0  0
  -20.5668  -26.2280   23.3606 H   0  0  0  0  0  0
  -21.6639  -26.7443   22.1208 H   0  0  0  0  0  0
  -19.6911  -25.6295   21.1239 H   0  0  0  0  0  0
  -19.6694  -27.3198   20.6747 H   0  0  0  0  0  0
  -17.4198  -26.6683   21.4012 H   0  0  0  0  0  0
  -18.0317  -26.0064   22.9002 H   0  0  0  0  0  0
  -19.7929  -30.7264   24.2278 H   0  0  0  0  0  0
  -17.5009  -31.6271   24.5158 H   0  0  0  0  0  0
  -15.5346  -30.2995   23.7649 H   0  0  0  0  0  0
  -15.8659  -28.0828   22.7064 H   0  0  0  0  0  0
  -24.5911  -30.7050   25.7795 H   0  0  0  0  0  0
  -24.8927  -32.2860   26.4911 H   0  0  0  0  0  0
  -25.8081  -30.8866   27.0215 H   0  0  0  0  0  0
  -26.2852  -29.6787   24.1158 H   0  0  0  0  0  0
  -27.4074  -29.7270   25.4563 H   0  0  0  0  0  0
  -27.8691  -30.4339   23.9254 H   0  0  0  0  0  0
  -27.2690  -33.3613   26.2060 H   0  0  0  0  0  0
  -28.3869  -32.6853   25.0300 H   0  0  0  0  0  0
  -28.0720  -31.8421   26.5386 H   0  0  0  0  0  0
  -28.2601  -38.0107   24.7526 H   0  0  0  0  0  0
  -28.1082  -36.2639   24.6273 H   0  0  0  0  0  0
  -27.2303  -37.1438   25.8868 H   0  0  0  0  0  0
  -20.9316  -29.8760   21.6935 H   0  0  0  0  0  0
  -26.0182  -38.2867   24.1423 H   0  0  0  0  0  0
  -28.2584  -17.7132   20.5407 H   0  0  0  0  0  0
  -28.6868  -18.2312   22.2126 H   0  0  0  0  0  0
  -31.8229  -17.9335   19.9000 H   0  0  0  0  0  0
  -30.2975  -17.5074   19.0404 H   0  0  0  0  0  0
  -30.6378  -19.5358   21.3917 H   0  0  0  0  0  0
  -30.9196  -17.1329   22.0632 H   0  0  0  0  0  0
  -30.4893  -25.8006   19.4085 H   0  0  0  0  0  0
  -29.8188  -25.2099   17.8818 H   0  0  0  0  0  0
  -31.3803  -24.6482   18.5147 H   0  0  0  0  0  0
  -26.4578  -23.5744   22.3157 H   0  0  0  0  0  0
  -27.9108  -23.8145   23.3005 H   0  0  0  0  0  0
  -27.2450  -22.2014   23.0834 H   0  0  0  0  0  0
  -28.9797  -21.7191   16.5736 H   0  0  0  0  0  0
  -29.7177  -20.2200   17.1262 H   0  0  0  0  0  0
  -30.5079  -21.1790   15.9053 H   0  0  0  0  0  0
  -32.6281  -22.1346   18.8791 H   0  0  0  0  0  0
  -32.6558  -21.2904   17.3404 H   0  0  0  0  0  0
  -31.9745  -20.5076   18.7556 H   0  0  0  0  0  0
  -29.1697  -25.8326   21.8025 H   0  0  0  0  0  0
  -27.4753  -25.5323   21.6134 H   0  0  0  0  0  0
  -30.9120  -22.9795   17.3313 H   0  0  0  0  0  0
  -29.8500  -19.8997   18.7350 H   0  0  0  0  0  0
  -28.9498  -15.3248   21.2124 H   0  0  0  0  0  0
  1 25  1  0  0  0
  1 30  2  0  0  0
  1 88  1  0  0  0
  2  3  1  0  0  0
  2 25  1  0  0  0
  2 89  1  0  0  0
  2 90  1  0  0  0
  3  4  1  0  0  0
  3 91  1  0  0  0
  3 92  1  0  0  0
  4  5  1  0  0  0
  4 93  1  0  0  0
  4 94  1  0  0  0
  5  6  1  0  0  0
  5 26  1  0  0  0
  5 95  1  0  0  0
  6 25  1  0  0  0
  6 96  1  0  0  0
  6 97  1  0  0  0
  7  8  2  0  0  0
  7 26  1  0  0  0
  7 29  1  0  0  0
  8  9  1  0  0  0
  8 22  1  0  0  0
  9 10  1  0  0  0
  9 27  2  0  0  0
 10 11  2  0  0  0
 10 15  1  0  0  0
 11 12  1  0  0  0
 11 98  1  0  0  0
 12 13  2  0  0  0
 12 99  1  0  0  0
 13 14  1  0  0  0
 13 31  1  0  0  0
 14 15  2  0  0  0
 14100  1  0  0  0
 15101  1  0  0  0
 16 17  2  0  0  0
 16 21  1  0  0  0
 16 31  1  0  0  0
 17 18  1  0  0  0
 17102  1  0  0  0
 18 19  2  0  0  0
 18103  1  0  0  0
 19 20  1  0  0  0
 19 24  1  0  0  0
 20 21  2  0  0  0
 20104  1  0  0  0
 21 23  1  0  0  0
 22 28  1  0  0  0
 22 32  2  0  0  0
 26 27  1  0  0  0
 28105  1  0  0  0
 28106  1  0  0  0
 29107  1  0  0  0
 29108  1  0  0  0
 33 34  1  0  0  0
 33 66  1  0  0  0
 33 70  2  0  0  0
 34 36  1  0  0  0
 34 59  1  0  0  0
 34109  1  0  0  0
 35 44  2  0  0  0
 35 45  1  0  0  0
 35 68  1  0  0  0
 36 56  1  0  0  0
 36110  1  0  0  0
 37 39  1  0  0  0
 37 47  1  0  0  0
 37 66  1  0  0  0
 37111  1  0  0  0
 38 43  2  0  0  0
 38 46  1  0  0  0
 38 47  1  0  0  0
 39 64  1  0  0  0
 39 67  2  0  0  0
 40 52  1  0  0  0
 40 53  2  0  0  0
 40 58  1  0  0  0
 41112  1  0  0  0
 41113  1  0  0  0
 41114  1  0  0  0
 41 48  1  0  0  0
 42 43  1  0  0  0
 42 66  1  0  0  0
 42115  1  0  0  0
 42116  1  0  0  0
 43 44  1  0  0  0
 44117  1  0  0  0
 45 46  2  0  0  0
 45118  1  0  0  0
 46119  1  0  0  0
 47120  1  0  0  0
 47121  1  0  0  0
 48 56  1  0  0  0
 48 65  1  0  0  0
 48122  1  0  0  0
 49 50  1  0  0  0
 49 53  1  0  0  0
 49 64  1  0  0  0
 49123  1  0  0  0
 50 51  1  0  0  0
 50124  1  0  0  0
 50125  1  0  0  0
 51 52  1  0  0  0
 51126  1  0  0  0
 51127  1  0  0  0
 52128  1  0  0  0
 52129  1  0  0  0
 53 54  1  0  0  0
 54 55  2  0  0  0
 54130  1  0  0  0
 55 57  1  0  0  0
 55131  1  0  0  0
 56 69  2  0  0  0
 57 58  2  0  0  0
 57132  1  0  0  0
 58133  1  0  0  0
 59 60  1  0  0  0
 59 61  1  0  0  0
 59 62  1  0  0  0
 60134  1  0  0  0
 60135  1  0  0  0
 60136  1  0  0  0
 61137  1  0  0  0
 61138  1  0  0  0
 61139  1  0  0  0
 62140  1  0  0  0
 62141  1  0  0  0
 62142  1  0  0  0
 63 65  1  0  0  0
 63143  1  0  0  0
 63144  1  0  0  0
 63145  1  0  0  0
 64146  1  0  0  0
 65147  1  0  0  0
 68 84  1  0  0  0
 71 72  2  0  0  0
 71 73  1  0  0  0
 71 80  1  0  0  0
 72 74  1  0  0  0
 72 84  1  0  0  0
 73 75  2  0  0  0
 73 85  1  0  0  0
 74 81  1  0  0  0
 74 86  2  0  0  0
 75 86  1  0  0  0
 75 87  1  0  0  0
 76 78  1  0  0  0
 76 79  1  0  0  0
 76148  1  0  0  0
 76149  1  0  0  0
 77 78  1  0  0  0
 77 79  1  0  0  0
 77150  1  0  0  0
 77151  1  0  0  0
 78 87  1  0  0  0
 78152  1  0  0  0
 79 88  1  0  0  0
 79153  1  0  0  0
 80154  1  0  0  0
 80155  1  0  0  0
 80156  1  0  0  0
 81157  1  0  0  0
 81158  1  0  0  0
 81159  1  0  0  0
 82160  1  0  0  0
 82161  1  0  0  0
 82162  1  0  0  0
 82 85  1  0  0  0
 83 85  1  0  0  0
 83163  1  0  0  0
 83164  1  0  0  0
 83165  1  0  0  0
 84166  1  0  0  0
 84167  1  0  0  0
 85168  1  0  0  0
 87169  1  0  0  0
 88170  1  0  0  0
M  ISO  4   1 100  68 101  84 101  88 100
M  END
> <chiral flag>
0

> <version>
0

> <s_m_source_file>
/data/baiqing/PycharmProjects/Reinvent-master-3.2/result/LINK_invent/BTK/process_docking_weight1_custom_sum_contain_oxygen_bond_distance_aromatic_linkinvent_7_9_3/rearranged_h_0172.sdf

> <i_m_source_file_index>
51

> <r_mmod_Potential_Energy-OPLS-2005>
-90.9845657348633

> <r_mmod_Stretch_Energy-OPLS-2005>
54.430965423584

> <r_mmod_Bend_Energy-OPLS-2005>
146.510406494141

> <r_mmod_Torsional_Energy-OPLS-2005>
269.380310058594

> <r_mmod_Improper_Torsional_Energy-OPLS-2005>
8.19885063171387

> <r_mmod_Van_der_Waal_Energy-OPLS-2005>
156.732162475586

> <r_mmod_Electrostatic_Energy-OPLS-2005>
-525.717956542969

> <r_mmod_Solvation_Energy-OPLS-2005>
-222.580780029297

> <b_mmod_Minimization_Converged-OPLS-2005>
0

> <r_mmod_RMS_Derivative-OPLS-2005>
0.810297787189484

$$$$
51
                    3D
 Structure written by MMmdl.
158167  0  0  1  0            999 V2000
  -30.7177  -14.7391   20.4664 C   0  0  0  0  0  0
  -30.4051  -12.4733   19.4616 C   0  0  0  0  0  0
  -29.4891  -12.4985   18.2243 C   0  0  0  0  0  0
  -28.0218  -12.3236   18.6518 C   0  0  0  0  0  0
  -27.6309  -13.2417   19.8413 C   0  0  2  0  0  0
  -28.6872  -13.2240   20.9691 C   0  0  0  0  0  0
  -25.2461  -13.8221   20.5723 C   0  0  0  0  0  0
  -24.1773  -13.0446   20.9237 C   0  0  0  0  0  0
  -24.6386  -11.6932   20.8778 C   0  0  0  0  0  0
  -23.9073  -10.4297   21.0418 C   0  0  0  0  0  0
  -24.3624   -9.4208   21.9191 C   0  0  0  0  0  0
  -23.6298   -8.2243   22.0755 C   0  0  0  0  0  0
  -22.4280   -8.0282   21.3544 C   0  0  0  0  0  0
  -21.9920   -9.0258   20.4647 C   0  0  0  0  0  0
  -22.7248  -10.2138   20.3063 C   0  0  0  0  0  0
  -21.6855   -6.0738   22.5280 C   0  0  0  0  0  0
  -21.4015   -6.5641   23.8213 C   0  0  0  0  0  0
  -21.3660   -5.6793   24.9175 C   0  0  0  0  0  0
  -21.6045   -4.3056   24.7226 C   0  0  0  0  0  0
  -21.8819   -3.8149   23.4346 C   0  0  0  0  0  0
  -21.9193   -4.6966   22.3402 C   0  0  0  0  0  0
  -22.7791  -13.5215   21.1881 C   0  0  0  0  0  0
  -22.1661   -4.2151   21.0980 F   0  0  0  0  0  0
  -21.5629   -3.4540   25.7738 F   0  0  0  0  0  0
  -29.9678  -13.5831   20.3492 N   0  0  0  0  0  0
  -26.2897  -12.9453   20.3314 N   0  0  0  0  0  0
  -25.9324  -11.6585   20.5802 N   0  0  0  0  0  0
  -22.0440  -12.8202   22.0435 N   0  0  0  0  0  0
  -25.4105  -15.1944   20.4104 N   0  0  0  0  0  0
  -31.9264  -14.6337   20.2386 O   0  0  0  0  0  0
  -21.6642   -6.8882   21.4241 O   0  0  0  0  0  0
  -22.3472  -14.5516   20.6721 O   0  0  0  0  0  0
  -24.6340  -31.8573   23.2033 C   0  0  0  0  0  0
  -25.9166  -32.4761   23.8366 C   0  0  1  0  0  0
  -27.1957  -27.2461   20.1137 C   0  0  0  0  0  0
  -25.5963  -33.8565   24.2279 N   0  0  0  0  0  0
  -23.4291  -30.4872   21.5484 C   0  0  2  0  0  0
  -24.8715  -28.9493   20.1062 C   0  0  0  0  0  0
  -22.7515  -29.4622   22.4911 C   0  0  0  0  0  0
  -18.0296  -28.1389   22.8483 C   0  0  0  0  0  0
  -24.1493  -36.7282   23.2637 C   0  0  0  0  0  0
  -25.9815  -30.7624   21.3920 C   0  0  0  0  0  0
  -26.0486  -29.3889   20.7256 C   0  0  0  0  0  0
  -27.2137  -28.5488   20.7258 C   0  0  0  0  0  0
  -25.9964  -26.9083   19.4356 C   0  0  0  0  0  0
  -24.8521  -27.7166   19.4508 C   0  0  0  0  0  0
  -23.6462  -29.8377   20.1601 C   0  0  0  0  0  0
  -25.4119  -36.3072   24.0325 C   0  0  1  0  0  0
  -20.5903  -28.3707   23.1255 C   0  0  2  0  0  0
  -20.6786  -26.9422   22.5400 C   0  0  0  0  0  0
  -19.5758  -26.6383   21.5209 C   0  0  0  0  0  0
  -18.1938  -26.7932   22.1622 C   0  0  0  0  0  0
  -19.1551  -28.8865   23.2864 C   0  0  0  0  0  0
  -18.9470  -30.1464   23.8887 C   0  0  0  0  0  0
  -17.6468  -30.6587   24.0563 C   0  0  0  0  0  0
  -25.9065  -34.9442   23.5098 C   0  0  0  0  0  0
  -16.5360  -29.9082   23.6336 C   0  0  0  0  0  0
  -16.7282  -28.6501   23.0356 C   0  0  0  0  0  0
  -26.4517  -31.6584   25.0758 C   0  0  0  0  0  0
  -25.3725  -31.3752   26.1467 C   0  0  0  0  0  0
  -27.0361  -30.2987   24.6280 C   0  0  0  0  0  0
  -27.6069  -32.4326   25.7530 C   0  0  0  0  0  0
  -27.5581  -37.1799   24.8463 C   0  0  0  0  0  0
  -21.4221  -29.3057   22.3649 N   0  0  0  0  0  0
  -26.4294  -37.3770   23.9406 N   0  0  0  0  0  0
  -24.7007  -31.0530   22.1028 N   0  0  0  0  0  0
  -23.4214  -28.8140   23.2994 O   0  0  0  0  0  0
  -28.2394  -26.2804   20.1993 O   0  0  0  0  0  0
  -26.5627  -34.8913   22.4661 O   0  0  0  0  0  0
  -23.5485  -32.1413   23.7312 O   0  0  0  0  0  0
  -29.3727  -21.6815   21.6890 C   0  0  0  0  0  0
  -29.0247  -23.0614   21.4908 C   0  0  0  0  0  0
  -29.2614  -20.7368   20.6260 C   0  0  0  0  0  0
  -28.5959  -23.4909   20.2043 C   0  0  0  0  0  0
  -28.5136  -18.0967   20.8315 C   0  0  0  0  0  0
  -30.6299  -18.6028   19.7898 C   0  0  0  0  0  0
  -28.9692  -16.5911   21.1361 C   0  0  0  0  0  0
  -31.1502  -17.1575   20.1252 C   0  0  0  0  0  0
  -29.6335  -19.1867   20.8079 C   0  0  0  0  0  0
  -29.0512  -24.0329   22.6553 C   0  0  0  0  0  0
  -27.8340  -24.8591   19.8792 C   0  0  0  0  0  0
  -28.8443  -21.2151   19.4162 N   0  0  0  0  0  0
  -28.5333  -22.5271   19.2238 N   0  0  0  0  0  0
  -30.1817  -16.0479   20.4448 N   0  0  0  0  0  0
  -31.4450  -12.5557   19.1421 H   0  0  0  0  0  0
  -30.3347  -11.5146   19.9780 H   0  0  0  0  0  0
  -29.7721  -11.7104   17.5253 H   0  0  0  0  0  0
  -29.6108  -13.4429   17.6912 H   0  0  0  0  0  0
  -27.8880  -11.2783   18.9328 H   0  0  0  0  0  0
  -27.3568  -12.4964   17.8048 H   0  0  0  0  0  0
  -27.6079  -14.2512   19.4314 H   0  0  0  0  0  0
  -28.7438  -12.2379   21.4320 H   0  0  0  0  0  0
  -28.4291  -13.9147   21.7712 H   0  0  0  0  0  0
  -25.2766   -9.5684   22.4772 H   0  0  0  0  0  0
  -24.0008   -7.4632   22.7472 H   0  0  0  0  0  0
  -21.0854   -8.8778   19.8950 H   0  0  0  0  0  0
  -22.3706  -10.9681   19.6176 H   0  0  0  0  0  0
  -21.2007   -7.6149   23.9718 H   0  0  0  0  0  0
  -21.1483   -6.0523   25.9078 H   0  0  0  0  0  0
  -22.0596   -2.7611   23.2847 H   0  0  0  0  0  0
  -22.4067  -11.9871   22.4829 H   0  0  0  0  0  0
  -21.1056  -13.1220   22.2640 H   0  0  0  0  0  0
  -24.6398  -15.8443   20.5207 H   0  0  0  0  0  0
  -26.2563  -15.6366   20.0754 H   0  0  0  0  0  0
  -26.7230  -32.5396   23.1102 H   0  0  0  0  0  0
  -25.0117  -33.9711   25.0428 H   0  0  0  0  0  0
  -22.7258  -31.3110   21.4103 H   0  0  0  0  0  0
  -23.3758  -35.9611   23.3299 H   0  0  0  0  0  0
  -24.3583  -36.8906   22.2051 H   0  0  0  0  0  0
  -23.7246  -37.6482   23.6663 H   0  0  0  0  0  0
  -26.1322  -31.5265   20.6283 H   0  0  0  0  0  0
  -26.8549  -30.8006   22.0312 H   0  0  0  0  0  0
  -28.1061  -28.8730   21.2427 H   0  0  0  0  0  0
  -25.8746  -25.9862   18.8902 H   0  0  0  0  0  0
  -23.9560  -27.3808   18.9470 H   0  0  0  0  0  0
  -23.7739  -30.6219   19.4131 H   0  0  0  0  0  0
  -22.7624  -29.2779   19.8489 H   0  0  0  0  0  0
  -25.1300  -36.1921   25.0819 H   0  0  0  0  0  0
  -20.9993  -28.3286   24.1377 H   0  0  0  0  0  0
  -20.5690  -26.2318   23.3609 H   0  0  0  0  0  0
  -21.6654  -26.7445   22.1193 H   0  0  0  0  0  0
  -19.6921  -25.6290   21.1247 H   0  0  0  0  0  0
  -19.6691  -27.3188   20.6735 H   0  0  0  0  0  0
  -17.4205  -26.6681   21.4026 H   0  0  0  0  0  0
  -18.0339  -26.0074   22.9020 H   0  0  0  0  0  0
  -19.7945  -30.7288   24.2249 H   0  0  0  0  0  0
  -17.5019  -31.6267   24.5165 H   0  0  0  0  0  0
  -15.5360  -30.2981   23.7665 H   0  0  0  0  0  0
  -15.8683  -28.0816   22.7077 H   0  0  0  0  0  0
  -24.5904  -30.7099   25.7792 H   0  0  0  0  0  0
  -24.8914  -32.2928   26.4861 H   0  0  0  0  0  0
  -25.8023  -30.8946   27.0264 H   0  0  0  0  0  0
  -26.2959  -29.6732   24.1275 H   0  0  0  0  0  0
  -27.3982  -29.7257   25.4827 H   0  0  0  0  0  0
  -27.8871  -30.4236   23.9581 H   0  0  0  0  0  0
  -27.2681  -33.3638   26.2083 H   0  0  0  0  0  0
  -28.3891  -32.6864   25.0363 H   0  0  0  0  0  0
  -28.0725  -31.8466   26.5465 H   0  0  0  0  0  0
  -28.2593  -38.0100   24.7508 H   0  0  0  0  0  0
  -28.1083  -36.2630   24.6292 H   0  0  0  0  0  0
  -27.2299  -37.1451   25.8866 H   0  0  0  0  0  0
  -20.9406  -29.8800   21.6872 H   0  0  0  0  0  0
  -26.0171  -38.2844   24.1403 H   0  0  0  0  0  0
  -29.6956  -21.3415   22.6626 H   0  0  0  0  0  0
  -27.7606  -18.3857   21.5656 H   0  0  0  0  0  0
  -27.9981  -18.1167   19.8703 H   0  0  0  0  0  0
  -30.1732  -18.6039   18.7991 H   0  0  0  0  0  0
  -31.4891  -19.2708   19.7163 H   0  0  0  0  0  0
  -28.1200  -15.9473   20.9253 H   0  0  0  0  0  0
  -29.1529  -16.4974   22.2072 H   0  0  0  0  0  0
  -31.8343  -17.2369   20.9724 H   0  0  0  0  0  0
  -31.7686  -16.8639   19.2744 H   0  0  0  0  0  0
  -30.1239  -19.1411   21.7810 H   0  0  0  0  0  0
  -29.5756  -23.6122   23.5137 H   0  0  0  0  0  0
  -28.0353  -24.2807   22.9650 H   0  0  0  0  0  0
  -29.5568  -24.9569   22.3726 H   0  0  0  0  0  0
  -26.8679  -24.6809   20.3535 H   0  0  0  0  0  0
  -27.6678  -24.8328   18.8013 H   0  0  0  0  0  0
  1 25  1  0  0  0
  1 30  2  0  0  0
  1 84  1  0  0  0
  2  3  1  0  0  0
  2 25  1  0  0  0
  2 85  1  0  0  0
  2 86  1  0  0  0
  3  4  1  0  0  0
  3 87  1  0  0  0
  3 88  1  0  0  0
  4  5  1  0  0  0
  4 89  1  0  0  0
  4 90  1  0  0  0
  5  6  1  0  0  0
  5 26  1  0  0  0
  5 91  1  0  0  0
  6 25  1  0  0  0
  6 92  1  0  0  0
  6 93  1  0  0  0
  7  8  2  0  0  0
  7 26  1  0  0  0
  7 29  1  0  0  0
  8  9  1  0  0  0
  8 22  1  0  0  0
  9 10  1  0  0  0
  9 27  2  0  0  0
 10 11  2  0  0  0
 10 15  1  0  0  0
 11 12  1  0  0  0
 11 94  1  0  0  0
 12 13  2  0  0  0
 12 95  1  0  0  0
 13 14  1  0  0  0
 13 31  1  0  0  0
 14 15  2  0  0  0
 14 96  1  0  0  0
 15 97  1  0  0  0
 16 17  2  0  0  0
 16 21  1  0  0  0
 16 31  1  0  0  0
 17 18  1  0  0  0
 17 98  1  0  0  0
 18 19  2  0  0  0
 18 99  1  0  0  0
 19 20  1  0  0  0
 19 24  1  0  0  0
 20 21  2  0  0  0
 20100  1  0  0  0
 21 23  1  0  0  0
 22 28  1  0  0  0
 22 32  2  0  0  0
 26 27  1  0  0  0
 28101  1  0  0  0
 28102  1  0  0  0
 29103  1  0  0  0
 29104  1  0  0  0
 33 34  1  0  0  0
 33 66  1  0  0  0
 33 70  2  0  0  0
 34 36  1  0  0  0
 34 59  1  0  0  0
 34105  1  0  0  0
 35 44  2  0  0  0
 35 45  1  0  0  0
 35 68  1  0  0  0
 36 56  1  0  0  0
 36106  1  0  0  0
 37 39  1  0  0  0
 37 47  1  0  0  0
 37 66  1  0  0  0
 37107  1  0  0  0
 38 43  2  0  0  0
 38 46  1  0  0  0
 38 47  1  0  0  0
 39 64  1  0  0  0
 39 67  2  0  0  0
 40 52  1  0  0  0
 40 53  2  0  0  0
 40 58  1  0  0  0
 41108  1  0  0  0
 41109  1  0  0  0
 41110  1  0  0  0
 41 48  1  0  0  0
 42 43  1  0  0  0
 42 66  1  0  0  0
 42111  1  0  0  0
 42112  1  0  0  0
 43 44  1  0  0  0
 44113  1  0  0  0
 45 46  2  0  0  0
 45114  1  0  0  0
 46115  1  0  0  0
 47116  1  0  0  0
 47117  1  0  0  0
 48 56  1  0  0  0
 48 65  1  0  0  0
 48118  1  0  0  0
 49 50  1  0  0  0
 49 53  1  0  0  0
 49 64  1  0  0  0
 49119  1  0  0  0
 50 51  1  0  0  0
 50120  1  0  0  0
 50121  1  0  0  0
 51 52  1  0  0  0
 51122  1  0  0  0
 51123  1  0  0  0
 52124  1  0  0  0
 52125  1  0  0  0
 53 54  1  0  0  0
 54 55  2  0  0  0
 54126  1  0  0  0
 55 57  1  0  0  0
 55127  1  0  0  0
 56 69  2  0  0  0
 57 58  2  0  0  0
 57128  1  0  0  0
 58129  1  0  0  0
 59 60  1  0  0  0
 59 61  1  0  0  0
 59 62  1  0  0  0
 60130  1  0  0  0
 60131  1  0  0  0
 60132  1  0  0  0
 61133  1  0  0  0
 61134  1  0  0  0
 61135  1  0  0  0
 62136  1  0  0  0
 62137  1  0  0  0
 62138  1  0  0  0
 63 65  1  0  0  0
 63139  1  0  0  0
 63140  1  0  0  0
 63141  1  0  0  0
 64142  1  0  0  0
 65143  1  0  0  0
 68 81  1  0  0  0
 71 72  2  0  0  0
 71 73  1  0  0  0
 71144  1  0  0  0
 72 74  1  0  0  0
 72 80  1  0  0  0
 73 82  2  0  0  0
 73 79  1  0  0  0
 74 81  1  0  0  0
 74 83  2  0  0  0
 75 77  1  0  0  0
 75 79  1  0  0  0
 75145  1  0  0  0
 75146  1  0  0  0
 76 78  1  0  0  0
 76 79  1  0  0  0
 76147  1  0  0  0
 76148  1  0  0  0
 77 84  1  0  0  0
 77149  1  0  0  0
 77150  1  0  0  0
 78 84  1  0  0  0
 78151  1  0  0  0
 78152  1  0  0  0
 79153  1  0  0  0
 80154  1  0  0  0
 80155  1  0  0  0
 80156  1  0  0  0
 81157  1  0  0  0
 81158  1  0  0  0
 82 83  1  0  0  0
M  ISO  4   1 100  68 101  81 101  84 100
M  END
> <chiral flag>
0

> <version>
0

> <s_m_source_file>
/data/baiqing/PycharmProjects/Reinvent-master-3.2/result/LINK_invent/BTK/process_docking_weight1_custom_sum_contain_oxygen_bond_distance_aromatic_linkinvent_7_9_3/rearranged_h_0172.sdf

> <i_m_source_file_index>
52

> <r_mmod_Potential_Energy-OPLS-2005>
508.574127197266

> <r_mmod_Stretch_Energy-OPLS-2005>
127.15128326416

> <r_mmod_Bend_Energy-OPLS-2005>
229.325698852539

> <r_mmod_Torsional_Energy-OPLS-2005>
296.883697509766

> <r_mmod_Improper_Torsional_Energy-OPLS-2005>
14.4175100326538

> <r_mmod_Van_der_Waal_Energy-OPLS-2005>
161.471740722656

> <r_mmod_Electrostatic_Energy-OPLS-2005>
-205.913192749023

> <r_mmod_Solvation_Energy-OPLS-2005>
-221.207244873047

> <b_mmod_Minimization_Converged-OPLS-2005>
0

> <r_mmod_RMS_Derivative-OPLS-2005>
0.328303396701813

$$$$
52
                    3D
 Structure written by MMmdl.
170180  0  0  1  0            999 V2000
  -30.6736  -14.5664   20.5628 C   0  0  0  0  0  0
  -30.4304  -12.3718   19.4302 C   0  0  0  0  0  0
  -29.4975  -12.5121   18.2098 C   0  0  0  0  0  0
  -28.0204  -12.3536   18.6240 C   0  0  0  0  0  0
  -27.6507  -13.2168   19.8606 C   0  0  2  0  0  0
  -28.6949  -13.0519   20.9845 C   0  0  0  0  0  0
  -25.2534  -13.8177   20.5682 C   0  0  0  0  0  0
  -24.1806  -13.0437   20.9216 C   0  0  0  0  0  0
  -24.6379  -11.6913   20.8757 C   0  0  0  0  0  0
  -23.9050  -10.4295   21.0413 C   0  0  0  0  0  0
  -24.3621   -9.4207   21.9177 C   0  0  0  0  0  0
  -23.6315   -8.2232   22.0736 C   0  0  0  0  0  0
  -22.4288   -8.0280   21.3538 C   0  0  0  0  0  0
  -21.9920   -9.0248   20.4632 C   0  0  0  0  0  0
  -22.7229  -10.2135   20.3051 C   0  0  0  0  0  0
  -21.6852   -6.0751   22.5290 C   0  0  0  0  0  0
  -21.4003   -6.5646   23.8226 C   0  0  0  0  0  0
  -21.3668   -5.6789   24.9185 C   0  0  0  0  0  0
  -21.6051   -4.3054   24.7225 C   0  0  0  0  0  0
  -21.8818   -3.8154   23.4340 C   0  0  0  0  0  0
  -21.9189   -4.6979   22.3402 C   0  0  0  0  0  0
  -22.7826  -13.5229   21.1888 C   0  0  0  0  0  0
  -22.1657   -4.2164   21.0981 F   0  0  0  0  0  0
  -21.5639   -3.4536   25.7737 F   0  0  0  0  0  0
  -30.0117  -13.3811   20.4175 N   0  0  0  0  0  0
  -26.2968  -12.9358   20.3319 N   0  0  0  0  0  0
  -25.9304  -11.6512   20.5760 N   0  0  0  0  0  0
  -22.0470  -12.8220   22.0450 N   0  0  0  0  0  0
  -25.4215  -15.1893   20.4070 N   0  0  0  0  0  0
  -31.8442  -14.6974   20.2090 O   0  0  0  0  0  0
  -21.6640   -6.8888   21.4245 O   0  0  0  0  0  0
  -22.3511  -14.5534   20.6740 O   0  0  0  0  0  0
  -24.6198  -31.8645   23.2045 C   0  0  0  0  0  0
  -25.9074  -32.4808   23.8355 C   0  0  1  0  0  0
  -27.2304  -27.3867   20.1201 C   0  0  0  0  0  0
  -25.5925  -33.8604   24.2298 N   0  0  0  0  0  0
  -23.4106  -30.4876   21.5452 C   0  0  2  0  0  0
  -24.8589  -28.9442   20.1142 C   0  0  0  0  0  0
  -22.7445  -29.4652   22.4950 C   0  0  0  0  0  0
  -18.0288  -28.1398   22.8503 C   0  0  0  0  0  0
  -24.1494  -36.7290   23.2632 C   0  0  0  0  0  0
  -25.9426  -30.8178   21.3618 C   0  0  0  0  0  0
  -26.0215  -29.4469   20.7129 C   0  0  0  0  0  0
  -27.2143  -28.6778   20.7079 C   0  0  0  0  0  0
  -26.0532  -26.9074   19.5107 C   0  0  0  0  0  0
  -24.8710  -27.6753   19.5080 C   0  0  0  0  0  0
  -23.6228  -29.8177   20.1613 C   0  0  0  0  0  0
  -25.4116  -36.3092   24.0327 C   0  0  1  0  0  0
  -20.5884  -28.3688   23.1314 C   0  0  2  0  0  0
  -20.6779  -26.9417   22.5421 C   0  0  0  0  0  0
  -19.5751  -26.6397   21.5228 C   0  0  0  0  0  0
  -18.1927  -26.7943   22.1636 C   0  0  0  0  0  0
  -19.1538  -28.8856   23.2913 C   0  0  0  0  0  0
  -18.9456  -30.1458   23.8931 C   0  0  0  0  0  0
  -17.6457  -30.6600   24.0577 C   0  0  0  0  0  0
  -25.9049  -34.9466   23.5100 C   0  0  0  0  0  0
  -16.5352  -29.9104   23.6323 C   0  0  0  0  0  0
  -16.7273  -28.6522   23.0344 C   0  0  0  0  0  0
  -26.4466  -31.6601   25.0701 C   0  0  0  0  0  0
  -25.3715  -31.3708   26.1440 C   0  0  0  0  0  0
  -27.0276  -30.3043   24.6073 C   0  0  0  0  0  0
  -27.6058  -32.4304   25.7463 C   0  0  0  0  0  0
  -27.5570  -37.1798   24.8462 C   0  0  0  0  0  0
  -21.4161  -29.3050   22.3702 N   0  0  0  0  0  0
  -26.4290  -37.3785   23.9406 N   0  0  0  0  0  0
  -24.6761  -31.0720   22.0961 N   0  0  0  0  0  0
  -23.4195  -28.8194   23.3005 O   0  0  0  0  0  0
  -28.3627  -26.5901   20.1300 O   0  0  0  0  0  0
  -26.5606  -34.8921   22.4662 O   0  0  0  0  0  0
  -23.5380  -32.1419   23.7432 O   0  0  0  0  0  0
  -32.3586  -19.5589   19.7075 C   0  0  0  0  0  0
  -29.7720  -19.2517   20.6678 C   0  0  0  0  0  0
  -32.0365  -18.3787   20.4013 C   0  0  0  0  0  0
  -30.1183  -20.4953   20.0347 C   0  0  0  0  0  0
  -31.4310  -20.5939   19.4984 C   0  0  0  0  0  0
  -30.7028  -18.1722   20.8428 C   0  0  0  0  0  0
  -33.6399  -17.0296   22.0264 C   0  0  0  0  0  0
  -34.4983  -17.9150   21.1656 C   0  0  0  0  0  0
  -27.7765  -21.5738   20.6325 C   0  0  0  0  0  0
  -27.1590  -22.9954   20.6540 C   0  0  0  0  0  0
  -29.5239  -23.1308   20.2013 C   0  0  0  0  0  0
  -33.1668  -17.4158   20.6402 C   0  0  0  0  0  0
  -29.0941  -21.6704   19.8481 C   0  0  1  0  0  0
  -28.2327  -23.9943   20.1586 C   0  0  2  0  0  0
  -31.9148  -21.7798   18.6809 C   0  0  0  0  0  0
  -30.3189  -16.8928   21.6493 C   0  0  0  0  0  0
  -28.2707  -25.3724   20.9213 C   0  0  0  0  0  0
  -29.9242  -15.6178   20.9848 N   0  0  0  0  0  0
  -31.4697  -12.4997   19.1233 H   0  0  0  0  0  0
  -30.3636  -11.3718   19.8613 H   0  0  0  0  0  0
  -29.7563  -11.7724   17.4512 H   0  0  0  0  0  0
  -29.6433  -13.4894   17.7464 H   0  0  0  0  0  0
  -27.8490  -11.2998   18.8420 H   0  0  0  0  0  0
  -27.3679  -12.5955   17.7847 H   0  0  0  0  0  0
  -27.6733  -14.2564   19.5333 H   0  0  0  0  0  0
  -28.6965  -12.0253   21.3541 H   0  0  0  0  0  0
  -28.4458  -13.6776   21.8438 H   0  0  0  0  0  0
  -25.2768   -9.5689   22.4751 H   0  0  0  0  0  0
  -24.0041   -7.4610   22.7437 H   0  0  0  0  0  0
  -21.0861   -8.8752   19.8934 H   0  0  0  0  0  0
  -22.3680  -10.9678   19.6169 H   0  0  0  0  0  0
  -21.1973   -7.6149   23.9734 H   0  0  0  0  0  0
  -21.1504   -6.0517   25.9091 H   0  0  0  0  0  0
  -22.0588   -2.7617   23.2833 H   0  0  0  0  0  0
  -22.4102  -11.9908   22.4879 H   0  0  0  0  0  0
  -21.1070  -13.1210   22.2621 H   0  0  0  0  0  0
  -24.6468  -15.8384   20.4961 H   0  0  0  0  0  0
  -26.2649  -15.6289   20.0601 H   0  0  0  0  0  0
  -26.7146  -32.5498   23.1118 H   0  0  0  0  0  0
  -25.0107  -33.9767   25.0464 H   0  0  0  0  0  0
  -22.7015  -31.3054   21.4024 H   0  0  0  0  0  0
  -23.3753  -35.9625   23.3319 H   0  0  0  0  0  0
  -24.3585  -36.8891   22.2039 H   0  0  0  0  0  0
  -23.7253  -37.6502   23.6640 H   0  0  0  0  0  0
  -26.0542  -31.5806   20.5899 H   0  0  0  0  0  0
  -26.8300  -30.8787   21.9788 H   0  0  0  0  0  0
  -28.1108  -29.0580   21.1789 H   0  0  0  0  0  0
  -26.0450  -25.9315   19.0454 H   0  0  0  0  0  0
  -23.9760  -27.2809   19.0455 H   0  0  0  0  0  0
  -23.7351  -30.5912   19.4003 H   0  0  0  0  0  0
  -22.7455  -29.2405   19.8634 H   0  0  0  0  0  0
  -25.1297  -36.1937   25.0815 H   0  0  0  0  0  0
  -20.9991  -28.3258   24.1434 H   0  0  0  0  0  0
  -20.5703  -26.2289   23.3610 H   0  0  0  0  0  0
  -21.6641  -26.7472   22.1194 H   0  0  0  0  0  0
  -19.6908  -25.6310   21.1246 H   0  0  0  0  0  0
  -19.6691  -27.3225   20.6770 H   0  0  0  0  0  0
  -17.4201  -26.6719   21.4029 H   0  0  0  0  0  0
  -18.0312  -26.0081   22.9021 H   0  0  0  0  0  0
  -19.7925  -30.7267   24.2321 H   0  0  0  0  0  0
  -17.5010  -31.6285   24.5171 H   0  0  0  0  0  0
  -15.5353  -30.3017   23.7628 H   0  0  0  0  0  0
  -15.8678  -28.0857   22.7031 H   0  0  0  0  0  0
  -24.5948  -30.6984   25.7772 H   0  0  0  0  0  0
  -24.8816  -32.2849   26.4807 H   0  0  0  0  0  0
  -25.8059  -30.8947   27.0243 H   0  0  0  0  0  0
  -26.2810  -29.6843   24.1099 H   0  0  0  0  0  0
  -27.4021  -29.7243   25.4516 H   0  0  0  0  0  0
  -27.8659  -30.4358   23.9229 H   0  0  0  0  0  0
  -27.2721  -33.3637   26.2011 H   0  0  0  0  0  0
  -28.3883  -32.6815   25.0287 H   0  0  0  0  0  0
  -28.0708  -31.8433   26.5395 H   0  0  0  0  0  0
  -28.2598  -38.0084   24.7516 H   0  0  0  0  0  0
  -28.1060  -36.2620   24.6295 H   0  0  0  0  0  0
  -27.2287  -37.1461   25.8864 H   0  0  0  0  0  0
  -20.9325  -29.8789   21.6935 H   0  0  0  0  0  0
  -26.0168  -38.2855   24.1428 H   0  0  0  0  0  0
  -33.3661  -19.6829   19.3359 H   0  0  0  0  0  0
  -28.7721  -19.1211   21.0532 H   0  0  0  0  0  0
  -33.1740  -17.5020   22.8878 H   0  0  0  0  0  0
  -33.9702  -16.0033   22.1749 H   0  0  0  0  0  0
  -35.4049  -17.4738   20.7570 H   0  0  0  0  0  0
  -34.5840  -18.9532   21.4810 H   0  0  0  0  0  0
  -27.0998  -20.8286   20.2110 H   0  0  0  0  0  0
  -27.9852  -21.2734   21.6611 H   0  0  0  0  0  0
  -26.8178  -23.2309   21.6633 H   0  0  0  0  0  0
  -26.2789  -23.0449   20.0108 H   0  0  0  0  0  0
  -30.2554  -23.5564   19.5223 H   0  0  0  0  0  0
  -29.9585  -23.1485   21.2022 H   0  0  0  0  0  0
  -33.2333  -16.6967   19.8286 H   0  0  0  0  0  0
  -28.8308  -21.6639   18.7893 H   0  0  0  0  0  0
  -28.0088  -24.2056   19.1115 H   0  0  0  0  0  0
  -32.2389  -22.5843   19.3402 H   0  0  0  0  0  0
  -31.1456  -22.1467   18.0018 H   0  0  0  0  0  0
  -32.7733  -21.5124   18.0627 H   0  0  0  0  0  0
  -29.4730  -17.1702   22.2795 H   0  0  0  0  0  0
  -31.0996  -16.6669   22.3715 H   0  0  0  0  0  0
  -29.1355  -25.3750   21.5851 H   0  0  0  0  0  0
  -27.4181  -25.4406   21.5998 H   0  0  0  0  0  0
  -28.9464  -15.3918   21.0869 H   0  0  0  0  0  0
  1 25  1  0  0  0
  1 30  2  0  0  0
  1 88  1  0  0  0
  2  3  1  0  0  0
  2 25  1  0  0  0
  2 89  1  0  0  0
  2 90  1  0  0  0
  3  4  1  0  0  0
  3 91  1  0  0  0
  3 92  1  0  0  0
  4  5  1  0  0  0
  4 93  1  0  0  0
  4 94  1  0  0  0
  5  6  1  0  0  0
  5 26  1  0  0  0
  5 95  1  0  0  0
  6 25  1  0  0  0
  6 96  1  0  0  0
  6 97  1  0  0  0
  7  8  2  0  0  0
  7 26  1  0  0  0
  7 29  1  0  0  0
  8  9  1  0  0  0
  8 22  1  0  0  0
  9 10  1  0  0  0
  9 27  2  0  0  0
 10 11  2  0  0  0
 10 15  1  0  0  0
 11 12  1  0  0  0
 11 98  1  0  0  0
 12 13  2  0  0  0
 12 99  1  0  0  0
 13 14  1  0  0  0
 13 31  1  0  0  0
 14 15  2  0  0  0
 14100  1  0  0  0
 15101  1  0  0  0
 16 17  2  0  0  0
 16 21  1  0  0  0
 16 31  1  0  0  0
 17 18  1  0  0  0
 17102  1  0  0  0
 18 19  2  0  0  0
 18103  1  0  0  0
 19 20  1  0  0  0
 19 24  1  0  0  0
 20 21  2  0  0  0
 20104  1  0  0  0
 21 23  1  0  0  0
 22 28  1  0  0  0
 22 32  2  0  0  0
 26 27  1  0  0  0
 28105  1  0  0  0
 28106  1  0  0  0
 29107  1  0  0  0
 29108  1  0  0  0
 33 34  1  0  0  0
 33 66  1  0  0  0
 33 70  2  0  0  0
 34 36  1  0  0  0
 34 59  1  0  0  0
 34109  1  0  0  0
 35 44  2  0  0  0
 35 45  1  0  0  0
 35 68  1  0  0  0
 36 56  1  0  0  0
 36110  1  0  0  0
 37 39  1  0  0  0
 37 47  1  0  0  0
 37 66  1  0  0  0
 37111  1  0  0  0
 38 43  2  0  0  0
 38 46  1  0  0  0
 38 47  1  0  0  0
 39 64  1  0  0  0
 39 67  2  0  0  0
 40 52  1  0  0  0
 40 53  2  0  0  0
 40 58  1  0  0  0
 41112  1  0  0  0
 41113  1  0  0  0
 41114  1  0  0  0
 41 48  1  0  0  0
 42 43  1  0  0  0
 42 66  1  0  0  0
 42115  1  0  0  0
 42116  1  0  0  0
 43 44  1  0  0  0
 44117  1  0  0  0
 45 46  2  0  0  0
 45118  1  0  0  0
 46119  1  0  0  0
 47120  1  0  0  0
 47121  1  0  0  0
 48 56  1  0  0  0
 48 65  1  0  0  0
 48122  1  0  0  0
 49 50  1  0  0  0
 49 53  1  0  0  0
 49 64  1  0  0  0
 49123  1  0  0  0
 50 51  1  0  0  0
 50124  1  0  0  0
 50125  1  0  0  0
 51 52  1  0  0  0
 51126  1  0  0  0
 51127  1  0  0  0
 52128  1  0  0  0
 52129  1  0  0  0
 53 54  1  0  0  0
 54 55  2  0  0  0
 54130  1  0  0  0
 55 57  1  0  0  0
 55131  1  0  0  0
 56 69  2  0  0  0
 57 58  2  0  0  0
 57132  1  0  0  0
 58133  1  0  0  0
 59 60  1  0  0  0
 59 61  1  0  0  0
 59 62  1  0  0  0
 60134  1  0  0  0
 60135  1  0  0  0
 60136  1  0  0  0
 61137  1  0  0  0
 61138  1  0  0  0
 61139  1  0  0  0
 62140  1  0  0  0
 62141  1  0  0  0
 62142  1  0  0  0
 63 65  1  0  0  0
 63143  1  0  0  0
 63144  1  0  0  0
 63145  1  0  0  0
 64146  1  0  0  0
 65147  1  0  0  0
 68 87  1  0  0  0
 71 73  2  0  0  0
 71 75  1  0  0  0
 71148  1  0  0  0
 72 74  1  0  0  0
 72 76  2  0  0  0
 72149  1  0  0  0
 73 76  1  0  0  0
 73 82  1  0  0  0
 74 75  2  0  0  0
 74 83  1  0  0  0
 75 85  1  0  0  0
 76 86  1  0  0  0
 77 78  1  0  0  0
 77 82  1  0  0  0
 77150  1  0  0  0
 77151  1  0  0  0
 78 82  1  0  0  0
 78152  1  0  0  0
 78153  1  0  0  0
 79 80  1  0  0  0
 79 83  1  0  0  0
 79154  1  0  0  0
 79155  1  0  0  0
 80 84  1  0  0  0
 80156  1  0  0  0
 80157  1  0  0  0
 81 83  1  0  0  0
 81 84  1  0  0  0
 81158  1  0  0  0
 81159  1  0  0  0
 82160  1  0  0  0
 83161  1  0  0  0
 84 87  1  0  0  0
 84162  1  0  0  0
 85163  1  0  0  0
 85164  1  0  0  0
 85165  1  0  0  0
 86 88  1  0  0  0
 86166  1  0  0  0
 86167  1  0  0  0
 87168  1  0  0  0
 87169  1  0  0  0
 88170  1  0  0  0
M  ISO  4   1 100  68 101  87 101  88 100
M  END
> <chiral flag>
0

> <version>
0

> <s_m_source_file>
/data/baiqing/PycharmProjects/Reinvent-master-3.2/result/LINK_invent/BTK/process_docking_weight1_custom_sum_contain_oxygen_bond_distance_aromatic_linkinvent_7_9_3/rearranged_h_0172.sdf

> <i_m_source_file_index>
53

> <r_mmod_Potential_Energy-OPLS-2005>
90.9194641113281

> <r_mmod_Stretch_Energy-OPLS-2005>
58.941577911377

> <r_mmod_Bend_Energy-OPLS-2005>
158.235137939453

> <r_mmod_Torsional_Energy-OPLS-2005>
319.653015136719

> <r_mmod_Improper_Torsional_Energy-OPLS-2005>
4.62865018844604

> <r_mmod_Van_der_Waal_Energy-OPLS-2005>
143.734802246094

> <r_mmod_Electrostatic_Energy-OPLS-2005>
-420.669219970703

> <r_mmod_Solvation_Energy-OPLS-2005>
-202.052276611328

> <b_mmod_Minimization_Converged-OPLS-2005>
0

> <r_mmod_RMS_Derivative-OPLS-2005>
2.27208590507507

$$$$
53
                    3D
 Structure written by MMmdl.
174184  0  0  1  0            999 V2000
  -30.7252  -14.4620   20.6144 C   0  0  0  0  0  0
  -30.4163  -12.3192   19.4185 C   0  0  0  0  0  0
  -29.4881  -12.5149   18.2032 C   0  0  0  0  0  0
  -28.0128  -12.3538   18.6173 C   0  0  0  0  0  0
  -27.6570  -13.1941   19.8704 C   0  0  2  0  0  0
  -28.6985  -12.9844   20.9936 C   0  0  0  0  0  0
  -25.2584  -13.8126   20.5669 C   0  0  0  0  0  0
  -24.1833  -13.0414   20.9181 C   0  0  0  0  0  0
  -24.6368  -11.6875   20.8717 C   0  0  0  0  0  0
  -23.9033  -10.4268   21.0397 C   0  0  0  0  0  0
  -24.3588   -9.4196   21.9181 C   0  0  0  0  0  0
  -23.6270   -8.2227   22.0752 C   0  0  0  0  0  0
  -22.4260   -8.0262   21.3537 C   0  0  0  0  0  0
  -21.9890   -9.0228   20.4635 C   0  0  0  0  0  0
  -22.7207  -10.2110   20.3044 C   0  0  0  0  0  0
  -21.6843   -6.0719   22.5273 C   0  0  0  0  0  0
  -21.4010   -6.5628   23.8203 C   0  0  0  0  0  0
  -21.3656   -5.6787   24.9169 C   0  0  0  0  0  0
  -21.6049   -4.3052   24.7226 C   0  0  0  0  0  0
  -21.8815   -3.8138   23.4348 C   0  0  0  0  0  0
  -21.9187   -4.6950   22.3399 C   0  0  0  0  0  0
  -22.7863  -13.5227   21.1849 C   0  0  0  0  0  0
  -22.1658   -4.2141   21.0977 F   0  0  0  0  0  0
  -21.5629   -3.4539   25.7741 F   0  0  0  0  0  0
  -30.0303  -13.2989   20.4503 N   0  0  0  0  0  0
  -26.2992  -12.9261   20.3335 N   0  0  0  0  0  0
  -25.9288  -11.6433   20.5743 N   0  0  0  0  0  0
  -22.0498  -12.8208   22.0383 N   0  0  0  0  0  0
  -25.4310  -15.1842   20.4056 N   0  0  0  0  0  0
  -31.8165  -14.6525   20.0683 O   0  0  0  0  0  0
  -21.6622   -6.8867   21.4239 O   0  0  0  0  0  0
  -22.3563  -14.5549   20.6715 O   0  0  0  0  0  0
  -24.6090  -31.8674   23.2082 C   0  0  0  0  0  0
  -25.8992  -32.4820   23.8374 C   0  0  1  0  0  0
  -27.2515  -27.4435   20.1125 C   0  0  0  0  0  0
  -25.5858  -33.8621   24.2311 N   0  0  0  0  0  0
  -23.3987  -30.4844   21.5473 C   0  0  2  0  0  0
  -24.8534  -28.9491   20.1078 C   0  0  0  0  0  0
  -22.7371  -29.4635   22.5000 C   0  0  0  0  0  0
  -18.0249  -28.1387   22.8504 C   0  0  0  0  0  0
  -24.1485  -36.7314   23.2633 C   0  0  0  0  0  0
  -25.9214  -30.8345   21.3606 C   0  0  0  0  0  0
  -26.0021  -29.4655   20.7169 C   0  0  0  0  0  0
  -27.1947  -28.7107   20.7324 C   0  0  0  0  0  0
  -26.0923  -26.9395   19.4835 C   0  0  0  0  0  0
  -24.8930  -27.6846   19.4883 C   0  0  0  0  0  0
  -23.6066  -29.8068   20.1627 C   0  0  0  0  0  0
  -25.4103  -36.3116   24.0335 C   0  0  1  0  0  0
  -20.5829  -28.3657   23.1347 C   0  0  2  0  0  0
  -20.6738  -26.9394   22.5456 C   0  0  0  0  0  0
  -19.5736  -26.6388   21.5231 C   0  0  0  0  0  0
  -18.1894  -26.7948   22.1604 C   0  0  0  0  0  0
  -19.1498  -28.8838   23.2924 C   0  0  0  0  0  0
  -18.9432  -30.1446   23.8933 C   0  0  0  0  0  0
  -17.6439  -30.6594   24.0573 C   0  0  0  0  0  0
  -25.9037  -34.9477   23.5131 C   0  0  0  0  0  0
  -16.5328  -29.9101   23.6340 C   0  0  0  0  0  0
  -16.7244  -28.6520   23.0364 C   0  0  0  0  0  0
  -26.4434  -31.6577   25.0693 C   0  0  0  0  0  0
  -25.3697  -31.3637   26.1423 C   0  0  0  0  0  0
  -27.0256  -30.3025   24.6035 C   0  0  0  0  0  0
  -27.6021  -32.4269   25.7458 C   0  0  0  0  0  0
  -27.5602  -37.1784   24.8442 C   0  0  0  0  0  0
  -21.4097  -29.3025   22.3753 N   0  0  0  0  0  0
  -26.4285  -37.3811   23.9434 N   0  0  0  0  0  0
  -24.6604  -31.0763   22.0979 N   0  0  0  0  0  0
  -23.4144  -28.8197   23.3052 O   0  0  0  0  0  0
  -28.4213  -26.7215   20.2182 O   0  0  0  0  0  0
  -26.5627  -34.8928   22.4712 O   0  0  0  0  0  0
  -23.5286  -32.1424   23.7486 O   0  0  0  0  0  0
  -27.9221  -21.9124   18.3530 C   0  0  0  0  0  0
  -28.7116  -23.5712   19.9321 C   0  0  0  0  0  0
  -28.5203  -24.5535   18.9130 C   0  0  0  0  0  0
  -28.4276  -22.1990   19.6445 C   0  0  0  0  0  0
  -28.0528  -24.1129   17.6522 C   0  0  0  0  0  0
  -30.3287  -19.9209   21.9570 C   0  0  0  0  0  0
  -30.0771  -20.7655   20.6839 C   0  0  0  0  0  0
  -28.9812  -16.1685   21.3341 C   0  0  0  0  0  0
  -30.9325  -16.5655   21.9859 C   0  0  0  0  0  0
  -27.8019  -19.9674   20.5101 C   0  0  0  0  0  0
  -29.3591  -18.7176   22.1324 C   0  0  2  0  0  0
  -29.8284  -17.4445   21.3827 C   0  0  0  0  0  0
  -27.8969  -19.1643   21.8263 C   0  0  1  0  0  0
  -29.2150  -23.9932   21.3088 C   0  0  0  0  0  0
  -27.9079  -25.0485   16.4637 C   0  0  0  0  0  0
  -28.9387  -26.0276   19.0879 C   0  0  0  0  0  0
  -27.7363  -22.8316   17.3891 N   0  0  0  0  0  0
  -28.6664  -21.1545   20.5783 N   0  0  0  0  0  0
  -30.2197  -15.3830   21.4735 N   0  0  0  0  0  0
  -27.3751  -20.0070   22.9135 N   0  3  0  0  0  0
  -31.4591  -12.4167   19.1142 H   0  0  0  0  0  0
  -30.3206  -11.3064   19.8125 H   0  0  0  0  0  0
  -29.7369  -11.8012   17.4159 H   0  0  0  0  0  0
  -29.6419  -13.5074   17.7759 H   0  0  0  0  0  0
  -27.8344  -11.2964   18.8156 H   0  0  0  0  0  0
  -27.3587  -12.6229   17.7872 H   0  0  0  0  0  0
  -27.6920  -14.2324   19.5521 H   0  0  0  0  0  0
  -28.6815  -11.9474   21.3317 H   0  0  0  0  0  0
  -28.4481  -13.5742   21.8744 H   0  0  0  0  0  0
  -25.2727   -9.5673   22.4764 H   0  0  0  0  0  0
  -23.9969   -7.4626   22.7479 H   0  0  0  0  0  0
  -21.0819   -8.8737   19.8941 H   0  0  0  0  0  0
  -22.3663  -10.9645   19.6150 H   0  0  0  0  0  0
  -21.2007   -7.6136   23.9706 H   0  0  0  0  0  0
  -21.1485   -6.0521   25.9075 H   0  0  0  0  0  0
  -22.0602   -2.7600   23.2850 H   0  0  0  0  0  0
  -22.4102  -11.9835   22.4716 H   0  0  0  0  0  0
  -21.1117  -13.1235   22.2603 H   0  0  0  0  0  0
  -24.6530  -15.8295   20.4847 H   0  0  0  0  0  0
  -26.2646  -15.6093   20.0222 H   0  0  0  0  0  0
  -26.7055  -32.5551   23.1141 H   0  0  0  0  0  0
  -24.9955  -33.9789   25.0416 H   0  0  0  0  0  0
  -22.6868  -31.2999   21.4040 H   0  0  0  0  0  0
  -23.3787  -35.9601   23.3217 H   0  0  0  0  0  0
  -24.3604  -36.9022   22.2068 H   0  0  0  0  0  0
  -23.7166  -37.6462   23.6702 H   0  0  0  0  0  0
  -26.0220  -31.5953   20.5841 H   0  0  0  0  0  0
  -26.8118  -30.9004   21.9723 H   0  0  0  0  0  0
  -28.0741  -29.0960   21.2293 H   0  0  0  0  0  0
  -26.1015  -25.9613   19.0248 H   0  0  0  0  0  0
  -24.0077  -27.2784   19.0185 H   0  0  0  0  0  0
  -23.6951  -30.5766   19.3952 H   0  0  0  0  0  0
  -22.7356  -29.2125   19.8813 H   0  0  0  0  0  0
  -25.1269  -36.1975   25.0825 H   0  0  0  0  0  0
  -20.9922  -28.3239   24.1470 H   0  0  0  0  0  0
  -20.5624  -26.2274   23.3642 H   0  0  0  0  0  0
  -21.6618  -26.7435   22.1271 H   0  0  0  0  0  0
  -19.6905  -25.6303   21.1253 H   0  0  0  0  0  0
  -19.6697  -27.3219   20.6780 H   0  0  0  0  0  0
  -17.4190  -26.6754   21.3968 H   0  0  0  0  0  0
  -18.0237  -26.0055   22.8947 H   0  0  0  0  0  0
  -19.7904  -30.7259   24.2313 H   0  0  0  0  0  0
  -17.4990  -31.6278   24.5168 H   0  0  0  0  0  0
  -15.5342  -30.3019   23.7634 H   0  0  0  0  0  0
  -15.8643  -28.0848   22.7079 H   0  0  0  0  0  0
  -24.5985  -30.6852   25.7759 H   0  0  0  0  0  0
  -24.8742  -32.2750   26.4778 H   0  0  0  0  0  0
  -25.8062  -30.8911   27.0228 H   0  0  0  0  0  0
  -26.2792  -29.6803   24.1085 H   0  0  0  0  0  0
  -27.4038  -29.7229   25.4463 H   0  0  0  0  0  0
  -27.8611  -30.4360   23.9158 H   0  0  0  0  0  0
  -27.2692  -33.3597   26.2016 H   0  0  0  0  0  0
  -28.3856  -32.6763   25.0291 H   0  0  0  0  0  0
  -28.0650  -31.8377   26.5387 H   0  0  0  0  0  0
  -28.2533  -38.0168   24.7628 H   0  0  0  0  0  0
  -28.1179  -36.2709   24.6078 H   0  0  0  0  0  0
  -27.2341  -37.1215   25.8841 H   0  0  0  0  0  0
  -20.9246  -29.8758   21.6989 H   0  0  0  0  0  0
  -26.0171  -38.2867   24.1519 H   0  0  0  0  0  0
  -27.6806  -20.9031   18.0573 H   0  0  0  0  0  0
  -30.2399  -20.5790   22.8219 H   0  0  0  0  0  0
  -31.3634  -19.5754   21.9684 H   0  0  0  0  0  0
  -30.3597  -20.1901   19.7992 H   0  0  0  0  0  0
  -30.7261  -21.6435   20.6920 H   0  0  0  0  0  0
  -28.4626  -16.0686   20.3827 H   0  0  0  0  0  0
  -28.2969  -16.0552   22.1775 H   0  0  0  0  0  0
  -30.9782  -16.5965   23.0766 H   0  0  0  0  0  0
  -31.9182  -16.7520   21.5547 H   0  0  0  0  0  0
  -26.7648  -20.2493   20.3165 H   0  0  0  0  0  0
  -28.1117  -19.3284   19.6804 H   0  0  0  0  0  0
  -29.3908  -18.4565   23.1908 H   0  0  0  0  0  0
  -30.1039  -17.6944   20.3552 H   0  0  0  0  0  0
  -27.2508  -18.2868   21.7658 H   0  0  0  0  0  0
  -28.4742  -24.6282   21.7940 H   0  0  0  0  0  0
  -30.1476  -24.5490   21.2277 H   0  0  0  0  0  0
  -29.3983  -23.1562   21.9797 H   0  0  0  0  0  0
  -28.8643  -25.5161   16.2271 H   0  0  0  0  0  0
  -27.1799  -25.8318   16.6753 H   0  0  0  0  0  0
  -27.5774  -24.5185   15.5709 H   0  0  0  0  0  0
  -28.7536  -26.6411   18.2089 H   0  0  0  0  0  0
  -30.0240  -26.0323   19.1967 H   0  0  0  0  0  0
  -27.8138  -20.9093   22.8393 H   0  0  0  0  0  0
  -27.5655  -19.6043   23.8137 H   0  0  0  0  0  0
  -26.3834  -20.1300   22.8163 H   0  0  0  0  0  0
  1 25  1  0  0  0
  1 30  2  0  0  0
  1 89  1  0  0  0
  2  3  1  0  0  0
  2 25  1  0  0  0
  2 91  1  0  0  0
  2 92  1  0  0  0
  3  4  1  0  0  0
  3 93  1  0  0  0
  3 94  1  0  0  0
  4  5  1  0  0  0
  4 95  1  0  0  0
  4 96  1  0  0  0
  5  6  1  0  0  0
  5 26  1  0  0  0
  5 97  1  0  0  0
  6 25  1  0  0  0
  6 98  1  0  0  0
  6 99  1  0  0  0
  7  8  2  0  0  0
  7 26  1  0  0  0
  7 29  1  0  0  0
  8  9  1  0  0  0
  8 22  1  0  0  0
  9 10  1  0  0  0
  9 27  2  0  0  0
 10 11  2  0  0  0
 10 15  1  0  0  0
 11 12  1  0  0  0
 11100  1  0  0  0
 12 13  2  0  0  0
 12101  1  0  0  0
 13 14  1  0  0  0
 13 31  1  0  0  0
 14 15  2  0  0  0
 14102  1  0  0  0
 15103  1  0  0  0
 16 17  2  0  0  0
 16 21  1  0  0  0
 16 31  1  0  0  0
 17 18  1  0  0  0
 17104  1  0  0  0
 18 19  2  0  0  0
 18105  1  0  0  0
 19 20  1  0  0  0
 19 24  1  0  0  0
 20 21  2  0  0  0
 20106  1  0  0  0
 21 23  1  0  0  0
 22 28  1  0  0  0
 22 32  2  0  0  0
 26 27  1  0  0  0
 28107  1  0  0  0
 28108  1  0  0  0
 29109  1  0  0  0
 29110  1  0  0  0
 33 34  1  0  0  0
 33 66  1  0  0  0
 33 70  2  0  0  0
 34 36  1  0  0  0
 34 59  1  0  0  0
 34111  1  0  0  0
 35 44  2  0  0  0
 35 45  1  0  0  0
 35 68  1  0  0  0
 36 56  1  0  0  0
 36112  1  0  0  0
 37 39  1  0  0  0
 37 47  1  0  0  0
 37 66  1  0  0  0
 37113  1  0  0  0
 38 43  2  0  0  0
 38 46  1  0  0  0
 38 47  1  0  0  0
 39 64  1  0  0  0
 39 67  2  0  0  0
 40 52  1  0  0  0
 40 53  2  0  0  0
 40 58  1  0  0  0
 41114  1  0  0  0
 41115  1  0  0  0
 41116  1  0  0  0
 41 48  1  0  0  0
 42 43  1  0  0  0
 42 66  1  0  0  0
 42117  1  0  0  0
 42118  1  0  0  0
 43 44  1  0  0  0
 44119  1  0  0  0
 45 46  2  0  0  0
 45120  1  0  0  0
 46121  1  0  0  0
 47122  1  0  0  0
 47123  1  0  0  0
 48 56  1  0  0  0
 48 65  1  0  0  0
 48124  1  0  0  0
 49 50  1  0  0  0
 49 53  1  0  0  0
 49 64  1  0  0  0
 49125  1  0  0  0
 50 51  1  0  0  0
 50126  1  0  0  0
 50127  1  0  0  0
 51 52  1  0  0  0
 51128  1  0  0  0
 51129  1  0  0  0
 52130  1  0  0  0
 52131  1  0  0  0
 53 54  1  0  0  0
 54 55  2  0  0  0
 54132  1  0  0  0
 55 57  1  0  0  0
 55133  1  0  0  0
 56 69  2  0  0  0
 57 58  2  0  0  0
 57134  1  0  0  0
 58135  1  0  0  0
 59 60  1  0  0  0
 59 61  1  0  0  0
 59 62  1  0  0  0
 60136  1  0  0  0
 60137  1  0  0  0
 60138  1  0  0  0
 61139  1  0  0  0
 61140  1  0  0  0
 61141  1  0  0  0
 62142  1  0  0  0
 62143  1  0  0  0
 62144  1  0  0  0
 63 65  1  0  0  0
 63145  1  0  0  0
 63146  1  0  0  0
 63147  1  0  0  0
 64148  1  0  0  0
 65149  1  0  0  0
 68 86  1  0  0  0
 71 74  2  0  0  0
 71 87  1  0  0  0
 71150  1  0  0  0
 72 73  2  0  0  0
 72 74  1  0  0  0
 72 84  1  0  0  0
 73 75  1  0  0  0
 73 86  1  0  0  0
 74 88  1  0  0  0
 75 85  1  0  0  0
 75 87  2  0  0  0
 76 77  1  0  0  0
 76151  1  0  0  0
 76152  1  0  0  0
 76 81  1  0  0  0
 77 88  1  0  0  0
 77153  1  0  0  0
 77154  1  0  0  0
 78 89  1  0  0  0
 78155  1  0  0  0
 78156  1  0  0  0
 78 82  1  0  0  0
 79 82  1  0  0  0
 79 89  1  0  0  0
 79157  1  0  0  0
 79158  1  0  0  0
 80 83  1  0  0  0
 80 88  1  0  0  0
 80159  1  0  0  0
 80160  1  0  0  0
 81 82  1  0  0  0
 81 83  1  0  0  0
 81161  1  0  0  0
 82162  1  0  0  0
 83 90  1  0  0  0
 83163  1  0  0  0
 84164  1  0  0  0
 84165  1  0  0  0
 84166  1  0  0  0
 85167  1  0  0  0
 85168  1  0  0  0
 85169  1  0  0  0
 86170  1  0  0  0
 86171  1  0  0  0
 90172  1  0  0  0
 90173  1  0  0  0
 90174  1  0  0  0
M  CHG  1  90   1
M  ISO  4   1 100  68 101  86 101  89 100
M  END
> <chiral flag>
0

> <version>
0

> <s_m_source_file>
/data/baiqing/PycharmProjects/Reinvent-master-3.2/result/LINK_invent/BTK/process_docking_weight1_custom_sum_contain_oxygen_bond_distance_aromatic_linkinvent_7_9_3/rearranged_h_0172.sdf

> <i_m_source_file_index>
54

> <r_mmod_Potential_Energy-OPLS-2005>
-151.947387695312

> <r_mmod_Stretch_Energy-OPLS-2005>
45.9255332946777

> <r_mmod_Bend_Energy-OPLS-2005>
126.303100585938

> <r_mmod_Torsional_Energy-OPLS-2005>
368.444244384766

> <r_mmod_Improper_Torsional_Energy-OPLS-2005>
13.3809261322021

> <r_mmod_Van_der_Waal_Energy-OPLS-2005>
161.977203369141

> <r_mmod_Electrostatic_Energy-OPLS-2005>
-390.828979492188

> <r_mmod_Solvation_Energy-OPLS-2005>
-491.365234375

> <b_mmod_Minimization_Converged-OPLS-2005>
0

> <r_mmod_RMS_Derivative-OPLS-2005>
1.86213028430939

$$$$
54
                    3D
 Structure written by MMmdl.
151160  0  0  1  0            999 V2000
  -30.3543  -15.7483   20.3348 C   0  0  0  0  0  0
  -30.3894  -13.1886   19.5071 C   0  0  0  0  0  0
  -29.5297  -12.6749   18.3185 C   0  0  0  0  0  0
  -28.1254  -12.2907   18.7931 C   0  0  0  0  0  0
  -27.5835  -13.3234   19.8043 C   0  0  2  0  0  0
  -28.5986  -13.7531   20.8963 C   0  0  0  0  0  0
  -25.2297  -13.8321   20.5862 C   0  0  0  0  0  0
  -24.1693  -13.0448   20.9323 C   0  0  0  0  0  0
  -24.6411  -11.6964   20.8786 C   0  0  0  0  0  0
  -23.9125  -10.4301   21.0400 C   0  0  0  0  0  0
  -24.3659   -9.4209   21.9180 C   0  0  0  0  0  0
  -23.6318   -8.2250   22.0753 C   0  0  0  0  0  0
  -22.4294   -8.0299   21.3549 C   0  0  0  0  0  0
  -21.9944   -9.0277   20.4649 C   0  0  0  0  0  0
  -22.7289  -10.2145   20.3055 C   0  0  0  0  0  0
  -21.6864   -6.0744   22.5277 C   0  0  0  0  0  0
  -21.4019   -6.5646   23.8211 C   0  0  0  0  0  0
  -21.3651   -5.6797   24.9171 C   0  0  0  0  0  0
  -21.6039   -4.3061   24.7221 C   0  0  0  0  0  0
  -21.8817   -3.8152   23.4341 C   0  0  0  0  0  0
  -21.9198   -4.6971   22.3398 C   0  0  0  0  0  0
  -22.7701  -13.5162   21.1938 C   0  0  0  0  0  0
  -22.1665   -4.2156   21.0975 F   0  0  0  0  0  0
  -21.5622   -3.4543   25.7729 F   0  0  0  0  0  0
  -29.7325  -14.4134   20.1922 N   0  0  0  0  0  0
  -26.2752  -12.9677   20.3314 N   0  0  0  0  0  0
  -25.9364  -11.6727   20.5737 N   0  0  0  0  0  0
  -22.0372  -12.8132   22.0485 N   0  0  0  0  0  0
  -25.3912  -15.2064   20.4305 N   0  0  0  0  0  0
  -31.5805  -15.5020   20.2698 O   0  0  0  0  0  0
  -21.6655   -6.8895   21.4242 O   0  0  0  0  0  0
  -22.3375  -14.5459   20.6770 O   0  0  0  0  0  0
  -24.6912  -31.7901   23.1437 C   0  0  0  0  0  0
  -25.9448  -32.4418   23.8019 C   0  0  1  0  0  0
  -27.2220  -26.6170   20.2236 C   0  0  0  0  0  0
  -25.5980  -33.8246   24.1898 N   0  0  0  0  0  0
  -23.5207  -30.3884   21.5006 C   0  0  2  0  0  0
  -24.9761  -28.7100   20.1225 C   0  0  0  0  0  0
  -22.7799  -29.4264   22.4694 C   0  0  0  0  0  0
  -18.0342  -28.1421   22.8455 C   0  0  0  0  0  0
  -24.1505  -36.7147   23.2672 C   0  0  0  0  0  0
  -26.1051  -30.4949   21.4201 C   0  0  0  0  0  0
  -26.1679  -29.0500   20.7724 C   0  0  0  0  0  0
  -27.2735  -28.0350   20.7846 C   0  0  0  0  0  0
  -25.9949  -26.5050   19.5173 C   0  0  0  0  0  0
  -24.9333  -27.4643   19.4706 C   0  0  0  0  0  0
  -23.7785  -29.6774   20.1400 C   0  0  0  0  0  0
  -25.4168  -36.2875   24.0275 C   0  0  1  0  0  0
  -20.5981  -28.3785   23.1129 C   0  0  2  0  0  0
  -20.6806  -26.9439   22.5404 C   0  0  0  0  0  0
  -19.5779  -26.6363   21.5221 C   0  0  0  0  0  0
  -18.1964  -26.7944   22.1629 C   0  0  0  0  0  0
  -19.1612  -28.8930   23.2768 C   0  0  0  0  0  0
  -18.9515  -30.1513   23.8815 C   0  0  0  0  0  0
  -17.6504  -30.6603   24.0545 C   0  0  0  0  0  0
  -25.9129  -34.9256   23.4934 C   0  0  0  0  0  0
  -16.5394  -29.9085   23.6347 C   0  0  0  0  0  0
  -16.7322  -28.6507   23.0367 C   0  0  0  0  0  0
  -26.4597  -31.6491   25.0682 C   0  0  0  0  0  0
  -25.3634  -31.3832   26.1279 C   0  0  0  0  0  0
  -27.0542  -30.2819   24.6644 C   0  0  0  0  0  0
  -27.6026  -32.4378   25.7500 C   0  0  0  0  0  0
  -27.5530  -37.1795   24.8512 C   0  0  0  0  0  0
  -21.4442  -29.3019   22.3442 N   0  0  0  0  0  0
  -26.4318  -37.3607   23.9331 N   0  0  0  0  0  0
  -24.7970  -30.9267   22.0736 N   0  0  0  0  0  0
  -23.4210  -28.7879   23.3073 O   0  0  0  0  0  0
  -28.1870  -25.3717   20.2733 O   0  0  0  0  0  0
  -26.5785  -34.8841   22.4565 O   0  0  0  0  0  0
  -23.5914  -32.1011   23.6341 O   0  0  0  0  0  0
  -31.8586  -20.6321   19.7325 C   0  0  0  0  0  0
  -31.7248  -22.0097   19.6584 C   0  0  0  0  0  0
  -30.7554  -19.8239   19.9766 C   0  0  0  0  0  0
  -29.4562  -20.3872   20.1863 C   0  0  0  0  0  0
  -30.5033  -22.6902   19.8247 C   0  0  0  0  0  0
  -29.2314  -22.0772   20.1298 C   0  0  0  0  0  0
  -31.0453  -18.2593   20.0079 C   0  0  0  0  0  0
  -28.8949  -18.6885   20.3872 C   0  0  0  0  0  0
  -30.6654  -24.1940   19.6270 C   0  0  0  0  0  0
  -28.0474  -23.5642   20.2484 C   0  0  0  0  0  0
  -29.9259  -17.2951   20.2374 N   0  0  0  0  0  0
  -31.3701  -13.4417   19.1026 H   0  0  0  0  0  0
  -30.5862  -12.3871   20.2215 H   0  0  0  0  0  0
  -30.0103  -11.8239   17.8341 H   0  0  0  0  0  0
  -29.4558  -13.4591   17.5638 H   0  0  0  0  0  0
  -28.1911  -11.3144   19.2746 H   0  0  0  0  0  0
  -27.4461  -12.1733   17.9477 H   0  0  0  0  0  0
  -27.4128  -14.2120   19.1946 H   0  0  0  0  0  0
  -28.9061  -12.9156   21.5243 H   0  0  0  0  0  0
  -28.1397  -14.4831   21.5644 H   0  0  0  0  0  0
  -25.2794   -9.5677   22.4771 H   0  0  0  0  0  0
  -24.0009   -7.4635   22.7468 H   0  0  0  0  0  0
  -21.0871   -8.8810   19.8960 H   0  0  0  0  0  0
  -22.3741  -10.9692   19.6173 H   0  0  0  0  0  0
  -21.2023   -7.6158   23.9716 H   0  0  0  0  0  0
  -21.1466   -6.0530   25.9073 H   0  0  0  0  0  0
  -22.0603   -2.7617   23.2851 H   0  0  0  0  0  0
  -22.4021  -11.9809   22.4873 H   0  0  0  0  0  0
  -21.0974  -13.1120   22.2674 H   0  0  0  0  0  0
  -24.6252  -15.8602   20.5518 H   0  0  0  0  0  0
  -26.2462  -15.6507   20.1206 H   0  0  0  0  0  0
  -26.7542  -32.4866   23.0739 H   0  0  0  0  0  0
  -24.9992  -33.9269   24.9957 H   0  0  0  0  0  0
  -22.8509  -31.2277   21.3029 H   0  0  0  0  0  0
  -23.3705  -35.9558   23.3485 H   0  0  0  0  0  0
  -24.3503  -36.8648   22.2051 H   0  0  0  0  0  0
  -23.7385  -37.6426   23.6650 H   0  0  0  0  0  0
  -26.3181  -31.2131   20.6272 H   0  0  0  0  0  0
  -26.9528  -30.5647   22.0890 H   0  0  0  0  0  0
  -28.1726  -28.3063   21.3194 H   0  0  0  0  0  0
  -25.8142  -25.5679   19.0101 H   0  0  0  0  0  0
  -24.0345  -27.1936   18.9335 H   0  0  0  0  0  0
  -23.9633  -30.4323   19.3750 H   0  0  0  0  0  0
  -22.8806  -29.1497   19.8139 H   0  0  0  0  0  0
  -25.1414  -36.1666   25.0776 H   0  0  0  0  0  0
  -21.0061  -28.3412   24.1256 H   0  0  0  0  0  0
  -20.5661  -26.2412   23.3672 H   0  0  0  0  0  0
  -21.6665  -26.7368   22.1224 H   0  0  0  0  0  0
  -19.6932  -25.6253   21.1303 H   0  0  0  0  0  0
  -19.6715  -27.3126   20.6713 H   0  0  0  0  0  0
  -17.4229  -26.6678   21.4037 H   0  0  0  0  0  0
  -18.0354  -26.0106   22.9044 H   0  0  0  0  0  0
  -19.7991  -30.7348   24.2150 H   0  0  0  0  0  0
  -17.5056  -31.6274   24.5164 H   0  0  0  0  0  0
  -15.5392  -30.2963   23.7715 H   0  0  0  0  0  0
  -15.8722  -28.0797   22.7131 H   0  0  0  0  0  0
  -24.5827  -30.7185   25.7563 H   0  0  0  0  0  0
  -24.8817  -32.3064   26.4509 H   0  0  0  0  0  0
  -25.7781  -30.9104   27.0191 H   0  0  0  0  0  0
  -26.3269  -29.6401   24.1662 H   0  0  0  0  0  0
  -27.3959  -29.7311   25.5420 H   0  0  0  0  0  0
  -27.9257  -30.3927   24.0189 H   0  0  0  0  0  0
  -27.2543  -33.3746   26.1866 H   0  0  0  0  0  0
  -28.3936  -32.6843   25.0402 H   0  0  0  0  0  0
  -28.0591  -31.8659   26.5590 H   0  0  0  0  0  0
  -28.2722  -37.9899   24.7242 H   0  0  0  0  0  0
  -28.0843  -36.2422   24.6786 H   0  0  0  0  0  0
  -27.2177  -37.1969   25.8897 H   0  0  0  0  0  0
  -20.9763  -29.8669   21.6490 H   0  0  0  0  0  0
  -26.0161  -38.2710   24.1114 H   0  0  0  0  0  0
  -32.8333  -20.1871   19.5841 H   0  0  0  0  0  0
  -32.6289  -22.5651   19.4467 H   0  0  0  0  0  0
  -31.7972  -18.0895   20.7803 H   0  0  0  0  0  0
  -31.5222  -17.9929   19.0624 H   0  0  0  0  0  0
  -28.0752  -18.5439   19.6825 H   0  0  0  0  0  0
  -28.4352  -18.6265   21.3742 H   0  0  0  0  0  0
  -31.6684  -24.4699   19.2996 H   0  0  0  0  0  0
  -30.5002  -24.7275   20.5626 H   0  0  0  0  0  0
  -30.0012  -24.5650   18.8464 H   0  0  0  0  0  0
  -27.4771  -23.3488   21.1517 H   0  0  0  0  0  0
  -27.3377  -23.3798   19.4422 H   0  0  0  0  0  0
  1 25  1  0  0  0
  1 30  2  0  0  0
  1 81  1  0  0  0
  2  3  1  0  0  0
  2 25  1  0  0  0
  2 82  1  0  0  0
  2 83  1  0  0  0
  3  4  1  0  0  0
  3 84  1  0  0  0
  3 85  1  0  0  0
  4  5  1  0  0  0
  4 86  1  0  0  0
  4 87  1  0  0  0
  5  6  1  0  0  0
  5 26  1  0  0  0
  5 88  1  0  0  0
  6 25  1  0  0  0
  6 89  1  0  0  0
  6 90  1  0  0  0
  7  8  2  0  0  0
  7 26  1  0  0  0
  7 29  1  0  0  0
  8  9  1  0  0  0
  8 22  1  0  0  0
  9 10  1  0  0  0
  9 27  2  0  0  0
 10 11  2  0  0  0
 10 15  1  0  0  0
 11 12  1  0  0  0
 11 91  1  0  0  0
 12 13  2  0  0  0
 12 92  1  0  0  0
 13 14  1  0  0  0
 13 31  1  0  0  0
 14 15  2  0  0  0
 14 93  1  0  0  0
 15 94  1  0  0  0
 16 17  2  0  0  0
 16 21  1  0  0  0
 16 31  1  0  0  0
 17 18  1  0  0  0
 17 95  1  0  0  0
 18 19  2  0  0  0
 18 96  1  0  0  0
 19 20  1  0  0  0
 19 24  1  0  0  0
 20 21  2  0  0  0
 20 97  1  0  0  0
 21 23  1  0  0  0
 22 28  1  0  0  0
 22 32  2  0  0  0
 26 27  1  0  0  0
 28 98  1  0  0  0
 28 99  1  0  0  0
 29100  1  0  0  0
 29101  1  0  0  0
 33 34  1  0  0  0
 33 66  1  0  0  0
 33 70  2  0  0  0
 34 36  1  0  0  0
 34 59  1  0  0  0
 34102  1  0  0  0
 35 44  2  0  0  0
 35 45  1  0  0  0
 35 68  1  0  0  0
 36 56  1  0  0  0
 36103  1  0  0  0
 37 39  1  0  0  0
 37 47  1  0  0  0
 37 66  1  0  0  0
 37104  1  0  0  0
 38 43  2  0  0  0
 38 46  1  0  0  0
 38 47  1  0  0  0
 39 64  1  0  0  0
 39 67  2  0  0  0
 40 52  1  0  0  0
 40 53  2  0  0  0
 40 58  1  0  0  0
 41105  1  0  0  0
 41106  1  0  0  0
 41107  1  0  0  0
 41 48  1  0  0  0
 42 43  1  0  0  0
 42 66  1  0  0  0
 42108  1  0  0  0
 42109  1  0  0  0
 43 44  1  0  0  0
 44110  1  0  0  0
 45 46  2  0  0  0
 45111  1  0  0  0
 46112  1  0  0  0
 47113  1  0  0  0
 47114  1  0  0  0
 48 56  1  0  0  0
 48 65  1  0  0  0
 48115  1  0  0  0
 49 50  1  0  0  0
 49 53  1  0  0  0
 49 64  1  0  0  0
 49116  1  0  0  0
 50 51  1  0  0  0
 50117  1  0  0  0
 50118  1  0  0  0
 51 52  1  0  0  0
 51119  1  0  0  0
 51120  1  0  0  0
 52121  1  0  0  0
 52122  1  0  0  0
 53 54  1  0  0  0
 54 55  2  0  0  0
 54123  1  0  0  0
 55 57  1  0  0  0
 55124  1  0  0  0
 56 69  2  0  0  0
 57 58  2  0  0  0
 57125  1  0  0  0
 58126  1  0  0  0
 59 60  1  0  0  0
 59 61  1  0  0  0
 59 62  1  0  0  0
 60127  1  0  0  0
 60128  1  0  0  0
 60129  1  0  0  0
 61130  1  0  0  0
 61131  1  0  0  0
 61132  1  0  0  0
 62133  1  0  0  0
 62134  1  0  0  0
 62135  1  0  0  0
 63 65  1  0  0  0
 63136  1  0  0  0
 63137  1  0  0  0
 63138  1  0  0  0
 64139  1  0  0  0
 65140  1  0  0  0
 68 80  1  0  0  0
 71 72  2  0  0  0
 71 73  1  0  0  0
 71141  1  0  0  0
 72 75  1  0  0  0
 72142  1  0  0  0
 73 74  2  0  0  0
 73 77  1  0  0  0
 74 76  1  0  0  0
 74 78  1  0  0  0
 75 76  2  0  0  0
 75 79  1  0  0  0
 76 80  1  0  0  0
 77 81  1  0  0  0
 77143  1  0  0  0
 77144  1  0  0  0
 78 81  1  0  0  0
 78145  1  0  0  0
 78146  1  0  0  0
 79147  1  0  0  0
 79148  1  0  0  0
 79149  1  0  0  0
 80150  1  0  0  0
 80151  1  0  0  0
M  ISO  4   1 100  68 101  80 101  81 100
M  END
> <chiral flag>
0

> <version>
0

> <s_m_source_file>
/data/baiqing/PycharmProjects/Reinvent-master-3.2/result/LINK_invent/BTK/process_docking_weight1_custom_sum_contain_oxygen_bond_distance_aromatic_linkinvent_7_9_3/rearranged_h_0172.sdf

> <i_m_source_file_index>
55

> <r_mmod_Potential_Energy-OPLS-2005>
3142.48413085938

> <r_mmod_Stretch_Energy-OPLS-2005>
1254.54284667969

> <r_mmod_Bend_Energy-OPLS-2005>
936.064270019531

> <r_mmod_Torsional_Energy-OPLS-2005>
254.138977050781

> <r_mmod_Improper_Torsional_Energy-OPLS-2005>
10.6756658554077

> <r_mmod_Van_der_Waal_Energy-OPLS-2005>
145.817016601562

> <r_mmod_Electrostatic_Energy-OPLS-2005>
-313.645324707031

> <r_mmod_Solvation_Energy-OPLS-2005>
-211.521942138672

> <b_mmod_Minimization_Converged-OPLS-2005>
0

> <r_mmod_RMS_Derivative-OPLS-2005>
1.05779826641083

$$$$
55
                    3D
 Structure written by MMmdl.
182192  0  0  1  0            999 V2000
  -30.7000  -14.6672   20.4862 C   0  0  0  0  0  0
  -30.4292  -12.4396   19.4129 C   0  0  0  0  0  0
  -29.4796  -12.4965   18.1971 C   0  0  0  0  0  0
  -28.0207  -12.2579   18.6372 C   0  0  0  0  0  0
  -27.6326  -13.1438   19.8423 C   0  0  2  0  0  0
  -28.7104  -13.0779   20.9639 C   0  0  0  0  0  0
  -25.2526  -13.7912   20.5802 C   0  0  0  0  0  0
  -24.1737  -13.0280   20.9287 C   0  0  0  0  0  0
  -24.6255  -11.6755   20.8819 C   0  0  0  0  0  0
  -23.8948  -10.4189   21.0452 C   0  0  0  0  0  0
  -24.3540   -9.4134   21.9220 C   0  0  0  0  0  0
  -23.6238   -8.2163   22.0767 C   0  0  0  0  0  0
  -22.4233   -8.0210   21.3550 C   0  0  0  0  0  0
  -21.9858   -9.0172   20.4653 C   0  0  0  0  0  0
  -22.7151  -10.2062   20.3087 C   0  0  0  0  0  0
  -21.6807   -6.0702   22.5286 C   0  0  0  0  0  0
  -21.3983   -6.5624   23.8213 C   0  0  0  0  0  0
  -21.3659   -5.6787   24.9181 C   0  0  0  0  0  0
  -21.6033   -4.3049   24.7244 C   0  0  0  0  0  0
  -21.8810   -3.8139   23.4372 C   0  0  0  0  0  0
  -21.9186   -4.6939   22.3420 C   0  0  0  0  0  0
  -22.7807  -13.5204   21.1908 C   0  0  0  0  0  0
  -22.1663   -4.2130   21.1003 F   0  0  0  0  0  0
  -21.5638   -3.4546   25.7770 F   0  0  0  0  0  0
  -29.9877  -13.4911   20.3595 N   0  0  0  0  0  0
  -26.2856  -12.8950   20.3322 N   0  0  0  0  0  0
  -25.9149  -11.6195   20.5802 N   0  0  0  0  0  0
  -22.0442  -12.8234   22.0478 N   0  0  0  0  0  0
  -25.4189  -15.1620   20.4304 N   0  0  0  0  0  0
  -31.9112  -14.6428   20.2563 O   0  0  0  0  0  0
  -21.6596   -6.8819   21.4235 O   0  0  0  0  0  0
  -22.3551  -14.5508   20.6711 O   0  0  0  0  0  0
  -24.6133  -31.8688   23.2084 C   0  0  0  0  0  0
  -25.9036  -32.4820   23.8382 C   0  0  1  0  0  0
  -27.2498  -27.4138   20.1315 C   0  0  0  0  0  0
  -25.5890  -33.8620   24.2311 N   0  0  0  0  0  0
  -23.4045  -30.4896   21.5479 C   0  0  2  0  0  0
  -24.8600  -28.9438   20.1284 C   0  0  0  0  0  0
  -22.7402  -29.4677   22.4978 C   0  0  0  0  0  0
  -18.0272  -28.1398   22.8489 C   0  0  0  0  0  0
  -24.1489  -36.7311   23.2637 C   0  0  0  0  0  0
  -25.9348  -30.8228   21.3725 C   0  0  0  0  0  0
  -26.0166  -29.4491   20.7374 C   0  0  0  0  0  0
  -27.2119  -28.6884   20.7477 C   0  0  0  0  0  0
  -26.0806  -26.9292   19.5103 C   0  0  0  0  0  0
  -24.8854  -27.6769   19.5187 C   0  0  0  0  0  0
  -23.6205  -29.8134   20.1667 C   0  0  0  0  0  0
  -25.4113  -36.3109   24.0331 C   0  0  1  0  0  0
  -20.5860  -28.3691   23.1309 C   0  0  2  0  0  0
  -20.6777  -26.9426   22.5423 C   0  0  0  0  0  0
  -19.5759  -26.6394   21.5225 C   0  0  0  0  0  0
  -18.1927  -26.7942   22.1622 C   0  0  0  0  0  0
  -19.1520  -28.8862   23.2892 C   0  0  0  0  0  0
  -18.9457  -30.1468   23.8902 C   0  0  0  0  0  0
  -17.6464  -30.6605   24.0574 C   0  0  0  0  0  0
  -25.9046  -34.9478   23.5123 C   0  0  0  0  0  0
  -16.5353  -29.9112   23.6336 C   0  0  0  0  0  0
  -16.7263  -28.6530   23.0350 C   0  0  0  0  0  0
  -26.4469  -31.6592   25.0705 C   0  0  0  0  0  0
  -25.3710  -31.3707   26.1423 C   0  0  0  0  0  0
  -27.0312  -30.3022   24.6119 C   0  0  0  0  0  0
  -27.6038  -32.4307   25.7471 C   0  0  0  0  0  0
  -27.5590  -37.1803   24.8460 C   0  0  0  0  0  0
  -21.4132  -29.3045   22.3695 N   0  0  0  0  0  0
  -26.4300  -37.3795   23.9407 N   0  0  0  0  0  0
  -24.6678  -31.0772   22.0998 N   0  0  0  0  0  0
  -23.4158  -28.8237   23.3047 O   0  0  0  0  0  0
  -28.4075  -26.6664   20.0277 O   0  0  0  0  0  0
  -26.5620  -34.8932   22.4691 O   0  0  0  0  0  0
  -23.5326  -32.1457   23.7468 O   0  0  0  0  0  0
  -32.0922  -21.5904   19.8760 C   0  0  0  0  0  0
  -31.8166  -20.2651   20.2245 C   0  0  0  0  0  0
  -31.3718  -22.6412   20.4575 C   0  0  0  0  0  0
  -30.7979  -19.9525   21.1479 C   0  0  0  0  0  0
  -30.4303  -22.4386   21.4966 C   0  0  0  0  0  0
  -30.1742  -21.0542   21.8646 C   0  0  0  0  0  0
  -30.3919  -26.0720   21.2713 C   0  0  0  0  0  0
  -30.8350  -24.9317   22.2027 C   0  0  0  0  0  0
  -28.1861  -17.3085   21.4815 C   0  0  0  0  0  0
  -30.3252  -18.4631   21.3241 C   0  0  2  0  0  0
  -28.7105  -24.4018   21.1263 C   0  0  1  0  0  0
  -28.8741  -25.9501   21.1857 C   0  0  2  0  0  0
  -28.6325  -16.2187   20.5130 C   0  0  1  0  0  0
  -30.8977  -17.2112   20.4843 C   0  0  2  0  0  0
  -29.7853  -23.7682   22.0937 C   0  0  1  0  0  0
  -29.2532  -20.7210   23.0439 C   0  0  0  0  0  0
  -27.2617  -23.9451   21.3686 C   0  0  0  0  0  0
  -28.1905  -16.5366   19.0562 C   0  0  0  0  0  0
  -31.2037  -17.4730   18.9827 C   0  0  0  0  0  0
  -29.2179  -23.6608   23.5334 C   0  0  0  0  0  0
  -30.0868  -15.9220   20.5947 N   0  0  0  0  0  0
  -28.8764  -18.5380   21.1244 N   0  3  0  0  0  0
  -31.4564  -12.5762   19.0724 H   0  0  0  0  0  0
  -30.4083  -11.4565   19.8845 H   0  0  0  0  0  0
  -29.7748  -11.7662   17.4420 H   0  0  0  0  0  0
  -29.5618  -13.4703   17.7105 H   0  0  0  0  0  0
  -27.9117  -11.2058   18.9023 H   0  0  0  0  0  0
  -27.3431  -12.4345   17.8004 H   0  0  0  0  0  0
  -27.5860  -14.1174   19.3832 H   0  0  0  0  0  0
  -28.7877  -12.0538   21.3327 H   0  0  0  0  0  0
  -28.4699  -13.6587   21.8550 H   0  0  0  0  0  0
  -25.2682   -9.5621   22.4780 H   0  0  0  0  0  0
  -23.9957   -7.4554   22.7477 H   0  0  0  0  0  0
  -21.0812   -8.8686   19.8944 H   0  0  0  0  0  0
  -22.3618  -10.9606   19.6209 H   0  0  0  0  0  0
  -21.1949   -7.6130   23.9705 H   0  0  0  0  0  0
  -21.1510   -6.0536   25.9081 H   0  0  0  0  0  0
  -22.0610   -2.7608   23.2879 H   0  0  0  0  0  0
  -22.4081  -11.9895   22.4809 H   0  0  0  0  0  0
  -21.1048  -13.1227   22.2673 H   0  0  0  0  0  0
  -24.6391  -15.8009   20.5460 H   0  0  0  0  0  0
  -26.2439  -15.5964   20.0448 H   0  0  0  0  0  0
  -26.7102  -32.5557   23.1146 H   0  0  0  0  0  0
  -24.9988  -33.9777   25.0421 H   0  0  0  0  0  0
  -22.6932  -31.3050   21.4026 H   0  0  0  0  0  0
  -23.3757  -35.9639   23.3299 H   0  0  0  0  0  0
  -24.3582  -36.8933   22.2051 H   0  0  0  0  0  0
  -23.7239  -37.6511   23.6663 H   0  0  0  0  0  0
  -26.0508  -31.5787   20.5945 H   0  0  0  0  0  0
  -26.8196  -30.8837   21.9937 H   0  0  0  0  0  0
  -28.1030  -29.0814   21.2161 H   0  0  0  0  0  0
  -26.0971  -25.9670   19.0182 H   0  0  0  0  0  0
  -23.9971  -27.2771   19.0480 H   0  0  0  0  0  0
  -23.7316  -30.5833   19.4027 H   0  0  0  0  0  0
  -22.7446  -29.2323   19.8704 H   0  0  0  0  0  0
  -25.1296  -36.1969   25.0828 H   0  0  0  0  0  0
  -20.9954  -28.3284   24.1432 H   0  0  0  0  0  0
  -20.5717  -26.2302   23.3615 H   0  0  0  0  0  0
  -21.6646  -26.7495   22.1204 H   0  0  0  0  0  0
  -19.6930  -25.6305   21.1261 H   0  0  0  0  0  0
  -19.6707  -27.3200   20.6755 H   0  0  0  0  0  0
  -17.4202  -26.6687   21.4016 H   0  0  0  0  0  0
  -18.0322  -26.0090   22.9023 H   0  0  0  0  0  0
  -19.7938  -30.7282   24.2263 H   0  0  0  0  0  0
  -17.5031  -31.6287   24.5177 H   0  0  0  0  0  0
  -15.5360  -30.3030   23.7670 H   0  0  0  0  0  0
  -15.8651  -28.0870   22.7059 H   0  0  0  0  0  0
  -24.5876  -30.7083   25.7723 H   0  0  0  0  0  0
  -24.8911  -32.2871   26.4864 H   0  0  0  0  0  0
  -25.8021  -30.8845   27.0180 H   0  0  0  0  0  0
  -26.2880  -29.6763   24.1165 H   0  0  0  0  0  0
  -27.4046  -29.7279   25.4610 H   0  0  0  0  0  0
  -27.8730  -30.4310   23.9309 H   0  0  0  0  0  0
  -27.2658  -33.3593   26.2078 H   0  0  0  0  0  0
  -28.3837  -32.6881   25.0292 H   0  0  0  0  0  0
  -28.0720  -31.8407   26.5359 H   0  0  0  0  0  0
  -28.2595  -38.0113   24.7541 H   0  0  0  0  0  0
  -28.1099  -36.2649   24.6254 H   0  0  0  0  0  0
  -27.2306  -37.1412   25.8860 H   0  0  0  0  0  0
  -20.9300  -29.8720   21.6870 H   0  0  0  0  0  0
  -26.0189  -38.2871   24.1425 H   0  0  0  0  0  0
  -32.8531  -21.8026   19.1365 H   0  0  0  0  0  0
  -32.4002  -19.5060   19.7358 H   0  0  0  0  0  0
  -31.5951  -23.6382   20.1046 H   0  0  0  0  0  0
  -30.8264  -25.9204   20.2825 H   0  0  0  0  0  0
  -30.7174  -27.0534   21.6177 H   0  0  0  0  0  0
  -30.8679  -25.3503   23.2098 H   0  0  0  0  0  0
  -31.8674  -24.6307   22.0283 H   0  0  0  0  0  0
  -28.3992  -17.0364   22.5179 H   0  0  0  0  0  0
  -27.1095  -17.4706   21.4161 H   0  0  0  0  0  0
  -30.5236  -18.2199   22.3684 H   0  0  0  0  0  0
  -28.9796  -24.1049   20.1124 H   0  0  0  0  0  0
  -28.4250  -26.3471   22.0997 H   0  0  0  0  0  0
  -28.0461  -15.4121   20.8953 H   0  0  0  0  0  0
  -31.8705  -17.0232   20.9437 H   0  0  0  0  0  0
  -29.2215  -19.6750   23.3340 H   0  0  0  0  0  0
  -28.2236  -21.0226   22.8460 H   0  0  0  0  0  0
  -29.6159  -21.1908   23.9549 H   0  0  0  0  0  0
  -26.8491  -24.3788   22.2793 H   0  0  0  0  0  0
  -27.2035  -22.8601   21.4544 H   0  0  0  0  0  0
  -26.6143  -24.2403   20.5447 H   0  0  0  0  0  0
  -28.5165  -17.5175   18.7146 H   0  0  0  0  0  0
  -27.1075  -16.5363   18.9440 H   0  0  0  0  0  0
  -28.5921  -15.8170   18.3414 H   0  0  0  0  0  0
  -30.7046  -18.3623   18.5975 H   0  0  0  0  0  0
  -30.8972  -16.6465   18.3389 H   0  0  0  0  0  0
  -32.2747  -17.5812   18.8082 H   0  0  0  0  0  0
  -29.9810  -23.3259   24.2359 H   0  0  0  0  0  0
  -28.3448  -23.0227   23.6203 H   0  0  0  0  0  0
  -28.8767  -24.6293   23.8989 H   0  0  0  0  0  0
  -28.5397  -19.3051   21.6844 H   0  0  0  0  0  0
  -28.6940  -18.7563   20.1595 H   0  0  0  0  0  0
  1 25  1  0  0  0
  1 30  2  0  0  0
  1 91  1  0  0  0
  2  3  1  0  0  0
  2 25  1  0  0  0
  2 93  1  0  0  0
  2 94  1  0  0  0
  3  4  1  0  0  0
  3 95  1  0  0  0
  3 96  1  0  0  0
  4  5  1  0  0  0
  4 97  1  0  0  0
  4 98  1  0  0  0
  5  6  1  0  0  0
  5 26  1  0  0  0
  5 99  1  0  0  0
  6 25  1  0  0  0
  6100  1  0  0  0
  6101  1  0  0  0
  7  8  2  0  0  0
  7 26  1  0  0  0
  7 29  1  0  0  0
  8  9  1  0  0  0
  8 22  1  0  0  0
  9 10  1  0  0  0
  9 27  2  0  0  0
 10 11  2  0  0  0
 10 15  1  0  0  0
 11 12  1  0  0  0
 11102  1  0  0  0
 12 13  2  0  0  0
 12103  1  0  0  0
 13 14  1  0  0  0
 13 31  1  0  0  0
 14 15  2  0  0  0
 14104  1  0  0  0
 15105  1  0  0  0
 16 17  2  0  0  0
 16 21  1  0  0  0
 16 31  1  0  0  0
 17 18  1  0  0  0
 17106  1  0  0  0
 18 19  2  0  0  0
 18107  1  0  0  0
 19 20  1  0  0  0
 19 24  1  0  0  0
 20 21  2  0  0  0
 20108  1  0  0  0
 21 23  1  0  0  0
 22 28  1  0  0  0
 22 32  2  0  0  0
 26 27  1  0  0  0
 28109  1  0  0  0
 28110  1  0  0  0
 29111  1  0  0  0
 29112  1  0  0  0
 33 34  1  0  0  0
 33 66  1  0  0  0
 33 70  2  0  0  0
 34 36  1  0  0  0
 34 59  1  0  0  0
 34113  1  0  0  0
 35 44  2  0  0  0
 35 45  1  0  0  0
 35 68  1  0  0  0
 36 56  1  0  0  0
 36114  1  0  0  0
 37 39  1  0  0  0
 37 47  1  0  0  0
 37 66  1  0  0  0
 37115  1  0  0  0
 38 43  2  0  0  0
 38 46  1  0  0  0
 38 47  1  0  0  0
 39 64  1  0  0  0
 39 67  2  0  0  0
 40 52  1  0  0  0
 40 53  2  0  0  0
 40 58  1  0  0  0
 41116  1  0  0  0
 41117  1  0  0  0
 41118  1  0  0  0
 41 48  1  0  0  0
 42 43  1  0  0  0
 42 66  1  0  0  0
 42119  1  0  0  0
 42120  1  0  0  0
 43 44  1  0  0  0
 44121  1  0  0  0
 45 46  2  0  0  0
 45122  1  0  0  0
 46123  1  0  0  0
 47124  1  0  0  0
 47125  1  0  0  0
 48 56  1  0  0  0
 48 65  1  0  0  0
 48126  1  0  0  0
 49 50  1  0  0  0
 49 53  1  0  0  0
 49 64  1  0  0  0
 49127  1  0  0  0
 50 51  1  0  0  0
 50128  1  0  0  0
 50129  1  0  0  0
 51 52  1  0  0  0
 51130  1  0  0  0
 51131  1  0  0  0
 52132  1  0  0  0
 52133  1  0  0  0
 53 54  1  0  0  0
 54 55  2  0  0  0
 54134  1  0  0  0
 55 57  1  0  0  0
 55135  1  0  0  0
 56 69  2  0  0  0
 57 58  2  0  0  0
 57136  1  0  0  0
 58137  1  0  0  0
 59 60  1  0  0  0
 59 61  1  0  0  0
 59 62  1  0  0  0
 60138  1  0  0  0
 60139  1  0  0  0
 60140  1  0  0  0
 61141  1  0  0  0
 61142  1  0  0  0
 61143  1  0  0  0
 62144  1  0  0  0
 62145  1  0  0  0
 62146  1  0  0  0
 63 65  1  0  0  0
 63147  1  0  0  0
 63148  1  0  0  0
 63149  1  0  0  0
 64150  1  0  0  0
 65151  1  0  0  0
 68 82  1  0  0  0
 71 72  2  0  0  0
 71 73  1  0  0  0
 71152  1  0  0  0
 72 74  1  0  0  0
 72153  1  0  0  0
 73 75  2  0  0  0
 73154  1  0  0  0
 74 76  2  0  0  0
 74 80  1  0  0  0
 75 76  1  0  0  0
 75 85  1  0  0  0
 76 86  1  0  0  0
 77 78  1  0  0  0
 77 82  1  0  0  0
 77155  1  0  0  0
 77156  1  0  0  0
 78 85  1  0  0  0
 78157  1  0  0  0
 78158  1  0  0  0
 79 83  1  0  0  0
 79 92  1  0  0  0
 79159  1  0  0  0
 79160  1  0  0  0
 80 84  1  0  0  0
 80 92  1  0  0  0
 80161  1  0  0  0
 81 82  1  0  0  0
 81 85  1  0  0  0
 81 87  1  0  0  0
 81162  1  0  0  0
 82163  1  0  0  0
 83 88  1  0  0  0
 83 91  1  0  0  0
 83164  1  0  0  0
 84 89  1  0  0  0
 84 91  1  0  0  0
 84165  1  0  0  0
 85 90  1  0  0  0
 86166  1  0  0  0
 86167  1  0  0  0
 86168  1  0  0  0
 87169  1  0  0  0
 87170  1  0  0  0
 87171  1  0  0  0
 88172  1  0  0  0
 88173  1  0  0  0
 88174  1  0  0  0
 89175  1  0  0  0
 89176  1  0  0  0
 89177  1  0  0  0
 90178  1  0  0  0
 90179  1  0  0  0
 90180  1  0  0  0
 92181  1  0  0  0
 92182  1  0  0  0
M  CHG  1  92   1
M  ISO  4   1 100  68 101  82 101  91 100
M  END
> <chiral flag>
0

> <version>
0

> <s_m_source_file>
/data/baiqing/PycharmProjects/Reinvent-master-3.2/result/LINK_invent/BTK/process_docking_weight1_custom_sum_contain_oxygen_bond_distance_aromatic_linkinvent_7_9_3/rearranged_h_0172.sdf

> <i_m_source_file_index>
56

> <r_mmod_Potential_Energy-OPLS-2005>
335.379364013672

> <r_mmod_Stretch_Energy-OPLS-2005>
98.9383850097656

> <r_mmod_Bend_Energy-OPLS-2005>
222.278900146484

> <r_mmod_Torsional_Energy-OPLS-2005>
482.752380371094

> <r_mmod_Improper_Torsional_Energy-OPLS-2005>
7.01538610458374

> <r_mmod_Van_der_Waal_Energy-OPLS-2005>
205.126220703125

> <r_mmod_Electrostatic_Energy-OPLS-2005>
-298.346374511719

> <r_mmod_Solvation_Energy-OPLS-2005>
-428.155670166016

> <b_mmod_Minimization_Converged-OPLS-2005>
0

> <r_mmod_RMS_Derivative-OPLS-2005>
3.57838869094849

$$$$
56
                    3D
 Structure written by MMmdl.
169179  0  0  1  0            999 V2000
  -30.5706  -14.9835   20.4132 C   0  0  0  0  0  0
  -30.4367  -12.6172   19.4981 C   0  0  0  0  0  0
  -29.5217  -12.5363   18.2554 C   0  0  0  0  0  0
  -28.0581  -12.3159   18.6771 C   0  0  0  0  0  0
  -27.6287  -13.2572   19.8318 C   0  0  2  0  0  0
  -28.6718  -13.3230   20.9674 C   0  0  0  0  0  0
  -25.2478  -13.8230   20.5718 C   0  0  0  0  0  0
  -24.1792  -13.0457   20.9228 C   0  0  0  0  0  0
  -24.6407  -11.6943   20.8745 C   0  0  0  0  0  0
  -23.9086  -10.4305   21.0387 C   0  0  0  0  0  0
  -24.3632   -9.4225   21.9172 C   0  0  0  0  0  0
  -23.6315   -8.2255   22.0739 C   0  0  0  0  0  0
  -22.4291   -8.0284   21.3528 C   0  0  0  0  0  0
  -21.9928   -9.0258   20.4636 C   0  0  0  0  0  0
  -22.7253  -10.2146   20.3046 C   0  0  0  0  0  0
  -21.6855   -6.0739   22.5278 C   0  0  0  0  0  0
  -21.4011   -6.5650   23.8213 C   0  0  0  0  0  0
  -21.3662   -5.6796   24.9176 C   0  0  0  0  0  0
  -21.6047   -4.3058   24.7221 C   0  0  0  0  0  0
  -21.8820   -3.8149   23.4345 C   0  0  0  0  0  0
  -21.9196   -4.6964   22.3404 C   0  0  0  0  0  0
  -22.7811  -13.5226   21.1876 C   0  0  0  0  0  0
  -22.1659   -4.2152   21.0982 F   0  0  0  0  0  0
  -21.5638   -3.4548   25.7736 F   0  0  0  0  0  0
  -29.9428  -13.7354   20.3578 N   0  0  0  0  0  0
  -26.2894  -12.9477   20.3226 N   0  0  0  0  0  0
  -25.9336  -11.6603   20.5711 N   0  0  0  0  0  0
  -22.0451  -12.8213   22.0430 N   0  0  0  0  0  0
  -25.4199  -15.1948   20.4172 N   0  0  0  0  0  0
  -31.7783  -14.9937   20.1568 O   0  0  0  0  0  0
  -21.6650   -6.8880   21.4235 O   0  0  0  0  0  0
  -22.3494  -14.5534   20.6723 O   0  0  0  0  0  0
  -24.6479  -31.8424   23.1868 C   0  0  0  0  0  0
  -25.9245  -32.4683   23.8261 C   0  0  1  0  0  0
  -27.2117  -27.1026   20.1305 C   0  0  0  0  0  0
  -25.6001  -33.8487   24.2192 N   0  0  0  0  0  0
  -23.4529  -30.4636   21.5355 C   0  0  2  0  0  0
  -24.8997  -28.8905   20.1085 C   0  0  0  0  0  0
  -22.7599  -29.4554   22.4873 C   0  0  0  0  0  0
  -18.0308  -28.1400   22.8487 C   0  0  0  0  0  0
  -24.1487  -36.7235   23.2641 C   0  0  0  0  0  0
  -26.0142  -30.7016   21.3940 C   0  0  0  0  0  0
  -26.0818  -29.3117   20.7315 C   0  0  0  0  0  0
  -27.2375  -28.4338   20.7294 C   0  0  0  0  0  0
  -26.0041  -26.8080   19.4551 C   0  0  0  0  0  0
  -24.8767  -27.6524   19.4545 C   0  0  0  0  0  0
  -23.6784  -29.7950   20.1550 C   0  0  0  0  0  0
  -25.4126  -36.3026   24.0318 C   0  0  1  0  0  0
  -20.5919  -28.3737   23.1227 C   0  0  2  0  0  0
  -20.6793  -26.9442   22.5401 C   0  0  0  0  0  0
  -19.5770  -26.6384   21.5217 C   0  0  0  0  0  0
  -18.1948  -26.7942   22.1618 C   0  0  0  0  0  0
  -19.1562  -28.8887   23.2843 C   0  0  0  0  0  0
  -18.9473  -30.1480   23.8874 C   0  0  0  0  0  0
  -17.6466  -30.6596   24.0549 C   0  0  0  0  0  0
  -25.9085  -34.9404   23.5059 C   0  0  0  0  0  0
  -16.5361  -29.9080   23.6340 C   0  0  0  0  0  0
  -16.7289  -28.6494   23.0380 C   0  0  0  0  0  0
  -26.4548  -31.6558   25.0714 C   0  0  0  0  0  0
  -25.3719  -31.3772   26.1405 C   0  0  0  0  0  0
  -27.0409  -30.2946   24.6333 C   0  0  0  0  0  0
  -27.6105  -32.4301   25.7471 C   0  0  0  0  0  0
  -27.5581  -37.1766   24.8462 C   0  0  0  0  0  0
  -21.4285  -29.3060   22.3610 N   0  0  0  0  0  0
  -26.4278  -37.3748   23.9423 N   0  0  0  0  0  0
  -24.7250  -31.0248   22.0926 N   0  0  0  0  0  0
  -23.4232  -28.8088   23.3024 O   0  0  0  0  0  0
  -28.2294  -26.0628   20.2068 O   0  0  0  0  0  0
  -26.5652  -34.8906   22.4626 O   0  0  0  0  0  0
  -23.5585  -32.1318   23.7063 O   0  0  0  0  0  0
  -28.9936  -22.4750   21.3739 C   0  0  0  0  0  0
  -29.4102  -21.0559   21.4730 C   0  0  0  0  0  0
  -28.5982  -23.0877   20.1190 C   0  0  0  0  0  0
  -29.3491  -20.1139   20.3722 C   0  0  0  0  0  0
  -28.6741  -22.0843   19.0750 C   0  0  0  0  0  0
  -30.4210  -17.4754   21.3742 C   0  0  0  0  0  0
  -29.0037  -17.1599   19.8997 C   0  0  0  0  0  0
  -28.4077  -22.9228   23.9964 C   0  0  0  0  0  0
  -28.1695  -24.6105   22.8826 C   0  0  0  0  0  0
  -29.0003  -23.3448   22.6432 C   0  0  2  0  0  0
  -29.7942  -18.4834   20.3158 C   0  0  0  0  0  0
  -29.9894  -20.5451   22.7866 C   0  0  0  0  0  0
  -28.3847  -22.4607   17.6316 C   0  0  0  0  0  0
  -27.1824  -24.7612   25.1654 C   0  0  0  0  0  0
  -27.8641  -24.5790   19.8461 C   0  0  0  0  0  0
  -28.9972  -20.7340   19.2026 N   0  0  0  0  0  0
  -29.8945  -16.2195   20.7001 N   0  0  0  0  0  0
  -28.3127  -24.3481   24.3107 N   0  3  1  0  0  0
  -31.4708  -12.7666   19.1830 H   0  0  0  0  0  0
  -30.4312  -11.6759   20.0516 H   0  0  0  0  0  0
  -29.8502  -11.7335   17.5940 H   0  0  0  0  0  0
  -29.5994  -13.4614   17.6813 H   0  0  0  0  0  0
  -27.9618  -11.2762   18.9930 H   0  0  0  0  0  0
  -27.3934  -12.4361   17.8207 H   0  0  0  0  0  0
  -27.5828  -14.2527   19.3884 H   0  0  0  0  0  0
  -28.7690  -12.3621   21.4753 H   0  0  0  0  0  0
  -28.3654  -14.0483   21.7236 H   0  0  0  0  0  0
  -25.2758   -9.5728   22.4761 H   0  0  0  0  0  0
  -24.0029   -7.4647   22.7464 H   0  0  0  0  0  0
  -21.0855   -8.8785   19.8940 H   0  0  0  0  0  0
  -22.3691  -10.9691   19.6173 H   0  0  0  0  0  0
  -21.1985   -7.6156   23.9726 H   0  0  0  0  0  0
  -21.1484   -6.0520   25.9085 H   0  0  0  0  0  0
  -22.0591   -2.7617   23.2842 H   0  0  0  0  0  0
  -22.4037  -11.9866   22.4812 H   0  0  0  0  0  0
  -21.1064  -13.1240   22.2613 H   0  0  0  0  0  0
  -24.6652  -15.8596   20.5419 H   0  0  0  0  0  0
  -26.2887  -15.6265   20.1306 H   0  0  0  0  0  0
  -26.7311  -32.5273   23.0984 H   0  0  0  0  0  0
  -25.0195  -33.9601   25.0374 H   0  0  0  0  0  0
  -22.7596  -31.2926   21.3823 H   0  0  0  0  0  0
  -23.3775  -35.9536   23.3251 H   0  0  0  0  0  0
  -24.3607  -36.8916   22.2071 H   0  0  0  0  0  0
  -23.7188  -37.6399   23.6699 H   0  0  0  0  0  0
  -26.1759  -31.4546   20.6221 H   0  0  0  0  0  0
  -26.8826  -30.7516   22.0383 H   0  0  0  0  0  0
  -28.1336  -28.7506   21.2423 H   0  0  0  0  0  0
  -25.8756  -25.8754   18.9277 H   0  0  0  0  0  0
  -23.9795  -27.3294   18.9436 H   0  0  0  0  0  0
  -23.8121  -30.5686   19.3976 H   0  0  0  0  0  0
  -22.7915  -29.2370   19.8469 H   0  0  0  0  0  0
  -25.1294  -36.1856   25.0803 H   0  0  0  0  0  0
  -21.0009  -28.3312   24.1347 H   0  0  0  0  0  0
  -20.5695  -26.2353   23.3621 H   0  0  0  0  0  0
  -21.6654  -26.7459   22.1190 H   0  0  0  0  0  0
  -19.6929  -25.6281   21.1278 H   0  0  0  0  0  0
  -19.6695  -27.3162   20.6721 H   0  0  0  0  0  0
  -17.4222  -26.6707   21.4011 H   0  0  0  0  0  0
  -18.0329  -26.0083   22.9002 H   0  0  0  0  0  0
  -19.7951  -30.7306   24.2240 H   0  0  0  0  0  0
  -17.5019  -31.6286   24.5130 H   0  0  0  0  0  0
  -15.5359  -30.2966   23.7690 H   0  0  0  0  0  0
  -15.8690  -28.0790   22.7135 H   0  0  0  0  0  0
  -24.5877  -30.7164   25.7701 H   0  0  0  0  0  0
  -24.8938  -32.2963   26.4802 H   0  0  0  0  0  0
  -25.7977  -30.8930   27.0204 H   0  0  0  0  0  0
  -26.3040  -29.6663   24.1327 H   0  0  0  0  0  0
  -27.3989  -29.7271   25.4934 H   0  0  0  0  0  0
  -27.8964  -30.4171   23.9688 H   0  0  0  0  0  0
  -27.2764  -33.3648   26.1989 H   0  0  0  0  0  0
  -28.3943  -32.6783   25.0298 H   0  0  0  0  0  0
  -28.0751  -31.8453   26.5426 H   0  0  0  0  0  0
  -28.2550  -38.0104   24.7570 H   0  0  0  0  0  0
  -28.1110  -36.2641   24.6191 H   0  0  0  0  0  0
  -27.2318  -37.1298   25.8865 H   0  0  0  0  0  0
  -20.9518  -29.8765   21.6768 H   0  0  0  0  0  0
  -26.0137  -38.2806   24.1459 H   0  0  0  0  0  0
  -29.9979  -17.5945   22.3720 H   0  0  0  0  0  0
  -31.5086  -17.5441   21.4312 H   0  0  0  0  0  0
  -29.0062  -16.9870   18.8230 H   0  0  0  0  0  0
  -27.9778  -17.1729   20.2675 H   0  0  0  0  0  0
  -29.0759  -22.3806   24.6643 H   0  0  0  0  0  0
  -27.4372  -22.4315   23.9067 H   0  0  0  0  0  0
  -27.1330  -24.5306   22.5481 H   0  0  0  0  0  0
  -28.6346  -25.5430   22.5660 H   0  0  0  0  0  0
  -30.0543  -23.6038   22.7794 H   0  0  0  0  0  0
  -30.5771  -18.5602   19.5601 H   0  0  0  0  0  0
  -30.5932  -21.3069   23.2779 H   0  0  0  0  0  0
  -30.6731  -19.7155   22.6347 H   0  0  0  0  0  0
  -29.2029  -20.2213   23.4684 H   0  0  0  0  0  0
  -27.3347  -22.7167   17.4899 H   0  0  0  0  0  0
  -28.6217  -21.6445   16.9473 H   0  0  0  0  0  0
  -29.0000  -23.3105   17.3338 H   0  0  0  0  0  0
  -27.3376  -24.4155   26.1875 H   0  0  0  0  0  0
  -26.2368  -24.3555   24.8048 H   0  0  0  0  0  0
  -27.1013  -25.8482   25.1816 H   0  0  0  0  0  0
  -26.8684  -24.4102   20.2567 H   0  0  0  0  0  0
  -27.7039  -24.6350   18.7724 H   0  0  0  0  0  0
  -29.1907  -24.7071   24.6560 H   0  0  0  0  0  0
  1 25  1  0  0  0
  1 30  2  0  0  0
  1 87  1  0  0  0
  2  3  1  0  0  0
  2 25  1  0  0  0
  2 89  1  0  0  0
  2 90  1  0  0  0
  3  4  1  0  0  0
  3 91  1  0  0  0
  3 92  1  0  0  0
  4  5  1  0  0  0
  4 93  1  0  0  0
  4 94  1  0  0  0
  5  6  1  0  0  0
  5 26  1  0  0  0
  5 95  1  0  0  0
  6 25  1  0  0  0
  6 96  1  0  0  0
  6 97  1  0  0  0
  7  8  2  0  0  0
  7 26  1  0  0  0
  7 29  1  0  0  0
  8  9  1  0  0  0
  8 22  1  0  0  0
  9 10  1  0  0  0
  9 27  2  0  0  0
 10 11  2  0  0  0
 10 15  1  0  0  0
 11 12  1  0  0  0
 11 98  1  0  0  0
 12 13  2  0  0  0
 12 99  1  0  0  0
 13 14  1  0  0  0
 13 31  1  0  0  0
 14 15  2  0  0  0
 14100  1  0  0  0
 15101  1  0  0  0
 16 17  2  0  0  0
 16 21  1  0  0  0
 16 31  1  0  0  0
 17 18  1  0  0  0
 17102  1  0  0  0
 18 19  2  0  0  0
 18103  1  0  0  0
 19 20  1  0  0  0
 19 24  1  0  0  0
 20 21  2  0  0  0
 20104  1  0  0  0
 21 23  1  0  0  0
 22 28  1  0  0  0
 22 32  2  0  0  0
 26 27  1  0  0  0
 28105  1  0  0  0
 28106  1  0  0  0
 29107  1  0  0  0
 29108  1  0  0  0
 33 34  1  0  0  0
 33 66  1  0  0  0
 33 70  2  0  0  0
 34 36  1  0  0  0
 34 59  1  0  0  0
 34109  1  0  0  0
 35 44  2  0  0  0
 35 45  1  0  0  0
 35 68  1  0  0  0
 36 56  1  0  0  0
 36110  1  0  0  0
 37 39  1  0  0  0
 37 47  1  0  0  0
 37 66  1  0  0  0
 37111  1  0  0  0
 38 43  2  0  0  0
 38 46  1  0  0  0
 38 47  1  0  0  0
 39 64  1  0  0  0
 39 67  2  0  0  0
 40 52  1  0  0  0
 40 53  2  0  0  0
 40 58  1  0  0  0
 41112  1  0  0  0
 41113  1  0  0  0
 41114  1  0  0  0
 41 48  1  0  0  0
 42 43  1  0  0  0
 42 66  1  0  0  0
 42115  1  0  0  0
 42116  1  0  0  0
 43 44  1  0  0  0
 44117  1  0  0  0
 45 46  2  0  0  0
 45118  1  0  0  0
 46119  1  0  0  0
 47120  1  0  0  0
 47121  1  0  0  0
 48 56  1  0  0  0
 48 65  1  0  0  0
 48122  1  0  0  0
 49 50  1  0  0  0
 49 53  1  0  0  0
 49 64  1  0  0  0
 49123  1  0  0  0
 50 51  1  0  0  0
 50124  1  0  0  0
 50125  1  0  0  0
 51 52  1  0  0  0
 51126  1  0  0  0
 51127  1  0  0  0
 52128  1  0  0  0
 52129  1  0  0  0
 53 54  1  0  0  0
 54 55  2  0  0  0
 54130  1  0  0  0
 55 57  1  0  0  0
 55131  1  0  0  0
 56 69  2  0  0  0
 57 58  2  0  0  0
 57132  1  0  0  0
 58133  1  0  0  0
 59 60  1  0  0  0
 59 61  1  0  0  0
 59 62  1  0  0  0
 60134  1  0  0  0
 60135  1  0  0  0
 60136  1  0  0  0
 61137  1  0  0  0
 61138  1  0  0  0
 61139  1  0  0  0
 62140  1  0  0  0
 62141  1  0  0  0
 62142  1  0  0  0
 63 65  1  0  0  0
 63143  1  0  0  0
 63144  1  0  0  0
 63145  1  0  0  0
 64146  1  0  0  0
 65147  1  0  0  0
 68 85  1  0  0  0
 71 72  2  0  0  0
 71 73  1  0  0  0
 71 80  1  0  0  0
 72 74  1  0  0  0
 72 82  1  0  0  0
 73 75  2  0  0  0
 73 85  1  0  0  0
 74 86  2  0  0  0
 74 81  1  0  0  0
 75 83  1  0  0  0
 75 86  1  0  0  0
 76 81  1  0  0  0
 76 87  1  0  0  0
 76148  1  0  0  0
 76149  1  0  0  0
 77 81  1  0  0  0
 77 87  1  0  0  0
 77150  1  0  0  0
 77151  1  0  0  0
 78 80  1  0  0  0
 78 88  1  0  0  0
 78152  1  0  0  0
 78153  1  0  0  0
 79 80  1  0  0  0
 79 88  1  0  0  0
 79154  1  0  0  0
 79155  1  0  0  0
 80156  1  0  0  0
 81157  1  0  0  0
 82158  1  0  0  0
 82159  1  0  0  0
 82160  1  0  0  0
 83161  1  0  0  0
 83162  1  0  0  0
 83163  1  0  0  0
 84164  1  0  0  0
 84165  1  0  0  0
 84166  1  0  0  0
 84 88  1  0  0  0
 85167  1  0  0  0
 85168  1  0  0  0
 88169  1  0  0  0
M  CHG  1  88   1
M  ISO  4   1 100  68 101  85 101  87 100
M  END
> <chiral flag>
0

> <version>
0

> <s_m_source_file>
/data/baiqing/PycharmProjects/Reinvent-master-3.2/result/LINK_invent/BTK/process_docking_weight1_custom_sum_contain_oxygen_bond_distance_aromatic_linkinvent_7_9_3/rearranged_h_0172.sdf

> <i_m_source_file_index>
57

> <r_mmod_Potential_Energy-OPLS-2005>
403.000762939453

> <r_mmod_Stretch_Energy-OPLS-2005>
272.911102294922

> <r_mmod_Bend_Energy-OPLS-2005>
350.265533447266

> <r_mmod_Torsional_Energy-OPLS-2005>
307.437194824219

> <r_mmod_Improper_Torsional_Energy-OPLS-2005>
8.49904727935791

> <r_mmod_Van_der_Waal_Energy-OPLS-2005>
145.343521118164

> <r_mmod_Electrostatic_Energy-OPLS-2005>
-431.8271484375

> <r_mmod_Solvation_Energy-OPLS-2005>
-474.264099121094

> <b_mmod_Minimization_Converged-OPLS-2005>
0

> <r_mmod_RMS_Derivative-OPLS-2005>
2.45025229454041

$$$$
57
                    3D
 Structure written by MMmdl.
165174  0  0  1  0            999 V2000
  -30.6444  -14.8613   20.4297 C   0  0  0  0  0  0
  -30.4143  -12.5390   19.4802 C   0  0  0  0  0  0
  -29.4986  -12.5048   18.2400 C   0  0  0  0  0  0
  -28.0374  -12.2894   18.6711 C   0  0  0  0  0  0
  -27.6195  -13.2308   19.8294 C   0  0  2  0  0  0
  -28.6695  -13.2938   20.9607 C   0  0  0  0  0  0
  -25.2446  -13.8169   20.5729 C   0  0  0  0  0  0
  -24.1754  -13.0417   20.9245 C   0  0  0  0  0  0
  -24.6353  -11.6894   20.8784 C   0  0  0  0  0  0
  -23.9041  -10.4276   21.0431 C   0  0  0  0  0  0
  -24.3602   -9.4192   21.9199 C   0  0  0  0  0  0
  -23.6279   -8.2224   22.0760 C   0  0  0  0  0  0
  -22.4261   -8.0269   21.3549 C   0  0  0  0  0  0
  -21.9898   -9.0239   20.4648 C   0  0  0  0  0  0
  -22.7222  -10.2118   20.3066 C   0  0  0  0  0  0
  -21.6847   -6.0727   22.5279 C   0  0  0  0  0  0
  -21.4008   -6.5635   23.8211 C   0  0  0  0  0  0
  -21.3659   -5.6791   24.9176 C   0  0  0  0  0  0
  -21.6047   -4.3053   24.7227 C   0  0  0  0  0  0
  -21.8822   -3.8143   23.4349 C   0  0  0  0  0  0
  -21.9187   -4.6957   22.3403 C   0  0  0  0  0  0
  -22.7781  -13.5203   21.1893 C   0  0  0  0  0  0
  -22.1661   -4.2143   21.0982 F   0  0  0  0  0  0
  -21.5630   -3.4539   25.7742 F   0  0  0  0  0  0
  -29.9503  -13.6603   20.3441 N   0  0  0  0  0  0
  -26.2841  -12.9363   20.3268 N   0  0  0  0  0  0
  -25.9276  -11.6515   20.5786 N   0  0  0  0  0  0
  -22.0433  -12.8198   22.0450 N   0  0  0  0  0  0
  -25.4127  -15.1897   20.4152 N   0  0  0  0  0  0
  -31.8576  -14.8186   20.2016 O   0  0  0  0  0  0
  -21.6630   -6.8864   21.4238 O   0  0  0  0  0  0
  -22.3478  -14.5512   20.6730 O   0  0  0  0  0  0
  -24.6383  -31.8496   23.1940 C   0  0  0  0  0  0
  -25.9186  -32.4722   23.8307 C   0  0  1  0  0  0
  -27.2185  -27.1979   20.1406 C   0  0  0  0  0  0
  -25.5952  -33.8527   24.2226 N   0  0  0  0  0  0
  -23.4388  -30.4694   21.5384 C   0  0  2  0  0  0
  -24.8873  -28.9039   20.1141 C   0  0  0  0  0  0
  -22.7537  -29.4568   22.4892 C   0  0  0  0  0  0
  -18.0301  -28.1379   22.8473 C   0  0  0  0  0  0
  -24.1483  -36.7248   23.2646 C   0  0  0  0  0  0
  -25.9909  -30.7400   21.3859 C   0  0  0  0  0  0
  -26.0626  -29.3568   20.7275 C   0  0  0  0  0  0
  -27.2333  -28.5197   20.7238 C   0  0  0  0  0  0
  -26.0219  -26.8327   19.4888 C   0  0  0  0  0  0
  -24.8748  -27.6515   19.4816 C   0  0  0  0  0  0
  -23.6625  -29.8004   20.1568 C   0  0  0  0  0  0
  -25.4116  -36.3040   24.0320 C   0  0  1  0  0  0
  -20.5910  -28.3700   23.1242 C   0  0  2  0  0  0
  -20.6782  -26.9410   22.5398 C   0  0  0  0  0  0
  -19.5758  -26.6369   21.5201 C   0  0  0  0  0  0
  -18.1938  -26.7920   22.1612 C   0  0  0  0  0  0
  -19.1557  -28.8856   23.2849 C   0  0  0  0  0  0
  -18.9483  -30.1451   23.8874 C   0  0  0  0  0  0
  -17.6481  -30.6578   24.0551 C   0  0  0  0  0  0
  -25.9070  -34.9420   23.5077 C   0  0  0  0  0  0
  -16.5368  -29.9069   23.6335 C   0  0  0  0  0  0
  -16.7289  -28.6483   23.0363 C   0  0  0  0  0  0
  -26.4530  -31.6578   25.0730 C   0  0  0  0  0  0
  -25.3729  -31.3722   26.1430 C   0  0  0  0  0  0
  -27.0424  -30.2998   24.6275 C   0  0  0  0  0  0
  -27.6056  -32.4356   25.7505 C   0  0  0  0  0  0
  -27.5569  -37.1776   24.8476 C   0  0  0  0  0  0
  -21.4243  -29.3036   22.3632 N   0  0  0  0  0  0
  -26.4283  -37.3750   23.9417 N   0  0  0  0  0  0
  -24.7085  -31.0398   22.0946 N   0  0  0  0  0  0
  -23.4202  -28.8117   23.3026 O   0  0  0  0  0  0
  -28.2898  -26.2550   20.1513 O   0  0  0  0  0  0
  -26.5645  -34.8907   22.4650 O   0  0  0  0  0  0
  -23.5515  -32.1365   23.7187 O   0  0  0  0  0  0
  -29.4629  -20.9469   19.9638 C   0  0  0  0  0  0
  -28.7426  -22.1110   20.5273 C   0  0  0  0  0  0
  -28.8337  -23.4897   19.9907 C   0  0  0  0  0  0
  -30.2633  -21.3044   18.8404 C   0  0  0  0  0  0
  -29.6693  -23.5986   18.8602 C   0  0  0  0  0  0
  -28.7270  -18.2567   19.6783 C   0  0  0  0  0  0
  -30.7972  -18.6916   20.8755 C   0  0  0  0  0  0
  -28.7702  -16.7192   20.1737 C   0  0  0  0  0  0
  -30.7521  -17.2091   21.4610 C   0  0  0  0  0  0
  -29.4322  -19.3931   20.5270 C   0  0  0  0  0  0
  -27.8598  -21.8594   21.7371 C   0  0  0  0  0  0
  -31.1698  -20.3440   18.0885 C   0  0  0  0  0  0
  -29.8797  -24.9089   18.1229 C   0  0  0  0  0  0
  -28.0199  -24.7952   20.5379 C   0  0  0  0  0  0
  -30.3427  -22.5554   18.3320 N   0  0  0  0  0  0
  -30.0490  -16.1265   20.6910 N   0  0  0  0  0  0
  -31.4534  -12.6492   19.1661 H   0  0  0  0  0  0
  -30.3683  -11.5930   20.0226 H   0  0  0  0  0  0
  -29.8089  -11.7124   17.5571 H   0  0  0  0  0  0
  -29.5871  -13.4422   17.6881 H   0  0  0  0  0  0
  -27.9389  -11.2505   18.9889 H   0  0  0  0  0  0
  -27.3667  -12.4115   17.8200 H   0  0  0  0  0  0
  -27.5589  -14.2117   19.3710 H   0  0  0  0  0  0
  -28.7464  -12.3390   21.4824 H   0  0  0  0  0  0
  -28.3820  -14.0360   21.7072 H   0  0  0  0  0  0
  -25.2739   -9.5677   22.4783 H   0  0  0  0  0  0
  -23.9992   -7.4621   22.7480 H   0  0  0  0  0  0
  -21.0831   -8.8757   19.8947 H   0  0  0  0  0  0
  -22.3679  -10.9665   19.6182 H   0  0  0  0  0  0
  -21.1999   -7.6144   23.9712 H   0  0  0  0  0  0
  -21.1483   -6.0522   25.9081 H   0  0  0  0  0  0
  -22.0598   -2.7605   23.2852 H   0  0  0  0  0  0
  -22.4044  -11.9852   22.4826 H   0  0  0  0  0  0
  -21.1056  -13.1231   22.2667 H   0  0  0  0  0  0
  -24.6454  -15.8427   20.5311 H   0  0  0  0  0  0
  -26.2649  -15.6314   20.0976 H   0  0  0  0  0  0
  -26.7247  -32.5355   23.1034 H   0  0  0  0  0  0
  -25.0094  -33.9650   25.0369 H   0  0  0  0  0  0
  -22.7378  -31.2929   21.3865 H   0  0  0  0  0  0
  -23.3753  -35.9575   23.3307 H   0  0  0  0  0  0
  -24.3564  -36.8895   22.2066 H   0  0  0  0  0  0
  -23.7241  -37.6436   23.6693 H   0  0  0  0  0  0
  -26.1458  -31.4973   20.6167 H   0  0  0  0  0  0
  -26.8623  -30.7854   22.0273 H   0  0  0  0  0  0
  -28.1341  -28.8631   21.2133 H   0  0  0  0  0  0
  -25.9592  -25.8822   18.9790 H   0  0  0  0  0  0
  -23.9778  -27.3021   18.9883 H   0  0  0  0  0  0
  -23.7967  -30.5749   19.4009 H   0  0  0  0  0  0
  -22.7790  -29.2411   19.8467 H   0  0  0  0  0  0
  -25.1307  -36.1860   25.0812 H   0  0  0  0  0  0
  -21.0002  -28.3277   24.1363 H   0  0  0  0  0  0
  -20.5666  -26.2312   23.3610 H   0  0  0  0  0  0
  -21.6651  -26.7408   22.1207 H   0  0  0  0  0  0
  -19.6916  -25.6272   21.1250 H   0  0  0  0  0  0
  -19.6694  -27.3156   20.6712 H   0  0  0  0  0  0
  -17.4211  -26.6664   21.4011 H   0  0  0  0  0  0
  -18.0334  -26.0062   22.9008 H   0  0  0  0  0  0
  -19.7964  -30.7265   24.2235 H   0  0  0  0  0  0
  -17.5044  -31.6262   24.5145 H   0  0  0  0  0  0
  -15.5370  -30.2967   23.7670 H   0  0  0  0  0  0
  -15.8686  -28.0793   22.7104 H   0  0  0  0  0  0
  -24.5924  -30.7051   25.7744 H   0  0  0  0  0  0
  -24.8887  -32.2887   26.4814 H   0  0  0  0  0  0
  -25.8042  -30.8925   27.0229 H   0  0  0  0  0  0
  -26.3044  -29.6692   24.1307 H   0  0  0  0  0  0
  -27.4109  -29.7317   25.4827 H   0  0  0  0  0  0
  -27.8917  -30.4278   23.9559 H   0  0  0  0  0  0
  -27.2656  -33.3698   26.1988 H   0  0  0  0  0  0
  -28.3900  -32.6860   25.0349 H   0  0  0  0  0  0
  -28.0685  -31.8552   26.5499 H   0  0  0  0  0  0
  -28.2577  -38.0077   24.7525 H   0  0  0  0  0  0
  -28.1071  -36.2608   24.6304 H   0  0  0  0  0  0
  -27.2282  -37.1426   25.8876 H   0  0  0  0  0  0
  -20.9448  -29.8765   21.6833 H   0  0  0  0  0  0
  -26.0145  -38.2812   24.1437 H   0  0  0  0  0  0
  -27.6803  -18.5360   19.5509 H   0  0  0  0  0  0
  -29.1215  -18.2583   18.6665 H   0  0  0  0  0  0
  -31.4425  -18.6464   20.0039 H   0  0  0  0  0  0
  -31.3267  -19.3228   21.5896 H   0  0  0  0  0  0
  -28.4363  -16.1184   19.3320 H   0  0  0  0  0  0
  -28.0283  -16.5880   20.9617 H   0  0  0  0  0  0
  -30.2763  -17.2473   22.4412 H   0  0  0  0  0  0
  -31.7794  -16.9020   21.6650 H   0  0  0  0  0  0
  -28.8853  -19.4335   21.4683 H   0  0  0  0  0  0
  -27.1287  -21.0826   21.5149 H   0  0  0  0  0  0
  -27.3051  -22.7386   22.0582 H   0  0  0  0  0  0
  -28.4688  -21.5292   22.5785 H   0  0  0  0  0  0
  -30.7576  -19.3478   17.9837 H   0  0  0  0  0  0
  -32.1345  -20.2759   18.5904 H   0  0  0  0  0  0
  -31.3611  -20.6979   17.0742 H   0  0  0  0  0  0
  -28.9301  -25.3076   17.7660 H   0  0  0  0  0  0
  -30.5303  -24.7868   17.2559 H   0  0  0  0  0  0
  -30.3458  -25.6456   18.7767 H   0  0  0  0  0  0
  -28.1587  -24.7902   21.6186 H   0  0  0  0  0  0
  -26.9660  -24.5609   20.3994 H   0  0  0  0  0  0
  1 25  1  0  0  0
  1 30  2  0  0  0
  1 86  1  0  0  0
  2  3  1  0  0  0
  2 25  1  0  0  0
  2 87  1  0  0  0
  2 88  1  0  0  0
  3  4  1  0  0  0
  3 89  1  0  0  0
  3 90  1  0  0  0
  4  5  1  0  0  0
  4 91  1  0  0  0
  4 92  1  0  0  0
  5  6  1  0  0  0
  5 26  1  0  0  0
  5 93  1  0  0  0
  6 25  1  0  0  0
  6 94  1  0  0  0
  6 95  1  0  0  0
  7  8  2  0  0  0
  7 26  1  0  0  0
  7 29  1  0  0  0
  8  9  1  0  0  0
  8 22  1  0  0  0
  9 10  1  0  0  0
  9 27  2  0  0  0
 10 11  2  0  0  0
 10 15  1  0  0  0
 11 12  1  0  0  0
 11 96  1  0  0  0
 12 13  2  0  0  0
 12 97  1  0  0  0
 13 14  1  0  0  0
 13 31  1  0  0  0
 14 15  2  0  0  0
 14 98  1  0  0  0
 15 99  1  0  0  0
 16 17  2  0  0  0
 16 21  1  0  0  0
 16 31  1  0  0  0
 17 18  1  0  0  0
 17100  1  0  0  0
 18 19  2  0  0  0
 18101  1  0  0  0
 19 20  1  0  0  0
 19 24  1  0  0  0
 20 21  2  0  0  0
 20102  1  0  0  0
 21 23  1  0  0  0
 22 28  1  0  0  0
 22 32  2  0  0  0
 26 27  1  0  0  0
 28103  1  0  0  0
 28104  1  0  0  0
 29105  1  0  0  0
 29106  1  0  0  0
 33 34  1  0  0  0
 33 66  1  0  0  0
 33 70  2  0  0  0
 34 36  1  0  0  0
 34 59  1  0  0  0
 34107  1  0  0  0
 35 44  2  0  0  0
 35 45  1  0  0  0
 35 68  1  0  0  0
 36 56  1  0  0  0
 36108  1  0  0  0
 37 39  1  0  0  0
 37 47  1  0  0  0
 37 66  1  0  0  0
 37109  1  0  0  0
 38 43  2  0  0  0
 38 46  1  0  0  0
 38 47  1  0  0  0
 39 64  1  0  0  0
 39 67  2  0  0  0
 40 52  1  0  0  0
 40 53  2  0  0  0
 40 58  1  0  0  0
 41110  1  0  0  0
 41111  1  0  0  0
 41112  1  0  0  0
 41 48  1  0  0  0
 42 43  1  0  0  0
 42 66  1  0  0  0
 42113  1  0  0  0
 42114  1  0  0  0
 43 44  1  0  0  0
 44115  1  0  0  0
 45 46  2  0  0  0
 45116  1  0  0  0
 46117  1  0  0  0
 47118  1  0  0  0
 47119  1  0  0  0
 48 56  1  0  0  0
 48 65  1  0  0  0
 48120  1  0  0  0
 49 50  1  0  0  0
 49 53  1  0  0  0
 49 64  1  0  0  0
 49121  1  0  0  0
 50 51  1  0  0  0
 50122  1  0  0  0
 50123  1  0  0  0
 51 52  1  0  0  0
 51124  1  0  0  0
 51125  1  0  0  0
 52126  1  0  0  0
 52127  1  0  0  0
 53 54  1  0  0  0
 54 55  2  0  0  0
 54128  1  0  0  0
 55 57  1  0  0  0
 55129  1  0  0  0
 56 69  2  0  0  0
 57 58  2  0  0  0
 57130  1  0  0  0
 58131  1  0  0  0
 59 60  1  0  0  0
 59 61  1  0  0  0
 59 62  1  0  0  0
 60132  1  0  0  0
 60133  1  0  0  0
 60134  1  0  0  0
 61135  1  0  0  0
 61136  1  0  0  0
 61137  1  0  0  0
 62138  1  0  0  0
 62139  1  0  0  0
 62140  1  0  0  0
 63 65  1  0  0  0
 63141  1  0  0  0
 63142  1  0  0  0
 63143  1  0  0  0
 64144  1  0  0  0
 65145  1  0  0  0
 68 84  1  0  0  0
 71 72  2  0  0  0
 71 74  1  0  0  0
 71 80  1  0  0  0
 72 73  1  0  0  0
 72 81  1  0  0  0
 73 75  2  0  0  0
 73 84  1  0  0  0
 74 82  1  0  0  0
 74 85  2  0  0  0
 75 83  1  0  0  0
 75 85  1  0  0  0
 76 78  1  0  0  0
 76 80  1  0  0  0
 76146  1  0  0  0
 76147  1  0  0  0
 77 79  1  0  0  0
 77 80  1  0  0  0
 77148  1  0  0  0
 77149  1  0  0  0
 78 86  1  0  0  0
 78150  1  0  0  0
 78151  1  0  0  0
 79 86  1  0  0  0
 79152  1  0  0  0
 79153  1  0  0  0
 80154  1  0  0  0
 81155  1  0  0  0
 81156  1  0  0  0
 81157  1  0  0  0
 82158  1  0  0  0
 82159  1  0  0  0
 82160  1  0  0  0
 83161  1  0  0  0
 83162  1  0  0  0
 83163  1  0  0  0
 84164  1  0  0  0
 84165  1  0  0  0
M  ISO  4   1 100  68 101  84 101  86 100
M  END
> <chiral flag>
0

> <version>
0

> <s_m_source_file>
/data/baiqing/PycharmProjects/Reinvent-master-3.2/result/LINK_invent/BTK/process_docking_weight1_custom_sum_contain_oxygen_bond_distance_aromatic_linkinvent_7_9_3/rearranged_h_0172.sdf

> <i_m_source_file_index>
58

> <r_mmod_Potential_Energy-OPLS-2005>
426.871246337891

> <r_mmod_Stretch_Energy-OPLS-2005>
190.380416870117

> <r_mmod_Bend_Energy-OPLS-2005>
239.780776977539

> <r_mmod_Torsional_Energy-OPLS-2005>
337.630340576172

> <r_mmod_Improper_Torsional_Energy-OPLS-2005>
1.93758893013

> <r_mmod_Van_der_Waal_Energy-OPLS-2005>
145.806106567383

> <r_mmod_Electrostatic_Energy-OPLS-2005>
-418.221099853516

> <r_mmod_Solvation_Energy-OPLS-2005>
-212.324951171875

> <b_mmod_Minimization_Converged-OPLS-2005>
0

> <r_mmod_RMS_Derivative-OPLS-2005>
1.26584625244141

$$$$
58
                    3D
 Structure written by MMmdl.
172182  0  0  1  0            999 V2000
  -30.6291  -14.8540   20.4370 C   0  0  0  0  0  0
  -30.4189  -12.5338   19.4849 C   0  0  0  0  0  0
  -29.5066  -12.5080   18.2419 C   0  0  0  0  0  0
  -28.0388  -12.3183   18.6650 C   0  0  0  0  0  0
  -27.6275  -13.2494   19.8373 C   0  0  2  0  0  0
  -28.6733  -13.2702   20.9709 C   0  0  0  0  0  0
  -25.2465  -13.8244   20.5739 C   0  0  0  0  0  0
  -24.1770  -13.0463   20.9224 C   0  0  0  0  0  0
  -24.6383  -11.6945   20.8763 C   0  0  0  0  0  0
  -23.9073  -10.4306   21.0412 C   0  0  0  0  0  0
  -24.3627   -9.4217   21.9188 C   0  0  0  0  0  0
  -23.6297   -8.2252   22.0758 C   0  0  0  0  0  0
  -22.4276   -8.0289   21.3549 C   0  0  0  0  0  0
  -21.9909   -9.0267   20.4654 C   0  0  0  0  0  0
  -22.7243  -10.2143   20.3064 C   0  0  0  0  0  0
  -21.6853   -6.0736   22.5277 C   0  0  0  0  0  0
  -21.4016   -6.5639   23.8210 C   0  0  0  0  0  0
  -21.3661   -5.6792   24.9175 C   0  0  0  0  0  0
  -21.6045   -4.3054   24.7223 C   0  0  0  0  0  0
  -21.8820   -3.8146   23.4344 C   0  0  0  0  0  0
  -21.9190   -4.6963   22.3402 C   0  0  0  0  0  0
  -22.7788  -13.5232   21.1874 C   0  0  0  0  0  0
  -22.1663   -4.2152   21.0978 F   0  0  0  0  0  0
  -21.5627   -3.4538   25.7735 F   0  0  0  0  0  0
  -29.9475  -13.6480   20.3538 N   0  0  0  0  0  0
  -26.2880  -12.9475   20.3274 N   0  0  0  0  0  0
  -25.9316  -11.6600   20.5762 N   0  0  0  0  0  0
  -22.0436  -12.8220   22.0429 N   0  0  0  0  0  0
  -25.4173  -15.1972   20.4208 N   0  0  0  0  0  0
  -31.8427  -14.8063   20.2063 O   0  0  0  0  0  0
  -21.6645   -6.8882   21.4240 O   0  0  0  0  0  0
  -22.3473  -14.5535   20.6718 O   0  0  0  0  0  0
  -24.6403  -31.8484   23.1936 C   0  0  0  0  0  0
  -25.9195  -32.4716   23.8303 C   0  0  1  0  0  0
  -27.2049  -27.1730   20.1398 C   0  0  0  0  0  0
  -25.5959  -33.8523   24.2217 N   0  0  0  0  0  0
  -23.4403  -30.4723   21.5389 C   0  0  2  0  0  0
  -24.8861  -28.9108   20.1103 C   0  0  0  0  0  0
  -22.7548  -29.4569   22.4875 C   0  0  0  0  0  0
  -18.0301  -28.1393   22.8478 C   0  0  0  0  0  0
  -24.1492  -36.7265   23.2640 C   0  0  0  0  0  0
  -25.9957  -30.7336   21.3885 C   0  0  0  0  0  0
  -26.0647  -29.3505   20.7265 C   0  0  0  0  0  0
  -27.2276  -28.4975   20.7251 C   0  0  0  0  0  0
  -25.9998  -26.8310   19.4850 C   0  0  0  0  0  0
  -24.8647  -27.6632   19.4750 C   0  0  0  0  0  0
  -23.6635  -29.8095   20.1554 C   0  0  0  0  0  0
  -25.4123  -36.3042   24.0315 C   0  0  1  0  0  0
  -20.5914  -28.3712   23.1242 C   0  0  2  0  0  0
  -20.6789  -26.9420   22.5401 C   0  0  0  0  0  0
  -19.5762  -26.6382   21.5208 C   0  0  0  0  0  0
  -18.1943  -26.7930   22.1621 C   0  0  0  0  0  0
  -19.1560  -28.8869   23.2852 C   0  0  0  0  0  0
  -18.9475  -30.1469   23.8875 C   0  0  0  0  0  0
  -17.6475  -30.6586   24.0559 C   0  0  0  0  0  0
  -25.9070  -34.9419   23.5070 C   0  0  0  0  0  0
  -16.5364  -29.9081   23.6338 C   0  0  0  0  0  0
  -16.7289  -28.6500   23.0353 C   0  0  0  0  0  0
  -26.4528  -31.6574   25.0732 C   0  0  0  0  0  0
  -25.3727  -31.3764   26.1438 C   0  0  0  0  0  0
  -27.0389  -30.2971   24.6302 C   0  0  0  0  0  0
  -27.6058  -32.4342   25.7513 C   0  0  0  0  0  0
  -27.5576  -37.1792   24.8465 C   0  0  0  0  0  0
  -21.4245  -29.3047   22.3619 N   0  0  0  0  0  0
  -26.4288  -37.3753   23.9404 N   0  0  0  0  0  0
  -24.7118  -31.0379   22.0953 N   0  0  0  0  0  0
  -23.4213  -28.8105   23.2997 O   0  0  0  0  0  0
  -28.2570  -26.2001   20.1998 O   0  0  0  0  0  0
  -26.5645  -34.8907   22.4641 O   0  0  0  0  0  0
  -23.5530  -32.1342   23.7182 O   0  0  0  0  0  0
  -29.8459  -21.0256   20.3619 C   0  0  0  0  0  0
  -31.1431  -21.6379   20.2610 C   0  0  0  0  0  0
  -28.7548  -22.0188   20.3505 C   0  0  0  0  0  0
  -31.2735  -23.0512   20.1289 C   0  0  0  0  0  0
  -28.9878  -23.4810   20.2568 C   0  0  0  0  0  0
  -32.6078  -23.7514   19.8680 C   0  0  0  0  0  0
  -33.8584  -22.8656   19.9012 C   0  0  0  0  0  0
  -33.5584  -21.4377   19.4501 C   0  0  0  0  0  0
  -28.8087  -18.4389   21.1970 C   0  0  0  0  0  0
  -30.0200  -18.5558   19.1422 C   0  0  0  0  0  0
  -29.2730  -16.8876   21.3971 C   0  0  0  0  0  0
  -30.6220  -17.1005   19.3507 C   0  0  0  0  0  0
  -29.8198  -19.3730   20.4480 C   0  0  0  0  0  0
  -32.4420  -20.8070   20.2944 C   0  0  1  0  0  0
  -27.3307  -21.4981   20.4321 C   0  0  0  0  0  0
  -32.9120  -20.5532   21.7437 C   0  0  0  0  0  0
  -27.9066  -24.6945   20.1726 C   0  0  0  0  0  0
  -30.2473  -23.9204   20.1437 N   0  0  0  0  0  0
  -29.9800  -16.1178   20.2977 N   0  0  0  0  0  0
  -31.4580  -12.6490   19.1733 H   0  0  0  0  0  0
  -30.3766  -11.5840   20.0196 H   0  0  0  0  0  0
  -29.8088  -11.7072   17.5659 H   0  0  0  0  0  0
  -29.6156  -13.4387   17.6826 H   0  0  0  0  0  0
  -27.9196  -11.2765   18.9640 H   0  0  0  0  0  0
  -27.3763  -12.4679   17.8117 H   0  0  0  0  0  0
  -27.5959  -14.2548   19.4155 H   0  0  0  0  0  0
  -28.7462  -12.2987   21.4621 H   0  0  0  0  0  0
  -28.3922  -13.9871   21.7427 H   0  0  0  0  0  0
  -25.2776   -9.5693   22.4760 H   0  0  0  0  0  0
  -24.0010   -7.4639   22.7471 H   0  0  0  0  0  0
  -21.0839   -8.8789   19.8957 H   0  0  0  0  0  0
  -22.3706  -10.9684   19.6174 H   0  0  0  0  0  0
  -21.2018   -7.6148   23.9717 H   0  0  0  0  0  0
  -21.1482   -6.0522   25.9077 H   0  0  0  0  0  0
  -22.0596   -2.7605   23.2845 H   0  0  0  0  0  0
  -22.4052  -11.9893   22.4840 H   0  0  0  0  0  0
  -21.1057  -13.1244   22.2635 H   0  0  0  0  0  0
  -24.6572  -15.8568   20.5470 H   0  0  0  0  0  0
  -26.2780  -15.6366   20.1193 H   0  0  0  0  0  0
  -26.7258  -32.5332   23.1031 H   0  0  0  0  0  0
  -25.0101  -33.9645   25.0360 H   0  0  0  0  0  0
  -22.7410  -31.2976   21.3902 H   0  0  0  0  0  0
  -23.3755  -35.9596   23.3300 H   0  0  0  0  0  0
  -24.3574  -36.8896   22.2054 H   0  0  0  0  0  0
  -23.7250  -37.6463   23.6675 H   0  0  0  0  0  0
  -26.1524  -31.4927   20.6206 H   0  0  0  0  0  0
  -26.8661  -30.7764   22.0319 H   0  0  0  0  0  0
  -28.1262  -28.8278   21.2274 H   0  0  0  0  0  0
  -25.8864  -25.8871   18.9772 H   0  0  0  0  0  0
  -23.9656  -27.3239   18.9789 H   0  0  0  0  0  0
  -23.7997  -30.5869   19.4027 H   0  0  0  0  0  0
  -22.7782  -29.2525   19.8430 H   0  0  0  0  0  0
  -25.1312  -36.1875   25.0808 H   0  0  0  0  0  0
  -21.0006  -28.3299   24.1363 H   0  0  0  0  0  0
  -20.5684  -26.2323   23.3615 H   0  0  0  0  0  0
  -21.6656  -26.7430   22.1200 H   0  0  0  0  0  0
  -19.6923  -25.6287   21.1249 H   0  0  0  0  0  0
  -19.6697  -27.3184   20.6732 H   0  0  0  0  0  0
  -17.4210  -26.6672   21.4027 H   0  0  0  0  0  0
  -18.0346  -26.0077   22.9023 H   0  0  0  0  0  0
  -19.7952  -30.7293   24.2230 H   0  0  0  0  0  0
  -17.5026  -31.6265   24.5167 H   0  0  0  0  0  0
  -15.5364  -30.2974   23.7675 H   0  0  0  0  0  0
  -15.8686  -28.0814   22.7078 H   0  0  0  0  0  0
  -24.5885  -30.7133   25.7767 H   0  0  0  0  0  0
  -24.8946  -32.2953   26.4843 H   0  0  0  0  0  0
  -25.8020  -30.8945   27.0231 H   0  0  0  0  0  0
  -26.3004  -29.6698   24.1297 H   0  0  0  0  0  0
  -27.3989  -29.7265   25.4874 H   0  0  0  0  0  0
  -27.8921  -30.4205   23.9627 H   0  0  0  0  0  0
  -27.2642  -33.3653   26.2049 H   0  0  0  0  0  0
  -28.3890  -32.6891   25.0359 H   0  0  0  0  0  0
  -28.0706  -31.8504   26.5467 H   0  0  0  0  0  0
  -28.2595  -38.0086   24.7499 H   0  0  0  0  0  0
  -28.1069  -36.2617   24.6306 H   0  0  0  0  0  0
  -27.2292  -37.1460   25.8868 H   0  0  0  0  0  0
  -20.9443  -29.8770   21.6817 H   0  0  0  0  0  0
  -26.0158  -38.2823   24.1405 H   0  0  0  0  0  0
  -32.7320  -24.5798   20.5663 H   0  0  0  0  0  0
  -32.5381  -24.2028   18.8772 H   0  0  0  0  0  0
  -34.2541  -22.8448   20.9160 H   0  0  0  0  0  0
  -34.6467  -23.3070   19.2909 H   0  0  0  0  0  0
  -34.4620  -20.8287   19.5026 H   0  0  0  0  0  0
  -33.2603  -21.4436   18.3999 H   0  0  0  0  0  0
  -28.6041  -18.8627   22.1807 H   0  0  0  0  0  0
  -27.8524  -18.4603   20.6735 H   0  0  0  0  0  0
  -29.0767  -18.4991   18.5979 H   0  0  0  0  0  0
  -30.6874  -19.1021   18.4758 H   0  0  0  0  0  0
  -28.4004  -16.3105   21.7036 H   0  0  0  0  0  0
  -29.9456  -16.8609   22.2558 H   0  0  0  0  0  0
  -31.6557  -17.2436   19.6723 H   0  0  0  0  0  0
  -30.6877  -16.6210   18.3725 H   0  0  0  0  0  0
  -30.6879  -19.1601   21.0577 H   0  0  0  0  0  0
  -32.2886  -19.8397   19.8250 H   0  0  0  0  0  0
  -27.1737  -20.7016   19.7040 H   0  0  0  0  0  0
  -26.5919  -22.2739   20.2334 H   0  0  0  0  0  0
  -27.1336  -21.0925   21.4250 H   0  0  0  0  0  0
  -33.1197  -21.4810   22.2757 H   0  0  0  0  0  0
  -33.8229  -19.9538   21.7589 H   0  0  0  0  0  0
  -32.1726  -20.0213   22.3395 H   0  0  0  0  0  0
  -27.1752  -24.5221   20.9631 H   0  0  0  0  0  0
  -27.3952  -24.4893   19.2341 H   0  0  0  0  0  0
  1 25  1  0  0  0
  1 30  2  0  0  0
  1 89  1  0  0  0
  2  3  1  0  0  0
  2 25  1  0  0  0
  2 90  1  0  0  0
  2 91  1  0  0  0
  3  4  1  0  0  0
  3 92  1  0  0  0
  3 93  1  0  0  0
  4  5  1  0  0  0
  4 94  1  0  0  0
  4 95  1  0  0  0
  5  6  1  0  0  0
  5 26  1  0  0  0
  5 96  1  0  0  0
  6 25  1  0  0  0
  6 97  1  0  0  0
  6 98  1  0  0  0
  7  8  2  0  0  0
  7 26  1  0  0  0
  7 29  1  0  0  0
  8  9  1  0  0  0
  8 22  1  0  0  0
  9 10  1  0  0  0
  9 27  2  0  0  0
 10 11  2  0  0  0
 10 15  1  0  0  0
 11 12  1  0  0  0
 11 99  1  0  0  0
 12 13  2  0  0  0
 12100  1  0  0  0
 13 14  1  0  0  0
 13 31  1  0  0  0
 14 15  2  0  0  0
 14101  1  0  0  0
 15102  1  0  0  0
 16 17  2  0  0  0
 16 21  1  0  0  0
 16 31  1  0  0  0
 17 18  1  0  0  0
 17103  1  0  0  0
 18 19  2  0  0  0
 18104  1  0  0  0
 19 20  1  0  0  0
 19 24  1  0  0  0
 20 21  2  0  0  0
 20105  1  0  0  0
 21 23  1  0  0  0
 22 28  1  0  0  0
 22 32  2  0  0  0
 26 27  1  0  0  0
 28106  1  0  0  0
 28107  1  0  0  0
 29108  1  0  0  0
 29109  1  0  0  0
 33 34  1  0  0  0
 33 66  1  0  0  0
 33 70  2  0  0  0
 34 36  1  0  0  0
 34 59  1  0  0  0
 34110  1  0  0  0
 35 44  2  0  0  0
 35 45  1  0  0  0
 35 68  1  0  0  0
 36 56  1  0  0  0
 36111  1  0  0  0
 37 39  1  0  0  0
 37 47  1  0  0  0
 37 66  1  0  0  0
 37112  1  0  0  0
 38 43  2  0  0  0
 38 46  1  0  0  0
 38 47  1  0  0  0
 39 64  1  0  0  0
 39 67  2  0  0  0
 40 52  1  0  0  0
 40 53  2  0  0  0
 40 58  1  0  0  0
 41113  1  0  0  0
 41114  1  0  0  0
 41115  1  0  0  0
 41 48  1  0  0  0
 42 43  1  0  0  0
 42 66  1  0  0  0
 42116  1  0  0  0
 42117  1  0  0  0
 43 44  1  0  0  0
 44118  1  0  0  0
 45 46  2  0  0  0
 45119  1  0  0  0
 46120  1  0  0  0
 47121  1  0  0  0
 47122  1  0  0  0
 48 56  1  0  0  0
 48 65  1  0  0  0
 48123  1  0  0  0
 49 50  1  0  0  0
 49 53  1  0  0  0
 49 64  1  0  0  0
 49124  1  0  0  0
 50 51  1  0  0  0
 50125  1  0  0  0
 50126  1  0  0  0
 51 52  1  0  0  0
 51127  1  0  0  0
 51128  1  0  0  0
 52129  1  0  0  0
 52130  1  0  0  0
 53 54  1  0  0  0
 54 55  2  0  0  0
 54131  1  0  0  0
 55 57  1  0  0  0
 55132  1  0  0  0
 56 69  2  0  0  0
 57 58  2  0  0  0
 57133  1  0  0  0
 58134  1  0  0  0
 59 60  1  0  0  0
 59 61  1  0  0  0
 59 62  1  0  0  0
 60135  1  0  0  0
 60136  1  0  0  0
 60137  1  0  0  0
 61138  1  0  0  0
 61139  1  0  0  0
 61140  1  0  0  0
 62141  1  0  0  0
 62142  1  0  0  0
 62143  1  0  0  0
 63 65  1  0  0  0
 63144  1  0  0  0
 63145  1  0  0  0
 63146  1  0  0  0
 64147  1  0  0  0
 65148  1  0  0  0
 68 87  1  0  0  0
 71 72  1  0  0  0
 71 73  2  0  0  0
 71 83  1  0  0  0
 72 74  2  0  0  0
 72 84  1  0  0  0
 73 75  1  0  0  0
 73 85  1  0  0  0
 74 76  1  0  0  0
 74 88  1  0  0  0
 75 87  1  0  0  0
 75 88  2  0  0  0
 76 77  1  0  0  0
 76149  1  0  0  0
 76150  1  0  0  0
 77 78  1  0  0  0
 77151  1  0  0  0
 77152  1  0  0  0
 78 84  1  0  0  0
 78153  1  0  0  0
 78154  1  0  0  0
 79 81  1  0  0  0
 79 83  1  0  0  0
 79155  1  0  0  0
 79156  1  0  0  0
 80 82  1  0  0  0
 80 83  1  0  0  0
 80157  1  0  0  0
 80158  1  0  0  0
 81 89  1  0  0  0
 81159  1  0  0  0
 81160  1  0  0  0
 82 89  1  0  0  0
 82161  1  0  0  0
 82162  1  0  0  0
 83163  1  0  0  0
 84 86  1  0  0  0
 84164  1  0  0  0
 85165  1  0  0  0
 85166  1  0  0  0
 85167  1  0  0  0
 86168  1  0  0  0
 86169  1  0  0  0
 86170  1  0  0  0
 87171  1  0  0  0
 87172  1  0  0  0
M  ISO  4   1 100  68 101  87 101  89 100
M  END
> <chiral flag>
0

> <version>
0

> <s_m_source_file>
/data/baiqing/PycharmProjects/Reinvent-master-3.2/result/LINK_invent/BTK/process_docking_weight1_custom_sum_contain_oxygen_bond_distance_aromatic_linkinvent_7_9_3/rearranged_h_0172.sdf

> <i_m_source_file_index>
59

> <r_mmod_Potential_Energy-OPLS-2005>
509.112518310547

> <r_mmod_Stretch_Energy-OPLS-2005>
204.152877807617

> <r_mmod_Bend_Energy-OPLS-2005>
272.348815917969

> <r_mmod_Torsional_Energy-OPLS-2005>
333.714965820312

> <r_mmod_Improper_Torsional_Energy-OPLS-2005>
17.7525272369385

> <r_mmod_Van_der_Waal_Energy-OPLS-2005>
154.720321655273

> <r_mmod_Electrostatic_Energy-OPLS-2005>
-402.387481689453

> <r_mmod_Solvation_Energy-OPLS-2005>
-220.127838134766

> <b_mmod_Minimization_Converged-OPLS-2005>
0

> <r_mmod_RMS_Derivative-OPLS-2005>
1.02295553684235

$$$$
59
                    3D
 Structure written by MMmdl.
170179  0  0  1  0            999 V2000
  -30.6691  -14.6480   20.4936 C   0  0  0  0  0  0
  -30.4164  -12.4034   19.4632 C   0  0  0  0  0  0
  -29.4987  -12.5004   18.2279 C   0  0  0  0  0  0
  -28.0225  -12.3446   18.6396 C   0  0  0  0  0  0
  -27.6402  -13.2324   19.8545 C   0  0  2  0  0  0
  -28.6842  -13.1412   20.9878 C   0  0  0  0  0  0
  -25.2489  -13.8203   20.5717 C   0  0  0  0  0  0
  -24.1776  -13.0442   20.9204 C   0  0  0  0  0  0
  -24.6372  -11.6916   20.8747 C   0  0  0  0  0  0
  -23.9051  -10.4296   21.0400 C   0  0  0  0  0  0
  -24.3603   -9.4204   21.9180 C   0  0  0  0  0  0
  -23.6286   -8.2236   22.0744 C   0  0  0  0  0  0
  -22.4274   -8.0265   21.3534 C   0  0  0  0  0  0
  -21.9898   -9.0236   20.4638 C   0  0  0  0  0  0
  -22.7222  -10.2122   20.3053 C   0  0  0  0  0  0
  -21.6853   -6.0723   22.5274 C   0  0  0  0  0  0
  -21.4010   -6.5633   23.8210 C   0  0  0  0  0  0
  -21.3660   -5.6784   24.9172 C   0  0  0  0  0  0
  -21.6048   -4.3047   24.7227 C   0  0  0  0  0  0
  -21.8817   -3.8136   23.4350 C   0  0  0  0  0  0
  -21.9193   -4.6947   22.3399 C   0  0  0  0  0  0
  -22.7801  -13.5216   21.1871 C   0  0  0  0  0  0
  -22.1661   -4.2131   21.0975 F   0  0  0  0  0  0
  -21.5632   -3.4532   25.7742 F   0  0  0  0  0  0
  -29.9938  -13.4593   20.4070 N   0  0  0  0  0  0
  -26.2924  -12.9410   20.3311 N   0  0  0  0  0  0
  -25.9304  -11.6556   20.5757 N   0  0  0  0  0  0
  -22.0469  -12.8191   22.0442 N   0  0  0  0  0  0
  -25.4214  -15.1919   20.4167 N   0  0  0  0  0  0
  -31.8578  -14.7111   20.1687 O   0  0  0  0  0  0
  -21.6636   -6.8858   21.4237 O   0  0  0  0  0  0
  -22.3480  -14.5522   20.6726 O   0  0  0  0  0  0
  -24.6246  -31.8587   23.2028 C   0  0  0  0  0  0
  -25.9098  -32.4768   23.8357 C   0  0  1  0  0  0
  -27.2180  -27.3293   20.1179 C   0  0  0  0  0  0
  -25.5918  -33.8578   24.2289 N   0  0  0  0  0  0
  -23.4175  -30.4827   21.5439 C   0  0  2  0  0  0
  -24.8635  -28.9326   20.1172 C   0  0  0  0  0  0
  -22.7443  -29.4638   22.4942 C   0  0  0  0  0  0
  -18.0272  -28.1373   22.8506 C   0  0  0  0  0  0
  -24.1487  -36.7292   23.2639 C   0  0  0  0  0  0
  -25.9593  -30.7898   21.3737 C   0  0  0  0  0  0
  -26.0320  -29.4143   20.7261 C   0  0  0  0  0  0
  -27.2146  -28.6214   20.7234 C   0  0  0  0  0  0
  -26.0386  -26.8953   19.4871 C   0  0  0  0  0  0
  -24.8686  -27.6755   19.4917 C   0  0  0  0  0  0
  -23.6307  -29.8109   20.1617 C   0  0  0  0  0  0
  -25.4110  -36.3083   24.0323 C   0  0  1  0  0  0
  -20.5872  -28.3659   23.1281 C   0  0  2  0  0  0
  -20.6779  -26.9387   22.5397 C   0  0  0  0  0  0
  -19.5753  -26.6363   21.5219 C   0  0  0  0  0  0
  -18.1926  -26.7929   22.1615 C   0  0  0  0  0  0
  -19.1527  -28.8831   23.2896 C   0  0  0  0  0  0
  -18.9464  -30.1452   23.8888 C   0  0  0  0  0  0
  -17.6463  -30.6580   24.0557 C   0  0  0  0  0  0
  -25.9039  -34.9448   23.5097 C   0  0  0  0  0  0
  -16.5353  -29.9080   23.6328 C   0  0  0  0  0  0
  -16.7260  -28.6494   23.0353 C   0  0  0  0  0  0
  -26.4496  -31.6579   25.0722 C   0  0  0  0  0  0
  -25.3739  -31.3726   26.1451 C   0  0  0  0  0  0
  -27.0324  -30.3009   24.6143 C   0  0  0  0  0  0
  -27.6050  -32.4316   25.7491 C   0  0  0  0  0  0
  -27.5577  -37.1796   24.8462 C   0  0  0  0  0  0
  -21.4157  -29.3029   22.3684 N   0  0  0  0  0  0
  -26.4297  -37.3770   23.9405 N   0  0  0  0  0  0
  -24.6857  -31.0610   22.0964 N   0  0  0  0  0  0
  -23.4169  -28.8176   23.3014 O   0  0  0  0  0  0
  -28.3272  -26.4892   20.0391 O   0  0  0  0  0  0
  -26.5609  -34.8934   22.4671 O   0  0  0  0  0  0
  -23.5415  -32.1374   23.7366 O   0  0  0  0  0  0
  -28.4268  -20.2824   19.7327 C   0  0  0  0  0  0
  -30.5328  -19.6499   21.4009 C   0  0  0  0  0  0
  -29.0987  -21.3829   20.3477 C   0  0  0  0  0  0
  -30.1403  -21.0112   21.2452 C   0  0  0  0  0  0
  -29.9238  -18.5671   20.7123 C   0  0  0  0  0  0
  -28.8122  -18.9029   19.8961 C   0  0  0  0  0  0
  -27.2777  -23.3026   20.1470 C   0  0  0  0  0  0
  -28.2996  -23.9479   21.0481 C   0  0  1  0  0  0
  -28.7234  -22.8753   19.9844 C   0  0  1  0  0  0
  -30.9013  -22.0499   22.0527 C   0  0  0  0  0  0
  -30.9511  -23.3730   18.7817 C   0  0  0  0  0  0
  -28.9458  -22.5745   17.4434 C   0  0  0  0  0  0
  -26.9447  -18.1302   18.6076 C   0  0  0  0  0  0
  -30.6396  -17.1615   20.7704 C   0  0  0  0  0  0
  -28.5465  -25.5121   21.1069 C   0  0  0  0  0  0
  -29.4168  -23.3413   18.6924 C   0  0  0  0  0  0
  -29.9759  -15.8064   20.7508 N   0  0  0  0  0  0
  -28.1780  -17.8582   19.2577 O   0  0  0  0  0  0
  -31.4613  -12.5018   19.1639 H   0  0  0  0  0  0
  -30.3328  -11.4231   19.9339 H   0  0  0  0  0  0
  -29.7672  -11.7369   17.4971 H   0  0  0  0  0  0
  -29.6431  -13.4622   17.7338 H   0  0  0  0  0  0
  -27.8584  -11.2943   18.8819 H   0  0  0  0  0  0
  -27.3694  -12.5633   17.7940 H   0  0  0  0  0  0
  -27.6426  -14.2593   19.4890 H   0  0  0  0  0  0
  -28.6981  -12.1416   21.4236 H   0  0  0  0  0  0
  -28.4349  -13.8254   21.8004 H   0  0  0  0  0  0
  -25.2743   -9.5689   22.4753 H   0  0  0  0  0  0
  -24.0000   -7.4627   22.7457 H   0  0  0  0  0  0
  -21.0831   -8.8737   19.8946 H   0  0  0  0  0  0
  -22.3660  -10.9652   19.6158 H   0  0  0  0  0  0
  -21.1995   -7.6142   23.9706 H   0  0  0  0  0  0
  -21.1487   -6.0516   25.9073 H   0  0  0  0  0  0
  -22.0596   -2.7597   23.2850 H   0  0  0  0  0  0
  -22.4083  -11.9841   22.4807 H   0  0  0  0  0  0
  -21.1088  -13.1194   22.2669 H   0  0  0  0  0  0
  -24.6602  -15.8515   20.5348 H   0  0  0  0  0  0
  -26.2814  -15.6300   20.1160 H   0  0  0  0  0  0
  -26.7145  -32.5428   23.1079 H   0  0  0  0  0  0
  -25.0119  -33.9740   25.0464 H   0  0  0  0  0  0
  -22.7128  -31.3038   21.3968 H   0  0  0  0  0  0
  -23.3754  -35.9617   23.3316 H   0  0  0  0  0  0
  -24.3607  -36.8905   22.2055 H   0  0  0  0  0  0
  -23.7244  -37.6507   23.6650 H   0  0  0  0  0  0
  -26.0901  -31.5473   20.5992 H   0  0  0  0  0  0
  -26.8425  -30.8409   21.9996 H   0  0  0  0  0  0
  -28.1170  -28.9954   21.1865 H   0  0  0  0  0  0
  -26.0263  -25.9412   18.9829 H   0  0  0  0  0  0
  -23.9768  -27.3030   19.0057 H   0  0  0  0  0  0
  -23.7458  -30.5830   19.3993 H   0  0  0  0  0  0
  -22.7519  -29.2350   19.8657 H   0  0  0  0  0  0
  -25.1302  -36.1931   25.0815 H   0  0  0  0  0  0
  -20.9968  -28.3221   24.1401 H   0  0  0  0  0  0
  -20.5680  -26.2277   23.3594 H   0  0  0  0  0  0
  -21.6647  -26.7415   22.1187 H   0  0  0  0  0  0
  -19.6912  -25.6283   21.1226 H   0  0  0  0  0  0
  -19.6697  -27.3186   20.6772 H   0  0  0  0  0  0
  -17.4203  -26.6679   21.4012 H   0  0  0  0  0  0
  -18.0318  -26.0075   22.9002 H   0  0  0  0  0  0
  -19.7950  -30.7271   24.2235 H   0  0  0  0  0  0
  -17.5024  -31.6262   24.5158 H   0  0  0  0  0  0
  -15.5358  -30.2967   23.7687 H   0  0  0  0  0  0
  -15.8665  -28.0810   22.7062 H   0  0  0  0  0  0
  -24.5897  -30.7078   25.7805 H   0  0  0  0  0  0
  -24.8949  -32.2905   26.4868 H   0  0  0  0  0  0
  -25.8076  -30.8914   27.0216 H   0  0  0  0  0  0
  -26.2881  -29.6770   24.1179 H   0  0  0  0  0  0
  -27.4073  -29.7245   25.4606 H   0  0  0  0  0  0
  -27.8720  -30.4340   23.9325 H   0  0  0  0  0  0
  -27.2648  -33.3622   26.2045 H   0  0  0  0  0  0
  -28.3869  -32.6857   25.0322 H   0  0  0  0  0  0
  -28.0686  -31.8445   26.5432 H   0  0  0  0  0  0
  -28.2578  -38.0112   24.7524 H   0  0  0  0  0  0
  -28.1093  -36.2642   24.6252 H   0  0  0  0  0  0
  -27.2307  -37.1389   25.8872 H   0  0  0  0  0  0
  -20.9319  -29.8769   21.6918 H   0  0  0  0  0  0
  -26.0172  -38.2844   24.1416 H   0  0  0  0  0  0
  -27.6131  -20.5378   19.0720 H   0  0  0  0  0  0
  -31.3719  -19.4361   22.0492 H   0  0  0  0  0  0
  -26.8449  -23.9140   19.3607 H   0  0  0  0  0  0
  -26.5833  -22.6064   20.6148 H   0  0  0  0  0  0
  -28.3364  -23.5426   22.0575 H   0  0  0  0  0  0
  -31.9635  -21.8055   22.0864 H   0  0  0  0  0  0
  -30.5350  -22.0728   23.0790 H   0  0  0  0  0  0
  -30.8143  -23.0549   21.6479 H   0  0  0  0  0  0
  -31.2861  -24.0031   19.6053 H   0  0  0  0  0  0
  -31.3840  -23.7840   17.8682 H   0  0  0  0  0  0
  -31.3744  -22.3778   18.9209 H   0  0  0  0  0  0
  -27.8587  -22.4825   17.4159 H   0  0  0  0  0  0
  -29.3675  -21.5698   17.4013 H   0  0  0  0  0  0
  -29.2449  -23.0955   16.5328 H   0  0  0  0  0  0
  -26.5142  -17.2027   18.2321 H   0  0  0  0  0  0
  -27.0826  -18.7974   17.7566 H   0  0  0  0  0  0
  -26.2249  -18.5735   19.2979 H   0  0  0  0  0  0
  -31.2914  -17.1641   21.6447 H   0  0  0  0  0  0
  -31.3189  -17.1938   19.9164 H   0  0  0  0  0  0
  -29.5923  -25.6351   21.3875 H   0  0  0  0  0  0
  -27.9975  -25.8699   21.9806 H   0  0  0  0  0  0
  -29.1070  -24.3752   18.5365 H   0  0  0  0  0  0
  -28.9847  -15.7556   20.9309 H   0  0  0  0  0  0
  1 25  1  0  0  0
  1 30  2  0  0  0
  1 87  1  0  0  0
  2  3  1  0  0  0
  2 25  1  0  0  0
  2 89  1  0  0  0
  2 90  1  0  0  0
  3  4  1  0  0  0
  3 91  1  0  0  0
  3 92  1  0  0  0
  4  5  1  0  0  0
  4 93  1  0  0  0
  4 94  1  0  0  0
  5  6  1  0  0  0
  5 26  1  0  0  0
  5 95  1  0  0  0
  6 25  1  0  0  0
  6 96  1  0  0  0
  6 97  1  0  0  0
  7  8  2  0  0  0
  7 26  1  0  0  0
  7 29  1  0  0  0
  8  9  1  0  0  0
  8 22  1  0  0  0
  9 10  1  0  0  0
  9 27  2  0  0  0
 10 11  2  0  0  0
 10 15  1  0  0  0
 11 12  1  0  0  0
 11 98  1  0  0  0
 12 13  2  0  0  0
 12 99  1  0  0  0
 13 14  1  0  0  0
 13 31  1  0  0  0
 14 15  2  0  0  0
 14100  1  0  0  0
 15101  1  0  0  0
 16 17  2  0  0  0
 16 21  1  0  0  0
 16 31  1  0  0  0
 17 18  1  0  0  0
 17102  1  0  0  0
 18 19  2  0  0  0
 18103  1  0  0  0
 19 20  1  0  0  0
 19 24  1  0  0  0
 20 21  2  0  0  0
 20104  1  0  0  0
 21 23  1  0  0  0
 22 28  1  0  0  0
 22 32  2  0  0  0
 26 27  1  0  0  0
 28105  1  0  0  0
 28106  1  0  0  0
 29107  1  0  0  0
 29108  1  0  0  0
 33 34  1  0  0  0
 33 66  1  0  0  0
 33 70  2  0  0  0
 34 36  1  0  0  0
 34 59  1  0  0  0
 34109  1  0  0  0
 35 44  2  0  0  0
 35 45  1  0  0  0
 35 68  1  0  0  0
 36 56  1  0  0  0
 36110  1  0  0  0
 37 39  1  0  0  0
 37 47  1  0  0  0
 37 66  1  0  0  0
 37111  1  0  0  0
 38 43  2  0  0  0
 38 46  1  0  0  0
 38 47  1  0  0  0
 39 64  1  0  0  0
 39 67  2  0  0  0
 40 52  1  0  0  0
 40 53  2  0  0  0
 40 58  1  0  0  0
 41112  1  0  0  0
 41113  1  0  0  0
 41114  1  0  0  0
 41 48  1  0  0  0
 42 43  1  0  0  0
 42 66  1  0  0  0
 42115  1  0  0  0
 42116  1  0  0  0
 43 44  1  0  0  0
 44117  1  0  0  0
 45 46  2  0  0  0
 45118  1  0  0  0
 46119  1  0  0  0
 47120  1  0  0  0
 47121  1  0  0  0
 48 56  1  0  0  0
 48 65  1  0  0  0
 48122  1  0  0  0
 49 50  1  0  0  0
 49 53  1  0  0  0
 49 64  1  0  0  0
 49123  1  0  0  0
 50 51  1  0  0  0
 50124  1  0  0  0
 50125  1  0  0  0
 51 52  1  0  0  0
 51126  1  0  0  0
 51127  1  0  0  0
 52128  1  0  0  0
 52129  1  0  0  0
 53 54  1  0  0  0
 54 55  2  0  0  0
 54130  1  0  0  0
 55 57  1  0  0  0
 55131  1  0  0  0
 56 69  2  0  0  0
 57 58  2  0  0  0
 57132  1  0  0  0
 58133  1  0  0  0
 59 60  1  0  0  0
 59 61  1  0  0  0
 59 62  1  0  0  0
 60134  1  0  0  0
 60135  1  0  0  0
 60136  1  0  0  0
 61137  1  0  0  0
 61138  1  0  0  0
 61139  1  0  0  0
 62140  1  0  0  0
 62141  1  0  0  0
 62142  1  0  0  0
 63 65  1  0  0  0
 63143  1  0  0  0
 63144  1  0  0  0
 63145  1  0  0  0
 64146  1  0  0  0
 65147  1  0  0  0
 68 85  1  0  0  0
 71 73  2  0  0  0
 71 76  1  0  0  0
 71148  1  0  0  0
 72 74  2  0  0  0
 72 75  1  0  0  0
 72149  1  0  0  0
 73 74  1  0  0  0
 73 79  1  0  0  0
 74 80  1  0  0  0
 75 76  2  0  0  0
 75 84  1  0  0  0
 76 88  1  0  0  0
 77 78  1  0  0  0
 77 79  1  0  0  0
 77150  1  0  0  0
 77151  1  0  0  0
 78 79  1  0  0  0
 78 85  1  0  0  0
 78152  1  0  0  0
 79 86  1  0  0  0
 80153  1  0  0  0
 80154  1  0  0  0
 80155  1  0  0  0
 81156  1  0  0  0
 81157  1  0  0  0
 81158  1  0  0  0
 81 86  1  0  0  0
 82 86  1  0  0  0
 82159  1  0  0  0
 82160  1  0  0  0
 82161  1  0  0  0
 83 88  1  0  0  0
 83162  1  0  0  0
 83163  1  0  0  0
 83164  1  0  0  0
 84 87  1  0  0  0
 84165  1  0  0  0
 84166  1  0  0  0
 85167  1  0  0  0
 85168  1  0  0  0
 86169  1  0  0  0
 87170  1  0  0  0
M  ISO  4   1 100  68 101  85 101  87 100
M  END
> <chiral flag>
0

> <version>
0

> <s_m_source_file>
/data/baiqing/PycharmProjects/Reinvent-master-3.2/result/LINK_invent/BTK/process_docking_weight1_custom_sum_contain_oxygen_bond_distance_aromatic_linkinvent_7_9_3/rearranged_h_0172.sdf

> <i_m_source_file_index>
60

> <r_mmod_Potential_Energy-OPLS-2005>
123.081878662109

> <r_mmod_Stretch_Energy-OPLS-2005>
83.9896087646484

> <r_mmod_Bend_Energy-OPLS-2005>
182.060745239258

> <r_mmod_Torsional_Energy-OPLS-2005>
297.162506103516

> <r_mmod_Improper_Torsional_Energy-OPLS-2005>
4.99968433380127

> <r_mmod_Van_der_Waal_Energy-OPLS-2005>
132.567687988281

> <r_mmod_Electrostatic_Energy-OPLS-2005>
-430.160552978516

> <r_mmod_Solvation_Energy-OPLS-2005>
-197.038757324219

> <b_mmod_Minimization_Converged-OPLS-2005>
0

> <r_mmod_RMS_Derivative-OPLS-2005>
2.61713647842407

$$$$
60
                    3D
 Structure written by MMmdl.
174184  0  0  1  0            999 V2000
  -30.7569  -14.5083   20.5725 C   0  0  0  0  0  0
  -30.3963  -12.3405   19.4311 C   0  0  0  0  0  0
  -29.4783  -12.5134   18.2060 C   0  0  0  0  0  0
  -28.0061  -12.3415   18.6216 C   0  0  0  0  0  0
  -27.6449  -13.1977   19.8612 C   0  0  2  0  0  0
  -28.6959  -13.0624   20.9942 C   0  0  0  0  0  0
  -25.2519  -13.8108   20.5687 C   0  0  0  0  0  0
  -24.1791  -13.0394   20.9210 C   0  0  0  0  0  0
  -24.6348  -11.6865   20.8773 C   0  0  0  0  0  0
  -23.9009  -10.4262   21.0435 C   0  0  0  0  0  0
  -24.3581   -9.4171   21.9198 C   0  0  0  0  0  0
  -23.6281   -8.2187   22.0717 C   0  0  0  0  0  0
  -22.4257   -8.0229   21.3512 C   0  0  0  0  0  0
  -21.9886   -9.0203   20.4631 C   0  0  0  0  0  0
  -22.7185  -10.2095   20.3069 C   0  0  0  0  0  0
  -21.6812   -6.0757   22.5300 C   0  0  0  0  0  0
  -21.3999   -6.5663   23.8247 C   0  0  0  0  0  0
  -21.3646   -5.6799   24.9191 C   0  0  0  0  0  0
  -21.6035   -4.3069   24.7244 C   0  0  0  0  0  0
  -21.8805   -3.8172   23.4358 C   0  0  0  0  0  0
  -21.9152   -4.6998   22.3423 C   0  0  0  0  0  0
  -22.7804  -13.5175   21.1886 C   0  0  0  0  0  0
  -22.1604   -4.2173   21.0991 F   0  0  0  0  0  0
  -21.5641   -3.4549   25.7760 F   0  0  0  0  0  0
  -30.0185  -13.3637   20.4288 N   0  0  0  0  0  0
  -26.2934  -12.9245   20.3325 N   0  0  0  0  0  0
  -25.9272  -11.6423   20.5824 N   0  0  0  0  0  0
  -22.0464  -12.8171   22.0468 N   0  0  0  0  0  0
  -25.4196  -15.1840   20.4068 N   0  0  0  0  0  0
  -31.8943  -14.5796   20.0984 O   0  0  0  0  0  0
  -21.6597   -6.8859   21.4244 O   0  0  0  0  0  0
  -22.3444  -14.5449   20.6706 O   0  0  0  0  0  0
  -24.6127  -31.8684   23.2139 C   0  0  0  0  0  0
  -25.9038  -32.4824   23.8419 C   0  0  1  0  0  0
  -27.2205  -27.4432   20.1142 C   0  0  0  0  0  0
  -25.5903  -33.8626   24.2337 N   0  0  0  0  0  0
  -23.3993  -30.4940   21.5525 C   0  0  2  0  0  0
  -24.8450  -28.9698   20.1021 C   0  0  0  0  0  0
  -22.7402  -29.4661   22.4998 C   0  0  0  0  0  0
  -18.0268  -28.1383   22.8504 C   0  0  0  0  0  0
  -24.1483  -36.7305   23.2641 C   0  0  0  0  0  0
  -25.9257  -30.8393   21.3685 C   0  0  0  0  0  0
  -25.9998  -29.4805   20.7047 C   0  0  0  0  0  0
  -27.1925  -28.7278   20.7057 C   0  0  0  0  0  0
  -26.0629  -26.9548   19.4782 C   0  0  0  0  0  0
  -24.8721  -27.7093   19.4771 C   0  0  0  0  0  0
  -23.6044  -29.8331   20.1622 C   0  0  0  0  0  0
  -25.4105  -36.3111   24.0341 C   0  0  1  0  0  0
  -20.5862  -28.3654   23.1342 C   0  0  2  0  0  0
  -20.6755  -26.9398   22.5441 C   0  0  0  0  0  0
  -19.5741  -26.6398   21.5231 C   0  0  0  0  0  0
  -18.1911  -26.7932   22.1619 C   0  0  0  0  0  0
  -19.1516  -28.8837   23.2915 C   0  0  0  0  0  0
  -18.9436  -30.1444   23.8933 C   0  0  0  0  0  0
  -17.6438  -30.6584   24.0578 C   0  0  0  0  0  0
  -25.9039  -34.9481   23.5139 C   0  0  0  0  0  0
  -16.5335  -29.9095   23.6326 C   0  0  0  0  0  0
  -16.7258  -28.6510   23.0352 C   0  0  0  0  0  0
  -26.4468  -31.6613   25.0748 C   0  0  0  0  0  0
  -25.3748  -31.3734   26.1514 C   0  0  0  0  0  0
  -27.0294  -30.3045   24.6167 C   0  0  0  0  0  0
  -27.6067  -32.4328   25.7462 C   0  0  0  0  0  0
  -27.5594  -37.1797   24.8454 C   0  0  0  0  0  0
  -21.4137  -29.3026   22.3754 N   0  0  0  0  0  0
  -26.4289  -37.3808   23.9428 N   0  0  0  0  0  0
  -24.6628  -31.0818   22.1025 N   0  0  0  0  0  0
  -23.4180  -28.8201   23.3031 O   0  0  0  0  0  0
  -28.3187  -26.6190   20.2064 O   0  0  0  0  0  0
  -26.5600  -34.8923   22.4702 O   0  0  0  0  0  0
  -23.5321  -32.1440   23.7535 O   0  0  0  0  0  0
  -29.5679  -20.9349   20.4271 C   0  0  0  0  0  0
  -29.1747  -22.2808   20.6020 C   0  0  0  0  0  0
  -28.9354  -22.7393   21.9260 C   0  0  0  0  0  0
  -29.6659  -20.0672   21.5271 C   0  0  0  0  0  0
  -29.0400  -21.7818   22.9747 C   0  0  0  0  0  0
  -29.3696  -22.8108   17.9920 C   0  0  0  0  0  0
  -30.0651  -23.9198   18.7401 C   0  0  0  0  0  0
  -30.7694  -17.8709   22.4065 C   0  0  0  0  0  0
  -28.7464  -17.7277   21.0571 C   0  0  0  0  0  0
  -31.1986  -16.4327   22.0080 C   0  0  0  0  0  0
  -29.0635  -16.2760   20.6259 C   0  0  0  0  0  0
  -28.9341  -23.1690   19.4018 C   0  0  0  0  0  0
  -29.9892  -18.5762   21.2917 C   0  0  0  0  0  0
  -28.7699  -22.1495   24.4268 C   0  0  0  0  0  0
  -30.4001  -25.4005   23.1272 C   0  0  0  0  0  0
  -28.7955  -26.4972   21.5549 C   0  0  0  0  0  0
  -29.4977  -25.1562   21.9052 C   0  0  2  0  0  0
  -29.3655  -20.4816   22.7767 N   0  0  0  0  0  0
  -30.2317  -15.5909   21.2374 N   0  0  0  0  0  0
  -28.5411  -24.0734   22.1909 N   0  0  0  0  0  0
  -31.4400  -12.4114   19.1198 H   0  0  0  0  0  0
  -30.2793  -11.3441   19.8576 H   0  0  0  0  0  0
  -29.7329  -11.7886   17.4294 H   0  0  0  0  0  0
  -29.6288  -13.5014   17.7634 H   0  0  0  0  0  0
  -27.8420  -11.2823   18.8304 H   0  0  0  0  0  0
  -27.3415  -12.5818   17.7903 H   0  0  0  0  0  0
  -27.6481  -14.2173   19.4854 H   0  0  0  0  0  0
  -28.6960  -12.0477   21.3972 H   0  0  0  0  0  0
  -28.4571  -13.7106   21.8381 H   0  0  0  0  0  0
  -25.2706   -9.5624   22.4793 H   0  0  0  0  0  0
  -23.9986   -7.4553   22.7407 H   0  0  0  0  0  0
  -21.0811   -8.8714   19.8954 H   0  0  0  0  0  0
  -22.3633  -10.9638   19.6202 H   0  0  0  0  0  0
  -21.2011   -7.6168   23.9772 H   0  0  0  0  0  0
  -21.1467   -6.0528   25.9087 H   0  0  0  0  0  0
  -22.0608   -2.7651   23.2871 H   0  0  0  0  0  0
  -22.4077  -11.9838   22.4878 H   0  0  0  0  0  0
  -21.1107  -13.1208   22.2722 H   0  0  0  0  0  0
  -24.6534  -15.8364   20.5352 H   0  0  0  0  0  0
  -26.2748  -15.6331   20.1064 H   0  0  0  0  0  0
  -26.7106  -32.5521   23.1173 H   0  0  0  0  0  0
  -25.0087  -33.9798   25.0504 H   0  0  0  0  0  0
  -22.6877  -31.3114   21.4199 H   0  0  0  0  0  0
  -23.3759  -35.9624   23.3300 H   0  0  0  0  0  0
  -24.3583  -36.8925   22.2059 H   0  0  0  0  0  0
  -23.7207  -37.6496   23.6656 H   0  0  0  0  0  0
  -26.0581  -31.6139   20.6117 H   0  0  0  0  0  0
  -26.8066  -30.8715   21.9999 H   0  0  0  0  0  0
  -28.0782  -29.1227   21.1836 H   0  0  0  0  0  0
  -26.0689  -25.9761   19.0189 H   0  0  0  0  0  0
  -23.9837  -27.3166   19.0020 H   0  0  0  0  0  0
  -23.7084  -30.6153   19.4087 H   0  0  0  0  0  0
  -22.7268  -29.2565   19.8642 H   0  0  0  0  0  0
  -25.1281  -36.1988   25.0832 H   0  0  0  0  0  0
  -20.9943  -28.3220   24.1463 H   0  0  0  0  0  0
  -20.5673  -26.2265   23.3617 H   0  0  0  0  0  0
  -21.6621  -26.7463   22.1219 H   0  0  0  0  0  0
  -19.6902  -25.6318   21.1231 H   0  0  0  0  0  0
  -19.6688  -27.3236   20.6780 H   0  0  0  0  0  0
  -17.4197  -26.6725   21.3997 H   0  0  0  0  0  0
  -18.0278  -26.0059   22.8989 H   0  0  0  0  0  0
  -19.7916  -30.7256   24.2315 H   0  0  0  0  0  0
  -17.4995  -31.6266   24.5182 H   0  0  0  0  0  0
  -15.5339  -30.3001   23.7644 H   0  0  0  0  0  0
  -15.8651  -28.0846   22.7042 H   0  0  0  0  0  0
  -24.5916  -30.7078   25.7873 H   0  0  0  0  0  0
  -24.8941  -32.2884   26.4977 H   0  0  0  0  0  0
  -25.8105  -30.8905   27.0272 H   0  0  0  0  0  0
  -26.2850  -29.6800   24.1216 H   0  0  0  0  0  0
  -27.4026  -29.7298   25.4657 H   0  0  0  0  0  0
  -27.8706  -30.4340   23.9355 H   0  0  0  0  0  0
  -27.2726  -33.3613   26.2105 H   0  0  0  0  0  0
  -28.3813  -32.6925   25.0233 H   0  0  0  0  0  0
  -28.0826  -31.8433   26.5312 H   0  0  0  0  0  0
  -28.2595  -38.0110   24.7545 H   0  0  0  0  0  0
  -28.1101  -36.2654   24.6206 H   0  0  0  0  0  0
  -27.2335  -37.1363   25.8858 H   0  0  0  0  0  0
  -20.9292  -29.8754   21.6980 H   0  0  0  0  0  0
  -26.0180  -38.2880   24.1457 H   0  0  0  0  0  0
  -29.7470  -20.5353   19.4402 H   0  0  0  0  0  0
  -29.9603  -21.9171   17.8085 H   0  0  0  0  0  0
  -28.7209  -23.1095   17.1711 H   0  0  0  0  0  0
  -29.8627  -24.9393   18.4209 H   0  0  0  0  0  0
  -31.0670  -23.7321   19.1187 H   0  0  0  0  0  0
  -31.6585  -18.4507   22.6597 H   0  0  0  0  0  0
  -30.1656  -17.8358   23.3116 H   0  0  0  0  0  0
  -28.1392  -17.7264   21.9634 H   0  0  0  0  0  0
  -28.1345  -18.1949   20.2832 H   0  0  0  0  0  0
  -31.4904  -15.8814   22.9048 H   0  0  0  0  0  0
  -32.1192  -16.5541   21.4332 H   0  0  0  0  0  0
  -29.1915  -16.2731   19.5426 H   0  0  0  0  0  0
  -28.1643  -15.7156   20.8452 H   0  0  0  0  0  0
  -27.9857  -23.6924   19.5076 H   0  0  0  0  0  0
  -30.5989  -18.5364   20.3872 H   0  0  0  0  0  0
  -29.3624  -21.5318   25.1019 H   0  0  0  0  0  0
  -27.7187  -21.9982   24.6689 H   0  0  0  0  0  0
  -29.0226  -23.1874   24.6374 H   0  0  0  0  0  0
  -31.1945  -26.1069   22.8751 H   0  0  0  0  0  0
  -30.8822  -24.4914   23.4863 H   0  0  0  0  0  0
  -29.8406  -25.8397   23.9557 H   0  0  0  0  0  0
  -29.4961  -27.3207   21.7017 H   0  0  0  0  0  0
  -27.9933  -26.6579   22.2804 H   0  0  0  0  0  0
  -30.1573  -24.8832   21.0846 H   0  0  0  0  0  0
  -28.0848  -24.1927   23.0896 H   0  0  0  0  0  0
  1 25  1  0  0  0
  1 30  2  0  0  0
  1 89  1  0  0  0
  2  3  1  0  0  0
  2 25  1  0  0  0
  2 91  1  0  0  0
  2 92  1  0  0  0
  3  4  1  0  0  0
  3 93  1  0  0  0
  3 94  1  0  0  0
  4  5  1  0  0  0
  4 95  1  0  0  0
  4 96  1  0  0  0
  5  6  1  0  0  0
  5 26  1  0  0  0
  5 97  1  0  0  0
  6 25  1  0  0  0
  6 98  1  0  0  0
  6 99  1  0  0  0
  7  8  2  0  0  0
  7 26  1  0  0  0
  7 29  1  0  0  0
  8  9  1  0  0  0
  8 22  1  0  0  0
  9 10  1  0  0  0
  9 27  2  0  0  0
 10 11  2  0  0  0
 10 15  1  0  0  0
 11 12  1  0  0  0
 11100  1  0  0  0
 12 13  2  0  0  0
 12101  1  0  0  0
 13 14  1  0  0  0
 13 31  1  0  0  0
 14 15  2  0  0  0
 14102  1  0  0  0
 15103  1  0  0  0
 16 17  2  0  0  0
 16 21  1  0  0  0
 16 31  1  0  0  0
 17 18  1  0  0  0
 17104  1  0  0  0
 18 19  2  0  0  0
 18105  1  0  0  0
 19 20  1  0  0  0
 19 24  1  0  0  0
 20 21  2  0  0  0
 20106  1  0  0  0
 21 23  1  0  0  0
 22 28  1  0  0  0
 22 32  2  0  0  0
 26 27  1  0  0  0
 28107  1  0  0  0
 28108  1  0  0  0
 29109  1  0  0  0
 29110  1  0  0  0
 33 34  1  0  0  0
 33 66  1  0  0  0
 33 70  2  0  0  0
 34 36  1  0  0  0
 34 59  1  0  0  0
 34111  1  0  0  0
 35 44  2  0  0  0
 35 45  1  0  0  0
 35 68  1  0  0  0
 36 56  1  0  0  0
 36112  1  0  0  0
 37 39  1  0  0  0
 37 47  1  0  0  0
 37 66  1  0  0  0
 37113  1  0  0  0
 38 43  2  0  0  0
 38 46  1  0  0  0
 38 47  1  0  0  0
 39 64  1  0  0  0
 39 67  2  0  0  0
 40 52  1  0  0  0
 40 53  2  0  0  0
 40 58  1  0  0  0
 41114  1  0  0  0
 41115  1  0  0  0
 41116  1  0  0  0
 41 48  1  0  0  0
 42 43  1  0  0  0
 42 66  1  0  0  0
 42117  1  0  0  0
 42118  1  0  0  0
 43 44  1  0  0  0
 44119  1  0  0  0
 45 46  2  0  0  0
 45120  1  0  0  0
 46121  1  0  0  0
 47122  1  0  0  0
 47123  1  0  0  0
 48 56  1  0  0  0
 48 65  1  0  0  0
 48124  1  0  0  0
 49 50  1  0  0  0
 49 53  1  0  0  0
 49 64  1  0  0  0
 49125  1  0  0  0
 50 51  1  0  0  0
 50126  1  0  0  0
 50127  1  0  0  0
 51 52  1  0  0  0
 51128  1  0  0  0
 51129  1  0  0  0
 52130  1  0  0  0
 52131  1  0  0  0
 53 54  1  0  0  0
 54 55  2  0  0  0
 54132  1  0  0  0
 55 57  1  0  0  0
 55133  1  0  0  0
 56 69  2  0  0  0
 57 58  2  0  0  0
 57134  1  0  0  0
 58135  1  0  0  0
 59 60  1  0  0  0
 59 61  1  0  0  0
 59 62  1  0  0  0
 60136  1  0  0  0
 60137  1  0  0  0
 60138  1  0  0  0
 61139  1  0  0  0
 61140  1  0  0  0
 61141  1  0  0  0
 62142  1  0  0  0
 62143  1  0  0  0
 62144  1  0  0  0
 63 65  1  0  0  0
 63145  1  0  0  0
 63146  1  0  0  0
 63147  1  0  0  0
 64148  1  0  0  0
 65149  1  0  0  0
 68 86  1  0  0  0
 71 72  2  0  0  0
 71 74  1  0  0  0
 71150  1  0  0  0
 72 73  1  0  0  0
 72 82  1  0  0  0
 73 75  2  0  0  0
 73 90  1  0  0  0
 74 88  2  0  0  0
 74 83  1  0  0  0
 75 84  1  0  0  0
 75 88  1  0  0  0
 76 77  1  0  0  0
 76 82  1  0  0  0
 76151  1  0  0  0
 76152  1  0  0  0
 77 82  1  0  0  0
 77153  1  0  0  0
 77154  1  0  0  0
 78 80  1  0  0  0
 78 83  1  0  0  0
 78155  1  0  0  0
 78156  1  0  0  0
 79 81  1  0  0  0
 79 83  1  0  0  0
 79157  1  0  0  0
 79158  1  0  0  0
 80 89  1  0  0  0
 80159  1  0  0  0
 80160  1  0  0  0
 81 89  1  0  0  0
 81161  1  0  0  0
 81162  1  0  0  0
 82163  1  0  0  0
 83164  1  0  0  0
 84165  1  0  0  0
 84166  1  0  0  0
 84167  1  0  0  0
 85168  1  0  0  0
 85169  1  0  0  0
 85170  1  0  0  0
 85 87  1  0  0  0
 86 87  1  0  0  0
 86171  1  0  0  0
 86172  1  0  0  0
 87 90  1  0  0  0
 87173  1  0  0  0
 90174  1  0  0  0
M  ISO  4   1 100  68 101  86 101  89 100
M  END
> <chiral flag>
0

> <version>
0

> <s_m_source_file>
/data/baiqing/PycharmProjects/Reinvent-master-3.2/result/LINK_invent/BTK/process_docking_weight1_custom_sum_contain_oxygen_bond_distance_aromatic_linkinvent_7_9_3/rearranged_h_0172.sdf

> <i_m_source_file_index>
61

> <r_mmod_Potential_Energy-OPLS-2005>
108.324760437012

> <r_mmod_Stretch_Energy-OPLS-2005>
48.6131858825684

> <r_mmod_Bend_Energy-OPLS-2005>
131.703750610352

> <r_mmod_Torsional_Energy-OPLS-2005>
372.426330566406

> <r_mmod_Improper_Torsional_Energy-OPLS-2005>
8.91053771972656

> <r_mmod_Van_der_Waal_Energy-OPLS-2005>
164.286849975586

> <r_mmod_Electrostatic_Energy-OPLS-2005>
-430.37841796875

> <r_mmod_Solvation_Energy-OPLS-2005>
-210.875823974609

> <b_mmod_Minimization_Converged-OPLS-2005>
0

> <r_mmod_RMS_Derivative-OPLS-2005>
4.18134784698486

$$$$
61
                    3D
 Structure written by MMmdl.
159168  0  0  1  0            999 V2000
  -30.6444  -14.7795   20.4623 C   0  0  0  0  0  0
  -30.4189  -12.4870   19.4743 C   0  0  0  0  0  0
  -29.5044  -12.5179   18.2331 C   0  0  0  0  0  0
  -28.0324  -12.3370   18.6488 C   0  0  0  0  0  0
  -27.6339  -13.2438   19.8450 C   0  0  2  0  0  0
  -28.6810  -13.2070   20.9771 C   0  0  0  0  0  0
  -25.2480  -13.8232   20.5719 C   0  0  0  0  0  0
  -24.1780  -13.0453   20.9206 C   0  0  0  0  0  0
  -24.6388  -11.6936   20.8744 C   0  0  0  0  0  0
  -23.9075  -10.4302   21.0400 C   0  0  0  0  0  0
  -24.3626   -9.4214   21.9173 C   0  0  0  0  0  0
  -23.6297   -8.2251   22.0745 C   0  0  0  0  0  0
  -22.4279   -8.0286   21.3539 C   0  0  0  0  0  0
  -21.9915   -9.0261   20.4646 C   0  0  0  0  0  0
  -22.7245  -10.2138   20.3055 C   0  0  0  0  0  0
  -21.6854   -6.0744   22.5282 C   0  0  0  0  0  0
  -21.4018   -6.5647   23.8217 C   0  0  0  0  0  0
  -21.3658   -5.6797   24.9175 C   0  0  0  0  0  0
  -21.6037   -4.3060   24.7223 C   0  0  0  0  0  0
  -21.8816   -3.8153   23.4346 C   0  0  0  0  0  0
  -21.9194   -4.6971   22.3404 C   0  0  0  0  0  0
  -22.7803  -13.5223   21.1878 C   0  0  0  0  0  0
  -22.1660   -4.2158   21.0980 F   0  0  0  0  0  0
  -21.5621   -3.4544   25.7735 F   0  0  0  0  0  0
  -29.9666  -13.5770   20.3767 N   0  0  0  0  0  0
  -26.2902  -12.9455   20.3280 N   0  0  0  0  0  0
  -25.9322  -11.6585   20.5746 N   0  0  0  0  0  0
  -22.0469  -12.8206   22.0443 N   0  0  0  0  0  0
  -25.4188  -15.1960   20.4182 N   0  0  0  0  0  0
  -31.8529  -14.7666   20.2022 O   0  0  0  0  0  0
  -21.6639   -6.8886   21.4241 O   0  0  0  0  0  0
  -22.3476  -14.5528   20.6733 O   0  0  0  0  0  0
  -24.6327  -31.8546   23.1975 C   0  0  0  0  0  0
  -25.9148  -32.4751   23.8330 C   0  0  1  0  0  0
  -27.2160  -27.2546   20.1356 C   0  0  0  0  0  0
  -25.5937  -33.8553   24.2251 N   0  0  0  0  0  0
  -23.4306  -30.4754   21.5412 C   0  0  2  0  0  0
  -24.8808  -28.9212   20.1096 C   0  0  0  0  0  0
  -22.7507  -29.4603   22.4920 C   0  0  0  0  0  0
  -18.0287  -28.1397   22.8481 C   0  0  0  0  0  0
  -24.1485  -36.7275   23.2642 C   0  0  0  0  0  0
  -25.9777  -30.7646   21.3802 C   0  0  0  0  0  0
  -26.0533  -29.3864   20.7225 C   0  0  0  0  0  0
  -27.2288  -28.5649   20.7245 C   0  0  0  0  0  0
  -26.0294  -26.8629   19.4845 C   0  0  0  0  0  0
  -24.8749  -27.6683   19.4769 C   0  0  0  0  0  0
  -23.6500  -29.8067   20.1586 C   0  0  0  0  0  0
  -25.4118  -36.3067   24.0322 C   0  0  1  0  0  0
  -20.5889  -28.3715   23.1260 C   0  0  2  0  0  0
  -20.6772  -26.9429   22.5409 C   0  0  0  0  0  0
  -19.5745  -26.6391   21.5212 C   0  0  0  0  0  0
  -18.1928  -26.7937   22.1623 C   0  0  0  0  0  0
  -19.1541  -28.8871   23.2865 C   0  0  0  0  0  0
  -18.9464  -30.1467   23.8891 C   0  0  0  0  0  0
  -17.6464  -30.6600   24.0556 C   0  0  0  0  0  0
  -25.9062  -34.9441   23.5093 C   0  0  0  0  0  0
  -16.5353  -29.9095   23.6334 C   0  0  0  0  0  0
  -16.7272  -28.6507   23.0364 C   0  0  0  0  0  0
  -26.4511  -31.6579   25.0723 C   0  0  0  0  0  0
  -25.3724  -31.3733   26.1432 C   0  0  0  0  0  0
  -27.0366  -30.2990   24.6235 C   0  0  0  0  0  0
  -27.6066  -32.4326   25.7496 C   0  0  0  0  0  0
  -27.5575  -37.1792   24.8469 C   0  0  0  0  0  0
  -21.4214  -29.3054   22.3641 N   0  0  0  0  0  0
  -26.4292  -37.3768   23.9405 N   0  0  0  0  0  0
  -24.6991  -31.0507   22.0953 N   0  0  0  0  0  0
  -23.4191  -28.8164   23.3047 O   0  0  0  0  0  0
  -28.2560  -26.2989   20.1823 O   0  0  0  0  0  0
  -26.5641  -34.8911   22.4665 O   0  0  0  0  0  0
  -23.5471  -32.1377   23.7259 O   0  0  0  0  0  0
  -28.5415  -22.6679   21.8340 C   0  0  0  0  0  0
  -28.4368  -23.5814   20.8111 C   0  0  0  0  0  0
  -28.9493  -20.7591   20.4565 C   0  0  0  0  0  0
  -28.8783  -21.7277   19.2300 C   0  0  0  0  0  0
  -30.4756  -18.5671   19.8017 C   0  0  0  0  0  0
  -28.6067  -18.1498   21.3363 C   0  0  0  0  0  0
  -30.4109  -17.0408   19.3702 C   0  0  0  0  0  0
  -29.3007  -16.7083   21.5281 C   0  0  0  0  0  0
  -29.1017  -19.1469   20.2193 C   0  0  0  0  0  0
  -28.2808  -23.0485   23.2783 C   0  0  0  0  0  0
  -27.9613  -25.1048   21.0420 C   0  0  0  0  0  0
  -28.8216  -21.2801   21.6313 N   0  0  0  0  0  0
  -28.6461  -23.0570   19.5126 N   0  0  0  0  0  0
  -29.9599  -16.0130   20.3744 N   0  0  0  0  0  0
  -29.0138  -21.3197   18.0741 O   0  0  0  0  0  0
  -31.4599  -12.5957   19.1672 H   0  0  0  0  0  0
  -30.3580  -11.5193   19.9758 H   0  0  0  0  0  0
  -29.7947  -11.7407   17.5244 H   0  0  0  0  0  0
  -29.6261  -13.4687   17.7123 H   0  0  0  0  0  0
  -27.8948  -11.2888   18.9174 H   0  0  0  0  0  0
  -27.3746  -12.5229   17.7989 H   0  0  0  0  0  0
  -27.6188  -14.2623   19.4550 H   0  0  0  0  0  0
  -28.7353  -12.2154   21.4280 H   0  0  0  0  0  0
  -28.4092  -13.8877   21.7817 H   0  0  0  0  0  0
  -25.2774   -9.5686   22.4743 H   0  0  0  0  0  0
  -24.0009   -7.4643   22.7465 H   0  0  0  0  0  0
  -21.0840   -8.8778   19.8964 H   0  0  0  0  0  0
  -22.3695  -10.9671   19.6167 H   0  0  0  0  0  0
  -21.2018   -7.6159   23.9719 H   0  0  0  0  0  0
  -21.1476   -6.0530   25.9075 H   0  0  0  0  0  0
  -22.0597   -2.7617   23.2843 H   0  0  0  0  0  0
  -22.4112  -11.9887   22.4844 H   0  0  0  0  0  0
  -21.1088  -13.1217   22.2672 H   0  0  0  0  0  0
  -24.6578  -15.8547   20.5430 H   0  0  0  0  0  0
  -26.2837  -15.6379   20.1321 H   0  0  0  0  0  0
  -26.7218  -32.5398   23.1074 H   0  0  0  0  0  0
  -25.0053  -33.9704   25.0375 H   0  0  0  0  0  0
  -22.7277  -31.2978   21.3925 H   0  0  0  0  0  0
  -23.3753  -35.9601   23.3313 H   0  0  0  0  0  0
  -24.3567  -36.8896   22.2053 H   0  0  0  0  0  0
  -23.7234  -37.6475   23.6666 H   0  0  0  0  0  0
  -26.1190  -31.5239   20.6103 H   0  0  0  0  0  0
  -26.8544  -30.8139   22.0149 H   0  0  0  0  0  0
  -28.1235  -28.9097   21.2234 H   0  0  0  0  0  0
  -25.9841  -25.8944   19.0062 H   0  0  0  0  0  0
  -23.9792  -27.3087   18.9888 H   0  0  0  0  0  0
  -23.7695  -30.5806   19.3992 H   0  0  0  0  0  0
  -22.7697  -29.2360   19.8575 H   0  0  0  0  0  0
  -25.1298  -36.1917   25.0814 H   0  0  0  0  0  0
  -20.9972  -28.3303   24.1385 H   0  0  0  0  0  0
  -20.5671  -26.2329   23.3622 H   0  0  0  0  0  0
  -21.6640  -26.7452   22.1201 H   0  0  0  0  0  0
  -19.6914  -25.6302   21.1251 H   0  0  0  0  0  0
  -19.6683  -27.3195   20.6734 H   0  0  0  0  0  0
  -17.4191  -26.6671   21.4036 H   0  0  0  0  0  0
  -18.0336  -26.0088   22.9029 H   0  0  0  0  0  0
  -19.7940  -30.7281   24.2262 H   0  0  0  0  0  0
  -17.5020  -31.6279   24.5166 H   0  0  0  0  0  0
  -15.5353  -30.2994   23.7678 H   0  0  0  0  0  0
  -15.8664  -28.0823   22.7102 H   0  0  0  0  0  0
  -24.5907  -30.7078   25.7747 H   0  0  0  0  0  0
  -24.8899  -32.2895   26.4838 H   0  0  0  0  0  0
  -25.8019  -30.8915   27.0220 H   0  0  0  0  0  0
  -26.2958  -29.6728   24.1241 H   0  0  0  0  0  0
  -27.4015  -29.7269   25.4775 H   0  0  0  0  0  0
  -27.8849  -30.4261   23.9506 H   0  0  0  0  0  0
  -27.2683  -33.3638   26.2051 H   0  0  0  0  0  0
  -28.3879  -32.6866   25.0322 H   0  0  0  0  0  0
  -28.0726  -31.8461   26.5426 H   0  0  0  0  0  0
  -28.2600  -38.0081   24.7504 H   0  0  0  0  0  0
  -28.1060  -36.2611   24.6309 H   0  0  0  0  0  0
  -27.2285  -37.1454   25.8871 H   0  0  0  0  0  0
  -20.9415  -29.8743   21.6806 H   0  0  0  0  0  0
  -26.0169  -38.2841   24.1409 H   0  0  0  0  0  0
  -30.8637  -19.1477   18.9634 H   0  0  0  0  0  0
  -31.1930  -18.6979   20.6134 H   0  0  0  0  0  0
  -28.6608  -18.6532   22.3022 H   0  0  0  0  0  0
  -27.5388  -17.9937   21.1771 H   0  0  0  0  0  0
  -31.3905  -16.7874   18.9610 H   0  0  0  0  0  0
  -29.7322  -16.9550   18.5217 H   0  0  0  0  0  0
  -28.5662  -16.0444   21.9801 H   0  0  0  0  0  0
  -30.0776  -16.8212   22.2864 H   0  0  0  0  0  0
  -28.4564  -18.9513   19.3614 H   0  0  0  0  0  0
  -29.0621  -23.7129   23.6492 H   0  0  0  0  0  0
  -28.2561  -22.1696   23.9244 H   0  0  0  0  0  0
  -27.3199  -23.5539   23.3767 H   0  0  0  0  0  0
  -28.3703  -25.4003   22.0082 H   0  0  0  0  0  0
  -26.8871  -25.0376   21.2182 H   0  0  0  0  0  0
  -28.5687  -23.7019   18.7405 H   0  0  0  0  0  0
  1 25  1  0  0  0
  1 30  2  0  0  0
  1 84  1  0  0  0
  2  3  1  0  0  0
  2 25  1  0  0  0
  2 86  1  0  0  0
  2 87  1  0  0  0
  3  4  1  0  0  0
  3 88  1  0  0  0
  3 89  1  0  0  0
  4  5  1  0  0  0
  4 90  1  0  0  0
  4 91  1  0  0  0
  5  6  1  0  0  0
  5 26  1  0  0  0
  5 92  1  0  0  0
  6 25  1  0  0  0
  6 93  1  0  0  0
  6 94  1  0  0  0
  7  8  2  0  0  0
  7 26  1  0  0  0
  7 29  1  0  0  0
  8  9  1  0  0  0
  8 22  1  0  0  0
  9 10  1  0  0  0
  9 27  2  0  0  0
 10 11  2  0  0  0
 10 15  1  0  0  0
 11 12  1  0  0  0
 11 95  1  0  0  0
 12 13  2  0  0  0
 12 96  1  0  0  0
 13 14  1  0  0  0
 13 31  1  0  0  0
 14 15  2  0  0  0
 14 97  1  0  0  0
 15 98  1  0  0  0
 16 17  2  0  0  0
 16 21  1  0  0  0
 16 31  1  0  0  0
 17 18  1  0  0  0
 17 99  1  0  0  0
 18 19  2  0  0  0
 18100  1  0  0  0
 19 20  1  0  0  0
 19 24  1  0  0  0
 20 21  2  0  0  0
 20101  1  0  0  0
 21 23  1  0  0  0
 22 28  1  0  0  0
 22 32  2  0  0  0
 26 27  1  0  0  0
 28102  1  0  0  0
 28103  1  0  0  0
 29104  1  0  0  0
 29105  1  0  0  0
 33 34  1  0  0  0
 33 66  1  0  0  0
 33 70  2  0  0  0
 34 36  1  0  0  0
 34 59  1  0  0  0
 34106  1  0  0  0
 35 44  2  0  0  0
 35 45  1  0  0  0
 35 68  1  0  0  0
 36 56  1  0  0  0
 36107  1  0  0  0
 37 39  1  0  0  0
 37 47  1  0  0  0
 37 66  1  0  0  0
 37108  1  0  0  0
 38 43  2  0  0  0
 38 46  1  0  0  0
 38 47  1  0  0  0
 39 64  1  0  0  0
 39 67  2  0  0  0
 40 52  1  0  0  0
 40 53  2  0  0  0
 40 58  1  0  0  0
 41109  1  0  0  0
 41110  1  0  0  0
 41111  1  0  0  0
 41 48  1  0  0  0
 42 43  1  0  0  0
 42 66  1  0  0  0
 42112  1  0  0  0
 42113  1  0  0  0
 43 44  1  0  0  0
 44114  1  0  0  0
 45 46  2  0  0  0
 45115  1  0  0  0
 46116  1  0  0  0
 47117  1  0  0  0
 47118  1  0  0  0
 48 56  1  0  0  0
 48 65  1  0  0  0
 48119  1  0  0  0
 49 50  1  0  0  0
 49 53  1  0  0  0
 49 64  1  0  0  0
 49120  1  0  0  0
 50 51  1  0  0  0
 50121  1  0  0  0
 50122  1  0  0  0
 51 52  1  0  0  0
 51123  1  0  0  0
 51124  1  0  0  0
 52125  1  0  0  0
 52126  1  0  0  0
 53 54  1  0  0  0
 54 55  2  0  0  0
 54127  1  0  0  0
 55 57  1  0  0  0
 55128  1  0  0  0
 56 69  2  0  0  0
 57 58  2  0  0  0
 57129  1  0  0  0
 58130  1  0  0  0
 59 60  1  0  0  0
 59 61  1  0  0  0
 59 62  1  0  0  0
 60131  1  0  0  0
 60132  1  0  0  0
 60133  1  0  0  0
 61134  1  0  0  0
 61135  1  0  0  0
 61136  1  0  0  0
 62137  1  0  0  0
 62138  1  0  0  0
 62139  1  0  0  0
 63 65  1  0  0  0
 63140  1  0  0  0
 63141  1  0  0  0
 63142  1  0  0  0
 64143  1  0  0  0
 65144  1  0  0  0
 68 81  1  0  0  0
 71 72  2  0  0  0
 71 80  1  0  0  0
 71 82  1  0  0  0
 72 81  1  0  0  0
 72 83  1  0  0  0
 73 74  1  0  0  0
 73 82  2  0  0  0
 73 79  1  0  0  0
 74 83  1  0  0  0
 74 85  2  0  0  0
 75 77  1  0  0  0
 75 79  1  0  0  0
 75145  1  0  0  0
 75146  1  0  0  0
 76 78  1  0  0  0
 76 79  1  0  0  0
 76147  1  0  0  0
 76148  1  0  0  0
 77 84  1  0  0  0
 77149  1  0  0  0
 77150  1  0  0  0
 78 84  1  0  0  0
 78151  1  0  0  0
 78152  1  0  0  0
 79153  1  0  0  0
 80154  1  0  0  0
 80155  1  0  0  0
 80156  1  0  0  0
 81157  1  0  0  0
 81158  1  0  0  0
 83159  1  0  0  0
M  ISO  4   1 100  68 101  81 101  84 100
M  END
> <chiral flag>
0

> <version>
0

> <s_m_source_file>
/data/baiqing/PycharmProjects/Reinvent-master-3.2/result/LINK_invent/BTK/process_docking_weight1_custom_sum_contain_oxygen_bond_distance_aromatic_linkinvent_7_9_3/rearranged_h_0172.sdf

> <i_m_source_file_index>
62

> <r_mmod_Potential_Energy-OPLS-2005>
530.648986816406

> <r_mmod_Stretch_Energy-OPLS-2005>
144.656921386719

> <r_mmod_Bend_Energy-OPLS-2005>
221.71240234375

> <r_mmod_Torsional_Energy-OPLS-2005>
357.549774169922

> <r_mmod_Improper_Torsional_Energy-OPLS-2005>
16.5586605072021

> <r_mmod_Van_der_Waal_Energy-OPLS-2005>
151.938568115234

> <r_mmod_Electrostatic_Energy-OPLS-2005>
-254.705062866211

> <r_mmod_Solvation_Energy-OPLS-2005>
-210.198593139648

> <b_mmod_Minimization_Converged-OPLS-2005>
0

> <r_mmod_RMS_Derivative-OPLS-2005>
1.39800786972046

$$$$
62
                    3D
 Structure written by MMmdl.
170179  0  0  1  0            999 V2000
  -30.7123  -14.5201   20.5496 C   0  0  0  0  0  0
  -30.4238  -12.3284   19.4384 C   0  0  0  0  0  0
  -29.4960  -12.5031   18.2171 C   0  0  0  0  0  0
  -28.0187  -12.3587   18.6292 C   0  0  0  0  0  0
  -27.6564  -13.2143   19.8730 C   0  0  2  0  0  0
  -28.7049  -13.0340   20.9977 C   0  0  0  0  0  0
  -25.2463  -13.8065   20.5591 C   0  0  0  0  0  0
  -24.1789  -13.0357   20.9214 C   0  0  0  0  0  0
  -24.6393  -11.6854   20.8773 C   0  0  0  0  0  0
  -23.9059  -10.4255   21.0419 C   0  0  0  0  0  0
  -24.3604   -9.4173   21.9195 C   0  0  0  0  0  0
  -23.6279   -8.2211   22.0741 C   0  0  0  0  0  0
  -22.4265   -8.0263   21.3528 C   0  0  0  0  0  0
  -21.9906   -9.0243   20.4632 C   0  0  0  0  0  0
  -22.7240  -10.2116   20.3057 C   0  0  0  0  0  0
  -21.6839   -6.0729   22.5276 C   0  0  0  0  0  0
  -21.4013   -6.5633   23.8214 C   0  0  0  0  0  0
  -21.3667   -5.6781   24.9176 C   0  0  0  0  0  0
  -21.6058   -4.3043   24.7225 C   0  0  0  0  0  0
  -21.8813   -3.8138   23.4344 C   0  0  0  0  0  0
  -21.9179   -4.6960   22.3403 C   0  0  0  0  0  0
  -22.7813  -13.5162   21.1865 C   0  0  0  0  0  0
  -22.1635   -4.2146   21.0979 F   0  0  0  0  0  0
  -21.5649   -3.4529   25.7744 F   0  0  0  0  0  0
  -30.0357  -13.3367   20.4403 N   0  0  0  0  0  0
  -26.2988  -12.9319   20.3368 N   0  0  0  0  0  0
  -25.9340  -11.6474   20.5835 N   0  0  0  0  0  0
  -22.0470  -12.8159   22.0427 N   0  0  0  0  0  0
  -25.3904  -15.1732   20.3711 N   0  0  0  0  0  0
  -31.8565  -14.6552   20.1056 O   0  0  0  0  0  0
  -21.6620   -6.8871   21.4235 O   0  0  0  0  0  0
  -22.3504  -14.5484   20.6722 O   0  0  0  0  0  0
  -24.6147  -31.8673   23.2101 C   0  0  0  0  0  0
  -25.9037  -32.4824   23.8403 C   0  0  1  0  0  0
  -27.2471  -27.4321   20.1099 C   0  0  0  0  0  0
  -25.5888  -33.8625   24.2329 N   0  0  0  0  0  0
  -23.4045  -30.4867   21.5498 C   0  0  2  0  0  0
  -24.8578  -28.9468   20.1217 C   0  0  0  0  0  0
  -22.7417  -29.4649   22.5009 C   0  0  0  0  0  0
  -18.0269  -28.1372   22.8498 C   0  0  0  0  0  0
  -24.1485  -36.7317   23.2638 C   0  0  0  0  0  0
  -25.9325  -30.8285   21.3670 C   0  0  0  0  0  0
  -26.0138  -29.4584   20.7259 C   0  0  0  0  0  0
  -27.2116  -28.7050   20.7268 C   0  0  0  0  0  0
  -26.0807  -26.9382   19.4930 C   0  0  0  0  0  0
  -24.8849  -27.6830   19.5050 C   0  0  0  0  0  0
  -23.6159  -29.8103   20.1677 C   0  0  0  0  0  0
  -25.4107  -36.3114   24.0336 C   0  0  1  0  0  0
  -20.5858  -28.3652   23.1322 C   0  0  2  0  0  0
  -20.6758  -26.9386   22.5421 C   0  0  0  0  0  0
  -19.5735  -26.6376   21.5220 C   0  0  0  0  0  0
  -18.1907  -26.7929   22.1614 C   0  0  0  0  0  0
  -19.1518  -28.8835   23.2907 C   0  0  0  0  0  0
  -18.9445  -30.1449   23.8906 C   0  0  0  0  0  0
  -17.6445  -30.6581   24.0563 C   0  0  0  0  0  0
  -25.9032  -34.9481   23.5134 C   0  0  0  0  0  0
  -16.5340  -29.9072   23.6337 C   0  0  0  0  0  0
  -16.7259  -28.6489   23.0360 C   0  0  0  0  0  0
  -26.4465  -31.6607   25.0732 C   0  0  0  0  0  0
  -25.3728  -31.3703   26.1478 C   0  0  0  0  0  0
  -27.0302  -30.3052   24.6114 C   0  0  0  0  0  0
  -27.6043  -32.4325   25.7485 C   0  0  0  0  0  0
  -27.5584  -37.1807   24.8458 C   0  0  0  0  0  0
  -21.4143  -29.3024   22.3743 N   0  0  0  0  0  0
  -26.4293  -37.3798   23.9410 N   0  0  0  0  0  0
  -24.6682  -31.0764   22.1006 N   0  0  0  0  0  0
  -23.4186  -28.8197   23.3061 O   0  0  0  0  0  0
  -28.3974  -26.6774   20.0288 O   0  0  0  0  0  0
  -26.5597  -34.8921   22.4696 O   0  0  0  0  0  0
  -23.5338  -32.1430   23.7481 O   0  0  0  0  0  0
  -29.1491  -19.1996   20.8327 C   0  0  0  0  0  0
  -31.5160  -18.9197   20.6929 C   0  0  0  0  0  0
  -30.4105  -19.7986   20.6643 C   0  0  0  0  0  0
  -29.0447  -17.7998   20.9905 C   0  0  0  0  0  0
  -30.2003  -16.9772   20.9380 C   0  0  0  0  0  0
  -29.7479  -23.8931   19.3680 C   0  0  0  0  0  0
  -30.5894  -21.3270   20.4502 C   0  0  2  0  0  0
  -29.5011  -22.2560   21.1256 C   0  0  1  0  0  0
  -30.8737  -23.0712   18.7116 C   0  0  1  0  0  0
  -27.6576  -17.2158   21.1588 C   0  0  0  0  0  0
  -29.4903  -22.0263   22.6538 C   0  0  0  0  0  0
  -32.2794  -23.5944   19.0750 C   0  0  0  0  0  0
  -28.6615  -24.5892   21.3839 C   0  0  0  0  0  0
  -28.9052  -26.1260   21.2521 C   0  0  0  0  0  0
  -31.4147  -17.5687   20.8091 N   0  0  0  0  0  0
  -29.7156  -23.7028   20.8267 N   0  0  0  0  0  0
  -29.9900  -15.5567   21.0371 N   0  0  0  0  0  0
  -30.6863  -21.6321   19.0031 N   0  3  0  0  0  0
  -31.4690  -12.4144   19.1373 H   0  0  0  0  0  0
  -30.3193  -11.3266   19.8578 H   0  0  0  0  0  0
  -29.7415  -11.7670   17.4503 H   0  0  0  0  0  0
  -29.6569  -13.4820   17.7616 H   0  0  0  0  0  0
  -27.8370  -11.3044   18.8408 H   0  0  0  0  0  0
  -27.3653  -12.6138   17.7934 H   0  0  0  0  0  0
  -27.6861  -14.2570   19.5566 H   0  0  0  0  0  0
  -28.6891  -12.0081   21.3692 H   0  0  0  0  0  0
  -28.4647  -13.6585   21.8596 H   0  0  0  0  0  0
  -25.2741   -9.5651   22.4777 H   0  0  0  0  0  0
  -23.9990   -7.4583   22.7435 H   0  0  0  0  0  0
  -21.0848   -8.8774   19.8911 H   0  0  0  0  0  0
  -22.3714  -10.9664   19.6181 H   0  0  0  0  0  0
  -21.2001   -7.6140   23.9732 H   0  0  0  0  0  0
  -21.1492   -6.0508   25.9085 H   0  0  0  0  0  0
  -22.0581   -2.7604   23.2845 H   0  0  0  0  0  0
  -22.4103  -11.9827   22.4815 H   0  0  0  0  0  0
  -21.1083  -13.1167   22.2642 H   0  0  0  0  0  0
  -24.5811  -15.7828   20.4061 H   0  0  0  0  0  0
  -26.1721  -15.5815   19.8792 H   0  0  0  0  0  0
  -26.7119  -32.5538   23.1180 H   0  0  0  0  0  0
  -25.0066  -33.9798   25.0491 H   0  0  0  0  0  0
  -22.6939  -31.3029   21.4052 H   0  0  0  0  0  0
  -23.3748  -35.9648   23.3300 H   0  0  0  0  0  0
  -24.3581  -36.8936   22.2052 H   0  0  0  0  0  0
  -23.7231  -37.6518   23.6657 H   0  0  0  0  0  0
  -26.0432  -31.5876   20.5912 H   0  0  0  0  0  0
  -26.8217  -30.8906   21.9833 H   0  0  0  0  0  0
  -28.1075  -29.1023   21.1828 H   0  0  0  0  0  0
  -26.0998  -25.9743   19.0041 H   0  0  0  0  0  0
  -23.9983  -27.2835   19.0319 H   0  0  0  0  0  0
  -23.7169  -30.5794   19.4015 H   0  0  0  0  0  0
  -22.7431  -29.2214   19.8786 H   0  0  0  0  0  0
  -25.1291  -36.1983   25.0831 H   0  0  0  0  0  0
  -20.9943  -28.3207   24.1448 H   0  0  0  0  0  0
  -20.5647  -26.2267   23.3616 H   0  0  0  0  0  0
  -21.6628  -26.7421   22.1215 H   0  0  0  0  0  0
  -19.6885  -25.6285   21.1247 H   0  0  0  0  0  0
  -19.6681  -27.3200   20.6760 H   0  0  0  0  0  0
  -17.4191  -26.6723   21.3994 H   0  0  0  0  0  0
  -18.0265  -26.0049   22.8978 H   0  0  0  0  0  0
  -19.7918  -30.7281   24.2262 H   0  0  0  0  0  0
  -17.4989  -31.6268   24.5145 H   0  0  0  0  0  0
  -15.5334  -30.2972   23.7661 H   0  0  0  0  0  0
  -15.8659  -28.0813   22.7069 H   0  0  0  0  0  0
  -24.5932  -30.7013   25.7818 H   0  0  0  0  0  0
  -24.8876  -32.2846   26.4908 H   0  0  0  0  0  0
  -25.8081  -30.8902   27.0250 H   0  0  0  0  0  0
  -26.2854  -29.6807   24.1168 H   0  0  0  0  0  0
  -27.4073  -29.7296   25.4576 H   0  0  0  0  0  0
  -27.8684  -30.4377   23.9269 H   0  0  0  0  0  0
  -27.2680  -33.3629   26.2077 H   0  0  0  0  0  0
  -28.3843  -32.6885   25.0300 H   0  0  0  0  0  0
  -28.0727  -31.8443   26.5386 H   0  0  0  0  0  0
  -28.2599  -38.0109   24.7527 H   0  0  0  0  0  0
  -28.1088  -36.2647   24.6260 H   0  0  0  0  0  0
  -27.2310  -37.1420   25.8862 H   0  0  0  0  0  0
  -20.9317  -29.8755   21.6967 H   0  0  0  0  0  0
  -26.0185  -38.2878   24.1416 H   0  0  0  0  0  0
  -28.2516  -19.8008   20.8331 H   0  0  0  0  0  0
  -32.5195  -19.3049   20.5801 H   0  0  0  0  0  0
  -28.7831  -23.6251   18.9320 H   0  0  0  0  0  0
  -29.9127  -24.9421   19.1203 H   0  0  0  0  0  0
  -31.5526  -21.5752   20.8991 H   0  0  0  0  0  0
  -28.5204  -21.9834   20.7330 H   0  0  0  0  0  0
  -30.7705  -23.1848   17.6312 H   0  0  0  0  0  0
  -26.9506  -17.9603   21.5263 H   0  0  0  0  0  0
  -27.6368  -16.3808   21.8601 H   0  0  0  0  0  0
  -27.3146  -16.8813   20.1820 H   0  0  0  0  0  0
  -30.3515  -22.4918   23.1339 H   0  0  0  0  0  0
  -29.5188  -20.9684   22.9110 H   0  0  0  0  0  0
  -28.5871  -22.4130   23.1251 H   0  0  0  0  0  0
  -32.4697  -23.5642   20.1471 H   0  0  0  0  0  0
  -32.3913  -24.6334   18.7628 H   0  0  0  0  0  0
  -33.0611  -23.0214   18.5762 H   0  0  0  0  0  0
  -27.6762  -24.3277   20.9946 H   0  0  0  0  0  0
  -28.6092  -24.4173   22.4574 H   0  0  0  0  0  0
  -29.9701  -26.3488   21.3292 H   0  0  0  0  0  0
  -28.4422  -26.6239   22.1063 H   0  0  0  0  0  0
  -29.0682  -15.2903   21.3369 H   0  0  0  0  0  0
  -29.8336  -21.3413   18.5538 H   0  0  0  0  0  0
  -31.4422  -21.1169   18.5844 H   0  0  0  0  0  0
  1 25  1  0  0  0
  1 30  2  0  0  0
  1 87  1  0  0  0
  2  3  1  0  0  0
  2 25  1  0  0  0
  2 89  1  0  0  0
  2 90  1  0  0  0
  3  4  1  0  0  0
  3 91  1  0  0  0
  3 92  1  0  0  0
  4  5  1  0  0  0
  4 93  1  0  0  0
  4 94  1  0  0  0
  5  6  1  0  0  0
  5 26  1  0  0  0
  5 95  1  0  0  0
  6 25  1  0  0  0
  6 96  1  0  0  0
  6 97  1  0  0  0
  7  8  2  0  0  0
  7 26  1  0  0  0
  7 29  1  0  0  0
  8  9  1  0  0  0
  8 22  1  0  0  0
  9 10  1  0  0  0
  9 27  2  0  0  0
 10 11  2  0  0  0
 10 15  1  0  0  0
 11 12  1  0  0  0
 11 98  1  0  0  0
 12 13  2  0  0  0
 12 99  1  0  0  0
 13 14  1  0  0  0
 13 31  1  0  0  0
 14 15  2  0  0  0
 14100  1  0  0  0
 15101  1  0  0  0
 16 17  2  0  0  0
 16 21  1  0  0  0
 16 31  1  0  0  0
 17 18  1  0  0  0
 17102  1  0  0  0
 18 19  2  0  0  0
 18103  1  0  0  0
 19 20  1  0  0  0
 19 24  1  0  0  0
 20 21  2  0  0  0
 20104  1  0  0  0
 21 23  1  0  0  0
 22 28  1  0  0  0
 22 32  2  0  0  0
 26 27  1  0  0  0
 28105  1  0  0  0
 28106  1  0  0  0
 29107  1  0  0  0
 29108  1  0  0  0
 33 34  1  0  0  0
 33 66  1  0  0  0
 33 70  2  0  0  0
 34 36  1  0  0  0
 34 59  1  0  0  0
 34109  1  0  0  0
 35 44  2  0  0  0
 35 45  1  0  0  0
 35 68  1  0  0  0
 36 56  1  0  0  0
 36110  1  0  0  0
 37 39  1  0  0  0
 37 47  1  0  0  0
 37 66  1  0  0  0
 37111  1  0  0  0
 38 43  2  0  0  0
 38 46  1  0  0  0
 38 47  1  0  0  0
 39 64  1  0  0  0
 39 67  2  0  0  0
 40 52  1  0  0  0
 40 53  2  0  0  0
 40 58  1  0  0  0
 41112  1  0  0  0
 41113  1  0  0  0
 41114  1  0  0  0
 41 48  1  0  0  0
 42 43  1  0  0  0
 42 66  1  0  0  0
 42115  1  0  0  0
 42116  1  0  0  0
 43 44  1  0  0  0
 44117  1  0  0  0
 45 46  2  0  0  0
 45118  1  0  0  0
 46119  1  0  0  0
 47120  1  0  0  0
 47121  1  0  0  0
 48 56  1  0  0  0
 48 65  1  0  0  0
 48122  1  0  0  0
 49 50  1  0  0  0
 49 53  1  0  0  0
 49 64  1  0  0  0
 49123  1  0  0  0
 50 51  1  0  0  0
 50124  1  0  0  0
 50125  1  0  0  0
 51 52  1  0  0  0
 51126  1  0  0  0
 51127  1  0  0  0
 52128  1  0  0  0
 52129  1  0  0  0
 53 54  1  0  0  0
 54 55  2  0  0  0
 54130  1  0  0  0
 55 57  1  0  0  0
 55131  1  0  0  0
 56 69  2  0  0  0
 57 58  2  0  0  0
 57132  1  0  0  0
 58133  1  0  0  0
 59 60  1  0  0  0
 59 61  1  0  0  0
 59 62  1  0  0  0
 60134  1  0  0  0
 60135  1  0  0  0
 60136  1  0  0  0
 61137  1  0  0  0
 61138  1  0  0  0
 61139  1  0  0  0
 62140  1  0  0  0
 62141  1  0  0  0
 62142  1  0  0  0
 63 65  1  0  0  0
 63143  1  0  0  0
 63144  1  0  0  0
 63145  1  0  0  0
 64146  1  0  0  0
 65147  1  0  0  0
 68 84  1  0  0  0
 71 73  2  0  0  0
 71 74  1  0  0  0
 71148  1  0  0  0
 72 73  1  0  0  0
 72 85  2  0  0  0
 72149  1  0  0  0
 73 77  1  0  0  0
 74 75  2  0  0  0
 74 80  1  0  0  0
 75 85  1  0  0  0
 75 87  1  0  0  0
 76 79  1  0  0  0
 76 86  1  0  0  0
 76150  1  0  0  0
 76151  1  0  0  0
 77 78  1  0  0  0
 77 88  1  0  0  0
 77152  1  0  0  0
 78 81  1  0  0  0
 78 86  1  0  0  0
 78153  1  0  0  0
 79 82  1  0  0  0
 79 88  1  0  0  0
 79154  1  0  0  0
 80155  1  0  0  0
 80156  1  0  0  0
 80157  1  0  0  0
 81158  1  0  0  0
 81159  1  0  0  0
 81160  1  0  0  0
 82161  1  0  0  0
 82162  1  0  0  0
 82163  1  0  0  0
 83 84  1  0  0  0
 83 86  1  0  0  0
 83164  1  0  0  0
 83165  1  0  0  0
 84166  1  0  0  0
 84167  1  0  0  0
 87168  1  0  0  0
 88169  1  0  0  0
 88170  1  0  0  0
M  CHG  1  88   1
M  ISO  4   1 100  68 101  84 101  87 100
M  END
> <chiral flag>
0

> <version>
0

> <s_m_source_file>
/data/baiqing/PycharmProjects/Reinvent-master-3.2/result/LINK_invent/BTK/process_docking_weight1_custom_sum_contain_oxygen_bond_distance_aromatic_linkinvent_7_9_3/rearranged_h_0172.sdf

> <i_m_source_file_index>
63

> <r_mmod_Potential_Energy-OPLS-2005>
-270.755004882812

> <r_mmod_Stretch_Energy-OPLS-2005>
51.514965057373

> <r_mmod_Bend_Energy-OPLS-2005>
116.602348327637

> <r_mmod_Torsional_Energy-OPLS-2005>
247.827484130859

> <r_mmod_Improper_Torsional_Energy-OPLS-2005>
5.23754644393921

> <r_mmod_Van_der_Waal_Energy-OPLS-2005>
164.140396118164

> <r_mmod_Electrostatic_Energy-OPLS-2005>
-407.083862304688

> <r_mmod_Solvation_Energy-OPLS-2005>
-465.143157958984

> <b_mmod_Minimization_Converged-OPLS-2005>
0

> <r_mmod_RMS_Derivative-OPLS-2005>
1.6064840555191

$$$$
63
                    3D
 Structure written by MMmdl.
165174  0  0  1  0            999 V2000
  -30.5679  -14.9054   20.5002 C   0  0  0  0  0  0
  -30.4359  -12.5772   19.4943 C   0  0  0  0  0  0
  -29.5196  -12.5468   18.2478 C   0  0  0  0  0  0
  -28.0491  -12.3315   18.6519 C   0  0  0  0  0  0
  -27.6304  -13.2419   19.8331 C   0  0  2  0  0  0
  -28.6655  -13.2188   20.9712 C   0  0  0  0  0  0
  -25.2477  -13.8210   20.5674 C   0  0  0  0  0  0
  -24.1786  -13.0443   20.9202 C   0  0  0  0  0  0
  -24.6398  -11.6922   20.8732 C   0  0  0  0  0  0
  -23.9087  -10.4293   21.0406 C   0  0  0  0  0  0
  -24.3635   -9.4209   21.9187 C   0  0  0  0  0  0
  -23.6299   -8.2247   22.0761 C   0  0  0  0  0  0
  -22.4280   -8.0292   21.3546 C   0  0  0  0  0  0
  -21.9919   -9.0271   20.4649 C   0  0  0  0  0  0
  -22.7258  -10.2140   20.3055 C   0  0  0  0  0  0
  -21.6853   -6.0745   22.5283 C   0  0  0  0  0  0
  -21.4016   -6.5649   23.8220 C   0  0  0  0  0  0
  -21.3653   -5.6795   24.9178 C   0  0  0  0  0  0
  -21.6041   -4.3058   24.7226 C   0  0  0  0  0  0
  -21.8817   -3.8154   23.4347 C   0  0  0  0  0  0
  -21.9195   -4.6973   22.3404 C   0  0  0  0  0  0
  -22.7810  -13.5225   21.1882 C   0  0  0  0  0  0
  -22.1661   -4.2161   21.0979 F   0  0  0  0  0  0
  -21.5627   -3.4542   25.7740 F   0  0  0  0  0  0
  -29.9509  -13.6558   20.4076 N   0  0  0  0  0  0
  -26.2874  -12.9422   20.3165 N   0  0  0  0  0  0
  -25.9316  -11.6559   20.5674 N   0  0  0  0  0  0
  -22.0459  -12.8203   22.0427 N   0  0  0  0  0  0
  -25.4187  -15.1937   20.4158 N   0  0  0  0  0  0
  -31.7389  -14.9770   20.1084 O   0  0  0  0  0  0
  -21.6643   -6.8891   21.4244 O   0  0  0  0  0  0
  -22.3490  -14.5531   20.6737 O   0  0  0  0  0  0
  -24.6413  -31.8461   23.1914 C   0  0  0  0  0  0
  -25.9190  -32.4712   23.8305 C   0  0  1  0  0  0
  -27.2175  -27.1604   20.1551 C   0  0  0  0  0  0
  -25.5944  -33.8515   24.2218 N   0  0  0  0  0  0
  -23.4448  -30.4670   21.5360 C   0  0  2  0  0  0
  -24.8954  -28.8987   20.1123 C   0  0  0  0  0  0
  -22.7570  -29.4559   22.4874 C   0  0  0  0  0  0
  -18.0305  -28.1399   22.8476 C   0  0  0  0  0  0
  -24.1485  -36.7255   23.2646 C   0  0  0  0  0  0
  -26.0005  -30.7292   21.3866 C   0  0  0  0  0  0
  -26.0728  -29.3416   20.7306 C   0  0  0  0  0  0
  -27.2381  -28.4879   20.7354 C   0  0  0  0  0  0
  -26.0203  -26.8209   19.4878 C   0  0  0  0  0  0
  -24.8815  -27.6511   19.4738 C   0  0  0  0  0  0
  -23.6702  -29.7975   20.1547 C   0  0  0  0  0  0
  -25.4112  -36.3041   24.0324 C   0  0  1  0  0  0
  -20.5918  -28.3720   23.1245 C   0  0  2  0  0  0
  -20.6787  -26.9424   22.5408 C   0  0  0  0  0  0
  -19.5758  -26.6381   21.5223 C   0  0  0  0  0  0
  -18.1938  -26.7938   22.1625 C   0  0  0  0  0  0
  -19.1561  -28.8876   23.2854 C   0  0  0  0  0  0
  -18.9480  -30.1474   23.8878 C   0  0  0  0  0  0
  -17.6475  -30.6592   24.0560 C   0  0  0  0  0  0
  -25.9059  -34.9413   23.5074 C   0  0  0  0  0  0
  -16.5366  -29.9084   23.6337 C   0  0  0  0  0  0
  -16.7288  -28.6503   23.0353 C   0  0  0  0  0  0
  -26.4523  -31.6573   25.0734 C   0  0  0  0  0  0
  -25.3699  -31.3748   26.1425 C   0  0  0  0  0  0
  -27.0395  -30.2981   24.6293 C   0  0  0  0  0  0
  -27.6067  -32.4330   25.7505 C   0  0  0  0  0  0
  -27.5569  -37.1784   24.8465 C   0  0  0  0  0  0
  -21.4261  -29.3046   22.3621 N   0  0  0  0  0  0
  -26.4276  -37.3755   23.9417 N   0  0  0  0  0  0
  -24.7153  -31.0342   22.0941 N   0  0  0  0  0  0
  -23.4218  -28.8095   23.3011 O   0  0  0  0  0  0
  -28.2560  -26.1653   20.1887 O   0  0  0  0  0  0
  -26.5655  -34.8902   22.4660 O   0  0  0  0  0  0
  -23.5527  -32.1322   23.7136 O   0  0  0  0  0  0
  -29.8241  -21.4422   21.4064 C   0  0  0  0  0  0
  -29.3476  -20.3563   20.5963 C   0  0  0  0  0  0
  -28.4817  -20.8675   19.5704 C   0  0  0  0  0  0
  -28.1257  -22.2891   19.4825 C   0  0  0  0  0  0
  -28.5959  -23.2805   20.4214 C   0  0  0  0  0  0
  -29.8068  -17.4330   19.9917 C   0  0  0  0  0  0
  -29.8121  -18.7890   20.9137 C   0  0  2  0  0  0
  -29.1867  -18.1062   22.1361 C   0  0  1  0  0  0
  -29.8231  -16.6694   22.1824 C   0  0  1  0  0  0
  -27.9176  -19.8589   18.5801 C   0  0  0  0  0  0
  -27.1868  -22.7563   18.3764 C   0  0  0  0  0  0
  -29.1574  -15.7709   23.2426 C   0  0  0  0  0  0
  -27.8901  -24.7525   20.7001 C   0  0  0  0  0  0
  -29.4612  -22.7770   21.3545 N   0  0  0  0  0  0
  -29.8453  -16.1023   20.8037 N   0  0  0  0  0  0
  -29.3603  -18.8601   23.3905 N   0  3  0  0  0  0
  -31.4701  -12.7325   19.1841 H   0  0  0  0  0  0
  -30.4265  -11.6108   20.0005 H   0  0  0  0  0  0
  -29.8381  -11.7621   17.5602 H   0  0  0  0  0  0
  -29.6146  -13.4871   17.7024 H   0  0  0  0  0  0
  -27.9317  -11.2852   18.9337 H   0  0  0  0  0  0
  -27.3921  -12.4925   17.7962 H   0  0  0  0  0  0
  -27.6095  -14.2574   19.4366 H   0  0  0  0  0  0
  -28.7449  -12.2227   21.4097 H   0  0  0  0  0  0
  -28.3225  -13.8684   21.7658 H   0  0  0  0  0  0
  -25.2781   -9.5691   22.4756 H   0  0  0  0  0  0
  -24.0013   -7.4642   22.7478 H   0  0  0  0  0  0
  -21.0852   -8.8789   19.8951 H   0  0  0  0  0  0
  -22.3722  -10.9683   19.6161 H   0  0  0  0  0  0
  -21.2002   -7.6160   23.9728 H   0  0  0  0  0  0
  -21.1472   -6.0526   25.9083 H   0  0  0  0  0  0
  -22.0598   -2.7620   23.2844 H   0  0  0  0  0  0
  -22.4070  -11.9859   22.4806 H   0  0  0  0  0  0
  -21.1069  -13.1217   22.2632 H   0  0  0  0  0  0
  -24.6525  -15.8481   20.5286 H   0  0  0  0  0  0
  -26.2739  -15.6335   20.1013 H   0  0  0  0  0  0
  -26.7255  -32.5332   23.1035 H   0  0  0  0  0  0
  -25.0074  -33.9653   25.0353 H   0  0  0  0  0  0
  -22.7465  -31.2924   21.3819 H   0  0  0  0  0  0
  -23.3758  -35.9575   23.3294 H   0  0  0  0  0  0
  -24.3569  -36.8904   22.2063 H   0  0  0  0  0  0
  -23.7228  -37.6444   23.6684 H   0  0  0  0  0  0
  -26.1499  -31.4839   20.6126 H   0  0  0  0  0  0
  -26.8741  -30.7831   22.0246 H   0  0  0  0  0  0
  -28.1351  -28.8215   21.2373 H   0  0  0  0  0  0
  -25.9419  -25.8703   18.9815 H   0  0  0  0  0  0
  -23.9860  -27.3116   18.9723 H   0  0  0  0  0  0
  -23.8024  -30.5737   19.4005 H   0  0  0  0  0  0
  -22.7858  -29.2389   19.8425 H   0  0  0  0  0  0
  -25.1295  -36.1872   25.0819 H   0  0  0  0  0  0
  -21.0009  -28.3305   24.1366 H   0  0  0  0  0  0
  -20.5701  -26.2333   23.3628 H   0  0  0  0  0  0
  -21.6649  -26.7436   22.1194 H   0  0  0  0  0  0
  -19.6926  -25.6294   21.1253 H   0  0  0  0  0  0
  -19.6696  -27.3188   20.6751 H   0  0  0  0  0  0
  -17.4212  -26.6696   21.4023 H   0  0  0  0  0  0
  -18.0321  -26.0092   22.9028 H   0  0  0  0  0  0
  -19.7958  -30.7297   24.2236 H   0  0  0  0  0  0
  -17.5023  -31.6267   24.5168 H   0  0  0  0  0  0
  -15.5363  -30.2972   23.7678 H   0  0  0  0  0  0
  -15.8691  -28.0809   22.7081 H   0  0  0  0  0  0
  -24.5885  -30.7096   25.7738 H   0  0  0  0  0  0
  -24.8872  -32.2917   26.4811 H   0  0  0  0  0  0
  -25.7966  -30.8942   27.0236 H   0  0  0  0  0  0
  -26.3016  -29.6705   24.1283 H   0  0  0  0  0  0
  -27.4023  -29.7278   25.4860 H   0  0  0  0  0  0
  -27.8913  -30.4260   23.9607 H   0  0  0  0  0  0
  -27.2688  -33.3667   26.2011 H   0  0  0  0  0  0
  -28.3902  -32.6832   25.0336 H   0  0  0  0  0  0
  -28.0698  -31.8493   26.5471 H   0  0  0  0  0  0
  -28.2575  -38.0094   24.7516 H   0  0  0  0  0  0
  -28.1080  -36.2621   24.6274 H   0  0  0  0  0  0
  -27.2289  -37.1405   25.8872 H   0  0  0  0  0  0
  -20.9472  -29.8763   21.6805 H   0  0  0  0  0  0
  -26.0144  -38.2825   24.1431 H   0  0  0  0  0  0
  -30.5139  -21.2156   22.2053 H   0  0  0  0  0  0
  -30.6178  -17.4611   19.2628 H   0  0  0  0  0  0
  -28.8827  -17.3857   19.4177 H   0  0  0  0  0  0
  -30.8696  -18.9223   21.1519 H   0  0  0  0  0  0
  -28.1116  -18.0143   21.9623 H   0  0  0  0  0  0
  -30.8716  -16.7784   22.4712 H   0  0  0  0  0  0
  -28.7342  -19.3431   18.0752 H   0  0  0  0  0  0
  -27.2861  -20.2856   17.8044 H   0  0  0  0  0  0
  -27.3179  -19.1191   19.1102 H   0  0  0  0  0  0
  -27.5942  -22.4938   17.3995 H   0  0  0  0  0  0
  -27.0530  -23.8361   18.3652 H   0  0  0  0  0  0
  -26.2024  -22.2981   18.4795 H   0  0  0  0  0  0
  -28.0913  -15.6423   23.0491 H   0  0  0  0  0  0
  -29.2484  -16.2008   24.2403 H   0  0  0  0  0  0
  -29.6292  -14.7900   23.3002 H   0  0  0  0  0  0
  -27.9497  -24.8675   21.7829 H   0  0  0  0  0  0
  -26.8270  -24.5826   20.5441 H   0  0  0  0  0  0
  -30.3309  -19.0020   23.6072 H   0  0  0  0  0  0
  -28.9329  -18.3690   24.1558 H   0  0  0  0  0  0
  -28.9049  -19.7527   23.3190 H   0  0  0  0  0  0
  1 25  1  0  0  0
  1 30  2  0  0  0
  1 85  1  0  0  0
  2  3  1  0  0  0
  2 25  1  0  0  0
  2 87  1  0  0  0
  2 88  1  0  0  0
  3  4  1  0  0  0
  3 89  1  0  0  0
  3 90  1  0  0  0
  4  5  1  0  0  0
  4 91  1  0  0  0
  4 92  1  0  0  0
  5  6  1  0  0  0
  5 26  1  0  0  0
  5 93  1  0  0  0
  6 25  1  0  0  0
  6 94  1  0  0  0
  6 95  1  0  0  0
  7  8  2  0  0  0
  7 26  1  0  0  0
  7 29  1  0  0  0
  8  9  1  0  0  0
  8 22  1  0  0  0
  9 10  1  0  0  0
  9 27  2  0  0  0
 10 11  2  0  0  0
 10 15  1  0  0  0
 11 12  1  0  0  0
 11 96  1  0  0  0
 12 13  2  0  0  0
 12 97  1  0  0  0
 13 14  1  0  0  0
 13 31  1  0  0  0
 14 15  2  0  0  0
 14 98  1  0  0  0
 15 99  1  0  0  0
 16 17  2  0  0  0
 16 21  1  0  0  0
 16 31  1  0  0  0
 17 18  1  0  0  0
 17100  1  0  0  0
 18 19  2  0  0  0
 18101  1  0  0  0
 19 20  1  0  0  0
 19 24  1  0  0  0
 20 21  2  0  0  0
 20102  1  0  0  0
 21 23  1  0  0  0
 22 28  1  0  0  0
 22 32  2  0  0  0
 26 27  1  0  0  0
 28103  1  0  0  0
 28104  1  0  0  0
 29105  1  0  0  0
 29106  1  0  0  0
 33 34  1  0  0  0
 33 66  1  0  0  0
 33 70  2  0  0  0
 34 36  1  0  0  0
 34 59  1  0  0  0
 34107  1  0  0  0
 35 44  2  0  0  0
 35 45  1  0  0  0
 35 68  1  0  0  0
 36 56  1  0  0  0
 36108  1  0  0  0
 37 39  1  0  0  0
 37 47  1  0  0  0
 37 66  1  0  0  0
 37109  1  0  0  0
 38 43  2  0  0  0
 38 46  1  0  0  0
 38 47  1  0  0  0
 39 64  1  0  0  0
 39 67  2  0  0  0
 40 52  1  0  0  0
 40 53  2  0  0  0
 40 58  1  0  0  0
 41110  1  0  0  0
 41111  1  0  0  0
 41112  1  0  0  0
 41 48  1  0  0  0
 42 43  1  0  0  0
 42 66  1  0  0  0
 42113  1  0  0  0
 42114  1  0  0  0
 43 44  1  0  0  0
 44115  1  0  0  0
 45 46  2  0  0  0
 45116  1  0  0  0
 46117  1  0  0  0
 47118  1  0  0  0
 47119  1  0  0  0
 48 56  1  0  0  0
 48 65  1  0  0  0
 48120  1  0  0  0
 49 50  1  0  0  0
 49 53  1  0  0  0
 49 64  1  0  0  0
 49121  1  0  0  0
 50 51  1  0  0  0
 50122  1  0  0  0
 50123  1  0  0  0
 51 52  1  0  0  0
 51124  1  0  0  0
 51125  1  0  0  0
 52126  1  0  0  0
 52127  1  0  0  0
 53 54  1  0  0  0
 54 55  2  0  0  0
 54128  1  0  0  0
 55 57  1  0  0  0
 55129  1  0  0  0
 56 69  2  0  0  0
 57 58  2  0  0  0
 57130  1  0  0  0
 58131  1  0  0  0
 59 60  1  0  0  0
 59 61  1  0  0  0
 59 62  1  0  0  0
 60132  1  0  0  0
 60133  1  0  0  0
 60134  1  0  0  0
 61135  1  0  0  0
 61136  1  0  0  0
 61137  1  0  0  0
 62138  1  0  0  0
 62139  1  0  0  0
 62140  1  0  0  0
 63 65  1  0  0  0
 63141  1  0  0  0
 63142  1  0  0  0
 63143  1  0  0  0
 64144  1  0  0  0
 65145  1  0  0  0
 68 83  1  0  0  0
 71 72  2  0  0  0
 71 84  1  0  0  0
 71146  1  0  0  0
 72 73  1  0  0  0
 72 77  1  0  0  0
 73 74  2  0  0  0
 73 80  1  0  0  0
 74 75  1  0  0  0
 74 81  1  0  0  0
 75 83  1  0  0  0
 75 84  2  0  0  0
 76 77  1  0  0  0
 76 85  1  0  0  0
 76147  1  0  0  0
 76148  1  0  0  0
 77 78  1  0  0  0
 77149  1  0  0  0
 78 79  1  0  0  0
 78 86  1  0  0  0
 78150  1  0  0  0
 79 82  1  0  0  0
 79 85  1  0  0  0
 79151  1  0  0  0
 80152  1  0  0  0
 80153  1  0  0  0
 80154  1  0  0  0
 81155  1  0  0  0
 81156  1  0  0  0
 81157  1  0  0  0
 82158  1  0  0  0
 82159  1  0  0  0
 82160  1  0  0  0
 83161  1  0  0  0
 83162  1  0  0  0
 86163  1  0  0  0
 86164  1  0  0  0
 86165  1  0  0  0
M  CHG  1  86   1
M  ISO  4   1 100  68 101  83 101  85 100
M  END
> <chiral flag>
0

> <version>
0

> <s_m_source_file>
/data/baiqing/PycharmProjects/Reinvent-master-3.2/result/LINK_invent/BTK/process_docking_weight1_custom_sum_contain_oxygen_bond_distance_aromatic_linkinvent_7_9_3/rearranged_h_0172.sdf

> <i_m_source_file_index>
64

> <r_mmod_Potential_Energy-OPLS-2005>
276.219329833984

> <r_mmod_Stretch_Energy-OPLS-2005>
224.155426025391

> <r_mmod_Bend_Energy-OPLS-2005>
308.925506591797

> <r_mmod_Torsional_Energy-OPLS-2005>
369.93994140625

> <r_mmod_Improper_Torsional_Energy-OPLS-2005>
11.5613946914673

> <r_mmod_Van_der_Waal_Energy-OPLS-2005>
136.369995117188

> <r_mmod_Electrostatic_Energy-OPLS-2005>
-439.377349853516

> <r_mmod_Solvation_Energy-OPLS-2005>
-500.195770263672

> <b_mmod_Minimization_Converged-OPLS-2005>
0

> <r_mmod_RMS_Derivative-OPLS-2005>
1.48437035083771

$$$$
64
                    3D
 Structure written by MMmdl.
176187  0  0  1  0            999 V2000
  -30.5543  -14.9713   20.4966 C   0  0  0  0  0  0
  -30.4406  -12.6158   19.5201 C   0  0  0  0  0  0
  -29.5282  -12.5627   18.2698 C   0  0  0  0  0  0
  -28.0558  -12.3446   18.6668 C   0  0  0  0  0  0
  -27.6311  -13.2544   19.8478 C   0  0  2  0  0  0
  -28.6686  -13.2382   20.9883 C   0  0  0  0  0  0
  -25.2349  -13.8163   20.5593 C   0  0  0  0  0  0
  -24.1733  -13.0374   20.9213 C   0  0  0  0  0  0
  -24.6412  -11.6890   20.8769 C   0  0  0  0  0  0
  -23.9103  -10.4264   21.0413 C   0  0  0  0  0  0
  -24.3641   -9.4186   21.9188 C   0  0  0  0  0  0
  -23.6310   -8.2224   22.0749 C   0  0  0  0  0  0
  -22.4286   -8.0272   21.3546 C   0  0  0  0  0  0
  -21.9935   -9.0242   20.4639 C   0  0  0  0  0  0
  -22.7278  -10.2112   20.3054 C   0  0  0  0  0  0
  -21.6846   -6.0744   22.5286 C   0  0  0  0  0  0
  -21.4009   -6.5641   23.8224 C   0  0  0  0  0  0
  -21.3662   -5.6787   24.9177 C   0  0  0  0  0  0
  -21.6044   -4.3050   24.7227 C   0  0  0  0  0  0
  -21.8820   -3.8154   23.4342 C   0  0  0  0  0  0
  -21.9193   -4.6975   22.3405 C   0  0  0  0  0  0
  -22.7754  -13.5135   21.1876 C   0  0  0  0  0  0
  -22.1654   -4.2172   21.0980 F   0  0  0  0  0  0
  -21.5638   -3.4533   25.7735 F   0  0  0  0  0  0
  -29.9518  -13.7019   20.4307 N   0  0  0  0  0  0
  -26.2865  -12.9466   20.3234 N   0  0  0  0  0  0
  -25.9361  -11.6586   20.5780 N   0  0  0  0  0  0
  -22.0425  -12.8129   22.0447 N   0  0  0  0  0  0
  -25.3756  -15.1856   20.3805 N   0  0  0  0  0  0
  -31.6968  -15.0504   20.0294 O   0  0  0  0  0  0
  -21.6631   -6.8882   21.4249 O   0  0  0  0  0  0
  -22.3428  -14.5446   20.6734 O   0  0  0  0  0  0
  -24.6439  -31.8422   23.1858 C   0  0  0  0  0  0
  -25.9202  -32.4692   23.8270 C   0  0  1  0  0  0
  -27.2251  -27.1238   20.1731 C   0  0  0  0  0  0
  -25.5948  -33.8501   24.2191 N   0  0  0  0  0  0
  -23.4497  -30.4572   21.5325 C   0  0  2  0  0  0
  -24.9004  -28.8725   20.1205 C   0  0  0  0  0  0
  -22.7580  -29.4534   22.4877 C   0  0  0  0  0  0
  -18.0308  -28.1388   22.8484 C   0  0  0  0  0  0
  -24.1485  -36.7241   23.2644 C   0  0  0  0  0  0
  -26.0054  -30.7136   21.3848 C   0  0  0  0  0  0
  -26.0784  -29.3206   20.7323 C   0  0  0  0  0  0
  -27.2446  -28.4653   20.7324 C   0  0  0  0  0  0
  -26.0202  -26.7688   19.5334 C   0  0  0  0  0  0
  -24.8845  -27.6100   19.5044 C   0  0  0  0  0  0
  -23.6778  -29.7773   20.1553 C   0  0  0  0  0  0
  -25.4123  -36.3035   24.0319 C   0  0  1  0  0  0
  -20.5922  -28.3713   23.1236 C   0  0  2  0  0  0
  -20.6788  -26.9411   22.5415 C   0  0  0  0  0  0
  -19.5758  -26.6373   21.5222 C   0  0  0  0  0  0
  -18.1937  -26.7932   22.1623 C   0  0  0  0  0  0
  -19.1564  -28.8872   23.2850 C   0  0  0  0  0  0
  -18.9479  -30.1471   23.8872 C   0  0  0  0  0  0
  -17.6472  -30.6586   24.0559 C   0  0  0  0  0  0
  -25.9074  -34.9408   23.5070 C   0  0  0  0  0  0
  -16.5366  -29.9076   23.6338 C   0  0  0  0  0  0
  -16.7292  -28.6493   23.0363 C   0  0  0  0  0  0
  -26.4518  -31.6573   25.0723 C   0  0  0  0  0  0
  -25.3699  -31.3750   26.1411 C   0  0  0  0  0  0
  -27.0404  -30.2981   24.6308 C   0  0  0  0  0  0
  -27.6045  -32.4354   25.7502 C   0  0  0  0  0  0
  -27.5580  -37.1781   24.8466 C   0  0  0  0  0  0
  -21.4271  -29.3040   22.3618 N   0  0  0  0  0  0
  -26.4287  -37.3755   23.9411 N   0  0  0  0  0  0
  -24.7198  -31.0266   22.0897 N   0  0  0  0  0  0
  -23.4212  -28.8092   23.3047 O   0  0  0  0  0  0
  -28.2997  -26.1616   20.1764 O   0  0  0  0  0  0
  -26.5669  -34.8909   22.4655 O   0  0  0  0  0  0
  -23.5555  -32.1299   23.7068 O   0  0  0  0  0  0
  -30.6805  -19.4411   21.5664 C   0  0  0  0  0  0
  -29.6135  -19.1628   20.7023 C   0  0  0  0  0  0
  -30.3881  -21.9275   21.4438 C   0  0  0  0  0  0
  -31.0184  -20.7527   21.9716 C   0  0  0  0  0  0
  -29.2851  -21.8267   20.5304 C   0  0  0  0  0  0
  -28.9058  -20.4009   20.2259 C   0  0  0  0  0  0
  -31.4794  -24.3242   20.9683 C   0  0  0  0  0  0
  -32.3409  -23.6827   22.0096 C   0  0  0  0  0  0
  -26.1914  -20.1867   21.5127 C   0  0  0  0  0  0
  -25.3289  -20.4181   20.2986 C   0  0  0  0  0  0
  -28.1866  -17.1391   21.4699 C   0  0  0  0  0  0
  -29.2792  -16.3982   22.2377 C   0  0  0  0  0  0
  -30.8741  -23.2923   21.9083 C   0  0  0  0  0  0
  -29.2413  -17.5540   20.4338 C   0  0  2  0  0  0
  -26.6201  -19.6404   20.1648 C   0  0  0  0  0  0
  -32.0972  -20.8377   23.0447 C   0  0  0  0  0  0
  -27.8232  -23.0635   18.6160 C   0  0  0  0  0  0
  -28.1468  -24.6690   20.6231 C   0  0  0  0  0  0
  -28.7222  -23.2700   19.8466 C   0  0  1  0  0  0
  -29.8751  -16.1619   20.9288 N   0  0  0  0  0  0
  -27.7535  -20.2186   19.4523 N   0  0  0  0  0  0
  -31.4751  -12.7706   19.2107 H   0  0  0  0  0  0
  -30.4402  -11.6545   20.0368 H   0  0  0  0  0  0
  -29.8547  -11.7703   17.5954 H   0  0  0  0  0  0
  -29.6232  -13.4972   17.7143 H   0  0  0  0  0  0
  -27.9391  -11.2967   18.9472 H   0  0  0  0  0  0
  -27.4024  -12.5060   17.8082 H   0  0  0  0  0  0
  -27.6039  -14.2709   19.4535 H   0  0  0  0  0  0
  -28.7643  -12.2365   21.4099 H   0  0  0  0  0  0
  -28.3177  -13.8597   21.8026 H   0  0  0  0  0  0
  -25.2781   -9.5654   22.4772 H   0  0  0  0  0  0
  -24.0023   -7.4605   22.7451 H   0  0  0  0  0  0
  -21.0876   -8.8759   19.8933 H   0  0  0  0  0  0
  -22.3742  -10.9652   19.6162 H   0  0  0  0  0  0
  -21.1985   -7.6145   23.9741 H   0  0  0  0  0  0
  -21.1485   -6.0504   25.9082 H   0  0  0  0  0  0
  -22.0599   -2.7624   23.2830 H   0  0  0  0  0  0
  -22.4065  -11.9810   22.4860 H   0  0  0  0  0  0
  -21.1035  -13.1137   22.2653 H   0  0  0  0  0  0
  -24.5896  -15.8175   20.4818 H   0  0  0  0  0  0
  -26.2021  -15.6339   20.0093 H   0  0  0  0  0  0
  -26.7279  -32.5304   23.1010 H   0  0  0  0  0  0
  -25.0082  -33.9618   25.0329 H   0  0  0  0  0  0
  -22.7535  -31.2826   21.3731 H   0  0  0  0  0  0
  -23.3779  -35.9540   23.3281 H   0  0  0  0  0  0
  -24.3578  -36.8897   22.2065 H   0  0  0  0  0  0
  -23.7196  -37.6411   23.6699 H   0  0  0  0  0  0
  -26.1641  -31.4654   20.6103 H   0  0  0  0  0  0
  -26.8744  -30.7661   22.0290 H   0  0  0  0  0  0
  -28.1499  -28.8108   21.2118 H   0  0  0  0  0  0
  -25.9459  -25.7989   19.0625 H   0  0  0  0  0  0
  -23.9844  -27.2598   19.0180 H   0  0  0  0  0  0
  -23.8165  -30.5467   19.3953 H   0  0  0  0  0  0
  -22.7929  -29.2176   19.8466 H   0  0  0  0  0  0
  -25.1311  -36.1872   25.0815 H   0  0  0  0  0  0
  -21.0006  -28.3298   24.1356 H   0  0  0  0  0  0
  -20.5674  -26.2322   23.3632 H   0  0  0  0  0  0
  -21.6649  -26.7414   22.1204 H   0  0  0  0  0  0
  -19.6908  -25.6278   21.1258 H   0  0  0  0  0  0
  -19.6688  -27.3176   20.6743 H   0  0  0  0  0  0
  -17.4207  -26.6690   21.4023 H   0  0  0  0  0  0
  -18.0325  -26.0076   22.9018 H   0  0  0  0  0  0
  -19.7952  -30.7306   24.2217 H   0  0  0  0  0  0
  -17.5020  -31.6260   24.5164 H   0  0  0  0  0  0
  -15.5365  -30.2966   23.7676 H   0  0  0  0  0  0
  -15.8689  -28.0803   22.7096 H   0  0  0  0  0  0
  -24.5878  -30.7107   25.7717 H   0  0  0  0  0  0
  -24.8887  -32.2923   26.4815 H   0  0  0  0  0  0
  -25.7970  -30.8928   27.0210 H   0  0  0  0  0  0
  -26.3037  -29.6695   24.1296 H   0  0  0  0  0  0
  -27.4007  -29.7292   25.4887 H   0  0  0  0  0  0
  -27.8939  -30.4238   23.9643 H   0  0  0  0  0  0
  -27.2641  -33.3679   26.2010 H   0  0  0  0  0  0
  -28.3879  -32.6873   25.0346 H   0  0  0  0  0  0
  -28.0684  -31.8530   26.5468 H   0  0  0  0  0  0
  -28.2579  -38.0099   24.7560 H   0  0  0  0  0  0
  -28.1099  -36.2639   24.6245 H   0  0  0  0  0  0
  -27.2308  -37.1364   25.8869 H   0  0  0  0  0  0
  -20.9491  -29.8738   21.6778 H   0  0  0  0  0  0
  -26.0155  -38.2818   24.1445 H   0  0  0  0  0  0
  -31.2312  -18.6074   21.9775 H   0  0  0  0  0  0
  -31.7124  -24.0442   19.9435 H   0  0  0  0  0  0
  -31.2126  -25.3687   21.1178 H   0  0  0  0  0  0
  -32.6413  -24.3093   22.8467 H   0  0  0  0  0  0
  -33.1062  -23.0094   21.6323 H   0  0  0  0  0  0
  -25.8321  -19.4729   22.2517 H   0  0  0  0  0  0
  -26.7144  -21.0510   21.9201 H   0  0  0  0  0  0
  -25.2704  -21.4387   19.9284 H   0  0  0  0  0  0
  -24.3964  -19.8587   20.2516 H   0  0  0  0  0  0
  -27.7297  -17.9450   22.0409 H   0  0  0  0  0  0
  -27.4346  -16.4655   21.0727 H   0  0  0  0  0  0
  -28.9301  -15.5371   22.7991 H   0  0  0  0  0  0
  -29.8734  -17.0418   22.8874 H   0  0  0  0  0  0
  -30.2427  -23.6449   22.7218 H   0  0  0  0  0  0
  -28.8339  -17.4729   19.4249 H   0  0  0  0  0  0
  -26.5151  -18.5759   19.9660 H   0  0  0  0  0  0
  -32.1317  -19.9236   23.6381 H   0  0  0  0  0  0
  -31.9119  -21.6510   23.7466 H   0  0  0  0  0  0
  -33.0828  -20.9672   22.5978 H   0  0  0  0  0  0
  -28.2777  -22.3863   17.8927 H   0  0  0  0  0  0
  -27.6627  -24.0104   18.0989 H   0  0  0  0  0  0
  -26.8396  -22.6894   18.8913 H   0  0  0  0  0  0
  -28.6021  -24.6813   21.6099 H   0  0  0  0  0  0
  -27.0933  -24.4999   20.8481 H   0  0  0  0  0  0
  -29.6303  -23.6250   19.3688 H   0  0  0  0  0  0
  -27.5036  -21.0641   18.9497 H   0  0  0  0  0  0
  1 25  1  0  0  0
  1 30  2  0  0  0
  1 90  1  0  0  0
  2  3  1  0  0  0
  2 25  1  0  0  0
  2 92  1  0  0  0
  2 93  1  0  0  0
  3  4  1  0  0  0
  3 94  1  0  0  0
  3 95  1  0  0  0
  4  5  1  0  0  0
  4 96  1  0  0  0
  4 97  1  0  0  0
  5  6  1  0  0  0
  5 26  1  0  0  0
  5 98  1  0  0  0
  6 25  1  0  0  0
  6 99  1  0  0  0
  6100  1  0  0  0
  7  8  2  0  0  0
  7 26  1  0  0  0
  7 29  1  0  0  0
  8  9  1  0  0  0
  8 22  1  0  0  0
  9 10  1  0  0  0
  9 27  2  0  0  0
 10 11  2  0  0  0
 10 15  1  0  0  0
 11 12  1  0  0  0
 11101  1  0  0  0
 12 13  2  0  0  0
 12102  1  0  0  0
 13 14  1  0  0  0
 13 31  1  0  0  0
 14 15  2  0  0  0
 14103  1  0  0  0
 15104  1  0  0  0
 16 17  2  0  0  0
 16 21  1  0  0  0
 16 31  1  0  0  0
 17 18  1  0  0  0
 17105  1  0  0  0
 18 19  2  0  0  0
 18106  1  0  0  0
 19 20  1  0  0  0
 19 24  1  0  0  0
 20 21  2  0  0  0
 20107  1  0  0  0
 21 23  1  0  0  0
 22 28  1  0  0  0
 22 32  2  0  0  0
 26 27  1  0  0  0
 28108  1  0  0  0
 28109  1  0  0  0
 29110  1  0  0  0
 29111  1  0  0  0
 33 34  1  0  0  0
 33 66  1  0  0  0
 33 70  2  0  0  0
 34 36  1  0  0  0
 34 59  1  0  0  0
 34112  1  0  0  0
 35 44  2  0  0  0
 35 45  1  0  0  0
 35 68  1  0  0  0
 36 56  1  0  0  0
 36113  1  0  0  0
 37 39  1  0  0  0
 37 47  1  0  0  0
 37 66  1  0  0  0
 37114  1  0  0  0
 38 43  2  0  0  0
 38 46  1  0  0  0
 38 47  1  0  0  0
 39 64  1  0  0  0
 39 67  2  0  0  0
 40 52  1  0  0  0
 40 53  2  0  0  0
 40 58  1  0  0  0
 41115  1  0  0  0
 41116  1  0  0  0
 41117  1  0  0  0
 41 48  1  0  0  0
 42 43  1  0  0  0
 42 66  1  0  0  0
 42118  1  0  0  0
 42119  1  0  0  0
 43 44  1  0  0  0
 44120  1  0  0  0
 45 46  2  0  0  0
 45121  1  0  0  0
 46122  1  0  0  0
 47123  1  0  0  0
 47124  1  0  0  0
 48 56  1  0  0  0
 48 65  1  0  0  0
 48125  1  0  0  0
 49 50  1  0  0  0
 49 53  1  0  0  0
 49 64  1  0  0  0
 49126  1  0  0  0
 50 51  1  0  0  0
 50127  1  0  0  0
 50128  1  0  0  0
 51 52  1  0  0  0
 51129  1  0  0  0
 51130  1  0  0  0
 52131  1  0  0  0
 52132  1  0  0  0
 53 54  1  0  0  0
 54 55  2  0  0  0
 54133  1  0  0  0
 55 57  1  0  0  0
 55134  1  0  0  0
 56 69  2  0  0  0
 57 58  2  0  0  0
 57135  1  0  0  0
 58136  1  0  0  0
 59 60  1  0  0  0
 59 61  1  0  0  0
 59 62  1  0  0  0
 60137  1  0  0  0
 60138  1  0  0  0
 60139  1  0  0  0
 61140  1  0  0  0
 61141  1  0  0  0
 61142  1  0  0  0
 62143  1  0  0  0
 62144  1  0  0  0
 62145  1  0  0  0
 63 65  1  0  0  0
 63146  1  0  0  0
 63147  1  0  0  0
 63148  1  0  0  0
 64149  1  0  0  0
 65150  1  0  0  0
 68 88  1  0  0  0
 71 72  2  0  0  0
 71 74  1  0  0  0
 71151  1  0  0  0
 72 76  1  0  0  0
 72 84  1  0  0  0
 73 74  2  0  0  0
 73 75  1  0  0  0
 73 83  1  0  0  0
 74 86  1  0  0  0
 75 76  2  0  0  0
 75 89  1  0  0  0
 76 91  1  0  0  0
 77 78  1  0  0  0
 77 83  1  0  0  0
 77152  1  0  0  0
 77153  1  0  0  0
 78 83  1  0  0  0
 78154  1  0  0  0
 78155  1  0  0  0
 79 80  1  0  0  0
 79 85  1  0  0  0
 79156  1  0  0  0
 79157  1  0  0  0
 80 85  1  0  0  0
 80158  1  0  0  0
 80159  1  0  0  0
 81 82  1  0  0  0
 81 84  1  0  0  0
 81160  1  0  0  0
 81161  1  0  0  0
 82 90  1  0  0  0
 82162  1  0  0  0
 82163  1  0  0  0
 83164  1  0  0  0
 84 90  1  0  0  0
 84165  1  0  0  0
 85 91  1  0  0  0
 85166  1  0  0  0
 86167  1  0  0  0
 86168  1  0  0  0
 86169  1  0  0  0
 87170  1  0  0  0
 87171  1  0  0  0
 87172  1  0  0  0
 87 89  1  0  0  0
 88 89  1  0  0  0
 88173  1  0  0  0
 88174  1  0  0  0
 89175  1  0  0  0
 91176  1  0  0  0
M  ISO  4   1 100  68 101  88 101  90 100
M  END
> <chiral flag>
0

> <version>
0

> <s_m_source_file>
/data/baiqing/PycharmProjects/Reinvent-master-3.2/result/LINK_invent/BTK/process_docking_weight1_custom_sum_contain_oxygen_bond_distance_aromatic_linkinvent_7_9_3/rearranged_h_0172.sdf

> <i_m_source_file_index>
65

> <r_mmod_Potential_Energy-OPLS-2005>
845.851440429688

> <r_mmod_Stretch_Energy-OPLS-2005>
319.875427246094

> <r_mmod_Bend_Energy-OPLS-2005>
350.949676513672

> <r_mmod_Torsional_Energy-OPLS-2005>
394.678070068359

> <r_mmod_Improper_Torsional_Energy-OPLS-2005>
9.44705390930176

> <r_mmod_Van_der_Waal_Energy-OPLS-2005>
135.137283325195

> <r_mmod_Electrostatic_Energy-OPLS-2005>
-355.113159179688

> <r_mmod_Solvation_Energy-OPLS-2005>
-204.632400512695

> <b_mmod_Minimization_Converged-OPLS-2005>
0

> <r_mmod_RMS_Derivative-OPLS-2005>
1.57492387294769

$$$$
65
                    3D
 Structure written by MMmdl.
174185  0  0  1  0            999 V2000
  -30.7208  -14.5022   20.5100 C   0  0  0  0  0  0
  -30.4104  -12.3146   19.4280 C   0  0  0  0  0  0
  -29.4892  -12.4930   18.2059 C   0  0  0  0  0  0
  -28.0124  -12.3548   18.6234 C   0  0  0  0  0  0
  -27.6519  -13.2115   19.8677 C   0  0  2  0  0  0
  -28.7014  -13.0610   20.9915 C   0  0  0  0  0  0
  -25.2569  -13.8172   20.5707 C   0  0  0  0  0  0
  -24.1820  -13.0443   20.9177 C   0  0  0  0  0  0
  -24.6381  -11.6914   20.8759 C   0  0  0  0  0  0
  -23.9061  -10.4295   21.0417 C   0  0  0  0  0  0
  -24.3618   -9.4202   21.9196 C   0  0  0  0  0  0
  -23.6289   -8.2245   22.0766 C   0  0  0  0  0  0
  -22.4277   -8.0278   21.3543 C   0  0  0  0  0  0
  -21.9913   -9.0256   20.4653 C   0  0  0  0  0  0
  -22.7248  -10.2139   20.3060 C   0  0  0  0  0  0
  -21.6851   -6.0737   22.5280 C   0  0  0  0  0  0
  -21.4008   -6.5640   23.8215 C   0  0  0  0  0  0
  -21.3658   -5.6793   24.9180 C   0  0  0  0  0  0
  -21.6046   -4.3051   24.7225 C   0  0  0  0  0  0
  -21.8820   -3.8149   23.4346 C   0  0  0  0  0  0
  -21.9186   -4.6969   22.3403 C   0  0  0  0  0  0
  -22.7840  -13.5238   21.1835 C   0  0  0  0  0  0
  -22.1655   -4.2147   21.0979 F   0  0  0  0  0  0
  -21.5635   -3.4539   25.7739 F   0  0  0  0  0  0
  -30.0219  -13.3377   20.4117 N   0  0  0  0  0  0
  -26.2989  -12.9333   20.3383 N   0  0  0  0  0  0
  -25.9310  -11.6497   20.5811 N   0  0  0  0  0  0
  -22.0485  -12.8226   22.0390 N   0  0  0  0  0  0
  -25.4299  -15.1889   20.4118 N   0  0  0  0  0  0
  -31.8980  -14.5912   20.1489 O   0  0  0  0  0  0
  -21.6633   -6.8881   21.4244 O   0  0  0  0  0  0
  -22.3534  -14.5558   20.6699 O   0  0  0  0  0  0
  -24.6148  -31.8655   23.2086 C   0  0  0  0  0  0
  -25.9046  -32.4789   23.8395 C   0  0  1  0  0  0
  -27.2395  -27.4370   20.1257 C   0  0  0  0  0  0
  -25.5929  -33.8596   24.2349 N   0  0  0  0  0  0
  -23.4027  -30.4877   21.5480 C   0  0  2  0  0  0
  -24.8532  -28.9559   20.1065 C   0  0  0  0  0  0
  -22.7424  -29.4638   22.4981 C   0  0  0  0  0  0
  -18.0279  -28.1369   22.8482 C   0  0  0  0  0  0
  -24.1478  -36.7301   23.2637 C   0  0  0  0  0  0
  -25.9281  -30.8424   21.3538 C   0  0  0  0  0  0
  -26.0092  -29.4800   20.6969 C   0  0  0  0  0  0
  -27.2099  -28.7352   20.6869 C   0  0  0  0  0  0
  -26.0726  -26.9284   19.5180 C   0  0  0  0  0  0
  -24.8825  -27.6848   19.5028 C   0  0  0  0  0  0
  -23.6086  -29.8163   20.1617 C   0  0  0  0  0  0
  -25.4103  -36.3110   24.0338 C   0  0  1  0  0  0
  -20.5866  -28.3656   23.1321 C   0  0  2  0  0  0
  -20.6772  -26.9388   22.5420 C   0  0  0  0  0  0
  -19.5747  -26.6387   21.5216 C   0  0  0  0  0  0
  -18.1923  -26.7918   22.1612 C   0  0  0  0  0  0
  -19.1520  -28.8831   23.2892 C   0  0  0  0  0  0
  -18.9443  -30.1438   23.8899 C   0  0  0  0  0  0
  -17.6436  -30.6564   24.0567 C   0  0  0  0  0  0
  -25.9036  -34.9465   23.5147 C   0  0  0  0  0  0
  -16.5335  -29.9064   23.6318 C   0  0  0  0  0  0
  -16.7258  -28.6483   23.0333 C   0  0  0  0  0  0
  -26.4495  -31.6546   25.0710 C   0  0  0  0  0  0
  -25.3769  -31.3614   26.1459 C   0  0  0  0  0  0
  -27.0322  -30.3001   24.6018 C   0  0  0  0  0  0
  -27.6097  -32.4251   25.7451 C   0  0  0  0  0  0
  -27.5562  -37.1804   24.8462 C   0  0  0  0  0  0
  -21.4145  -29.3018   22.3738 N   0  0  0  0  0  0
  -26.4280  -37.3804   23.9414 N   0  0  0  0  0  0
  -24.6668  -31.0783   22.0958 N   0  0  0  0  0  0
  -23.4201  -28.8192   23.3031 O   0  0  0  0  0  0
  -28.3728  -26.6523   20.2075 O   0  0  0  0  0  0
  -26.5568  -34.8924   22.4688 O   0  0  0  0  0  0
  -23.5350  -32.1383   23.7502 O   0  0  0  0  0  0
  -29.2885  -20.9587   19.7902 C   0  0  0  0  0  0
  -28.6983  -20.6164   22.1032 C   0  0  0  0  0  0
  -29.2064  -20.0907   20.8990 C   0  0  0  0  0  0
  -28.8810  -22.3138   19.8609 C   0  0  0  0  0  0
  -28.4095  -22.8578   21.0876 C   0  0  0  0  0  0
  -28.3242  -21.9765   22.2089 C   0  0  0  0  0  0
  -27.7879  -23.7923   17.9845 C   0  0  0  0  0  0
  -28.4908  -22.6518   17.2887 C   0  0  0  0  0  0
  -29.8384  -17.8361   22.0822 C   0  0  0  0  0  0
  -28.9470  -17.7669   19.7971 C   0  0  0  0  0  0
  -29.4540  -24.8475   21.3995 C   0  0  0  0  0  0
  -30.5696  -16.4887   21.8557 C   0  0  0  0  0  0
  -29.6722  -16.4208   19.5527 C   0  0  0  0  0  0
  -29.7333  -18.6457   20.7774 C   0  0  0  0  0  0
  -28.9974  -23.1537   18.6204 C   0  0  0  0  0  0
  -27.9874  -24.3315   21.2186 C   0  0  1  0  0  0
  -28.4359  -25.8320   21.4017 C   0  0  2  0  0  0
  -27.8335  -22.4531   23.5687 C   0  0  0  0  0  0
  -28.2453  -26.5983   22.7096 C   0  0  0  0  0  0
  -30.0197  -15.6424   20.7699 N   0  0  0  0  0  0
  -31.4566  -12.3913   19.1262 H   0  0  0  0  0  0
  -30.2961  -11.3178   19.8570 H   0  0  0  0  0  0
  -29.7326  -11.7561   17.4399 H   0  0  0  0  0  0
  -29.6540  -13.4713   17.7520 H   0  0  0  0  0  0
  -27.8293  -11.3009   18.8325 H   0  0  0  0  0  0
  -27.3601  -12.6138   17.7879 H   0  0  0  0  0  0
  -27.6665  -14.2477   19.5401 H   0  0  0  0  0  0
  -28.6854  -12.0524   21.4062 H   0  0  0  0  0  0
  -28.4785  -13.7362   21.8199 H   0  0  0  0  0  0
  -25.2769   -9.5672   22.4766 H   0  0  0  0  0  0
  -23.9993   -7.4639   22.7484 H   0  0  0  0  0  0
  -21.0846   -8.8775   19.8958 H   0  0  0  0  0  0
  -22.3708  -10.9672   19.6159 H   0  0  0  0  0  0
  -21.1994   -7.6148   23.9712 H   0  0  0  0  0  0
  -21.1484   -6.0525   25.9078 H   0  0  0  0  0  0
  -22.0600   -2.7607   23.2844 H   0  0  0  0  0  0
  -22.4089  -11.9857   22.4727 H   0  0  0  0  0  0
  -21.1113  -13.1270   22.2641 H   0  0  0  0  0  0
  -24.6721  -15.8520   20.5275 H   0  0  0  0  0  0
  -26.3005  -15.6263   20.1379 H   0  0  0  0  0  0
  -26.7124  -32.5513   23.1175 H   0  0  0  0  0  0
  -25.0215  -33.9778   25.0583 H   0  0  0  0  0  0
  -22.6892  -31.3027   21.4108 H   0  0  0  0  0  0
  -23.3745  -35.9632   23.3300 H   0  0  0  0  0  0
  -24.3585  -36.8900   22.2053 H   0  0  0  0  0  0
  -23.7199  -37.6499   23.6630 H   0  0  0  0  0  0
  -26.0348  -31.6146   20.5899 H   0  0  0  0  0  0
  -26.8181  -30.8971   21.9689 H   0  0  0  0  0  0
  -28.1004  -29.1367   21.1508 H   0  0  0  0  0  0
  -26.0799  -25.9415   19.0788 H   0  0  0  0  0  0
  -23.9952  -27.2789   19.0375 H   0  0  0  0  0  0
  -23.7059  -30.5902   19.3991 H   0  0  0  0  0  0
  -22.7347  -29.2308   19.8686 H   0  0  0  0  0  0
  -25.1267  -36.1992   25.0825 H   0  0  0  0  0  0
  -20.9947  -28.3213   24.1441 H   0  0  0  0  0  0
  -20.5715  -26.2243   23.3603 H   0  0  0  0  0  0
  -21.6644  -26.7452   22.1189 H   0  0  0  0  0  0
  -19.6917  -25.6321   21.1195 H   0  0  0  0  0  0
  -19.6703  -27.3246   20.6788 H   0  0  0  0  0  0
  -17.4220  -26.6696   21.3986 H   0  0  0  0  0  0
  -18.0284  -26.0054   22.8991 H   0  0  0  0  0  0
  -19.7916  -30.7256   24.2265 H   0  0  0  0  0  0
  -17.4986  -31.6238   24.5175 H   0  0  0  0  0  0
  -15.5331  -30.2962   23.7626 H   0  0  0  0  0  0
  -15.8664  -28.0803   22.7025 H   0  0  0  0  0  0
  -24.6000  -30.6893   25.7771 H   0  0  0  0  0  0
  -24.8917  -32.2755   26.4895 H   0  0  0  0  0  0
  -25.8175  -30.8795   27.0197 H   0  0  0  0  0  0
  -26.2843  -29.6763   24.1098 H   0  0  0  0  0  0
  -27.4157  -29.7215   25.4434 H   0  0  0  0  0  0
  -27.8653  -30.4353   23.9114 H   0  0  0  0  0  0
  -27.2756  -33.3567   26.2020 H   0  0  0  0  0  0
  -28.3898  -32.6748   25.0245 H   0  0  0  0  0  0
  -28.0760  -31.8360   26.5353 H   0  0  0  0  0  0
  -28.2587  -38.0093   24.7535 H   0  0  0  0  0  0
  -28.1059  -36.2642   24.6257 H   0  0  0  0  0  0
  -27.2294  -37.1415   25.8868 H   0  0  0  0  0  0
  -20.9308  -29.8716   21.6944 H   0  0  0  0  0  0
  -26.0161  -38.2865   24.1473 H   0  0  0  0  0  0
  -29.6840  -20.5808   18.8575 H   0  0  0  0  0  0
  -28.6104  -19.9805   22.9738 H   0  0  0  0  0  0
  -26.8152  -23.5853   18.4263 H   0  0  0  0  0  0
  -27.9115  -24.7863   17.5592 H   0  0  0  0  0  0
  -29.0759  -22.8963   16.4039 H   0  0  0  0  0  0
  -27.9739  -21.6938   17.2600 H   0  0  0  0  0  0
  -30.3891  -18.4077   22.8305 H   0  0  0  0  0  0
  -28.8449  -17.6545   22.4938 H   0  0  0  0  0  0
  -27.9343  -17.5992   20.1675 H   0  0  0  0  0  0
  -28.8378  -18.2818   18.8426 H   0  0  0  0  0  0
  -30.1241  -24.8376   20.5447 H   0  0  0  0  0  0
  -29.9481  -24.5984   22.3376 H   0  0  0  0  0  0
  -30.5677  -15.9209   22.7887 H   0  0  0  0  0  0
  -31.6181  -16.7093   21.6398 H   0  0  0  0  0  0
  -30.5849  -16.6278   18.9912 H   0  0  0  0  0  0
  -29.0605  -15.8146   18.8862 H   0  0  0  0  0  0
  -30.7474  -18.7577   20.3887 H   0  0  0  0  0  0
  -29.9371  -23.7024   18.6030 H   0  0  0  0  0  0
  -27.1854  -24.2791   21.9485 H   0  0  0  0  0  0
  -28.1178  -21.7602   24.3616 H   0  0  0  0  0  0
  -26.7459  -22.5320   23.5743 H   0  0  0  0  0  0
  -28.2536  -23.4245   23.8279 H   0  0  0  0  0  0
  -28.4321  -25.9511   23.5673 H   0  0  0  0  0  0
  -27.2306  -26.9819   22.8087 H   0  0  0  0  0  0
  -28.9467  -27.4301   22.7635 H   0  0  0  0  0  0
  1 25  1  0  0  0
  1 30  2  0  0  0
  1 90  1  0  0  0
  2  3  1  0  0  0
  2 25  1  0  0  0
  2 91  1  0  0  0
  2 92  1  0  0  0
  3  4  1  0  0  0
  3 93  1  0  0  0
  3 94  1  0  0  0
  4  5  1  0  0  0
  4 95  1  0  0  0
  4 96  1  0  0  0
  5  6  1  0  0  0
  5 26  1  0  0  0
  5 97  1  0  0  0
  6 25  1  0  0  0
  6 98  1  0  0  0
  6 99  1  0  0  0
  7  8  2  0  0  0
  7 26  1  0  0  0
  7 29  1  0  0  0
  8  9  1  0  0  0
  8 22  1  0  0  0
  9 10  1  0  0  0
  9 27  2  0  0  0
 10 11  2  0  0  0
 10 15  1  0  0  0
 11 12  1  0  0  0
 11100  1  0  0  0
 12 13  2  0  0  0
 12101  1  0  0  0
 13 14  1  0  0  0
 13 31  1  0  0  0
 14 15  2  0  0  0
 14102  1  0  0  0
 15103  1  0  0  0
 16 17  2  0  0  0
 16 21  1  0  0  0
 16 31  1  0  0  0
 17 18  1  0  0  0
 17104  1  0  0  0
 18 19  2  0  0  0
 18105  1  0  0  0
 19 20  1  0  0  0
 19 24  1  0  0  0
 20 21  2  0  0  0
 20106  1  0  0  0
 21 23  1  0  0  0
 22 28  1  0  0  0
 22 32  2  0  0  0
 26 27  1  0  0  0
 28107  1  0  0  0
 28108  1  0  0  0
 29109  1  0  0  0
 29110  1  0  0  0
 33 34  1  0  0  0
 33 66  1  0  0  0
 33 70  2  0  0  0
 34 36  1  0  0  0
 34 59  1  0  0  0
 34111  1  0  0  0
 35 44  2  0  0  0
 35 45  1  0  0  0
 35 68  1  0  0  0
 36 56  1  0  0  0
 36112  1  0  0  0
 37 39  1  0  0  0
 37 47  1  0  0  0
 37 66  1  0  0  0
 37113  1  0  0  0
 38 43  2  0  0  0
 38 46  1  0  0  0
 38 47  1  0  0  0
 39 64  1  0  0  0
 39 67  2  0  0  0
 40 52  1  0  0  0
 40 53  2  0  0  0
 40 58  1  0  0  0
 41114  1  0  0  0
 41115  1  0  0  0
 41116  1  0  0  0
 41 48  1  0  0  0
 42 43  1  0  0  0
 42 66  1  0  0  0
 42117  1  0  0  0
 42118  1  0  0  0
 43 44  1  0  0  0
 44119  1  0  0  0
 45 46  2  0  0  0
 45120  1  0  0  0
 46121  1  0  0  0
 47122  1  0  0  0
 47123  1  0  0  0
 48 56  1  0  0  0
 48 65  1  0  0  0
 48124  1  0  0  0
 49 50  1  0  0  0
 49 53  1  0  0  0
 49 64  1  0  0  0
 49125  1  0  0  0
 50 51  1  0  0  0
 50126  1  0  0  0
 50127  1  0  0  0
 51 52  1  0  0  0
 51128  1  0  0  0
 51129  1  0  0  0
 52130  1  0  0  0
 52131  1  0  0  0
 53 54  1  0  0  0
 54 55  2  0  0  0
 54132  1  0  0  0
 55 57  1  0  0  0
 55133  1  0  0  0
 56 69  2  0  0  0
 57 58  2  0  0  0
 57134  1  0  0  0
 58135  1  0  0  0
 59 60  1  0  0  0
 59 61  1  0  0  0
 59 62  1  0  0  0
 60136  1  0  0  0
 60137  1  0  0  0
 60138  1  0  0  0
 61139  1  0  0  0
 61140  1  0  0  0
 61141  1  0  0  0
 62142  1  0  0  0
 62143  1  0  0  0
 62144  1  0  0  0
 63 65  1  0  0  0
 63145  1  0  0  0
 63146  1  0  0  0
 63147  1  0  0  0
 64148  1  0  0  0
 65149  1  0  0  0
 68 87  1  0  0  0
 71 73  2  0  0  0
 71 74  1  0  0  0
 71150  1  0  0  0
 72 73  1  0  0  0
 72 76  2  0  0  0
 72151  1  0  0  0
 73 84  1  0  0  0
 74 75  2  0  0  0
 74 85  1  0  0  0
 75 76  1  0  0  0
 75 86  1  0  0  0
 76 88  1  0  0  0
 77 78  1  0  0  0
 77 85  1  0  0  0
 77152  1  0  0  0
 77153  1  0  0  0
 78 85  1  0  0  0
 78154  1  0  0  0
 78155  1  0  0  0
 79 82  1  0  0  0
 79 84  1  0  0  0
 79156  1  0  0  0
 79157  1  0  0  0
 80 83  1  0  0  0
 80 84  1  0  0  0
 80158  1  0  0  0
 80159  1  0  0  0
 81 86  1  0  0  0
 81 87  1  0  0  0
 81160  1  0  0  0
 81161  1  0  0  0
 82 90  1  0  0  0
 82162  1  0  0  0
 82163  1  0  0  0
 83 90  1  0  0  0
 83164  1  0  0  0
 83165  1  0  0  0
 84166  1  0  0  0
 85167  1  0  0  0
 86 87  1  0  0  0
 86168  1  0  0  0
 87 89  1  0  0  0
 88169  1  0  0  0
 88170  1  0  0  0
 88171  1  0  0  0
 89172  1  0  0  0
 89173  1  0  0  0
 89174  1  0  0  0
M  ISO  4   1 100  68 101  87 101  90 100
M  END
> <chiral flag>
0

> <version>
0

> <s_m_source_file>
/data/baiqing/PycharmProjects/Reinvent-master-3.2/result/LINK_invent/BTK/process_docking_weight1_custom_sum_contain_oxygen_bond_distance_aromatic_linkinvent_7_9_3/rearranged_h_0172.sdf

> <i_m_source_file_index>
66

> <r_mmod_Potential_Energy-OPLS-2005>
405.283630371094

> <r_mmod_Stretch_Energy-OPLS-2005>
64.76220703125

> <r_mmod_Bend_Energy-OPLS-2005>
262.046142578125

> <r_mmod_Torsional_Energy-OPLS-2005>
395.453430175781

> <r_mmod_Improper_Torsional_Energy-OPLS-2005>
10.3981075286865

> <r_mmod_Van_der_Waal_Energy-OPLS-2005>
149.594589233398

> <r_mmod_Electrostatic_Energy-OPLS-2005>
-315.711486816406

> <r_mmod_Solvation_Energy-OPLS-2005>
-183.877716064453

> <b_mmod_Minimization_Converged-OPLS-2005>
0

> <r_mmod_RMS_Derivative-OPLS-2005>
2.50919556617737

$$$$
66
                    3D
 Structure written by MMmdl.
173183  0  0  1  0            999 V2000
  -30.6364  -14.8414   20.4438 C   0  0  0  0  0  0
  -30.4185  -12.5241   19.4862 C   0  0  0  0  0  0
  -29.5061  -12.5164   18.2413 C   0  0  0  0  0  0
  -28.0364  -12.3275   18.6578 C   0  0  0  0  0  0
  -27.6281  -13.2489   19.8396 C   0  0  2  0  0  0
  -28.6756  -13.2506   20.9731 C   0  0  0  0  0  0
  -25.2436  -13.8215   20.5712 C   0  0  0  0  0  0
  -24.1762  -13.0432   20.9232 C   0  0  0  0  0  0
  -24.6387  -11.6925   20.8777 C   0  0  0  0  0  0
  -23.9068  -10.4293   21.0424 C   0  0  0  0  0  0
  -24.3622   -9.4208   21.9191 C   0  0  0  0  0  0
  -23.6296   -8.2240   22.0745 C   0  0  0  0  0  0
  -22.4273   -8.0282   21.3542 C   0  0  0  0  0  0
  -21.9909   -9.0257   20.4642 C   0  0  0  0  0  0
  -22.7238  -10.2138   20.3067 C   0  0  0  0  0  0
  -21.6846   -6.0747   22.5289 C   0  0  0  0  0  0
  -21.4011   -6.5649   23.8230 C   0  0  0  0  0  0
  -21.3663   -5.6795   24.9183 C   0  0  0  0  0  0
  -21.6052   -4.3055   24.7235 C   0  0  0  0  0  0
  -21.8807   -3.8154   23.4349 C   0  0  0  0  0  0
  -21.9181   -4.6981   22.3408 C   0  0  0  0  0  0
  -22.7781  -13.5196   21.1885 C   0  0  0  0  0  0
  -22.1642   -4.2171   21.0981 F   0  0  0  0  0  0
  -21.5639   -3.4532   25.7740 F   0  0  0  0  0  0
  -29.9546  -13.6338   20.3651 N   0  0  0  0  0  0
  -26.2876  -12.9466   20.3266 N   0  0  0  0  0  0
  -25.9329  -11.6590   20.5771 N   0  0  0  0  0  0
  -22.0438  -12.8190   22.0449 N   0  0  0  0  0  0
  -25.4063  -15.1937   20.4124 N   0  0  0  0  0  0
  -31.8455  -14.8049   20.1911 O   0  0  0  0  0  0
  -21.6632   -6.8889   21.4246 O   0  0  0  0  0  0
  -22.3467  -14.5503   20.6734 O   0  0  0  0  0  0
  -24.6389  -31.8492   23.1949 C   0  0  0  0  0  0
  -25.9187  -32.4722   23.8314 C   0  0  1  0  0  0
  -27.2045  -27.1882   20.1419 C   0  0  0  0  0  0
  -25.5958  -33.8526   24.2231 N   0  0  0  0  0  0
  -23.4377  -30.4727   21.5401 C   0  0  2  0  0  0
  -24.8837  -28.9143   20.1071 C   0  0  0  0  0  0
  -22.7540  -29.4579   22.4892 C   0  0  0  0  0  0
  -18.0295  -28.1388   22.8483 C   0  0  0  0  0  0
  -24.1490  -36.7259   23.2640 C   0  0  0  0  0  0
  -25.9913  -30.7389   21.3871 C   0  0  0  0  0  0
  -26.0597  -29.3578   20.7259 C   0  0  0  0  0  0
  -27.2220  -28.5083   20.7308 C   0  0  0  0  0  0
  -26.0085  -26.8433   19.4713 C   0  0  0  0  0  0
  -24.8683  -27.6688   19.4664 C   0  0  0  0  0  0
  -23.6589  -29.8099   20.1560 C   0  0  0  0  0  0
  -25.4119  -36.3048   24.0325 C   0  0  1  0  0  0
  -20.5904  -28.3705   23.1248 C   0  0  2  0  0  0
  -20.6779  -26.9414   22.5401 C   0  0  0  0  0  0
  -19.5757  -26.6377   21.5208 C   0  0  0  0  0  0
  -18.1935  -26.7930   22.1616 C   0  0  0  0  0  0
  -19.1549  -28.8867   23.2859 C   0  0  0  0  0  0
  -18.9469  -30.1465   23.8882 C   0  0  0  0  0  0
  -17.6467  -30.6591   24.0552 C   0  0  0  0  0  0
  -25.9070  -34.9422   23.5084 C   0  0  0  0  0  0
  -16.5359  -29.9081   23.6340 C   0  0  0  0  0  0
  -16.7281  -28.6500   23.0364 C   0  0  0  0  0  0
  -26.4527  -31.6572   25.0733 C   0  0  0  0  0  0
  -25.3735  -31.3741   26.1445 C   0  0  0  0  0  0
  -27.0385  -30.2973   24.6282 C   0  0  0  0  0  0
  -27.6073  -32.4327   25.7509 C   0  0  0  0  0  0
  -27.5583  -37.1779   24.8463 C   0  0  0  0  0  0
  -21.4237  -29.3045   22.3637 N   0  0  0  0  0  0
  -26.4284  -37.3758   23.9420 N   0  0  0  0  0  0
  -24.7092  -31.0400   22.0962 N   0  0  0  0  0  0
  -23.4210  -28.8117   23.3017 O   0  0  0  0  0  0
  -28.2509  -26.2165   20.2427 O   0  0  0  0  0  0
  -26.5647  -34.8910   22.4656 O   0  0  0  0  0  0
  -23.5525  -32.1353   23.7202 O   0  0  0  0  0  0
  -30.2299  -21.2278   21.7635 C   0  0  0  0  0  0
  -28.6224  -22.0615   20.1414 C   0  0  0  0  0  0
  -29.3303  -20.9029   20.7227 C   0  0  0  0  0  0
  -30.4063  -22.5663   22.1806 C   0  0  0  0  0  0
  -29.7232  -23.6416   21.6018 C   0  0  0  0  0  0
  -28.7933  -23.4716   20.5543 C   0  0  0  0  0  0
  -30.0956  -24.9384   22.2730 C   0  0  0  0  0  0
  -31.2715  -24.5630   23.1980 C   0  0  0  0  0  0
  -28.8916  -18.2792   21.4513 C   0  0  0  0  0  0
  -28.8655  -16.6994   21.1229 C   0  0  0  0  0  0
  -30.4239  -17.1273   19.3152 C   0  0  0  0  0  0
  -29.2185  -19.3277   20.3105 C   0  0  2  0  0  0
  -30.5153  -18.6733   19.7105 C   0  0  2  0  0  0
  -31.3057  -23.0154   23.3144 C   0  0  0  0  0  0
  -31.0183  -19.4870   18.5050 C   0  0  0  0  0  0
  -30.7128  -22.5637   24.6605 C   0  0  0  0  0  0
  -32.7378  -22.4736   23.1570 C   0  0  0  0  0  0
  -27.9452  -24.7336   19.9854 C   0  0  0  0  0  0
  -29.9832  -16.1004   20.3246 N   0  0  0  0  0  0
  -31.4588  -12.6357   19.1754 H   0  0  0  0  0  0
  -30.3694  -11.5688   20.0113 H   0  0  0  0  0  0
  -29.8044  -11.7239   17.5535 H   0  0  0  0  0  0
  -29.6192  -13.4557   17.6966 H   0  0  0  0  0  0
  -27.9094  -11.2818   18.9416 H   0  0  0  0  0  0
  -27.3785  -12.4934   17.8042 H   0  0  0  0  0  0
  -27.5976  -14.2580   19.4278 H   0  0  0  0  0  0
  -28.7446  -12.2696   21.4449 H   0  0  0  0  0  0
  -28.3951  -13.9489   21.7607 H   0  0  0  0  0  0
  -25.2766   -9.5675   22.4777 H   0  0  0  0  0  0
  -24.0023   -7.4620   22.7444 H   0  0  0  0  0  0
  -21.0849   -8.8755   19.8936 H   0  0  0  0  0  0
  -22.3692  -10.9681   19.6178 H   0  0  0  0  0  0
  -21.2000   -7.6156   23.9741 H   0  0  0  0  0  0
  -21.1500   -6.0524   25.9089 H   0  0  0  0  0  0
  -22.0588   -2.7623   23.2841 H   0  0  0  0  0  0
  -22.4043  -11.9846   22.4835 H   0  0  0  0  0  0
  -21.1069  -13.1239   22.2676 H   0  0  0  0  0  0
  -24.6358  -15.8440   20.5205 H   0  0  0  0  0  0
  -26.2557  -15.6348   20.0855 H   0  0  0  0  0  0
  -26.7252  -32.5333   23.1045 H   0  0  0  0  0  0
  -25.0100  -33.9656   25.0377 H   0  0  0  0  0  0
  -22.7380  -31.2978   21.3933 H   0  0  0  0  0  0
  -23.3767  -35.9572   23.3276 H   0  0  0  0  0  0
  -24.3589  -36.8911   22.2060 H   0  0  0  0  0  0
  -23.7220  -37.6440   23.6686 H   0  0  0  0  0  0
  -26.1428  -31.4969   20.6175 H   0  0  0  0  0  0
  -26.8644  -30.7849   22.0267 H   0  0  0  0  0  0
  -28.1154  -28.8362   21.2425 H   0  0  0  0  0  0
  -25.9109  -25.8964   18.9624 H   0  0  0  0  0  0
  -23.9715  -27.3247   18.9695 H   0  0  0  0  0  0
  -23.7892  -30.5882   19.4039 H   0  0  0  0  0  0
  -22.7740  -29.2503   19.8470 H   0  0  0  0  0  0
  -25.1299  -36.1883   25.0815 H   0  0  0  0  0  0
  -20.9991  -28.3282   24.1370 H   0  0  0  0  0  0
  -20.5665  -26.2318   23.3616 H   0  0  0  0  0  0
  -21.6647  -26.7424   22.1200 H   0  0  0  0  0  0
  -19.6914  -25.6282   21.1255 H   0  0  0  0  0  0
  -19.6696  -27.3173   20.6728 H   0  0  0  0  0  0
  -17.4203  -26.6683   21.4019 H   0  0  0  0  0  0
  -18.0330  -26.0072   22.9013 H   0  0  0  0  0  0
  -19.7944  -30.7287   24.2240 H   0  0  0  0  0  0
  -17.5019  -31.6275   24.5145 H   0  0  0  0  0  0
  -15.5360  -30.2975   23.7677 H   0  0  0  0  0  0
  -15.8680  -28.0810   22.7099 H   0  0  0  0  0  0
  -24.5904  -30.7099   25.7764 H   0  0  0  0  0  0
  -24.8940  -32.2919   26.4860 H   0  0  0  0  0  0
  -25.8035  -30.8913   27.0233 H   0  0  0  0  0  0
  -26.2991  -29.6703   24.1281 H   0  0  0  0  0  0
  -27.4007  -29.7256   25.4839 H   0  0  0  0  0  0
  -27.8900  -30.4224   23.9587 H   0  0  0  0  0  0
  -27.2675  -33.3631   26.2072 H   0  0  0  0  0  0
  -28.3888  -32.6880   25.0339 H   0  0  0  0  0  0
  -28.0742  -31.8465   26.5438 H   0  0  0  0  0  0
  -28.2571  -38.0106   24.7546 H   0  0  0  0  0  0
  -28.1111  -36.2639   24.6237 H   0  0  0  0  0  0
  -27.2316  -37.1358   25.8868 H   0  0  0  0  0  0
  -20.9436  -29.8774   21.6838 H   0  0  0  0  0  0
  -26.0156  -38.2822   24.1443 H   0  0  0  0  0  0
  -30.7899  -20.4444   22.2532 H   0  0  0  0  0  0
  -27.9106  -21.8615   19.3531 H   0  0  0  0  0  0
  -29.2434  -25.3047   22.8471 H   0  0  0  0  0  0
  -30.3860  -25.7005   21.5499 H   0  0  0  0  0  0
  -31.2312  -25.0735   24.1617 H   0  0  0  0  0  0
  -32.1865  -24.9048   22.7115 H   0  0  0  0  0  0
  -29.6139  -18.4219   22.2555 H   0  0  0  0  0  0
  -27.9312  -18.5489   21.8903 H   0  0  0  0  0  0
  -27.9466  -16.4808   20.5797 H   0  0  0  0  0  0
  -28.7826  -16.1587   22.0660 H   0  0  0  0  0  0
  -31.3916  -16.8433   18.9020 H   0  0  0  0  0  0
  -29.7321  -17.0344   18.4771 H   0  0  0  0  0  0
  -28.4271  -19.2623   19.5623 H   0  0  0  0  0  0
  -31.2930  -18.7485   20.4729 H   0  0  0  0  0  0
  -30.2766  -19.5086   17.7056 H   0  0  0  0  0  0
  -31.9368  -19.0667   18.0946 H   0  0  0  0  0  0
  -31.2374  -20.5186   18.7813 H   0  0  0  0  0  0
  -29.7123  -22.9728   24.8082 H   0  0  0  0  0  0
  -31.3290  -22.8938   25.4978 H   0  0  0  0  0  0
  -30.6343  -21.4777   24.7194 H   0  0  0  0  0  0
  -33.1671  -22.7605   22.1966 H   0  0  0  0  0  0
  -32.7672  -21.3859   23.2174 H   0  0  0  0  0  0
  -33.3922  -22.8609   23.9392 H   0  0  0  0  0  0
  -26.9418  -24.5369   20.3633 H   0  0  0  0  0  0
  -27.8876  -24.6021   18.9042 H   0  0  0  0  0  0
  1 25  1  0  0  0
  1 30  2  0  0  0
  1 89  1  0  0  0
  2  3  1  0  0  0
  2 25  1  0  0  0
  2 90  1  0  0  0
  2 91  1  0  0  0
  3  4  1  0  0  0
  3 92  1  0  0  0
  3 93  1  0  0  0
  4  5  1  0  0  0
  4 94  1  0  0  0
  4 95  1  0  0  0
  5  6  1  0  0  0
  5 26  1  0  0  0
  5 96  1  0  0  0
  6 25  1  0  0  0
  6 97  1  0  0  0
  6 98  1  0  0  0
  7  8  2  0  0  0
  7 26  1  0  0  0
  7 29  1  0  0  0
  8  9  1  0  0  0
  8 22  1  0  0  0
  9 10  1  0  0  0
  9 27  2  0  0  0
 10 11  2  0  0  0
 10 15  1  0  0  0
 11 12  1  0  0  0
 11 99  1  0  0  0
 12 13  2  0  0  0
 12100  1  0  0  0
 13 14  1  0  0  0
 13 31  1  0  0  0
 14 15  2  0  0  0
 14101  1  0  0  0
 15102  1  0  0  0
 16 17  2  0  0  0
 16 21  1  0  0  0
 16 31  1  0  0  0
 17 18  1  0  0  0
 17103  1  0  0  0
 18 19  2  0  0  0
 18104  1  0  0  0
 19 20  1  0  0  0
 19 24  1  0  0  0
 20 21  2  0  0  0
 20105  1  0  0  0
 21 23  1  0  0  0
 22 28  1  0  0  0
 22 32  2  0  0  0
 26 27  1  0  0  0
 28106  1  0  0  0
 28107  1  0  0  0
 29108  1  0  0  0
 29109  1  0  0  0
 33 34  1  0  0  0
 33 66  1  0  0  0
 33 70  2  0  0  0
 34 36  1  0  0  0
 34 59  1  0  0  0
 34110  1  0  0  0
 35 44  2  0  0  0
 35 45  1  0  0  0
 35 68  1  0  0  0
 36 56  1  0  0  0
 36111  1  0  0  0
 37 39  1  0  0  0
 37 47  1  0  0  0
 37 66  1  0  0  0
 37112  1  0  0  0
 38 43  2  0  0  0
 38 46  1  0  0  0
 38 47  1  0  0  0
 39 64  1  0  0  0
 39 67  2  0  0  0
 40 52  1  0  0  0
 40 53  2  0  0  0
 40 58  1  0  0  0
 41113  1  0  0  0
 41114  1  0  0  0
 41115  1  0  0  0
 41 48  1  0  0  0
 42 43  1  0  0  0
 42 66  1  0  0  0
 42116  1  0  0  0
 42117  1  0  0  0
 43 44  1  0  0  0
 44118  1  0  0  0
 45 46  2  0  0  0
 45119  1  0  0  0
 46120  1  0  0  0
 47121  1  0  0  0
 47122  1  0  0  0
 48 56  1  0  0  0
 48 65  1  0  0  0
 48123  1  0  0  0
 49 50  1  0  0  0
 49 53  1  0  0  0
 49 64  1  0  0  0
 49124  1  0  0  0
 50 51  1  0  0  0
 50125  1  0  0  0
 50126  1  0  0  0
 51 52  1  0  0  0
 51127  1  0  0  0
 51128  1  0  0  0
 52129  1  0  0  0
 52130  1  0  0  0
 53 54  1  0  0  0
 54 55  2  0  0  0
 54131  1  0  0  0
 55 57  1  0  0  0
 55132  1  0  0  0
 56 69  2  0  0  0
 57 58  2  0  0  0
 57133  1  0  0  0
 58134  1  0  0  0
 59 60  1  0  0  0
 59 61  1  0  0  0
 59 62  1  0  0  0
 60135  1  0  0  0
 60136  1  0  0  0
 60137  1  0  0  0
 61138  1  0  0  0
 61139  1  0  0  0
 61140  1  0  0  0
 62141  1  0  0  0
 62142  1  0  0  0
 62143  1  0  0  0
 63 65  1  0  0  0
 63144  1  0  0  0
 63145  1  0  0  0
 63146  1  0  0  0
 64147  1  0  0  0
 65148  1  0  0  0
 68 88  1  0  0  0
 71 73  2  0  0  0
 71 74  1  0  0  0
 71149  1  0  0  0
 72 73  1  0  0  0
 72 76  2  0  0  0
 72150  1  0  0  0
 73 82  1  0  0  0
 74 75  2  0  0  0
 74 84  1  0  0  0
 75 76  1  0  0  0
 75 77  1  0  0  0
 76 88  1  0  0  0
 77 78  1  0  0  0
 77151  1  0  0  0
 77152  1  0  0  0
 78 84  1  0  0  0
 78153  1  0  0  0
 78154  1  0  0  0
 79 80  1  0  0  0
 79 82  1  0  0  0
 79155  1  0  0  0
 79156  1  0  0  0
 80 89  1  0  0  0
 80157  1  0  0  0
 80158  1  0  0  0
 81 83  1  0  0  0
 81 89  1  0  0  0
 81159  1  0  0  0
 81160  1  0  0  0
 82 83  1  0  0  0
 82161  1  0  0  0
 83 85  1  0  0  0
 83162  1  0  0  0
 84 86  1  0  0  0
 84 87  1  0  0  0
 85163  1  0  0  0
 85164  1  0  0  0
 85165  1  0  0  0
 86166  1  0  0  0
 86167  1  0  0  0
 86168  1  0  0  0
 87169  1  0  0  0
 87170  1  0  0  0
 87171  1  0  0  0
 88172  1  0  0  0
 88173  1  0  0  0
M  ISO  4   1 100  68 101  88 101  89 100
M  END
> <chiral flag>
0

> <version>
0

> <s_m_source_file>
/data/baiqing/PycharmProjects/Reinvent-master-3.2/result/LINK_invent/BTK/process_docking_weight1_custom_sum_contain_oxygen_bond_distance_aromatic_linkinvent_7_9_3/rearranged_h_0172.sdf

> <i_m_source_file_index>
67

> <r_mmod_Potential_Energy-OPLS-2005>
568.60986328125

> <r_mmod_Stretch_Energy-OPLS-2005>
179.965057373047

> <r_mmod_Bend_Energy-OPLS-2005>
260.504791259766

> <r_mmod_Torsional_Energy-OPLS-2005>
341.310363769531

> <r_mmod_Improper_Torsional_Energy-OPLS-2005>
15.105809211731

> <r_mmod_Van_der_Waal_Energy-OPLS-2005>
133.717712402344

> <r_mmod_Electrostatic_Energy-OPLS-2005>
-315.019378662109

> <r_mmod_Solvation_Energy-OPLS-2005>
-187.631225585938

> <b_mmod_Minimization_Converged-OPLS-2005>
0

> <r_mmod_RMS_Derivative-OPLS-2005>
1.4892646074295

$$$$
67
                    3D
 Structure written by MMmdl.
165174  0  0  1  0            999 V2000
  -30.6172  -14.7458   20.4594 C   0  0  0  0  0  0
  -30.4305  -12.4566   19.4699 C   0  0  0  0  0  0
  -29.5075  -12.5038   18.2335 C   0  0  0  0  0  0
  -28.0338  -12.3298   18.6488 C   0  0  0  0  0  0
  -27.6394  -13.2320   19.8485 C   0  0  2  0  0  0
  -28.6849  -13.1710   20.9833 C   0  0  0  0  0  0
  -25.2507  -13.8199   20.5704 C   0  0  0  0  0  0
  -24.1801  -13.0444   20.9224 C   0  0  0  0  0  0
  -24.6392  -11.6923   20.8760 C   0  0  0  0  0  0
  -23.9071  -10.4298   21.0419 C   0  0  0  0  0  0
  -24.3624   -9.4213   21.9194 C   0  0  0  0  0  0
  -23.6300   -8.2247   22.0761 C   0  0  0  0  0  0
  -22.4282   -8.0284   21.3549 C   0  0  0  0  0  0
  -21.9919   -9.0260   20.4654 C   0  0  0  0  0  0
  -22.7247  -10.2139   20.3066 C   0  0  0  0  0  0
  -21.6853   -6.0743   22.5282 C   0  0  0  0  0  0
  -21.4013   -6.5647   23.8216 C   0  0  0  0  0  0
  -21.3656   -5.6798   24.9176 C   0  0  0  0  0  0
  -21.6043   -4.3062   24.7225 C   0  0  0  0  0  0
  -21.8817   -3.8155   23.4347 C   0  0  0  0  0  0
  -21.9192   -4.6971   22.3404 C   0  0  0  0  0  0
  -22.7822  -13.5229   21.1872 C   0  0  0  0  0  0
  -22.1662   -4.2160   21.0980 F   0  0  0  0  0  0
  -21.5624   -3.4542   25.7737 F   0  0  0  0  0  0
  -29.9838  -13.5235   20.3968 N   0  0  0  0  0  0
  -26.2928  -12.9404   20.3278 N   0  0  0  0  0  0
  -25.9322  -11.6549   20.5765 N   0  0  0  0  0  0
  -22.0459  -12.8216   22.0418 N   0  0  0  0  0  0
  -25.4190  -15.1922   20.4104 N   0  0  0  0  0  0
  -31.8146  -14.8032   20.1586 O   0  0  0  0  0  0
  -21.6641   -6.8886   21.4247 O   0  0  0  0  0  0
  -22.3515  -14.5538   20.6717 O   0  0  0  0  0  0
  -24.6305  -31.8555   23.1982 C   0  0  0  0  0  0
  -25.9130  -32.4755   23.8328 C   0  0  1  0  0  0
  -27.2116  -27.2583   20.1461 C   0  0  0  0  0  0
  -25.5917  -33.8557   24.2248 N   0  0  0  0  0  0
  -23.4272  -30.4782   21.5410 C   0  0  2  0  0  0
  -24.8747  -28.9210   20.1172 C   0  0  0  0  0  0
  -22.7496  -29.4604   22.4902 C   0  0  0  0  0  0
  -18.0293  -28.1389   22.8479 C   0  0  0  0  0  0
  -24.1493  -36.7291   23.2639 C   0  0  0  0  0  0
  -25.9728  -30.7671   21.3800 C   0  0  0  0  0  0
  -26.0438  -29.3847   20.7351 C   0  0  0  0  0  0
  -27.2175  -28.5634   20.7426 C   0  0  0  0  0  0
  -26.0321  -26.8724   19.4810 C   0  0  0  0  0  0
  -24.8720  -27.6709   19.4798 C   0  0  0  0  0  0
  -23.6467  -29.8102   20.1579 C   0  0  0  0  0  0
  -25.4113  -36.3071   24.0326 C   0  0  1  0  0  0
  -20.5893  -28.3695   23.1265 C   0  0  2  0  0  0
  -20.6788  -26.9410   22.5410 C   0  0  0  0  0  0
  -19.5764  -26.6383   21.5216 C   0  0  0  0  0  0
  -18.1940  -26.7934   22.1621 C   0  0  0  0  0  0
  -19.1547  -28.8859   23.2871 C   0  0  0  0  0  0
  -18.9471  -30.1461   23.8886 C   0  0  0  0  0  0
  -17.6469  -30.6588   24.0563 C   0  0  0  0  0  0
  -25.9049  -34.9442   23.5093 C   0  0  0  0  0  0
  -16.5356  -29.9088   23.6333 C   0  0  0  0  0  0
  -16.7281  -28.6511   23.0343 C   0  0  0  0  0  0
  -26.4493  -31.6577   25.0720 C   0  0  0  0  0  0
  -25.3709  -31.3742   26.1435 C   0  0  0  0  0  0
  -27.0332  -30.2988   24.6210 C   0  0  0  0  0  0
  -27.6045  -32.4314   25.7496 C   0  0  0  0  0  0
  -27.5577  -37.1799   24.8464 C   0  0  0  0  0  0
  -21.4204  -29.3045   22.3651 N   0  0  0  0  0  0
  -26.4289  -37.3768   23.9408 N   0  0  0  0  0  0
  -24.6957  -31.0524   22.0958 N   0  0  0  0  0  0
  -23.4203  -28.8138   23.2991 O   0  0  0  0  0  0
  -28.3086  -26.3726   20.0947 O   0  0  0  0  0  0
  -26.5635  -34.8922   22.4672 O   0  0  0  0  0  0
  -23.5452  -32.1365   23.7280 O   0  0  0  0  0  0
  -29.2025  -18.3904   20.4674 C   0  0  0  0  0  0
  -29.5449  -19.8066   20.4657 C   0  0  0  0  0  0
  -30.9052  -20.0981   20.6675 C   0  0  0  0  0  0
  -31.8249  -19.0317   20.8110 C   0  0  0  0  0  0
  -30.1860  -17.3339   20.6280 C   0  0  0  0  0  0
  -31.3482  -21.5582   20.6901 C   0  0  0  0  0  0
  -30.2466  -22.5330   21.1591 C   0  0  0  0  0  0
  -28.5426  -21.0105   20.1519 C   0  0  2  0  0  0
  -33.3150  -19.2768   20.9692 C   0  0  0  0  0  0
  -28.0569  -20.7736   18.7053 C   0  0  0  0  0  0
  -26.6719  -23.5130   19.8601 C   0  0  0  0  0  0
  -28.3787  -25.1620   20.9809 C   0  0  0  0  0  0
  -27.9837  -23.5943   20.6606 C   0  0  2  0  0  0
  -31.4693  -17.7266   20.7980 N   0  0  0  0  0  0
  -29.8368  -15.8897   20.6236 N   0  0  0  0  0  0
  -29.0296  -22.4825   20.3053 N   0  3  1  0  0  0
  -31.4706  -12.5784   19.1625 H   0  0  0  0  0  0
  -30.3774  -11.4825   19.9579 H   0  0  0  0  0  0
  -29.7896  -11.7266   17.5215 H   0  0  0  0  0  0
  -29.6331  -13.4563   17.7158 H   0  0  0  0  0  0
  -27.8890  -11.2815   18.9125 H   0  0  0  0  0  0
  -27.3764  -12.5220   17.8001 H   0  0  0  0  0  0
  -27.6318  -14.2525   19.4649 H   0  0  0  0  0  0
  -28.7234  -12.1749   21.4261 H   0  0  0  0  0  0
  -28.4214  -13.8549   21.7918 H   0  0  0  0  0  0
  -25.2769   -9.5685   22.4770 H   0  0  0  0  0  0
  -24.0007   -7.4637   22.7479 H   0  0  0  0  0  0
  -21.0850   -8.8786   19.8955 H   0  0  0  0  0  0
  -22.3714  -10.9682   19.6177 H   0  0  0  0  0  0
  -21.2008   -7.6156   23.9724 H   0  0  0  0  0  0
  -21.1476   -6.0527   25.9078 H   0  0  0  0  0  0
  -22.0598   -2.7619   23.2843 H   0  0  0  0  0  0
  -22.4064  -11.9870   22.4799 H   0  0  0  0  0  0
  -21.1080  -13.1247   22.2622 H   0  0  0  0  0  0
  -24.6463  -15.8403   20.5169 H   0  0  0  0  0  0
  -26.2489  -15.6296   20.0333 H   0  0  0  0  0  0
  -26.7194  -32.5408   23.1067 H   0  0  0  0  0  0
  -25.0064  -33.9687   25.0392 H   0  0  0  0  0  0
  -22.7233  -31.2999   21.3922 H   0  0  0  0  0  0
  -23.3758  -35.9623   23.3303 H   0  0  0  0  0  0
  -24.3583  -36.8914   22.2055 H   0  0  0  0  0  0
  -23.7252  -37.6496   23.6662 H   0  0  0  0  0  0
  -26.1076  -31.5207   20.6029 H   0  0  0  0  0  0
  -26.8532  -30.8225   22.0086 H   0  0  0  0  0  0
  -28.1189  -28.9168   21.2237 H   0  0  0  0  0  0
  -26.0034  -25.9409   18.9395 H   0  0  0  0  0  0
  -23.9838  -27.3188   18.9739 H   0  0  0  0  0  0
  -23.7709  -30.5844   19.3999 H   0  0  0  0  0  0
  -22.7657  -29.2421   19.8543 H   0  0  0  0  0  0
  -25.1294  -36.1916   25.0818 H   0  0  0  0  0  0
  -20.9975  -28.3277   24.1390 H   0  0  0  0  0  0
  -20.5693  -26.2298   23.3613 H   0  0  0  0  0  0
  -21.6654  -26.7443   22.1191 H   0  0  0  0  0  0
  -19.6930  -25.6297   21.1240 H   0  0  0  0  0  0
  -19.6709  -27.3204   20.6752 H   0  0  0  0  0  0
  -17.4209  -26.6680   21.4025 H   0  0  0  0  0  0
  -18.0334  -26.0088   22.9023 H   0  0  0  0  0  0
  -19.7949  -30.7285   24.2240 H   0  0  0  0  0  0
  -17.5027  -31.6266   24.5172 H   0  0  0  0  0  0
  -15.5361  -30.2988   23.7669 H   0  0  0  0  0  0
  -15.8679  -28.0838   22.7039 H   0  0  0  0  0  0
  -24.5883  -30.7085   25.7776 H   0  0  0  0  0  0
  -24.8897  -32.2921   26.4821 H   0  0  0  0  0  0
  -25.8005  -30.8952   27.0240 H   0  0  0  0  0  0
  -26.2912  -29.6741   24.1218 H   0  0  0  0  0  0
  -27.4001  -29.7241   25.4728 H   0  0  0  0  0  0
  -27.8799  -30.4266   23.9462 H   0  0  0  0  0  0
  -27.2644  -33.3619   26.2051 H   0  0  0  0  0  0
  -28.3861  -32.6854   25.0324 H   0  0  0  0  0  0
  -28.0702  -31.8452   26.5428 H   0  0  0  0  0  0
  -28.2579  -38.0104   24.7495 H   0  0  0  0  0  0
  -28.1079  -36.2632   24.6291 H   0  0  0  0  0  0
  -27.2300  -37.1448   25.8868 H   0  0  0  0  0  0
  -20.9384  -29.8769   21.6855 H   0  0  0  0  0  0
  -26.0174  -38.2845   24.1407 H   0  0  0  0  0  0
  -28.1682  -18.1150   20.3115 H   0  0  0  0  0  0
  -31.6988  -21.8355   19.6949 H   0  0  0  0  0  0
  -32.2017  -21.6760   21.3584 H   0  0  0  0  0  0
  -30.6785  -23.5311   21.1420 H   0  0  0  0  0  0
  -29.9784  -22.3220   22.1954 H   0  0  0  0  0  0
  -27.7070  -20.8789   20.8401 H   0  0  0  0  0  0
  -33.5333  -19.6753   21.9593 H   0  0  0  0  0  0
  -33.6749  -19.9820   20.2203 H   0  0  0  0  0  0
  -33.8874  -18.3564   20.8470 H   0  0  0  0  0  0
  -28.8960  -20.7868   18.0096 H   0  0  0  0  0  0
  -27.3387  -21.5052   18.3484 H   0  0  0  0  0  0
  -27.5785  -19.7996   18.6097 H   0  0  0  0  0  0
  -26.2034  -22.5323   19.9265 H   0  0  0  0  0  0
  -26.8188  -23.7672   18.8101 H   0  0  0  0  0  0
  -25.9350  -24.1984   20.2768 H   0  0  0  0  0  0
  -29.3708  -25.1944   21.4234 H   0  0  0  0  0  0
  -27.7438  -25.4341   21.8261 H   0  0  0  0  0  0
  -27.6885  -23.2467   21.6523 H   0  0  0  0  0  0
  -28.8547  -15.6978   20.7282 H   0  0  0  0  0  0
  -29.3781  -22.7162   19.3877 H   0  0  0  0  0  0
  1 25  1  0  0  0
  1 30  2  0  0  0
  1 85  1  0  0  0
  2  3  1  0  0  0
  2 25  1  0  0  0
  2 87  1  0  0  0
  2 88  1  0  0  0
  3  4  1  0  0  0
  3 89  1  0  0  0
  3 90  1  0  0  0
  4  5  1  0  0  0
  4 91  1  0  0  0
  4 92  1  0  0  0
  5  6  1  0  0  0
  5 26  1  0  0  0
  5 93  1  0  0  0
  6 25  1  0  0  0
  6 94  1  0  0  0
  6 95  1  0  0  0
  7  8  2  0  0  0
  7 26  1  0  0  0
  7 29  1  0  0  0
  8  9  1  0  0  0
  8 22  1  0  0  0
  9 10  1  0  0  0
  9 27  2  0  0  0
 10 11  2  0  0  0
 10 15  1  0  0  0
 11 12  1  0  0  0
 11 96  1  0  0  0
 12 13  2  0  0  0
 12 97  1  0  0  0
 13 14  1  0  0  0
 13 31  1  0  0  0
 14 15  2  0  0  0
 14 98  1  0  0  0
 15 99  1  0  0  0
 16 17  2  0  0  0
 16 21  1  0  0  0
 16 31  1  0  0  0
 17 18  1  0  0  0
 17100  1  0  0  0
 18 19  2  0  0  0
 18101  1  0  0  0
 19 20  1  0  0  0
 19 24  1  0  0  0
 20 21  2  0  0  0
 20102  1  0  0  0
 21 23  1  0  0  0
 22 28  1  0  0  0
 22 32  2  0  0  0
 26 27  1  0  0  0
 28103  1  0  0  0
 28104  1  0  0  0
 29105  1  0  0  0
 29106  1  0  0  0
 33 34  1  0  0  0
 33 66  1  0  0  0
 33 70  2  0  0  0
 34 36  1  0  0  0
 34 59  1  0  0  0
 34107  1  0  0  0
 35 44  2  0  0  0
 35 45  1  0  0  0
 35 68  1  0  0  0
 36 56  1  0  0  0
 36108  1  0  0  0
 37 39  1  0  0  0
 37 47  1  0  0  0
 37 66  1  0  0  0
 37109  1  0  0  0
 38 43  2  0  0  0
 38 46  1  0  0  0
 38 47  1  0  0  0
 39 64  1  0  0  0
 39 67  2  0  0  0
 40 52  1  0  0  0
 40 53  2  0  0  0
 40 58  1  0  0  0
 41110  1  0  0  0
 41111  1  0  0  0
 41112  1  0  0  0
 41 48  1  0  0  0
 42 43  1  0  0  0
 42 66  1  0  0  0
 42113  1  0  0  0
 42114  1  0  0  0
 43 44  1  0  0  0
 44115  1  0  0  0
 45 46  2  0  0  0
 45116  1  0  0  0
 46117  1  0  0  0
 47118  1  0  0  0
 47119  1  0  0  0
 48 56  1  0  0  0
 48 65  1  0  0  0
 48120  1  0  0  0
 49 50  1  0  0  0
 49 53  1  0  0  0
 49 64  1  0  0  0
 49121  1  0  0  0
 50 51  1  0  0  0
 50122  1  0  0  0
 50123  1  0  0  0
 51 52  1  0  0  0
 51124  1  0  0  0
 51125  1  0  0  0
 52126  1  0  0  0
 52127  1  0  0  0
 53 54  1  0  0  0
 54 55  2  0  0  0
 54128  1  0  0  0
 55 57  1  0  0  0
 55129  1  0  0  0
 56 69  2  0  0  0
 57 58  2  0  0  0
 57130  1  0  0  0
 58131  1  0  0  0
 59 60  1  0  0  0
 59 61  1  0  0  0
 59 62  1  0  0  0
 60132  1  0  0  0
 60133  1  0  0  0
 60134  1  0  0  0
 61135  1  0  0  0
 61136  1  0  0  0
 61137  1  0  0  0
 62138  1  0  0  0
 62139  1  0  0  0
 62140  1  0  0  0
 63 65  1  0  0  0
 63141  1  0  0  0
 63142  1  0  0  0
 63143  1  0  0  0
 64144  1  0  0  0
 65145  1  0  0  0
 68 82  1  0  0  0
 71 72  2  0  0  0
 71 75  1  0  0  0
 71146  1  0  0  0
 72 73  1  0  0  0
 72 78  1  0  0  0
 73 74  2  0  0  0
 73 76  1  0  0  0
 74 79  1  0  0  0
 74 84  1  0  0  0
 75 84  2  0  0  0
 75 85  1  0  0  0
 76 77  1  0  0  0
 76147  1  0  0  0
 76148  1  0  0  0
 77149  1  0  0  0
 77150  1  0  0  0
 77 86  1  0  0  0
 78 80  1  0  0  0
 78 86  1  0  0  0
 78151  1  0  0  0
 79152  1  0  0  0
 79153  1  0  0  0
 79154  1  0  0  0
 80155  1  0  0  0
 80156  1  0  0  0
 80157  1  0  0  0
 81158  1  0  0  0
 81159  1  0  0  0
 81160  1  0  0  0
 81 83  1  0  0  0
 82 83  1  0  0  0
 82161  1  0  0  0
 82162  1  0  0  0
 83 86  1  0  0  0
 83163  1  0  0  0
 85164  1  0  0  0
 86165  1  0  0  0
M  CHG  1  86   1
M  ISO  4   1 100  68 101  82 101  85 100
M  END
> <chiral flag>
0

> <version>
0

> <s_m_source_file>
/data/baiqing/PycharmProjects/Reinvent-master-3.2/result/LINK_invent/BTK/process_docking_weight1_custom_sum_contain_oxygen_bond_distance_aromatic_linkinvent_7_9_3/rearranged_h_0172.sdf

> <i_m_source_file_index>
68

> <r_mmod_Potential_Energy-OPLS-2005>
-18.1286334991455

> <r_mmod_Stretch_Energy-OPLS-2005>
136.783218383789

> <r_mmod_Bend_Energy-OPLS-2005>
212.928146362305

> <r_mmod_Torsional_Energy-OPLS-2005>
266.565185546875

> <r_mmod_Improper_Torsional_Energy-OPLS-2005>
5.93283081054688

> <r_mmod_Van_der_Waal_Energy-OPLS-2005>
147.607177734375

> <r_mmod_Electrostatic_Energy-OPLS-2005>
-405.800537109375

> <r_mmod_Solvation_Energy-OPLS-2005>
-465.216339111328

> <b_mmod_Minimization_Converged-OPLS-2005>
0

> <r_mmod_RMS_Derivative-OPLS-2005>
1.38070404529572

$$$$
68
                    3D
 Structure written by MMmdl.
153162  0  0  1  0            999 V2000
  -30.6140  -14.9055   20.4660 C   0  0  0  0  0  0
  -30.4405  -12.5735   19.4951 C   0  0  0  0  0  0
  -29.5170  -12.5298   18.2565 C   0  0  0  0  0  0
  -28.0516  -12.3188   18.6781 C   0  0  0  0  0  0
  -27.6384  -13.2412   19.8536 C   0  0  2  0  0  0
  -28.6896  -13.2354   20.9859 C   0  0  0  0  0  0
  -25.2457  -13.8189   20.5684 C   0  0  0  0  0  0
  -24.1781  -13.0422   20.9232 C   0  0  0  0  0  0
  -24.6401  -11.6908   20.8789 C   0  0  0  0  0  0
  -23.9086  -10.4285   21.0422 C   0  0  0  0  0  0
  -24.3627   -9.4201   21.9197 C   0  0  0  0  0  0
  -23.6294   -8.2241   22.0766 C   0  0  0  0  0  0
  -22.4286   -8.0279   21.3548 C   0  0  0  0  0  0
  -21.9922   -9.0257   20.4652 C   0  0  0  0  0  0
  -22.7259  -10.2132   20.3067 C   0  0  0  0  0  0
  -21.6853   -6.0731   22.5273 C   0  0  0  0  0  0
  -21.4014   -6.5635   23.8208 C   0  0  0  0  0  0
  -21.3660   -5.6792   24.9169 C   0  0  0  0  0  0
  -21.6051   -4.3055   24.7219 C   0  0  0  0  0  0
  -21.8818   -3.8145   23.4343 C   0  0  0  0  0  0
  -21.9191   -4.6960   22.3399 C   0  0  0  0  0  0
  -22.7801  -13.5197   21.1862 C   0  0  0  0  0  0
  -22.1660   -4.2142   21.0978 F   0  0  0  0  0  0
  -21.5630   -3.4544   25.7735 F   0  0  0  0  0  0
  -29.9621  -13.6707   20.3879 N   0  0  0  0  0  0
  -26.2931  -12.9426   20.3342 N   0  0  0  0  0  0
  -25.9351  -11.6565   20.5829 N   0  0  0  0  0  0
  -22.0451  -12.8198   22.0425 N   0  0  0  0  0  0
  -25.4020  -15.1897   20.3965 N   0  0  0  0  0  0
  -31.8039  -14.9198   20.1331 O   0  0  0  0  0  0
  -21.6650   -6.8879   21.4239 O   0  0  0  0  0  0
  -22.3492  -14.5505   20.6710 O   0  0  0  0  0  0
  -24.6432  -31.8482   23.1929 C   0  0  0  0  0  0
  -25.9207  -32.4725   23.8301 C   0  0  1  0  0  0
  -27.2210  -27.1604   20.1365 C   0  0  0  0  0  0
  -25.5958  -33.8526   24.2218 N   0  0  0  0  0  0
  -23.4450  -30.4715   21.5403 C   0  0  2  0  0  0
  -24.8954  -28.9106   20.1112 C   0  0  0  0  0  0
  -22.7568  -29.4567   22.4884 C   0  0  0  0  0  0
  -18.0301  -28.1387   22.8486 C   0  0  0  0  0  0
  -24.1491  -36.7262   23.2638 C   0  0  0  0  0  0
  -26.0029  -30.7290   21.3916 C   0  0  0  0  0  0
  -26.0756  -29.3446   20.7290 C   0  0  0  0  0  0
  -27.2391  -28.4850   20.7296 C   0  0  0  0  0  0
  -26.0098  -26.8346   19.4767 C   0  0  0  0  0  0
  -24.8750  -27.6669   19.4720 C   0  0  0  0  0  0
  -23.6700  -29.8094   20.1571 C   0  0  0  0  0  0
  -25.4123  -36.3044   24.0320 C   0  0  1  0  0  0
  -20.5918  -28.3721   23.1242 C   0  0  2  0  0  0
  -20.6788  -26.9422   22.5416 C   0  0  0  0  0  0
  -19.5761  -26.6375   21.5229 C   0  0  0  0  0  0
  -18.1936  -26.7923   22.1633 C   0  0  0  0  0  0
  -19.1558  -28.8872   23.2849 C   0  0  0  0  0  0
  -18.9479  -30.1465   23.8871 C   0  0  0  0  0  0
  -17.6474  -30.6583   24.0565 C   0  0  0  0  0  0
  -25.9077  -34.9422   23.5081 C   0  0  0  0  0  0
  -16.5364  -29.9082   23.6339 C   0  0  0  0  0  0
  -16.7287  -28.6500   23.0361 C   0  0  0  0  0  0
  -26.4520  -31.6571   25.0722 C   0  0  0  0  0  0
  -25.3694  -31.3772   26.1419 C   0  0  0  0  0  0
  -27.0387  -30.2963   24.6298 C   0  0  0  0  0  0
  -27.6065  -32.4328   25.7495 C   0  0  0  0  0  0
  -27.5589  -37.1772   24.8451 C   0  0  0  0  0  0
  -21.4266  -29.3051   22.3621 N   0  0  0  0  0  0
  -26.4286  -37.3764   23.9417 N   0  0  0  0  0  0
  -24.7164  -31.0357   22.0967 N   0  0  0  0  0  0
  -23.4228  -28.8095   23.3000 O   0  0  0  0  0  0
  -28.2632  -26.1613   20.2059 O   0  0  0  0  0  0
  -26.5662  -34.8916   22.4656 O   0  0  0  0  0  0
  -23.5552  -32.1353   23.7161 O   0  0  0  0  0  0
  -29.2389  -21.1725   21.4748 C   0  0  0  0  0  0
  -28.9556  -22.5936   21.3980 C   0  0  0  0  0  0
  -29.0994  -21.0953   19.1385 C   0  0  0  0  0  0
  -29.2753  -20.3147   20.3267 C   0  0  0  0  0  0
  -28.7057  -23.2721   20.1644 C   0  0  0  0  0  0
  -28.5503  -18.0027   21.5532 C   0  0  0  0  0  0
  -28.7420  -16.4536   21.4056 C   0  0  0  0  0  0
  -30.4077  -17.5733   20.1876 C   0  0  0  0  0  0
  -29.2220  -18.6671   20.3481 C   0  0  2  0  0  0
  -27.8693  -24.6801   19.9904 C   0  0  0  0  0  0
  -28.8300  -22.4561   19.0633 N   0  0  0  0  0  0
  -29.9351  -16.1572   20.5918 N   0  0  0  0  0  0
  -31.4727  -12.7166   19.1743 H   0  0  0  0  0  0
  -30.4335  -11.6179   20.0208 H   0  0  0  0  0  0
  -29.8299  -11.7358   17.5781 H   0  0  0  0  0  0
  -29.6072  -13.4637   17.6988 H   0  0  0  0  0  0
  -27.9420  -11.2756   18.9747 H   0  0  0  0  0  0
  -27.3847  -12.4661   17.8285 H   0  0  0  0  0  0
  -27.6112  -14.2484   19.4387 H   0  0  0  0  0  0
  -28.7855  -12.2398   21.4207 H   0  0  0  0  0  0
  -28.3892  -13.8780   21.8102 H   0  0  0  0  0  0
  -25.2761   -9.5673   22.4786 H   0  0  0  0  0  0
  -23.9989   -7.4634   22.7493 H   0  0  0  0  0  0
  -21.0855   -8.8787   19.8954 H   0  0  0  0  0  0
  -22.3719  -10.9680   19.6185 H   0  0  0  0  0  0
  -21.2012   -7.6143   23.9702 H   0  0  0  0  0  0
  -21.1485   -6.0526   25.9069 H   0  0  0  0  0  0
  -22.0599   -2.7607   23.2847 H   0  0  0  0  0  0
  -22.4063  -11.9857   22.4812 H   0  0  0  0  0  0
  -21.1072  -13.1231   22.2640 H   0  0  0  0  0  0
  -24.6229  -15.8324   20.4890 H   0  0  0  0  0  0
  -26.2339  -15.6280   20.0240 H   0  0  0  0  0  0
  -26.7280  -32.5341   23.1039 H   0  0  0  0  0  0
  -25.0086  -33.9636   25.0358 H   0  0  0  0  0  0
  -22.7471  -31.2986   21.3908 H   0  0  0  0  0  0
  -23.3772  -35.9572   23.3266 H   0  0  0  0  0  0
  -24.3585  -36.8932   22.2057 H   0  0  0  0  0  0
  -23.7227  -37.6443   23.6696 H   0  0  0  0  0  0
  -26.1585  -31.4895   20.6252 H   0  0  0  0  0  0
  -26.8736  -30.7766   22.0345 H   0  0  0  0  0  0
  -28.1335  -28.8098   21.2433 H   0  0  0  0  0  0
  -25.8798  -25.8944   18.9665 H   0  0  0  0  0  0
  -23.9764  -27.3283   18.9746 H   0  0  0  0  0  0
  -23.8039  -30.5886   19.4055 H   0  0  0  0  0  0
  -22.7847  -29.2526   19.8460 H   0  0  0  0  0  0
  -25.1301  -36.1886   25.0809 H   0  0  0  0  0  0
  -21.0012  -28.3311   24.1371 H   0  0  0  0  0  0
  -20.5712  -26.2320   23.3630 H   0  0  0  0  0  0
  -21.6642  -26.7452   22.1189 H   0  0  0  0  0  0
  -19.6926  -25.6288   21.1257 H   0  0  0  0  0  0
  -19.6687  -27.3191   20.6762 H   0  0  0  0  0  0
  -17.4209  -26.6693   21.4021 H   0  0  0  0  0  0
  -18.0305  -26.0068   22.9024 H   0  0  0  0  0  0
  -19.7954  -30.7283   24.2225 H   0  0  0  0  0  0
  -17.5031  -31.6266   24.5167 H   0  0  0  0  0  0
  -15.5362  -30.2977   23.7674 H   0  0  0  0  0  0
  -15.8684  -28.0818   22.7086 H   0  0  0  0  0  0
  -24.5866  -30.7141   25.7720 H   0  0  0  0  0  0
  -24.8893  -32.2959   26.4793 H   0  0  0  0  0  0
  -25.7950  -30.8964   27.0233 H   0  0  0  0  0  0
  -26.3019  -29.6669   24.1300 H   0  0  0  0  0  0
  -27.3997  -29.7277   25.4873 H   0  0  0  0  0  0
  -27.8912  -30.4191   23.9622 H   0  0  0  0  0  0
  -27.2700  -33.3685   26.1980 H   0  0  0  0  0  0
  -28.3913  -32.6805   25.0330 H   0  0  0  0  0  0
  -28.0679  -31.8505   26.5482 H   0  0  0  0  0  0
  -28.2554  -38.0121   24.7574 H   0  0  0  0  0  0
  -28.1141  -36.2656   24.6185 H   0  0  0  0  0  0
  -27.2307  -37.1305   25.8849 H   0  0  0  0  0  0
  -20.9467  -29.8800   21.6840 H   0  0  0  0  0  0
  -26.0156  -38.2821   24.1472 H   0  0  0  0  0  0
  -29.3382  -20.7285   22.4539 H   0  0  0  0  0  0
  -28.8275  -23.1432   22.3204 H   0  0  0  0  0  0
  -29.0767  -20.5902   18.1837 H   0  0  0  0  0  0
  -29.0388  -18.3341   22.4708 H   0  0  0  0  0  0
  -27.4972  -18.2765   21.6379 H   0  0  0  0  0  0
  -27.8742  -16.0352   20.9047 H   0  0  0  0  0  0
  -28.8117  -15.9905   22.3907 H   0  0  0  0  0  0
  -31.2393  -17.8403   20.8419 H   0  0  0  0  0  0
  -30.8017  -17.5655   19.1711 H   0  0  0  0  0  0
  -28.5620  -18.4542   19.5054 H   0  0  0  0  0  0
  -26.9789  -24.5195   20.5995 H   0  0  0  0  0  0
  -27.5335  -24.6229   18.9558 H   0  0  0  0  0  0
  1 25  1  0  0  0
  1 30  2  0  0  0
  1 82  1  0  0  0
  2  3  1  0  0  0
  2 25  1  0  0  0
  2 83  1  0  0  0
  2 84  1  0  0  0
  3  4  1  0  0  0
  3 85  1  0  0  0
  3 86  1  0  0  0
  4  5  1  0  0  0
  4 87  1  0  0  0
  4 88  1  0  0  0
  5  6  1  0  0  0
  5 26  1  0  0  0
  5 89  1  0  0  0
  6 25  1  0  0  0
  6 90  1  0  0  0
  6 91  1  0  0  0
  7  8  2  0  0  0
  7 26  1  0  0  0
  7 29  1  0  0  0
  8  9  1  0  0  0
  8 22  1  0  0  0
  9 10  1  0  0  0
  9 27  2  0  0  0
 10 11  2  0  0  0
 10 15  1  0  0  0
 11 12  1  0  0  0
 11 92  1  0  0  0
 12 13  2  0  0  0
 12 93  1  0  0  0
 13 14  1  0  0  0
 13 31  1  0  0  0
 14 15  2  0  0  0
 14 94  1  0  0  0
 15 95  1  0  0  0
 16 17  2  0  0  0
 16 21  1  0  0  0
 16 31  1  0  0  0
 17 18  1  0  0  0
 17 96  1  0  0  0
 18 19  2  0  0  0
 18 97  1  0  0  0
 19 20  1  0  0  0
 19 24  1  0  0  0
 20 21  2  0  0  0
 20 98  1  0  0  0
 21 23  1  0  0  0
 22 28  1  0  0  0
 22 32  2  0  0  0
 26 27  1  0  0  0
 28 99  1  0  0  0
 28100  1  0  0  0
 29101  1  0  0  0
 29102  1  0  0  0
 33 34  1  0  0  0
 33 66  1  0  0  0
 33 70  2  0  0  0
 34 36  1  0  0  0
 34 59  1  0  0  0
 34103  1  0  0  0
 35 44  2  0  0  0
 35 45  1  0  0  0
 35 68  1  0  0  0
 36 56  1  0  0  0
 36104  1  0  0  0
 37 39  1  0  0  0
 37 47  1  0  0  0
 37 66  1  0  0  0
 37105  1  0  0  0
 38 43  2  0  0  0
 38 46  1  0  0  0
 38 47  1  0  0  0
 39 64  1  0  0  0
 39 67  2  0  0  0
 40 52  1  0  0  0
 40 53  2  0  0  0
 40 58  1  0  0  0
 41106  1  0  0  0
 41107  1  0  0  0
 41108  1  0  0  0
 41 48  1  0  0  0
 42 43  1  0  0  0
 42 66  1  0  0  0
 42109  1  0  0  0
 42110  1  0  0  0
 43 44  1  0  0  0
 44111  1  0  0  0
 45 46  2  0  0  0
 45112  1  0  0  0
 46113  1  0  0  0
 47114  1  0  0  0
 47115  1  0  0  0
 48 56  1  0  0  0
 48 65  1  0  0  0
 48116  1  0  0  0
 49 50  1  0  0  0
 49 53  1  0  0  0
 49 64  1  0  0  0
 49117  1  0  0  0
 50 51  1  0  0  0
 50118  1  0  0  0
 50119  1  0  0  0
 51 52  1  0  0  0
 51120  1  0  0  0
 51121  1  0  0  0
 52122  1  0  0  0
 52123  1  0  0  0
 53 54  1  0  0  0
 54 55  2  0  0  0
 54124  1  0  0  0
 55 57  1  0  0  0
 55125  1  0  0  0
 56 69  2  0  0  0
 57 58  2  0  0  0
 57126  1  0  0  0
 58127  1  0  0  0
 59 60  1  0  0  0
 59 61  1  0  0  0
 59 62  1  0  0  0
 60128  1  0  0  0
 60129  1  0  0  0
 60130  1  0  0  0
 61131  1  0  0  0
 61132  1  0  0  0
 61133  1  0  0  0
 62134  1  0  0  0
 62135  1  0  0  0
 62136  1  0  0  0
 63 65  1  0  0  0
 63137  1  0  0  0
 63138  1  0  0  0
 63139  1  0  0  0
 64140  1  0  0  0
 65141  1  0  0  0
 68 80  1  0  0  0
 71 72  2  0  0  0
 71 74  1  0  0  0
 71142  1  0  0  0
 72 75  1  0  0  0
 72143  1  0  0  0
 73 74  2  0  0  0
 73 81  1  0  0  0
 73144  1  0  0  0
 74 79  1  0  0  0
 75 80  1  0  0  0
 75 81  2  0  0  0
 76 77  1  0  0  0
 76 79  1  0  0  0
 76145  1  0  0  0
 76146  1  0  0  0
 77 82  1  0  0  0
 77147  1  0  0  0
 77148  1  0  0  0
 78 79  1  0  0  0
 78 82  1  0  0  0
 78149  1  0  0  0
 78150  1  0  0  0
 79151  1  0  0  0
 80152  1  0  0  0
 80153  1  0  0  0
M  ISO  4   1 100  68 101  80 101  82 100
M  END
> <chiral flag>
0

> <version>
0

> <s_m_source_file>
/data/baiqing/PycharmProjects/Reinvent-master-3.2/result/LINK_invent/BTK/process_docking_weight1_custom_sum_contain_oxygen_bond_distance_aromatic_linkinvent_7_9_3/rearranged_h_0172.sdf

> <i_m_source_file_index>
69

> <r_mmod_Potential_Energy-OPLS-2005>
501.583923339844

> <r_mmod_Stretch_Energy-OPLS-2005>
201.600708007812

> <r_mmod_Bend_Energy-OPLS-2005>
292.383087158203

> <r_mmod_Torsional_Energy-OPLS-2005>
322.073486328125

> <r_mmod_Improper_Torsional_Energy-OPLS-2005>
13.8913974761963

> <r_mmod_Van_der_Waal_Energy-OPLS-2005>
140.647018432617

> <r_mmod_Electrostatic_Energy-OPLS-2005>
-414.269012451172

> <r_mmod_Solvation_Energy-OPLS-2005>
-219.055191040039

> <b_mmod_Minimization_Converged-OPLS-2005>
0

> <r_mmod_RMS_Derivative-OPLS-2005>
1.7275003194809

$$$$
69
                    3D
 Structure written by MMmdl.
180191  0  0  1  0            999 V2000
  -30.7583  -14.3893   20.6271 C   0  0  0  0  0  0
  -30.4055  -12.2727   19.4152 C   0  0  0  0  0  0
  -29.4851  -12.5080   18.2026 C   0  0  0  0  0  0
  -28.0077  -12.3770   18.6164 C   0  0  0  0  0  0
  -27.6645  -13.2062   19.8827 C   0  0  2  0  0  0
  -28.7021  -12.9673   21.0029 C   0  0  0  0  0  0
  -25.2593  -13.8168   20.5686 C   0  0  0  0  0  0
  -24.1852  -13.0444   20.9187 C   0  0  0  0  0  0
  -24.6401  -11.6911   20.8751 C   0  0  0  0  0  0
  -23.9074  -10.4291   21.0416 C   0  0  0  0  0  0
  -24.3624   -9.4201   21.9196 C   0  0  0  0  0  0
  -23.6297   -8.2237   22.0762 C   0  0  0  0  0  0
  -22.4274   -8.0288   21.3553 C   0  0  0  0  0  0
  -21.9922   -9.0258   20.4654 C   0  0  0  0  0  0
  -22.7249  -10.2135   20.3067 C   0  0  0  0  0  0
  -21.6858   -6.0743   22.5281 C   0  0  0  0  0  0
  -21.4009   -6.5641   23.8210 C   0  0  0  0  0  0
  -21.3658   -5.6796   24.9177 C   0  0  0  0  0  0
  -21.6044   -4.3060   24.7228 C   0  0  0  0  0  0
  -21.8824   -3.8152   23.4345 C   0  0  0  0  0  0
  -21.9186   -4.6967   22.3402 C   0  0  0  0  0  0
  -22.7873  -13.5239   21.1840 C   0  0  0  0  0  0
  -22.1664   -4.2154   21.0980 F   0  0  0  0  0  0
  -21.5628   -3.4542   25.7740 F   0  0  0  0  0  0
  -30.0414  -13.2474   20.4565 N   0  0  0  0  0  0
  -26.3036  -12.9337   20.3404 N   0  0  0  0  0  0
  -25.9327  -11.6493   20.5791 N   0  0  0  0  0  0
  -22.0513  -12.8231   22.0388 N   0  0  0  0  0  0
  -25.4310  -15.1881   20.4036 N   0  0  0  0  0  0
  -31.8276  -14.5756   20.0341 O   0  0  0  0  0  0
  -21.6640   -6.8888   21.4243 O   0  0  0  0  0  0
  -22.3563  -14.5553   20.6689 O   0  0  0  0  0  0
  -24.6061  -31.8724   23.2122 C   0  0  0  0  0  0
  -25.8990  -32.4855   23.8392 C   0  0  1  0  0  0
  -27.2394  -27.4866   20.0991 C   0  0  0  0  0  0
  -25.5874  -33.8651   24.2344 N   0  0  0  0  0  0
  -23.3933  -30.4911   21.5519 C   0  0  2  0  0  0
  -24.8434  -28.9643   20.1120 C   0  0  0  0  0  0
  -22.7378  -29.4637   22.5018 C   0  0  0  0  0  0
  -18.0257  -28.1353   22.8476 C   0  0  0  0  0  0
  -24.1497  -36.7314   23.2636 C   0  0  0  0  0  0
  -25.9122  -30.8569   21.3536 C   0  0  0  0  0  0
  -25.9946  -29.4914   20.7106 C   0  0  0  0  0  0
  -27.1950  -28.7563   20.7119 C   0  0  0  0  0  0
  -26.0837  -26.9669   19.4858 C   0  0  0  0  0  0
  -24.8778  -27.6979   19.5001 C   0  0  0  0  0  0
  -23.6011  -29.8226   20.1652 C   0  0  0  0  0  0
  -25.4115  -36.3124   24.0343 C   0  0  1  0  0  0
  -20.5843  -28.3611   23.1346 C   0  0  2  0  0  0
  -20.6743  -26.9350   22.5430 C   0  0  0  0  0  0
  -19.5736  -26.6360   21.5204 C   0  0  0  0  0  0
  -18.1902  -26.7890   22.1606 C   0  0  0  0  0  0
  -19.1508  -28.8792   23.2905 C   0  0  0  0  0  0
  -18.9443  -30.1391   23.8917 C   0  0  0  0  0  0
  -17.6456  -30.6569   24.0538 C   0  0  0  0  0  0
  -25.9034  -34.9489   23.5141 C   0  0  0  0  0  0
  -16.5343  -29.9077   23.6311 C   0  0  0  0  0  0
  -16.7250  -28.6488   23.0344 C   0  0  0  0  0  0
  -26.4435  -31.6600   25.0688 C   0  0  0  0  0  0
  -25.3710  -31.3706   26.1446 C   0  0  0  0  0  0
  -27.0224  -30.3056   24.5956 C   0  0  0  0  0  0
  -27.6026  -32.4278   25.7466 C   0  0  0  0  0  0
  -27.5588  -37.1815   24.8456 C   0  0  0  0  0  0
  -21.4115  -29.2987   22.3770 N   0  0  0  0  0  0
  -26.4304  -37.3801   23.9407 N   0  0  0  0  0  0
  -24.6555  -31.0856   22.1001 N   0  0  0  0  0  0
  -23.4185  -28.8178   23.3033 O   0  0  0  0  0  0
  -28.3846  -26.7349   20.0950 O   0  0  0  0  0  0
  -26.5587  -34.8935   22.4698 O   0  0  0  0  0  0
  -23.5270  -32.1446   23.7568 O   0  0  0  0  0  0
  -30.2341  -19.0341   21.9480 C   0  0  0  0  0  0
  -31.6532  -19.2596   21.9261 C   0  0  0  0  0  0
  -29.7442  -17.6989   21.8082 C   0  0  0  0  0  0
  -30.6697  -16.6365   21.6568 C   0  0  0  0  0  0
  -32.4762  -18.1122   21.8451 C   0  0  0  0  0  0
  -33.4655  -21.0582   21.1059 C   0  0  0  0  0  0
  -33.6067  -21.0080   22.6160 C   0  0  0  0  0  0
  -29.4106  -20.9339   23.4628 C   0  0  0  0  0  0
  -29.2527  -21.1162   20.8317 C   0  0  0  0  0  0
  -27.9932  -25.3101   22.0635 C   0  0  0  0  0  0
  -30.0254  -25.4344   21.3652 C   0  0  0  0  0  0
  -28.9128  -22.3908   23.4877 C   0  0  0  0  0  0
  -28.7339  -22.5422   21.0755 C   0  0  0  0  0  0
  -29.2445  -20.2115   22.0960 C   0  0  1  0  0  0
  -32.2850  -20.6607   21.9647 C   0  0  0  0  0  0
  -29.3047  -24.6082   22.4467 C   0  0  2  0  0  0
  -28.8451  -26.4108   21.4028 C   0  0  1  0  0  0
  -28.2382  -17.4136   21.7846 C   0  0  0  0  0  0
  -34.6492  -17.0481   21.7339 C   0  0  0  0  0  0
  -31.9887  -16.8688   21.7421 N   0  0  0  0  0  0
  -30.1952  -15.3184   21.4221 N   0  0  0  0  0  0
  -29.3698  -23.1267   22.2853 N   0  3  1  0  0  0
  -33.8517  -18.2235   21.8492 O   0  0  0  0  0  0
  -31.4527  -12.3411   19.1153 H   0  0  0  0  0  0
  -30.2788  -11.2593   19.7981 H   0  0  0  0  0  0
  -29.7138  -11.7906   17.4128 H   0  0  0  0  0  0
  -29.6673  -13.4977   17.7817 H   0  0  0  0  0  0
  -27.8091  -11.3207   18.8002 H   0  0  0  0  0  0
  -27.3581  -12.6690   17.7902 H   0  0  0  0  0  0
  -27.7174  -14.2582   19.6012 H   0  0  0  0  0  0
  -28.6620  -11.9298   21.3388 H   0  0  0  0  0  0
  -28.4622  -13.5622   21.8843 H   0  0  0  0  0  0
  -25.2771   -9.5668   22.4768 H   0  0  0  0  0  0
  -24.0005   -7.4629   22.7481 H   0  0  0  0  0  0
  -21.0859   -8.8783   19.8959 H   0  0  0  0  0  0
  -22.3723  -10.9678   19.6176 H   0  0  0  0  0  0
  -21.2004   -7.6149   23.9720 H   0  0  0  0  0  0
  -21.1478   -6.0526   25.9082 H   0  0  0  0  0  0
  -22.0601   -2.7611   23.2846 H   0  0  0  0  0  0
  -22.4126  -11.9877   22.4751 H   0  0  0  0  0  0
  -21.1133  -13.1261   22.2600 H   0  0  0  0  0  0
  -24.6569  -15.8377   20.4928 H   0  0  0  0  0  0
  -26.2652  -15.6156   20.0228 H   0  0  0  0  0  0
  -26.7079  -32.5601   23.1182 H   0  0  0  0  0  0
  -25.0032  -33.9813   25.0494 H   0  0  0  0  0  0
  -22.6777  -31.3043   21.4137 H   0  0  0  0  0  0
  -23.3773  -35.9631   23.3288 H   0  0  0  0  0  0
  -24.3596  -36.8917   22.2046 H   0  0  0  0  0  0
  -23.7227  -37.6513   23.6653 H   0  0  0  0  0  0
  -26.0019  -31.6205   20.5804 H   0  0  0  0  0  0
  -26.8084  -30.9229   21.9583 H   0  0  0  0  0  0
  -28.0824  -29.1663   21.1737 H   0  0  0  0  0  0
  -26.1154  -25.9944   19.0151 H   0  0  0  0  0  0
  -23.9930  -27.2841   19.0370 H   0  0  0  0  0  0
  -23.7022  -30.5979   19.4043 H   0  0  0  0  0  0
  -22.7286  -29.2361   19.8739 H   0  0  0  0  0  0
  -25.1288  -36.1998   25.0834 H   0  0  0  0  0  0
  -20.9913  -28.3162   24.1479 H   0  0  0  0  0  0
  -20.5622  -26.2207   23.3610 H   0  0  0  0  0  0
  -21.6622  -26.7381   22.1237 H   0  0  0  0  0  0
  -19.6906  -25.6279   21.1210 H   0  0  0  0  0  0
  -19.6709  -27.3192   20.6749 H   0  0  0  0  0  0
  -17.4180  -26.6621   21.4003 H   0  0  0  0  0  0
  -18.0293  -26.0033   22.9003 H   0  0  0  0  0  0
  -19.7934  -30.7165   24.2333 H   0  0  0  0  0  0
  -17.5034  -31.6261   24.5112 H   0  0  0  0  0  0
  -15.5356  -30.2994   23.7626 H   0  0  0  0  0  0
  -15.8638  -28.0822   22.7068 H   0  0  0  0  0  0
  -24.5895  -30.7025   25.7796 H   0  0  0  0  0  0
  -24.8883  -32.2868   26.4858 H   0  0  0  0  0  0
  -25.8062  -30.8915   27.0225 H   0  0  0  0  0  0
  -26.2719  -29.6888   24.0995 H   0  0  0  0  0  0
  -27.4010  -29.7203   25.4340 H   0  0  0  0  0  0
  -27.8549  -30.4394   23.9046 H   0  0  0  0  0  0
  -27.2658  -33.3565   26.2084 H   0  0  0  0  0  0
  -28.3848  -32.6842   25.0311 H   0  0  0  0  0  0
  -28.0685  -31.8361   26.5354 H   0  0  0  0  0  0
  -28.2600  -38.0123   24.7524 H   0  0  0  0  0  0
  -28.1090  -36.2651   24.6264 H   0  0  0  0  0  0
  -27.2299  -37.1424   25.8857 H   0  0  0  0  0  0
  -20.9265  -29.8751   21.7042 H   0  0  0  0  0  0
  -26.0200  -38.2873   24.1450 H   0  0  0  0  0  0
  -33.9674  -20.2938   20.5163 H   0  0  0  0  0  0
  -33.4512  -22.0478   20.6513 H   0  0  0  0  0  0
  -33.6757  -21.9666   23.1264 H   0  0  0  0  0  0
  -34.2240  -20.2267   23.0493 H   0  0  0  0  0  0
  -28.8887  -20.3613   24.2319 H   0  0  0  0  0  0
  -30.4449  -20.9286   23.7989 H   0  0  0  0  0  0
  -30.2437  -21.1844   20.3904 H   0  0  0  0  0  0
  -28.6571  -20.6419   20.0500 H   0  0  0  0  0  0
  -27.4034  -25.6484   22.9162 H   0  0  0  0  0  0
  -27.3688  -24.7839   21.3419 H   0  0  0  0  0  0
  -30.1372  -24.9514   20.3956 H   0  0  0  0  0  0
  -30.9702  -25.8743   21.6925 H   0  0  0  0  0  0
  -29.2814  -22.8736   24.3951 H   0  0  0  0  0  0
  -27.8233  -22.4310   23.5447 H   0  0  0  0  0  0
  -27.6498  -22.5219   21.1955 H   0  0  0  0  0  0
  -28.9347  -23.1429   20.1893 H   0  0  0  0  0  0
  -28.2184  -19.8558   22.1398 H   0  0  0  0  0  0
  -31.5511  -21.4444   22.0625 H   0  0  0  0  0  0
  -29.6513  -24.9256   23.4335 H   0  0  0  0  0  0
  -29.0422  -27.2596   22.0635 H   0  0  0  0  0  0
  -27.7948  -17.6482   22.7536 H   0  0  0  0  0  0
  -27.9769  -16.3800   21.5680 H   0  0  0  0  0  0
  -27.7435  -18.0108   21.0181 H   0  0  0  0  0  0
  -35.6994  -17.3161   21.8416 H   0  0  0  0  0  0
  -34.5215  -16.5825   20.7555 H   0  0  0  0  0  0
  -34.4166  -16.3206   22.5135 H   0  0  0  0  0  0
  -29.2779  -15.0990   21.7732 H   0  0  0  0  0  0
  -30.3573  -22.9359   22.2086 H   0  0  0  0  0  0
  1 25  1  0  0  0
  1 30  2  0  0  0
  1 91  1  0  0  0
  2  3  1  0  0  0
  2 25  1  0  0  0
  2 94  1  0  0  0
  2 95  1  0  0  0
  3  4  1  0  0  0
  3 96  1  0  0  0
  3 97  1  0  0  0
  4  5  1  0  0  0
  4 98  1  0  0  0
  4 99  1  0  0  0
  5  6  1  0  0  0
  5 26  1  0  0  0
  5100  1  0  0  0
  6 25  1  0  0  0
  6101  1  0  0  0
  6102  1  0  0  0
  7  8  2  0  0  0
  7 26  1  0  0  0
  7 29  1  0  0  0
  8  9  1  0  0  0
  8 22  1  0  0  0
  9 10  1  0  0  0
  9 27  2  0  0  0
 10 11  2  0  0  0
 10 15  1  0  0  0
 11 12  1  0  0  0
 11103  1  0  0  0
 12 13  2  0  0  0
 12104  1  0  0  0
 13 14  1  0  0  0
 13 31  1  0  0  0
 14 15  2  0  0  0
 14105  1  0  0  0
 15106  1  0  0  0
 16 17  2  0  0  0
 16 21  1  0  0  0
 16 31  1  0  0  0
 17 18  1  0  0  0
 17107  1  0  0  0
 18 19  2  0  0  0
 18108  1  0  0  0
 19 20  1  0  0  0
 19 24  1  0  0  0
 20 21  2  0  0  0
 20109  1  0  0  0
 21 23  1  0  0  0
 22 28  1  0  0  0
 22 32  2  0  0  0
 26 27  1  0  0  0
 28110  1  0  0  0
 28111  1  0  0  0
 29112  1  0  0  0
 29113  1  0  0  0
 33 34  1  0  0  0
 33 66  1  0  0  0
 33 70  2  0  0  0
 34 36  1  0  0  0
 34 59  1  0  0  0
 34114  1  0  0  0
 35 44  2  0  0  0
 35 45  1  0  0  0
 35 68  1  0  0  0
 36 56  1  0  0  0
 36115  1  0  0  0
 37 39  1  0  0  0
 37 47  1  0  0  0
 37 66  1  0  0  0
 37116  1  0  0  0
 38 43  2  0  0  0
 38 46  1  0  0  0
 38 47  1  0  0  0
 39 64  1  0  0  0
 39 67  2  0  0  0
 40 52  1  0  0  0
 40 53  2  0  0  0
 40 58  1  0  0  0
 41117  1  0  0  0
 41118  1  0  0  0
 41119  1  0  0  0
 41 48  1  0  0  0
 42 43  1  0  0  0
 42 66  1  0  0  0
 42120  1  0  0  0
 42121  1  0  0  0
 43 44  1  0  0  0
 44122  1  0  0  0
 45 46  2  0  0  0
 45123  1  0  0  0
 46124  1  0  0  0
 47125  1  0  0  0
 47126  1  0  0  0
 48 56  1  0  0  0
 48 65  1  0  0  0
 48127  1  0  0  0
 49 50  1  0  0  0
 49 53  1  0  0  0
 49 64  1  0  0  0
 49128  1  0  0  0
 50 51  1  0  0  0
 50129  1  0  0  0
 50130  1  0  0  0
 51 52  1  0  0  0
 51131  1  0  0  0
 51132  1  0  0  0
 52133  1  0  0  0
 52134  1  0  0  0
 53 54  1  0  0  0
 54 55  2  0  0  0
 54135  1  0  0  0
 55 57  1  0  0  0
 55136  1  0  0  0
 56 69  2  0  0  0
 57 58  2  0  0  0
 57137  1  0  0  0
 58138  1  0  0  0
 59 60  1  0  0  0
 59 61  1  0  0  0
 59 62  1  0  0  0
 60139  1  0  0  0
 60140  1  0  0  0
 60141  1  0  0  0
 61142  1  0  0  0
 61143  1  0  0  0
 61144  1  0  0  0
 62145  1  0  0  0
 62146  1  0  0  0
 62147  1  0  0  0
 63 65  1  0  0  0
 63148  1  0  0  0
 63149  1  0  0  0
 63150  1  0  0  0
 64151  1  0  0  0
 65152  1  0  0  0
 68 87  1  0  0  0
 71 72  1  0  0  0
 71 73  2  0  0  0
 71 84  1  0  0  0
 72 75  2  0  0  0
 72 85  1  0  0  0
 73 74  1  0  0  0
 73 88  1  0  0  0
 74 90  2  0  0  0
 74 91  1  0  0  0
 75 90  1  0  0  0
 75 93  1  0  0  0
 76 77  1  0  0  0
 76 85  1  0  0  0
 76153  1  0  0  0
 76154  1  0  0  0
 77 85  1  0  0  0
 77155  1  0  0  0
 77156  1  0  0  0
 78 82  1  0  0  0
 78 84  1  0  0  0
 78157  1  0  0  0
 78158  1  0  0  0
 79 83  1  0  0  0
 79 84  1  0  0  0
 79159  1  0  0  0
 79160  1  0  0  0
 80 87  1  0  0  0
 80161  1  0  0  0
 80162  1  0  0  0
 80 86  1  0  0  0
 81 86  1  0  0  0
 81 87  1  0  0  0
 81163  1  0  0  0
 81164  1  0  0  0
 82165  1  0  0  0
 82166  1  0  0  0
 82 92  1  0  0  0
 83 92  1  0  0  0
 83167  1  0  0  0
 83168  1  0  0  0
 84169  1  0  0  0
 85170  1  0  0  0
 86 92  1  0  0  0
 86171  1  0  0  0
 87172  1  0  0  0
 88173  1  0  0  0
 88174  1  0  0  0
 88175  1  0  0  0
 89 93  1  0  0  0
 89176  1  0  0  0
 89177  1  0  0  0
 89178  1  0  0  0
 91179  1  0  0  0
 92180  1  0  0  0
M  CHG  1  92   1
M  ISO  4   1 100  68 101  87 101  91 100
M  END
> <chiral flag>
0

> <version>
0

> <s_m_source_file>
/data/baiqing/PycharmProjects/Reinvent-master-3.2/result/LINK_invent/BTK/process_docking_weight1_custom_sum_contain_oxygen_bond_distance_aromatic_linkinvent_7_9_3/rearranged_h_0172.sdf

> <i_m_source_file_index>
70

> <r_mmod_Potential_Energy-OPLS-2005>
-192.741058349609

> <r_mmod_Stretch_Energy-OPLS-2005>
43.8444404602051

> <r_mmod_Bend_Energy-OPLS-2005>
136.88020324707

> <r_mmod_Torsional_Energy-OPLS-2005>
325.894744873047

> <r_mmod_Improper_Torsional_Energy-OPLS-2005>
2.6402542591095

> <r_mmod_Van_der_Waal_Energy-OPLS-2005>
196.106002807617

> <r_mmod_Electrostatic_Energy-OPLS-2005>
-440.165893554688

> <r_mmod_Solvation_Energy-OPLS-2005>
-465.673522949219

> <b_mmod_Minimization_Converged-OPLS-2005>
0

> <r_mmod_RMS_Derivative-OPLS-2005>
2.31574177742004

$$$$
70
                    3D
 Structure written by MMmdl.
156165  0  0  1  0            999 V2000
  -30.4056  -15.3263   20.3635 C   0  0  0  0  0  0
  -30.4381  -12.8591   19.4711 C   0  0  0  0  0  0
  -29.5421  -12.5865   18.2393 C   0  0  0  0  0  0
  -28.0858  -12.3091   18.6653 C   0  0  0  0  0  0
  -27.6053  -13.2723   19.7849 C   0  0  2  0  0  0
  -28.6449  -13.4620   20.9024 C   0  0  0  0  0  0
  -25.2397  -13.8170   20.5667 C   0  0  0  0  0  0
  -24.1766  -13.0392   20.9207 C   0  0  0  0  0  0
  -24.6401  -11.6894   20.8673 C   0  0  0  0  0  0
  -23.9102  -10.4263   21.0346 C   0  0  0  0  0  0
  -24.3631   -9.4193   21.9124 C   0  0  0  0  0  0
  -23.6299   -8.2248   22.0717 C   0  0  0  0  0  0
  -22.4271   -8.0272   21.3529 C   0  0  0  0  0  0
  -21.9917   -9.0229   20.4616 C   0  0  0  0  0  0
  -22.7260  -10.2107   20.3002 C   0  0  0  0  0  0
  -21.6860   -6.0735   22.5290 C   0  0  0  0  0  0
  -21.4018   -6.5621   23.8237 C   0  0  0  0  0  0
  -21.3678   -5.6757   24.9186 C   0  0  0  0  0  0
  -21.6056   -4.3024   24.7221 C   0  0  0  0  0  0
  -21.8830   -3.8131   23.4333 C   0  0  0  0  0  0
  -21.9199   -4.6960   22.3405 C   0  0  0  0  0  0
  -22.7776  -13.5180   21.1896 C   0  0  0  0  0  0
  -22.1644   -4.2159   21.0980 F   0  0  0  0  0  0
  -21.5639   -3.4501   25.7727 F   0  0  0  0  0  0
  -29.8441  -14.0152   20.2429 N   0  0  0  0  0  0
  -26.2821  -12.9470   20.3013 N   0  0  0  0  0  0
  -25.9343  -11.6569   20.5539 N   0  0  0  0  0  0
  -22.0381  -12.8218   22.0450 N   0  0  0  0  0  0
  -25.4004  -15.1927   20.4162 N   0  0  0  0  0  0
  -31.6469  -15.2890   20.3402 O   0  0  0  0  0  0
  -21.6625   -6.8874   21.4253 O   0  0  0  0  0  0
  -22.3489  -14.5486   20.6714 O   0  0  0  0  0  0
  -24.6654  -31.8175   23.1645 C   0  0  0  0  0  0
  -25.9327  -32.4542   23.8168 C   0  0  1  0  0  0
  -27.2261  -26.8934   20.1845 C   0  0  0  0  0  0
  -25.5975  -33.8362   24.2091 N   0  0  0  0  0  0
  -23.4825  -30.4207   21.5151 C   0  0  2  0  0  0
  -24.9422  -28.8049   20.1125 C   0  0  0  0  0  0
  -22.7692  -29.4340   22.4772 C   0  0  0  0  0  0
  -18.0315  -28.1351   22.8517 C   0  0  0  0  0  0
  -24.1490  -36.7159   23.2671 C   0  0  0  0  0  0
  -26.0545  -30.6170   21.3996 C   0  0  0  0  0  0
  -26.1258  -29.2022   20.7451 C   0  0  0  0  0  0
  -27.2665  -28.2681   20.7512 C   0  0  0  0  0  0
  -26.0102  -26.6559   19.5091 C   0  0  0  0  0  0
  -24.9124  -27.5551   19.4748 C   0  0  0  0  0  0
  -23.7225  -29.7282   20.1447 C   0  0  0  0  0  0
  -25.4134  -36.2918   24.0306 C   0  0  1  0  0  0
  -20.5956  -28.3656   23.1205 C   0  0  2  0  0  0
  -20.6733  -26.9325   22.5365 C   0  0  0  0  0  0
  -19.5655  -26.6315   21.5196 C   0  0  0  0  0  0
  -18.1870  -26.7907   22.1639 C   0  0  0  0  0  0
  -19.1599  -28.8832   23.2846 C   0  0  0  0  0  0
  -18.9525  -30.1437   23.8869 C   0  0  0  0  0  0
  -17.6516  -30.6546   24.0541 C   0  0  0  0  0  0
  -25.9097  -34.9314   23.5015 C   0  0  0  0  0  0
  -16.5398  -29.9051   23.6355 C   0  0  0  0  0  0
  -16.7302  -28.6453   23.0442 C   0  0  0  0  0  0
  -26.4595  -31.6514   25.0718 C   0  0  0  0  0  0
  -25.3730  -31.3748   26.1376 C   0  0  0  0  0  0
  -27.0532  -30.2882   24.6482 C   0  0  0  0  0  0
  -27.6077  -32.4374   25.7533 C   0  0  0  0  0  0
  -27.5549  -37.1714   24.8468 C   0  0  0  0  0  0
  -21.4346  -29.2935   22.3549 N   0  0  0  0  0  0
  -26.4244  -37.3671   23.9419 N   0  0  0  0  0  0
  -24.7557  -30.9830   22.0798 N   0  0  0  0  0  0
  -23.4250  -28.7949   23.3028 O   0  0  0  0  0  0
  -28.2344  -25.7786   20.2073 O   0  0  0  0  0  0
  -26.5716  -34.8856   22.4618 O   0  0  0  0  0  0
  -23.5723  -32.1138   23.6723 O   0  0  0  0  0  0
  -28.3302  -19.2953   22.3630 C   0  0  0  0  0  0
  -28.1935  -20.5824   21.7678 C   0  0  0  0  0  0
  -28.8309  -20.8734   20.5286 C   0  0  0  0  0  0
  -29.3714  -19.5294   19.9424 C   0  0  0  0  0  0
  -29.4110  -18.1191   20.6023 C   0  0  0  0  0  0
  -27.5975  -22.4540   23.6192 C   0  0  0  0  0  0
  -26.5113  -21.4062   23.7050 C   0  0  0  0  0  0
  -27.2662  -21.6059   22.4026 C   0  0  0  0  0  0
  -29.9144  -19.5971   18.5258 C   0  0  0  0  0  0
  -28.9328  -22.5817   20.0324 C   0  0  0  0  0  0
  -27.9929  -24.1277   20.3392 C   0  0  0  0  0  0
  -28.9207  -18.1782   21.8553 N   0  0  0  0  0  0
  -29.6807  -16.6046   20.0654 N   0  0  0  0  0  0
  -31.4503  -13.0937   19.1383 H   0  0  0  0  0  0
  -30.5166  -11.9512   20.0726 H   0  0  0  0  0  0
  -29.9307  -11.7432   17.6652 H   0  0  0  0  0  0
  -29.5808  -13.4451   17.5646 H   0  0  0  0  0  0
  -28.0418  -11.2749   19.0121 H   0  0  0  0  0  0
  -27.4228  -12.3691   17.7998 H   0  0  0  0  0  0
  -27.5119  -14.2405   19.2892 H   0  0  0  0  0  0
  -28.8366  -12.5193   21.4149 H   0  0  0  0  0  0
  -28.2661  -14.1609   21.6484 H   0  0  0  0  0  0
  -25.2790   -9.5682   22.4679 H   0  0  0  0  0  0
  -24.0015   -7.4654   22.7453 H   0  0  0  0  0  0
  -21.0849   -8.8735   19.8953 H   0  0  0  0  0  0
  -22.3684  -10.9615   19.6084 H   0  0  0  0  0  0
  -21.1972   -7.6114   23.9755 H   0  0  0  0  0  0
  -21.1497   -6.0458   25.9105 H   0  0  0  0  0  0
  -22.0586   -2.7588   23.2820 H   0  0  0  0  0  0
  -22.3925  -11.9927   22.4975 H   0  0  0  0  0  0
  -21.0962  -13.1237   22.2513 H   0  0  0  0  0  0
  -24.6126  -15.8234   20.5271 H   0  0  0  0  0  0
  -26.2562  -15.6670   20.1584 H   0  0  0  0  0  0
  -26.7417  -32.5084   23.0911 H   0  0  0  0  0  0
  -25.0031  -33.9453   25.0172 H   0  0  0  0  0  0
  -22.7958  -31.2518   21.3376 H   0  0  0  0  0  0
  -23.3754  -35.9472   23.3271 H   0  0  0  0  0  0
  -24.3571  -36.8882   22.2095 H   0  0  0  0  0  0
  -23.7234  -37.6324   23.6770 H   0  0  0  0  0  0
  -26.2392  -31.3618   20.6231 H   0  0  0  0  0  0
  -26.9150  -30.6795   22.0557 H   0  0  0  0  0  0
  -28.1716  -28.5788   21.2534 H   0  0  0  0  0  0
  -25.8803  -25.7014   19.0181 H   0  0  0  0  0  0
  -24.0148  -27.2446   18.9635 H   0  0  0  0  0  0
  -23.8693  -30.4944   19.3837 H   0  0  0  0  0  0
  -22.8351  -29.1722   19.8377 H   0  0  0  0  0  0
  -25.1319  -36.1691   25.0779 H   0  0  0  0  0  0
  -21.0077  -28.3197   24.1321 H   0  0  0  0  0  0
  -20.5551  -26.2269   23.3599 H   0  0  0  0  0  0
  -21.6581  -26.7168   22.1190 H   0  0  0  0  0  0
  -19.6708  -25.6219   21.1205 H   0  0  0  0  0  0
  -19.6570  -27.3119   20.6733 H   0  0  0  0  0  0
  -17.4096  -26.6714   21.4078 H   0  0  0  0  0  0
  -18.0216  -26.0055   22.9043 H   0  0  0  0  0  0
  -19.7999  -30.7214   24.2293 H   0  0  0  0  0  0
  -17.5050  -31.6196   24.5190 H   0  0  0  0  0  0
  -15.5390  -30.2921   23.7725 H   0  0  0  0  0  0
  -15.8688  -28.0732   22.7279 H   0  0  0  0  0  0
  -24.5914  -30.7096   25.7686 H   0  0  0  0  0  0
  -24.8907  -32.2935   26.4720 H   0  0  0  0  0  0
  -25.7971  -30.8971   27.0214 H   0  0  0  0  0  0
  -26.3243  -29.6542   24.1414 H   0  0  0  0  0  0
  -27.3989  -29.7246   25.5160 H   0  0  0  0  0  0
  -27.9197  -30.4086   23.9982 H   0  0  0  0  0  0
  -27.2627  -33.3734   26.1941 H   0  0  0  0  0  0
  -28.3978  -32.6857   25.0436 H   0  0  0  0  0  0
  -28.0644  -31.8617   26.5597 H   0  0  0  0  0  0
  -28.2504  -38.0073   24.7521 H   0  0  0  0  0  0
  -28.1099  -36.2567   24.6258 H   0  0  0  0  0  0
  -27.2247  -37.1318   25.8875 H   0  0  0  0  0  0
  -20.9547  -29.8647   21.6739 H   0  0  0  0  0  0
  -26.0063  -38.2690   24.1487 H   0  0  0  0  0  0
  -27.8803  -19.1112   23.3229 H   0  0  0  0  0  0
  -28.5084  -22.2551   24.1864 H   0  0  0  0  0  0
  -27.2585  -23.4919   23.6366 H   0  0  0  0  0  0
  -25.4733  -21.7361   23.7022 H   0  0  0  0  0  0
  -26.7148  -20.5769   24.3786 H   0  0  0  0  0  0
  -26.6373  -22.0310   21.6230 H   0  0  0  0  0  0
  -29.1275  -19.8824   17.8265 H   0  0  0  0  0  0
  -30.2957  -18.6268   18.2034 H   0  0  0  0  0  0
  -30.7207  -20.3255   18.4484 H   0  0  0  0  0  0
  -29.1055  -22.5590   18.9554 H   0  0  0  0  0  0
  -29.9164  -22.8307   20.4311 H   0  0  0  0  0  0
  -27.7659  -24.0723   21.3982 H   0  0  0  0  0  0
  -27.0349  -23.9498   19.8551 H   0  0  0  0  0  0
  -28.9421  -16.3555   19.4271 H   0  0  0  0  0  0
  1 25  1  0  0  0
  1 30  2  0  0  0
  1 83  1  0  0  0
  2  3  1  0  0  0
  2 25  1  0  0  0
  2 84  1  0  0  0
  2 85  1  0  0  0
  3  4  1  0  0  0
  3 86  1  0  0  0
  3 87  1  0  0  0
  4  5  1  0  0  0
  4 88  1  0  0  0
  4 89  1  0  0  0
  5  6  1  0  0  0
  5 26  1  0  0  0
  5 90  1  0  0  0
  6 25  1  0  0  0
  6 91  1  0  0  0
  6 92  1  0  0  0
  7  8  2  0  0  0
  7 26  1  0  0  0
  7 29  1  0  0  0
  8  9  1  0  0  0
  8 22  1  0  0  0
  9 10  1  0  0  0
  9 27  2  0  0  0
 10 11  2  0  0  0
 10 15  1  0  0  0
 11 12  1  0  0  0
 11 93  1  0  0  0
 12 13  2  0  0  0
 12 94  1  0  0  0
 13 14  1  0  0  0
 13 31  1  0  0  0
 14 15  2  0  0  0
 14 95  1  0  0  0
 15 96  1  0  0  0
 16 17  2  0  0  0
 16 21  1  0  0  0
 16 31  1  0  0  0
 17 18  1  0  0  0
 17 97  1  0  0  0
 18 19  2  0  0  0
 18 98  1  0  0  0
 19 20  1  0  0  0
 19 24  1  0  0  0
 20 21  2  0  0  0
 20 99  1  0  0  0
 21 23  1  0  0  0
 22 28  1  0  0  0
 22 32  2  0  0  0
 26 27  1  0  0  0
 28100  1  0  0  0
 28101  1  0  0  0
 29102  1  0  0  0
 29103  1  0  0  0
 33 34  1  0  0  0
 33 66  1  0  0  0
 33 70  2  0  0  0
 34 36  1  0  0  0
 34 59  1  0  0  0
 34104  1  0  0  0
 35 44  2  0  0  0
 35 45  1  0  0  0
 35 68  1  0  0  0
 36 56  1  0  0  0
 36105  1  0  0  0
 37 39  1  0  0  0
 37 47  1  0  0  0
 37 66  1  0  0  0
 37106  1  0  0  0
 38 43  2  0  0  0
 38 46  1  0  0  0
 38 47  1  0  0  0
 39 64  1  0  0  0
 39 67  2  0  0  0
 40 52  1  0  0  0
 40 53  2  0  0  0
 40 58  1  0  0  0
 41107  1  0  0  0
 41108  1  0  0  0
 41109  1  0  0  0
 41 48  1  0  0  0
 42 43  1  0  0  0
 42 66  1  0  0  0
 42110  1  0  0  0
 42111  1  0  0  0
 43 44  1  0  0  0
 44112  1  0  0  0
 45 46  2  0  0  0
 45113  1  0  0  0
 46114  1  0  0  0
 47115  1  0  0  0
 47116  1  0  0  0
 48 56  1  0  0  0
 48 65  1  0  0  0
 48117  1  0  0  0
 49 50  1  0  0  0
 49 53  1  0  0  0
 49 64  1  0  0  0
 49118  1  0  0  0
 50 51  1  0  0  0
 50119  1  0  0  0
 50120  1  0  0  0
 51 52  1  0  0  0
 51121  1  0  0  0
 51122  1  0  0  0
 52123  1  0  0  0
 52124  1  0  0  0
 53 54  1  0  0  0
 54 55  2  0  0  0
 54125  1  0  0  0
 55 57  1  0  0  0
 55126  1  0  0  0
 56 69  2  0  0  0
 57 58  2  0  0  0
 57127  1  0  0  0
 58128  1  0  0  0
 59 60  1  0  0  0
 59 61  1  0  0  0
 59 62  1  0  0  0
 60129  1  0  0  0
 60130  1  0  0  0
 60131  1  0  0  0
 61132  1  0  0  0
 61133  1  0  0  0
 61134  1  0  0  0
 62135  1  0  0  0
 62136  1  0  0  0
 62137  1  0  0  0
 63 65  1  0  0  0
 63138  1  0  0  0
 63139  1  0  0  0
 63140  1  0  0  0
 64141  1  0  0  0
 65142  1  0  0  0
 68 81  1  0  0  0
 71 72  2  0  0  0
 71 82  1  0  0  0
 71143  1  0  0  0
 72 73  1  0  0  0
 72 78  1  0  0  0
 73 74  2  0  0  0
 73 80  1  0  0  0
 74 75  1  0  0  0
 74 79  1  0  0  0
 75 82  2  0  0  0
 75 83  1  0  0  0
 76 77  1  0  0  0
 76 78  1  0  0  0
 76144  1  0  0  0
 76145  1  0  0  0
 77 78  1  0  0  0
 77146  1  0  0  0
 77147  1  0  0  0
 78148  1  0  0  0
 79149  1  0  0  0
 79150  1  0  0  0
 79151  1  0  0  0
 80 81  1  0  0  0
 80152  1  0  0  0
 80153  1  0  0  0
 81154  1  0  0  0
 81155  1  0  0  0
 83156  1  0  0  0
M  ISO  4   1 100  68 101  81 101  83 100
M  END
> <chiral flag>
0

> <version>
0

> <s_m_source_file>
/data/baiqing/PycharmProjects/Reinvent-master-3.2/result/LINK_invent/BTK/process_docking_weight1_custom_sum_contain_oxygen_bond_distance_aromatic_linkinvent_7_9_3/rearranged_h_0172.sdf

> <i_m_source_file_index>
71

> <r_mmod_Potential_Energy-OPLS-2005>
1399.4990234375

> <r_mmod_Stretch_Energy-OPLS-2005>
659.5673828125

> <r_mmod_Bend_Energy-OPLS-2005>
474.748626708984

> <r_mmod_Torsional_Energy-OPLS-2005>
314.233123779297

> <r_mmod_Improper_Torsional_Energy-OPLS-2005>
16.9156608581543

> <r_mmod_Van_der_Waal_Energy-OPLS-2005>
123.316673278809

> <r_mmod_Electrostatic_Energy-OPLS-2005>
-484.714233398438

> <r_mmod_Solvation_Energy-OPLS-2005>
-224.955688476562

> <b_mmod_Minimization_Converged-OPLS-2005>
0

> <r_mmod_RMS_Derivative-OPLS-2005>
5.41359090805054

$$$$
71
                    3D
 Structure written by MMmdl.
172182  0  0  1  0            999 V2000
  -30.7147  -14.7308   20.4706 C   0  0  0  0  0  0
  -30.4055  -12.4676   19.4604 C   0  0  0  0  0  0
  -29.4885  -12.5011   18.2233 C   0  0  0  0  0  0
  -28.0206  -12.3285   18.6501 C   0  0  0  0  0  0
  -27.6318  -13.2409   19.8447 C   0  0  2  0  0  0
  -28.6883  -13.2123   20.9723 C   0  0  0  0  0  0
  -25.2457  -13.8217   20.5724 C   0  0  0  0  0  0
  -24.1766  -13.0442   20.9230 C   0  0  0  0  0  0
  -24.6380  -11.6925   20.8780 C   0  0  0  0  0  0
  -23.9067  -10.4293   21.0421 C   0  0  0  0  0  0
  -24.3617   -9.4205   21.9196 C   0  0  0  0  0  0
  -23.6292   -8.2237   22.0756 C   0  0  0  0  0  0
  -22.4273   -8.0280   21.3546 C   0  0  0  0  0  0
  -21.9911   -9.0254   20.4650 C   0  0  0  0  0  0
  -22.7240  -10.2135   20.3067 C   0  0  0  0  0  0
  -21.6850   -6.0734   22.5277 C   0  0  0  0  0  0
  -21.4010   -6.5638   23.8212 C   0  0  0  0  0  0
  -21.3658   -5.6792   24.9175 C   0  0  0  0  0  0
  -21.6043   -4.3055   24.7224 C   0  0  0  0  0  0
  -21.8817   -3.8145   23.4346 C   0  0  0  0  0  0
  -21.9189   -4.6960   22.3400 C   0  0  0  0  0  0
  -22.7786  -13.5215   21.1870 C   0  0  0  0  0  0
  -22.1659   -4.2145   21.0978 F   0  0  0  0  0  0
  -21.5633   -3.4540   25.7737 F   0  0  0  0  0  0
  -29.9695  -13.5723   20.3543 N   0  0  0  0  0  0
  -26.2897  -12.9450   20.3327 N   0  0  0  0  0  0
  -25.9317  -11.6580   20.5805 N   0  0  0  0  0  0
  -22.0430  -12.8213   22.0432 N   0  0  0  0  0  0
  -25.4106  -15.1941   20.4109 N   0  0  0  0  0  0
  -31.9229  -14.6339   20.2348 O   0  0  0  0  0  0
  -21.6639   -6.8876   21.4238 O   0  0  0  0  0  0
  -22.3470  -14.5518   20.6713 O   0  0  0  0  0  0
  -24.6324  -31.8570   23.2026 C   0  0  0  0  0  0
  -25.9154  -32.4761   23.8362 C   0  0  1  0  0  0
  -27.1995  -27.2562   20.1199 C   0  0  0  0  0  0
  -25.5957  -33.8565   24.2278 N   0  0  0  0  0  0
  -23.4289  -30.4847   21.5467 C   0  0  2  0  0  0
  -24.8739  -28.9447   20.1067 C   0  0  0  0  0  0
  -22.7512  -29.4612   22.4907 C   0  0  0  0  0  0
  -18.0292  -28.1382   22.8480 C   0  0  0  0  0  0
  -24.1492  -36.7277   23.2632 C   0  0  0  0  0  0
  -25.9795  -30.7661   21.3892 C   0  0  0  0  0  0
  -26.0492  -29.3921   20.7249 C   0  0  0  0  0  0
  -27.2184  -28.5594   20.7261 C   0  0  0  0  0  0
  -26.0108  -26.9085   19.4363 C   0  0  0  0  0  0
  -24.8603  -27.7103   19.4503 C   0  0  0  0  0  0
  -23.6467  -29.8308   20.1597 C   0  0  0  0  0  0
  -25.4115  -36.3069   24.0328 C   0  0  1  0  0  0
  -20.5902  -28.3696   23.1256 C   0  0  2  0  0  0
  -20.6780  -26.9413   22.5397 C   0  0  0  0  0  0
  -19.5756  -26.6378   21.5202 C   0  0  0  0  0  0
  -18.1936  -26.7923   22.1617 C   0  0  0  0  0  0
  -19.1548  -28.8854   23.2864 C   0  0  0  0  0  0
  -18.9468  -30.1455   23.8886 C   0  0  0  0  0  0
  -17.6470  -30.6587   24.0554 C   0  0  0  0  0  0
  -25.9063  -34.9442   23.5098 C   0  0  0  0  0  0
  -16.5357  -29.9080   23.6332 C   0  0  0  0  0  0
  -16.7278  -28.6497   23.0358 C   0  0  0  0  0  0
  -26.4510  -31.6581   25.0750 C   0  0  0  0  0  0
  -25.3725  -31.3748   26.1465 C   0  0  0  0  0  0
  -27.0346  -30.2984   24.6257 C   0  0  0  0  0  0
  -27.6069  -32.4316   25.7522 C   0  0  0  0  0  0
  -27.5592  -37.1779   24.8450 C   0  0  0  0  0  0
  -21.4218  -29.3047   22.3650 N   0  0  0  0  0  0
  -26.4278  -37.3780   23.9431 N   0  0  0  0  0  0
  -24.6994  -31.0531   22.1017 N   0  0  0  0  0  0
  -23.4207  -28.8128   23.2989 O   0  0  0  0  0  0
  -28.2343  -26.2877   20.1894 O   0  0  0  0  0  0
  -26.5629  -34.8914   22.4662 O   0  0  0  0  0  0
  -23.5469  -32.1398   23.7310 O   0  0  0  0  0  0
  -29.0874  -22.9771   21.7295 C   0  0  0  0  0  0
  -29.4492  -21.5995   21.8260 C   0  0  0  0  0  0
  -28.5678  -23.5325   20.5305 C   0  0  0  0  0  0
  -29.2864  -20.7126   20.7348 C   0  0  0  0  0  0
  -28.5156  -22.5865   19.4481 C   0  0  0  0  0  0
  -28.6831  -23.8277   16.1783 C   0  0  0  0  0  0
  -28.3543  -24.3902   17.5544 C   0  0  0  0  0  0
  -28.5214  -18.0818   20.9307 C   0  0  0  0  0  0
  -30.5784  -18.5859   19.7709 C   0  0  0  0  0  0
  -28.9780  -16.5678   21.1839 C   0  0  0  0  0  0
  -31.1156  -17.1405   20.0716 C   0  0  0  0  0  0
  -29.6496  -19.1570   20.8539 C   0  0  0  0  0  0
  -28.9446  -22.4942   16.8797 C   0  0  1  0  0  0
  -28.0169  -22.9608   18.0447 C   0  0  1  0  0  0
  -28.6586  -21.2012   16.1207 C   0  0  0  0  0  0
  -26.5412  -22.5538   17.9388 C   0  0  0  0  0  0
  -27.7608  -24.9120   20.5906 C   0  0  0  0  0  0
  -28.8283  -21.2448   19.5694 N   0  0  0  0  0  0
  -30.1666  -16.0327   20.4464 N   0  0  0  0  0  0
  -31.4455  -12.5518   19.1409 H   0  0  0  0  0  0
  -30.3348  -11.5053   19.9706 H   0  0  0  0  0  0
  -29.7700  -11.7163   17.5201 H   0  0  0  0  0  0
  -29.6115  -13.4478   17.6947 H   0  0  0  0  0  0
  -27.8826  -11.2822   18.9252 H   0  0  0  0  0  0
  -27.3561  -12.5097   17.8041 H   0  0  0  0  0  0
  -27.6117  -14.2535   19.4426 H   0  0  0  0  0  0
  -28.7432  -12.2221   21.4273 H   0  0  0  0  0  0
  -28.4317  -13.8957   21.7812 H   0  0  0  0  0  0
  -25.2754   -9.5682   22.4782 H   0  0  0  0  0  0
  -23.9998   -7.4626   22.7475 H   0  0  0  0  0  0
  -21.0841   -8.8774   19.8959 H   0  0  0  0  0  0
  -22.3694  -10.9678   19.6185 H   0  0  0  0  0  0
  -21.2004   -7.6148   23.9713 H   0  0  0  0  0  0
  -21.1486   -6.0525   25.9079 H   0  0  0  0  0  0
  -22.0599   -2.7606   23.2845 H   0  0  0  0  0  0
  -22.4040  -11.9880   22.4825 H   0  0  0  0  0  0
  -21.1051  -13.1248   22.2635 H   0  0  0  0  0  0
  -24.6413  -15.8453   20.5252 H   0  0  0  0  0  0
  -26.2577  -15.6361   20.0788 H   0  0  0  0  0  0
  -26.7218  -32.5405   23.1099 H   0  0  0  0  0  0
  -25.0110  -33.9714   25.0426 H   0  0  0  0  0  0
  -22.7256  -31.3082   21.4058 H   0  0  0  0  0  0
  -23.3776  -35.9584   23.3242 H   0  0  0  0  0  0
  -24.3598  -36.8947   22.2057 H   0  0  0  0  0  0
  -23.7208  -37.6448   23.6683 H   0  0  0  0  0  0
  -26.1261  -31.5292   20.6236 H   0  0  0  0  0  0
  -26.8546  -30.8069   22.0261 H   0  0  0  0  0  0
  -28.1114  -28.8894   21.2385 H   0  0  0  0  0  0
  -25.9283  -25.9881   18.8814 H   0  0  0  0  0  0
  -23.9679  -27.3719   18.9413 H   0  0  0  0  0  0
  -23.7721  -30.6123   19.4095 H   0  0  0  0  0  0
  -22.7649  -29.2663   19.8509 H   0  0  0  0  0  0
  -25.1286  -36.1907   25.0817 H   0  0  0  0  0  0
  -20.9992  -28.3264   24.1377 H   0  0  0  0  0  0
  -20.5664  -26.2308   23.3602 H   0  0  0  0  0  0
  -21.6648  -26.7425   22.1194 H   0  0  0  0  0  0
  -19.6917  -25.6283   21.1244 H   0  0  0  0  0  0
  -19.6698  -27.3178   20.6723 H   0  0  0  0  0  0
  -17.4204  -26.6660   21.4021 H   0  0  0  0  0  0
  -18.0348  -26.0066   22.9016 H   0  0  0  0  0  0
  -19.7949  -30.7271   24.2248 H   0  0  0  0  0  0
  -17.5027  -31.6270   24.5148 H   0  0  0  0  0  0
  -15.5357  -30.2981   23.7670 H   0  0  0  0  0  0
  -15.8674  -28.0812   22.7085 H   0  0  0  0  0  0
  -24.5896  -30.7104   25.7791 H   0  0  0  0  0  0
  -24.8927  -32.2924   26.4877 H   0  0  0  0  0  0
  -25.8030  -30.8927   27.0250 H   0  0  0  0  0  0
  -26.2933  -29.6739   24.1256 H   0  0  0  0  0  0
  -27.3972  -29.7246   25.4795 H   0  0  0  0  0  0
  -27.8845  -30.4233   23.9545 H   0  0  0  0  0  0
  -27.2684  -33.3624   26.2087 H   0  0  0  0  0  0
  -28.3892  -32.6858   25.0355 H   0  0  0  0  0  0
  -28.0723  -31.8443   26.5448 H   0  0  0  0  0  0
  -28.2542  -38.0144   24.7592 H   0  0  0  0  0  0
  -28.1155  -36.2680   24.6144 H   0  0  0  0  0  0
  -27.2328  -37.1259   25.8852 H   0  0  0  0  0  0
  -20.9398  -29.8795   21.6881 H   0  0  0  0  0  0
  -26.0149  -38.2836   24.1495 H   0  0  0  0  0  0
  -29.1403  -23.5900   22.6177 H   0  0  0  0  0  0
  -29.8143  -21.2186   22.7701 H   0  0  0  0  0  0
  -29.5540  -24.2729   15.6955 H   0  0  0  0  0  0
  -27.8211  -23.8023   15.5094 H   0  0  0  0  0  0
  -27.5274  -25.0974   17.5648 H   0  0  0  0  0  0
  -29.2399  -24.8108   18.0344 H   0  0  0  0  0  0
  -27.8211  -18.3676   21.7165 H   0  0  0  0  0  0
  -27.9459  -18.1251   20.0055 H   0  0  0  0  0  0
  -30.0609  -18.5953   18.8111 H   0  0  0  0  0  0
  -31.4305  -19.2565   19.6521 H   0  0  0  0  0  0
  -28.1185  -15.9356   20.9797 H   0  0  0  0  0  0
  -29.1891  -16.4450   22.2472 H   0  0  0  0  0  0
  -31.8452  -17.2214   20.8799 H   0  0  0  0  0  0
  -31.6842  -16.8428   19.1882 H   0  0  0  0  0  0
  -30.1984  -19.0831   21.7938 H   0  0  0  0  0  0
  -29.9788  -22.4970   17.2349 H   0  0  0  0  0  0
  -27.6643  -21.2027   15.6749 H   0  0  0  0  0  0
  -28.7236  -20.3334   16.7776 H   0  0  0  0  0  0
  -29.3761  -21.0522   15.3143 H   0  0  0  0  0  0
  -25.9273  -23.0626   18.6809 H   0  0  0  0  0  0
  -26.4147  -21.4822   18.0964 H   0  0  0  0  0  0
  -26.1229  -22.7864   16.9602 H   0  0  0  0  0  0
  -27.4526  -25.0240   21.6312 H   0  0  0  0  0  0
  -26.8364  -24.6445   20.0929 H   0  0  0  0  0  0
  1 25  1  0  0  0
  1 30  2  0  0  0
  1 89  1  0  0  0
  2  3  1  0  0  0
  2 25  1  0  0  0
  2 90  1  0  0  0
  2 91  1  0  0  0
  3  4  1  0  0  0
  3 92  1  0  0  0
  3 93  1  0  0  0
  4  5  1  0  0  0
  4 94  1  0  0  0
  4 95  1  0  0  0
  5  6  1  0  0  0
  5 26  1  0  0  0
  5 96  1  0  0  0
  6 25  1  0  0  0
  6 97  1  0  0  0
  6 98  1  0  0  0
  7  8  2  0  0  0
  7 26  1  0  0  0
  7 29  1  0  0  0
  8  9  1  0  0  0
  8 22  1  0  0  0
  9 10  1  0  0  0
  9 27  2  0  0  0
 10 11  2  0  0  0
 10 15  1  0  0  0
 11 12  1  0  0  0
 11 99  1  0  0  0
 12 13  2  0  0  0
 12100  1  0  0  0
 13 14  1  0  0  0
 13 31  1  0  0  0
 14 15  2  0  0  0
 14101  1  0  0  0
 15102  1  0  0  0
 16 17  2  0  0  0
 16 21  1  0  0  0
 16 31  1  0  0  0
 17 18  1  0  0  0
 17103  1  0  0  0
 18 19  2  0  0  0
 18104  1  0  0  0
 19 20  1  0  0  0
 19 24  1  0  0  0
 20 21  2  0  0  0
 20105  1  0  0  0
 21 23  1  0  0  0
 22 28  1  0  0  0
 22 32  2  0  0  0
 26 27  1  0  0  0
 28106  1  0  0  0
 28107  1  0  0  0
 29108  1  0  0  0
 29109  1  0  0  0
 33 34  1  0  0  0
 33 66  1  0  0  0
 33 70  2  0  0  0
 34 36  1  0  0  0
 34 59  1  0  0  0
 34110  1  0  0  0
 35 44  2  0  0  0
 35 45  1  0  0  0
 35 68  1  0  0  0
 36 56  1  0  0  0
 36111  1  0  0  0
 37 39  1  0  0  0
 37 47  1  0  0  0
 37 66  1  0  0  0
 37112  1  0  0  0
 38 43  2  0  0  0
 38 46  1  0  0  0
 38 47  1  0  0  0
 39 64  1  0  0  0
 39 67  2  0  0  0
 40 52  1  0  0  0
 40 53  2  0  0  0
 40 58  1  0  0  0
 41113  1  0  0  0
 41114  1  0  0  0
 41115  1  0  0  0
 41 48  1  0  0  0
 42 43  1  0  0  0
 42 66  1  0  0  0
 42116  1  0  0  0
 42117  1  0  0  0
 43 44  1  0  0  0
 44118  1  0  0  0
 45 46  2  0  0  0
 45119  1  0  0  0
 46120  1  0  0  0
 47121  1  0  0  0
 47122  1  0  0  0
 48 56  1  0  0  0
 48 65  1  0  0  0
 48123  1  0  0  0
 49 50  1  0  0  0
 49 53  1  0  0  0
 49 64  1  0  0  0
 49124  1  0  0  0
 50 51  1  0  0  0
 50125  1  0  0  0
 50126  1  0  0  0
 51 52  1  0  0  0
 51127  1  0  0  0
 51128  1  0  0  0
 52129  1  0  0  0
 52130  1  0  0  0
 53 54  1  0  0  0
 54 55  2  0  0  0
 54131  1  0  0  0
 55 57  1  0  0  0
 55132  1  0  0  0
 56 69  2  0  0  0
 57 58  2  0  0  0
 57133  1  0  0  0
 58134  1  0  0  0
 59 60  1  0  0  0
 59 61  1  0  0  0
 59 62  1  0  0  0
 60135  1  0  0  0
 60136  1  0  0  0
 60137  1  0  0  0
 61138  1  0  0  0
 61139  1  0  0  0
 61140  1  0  0  0
 62141  1  0  0  0
 62142  1  0  0  0
 62143  1  0  0  0
 63 65  1  0  0  0
 63144  1  0  0  0
 63145  1  0  0  0
 63146  1  0  0  0
 64147  1  0  0  0
 65148  1  0  0  0
 68 87  1  0  0  0
 71 72  2  0  0  0
 71 73  1  0  0  0
 71149  1  0  0  0
 72 74  1  0  0  0
 72150  1  0  0  0
 73 75  2  0  0  0
 73 87  1  0  0  0
 74 88  2  0  0  0
 74 82  1  0  0  0
 75 84  1  0  0  0
 75 88  1  0  0  0
 76 77  1  0  0  0
 76 83  1  0  0  0
 76151  1  0  0  0
 76152  1  0  0  0
 77 84  1  0  0  0
 77153  1  0  0  0
 77154  1  0  0  0
 78 80  1  0  0  0
 78 82  1  0  0  0
 78155  1  0  0  0
 78156  1  0  0  0
 79 81  1  0  0  0
 79 82  1  0  0  0
 79157  1  0  0  0
 79158  1  0  0  0
 80 89  1  0  0  0
 80159  1  0  0  0
 80160  1  0  0  0
 81 89  1  0  0  0
 81161  1  0  0  0
 81162  1  0  0  0
 82163  1  0  0  0
 83 84  1  0  0  0
 83 85  1  0  0  0
 83164  1  0  0  0
 84 86  1  0  0  0
 85165  1  0  0  0
 85166  1  0  0  0
 85167  1  0  0  0
 86168  1  0  0  0
 86169  1  0  0  0
 86170  1  0  0  0
 87171  1  0  0  0
 87172  1  0  0  0
M  ISO  4   1 100  68 101  87 101  89 100
M  END
> <chiral flag>
0

> <version>
0

> <s_m_source_file>
/data/baiqing/PycharmProjects/Reinvent-master-3.2/result/LINK_invent/BTK/process_docking_weight1_custom_sum_contain_oxygen_bond_distance_aromatic_linkinvent_7_9_3/rearranged_h_0172.sdf

> <i_m_source_file_index>
72

> <r_mmod_Potential_Energy-OPLS-2005>
338.348724365234

> <r_mmod_Stretch_Energy-OPLS-2005>
122.799072265625

> <r_mmod_Bend_Energy-OPLS-2005>
237.18798828125

> <r_mmod_Torsional_Energy-OPLS-2005>
339.154876708984

> <r_mmod_Improper_Torsional_Energy-OPLS-2005>
16.0946369171143

> <r_mmod_Van_der_Waal_Energy-OPLS-2005>
154.695907592773

> <r_mmod_Electrostatic_Energy-OPLS-2005>
-431.22265625

> <r_mmod_Solvation_Energy-OPLS-2005>
-201.359420776367

> <b_mmod_Minimization_Converged-OPLS-2005>
0

> <r_mmod_RMS_Derivative-OPLS-2005>
0.892944872379303

$$$$
72
                    3D
 Structure written by MMmdl.
166176  0  0  1  0            999 V2000
  -30.6432  -14.7662   20.4622 C   0  0  0  0  0  0
  -30.4188  -12.4792   19.4668 C   0  0  0  0  0  0
  -29.4997  -12.5092   18.2283 C   0  0  0  0  0  0
  -28.0280  -12.3329   18.6475 C   0  0  0  0  0  0
  -27.6340  -13.2394   19.8451 C   0  0  2  0  0  0
  -28.6820  -13.1898   20.9744 C   0  0  0  0  0  0
  -25.2488  -13.8218   20.5723 C   0  0  0  0  0  0
  -24.1785  -13.0450   20.9213 C   0  0  0  0  0  0
  -24.6387  -11.6929   20.8752 C   0  0  0  0  0  0
  -23.9073  -10.4299   21.0409 C   0  0  0  0  0  0
  -24.3624   -9.4213   21.9185 C   0  0  0  0  0  0
  -23.6299   -8.2247   22.0755 C   0  0  0  0  0  0
  -22.4282   -8.0283   21.3544 C   0  0  0  0  0  0
  -21.9919   -9.0257   20.4646 C   0  0  0  0  0  0
  -22.7247  -10.2137   20.3056 C   0  0  0  0  0  0
  -21.6857   -6.0738   22.5279 C   0  0  0  0  0  0
  -21.4016   -6.5642   23.8212 C   0  0  0  0  0  0
  -21.3659   -5.6794   24.9174 C   0  0  0  0  0  0
  -21.6045   -4.3057   24.7225 C   0  0  0  0  0  0
  -21.8818   -3.8150   23.4345 C   0  0  0  0  0  0
  -21.9193   -4.6966   22.3402 C   0  0  0  0  0  0
  -22.7806  -13.5222   21.1871 C   0  0  0  0  0  0
  -22.1663   -4.2151   21.0980 F   0  0  0  0  0  0
  -21.5628   -3.4541   25.7738 F   0  0  0  0  0  0
  -29.9651  -13.5653   20.3725 N   0  0  0  0  0  0
  -26.2907  -12.9436   20.3292 N   0  0  0  0  0  0
  -25.9319  -11.6568   20.5762 N   0  0  0  0  0  0
  -22.0460  -12.8202   22.0423 N   0  0  0  0  0  0
  -25.4198  -15.1941   20.4170 N   0  0  0  0  0  0
  -31.8511  -14.7553   20.1977 O   0  0  0  0  0  0
  -21.6644   -6.8882   21.4241 O   0  0  0  0  0  0
  -22.3485  -14.5525   20.6719 O   0  0  0  0  0  0
  -24.6308  -31.8538   23.1964 C   0  0  0  0  0  0
  -25.9134  -32.4743   23.8312 C   0  0  1  0  0  0
  -27.2190  -27.2524   20.1360 C   0  0  0  0  0  0
  -25.5929  -33.8545   24.2234 N   0  0  0  0  0  0
  -23.4279  -30.4739   21.5396 C   0  0  2  0  0  0
  -24.8747  -28.9112   20.1142 C   0  0  0  0  0  0
  -22.7497  -29.4589   22.4912 C   0  0  0  0  0  0
  -18.0291  -28.1388   22.8481 C   0  0  0  0  0  0
  -24.1491  -36.7281   23.2641 C   0  0  0  0  0  0
  -25.9726  -30.7622   21.3776 C   0  0  0  0  0  0
  -26.0442  -29.3803   20.7266 C   0  0  0  0  0  0
  -27.2181  -28.5612   20.7283 C   0  0  0  0  0  0
  -26.0304  -26.8473   19.4956 C   0  0  0  0  0  0
  -24.8719  -27.6521   19.4902 C   0  0  0  0  0  0
  -23.6472  -29.8023   20.1575 C   0  0  0  0  0  0
  -25.4117  -36.3061   24.0323 C   0  0  1  0  0  0
  -20.5893  -28.3695   23.1271 C   0  0  2  0  0  0
  -20.6781  -26.9411   22.5412 C   0  0  0  0  0  0
  -19.5757  -26.6380   21.5215 C   0  0  0  0  0  0
  -18.1934  -26.7929   22.1621 C   0  0  0  0  0  0
  -19.1545  -28.8858   23.2869 C   0  0  0  0  0  0
  -18.9469  -30.1458   23.8887 C   0  0  0  0  0  0
  -17.6469  -30.6588   24.0560 C   0  0  0  0  0  0
  -25.9059  -34.9432   23.5083 C   0  0  0  0  0  0
  -16.5358  -29.9086   23.6333 C   0  0  0  0  0  0
  -16.7279  -28.6505   23.0350 C   0  0  0  0  0  0
  -26.4501  -31.6578   25.0711 C   0  0  0  0  0  0
  -25.3717  -31.3734   26.1427 C   0  0  0  0  0  0
  -27.0361  -30.2997   24.6211 C   0  0  0  0  0  0
  -27.6045  -32.4331   25.7493 C   0  0  0  0  0  0
  -27.5573  -37.1796   24.8463 C   0  0  0  0  0  0
  -21.4204  -29.3039   22.3658 N   0  0  0  0  0  0
  -26.4286  -37.3764   23.9407 N   0  0  0  0  0  0
  -24.6961  -31.0493   22.0942 N   0  0  0  0  0  0
  -23.4195  -28.8136   23.3016 O   0  0  0  0  0  0
  -28.3353  -26.3872   20.1339 O   0  0  0  0  0  0
  -26.5637  -34.8912   22.4656 O   0  0  0  0  0  0
  -23.5459  -32.1366   23.7260 O   0  0  0  0  0  0
  -27.4328  -24.2377   21.1178 C   0  0  0  0  0  0
  -29.1083  -24.0797   19.4696 C   0  0  0  0  0  0
  -27.4113  -22.8004   21.1796 C   0  0  0  0  0  0
  -28.2647  -24.9541   20.2207 C   0  0  0  0  0  0
  -28.2865  -22.0100   20.3564 C   0  0  0  0  0  0
  -25.1489  -21.5243   21.6038 C   0  0  0  0  0  0
  -25.0747  -22.7840   22.4276 C   0  0  0  0  0  0
  -29.7637  -18.4087   19.2900 C   0  0  0  0  0  0
  -28.4524  -17.9854   21.2634 C   0  0  0  0  0  0
  -30.6213  -17.1227   19.6387 C   0  0  0  0  0  0
  -29.3051  -16.6703   21.5603 C   0  0  0  0  0  0
  -26.4223  -22.1603   22.1186 C   0  0  0  0  0  0
  -29.1241  -19.1885   20.4909 C   0  0  0  0  0  0
  -27.3801  -20.2028   18.7885 C   0  0  0  0  0  0
  -28.0827  -20.4169   20.1404 C   0  0  2  0  0  0
  -29.1218  -22.6982   19.5235 N   0  0  0  0  0  0
  -29.9665  -16.0041   20.3996 N   0  0  0  0  0  0
  -31.4588  -12.5909   19.1558 H   0  0  0  0  0  0
  -30.3643  -11.5111   19.9669 H   0  0  0  0  0  0
  -29.7852  -11.7273   17.5234 H   0  0  0  0  0  0
  -29.6209  -13.4572   17.7016 H   0  0  0  0  0  0
  -27.8893  -11.2855   18.9174 H   0  0  0  0  0  0
  -27.3671  -12.5173   17.7997 H   0  0  0  0  0  0
  -27.6222  -14.2596   19.4598 H   0  0  0  0  0  0
  -28.7367  -12.1912   21.4100 H   0  0  0  0  0  0
  -28.4103  -13.8549   21.7906 H   0  0  0  0  0  0
  -25.2767   -9.5690   22.4761 H   0  0  0  0  0  0
  -24.0009   -7.4639   22.7473 H   0  0  0  0  0  0
  -21.0851   -8.8776   19.8949 H   0  0  0  0  0  0
  -22.3706  -10.9676   19.6166 H   0  0  0  0  0  0
  -21.2009   -7.6151   23.9716 H   0  0  0  0  0  0
  -21.1482   -6.0526   25.9077 H   0  0  0  0  0  0
  -22.0598   -2.7612   23.2846 H   0  0  0  0  0  0
  -22.4090  -11.9865   22.4804 H   0  0  0  0  0  0
  -21.1072  -13.1209   22.2630 H   0  0  0  0  0  0
  -24.6577  -15.8522   20.5360 H   0  0  0  0  0  0
  -26.2826  -15.6330   20.1217 H   0  0  0  0  0  0
  -26.7193  -32.5393   23.1044 H   0  0  0  0  0  0
  -25.0070  -33.9678   25.0375 H   0  0  0  0  0  0
  -22.7254  -31.2965   21.3902 H   0  0  0  0  0  0
  -23.3752  -35.9615   23.3303 H   0  0  0  0  0  0
  -24.3578  -36.8912   22.2056 H   0  0  0  0  0  0
  -23.7249  -37.6480   23.6675 H   0  0  0  0  0  0
  -26.1106  -31.5190   20.6043 H   0  0  0  0  0  0
  -26.8504  -30.8150   22.0100 H   0  0  0  0  0  0
  -28.1183  -28.9162   21.2101 H   0  0  0  0  0  0
  -25.9896  -25.8838   19.0079 H   0  0  0  0  0  0
  -23.9767  -27.2891   19.0043 H   0  0  0  0  0  0
  -23.7745  -30.5762   19.3997 H   0  0  0  0  0  0
  -22.7650  -29.2371   19.8519 H   0  0  0  0  0  0
  -25.1301  -36.1901   25.0817 H   0  0  0  0  0  0
  -20.9981  -28.3275   24.1393 H   0  0  0  0  0  0
  -20.5686  -26.2300   23.3616 H   0  0  0  0  0  0
  -21.6648  -26.7439   22.1201 H   0  0  0  0  0  0
  -19.6922  -25.6289   21.1250 H   0  0  0  0  0  0
  -19.6701  -27.3185   20.6740 H   0  0  0  0  0  0
  -17.4207  -26.6680   21.4019 H   0  0  0  0  0  0
  -18.0325  -26.0073   22.9017 H   0  0  0  0  0  0
  -19.7947  -30.7274   24.2249 H   0  0  0  0  0  0
  -17.5026  -31.6268   24.5162 H   0  0  0  0  0  0
  -15.5358  -30.2986   23.7665 H   0  0  0  0  0  0
  -15.8678  -28.0825   22.7065 H   0  0  0  0  0  0
  -24.5902  -30.7073   25.7754 H   0  0  0  0  0  0
  -24.8896  -32.2905   26.4822 H   0  0  0  0  0  0
  -25.8026  -30.8933   27.0221 H   0  0  0  0  0  0
  -26.2955  -29.6731   24.1226 H   0  0  0  0  0  0
  -27.4031  -29.7271   25.4740 H   0  0  0  0  0  0
  -27.8833  -30.4273   23.9469 H   0  0  0  0  0  0
  -27.2643  -33.3640   26.2039 H   0  0  0  0  0  0
  -28.3870  -32.6876   25.0334 H   0  0  0  0  0  0
  -28.0694  -31.8478   26.5435 H   0  0  0  0  0  0
  -28.2584  -38.0097   24.7503 H   0  0  0  0  0  0
  -28.1073  -36.2625   24.6296 H   0  0  0  0  0  0
  -27.2290  -37.1452   25.8866 H   0  0  0  0  0  0
  -20.9392  -29.8762   21.6863 H   0  0  0  0  0  0
  -26.0162  -38.2835   24.1410 H   0  0  0  0  0  0
  -26.7803  -24.8074   21.7622 H   0  0  0  0  0  0
  -29.8154  -24.5099   18.7758 H   0  0  0  0  0  0
  -24.9222  -21.6120   20.5429 H   0  0  0  0  0  0
  -24.8125  -20.6044   22.0786 H   0  0  0  0  0  0
  -24.6862  -22.6818   23.4392 H   0  0  0  0  0  0
  -24.7637  -23.6841   21.9007 H   0  0  0  0  0  0
  -28.9843  -18.0842   18.6014 H   0  0  0  0  0  0
  -30.3832  -19.1017   18.7189 H   0  0  0  0  0  0
  -28.0699  -18.3593   22.2142 H   0  0  0  0  0  0
  -27.5662  -17.6791   20.7057 H   0  0  0  0  0  0
  -31.5053  -17.4396   20.1958 H   0  0  0  0  0  0
  -31.0002  -16.7201   18.6970 H   0  0  0  0  0  0
  -28.6570  -15.9601   22.0686 H   0  0  0  0  0  0
  -30.0832  -16.9160   22.2853 H   0  0  0  0  0  0
  -26.9383  -21.6629   22.9385 H   0  0  0  0  0  0
  -29.9187  -19.5896   21.1212 H   0  0  0  0  0  0
  -26.5189  -20.8640   18.6903 H   0  0  0  0  0  0
  -27.0116  -19.1833   18.6797 H   0  0  0  0  0  0
  -28.0528  -20.4175   17.9581 H   0  0  0  0  0  0
  -27.2953  -20.1937   20.8522 H   0  0  0  0  0  0
  1 25  1  0  0  0
  1 30  2  0  0  0
  1 87  1  0  0  0
  2  3  1  0  0  0
  2 25  1  0  0  0
  2 88  1  0  0  0
  2 89  1  0  0  0
  3  4  1  0  0  0
  3 90  1  0  0  0
  3 91  1  0  0  0
  4  5  1  0  0  0
  4 92  1  0  0  0
  4 93  1  0  0  0
  5  6  1  0  0  0
  5 26  1  0  0  0
  5 94  1  0  0  0
  6 25  1  0  0  0
  6 95  1  0  0  0
  6 96  1  0  0  0
  7  8  2  0  0  0
  7 26  1  0  0  0
  7 29  1  0  0  0
  8  9  1  0  0  0
  8 22  1  0  0  0
  9 10  1  0  0  0
  9 27  2  0  0  0
 10 11  2  0  0  0
 10 15  1  0  0  0
 11 12  1  0  0  0
 11 97  1  0  0  0
 12 13  2  0  0  0
 12 98  1  0  0  0
 13 14  1  0  0  0
 13 31  1  0  0  0
 14 15  2  0  0  0
 14 99  1  0  0  0
 15100  1  0  0  0
 16 17  2  0  0  0
 16 21  1  0  0  0
 16 31  1  0  0  0
 17 18  1  0  0  0
 17101  1  0  0  0
 18 19  2  0  0  0
 18102  1  0  0  0
 19 20  1  0  0  0
 19 24  1  0  0  0
 20 21  2  0  0  0
 20103  1  0  0  0
 21 23  1  0  0  0
 22 28  1  0  0  0
 22 32  2  0  0  0
 26 27  1  0  0  0
 28104  1  0  0  0
 28105  1  0  0  0
 29106  1  0  0  0
 29107  1  0  0  0
 33 34  1  0  0  0
 33 66  1  0  0  0
 33 70  2  0  0  0
 34 36  1  0  0  0
 34 59  1  0  0  0
 34108  1  0  0  0
 35 44  2  0  0  0
 35 45  1  0  0  0
 35 68  1  0  0  0
 36 56  1  0  0  0
 36109  1  0  0  0
 37 39  1  0  0  0
 37 47  1  0  0  0
 37 66  1  0  0  0
 37110  1  0  0  0
 38 43  2  0  0  0
 38 46  1  0  0  0
 38 47  1  0  0  0
 39 64  1  0  0  0
 39 67  2  0  0  0
 40 52  1  0  0  0
 40 53  2  0  0  0
 40 58  1  0  0  0
 41111  1  0  0  0
 41112  1  0  0  0
 41113  1  0  0  0
 41 48  1  0  0  0
 42 43  1  0  0  0
 42 66  1  0  0  0
 42114  1  0  0  0
 42115  1  0  0  0
 43 44  1  0  0  0
 44116  1  0  0  0
 45 46  2  0  0  0
 45117  1  0  0  0
 46118  1  0  0  0
 47119  1  0  0  0
 47120  1  0  0  0
 48 56  1  0  0  0
 48 65  1  0  0  0
 48121  1  0  0  0
 49 50  1  0  0  0
 49 53  1  0  0  0
 49 64  1  0  0  0
 49122  1  0  0  0
 50 51  1  0  0  0
 50123  1  0  0  0
 50124  1  0  0  0
 51 52  1  0  0  0
 51125  1  0  0  0
 51126  1  0  0  0
 52127  1  0  0  0
 52128  1  0  0  0
 53 54  1  0  0  0
 54 55  2  0  0  0
 54129  1  0  0  0
 55 57  1  0  0  0
 55130  1  0  0  0
 56 69  2  0  0  0
 57 58  2  0  0  0
 57131  1  0  0  0
 58132  1  0  0  0
 59 60  1  0  0  0
 59 61  1  0  0  0
 59 62  1  0  0  0
 60133  1  0  0  0
 60134  1  0  0  0
 60135  1  0  0  0
 61136  1  0  0  0
 61137  1  0  0  0
 61138  1  0  0  0
 62139  1  0  0  0
 62140  1  0  0  0
 62141  1  0  0  0
 63 65  1  0  0  0
 63142  1  0  0  0
 63143  1  0  0  0
 63144  1  0  0  0
 64145  1  0  0  0
 65146  1  0  0  0
 68 74  1  0  0  0
 71 73  2  0  0  0
 71 74  1  0  0  0
 71147  1  0  0  0
 72 74  2  0  0  0
 72 86  1  0  0  0
 72148  1  0  0  0
 73 75  1  0  0  0
 73 82  1  0  0  0
 75 85  1  0  0  0
 75 86  2  0  0  0
 76 77  1  0  0  0
 76 82  1  0  0  0
 76149  1  0  0  0
 76150  1  0  0  0
 77 82  1  0  0  0
 77151  1  0  0  0
 77152  1  0  0  0
 78 80  1  0  0  0
 78153  1  0  0  0
 78154  1  0  0  0
 78 83  1  0  0  0
 79 81  1  0  0  0
 79 83  1  0  0  0
 79155  1  0  0  0
 79156  1  0  0  0
 80 87  1  0  0  0
 80157  1  0  0  0
 80158  1  0  0  0
 81 87  1  0  0  0
 81159  1  0  0  0
 81160  1  0  0  0
 82161  1  0  0  0
 83 85  1  0  0  0
 83162  1  0  0  0
 84163  1  0  0  0
 84164  1  0  0  0
 84165  1  0  0  0
 84 85  1  0  0  0
 85166  1  0  0  0
M  ISO  4   1 100  68 101  74 101  87 100
M  END
> <chiral flag>
0

> <version>
0

> <s_m_source_file>
/data/baiqing/PycharmProjects/Reinvent-master-3.2/result/LINK_invent/BTK/process_docking_weight1_custom_sum_contain_oxygen_bond_distance_aromatic_linkinvent_7_9_3/rearranged_h_0172.sdf

> <i_m_source_file_index>
73

> <r_mmod_Potential_Energy-OPLS-2005>
366.411499023438

> <r_mmod_Stretch_Energy-OPLS-2005>
131.417190551758

> <r_mmod_Bend_Energy-OPLS-2005>
218.590530395508

> <r_mmod_Torsional_Energy-OPLS-2005>
340.385314941406

> <r_mmod_Improper_Torsional_Energy-OPLS-2005>
19.0870819091797

> <r_mmod_Van_der_Waal_Energy-OPLS-2005>
142.266540527344

> <r_mmod_Electrostatic_Energy-OPLS-2005>
-375.273406982422

> <r_mmod_Solvation_Energy-OPLS-2005>
-200.118865966797

> <b_mmod_Minimization_Converged-OPLS-2005>
0

> <r_mmod_RMS_Derivative-OPLS-2005>
0.505197823047638

$$$$
73
                    3D
 Structure written by MMmdl.
161171  0  0  1  0            999 V2000
  -30.4990  -15.0225   20.3463 C   0  0  0  0  0  0
  -30.4387  -12.6294   19.5118 C   0  0  0  0  0  0
  -29.5314  -12.5416   18.2639 C   0  0  0  0  0  0
  -28.0653  -12.3134   18.6687 C   0  0  0  0  0  0
  -27.6244  -13.2502   19.8276 C   0  0  2  0  0  0
  -28.6649  -13.3252   20.9688 C   0  0  0  0  0  0
  -25.2509  -13.8230   20.5674 C   0  0  0  0  0  0
  -24.1804  -13.0472   20.9182 C   0  0  0  0  0  0
  -24.6368  -11.6946   20.8691 C   0  0  0  0  0  0
  -23.9034  -10.4333   21.0354 C   0  0  0  0  0  0
  -24.3596   -9.4255   21.9130 C   0  0  0  0  0  0
  -23.6306   -8.2269   22.0696 C   0  0  0  0  0  0
  -22.4281   -8.0274   21.3522 C   0  0  0  0  0  0
  -21.9913   -9.0224   20.4608 C   0  0  0  0  0  0
  -22.7200  -10.2136   20.3018 C   0  0  0  0  0  0
  -21.6856   -6.0726   22.5260 C   0  0  0  0  0  0
  -21.4001   -6.5623   23.8195 C   0  0  0  0  0  0
  -21.3687   -5.6774   24.9171 C   0  0  0  0  0  0
  -21.6039   -4.3027   24.7209 C   0  0  0  0  0  0
  -21.8855   -3.8134   23.4332 C   0  0  0  0  0  0
  -21.9215   -4.6956   22.3393 C   0  0  0  0  0  0
  -22.7836  -13.5254   21.1870 C   0  0  0  0  0  0
  -22.1667   -4.2126   21.0965 F   0  0  0  0  0  0
  -21.5671   -3.4527   25.7737 F   0  0  0  0  0  0
  -29.9301  -13.7459   20.3628 N   0  0  0  0  0  0
  -26.2880  -12.9429   20.3188 N   0  0  0  0  0  0
  -25.9283  -11.6575   20.5655 N   0  0  0  0  0  0
  -22.0461  -12.8247   22.0410 N   0  0  0  0  0  0
  -25.4341  -15.1953   20.4174 N   0  0  0  0  0  0
  -31.7031  -15.0840   20.0793 O   0  0  0  0  0  0
  -21.6658   -6.8862   21.4217 O   0  0  0  0  0  0
  -22.3528  -14.5548   20.6704 O   0  0  0  0  0  0
  -24.6434  -31.8399   23.1913 C   0  0  0  0  0  0
  -25.9195  -32.4684   23.8300 C   0  0  1  0  0  0
  -27.2205  -27.1485   20.1014 C   0  0  0  0  0  0
  -25.5984  -33.8519   24.2222 N   0  0  0  0  0  0
  -23.4458  -30.4551   21.5380 C   0  0  2  0  0  0
  -24.8934  -28.8810   20.1062 C   0  0  0  0  0  0
  -22.7558  -29.4504   22.4944 C   0  0  0  0  0  0
  -18.0249  -28.1361   22.8420 C   0  0  0  0  0  0
  -24.1485  -36.7264   23.2640 C   0  0  0  0  0  0
  -26.0027  -30.7098   21.3881 C   0  0  0  0  0  0
  -26.0732  -29.3188   20.7300 C   0  0  0  0  0  0
  -27.2375  -28.4675   20.7106 C   0  0  0  0  0  0
  -26.0218  -26.8106   19.4422 C   0  0  0  0  0  0
  -24.8890  -27.6463   19.4363 C   0  0  0  0  0  0
  -23.6656  -29.7764   20.1584 C   0  0  0  0  0  0
  -25.4136  -36.3051   24.0301 C   0  0  1  0  0  0
  -20.5863  -28.3711   23.1251 C   0  0  2  0  0  0
  -20.6779  -26.9437   22.5414 C   0  0  0  0  0  0
  -19.5769  -26.6363   21.5192 C   0  0  0  0  0  0
  -18.1919  -26.7895   22.1554 C   0  0  0  0  0  0
  -19.1504  -28.8863   23.2791 C   0  0  0  0  0  0
  -18.9432  -30.1441   23.8835 C   0  0  0  0  0  0
  -17.6443  -30.6581   24.0515 C   0  0  0  0  0  0
  -25.9090  -34.9400   23.5066 C   0  0  0  0  0  0
  -16.5324  -29.9074   23.6299 C   0  0  0  0  0  0
  -16.7232  -28.6464   23.0356 C   0  0  0  0  0  0
  -26.4531  -31.6557   25.0715 C   0  0  0  0  0  0
  -25.3750  -31.3714   26.1421 C   0  0  0  0  0  0
  -27.0397  -30.2966   24.6285 C   0  0  0  0  0  0
  -27.6096  -32.4330   25.7459 C   0  0  0  0  0  0
  -27.5556  -37.1794   24.8421 C   0  0  0  0  0  0
  -21.4241  -29.3037   22.3689 N   0  0  0  0  0  0
  -26.4246  -37.3815   23.9394 N   0  0  0  0  0  0
  -24.7177  -31.0251   22.0954 N   0  0  0  0  0  0
  -23.4211  -28.7998   23.3045 O   0  0  0  0  0  0
  -28.2841  -26.1774   20.0709 O   0  0  0  0  0  0
  -26.5647  -34.8870   22.4625 O   0  0  0  0  0  0
  -23.5545  -32.1247   23.7124 O   0  0  0  0  0  0
  -29.2530  -22.0830   17.6913 C   0  0  0  0  0  0
  -29.3391  -20.8236   18.3372 C   0  0  0  0  0  0
  -28.6998  -21.9562   20.3505 C   0  0  0  0  0  0
  -28.8957  -23.3083   18.3281 C   0  0  0  0  0  0
  -28.6018  -23.3169   19.7294 C   0  0  0  0  0  0
  -29.0682  -20.6602   19.7140 C   0  0  0  0  0  0
  -29.7864  -24.8597   16.3562 C   0  0  0  0  0  0
  -29.5778  -25.7848   17.5231 C   0  0  0  0  0  0
  -28.5042  -24.7555   21.9856 C   0  0  0  0  0  0
  -27.0551  -24.5756   21.6155 C   0  0  0  0  0  0
  -28.7466  -24.5254   17.4250 C   0  0  0  0  0  0
  -28.1110  -24.6950   20.5209 C   0  0  0  0  0  0
  -29.0499  -19.1271   20.3830 C   0  0  0  0  0  0
  -29.9151  -17.7265   19.9040 C   0  0  0  0  0  0
  -29.6966  -16.2129   20.3941 N   0  0  0  0  0  0
  -31.4715  -12.7948   19.2006 H   0  0  0  0  0  0
  -30.4385  -11.6856   20.0599 H   0  0  0  0  0  0
  -29.8691  -11.7449   17.5997 H   0  0  0  0  0  0
  -29.6087  -13.4688   17.6921 H   0  0  0  0  0  0
  -27.9748  -11.2713   18.9735 H   0  0  0  0  0  0
  -27.4128  -12.4402   17.8039 H   0  0  0  0  0  0
  -27.5726  -14.2406   19.3741 H   0  0  0  0  0  0
  -28.7790  -12.3653   21.4774 H   0  0  0  0  0  0
  -28.3456  -14.0475   21.7220 H   0  0  0  0  0  0
  -25.2734   -9.5759   22.4716 H   0  0  0  0  0  0
  -24.0053   -7.4671   22.7374 H   0  0  0  0  0  0
  -21.0875   -8.8689   19.8905 H   0  0  0  0  0  0
  -22.3590  -10.9660   19.6142 H   0  0  0  0  0  0
  -21.1917   -7.6125   23.9693 H   0  0  0  0  0  0
  -21.1496   -6.0497   25.9074 H   0  0  0  0  0  0
  -22.0609   -2.7597   23.2829 H   0  0  0  0  0  0
  -22.4090  -11.9923   22.4835 H   0  0  0  0  0  0
  -21.1058  -13.1238   22.2562 H   0  0  0  0  0  0
  -24.6885  -15.8737   20.5122 H   0  0  0  0  0  0
  -26.3128  -15.6084   20.1353 H   0  0  0  0  0  0
  -26.7229  -32.5246   23.1014 H   0  0  0  0  0  0
  -25.0331  -33.9667   25.0496 H   0  0  0  0  0  0
  -22.7426  -31.2765   21.3821 H   0  0  0  0  0  0
  -23.3774  -35.9571   23.3262 H   0  0  0  0  0  0
  -24.3582  -36.8950   22.2063 H   0  0  0  0  0  0
  -23.7177  -37.6414   23.6733 H   0  0  0  0  0  0
  -26.1555  -31.4622   20.6125 H   0  0  0  0  0  0
  -26.8776  -30.7627   22.0251 H   0  0  0  0  0  0
  -28.1479  -28.8029   21.1895 H   0  0  0  0  0  0
  -25.9584  -25.8648   18.9203 H   0  0  0  0  0  0
  -24.0056  -27.3184   18.8980 H   0  0  0  0  0  0
  -23.7731  -30.5372   19.3846 H   0  0  0  0  0  0
  -22.7823  -29.1993   19.8736 H   0  0  0  0  0  0
  -25.1347  -36.1903   25.0806 H   0  0  0  0  0  0
  -20.9836  -28.3269   24.1415 H   0  0  0  0  0  0
  -20.5691  -26.2324   23.3621 H   0  0  0  0  0  0
  -21.6660  -26.7510   22.1207 H   0  0  0  0  0  0
  -19.6966  -25.6243   21.1254 H   0  0  0  0  0  0
  -19.6693  -27.3148   20.6690 H   0  0  0  0  0  0
  -17.4232  -26.6567   21.3930 H   0  0  0  0  0  0
  -18.0309  -26.0049   22.8955 H   0  0  0  0  0  0
  -19.7939  -30.7212   24.2217 H   0  0  0  0  0  0
  -17.5026  -31.6245   24.5145 H   0  0  0  0  0  0
  -15.5329  -30.2983   23.7699 H   0  0  0  0  0  0
  -15.8588  -28.0764   22.7202 H   0  0  0  0  0  0
  -24.5891  -30.7126   25.7697 H   0  0  0  0  0  0
  -24.8965  -32.2869   26.4905 H   0  0  0  0  0  0
  -25.8014  -30.8772   27.0156 H   0  0  0  0  0  0
  -26.2981  -29.6673   24.1349 H   0  0  0  0  0  0
  -27.4060  -29.7292   25.4845 H   0  0  0  0  0  0
  -27.8883  -30.4210   23.9571 H   0  0  0  0  0  0
  -27.2749  -33.3666   26.2019 H   0  0  0  0  0  0
  -28.3912  -32.6861   25.0276 H   0  0  0  0  0  0
  -28.0803  -31.8468   26.5358 H   0  0  0  0  0  0
  -28.2593  -38.0087   24.7572 H   0  0  0  0  0  0
  -28.1012  -36.2624   24.6156 H   0  0  0  0  0  0
  -27.2239  -37.1363   25.8806 H   0  0  0  0  0  0
  -20.9488  -29.8742   21.6829 H   0  0  0  0  0  0
  -26.0074  -38.2851   24.1497 H   0  0  0  0  0  0
  -29.4452  -22.1143   16.6270 H   0  0  0  0  0  0
  -29.5714  -19.9580   17.7349 H   0  0  0  0  0  0
  -28.4382  -21.8948   21.3970 H   0  0  0  0  0  0
  -30.7393  -24.3312   16.3485 H   0  0  0  0  0  0
  -29.4487  -25.2280   15.3862 H   0  0  0  0  0  0
  -29.0692  -26.7236   17.3090 H   0  0  0  0  0  0
  -30.3737  -25.8390   18.2607 H   0  0  0  0  0  0
  -29.0309  -23.9070   22.4164 H   0  0  0  0  0  0
  -28.8173  -25.7221   22.3726 H   0  0  0  0  0  0
  -26.4034  -25.4132   21.8465 H   0  0  0  0  0  0
  -26.5953  -23.6003   21.7577 H   0  0  0  0  0  0
  -27.7032  -24.6624   17.1418 H   0  0  0  0  0  0
  -27.9926  -18.8639   20.3493 H   0  0  0  0  0  0
  -29.2524  -19.2709   21.4433 H   0  0  0  0  0  0
  -30.9758  -17.9430   20.0236 H   0  0  0  0  0  0
  -29.7603  -17.6585   18.8281 H   0  0  0  0  0  0
  -28.7439  -16.0140   20.6598 H   0  0  0  0  0  0
  1 25  1  0  0  0
  1 30  2  0  0  0
  1 85  1  0  0  0
  2  3  1  0  0  0
  2 25  1  0  0  0
  2 86  1  0  0  0
  2 87  1  0  0  0
  3  4  1  0  0  0
  3 88  1  0  0  0
  3 89  1  0  0  0
  4  5  1  0  0  0
  4 90  1  0  0  0
  4 91  1  0  0  0
  5  6  1  0  0  0
  5 26  1  0  0  0
  5 92  1  0  0  0
  6 25  1  0  0  0
  6 93  1  0  0  0
  6 94  1  0  0  0
  7  8  2  0  0  0
  7 26  1  0  0  0
  7 29  1  0  0  0
  8  9  1  0  0  0
  8 22  1  0  0  0
  9 10  1  0  0  0
  9 27  2  0  0  0
 10 11  2  0  0  0
 10 15  1  0  0  0
 11 12  1  0  0  0
 11 95  1  0  0  0
 12 13  2  0  0  0
 12 96  1  0  0  0
 13 14  1  0  0  0
 13 31  1  0  0  0
 14 15  2  0  0  0
 14 97  1  0  0  0
 15 98  1  0  0  0
 16 17  2  0  0  0
 16 21  1  0  0  0
 16 31  1  0  0  0
 17 18  1  0  0  0
 17 99  1  0  0  0
 18 19  2  0  0  0
 18100  1  0  0  0
 19 20  1  0  0  0
 19 24  1  0  0  0
 20 21  2  0  0  0
 20101  1  0  0  0
 21 23  1  0  0  0
 22 28  1  0  0  0
 22 32  2  0  0  0
 26 27  1  0  0  0
 28102  1  0  0  0
 28103  1  0  0  0
 29104  1  0  0  0
 29105  1  0  0  0
 33 34  1  0  0  0
 33 66  1  0  0  0
 33 70  2  0  0  0
 34 36  1  0  0  0
 34 59  1  0  0  0
 34106  1  0  0  0
 35 44  2  0  0  0
 35 45  1  0  0  0
 35 68  1  0  0  0
 36 56  1  0  0  0
 36107  1  0  0  0
 37 39  1  0  0  0
 37 47  1  0  0  0
 37 66  1  0  0  0
 37108  1  0  0  0
 38 43  2  0  0  0
 38 46  1  0  0  0
 38 47  1  0  0  0
 39 64  1  0  0  0
 39 67  2  0  0  0
 40 52  1  0  0  0
 40 53  2  0  0  0
 40 58  1  0  0  0
 41109  1  0  0  0
 41110  1  0  0  0
 41111  1  0  0  0
 41 48  1  0  0  0
 42 43  1  0  0  0
 42 66  1  0  0  0
 42112  1  0  0  0
 42113  1  0  0  0
 43 44  1  0  0  0
 44114  1  0  0  0
 45 46  2  0  0  0
 45115  1  0  0  0
 46116  1  0  0  0
 47117  1  0  0  0
 47118  1  0  0  0
 48 56  1  0  0  0
 48 65  1  0  0  0
 48119  1  0  0  0
 49 50  1  0  0  0
 49 53  1  0  0  0
 49 64  1  0  0  0
 49120  1  0  0  0
 50 51  1  0  0  0
 50121  1  0  0  0
 50122  1  0  0  0
 51 52  1  0  0  0
 51123  1  0  0  0
 51124  1  0  0  0
 52125  1  0  0  0
 52126  1  0  0  0
 53 54  1  0  0  0
 54 55  2  0  0  0
 54127  1  0  0  0
 55 57  1  0  0  0
 55128  1  0  0  0
 56 69  2  0  0  0
 57 58  2  0  0  0
 57129  1  0  0  0
 58130  1  0  0  0
 59 60  1  0  0  0
 59 61  1  0  0  0
 59 62  1  0  0  0
 60131  1  0  0  0
 60132  1  0  0  0
 60133  1  0  0  0
 61134  1  0  0  0
 61135  1  0  0  0
 61136  1  0  0  0
 62137  1  0  0  0
 62138  1  0  0  0
 62139  1  0  0  0
 63 65  1  0  0  0
 63140  1  0  0  0
 63141  1  0  0  0
 63142  1  0  0  0
 64143  1  0  0  0
 65144  1  0  0  0
 68 82  1  0  0  0
 71 72  2  0  0  0
 71 74  1  0  0  0
 71145  1  0  0  0
 72 76  1  0  0  0
 72146  1  0  0  0
 73 75  1  0  0  0
 73 76  2  0  0  0
 73147  1  0  0  0
 74 75  2  0  0  0
 74 81  1  0  0  0
 75 82  1  0  0  0
 76 83  1  0  0  0
 77 78  1  0  0  0
 77 81  1  0  0  0
 77148  1  0  0  0
 77149  1  0  0  0
 78 81  1  0  0  0
 78150  1  0  0  0
 78151  1  0  0  0
 79 80  1  0  0  0
 79 82  1  0  0  0
 79152  1  0  0  0
 79153  1  0  0  0
 80 82  1  0  0  0
 80154  1  0  0  0
 80155  1  0  0  0
 81156  1  0  0  0
 83 84  1  0  0  0
 83157  1  0  0  0
 83158  1  0  0  0
 84 85  1  0  0  0
 84159  1  0  0  0
 84160  1  0  0  0
 85161  1  0  0  0
M  ISO  4   1 100  68 101  82 101  85 100
M  END
> <chiral flag>
0

> <version>
0

> <s_m_source_file>
/data/baiqing/PycharmProjects/Reinvent-master-3.2/result/LINK_invent/BTK/process_docking_weight1_custom_sum_contain_oxygen_bond_distance_aromatic_linkinvent_7_9_3/rearranged_h_0172.sdf

> <i_m_source_file_index>
74

> <r_mmod_Potential_Energy-OPLS-2005>
614.075256347656

> <r_mmod_Stretch_Energy-OPLS-2005>
297.877990722656

> <r_mmod_Bend_Energy-OPLS-2005>
271.040679931641

> <r_mmod_Torsional_Energy-OPLS-2005>
288.742309570312

> <r_mmod_Improper_Torsional_Energy-OPLS-2005>
6.16680383682251

> <r_mmod_Van_der_Waal_Energy-OPLS-2005>
121.567314147949

> <r_mmod_Electrostatic_Energy-OPLS-2005>
-382.659515380859

> <r_mmod_Solvation_Energy-OPLS-2005>
-208.558700561523

> <b_mmod_Minimization_Converged-OPLS-2005>
0

> <r_mmod_RMS_Derivative-OPLS-2005>
7.26590394973755

$$$$
74
                    3D
 Structure written by MMmdl.
169179  0  0  1  0            999 V2000
  -30.7152  -14.5285   20.5392 C   0  0  0  0  0  0
  -30.4214  -12.3393   19.4261 C   0  0  0  0  0  0
  -29.4884  -12.4839   18.2071 C   0  0  0  0  0  0
  -28.0154  -12.3136   18.6281 C   0  0  0  0  0  0
  -27.6439  -13.1847   19.8545 C   0  0  2  0  0  0
  -28.6975  -13.0580   20.9808 C   0  0  0  0  0  0
  -25.2546  -13.8078   20.5673 C   0  0  0  0  0  0
  -24.1801  -13.0390   20.9213 C   0  0  0  0  0  0
  -24.6340  -11.6854   20.8780 C   0  0  0  0  0  0
  -23.9015  -10.4261   21.0437 C   0  0  0  0  0  0
  -24.3583   -9.4177   21.9205 C   0  0  0  0  0  0
  -23.6267   -8.2209   22.0760 C   0  0  0  0  0  0
  -22.4251   -8.0258   21.3545 C   0  0  0  0  0  0
  -21.9882   -9.0230   20.4648 C   0  0  0  0  0  0
  -22.7201  -10.2112   20.3069 C   0  0  0  0  0  0
  -21.6840   -6.0723   22.5284 C   0  0  0  0  0  0
  -21.4001   -6.5634   23.8216 C   0  0  0  0  0  0
  -21.3656   -5.6788   24.9178 C   0  0  0  0  0  0
  -21.6045   -4.3049   24.7230 C   0  0  0  0  0  0
  -21.8823   -3.8140   23.4350 C   0  0  0  0  0  0
  -21.9189   -4.6954   22.3404 C   0  0  0  0  0  0
  -22.7834  -13.5220   21.1873 C   0  0  0  0  0  0
  -22.1660   -4.2141   21.0982 F   0  0  0  0  0  0
  -21.5631   -3.4534   25.7741 F   0  0  0  0  0  0
  -30.0208  -13.3592   20.4090 N   0  0  0  0  0  0
  -26.2933  -12.9190   20.3319 N   0  0  0  0  0  0
  -25.9253  -11.6386   20.5802 N   0  0  0  0  0  0
  -22.0459  -12.8227   22.0425 N   0  0  0  0  0  0
  -25.4256  -15.1789   20.4037 N   0  0  0  0  0  0
  -31.8856  -14.6450   20.1649 O   0  0  0  0  0  0
  -21.6621   -6.8855   21.4240 O   0  0  0  0  0  0
  -22.3541  -14.5534   20.6717 O   0  0  0  0  0  0
  -24.6163  -31.8674   23.2087 C   0  0  0  0  0  0
  -25.9047  -32.4826   23.8390 C   0  0  1  0  0  0
  -27.2326  -27.4127   20.1034 C   0  0  0  0  0  0
  -25.5904  -33.8625   24.2316 N   0  0  0  0  0  0
  -23.4051  -30.4922   21.5487 C   0  0  2  0  0  0
  -24.8515  -28.9580   20.1114 C   0  0  0  0  0  0
  -22.7421  -29.4661   22.4962 C   0  0  0  0  0  0
  -18.0283  -28.1388   22.8495 C   0  0  0  0  0  0
  -24.1484  -36.7307   23.2638 C   0  0  0  0  0  0
  -25.9366  -30.8276   21.3637 C   0  0  0  0  0  0
  -26.0137  -29.4615   20.7084 C   0  0  0  0  0  0
  -27.2067  -28.6986   20.6974 C   0  0  0  0  0  0
  -26.0505  -26.9351   19.4882 C   0  0  0  0  0  0
  -24.8664  -27.6953   19.4963 C   0  0  0  0  0  0
  -23.6150  -29.8276   20.1620 C   0  0  0  0  0  0
  -25.4106  -36.3111   24.0340 C   0  0  1  0  0  0
  -20.5877  -28.3673   23.1307 C   0  0  2  0  0  0
  -20.6772  -26.9406   22.5416 C   0  0  0  0  0  0
  -19.5754  -26.6389   21.5213 C   0  0  0  0  0  0
  -18.1931  -26.7930   22.1622 C   0  0  0  0  0  0
  -19.1533  -28.8842   23.2903 C   0  0  0  0  0  0
  -18.9460  -30.1447   23.8913 C   0  0  0  0  0  0
  -17.6466  -30.6598   24.0565 C   0  0  0  0  0  0
  -25.9040  -34.9482   23.5119 C   0  0  0  0  0  0
  -16.5354  -29.9103   23.6325 C   0  0  0  0  0  0
  -16.7272  -28.6516   23.0347 C   0  0  0  0  0  0
  -26.4471  -31.6615   25.0724 C   0  0  0  0  0  0
  -25.3735  -31.3737   26.1473 C   0  0  0  0  0  0
  -27.0294  -30.3057   24.6100 C   0  0  0  0  0  0
  -27.6044  -32.4337   25.7488 C   0  0  0  0  0  0
  -27.5582  -37.1803   24.8466 C   0  0  0  0  0  0
  -21.4145  -29.3040   22.3706 N   0  0  0  0  0  0
  -26.4286  -37.3802   23.9424 N   0  0  0  0  0  0
  -24.6713  -31.0767   22.0991 N   0  0  0  0  0  0
  -23.4190  -28.8203   23.3005 O   0  0  0  0  0  0
  -28.3908  -26.6526   20.1499 O   0  0  0  0  0  0
  -26.5602  -34.8932   22.4679 O   0  0  0  0  0  0
  -23.5352  -32.1429   23.7473 O   0  0  0  0  0  0
  -30.0205  -20.6950   19.8400 C   0  0  0  0  0  0
  -29.5145  -20.1062   21.0176 C   0  0  0  0  0  0
  -29.0093  -20.9930   22.0098 C   0  0  0  0  0  0
  -29.0253  -22.3975   21.7567 C   0  0  0  0  0  0
  -29.4866  -22.8712   20.5018 C   0  0  0  0  0  0
  -29.2831  -17.7807   19.8697 C   0  0  0  0  0  0
  -30.7056  -17.9422   21.8642 C   0  0  0  0  0  0
  -28.7789  -24.7010   18.7584 C   0  0  0  0  0  0
  -29.0346  -16.2811   20.1351 C   0  0  0  0  0  0
  -30.5280  -16.4202   22.1405 C   0  0  0  0  0  0
  -29.4752  -18.5615   21.1766 C   0  0  0  0  0  0
  -29.4797  -24.3329   20.0579 C   0  0  1  0  0  0
  -28.2297  -25.2191   20.0558 C   0  0  1  0  0  0
  -28.5527  -23.3845   22.8229 C   0  0  0  0  0  0
  -26.8955  -20.1976   23.1631 C   0  0  0  0  0  0
  -28.4039  -20.4493   23.3052 C   0  0  0  0  0  0
  -29.9985  -22.0210   19.5858 N   0  0  0  0  0  0
  -30.0343  -15.6160   20.9988 N   0  0  0  0  0  0
  -31.4630  -12.4408   19.1160 H   0  0  0  0  0  0
  -30.3360  -11.3433   19.8627 H   0  0  0  0  0  0
  -29.7455  -11.7442   17.4477 H   0  0  0  0  0  0
  -29.6307  -13.4616   17.7438 H   0  0  0  0  0  0
  -27.8564  -11.2603   18.8623 H   0  0  0  0  0  0
  -27.3546  -12.5389   17.7904 H   0  0  0  0  0  0
  -27.6324  -14.2002   19.4823 H   0  0  0  0  0  0
  -28.6953  -12.0486   21.3945 H   0  0  0  0  0  0
  -28.4530  -13.7220   21.8110 H   0  0  0  0  0  0
  -25.2725   -9.5656   22.4780 H   0  0  0  0  0  0
  -23.9979   -7.4594   22.7471 H   0  0  0  0  0  0
  -21.0815   -8.8743   19.8951 H   0  0  0  0  0  0
  -22.3663  -10.9653   19.6177 H   0  0  0  0  0  0
  -21.1991   -7.6142   23.9715 H   0  0  0  0  0  0
  -21.1475   -6.0519   25.9081 H   0  0  0  0  0  0
  -22.0607   -2.7602   23.2852 H   0  0  0  0  0  0
  -22.4051  -11.9871   22.4805 H   0  0  0  0  0  0
  -21.1089  -13.1286   22.2642 H   0  0  0  0  0  0
  -24.6597  -15.8344   20.5134 H   0  0  0  0  0  0
  -26.2758  -15.6142   20.0727 H   0  0  0  0  0  0
  -26.7112  -32.5525   23.1151 H   0  0  0  0  0  0
  -25.0078  -33.9793   25.0475 H   0  0  0  0  0  0
  -22.6955  -31.3102   21.4095 H   0  0  0  0  0  0
  -23.3757  -35.9629   23.3309 H   0  0  0  0  0  0
  -24.3580  -36.8913   22.2051 H   0  0  0  0  0  0
  -23.7220  -37.6507   23.6647 H   0  0  0  0  0  0
  -26.0505  -31.5938   20.5954 H   0  0  0  0  0  0
  -26.8244  -30.8809   21.9823 H   0  0  0  0  0  0
  -28.1016  -29.0824   21.1682 H   0  0  0  0  0  0
  -26.0232  -25.9732   18.9973 H   0  0  0  0  0  0
  -23.9745  -27.3028   19.0273 H   0  0  0  0  0  0
  -23.7267  -30.6057   19.4058 H   0  0  0  0  0  0
  -22.7374  -29.2519   19.8625 H   0  0  0  0  0  0
  -25.1281  -36.1972   25.0835 H   0  0  0  0  0  0
  -20.9980  -28.3236   24.1423 H   0  0  0  0  0  0
  -20.5670  -26.2284   23.3607 H   0  0  0  0  0  0
  -21.6640  -26.7449   22.1201 H   0  0  0  0  0  0
  -19.6919  -25.6300   21.1238 H   0  0  0  0  0  0
  -19.6700  -27.3196   20.6743 H   0  0  0  0  0  0
  -17.4204  -26.6686   21.4024 H   0  0  0  0  0  0
  -18.0330  -26.0069   22.9017 H   0  0  0  0  0  0
  -19.7941  -30.7258   24.2289 H   0  0  0  0  0  0
  -17.5029  -31.6273   24.5172 H   0  0  0  0  0  0
  -15.5355  -30.3016   23.7649 H   0  0  0  0  0  0
  -15.8669  -28.0851   22.7052 H   0  0  0  0  0  0
  -24.5896  -30.7096   25.7821 H   0  0  0  0  0  0
  -24.8934  -32.2896   26.4923 H   0  0  0  0  0  0
  -25.8078  -30.8907   27.0232 H   0  0  0  0  0  0
  -26.2833  -29.6832   24.1144 H   0  0  0  0  0  0
  -27.4060  -29.7287   25.4556 H   0  0  0  0  0  0
  -27.8677  -30.4388   23.9255 H   0  0  0  0  0  0
  -27.2667  -33.3635   26.2080 H   0  0  0  0  0  0
  -28.3848  -32.6901   25.0313 H   0  0  0  0  0  0
  -28.0717  -31.8452   26.5393 H   0  0  0  0  0  0
  -28.2593  -38.0109   24.7531 H   0  0  0  0  0  0
  -28.1081  -36.2641   24.6260 H   0  0  0  0  0  0
  -27.2308  -37.1411   25.8870 H   0  0  0  0  0  0
  -20.9298  -29.8777   21.6942 H   0  0  0  0  0  0
  -26.0177  -38.2878   24.1445 H   0  0  0  0  0  0
  -30.4317  -20.0894   19.0470 H   0  0  0  0  0  0
  -28.4347  -18.1855   19.3155 H   0  0  0  0  0  0
  -30.1556  -17.8858   19.2237 H   0  0  0  0  0  0
  -31.5907  -18.1021   21.2467 H   0  0  0  0  0  0
  -30.9022  -18.4509   22.8088 H   0  0  0  0  0  0
  -28.2010  -23.9293   18.2544 H   0  0  0  0  0  0
  -29.2806  -25.4105   18.1048 H   0  0  0  0  0  0
  -28.9887  -15.7970   19.1580 H   0  0  0  0  0  0
  -28.0606  -16.1604   20.6072 H   0  0  0  0  0  0
  -29.8085  -16.2904   22.9497 H   0  0  0  0  0  0
  -31.4682  -16.0141   22.5201 H   0  0  0  0  0  0
  -28.6004  -18.3246   21.7799 H   0  0  0  0  0  0
  -30.4321  -24.8103   20.2786 H   0  0  0  0  0  0
  -27.3238  -24.8015   20.4945 H   0  0  0  0  0  0
  -29.0942  -23.2296   23.7564 H   0  0  0  0  0  0
  -27.4861  -23.2695   23.0163 H   0  0  0  0  0  0
  -28.7292  -24.4241   22.5547 H   0  0  0  0  0  0
  -26.4752  -19.8018   24.0873 H   0  0  0  0  0  0
  -26.6832  -19.4822   22.3687 H   0  0  0  0  0  0
  -26.3640  -21.1186   22.9239 H   0  0  0  0  0  0
  -28.5805  -21.1275   24.1375 H   0  0  0  0  0  0
  -28.9075  -19.5334   23.6110 H   0  0  0  0  0  0
  1 25  1  0  0  0
  1 30  2  0  0  0
  1 88  1  0  0  0
  2  3  1  0  0  0
  2 25  1  0  0  0
  2 89  1  0  0  0
  2 90  1  0  0  0
  3  4  1  0  0  0
  3 91  1  0  0  0
  3 92  1  0  0  0
  4  5  1  0  0  0
  4 93  1  0  0  0
  4 94  1  0  0  0
  5  6  1  0  0  0
  5 26  1  0  0  0
  5 95  1  0  0  0
  6 25  1  0  0  0
  6 96  1  0  0  0
  6 97  1  0  0  0
  7  8  2  0  0  0
  7 26  1  0  0  0
  7 29  1  0  0  0
  8  9  1  0  0  0
  8 22  1  0  0  0
  9 10  1  0  0  0
  9 27  2  0  0  0
 10 11  2  0  0  0
 10 15  1  0  0  0
 11 12  1  0  0  0
 11 98  1  0  0  0
 12 13  2  0  0  0
 12 99  1  0  0  0
 13 14  1  0  0  0
 13 31  1  0  0  0
 14 15  2  0  0  0
 14100  1  0  0  0
 15101  1  0  0  0
 16 17  2  0  0  0
 16 21  1  0  0  0
 16 31  1  0  0  0
 17 18  1  0  0  0
 17102  1  0  0  0
 18 19  2  0  0  0
 18103  1  0  0  0
 19 20  1  0  0  0
 19 24  1  0  0  0
 20 21  2  0  0  0
 20104  1  0  0  0
 21 23  1  0  0  0
 22 28  1  0  0  0
 22 32  2  0  0  0
 26 27  1  0  0  0
 28105  1  0  0  0
 28106  1  0  0  0
 29107  1  0  0  0
 29108  1  0  0  0
 33 34  1  0  0  0
 33 66  1  0  0  0
 33 70  2  0  0  0
 34 36  1  0  0  0
 34 59  1  0  0  0
 34109  1  0  0  0
 35 44  2  0  0  0
 35 45  1  0  0  0
 35 68  1  0  0  0
 36 56  1  0  0  0
 36110  1  0  0  0
 37 39  1  0  0  0
 37 47  1  0  0  0
 37 66  1  0  0  0
 37111  1  0  0  0
 38 43  2  0  0  0
 38 46  1  0  0  0
 38 47  1  0  0  0
 39 64  1  0  0  0
 39 67  2  0  0  0
 40 52  1  0  0  0
 40 53  2  0  0  0
 40 58  1  0  0  0
 41112  1  0  0  0
 41113  1  0  0  0
 41114  1  0  0  0
 41 48  1  0  0  0
 42 43  1  0  0  0
 42 66  1  0  0  0
 42115  1  0  0  0
 42116  1  0  0  0
 43 44  1  0  0  0
 44117  1  0  0  0
 45 46  2  0  0  0
 45118  1  0  0  0
 46119  1  0  0  0
 47120  1  0  0  0
 47121  1  0  0  0
 48 56  1  0  0  0
 48 65  1  0  0  0
 48122  1  0  0  0
 49 50  1  0  0  0
 49 53  1  0  0  0
 49 64  1  0  0  0
 49123  1  0  0  0
 50 51  1  0  0  0
 50124  1  0  0  0
 50125  1  0  0  0
 51 52  1  0  0  0
 51126  1  0  0  0
 51127  1  0  0  0
 52128  1  0  0  0
 52129  1  0  0  0
 53 54  1  0  0  0
 54 55  2  0  0  0
 54130  1  0  0  0
 55 57  1  0  0  0
 55131  1  0  0  0
 56 69  2  0  0  0
 57 58  2  0  0  0
 57132  1  0  0  0
 58133  1  0  0  0
 59 60  1  0  0  0
 59 61  1  0  0  0
 59 62  1  0  0  0
 60134  1  0  0  0
 60135  1  0  0  0
 60136  1  0  0  0
 61137  1  0  0  0
 61138  1  0  0  0
 61139  1  0  0  0
 62140  1  0  0  0
 62141  1  0  0  0
 62142  1  0  0  0
 63 65  1  0  0  0
 63143  1  0  0  0
 63144  1  0  0  0
 63145  1  0  0  0
 64146  1  0  0  0
 65147  1  0  0  0
 68 83  1  0  0  0
 71 72  2  0  0  0
 71 87  1  0  0  0
 71148  1  0  0  0
 72 73  1  0  0  0
 72 81  1  0  0  0
 73 74  2  0  0  0
 73 86  1  0  0  0
 74 75  1  0  0  0
 74 84  1  0  0  0
 75 87  2  0  0  0
 75 82  1  0  0  0
 76 79  1  0  0  0
 76 81  1  0  0  0
 76149  1  0  0  0
 76150  1  0  0  0
 77 80  1  0  0  0
 77 81  1  0  0  0
 77151  1  0  0  0
 77152  1  0  0  0
 78 82  1  0  0  0
 78 83  1  0  0  0
 78153  1  0  0  0
 78154  1  0  0  0
 79 88  1  0  0  0
 79155  1  0  0  0
 79156  1  0  0  0
 80 88  1  0  0  0
 80157  1  0  0  0
 80158  1  0  0  0
 81159  1  0  0  0
 82 83  1  0  0  0
 82160  1  0  0  0
 83161  1  0  0  0
 84162  1  0  0  0
 84163  1  0  0  0
 84164  1  0  0  0
 85 86  1  0  0  0
 85165  1  0  0  0
 85166  1  0  0  0
 85167  1  0  0  0
 86168  1  0  0  0
 86169  1  0  0  0
M  ISO  4   1 100  68 101  83 101  88 100
M  END
> <chiral flag>
0

> <version>
0

> <s_m_source_file>
/data/baiqing/PycharmProjects/Reinvent-master-3.2/result/LINK_invent/BTK/process_docking_weight1_custom_sum_contain_oxygen_bond_distance_aromatic_linkinvent_7_9_3/rearranged_h_0172.sdf

> <i_m_source_file_index>
75

> <r_mmod_Potential_Energy-OPLS-2005>
68.6534042358398

> <r_mmod_Stretch_Energy-OPLS-2005>
48.1417121887207

> <r_mmod_Bend_Energy-OPLS-2005>
115.019485473633

> <r_mmod_Torsional_Energy-OPLS-2005>
349.572998046875

> <r_mmod_Improper_Torsional_Energy-OPLS-2005>
3.46953153610229

> <r_mmod_Van_der_Waal_Energy-OPLS-2005>
161.119857788086

> <r_mmod_Electrostatic_Energy-OPLS-2005>
-422.886047363281

> <r_mmod_Solvation_Energy-OPLS-2005>
-209.475280761719

> <b_mmod_Minimization_Converged-OPLS-2005>
0

> <r_mmod_RMS_Derivative-OPLS-2005>
1.04213428497314

$$$$
75
                    3D
 Structure written by MMmdl.
179189  0  0  1  0            999 V2000
  -30.6127  -14.8638   20.4233 C   0  0  0  0  0  0
  -30.4342  -12.5280   19.5070 C   0  0  0  0  0  0
  -29.5210  -12.4922   18.2611 C   0  0  0  0  0  0
  -28.0552  -12.2905   18.6864 C   0  0  0  0  0  0
  -27.6317  -13.2401   19.8387 C   0  0  2  0  0  0
  -28.6763  -13.2751   20.9772 C   0  0  0  0  0  0
  -25.2502  -13.8216   20.5738 C   0  0  0  0  0  0
  -24.1774  -13.0482   20.9244 C   0  0  0  0  0  0
  -24.6347  -11.6943   20.8783 C   0  0  0  0  0  0
  -23.9025  -10.4325   21.0442 C   0  0  0  0  0  0
  -24.3589   -9.4249   21.9207 C   0  0  0  0  0  0
  -23.6306   -8.2263   22.0760 C   0  0  0  0  0  0
  -22.4272   -8.0290   21.3553 C   0  0  0  0  0  0
  -21.9892   -9.0255   20.4650 C   0  0  0  0  0  0
  -22.7199  -10.2151   20.3087 C   0  0  0  0  0  0
  -21.6864   -6.0759   22.5285 C   0  0  0  0  0  0
  -21.3992   -6.5643   23.8216 C   0  0  0  0  0  0
  -21.3653   -5.6784   24.9174 C   0  0  0  0  0  0
  -21.6052   -4.3045   24.7219 C   0  0  0  0  0  0
  -21.8810   -3.8157   23.4323 C   0  0  0  0  0  0
  -21.9192   -4.6982   22.3392 C   0  0  0  0  0  0
  -22.7793  -13.5299   21.1855 C   0  0  0  0  0  0
  -22.1672   -4.2175   21.0976 F   0  0  0  0  0  0
  -21.5648   -3.4518   25.7726 F   0  0  0  0  0  0
  -29.9615  -13.6397   20.3723 N   0  0  0  0  0  0
  -26.2883  -12.9419   20.3263 N   0  0  0  0  0  0
  -25.9286  -11.6567   20.5754 N   0  0  0  0  0  0
  -22.0373  -12.8363   22.0404 N   0  0  0  0  0  0
  -25.4284  -15.1934   20.4214 N   0  0  0  0  0  0
  -31.8183  -14.8787   20.1513 O   0  0  0  0  0  0
  -21.6645   -6.8892   21.4248 O   0  0  0  0  0  0
  -22.3525  -14.5588   20.6626 O   0  0  0  0  0  0
  -24.6369  -31.8473   23.1949 C   0  0  0  0  0  0
  -25.9184  -32.4695   23.8306 C   0  0  1  0  0  0
  -27.2106  -27.1943   20.1211 C   0  0  0  0  0  0
  -25.5982  -33.8502   24.2220 N   0  0  0  0  0  0
  -23.4356  -30.4679   21.5418 C   0  0  2  0  0  0
  -24.8813  -28.9074   20.1076 C   0  0  0  0  0  0
  -22.7538  -29.4543   22.4928 C   0  0  0  0  0  0
  -18.0281  -28.1356   22.8463 C   0  0  0  0  0  0
  -24.1493  -36.7257   23.2623 C   0  0  0  0  0  0
  -25.9874  -30.7341   21.3866 C   0  0  0  0  0  0
  -26.0571  -29.3530   20.7240 C   0  0  0  0  0  0
  -27.2233  -28.5092   20.7218 C   0  0  0  0  0  0
  -26.0119  -26.8402   19.4643 C   0  0  0  0  0  0
  -24.8682  -27.6614   19.4630 C   0  0  0  0  0  0
  -23.6543  -29.7987   20.1596 C   0  0  0  0  0  0
  -25.4112  -36.3023   24.0316 C   0  0  1  0  0  0
  -20.5891  -28.3664   23.1264 C   0  0  2  0  0  0
  -20.6765  -26.9378   22.5411 C   0  0  0  0  0  0
  -19.5766  -26.6349   21.5196 C   0  0  0  0  0  0
  -18.1937  -26.7901   22.1586 C   0  0  0  0  0  0
  -19.1545  -28.8832   23.2847 C   0  0  0  0  0  0
  -18.9450  -30.1445   23.8844 C   0  0  0  0  0  0
  -17.6455  -30.6557   24.0523 C   0  0  0  0  0  0
  -25.9084  -34.9411   23.5078 C   0  0  0  0  0  0
  -16.5340  -29.9035   23.6338 C   0  0  0  0  0  0
  -16.7275  -28.6453   23.0355 C   0  0  0  0  0  0
  -26.4519  -31.6547   25.0719 C   0  0  0  0  0  0
  -25.3744  -31.3778   26.1481 C   0  0  0  0  0  0
  -27.0314  -30.2914   24.6282 C   0  0  0  0  0  0
  -27.6115  -32.4258   25.7452 C   0  0  0  0  0  0
  -27.5620  -37.1715   24.8409 C   0  0  0  0  0  0
  -21.4240  -29.3006   22.3675 N   0  0  0  0  0  0
  -26.4253  -37.3767   23.9473 N   0  0  0  0  0  0
  -24.7066  -31.0372   22.0952 N   0  0  0  0  0  0
  -23.4225  -28.8115   23.3054 O   0  0  0  0  0  0
  -28.2768  -26.2428   20.1821 O   0  0  0  0  0  0
  -26.5660  -34.8894   22.4642 O   0  0  0  0  0  0
  -23.5517  -32.1339   23.7213 O   0  0  0  0  0  0
  -30.9046  -21.3512   20.6431 C   0  0  0  0  0  0
  -28.6746  -22.1025   20.1164 C   0  0  0  0  0  0
  -29.5854  -20.9662   20.3232 C   0  0  0  0  0  0
  -31.3177  -22.7034   20.7317 C   0  0  0  0  0  0
  -29.0457  -23.5285   20.2006 C   0  0  0  0  0  0
  -30.4148  -23.7822   20.4951 C   0  0  0  0  0  0
  -29.6060  -18.4824   21.5038 C   0  0  0  0  0  0
  -28.6702  -16.7447   18.2304 C   0  0  0  0  0  0
  -29.3340  -16.8974   21.4557 C   0  0  0  0  0  0
  -29.2676  -19.3609   20.2375 C   0  0  2  0  0  0
  -29.9136  -16.9414   19.0889 C   0  0  1  0  0  0
  -30.0371  -18.5317   19.1297 C   0  0  1  0  0  0
  -28.6658  -17.9183   17.2193 C   0  0  0  0  0  0
  -32.7724  -22.9681   21.1061 C   0  0  0  0  0  0
  -30.9152  -25.2229   20.5443 C   0  0  0  0  0  0
  -29.0310  -17.3850   15.8055 C   0  0  0  0  0  0
  -27.2493  -18.5231   17.1392 C   0  0  0  0  0  0
  -30.7612  -19.3406   16.9106 C   0  0  0  0  0  0
  -28.0079  -24.7544   19.9273 C   0  0  0  0  0  0
  -29.8884  -16.0814   20.3244 N   0  0  0  0  0  0
  -29.6141  -18.9515   17.7699 N   0  3  2  0  0  0
  -31.4764  -12.6508   19.2060 H   0  0  0  0  0  0
  -30.3959  -11.5831   20.0521 H   0  0  0  0  0  0
  -29.8348  -11.6881   17.5932 H   0  0  0  0  0  0
  -29.6176  -13.4230   17.6996 H   0  0  0  0  0  0
  -27.9623  -11.2566   19.0219 H   0  0  0  0  0  0
  -27.3824  -12.3971   17.8339 H   0  0  0  0  0  0
  -27.5939  -14.2356   19.3966 H   0  0  0  0  0  0
  -28.7426  -12.3149   21.4920 H   0  0  0  0  0  0
  -28.3915  -14.0086   21.7328 H   0  0  0  0  0  0
  -25.2732   -9.5757   22.4784 H   0  0  0  0  0  0
  -24.0049   -7.4640   22.7442 H   0  0  0  0  0  0
  -21.0834   -8.8727   19.8943 H   0  0  0  0  0  0
  -22.3634  -10.9689   19.6200 H   0  0  0  0  0  0
  -21.1957   -7.6143   23.9722 H   0  0  0  0  0  0
  -21.1502   -6.0513   25.9081 H   0  0  0  0  0  0
  -22.0592   -2.7627   23.2788 H   0  0  0  0  0  0
  -22.3916  -12.0100   22.4963 H   0  0  0  0  0  0
  -21.0968  -13.1447   22.2447 H   0  0  0  0  0  0
  -24.6738  -15.8566   20.5616 H   0  0  0  0  0  0
  -26.2989  -15.6298   20.1528 H   0  0  0  0  0  0
  -26.7236  -32.5302   23.1028 H   0  0  0  0  0  0
  -25.0138  -33.9628   25.0369 H   0  0  0  0  0  0
  -22.7324  -31.2904   21.3960 H   0  0  0  0  0  0
  -23.3807  -35.9533   23.3111 H   0  0  0  0  0  0
  -24.3645  -36.9066   22.2084 H   0  0  0  0  0  0
  -23.7152  -37.6366   23.6748 H   0  0  0  0  0  0
  -26.1414  -31.4906   20.6163 H   0  0  0  0  0  0
  -26.8598  -30.7781   22.0276 H   0  0  0  0  0  0
  -28.1168  -28.8420   21.2318 H   0  0  0  0  0  0
  -25.9224  -25.8928   18.9531 H   0  0  0  0  0  0
  -23.9722  -27.3160   18.9650 H   0  0  0  0  0  0
  -23.7733  -30.5725   19.4004 H   0  0  0  0  0  0
  -22.7706  -29.2296   19.8631 H   0  0  0  0  0  0
  -25.1260  -36.1832   25.0800 H   0  0  0  0  0  0
  -20.9952  -28.3210   24.1401 H   0  0  0  0  0  0
  -20.5628  -26.2266   23.3614 H   0  0  0  0  0  0
  -21.6634  -26.7367   22.1245 H   0  0  0  0  0  0
  -19.6936  -25.6254   21.1243 H   0  0  0  0  0  0
  -19.6751  -27.3136   20.6714 H   0  0  0  0  0  0
  -17.4236  -26.6655   21.3960 H   0  0  0  0  0  0
  -18.0326  -26.0026   22.8960 H   0  0  0  0  0  0
  -19.7936  -30.7264   24.2181 H   0  0  0  0  0  0
  -17.5009  -31.6243   24.5120 H   0  0  0  0  0  0
  -15.5335  -30.2910   23.7706 H   0  0  0  0  0  0
  -15.8677  -28.0766   22.7076 H   0  0  0  0  0  0
  -24.5881  -30.7151   25.7843 H   0  0  0  0  0  0
  -24.8989  -32.2984   26.4875 H   0  0  0  0  0  0
  -25.8080  -30.8982   27.0266 H   0  0  0  0  0  0
  -26.2874  -29.6682   24.1302 H   0  0  0  0  0  0
  -27.3903  -29.7193   25.4844 H   0  0  0  0  0  0
  -27.8825  -30.4096   23.9570 H   0  0  0  0  0  0
  -27.2755  -33.3552   26.2058 H   0  0  0  0  0  0
  -28.3894  -32.6825   25.0239 H   0  0  0  0  0  0
  -28.0822  -31.8358   26.5327 H   0  0  0  0  0  0
  -28.2449  -38.0190   24.7715 H   0  0  0  0  0  0
  -28.1287  -36.2750   24.5837 H   0  0  0  0  0  0
  -27.2421  -37.0884   25.8811 H   0  0  0  0  0  0
  -20.9439  -29.8726   21.6874 H   0  0  0  0  0  0
  -26.0106  -38.2798   24.1636 H   0  0  0  0  0  0
  -31.6387  -20.5792   20.8263 H   0  0  0  0  0  0
  -27.6432  -21.8782   19.8781 H   0  0  0  0  0  0
  -30.6589  -18.6266   21.7507 H   0  0  0  0  0  0
  -29.0634  -18.8929   22.3556 H   0  0  0  0  0  0
  -27.7838  -16.7783   18.8654 H   0  0  0  0  0  0
  -28.6678  -15.7668   17.7463 H   0  0  0  0  0  0
  -28.2551  -16.7434   21.4435 H   0  0  0  0  0  0
  -29.6695  -16.4606   22.3977 H   0  0  0  0  0  0
  -28.1955  -19.2630   20.0737 H   0  0  0  0  0  0
  -30.7620  -16.6042   18.4885 H   0  0  0  0  0  0
  -31.0973  -18.7569   19.2706 H   0  0  0  0  0  0
  -33.3233  -22.0460   21.2913 H   0  0  0  0  0  0
  -32.8327  -23.5621   22.0205 H   0  0  0  0  0  0
  -33.2919  -23.5002   20.3073 H   0  0  0  0  0  0
  -31.9827  -25.3299   20.7182 H   0  0  0  0  0  0
  -30.4159  -25.7733   21.3402 H   0  0  0  0  0  0
  -30.7117  -25.7187   19.5942 H   0  0  0  0  0  0
  -28.3334  -16.6022   15.5009 H   0  0  0  0  0  0
  -30.0280  -16.9467   15.7589 H   0  0  0  0  0  0
  -28.9619  -18.1563   15.0379 H   0  0  0  0  0  0
  -26.5199  -17.7619   16.8594 H   0  0  0  0  0  0
  -27.1810  -19.3187   16.3947 H   0  0  0  0  0  0
  -26.9217  -18.9392   18.0941 H   0  0  0  0  0  0
  -31.3018  -20.1801   17.3495 H   0  0  0  0  0  0
  -30.4369  -19.6668   15.9231 H   0  0  0  0  0  0
  -31.4706  -18.5212   16.7875 H   0  0  0  0  0  0
  -27.0971  -24.4885   20.4680 H   0  0  0  0  0  0
  -27.7664  -24.6671   18.8670 H   0  0  0  0  0  0
  -29.0870  -19.8033   17.8883 H   0  0  0  0  0  0
  1 25  1  0  0  0
  1 30  2  0  0  0
  1 90  1  0  0  0
  2  3  1  0  0  0
  2 25  1  0  0  0
  2 92  1  0  0  0
  2 93  1  0  0  0
  3  4  1  0  0  0
  3 94  1  0  0  0
  3 95  1  0  0  0
  4  5  1  0  0  0
  4 96  1  0  0  0
  4 97  1  0  0  0
  5  6  1  0  0  0
  5 26  1  0  0  0
  5 98  1  0  0  0
  6 25  1  0  0  0
  6 99  1  0  0  0
  6100  1  0  0  0
  7  8  2  0  0  0
  7 26  1  0  0  0
  7 29  1  0  0  0
  8  9  1  0  0  0
  8 22  1  0  0  0
  9 10  1  0  0  0
  9 27  2  0  0  0
 10 11  2  0  0  0
 10 15  1  0  0  0
 11 12  1  0  0  0
 11101  1  0  0  0
 12 13  2  0  0  0
 12102  1  0  0  0
 13 14  1  0  0  0
 13 31  1  0  0  0
 14 15  2  0  0  0
 14103  1  0  0  0
 15104  1  0  0  0
 16 17  2  0  0  0
 16 21  1  0  0  0
 16 31  1  0  0  0
 17 18  1  0  0  0
 17105  1  0  0  0
 18 19  2  0  0  0
 18106  1  0  0  0
 19 20  1  0  0  0
 19 24  1  0  0  0
 20 21  2  0  0  0
 20107  1  0  0  0
 21 23  1  0  0  0
 22 28  1  0  0  0
 22 32  2  0  0  0
 26 27  1  0  0  0
 28108  1  0  0  0
 28109  1  0  0  0
 29110  1  0  0  0
 29111  1  0  0  0
 33 34  1  0  0  0
 33 66  1  0  0  0
 33 70  2  0  0  0
 34 36  1  0  0  0
 34 59  1  0  0  0
 34112  1  0  0  0
 35 44  2  0  0  0
 35 45  1  0  0  0
 35 68  1  0  0  0
 36 56  1  0  0  0
 36113  1  0  0  0
 37 39  1  0  0  0
 37 47  1  0  0  0
 37 66  1  0  0  0
 37114  1  0  0  0
 38 43  2  0  0  0
 38 46  1  0  0  0
 38 47  1  0  0  0
 39 64  1  0  0  0
 39 67  2  0  0  0
 40 52  1  0  0  0
 40 53  2  0  0  0
 40 58  1  0  0  0
 41115  1  0  0  0
 41116  1  0  0  0
 41117  1  0  0  0
 41 48  1  0  0  0
 42 43  1  0  0  0
 42 66  1  0  0  0
 42118  1  0  0  0
 42119  1  0  0  0
 43 44  1  0  0  0
 44120  1  0  0  0
 45 46  2  0  0  0
 45121  1  0  0  0
 46122  1  0  0  0
 47123  1  0  0  0
 47124  1  0  0  0
 48 56  1  0  0  0
 48 65  1  0  0  0
 48125  1  0  0  0
 49 50  1  0  0  0
 49 53  1  0  0  0
 49 64  1  0  0  0
 49126  1  0  0  0
 50 51  1  0  0  0
 50127  1  0  0  0
 50128  1  0  0  0
 51 52  1  0  0  0
 51129  1  0  0  0
 51130  1  0  0  0
 52131  1  0  0  0
 52132  1  0  0  0
 53 54  1  0  0  0
 54 55  2  0  0  0
 54133  1  0  0  0
 55 57  1  0  0  0
 55134  1  0  0  0
 56 69  2  0  0  0
 57 58  2  0  0  0
 57135  1  0  0  0
 58136  1  0  0  0
 59 60  1  0  0  0
 59 61  1  0  0  0
 59 62  1  0  0  0
 60137  1  0  0  0
 60138  1  0  0  0
 60139  1  0  0  0
 61140  1  0  0  0
 61141  1  0  0  0
 61142  1  0  0  0
 62143  1  0  0  0
 62144  1  0  0  0
 62145  1  0  0  0
 63 65  1  0  0  0
 63146  1  0  0  0
 63147  1  0  0  0
 63148  1  0  0  0
 64149  1  0  0  0
 65150  1  0  0  0
 68 89  1  0  0  0
 71 73  2  0  0  0
 71 74  1  0  0  0
 71151  1  0  0  0
 72 73  1  0  0  0
 72 75  2  0  0  0
 72152  1  0  0  0
 73 80  1  0  0  0
 74 76  2  0  0  0
 74 84  1  0  0  0
 75 76  1  0  0  0
 75 89  1  0  0  0
 76 85  1  0  0  0
 77 79  1  0  0  0
 77 80  1  0  0  0
 77153  1  0  0  0
 77154  1  0  0  0
 78 83  1  0  0  0
 78155  1  0  0  0
 78156  1  0  0  0
 78 81  1  0  0  0
 79 90  1  0  0  0
 79157  1  0  0  0
 79158  1  0  0  0
 80159  1  0  0  0
 80 82  1  0  0  0
 81 82  1  0  0  0
 81 90  1  0  0  0
 81160  1  0  0  0
 82 91  1  0  0  0
 82161  1  0  0  0
 83 86  1  0  0  0
 83 87  1  0  0  0
 83 91  1  0  0  0
 84162  1  0  0  0
 84163  1  0  0  0
 84164  1  0  0  0
 85165  1  0  0  0
 85166  1  0  0  0
 85167  1  0  0  0
 86168  1  0  0  0
 86169  1  0  0  0
 86170  1  0  0  0
 87171  1  0  0  0
 87172  1  0  0  0
 87173  1  0  0  0
 88174  1  0  0  0
 88175  1  0  0  0
 88176  1  0  0  0
 88 91  1  0  0  0
 89177  1  0  0  0
 89178  1  0  0  0
 91179  1  0  0  0
M  CHG  1  91   1
M  ISO  4   1 100  68 101  89 101  90 100
M  END
> <chiral flag>
0

> <version>
0

> <s_m_source_file>
/data/baiqing/PycharmProjects/Reinvent-master-3.2/result/LINK_invent/BTK/process_docking_weight1_custom_sum_contain_oxygen_bond_distance_aromatic_linkinvent_7_9_3/rearranged_h_0172.sdf

> <i_m_source_file_index>
76

> <r_mmod_Potential_Energy-OPLS-2005>
554.21826171875

> <r_mmod_Stretch_Energy-OPLS-2005>
183.80842590332

> <r_mmod_Bend_Energy-OPLS-2005>
253.386993408203

> <r_mmod_Torsional_Energy-OPLS-2005>
432.176879882812

> <r_mmod_Improper_Torsional_Energy-OPLS-2005>
14.1470584869385

> <r_mmod_Van_der_Waal_Energy-OPLS-2005>
132.286911010742

> <r_mmod_Electrostatic_Energy-OPLS-2005>
-197.91259765625

> <r_mmod_Solvation_Energy-OPLS-2005>
-407.811157226562

> <b_mmod_Minimization_Converged-OPLS-2005>
0

> <r_mmod_RMS_Derivative-OPLS-2005>
4.07032871246338

$$$$
76
                    3D
 Structure written by MMmdl.
150159  0  0  1  0            999 V2000
  -30.3976  -15.4786   20.3551 C   0  0  0  0  0  0
  -30.4239  -12.9666   19.5397 C   0  0  0  0  0  0
  -29.5406  -12.6185   18.3124 C   0  0  0  0  0  0
  -28.1060  -12.2951   18.7537 C   0  0  0  0  0  0
  -27.6002  -13.2969   19.8183 C   0  0  2  0  0  0
  -28.6230  -13.5833   20.9437 C   0  0  0  0  0  0
  -25.2354  -13.8286   20.5808 C   0  0  0  0  0  0
  -24.1721  -13.0450   20.9286 C   0  0  0  0  0  0
  -24.6395  -11.6954   20.8764 C   0  0  0  0  0  0
  -23.9091  -10.4306   21.0393 C   0  0  0  0  0  0
  -24.3628   -9.4218   21.9173 C   0  0  0  0  0  0
  -23.6301   -8.2252   22.0746 C   0  0  0  0  0  0
  -22.4287   -8.0285   21.3538 C   0  0  0  0  0  0
  -21.9921   -9.0262   20.4641 C   0  0  0  0  0  0
  -22.7255  -10.2139   20.3049 C   0  0  0  0  0  0
  -21.6857   -6.0736   22.5275 C   0  0  0  0  0  0
  -21.4017   -6.5639   23.8207 C   0  0  0  0  0  0
  -21.3657   -5.6788   24.9169 C   0  0  0  0  0  0
  -21.6040   -4.3051   24.7215 C   0  0  0  0  0  0
  -21.8823   -3.8145   23.4338 C   0  0  0  0  0  0
  -21.9195   -4.6963   22.3397 C   0  0  0  0  0  0
  -22.7735  -13.5191   21.1916 C   0  0  0  0  0  0
  -22.1665   -4.2148   21.0976 F   0  0  0  0  0  0
  -21.5622   -3.4537   25.7730 F   0  0  0  0  0  0
  -29.8214  -14.1504   20.2937 N   0  0  0  0  0  0
  -26.2782  -12.9590   20.3250 N   0  0  0  0  0  0
  -25.9337  -11.6675   20.5711 N   0  0  0  0  0  0
  -22.0387  -12.8176   22.0462 N   0  0  0  0  0  0
  -25.4021  -15.2019   20.4278 N   0  0  0  0  0  0
  -31.6171  -15.3899   20.1201 O   0  0  0  0  0  0
  -21.6645   -6.8881   21.4239 O   0  0  0  0  0  0
  -22.3419  -14.5494   20.6755 O   0  0  0  0  0  0
  -24.6761  -31.8091   23.1595 C   0  0  0  0  0  0
  -25.9392  -32.4506   23.8099 C   0  0  1  0  0  0
  -27.2206  -26.7936   20.2012 C   0  0  0  0  0  0
  -25.6025  -33.8325   24.2015 N   0  0  0  0  0  0
  -23.4974  -30.4156   21.5095 C   0  0  2  0  0  0
  -24.9548  -28.7792   20.1074 C   0  0  0  0  0  0
  -22.7738  -29.4365   22.4726 C   0  0  0  0  0  0
  -18.0337  -28.1418   22.8462 C   0  0  0  0  0  0
  -24.1491  -36.7152   23.2642 C   0  0  0  0  0  0
  -26.0720  -30.5724   21.4094 C   0  0  0  0  0  0
  -26.1379  -29.1470   20.7587 C   0  0  0  0  0  0
  -27.2566  -28.1769   20.7832 C   0  0  0  0  0  0
  -26.0149  -26.6210   19.4793 C   0  0  0  0  0  0
  -24.9278  -27.5411   19.4433 C   0  0  0  0  0  0
  -23.7459  -29.7221   20.1389 C   0  0  0  0  0  0
  -25.4130  -36.2909   24.0297 C   0  0  1  0  0  0
  -20.5970  -28.3771   23.1158 C   0  0  2  0  0  0
  -20.6806  -26.9438   22.5402 C   0  0  0  0  0  0
  -19.5774  -26.6381   21.5220 C   0  0  0  0  0  0
  -18.1960  -26.7949   22.1626 C   0  0  0  0  0  0
  -19.1603  -28.8919   23.2793 C   0  0  0  0  0  0
  -18.9505  -30.1507   23.8830 C   0  0  0  0  0  0
  -17.6496  -30.6599   24.0553 C   0  0  0  0  0  0
  -25.9117  -34.9305   23.4979 C   0  0  0  0  0  0
  -16.5386  -29.9083   23.6345 C   0  0  0  0  0  0
  -16.7319  -28.6506   23.0361 C   0  0  0  0  0  0
  -26.4611  -31.6482   25.0662 C   0  0  0  0  0  0
  -25.3726  -31.3776   26.1316 C   0  0  0  0  0  0
  -27.0510  -30.2825   24.6473 C   0  0  0  0  0  0
  -27.6098  -32.4300   25.7463 C   0  0  0  0  0  0
  -27.5564  -37.1719   24.8460 C   0  0  0  0  0  0
  -21.4392  -29.3031   22.3483 N   0  0  0  0  0  0
  -26.4250  -37.3674   23.9439 N   0  0  0  0  0  0
  -24.7709  -30.9636   22.0789 N   0  0  0  0  0  0
  -23.4233  -28.7959   23.3032 O   0  0  0  0  0  0
  -28.1722  -25.6023   20.3359 O   0  0  0  0  0  0
  -26.5722  -34.8870   22.4572 O   0  0  0  0  0  0
  -23.5808  -32.1117   23.6617 O   0  0  0  0  0  0
  -28.0319  -21.5949   21.5249 C   0  0  0  0  0  0
  -29.3834  -19.6683   20.0044 C   0  0  0  0  0  0
  -28.5378  -22.2830   20.3517 C   0  0  0  0  0  0
  -29.2523  -21.1526   19.5894 C   0  0  0  0  0  0
  -28.7829  -19.2659   21.1562 C   0  0  0  0  0  0
  -30.0371  -18.2140   19.4942 C   0  0  0  0  0  0
  -28.9397  -17.6594   21.4084 C   0  0  0  0  0  0
  -29.8603  -21.5288   18.2553 C   0  0  0  0  0  0
  -27.9979  -23.9640   19.8773 C   0  0  0  0  0  0
  -28.1329  -20.2340   21.8990 N   0  0  0  0  0  0
  -29.7223  -16.8597   20.3241 N   0  0  0  0  0  0
  -31.4328  -13.1829   19.1864 H   0  0  0  0  0  0
  -30.5368  -12.1010   20.1944 H   0  0  0  0  0  0
  -29.9662  -11.7791   17.7607 H   0  0  0  0  0  0
  -29.5273  -13.4653   17.6250 H   0  0  0  0  0  0
  -28.1088  -11.2887   19.1742 H   0  0  0  0  0  0
  -27.4339  -12.2679   17.8949 H   0  0  0  0  0  0
  -27.4809  -14.2321   19.2694 H   0  0  0  0  0  0
  -28.8468  -12.6904   21.5299 H   0  0  0  0  0  0
  -28.2173  -14.3188   21.6405 H   0  0  0  0  0  0
  -25.2758   -9.5702   22.4761 H   0  0  0  0  0  0
  -24.0006   -7.4644   22.7470 H   0  0  0  0  0  0
  -21.0848   -8.8784   19.8951 H   0  0  0  0  0  0
  -22.3699  -10.9680   19.6166 H   0  0  0  0  0  0
  -21.2017   -7.6149   23.9713 H   0  0  0  0  0  0
  -21.1472   -6.0516   25.9071 H   0  0  0  0  0  0
  -22.0607   -2.7610   23.2833 H   0  0  0  0  0  0
  -22.4007  -11.9843   22.4861 H   0  0  0  0  0  0
  -21.0997  -13.1191   22.2659 H   0  0  0  0  0  0
  -24.6377  -15.8568   20.5516 H   0  0  0  0  0  0
  -26.2510  -15.6419   20.0968 H   0  0  0  0  0  0
  -26.7460  -32.5012   23.0805 H   0  0  0  0  0  0
  -25.0175  -33.9374   25.0174 H   0  0  0  0  0  0
  -22.8172  -31.2506   21.3298 H   0  0  0  0  0  0
  -23.3780  -35.9450   23.3229 H   0  0  0  0  0  0
  -24.3591  -36.8870   22.2074 H   0  0  0  0  0  0
  -23.7210  -37.6303   23.6740 H   0  0  0  0  0  0
  -26.2629  -31.3022   20.6211 H   0  0  0  0  0  0
  -26.9286  -30.6389   22.0677 H   0  0  0  0  0  0
  -28.1408  -28.4549   21.3385 H   0  0  0  0  0  0
  -25.8652  -25.6819   18.9670 H   0  0  0  0  0  0
  -24.0364  -27.2569   18.9011 H   0  0  0  0  0  0
  -23.9105  -30.4877   19.3801 H   0  0  0  0  0  0
  -22.8527  -29.1840   19.8163 H   0  0  0  0  0  0
  -25.1321  -36.1666   25.0782 H   0  0  0  0  0  0
  -21.0056  -28.3383   24.1285 H   0  0  0  0  0  0
  -20.5682  -26.2395   23.3658 H   0  0  0  0  0  0
  -21.6667  -26.7397   22.1213 H   0  0  0  0  0  0
  -19.6931  -25.6281   21.1279 H   0  0  0  0  0  0
  -19.6710  -27.3168   20.6730 H   0  0  0  0  0  0
  -17.4236  -26.6699   21.4025 H   0  0  0  0  0  0
  -18.0340  -26.0105   22.9030 H   0  0  0  0  0  0
  -19.7980  -30.7342   24.2169 H   0  0  0  0  0  0
  -17.5044  -31.6271   24.5169 H   0  0  0  0  0  0
  -15.5380  -30.2963   23.7703 H   0  0  0  0  0  0
  -15.8721  -28.0806   22.7101 H   0  0  0  0  0  0
  -24.5973  -30.7027   25.7671 H   0  0  0  0  0  0
  -24.8845  -32.2981   26.4519 H   0  0  0  0  0  0
  -25.7974  -30.9139   27.0229 H   0  0  0  0  0  0
  -26.3202  -29.6487   24.1439 H   0  0  0  0  0  0
  -27.3951  -29.7200   25.5163 H   0  0  0  0  0  0
  -27.9183  -30.3962   23.9967 H   0  0  0  0  0  0
  -27.2683  -33.3686   26.1833 H   0  0  0  0  0  0
  -28.4016  -32.6707   25.0357 H   0  0  0  0  0  0
  -28.0637  -31.8546   26.5542 H   0  0  0  0  0  0
  -28.2500  -38.0090   24.7588 H   0  0  0  0  0  0
  -28.1133  -36.2626   24.6164 H   0  0  0  0  0  0
  -27.2307  -37.1208   25.8861 H   0  0  0  0  0  0
  -20.9677  -29.8695   21.6568 H   0  0  0  0  0  0
  -26.0069  -38.2703   24.1512 H   0  0  0  0  0  0
  -27.4268  -22.1730   22.2076 H   0  0  0  0  0  0
  -31.1207  -18.3311   19.4510 H   0  0  0  0  0  0
  -29.7150  -18.0491   18.4655 H   0  0  0  0  0  0
  -27.9416  -17.2290   21.4946 H   0  0  0  0  0  0
  -29.4285  -17.5058   22.3711 H   0  0  0  0  0  0
  -30.6279  -20.8148   17.9575 H   0  0  0  0  0  0
  -30.3218  -22.5153   18.3069 H   0  0  0  0  0  0
  -29.0937  -21.5484   17.4811 H   0  0  0  0  0  0
  -26.9156  -23.8394   19.9014 H   0  0  0  0  0  0
  -28.2271  -23.9966   18.8123 H   0  0  0  0  0  0
  1 25  1  0  0  0
  1 30  2  0  0  0
  1 81  1  0  0  0
  2  3  1  0  0  0
  2 25  1  0  0  0
  2 82  1  0  0  0
  2 83  1  0  0  0
  3  4  1  0  0  0
  3 84  1  0  0  0
  3 85  1  0  0  0
  4  5  1  0  0  0
  4 86  1  0  0  0
  4 87  1  0  0  0
  5  6  1  0  0  0
  5 26  1  0  0  0
  5 88  1  0  0  0
  6 25  1  0  0  0
  6 89  1  0  0  0
  6 90  1  0  0  0
  7  8  2  0  0  0
  7 26  1  0  0  0
  7 29  1  0  0  0
  8  9  1  0  0  0
  8 22  1  0  0  0
  9 10  1  0  0  0
  9 27  2  0  0  0
 10 11  2  0  0  0
 10 15  1  0  0  0
 11 12  1  0  0  0
 11 91  1  0  0  0
 12 13  2  0  0  0
 12 92  1  0  0  0
 13 14  1  0  0  0
 13 31  1  0  0  0
 14 15  2  0  0  0
 14 93  1  0  0  0
 15 94  1  0  0  0
 16 17  2  0  0  0
 16 21  1  0  0  0
 16 31  1  0  0  0
 17 18  1  0  0  0
 17 95  1  0  0  0
 18 19  2  0  0  0
 18 96  1  0  0  0
 19 20  1  0  0  0
 19 24  1  0  0  0
 20 21  2  0  0  0
 20 97  1  0  0  0
 21 23  1  0  0  0
 22 28  1  0  0  0
 22 32  2  0  0  0
 26 27  1  0  0  0
 28 98  1  0  0  0
 28 99  1  0  0  0
 29100  1  0  0  0
 29101  1  0  0  0
 33 34  1  0  0  0
 33 66  1  0  0  0
 33 70  2  0  0  0
 34 36  1  0  0  0
 34 59  1  0  0  0
 34102  1  0  0  0
 35 44  2  0  0  0
 35 45  1  0  0  0
 35 68  1  0  0  0
 36 56  1  0  0  0
 36103  1  0  0  0
 37 39  1  0  0  0
 37 47  1  0  0  0
 37 66  1  0  0  0
 37104  1  0  0  0
 38 43  2  0  0  0
 38 46  1  0  0  0
 38 47  1  0  0  0
 39 64  1  0  0  0
 39 67  2  0  0  0
 40 52  1  0  0  0
 40 53  2  0  0  0
 40 58  1  0  0  0
 41105  1  0  0  0
 41106  1  0  0  0
 41107  1  0  0  0
 41 48  1  0  0  0
 42 43  1  0  0  0
 42 66  1  0  0  0
 42108  1  0  0  0
 42109  1  0  0  0
 43 44  1  0  0  0
 44110  1  0  0  0
 45 46  2  0  0  0
 45111  1  0  0  0
 46112  1  0  0  0
 47113  1  0  0  0
 47114  1  0  0  0
 48 56  1  0  0  0
 48 65  1  0  0  0
 48115  1  0  0  0
 49 50  1  0  0  0
 49 53  1  0  0  0
 49 64  1  0  0  0
 49116  1  0  0  0
 50 51  1  0  0  0
 50117  1  0  0  0
 50118  1  0  0  0
 51 52  1  0  0  0
 51119  1  0  0  0
 51120  1  0  0  0
 52121  1  0  0  0
 52122  1  0  0  0
 53 54  1  0  0  0
 54 55  2  0  0  0
 54123  1  0  0  0
 55 57  1  0  0  0
 55124  1  0  0  0
 56 69  2  0  0  0
 57 58  2  0  0  0
 57125  1  0  0  0
 58126  1  0  0  0
 59 60  1  0  0  0
 59 61  1  0  0  0
 59 62  1  0  0  0
 60127  1  0  0  0
 60128  1  0  0  0
 60129  1  0  0  0
 61130  1  0  0  0
 61131  1  0  0  0
 61132  1  0  0  0
 62133  1  0  0  0
 62134  1  0  0  0
 62135  1  0  0  0
 63 65  1  0  0  0
 63136  1  0  0  0
 63137  1  0  0  0
 63138  1  0  0  0
 64139  1  0  0  0
 65140  1  0  0  0
 68 79  1  0  0  0
 71 73  2  0  0  0
 71 80  1  0  0  0
 71141  1  0  0  0
 72 74  2  0  0  0
 72 75  1  0  0  0
 72 76  1  0  0  0
 73 74  1  0  0  0
 73 79  1  0  0  0
 74 78  1  0  0  0
 75 77  1  0  0  0
 75 80  2  0  0  0
 76 81  1  0  0  0
 76142  1  0  0  0
 76143  1  0  0  0
 77 81  1  0  0  0
 77144  1  0  0  0
 77145  1  0  0  0
 78146  1  0  0  0
 78147  1  0  0  0
 78148  1  0  0  0
 79149  1  0  0  0
 79150  1  0  0  0
M  ISO  4   1 100  68 101  79 101  81 100
M  END
> <chiral flag>
0

> <version>
0

> <s_m_source_file>
/data/baiqing/PycharmProjects/Reinvent-master-3.2/result/LINK_invent/BTK/process_docking_weight1_custom_sum_contain_oxygen_bond_distance_aromatic_linkinvent_7_9_3/rearranged_h_0172.sdf

> <i_m_source_file_index>
77

> <r_mmod_Potential_Energy-OPLS-2005>
1708.04748535156

> <r_mmod_Stretch_Energy-OPLS-2005>
719.378479003906

> <r_mmod_Bend_Energy-OPLS-2005>
572.276306152344

> <r_mmod_Torsional_Energy-OPLS-2005>
271.00244140625

> <r_mmod_Improper_Torsional_Energy-OPLS-2005>
14.533579826355

> <r_mmod_Van_der_Waal_Energy-OPLS-2005>
118.55736541748

> <r_mmod_Electrostatic_Energy-OPLS-2005>
-457.557373046875

> <r_mmod_Solvation_Energy-OPLS-2005>
-230.063217163086

> <b_mmod_Minimization_Converged-OPLS-2005>
0

> <r_mmod_RMS_Derivative-OPLS-2005>
1.2452484369278

$$$$
77
                    3D
 Structure written by MMmdl.
170179  0  0  1  0            999 V2000
  -30.3793  -15.3679   20.3207 C   0  0  0  0  0  0
  -30.4302  -12.8775   19.5164 C   0  0  0  0  0  0
  -29.5339  -12.5954   18.2816 C   0  0  0  0  0  0
  -28.0889  -12.2937   18.7159 C   0  0  0  0  0  0
  -27.6067  -13.2723   19.8151 C   0  0  2  0  0  0
  -28.6345  -13.5033   20.9429 C   0  0  0  0  0  0
  -25.2435  -13.8116   20.5729 C   0  0  0  0  0  0
  -24.1758  -13.0396   20.9225 C   0  0  0  0  0  0
  -24.6407  -11.6877   20.8753 C   0  0  0  0  0  0
  -23.9077  -10.4270   21.0414 C   0  0  0  0  0  0
  -24.3626   -9.4190   21.9191 C   0  0  0  0  0  0
  -23.6288   -8.2240   22.0754 C   0  0  0  0  0  0
  -22.4266   -8.0290   21.3554 C   0  0  0  0  0  0
  -21.9922   -9.0254   20.4644 C   0  0  0  0  0  0
  -22.7253  -10.2125   20.3057 C   0  0  0  0  0  0
  -21.6842   -6.0735   22.5267 C   0  0  0  0  0  0
  -21.4001   -6.5632   23.8200 C   0  0  0  0  0  0
  -21.3652   -5.6803   24.9172 C   0  0  0  0  0  0
  -21.6045   -4.3064   24.7228 C   0  0  0  0  0  0
  -21.8818   -3.8152   23.4345 C   0  0  0  0  0  0
  -21.9191   -4.6964   22.3404 C   0  0  0  0  0  0
  -22.7816  -13.5197   21.1895 C   0  0  0  0  0  0
  -22.1661   -4.2152   21.0985 F   0  0  0  0  0  0
  -21.5638   -3.4543   25.7735 F   0  0  0  0  0  0
  -29.8466  -14.0367   20.2980 N   0  0  0  0  0  0
  -26.2830  -12.9412   20.3203 N   0  0  0  0  0  0
  -25.9346  -11.6529   20.5696 N   0  0  0  0  0  0
  -22.0496  -12.8165   22.0439 N   0  0  0  0  0  0
  -25.4267  -15.1775   20.4125 N   0  0  0  0  0  0
  -31.6073  -15.3627   20.1212 O   0  0  0  0  0  0
  -21.6628   -6.8880   21.4237 O   0  0  0  0  0  0
  -22.3510  -14.5542   20.6771 O   0  0  0  0  0  0
  -24.6637  -31.8177   23.1621 C   0  0  0  0  0  0
  -25.9292  -32.4544   23.8131 C   0  0  1  0  0  0
  -27.2157  -26.8644   20.1922 C   0  0  0  0  0  0
  -25.5914  -33.8366   24.2001 N   0  0  0  0  0  0
  -23.4855  -30.4236   21.5096 C   0  0  2  0  0  0
  -24.9416  -28.7967   20.1102 C   0  0  0  0  0  0
  -22.7720  -29.4355   22.4684 C   0  0  0  0  0  0
  -18.0347  -28.1395   22.8455 C   0  0  0  0  0  0
  -24.1473  -36.7218   23.2665 C   0  0  0  0  0  0
  -26.0584  -30.6031   21.4032 C   0  0  0  0  0  0
  -26.1219  -29.1832   20.7538 C   0  0  0  0  0  0
  -27.2472  -28.2346   20.7738 C   0  0  0  0  0  0
  -26.0072  -26.6458   19.4915 C   0  0  0  0  0  0
  -24.9113  -27.5518   19.4591 C   0  0  0  0  0  0
  -23.7332  -29.7350   20.1371 C   0  0  0  0  0  0
  -25.4112  -36.2923   24.0289 C   0  0  1  0  0  0
  -20.5973  -28.3742   23.1133 C   0  0  2  0  0  0
  -20.6804  -26.9412   22.5370 C   0  0  0  0  0  0
  -19.5776  -26.6355   21.5183 C   0  0  0  0  0  0
  -18.1964  -26.7940   22.1593 C   0  0  0  0  0  0
  -19.1611  -28.8883   23.2765 C   0  0  0  0  0  0
  -18.9540  -30.1479   23.8795 C   0  0  0  0  0  0
  -17.6522  -30.6580   24.0556 C   0  0  0  0  0  0
  -25.9087  -34.9316   23.4975 C   0  0  0  0  0  0
  -16.5407  -29.9073   23.6336 C   0  0  0  0  0  0
  -16.7332  -28.6499   23.0355 C   0  0  0  0  0  0
  -26.4529  -31.6548   25.0696 C   0  0  0  0  0  0
  -25.3593  -31.3870   26.1295 C   0  0  0  0  0  0
  -27.0469  -30.2909   24.6494 C   0  0  0  0  0  0
  -27.5998  -32.4413   25.7493 C   0  0  0  0  0  0
  -27.5541  -37.1746   24.8466 C   0  0  0  0  0  0
  -21.4372  -29.3032   22.3481 N   0  0  0  0  0  0
  -26.4243  -37.3669   23.9423 N   0  0  0  0  0  0
  -24.7565  -30.9800   22.0775 N   0  0  0  0  0  0
  -23.4250  -28.7924   23.2938 O   0  0  0  0  0  0
  -28.2105  -25.7401   20.3255 O   0  0  0  0  0  0
  -26.5739  -34.8871   22.4599 O   0  0  0  0  0  0
  -23.5675  -32.1181   23.6645 O   0  0  0  0  0  0
  -26.5014  -18.5819   20.2152 C   0  0  0  0  0  0
  -25.1951  -19.4936   17.9047 C   0  0  0  0  0  0
  -27.2566  -19.1549   19.1745 C   0  0  0  0  0  0
  -25.0963  -18.5324   20.1458 C   0  0  0  0  0  0
  -24.4366  -19.0228   18.9965 C   0  0  0  0  0  0
  -26.6075  -19.5845   17.9909 C   0  0  0  0  0  0
  -29.5676  -19.5660   21.1850 C   0  0  0  0  0  0
  -28.7511  -19.4106   19.3799 C   0  0  1  0  0  0
  -29.1978  -20.8310   20.1564 C   0  0  2  0  0  0
  -29.7888  -18.3291   20.1180 C   0  0  2  0  0  0
  -24.3231  -17.9903   21.3374 C   0  0  0  0  0  0
  -22.9220  -19.0944   18.9466 C   0  0  0  0  0  0
  -27.0426  -22.1348   21.2024 C   0  0  0  0  0  0
  -26.7610  -20.6316   15.8238 C   0  0  0  0  0  0
  -28.2636  -24.1267   19.8477 C   0  0  0  0  0  0
  -28.4157  -22.4513   20.5996 C   0  0  2  0  0  0
  -29.5920  -16.6519   20.3732 N   0  0  0  0  0  0
  -27.3914  -20.1135   16.9862 O   0  0  0  0  0  0
  -31.4434  -13.0980   19.1841 H   0  0  0  0  0  0
  -30.5147  -11.9851   20.1389 H   0  0  0  0  0  0
  -29.9370  -11.7639   17.7019 H   0  0  0  0  0  0
  -29.5445  -13.4608   17.6168 H   0  0  0  0  0  0
  -28.0625  -11.2738   19.0937 H   0  0  0  0  0  0
  -27.4195  -12.3229   17.8550 H   0  0  0  0  0  0
  -27.5037  -14.2259   19.2965 H   0  0  0  0  0  0
  -28.8281  -12.5911   21.5087 H   0  0  0  0  0  0
  -28.2548  -14.2392   21.6535 H   0  0  0  0  0  0
  -25.2772   -9.5678   22.4750 H   0  0  0  0  0  0
  -24.0000   -7.4632   22.7474 H   0  0  0  0  0  0
  -21.0862   -8.8764   19.8939 H   0  0  0  0  0  0
  -22.3708  -10.9669   19.6167 H   0  0  0  0  0  0
  -21.1973   -7.6136   23.9691 H   0  0  0  0  0  0
  -21.1483   -6.0540   25.9072 H   0  0  0  0  0  0
  -22.0608   -2.7608   23.2847 H   0  0  0  0  0  0
  -22.4103  -11.9742   22.4698 H   0  0  0  0  0  0
  -21.1130  -13.1181   22.2720 H   0  0  0  0  0  0
  -24.6725  -15.8469   20.4926 H   0  0  0  0  0  0
  -26.2866  -15.5990   20.0916 H   0  0  0  0  0  0
  -26.7385  -32.5017   23.0857 H   0  0  0  0  0  0
  -24.9925  -33.9452   25.0039 H   0  0  0  0  0  0
  -22.8001  -31.2532   21.3247 H   0  0  0  0  0  0
  -23.3688  -35.9580   23.3283 H   0  0  0  0  0  0
  -24.3558  -36.8945   22.2094 H   0  0  0  0  0  0
  -23.7288  -37.6405   23.6785 H   0  0  0  0  0  0
  -26.2486  -31.3423   20.6233 H   0  0  0  0  0  0
  -26.9145  -30.6704   22.0629 H   0  0  0  0  0  0
  -28.1348  -28.5190   21.3203 H   0  0  0  0  0  0
  -25.8671  -25.6965   18.9970 H   0  0  0  0  0  0
  -24.0147  -27.2464   18.9344 H   0  0  0  0  0  0
  -23.9051  -30.5072   19.3865 H   0  0  0  0  0  0
  -22.8424  -29.1965   19.8055 H   0  0  0  0  0  0
  -25.1304  -36.1718   25.0787 H   0  0  0  0  0  0
  -21.0080  -28.3370   24.1243 H   0  0  0  0  0  0
  -20.5681  -26.2377   23.3643 H   0  0  0  0  0  0
  -21.6670  -26.7344   22.1193 H   0  0  0  0  0  0
  -19.6935  -25.6236   21.1287 H   0  0  0  0  0  0
  -19.6733  -27.3097   20.6659 H   0  0  0  0  0  0
  -17.4245  -26.6709   21.3979 H   0  0  0  0  0  0
  -18.0311  -26.0072   22.8977 H   0  0  0  0  0  0
  -19.8014  -30.7297   24.2137 H   0  0  0  0  0  0
  -17.5086  -31.6271   24.5149 H   0  0  0  0  0  0
  -15.5391  -30.2959   23.7685 H   0  0  0  0  0  0
  -15.8749  -28.0781   22.7090 H   0  0  0  0  0  0
  -24.5802  -30.7187   25.7602 H   0  0  0  0  0  0
  -24.8700  -32.3100   26.4432 H   0  0  0  0  0  0
  -25.7725  -30.9258   27.0274 H   0  0  0  0  0  0
  -26.3168  -29.6505   24.1531 H   0  0  0  0  0  0
  -27.4030  -29.7386   25.5202 H   0  0  0  0  0  0
  -27.9093  -30.4082   23.9921 H   0  0  0  0  0  0
  -27.2577  -33.3844   26.1784 H   0  0  0  0  0  0
  -28.3945  -32.6776   25.0396 H   0  0  0  0  0  0
  -28.0495  -31.8726   26.5641 H   0  0  0  0  0  0
  -28.2490  -38.0098   24.7455 H   0  0  0  0  0  0
  -28.1093  -36.2603   24.6316 H   0  0  0  0  0  0
  -27.2269  -37.1407   25.8873 H   0  0  0  0  0  0
  -20.9615  -29.8803   21.6700 H   0  0  0  0  0  0
  -26.0067  -38.2698   24.1492 H   0  0  0  0  0  0
  -27.0034  -18.2442   21.1090 H   0  0  0  0  0  0
  -24.6694  -19.8274   17.0202 H   0  0  0  0  0  0
  -28.7503  -19.3769   21.8841 H   0  0  0  0  0  0
  -30.4647  -19.7694   21.7689 H   0  0  0  0  0  0
  -29.1552  -19.4800   18.3683 H   0  0  0  0  0  0
  -30.1503  -21.1060   19.7007 H   0  0  0  0  0  0
  -30.7709  -18.4859   19.6692 H   0  0  0  0  0  0
  -24.9740  -17.4212   22.0029 H   0  0  0  0  0  0
  -23.5193  -17.3264   21.0203 H   0  0  0  0  0  0
  -23.8868  -18.8084   21.9080 H   0  0  0  0  0  0
  -22.5664  -19.5188   18.0080 H   0  0  0  0  0  0
  -22.5662  -19.7373   19.7520 H   0  0  0  0  0  0
  -22.4692  -18.1116   19.0716 H   0  0  0  0  0  0
  -27.1255  -21.3685   21.9744 H   0  0  0  0  0  0
  -26.3441  -21.7741   20.4477 H   0  0  0  0  0  0
  -26.6051  -23.0192   21.6699 H   0  0  0  0  0  0
  -26.2409  -19.8490   15.2717 H   0  0  0  0  0  0
  -27.5244  -21.0491   15.1692 H   0  0  0  0  0  0
  -26.0690  -21.4382   16.0740 H   0  0  0  0  0  0
  -27.4788  -24.0398   19.0976 H   0  0  0  0  0  0
  -29.1703  -24.1626   19.2472 H   0  0  0  0  0  0
  -29.0073  -22.7228   21.4738 H   0  0  0  0  0  0
  -28.6194  -16.4323   20.5322 H   0  0  0  0  0  0
  1 25  1  0  0  0
  1 30  2  0  0  0
  1 87  1  0  0  0
  2  3  1  0  0  0
  2 25  1  0  0  0
  2 89  1  0  0  0
  2 90  1  0  0  0
  3  4  1  0  0  0
  3 91  1  0  0  0
  3 92  1  0  0  0
  4  5  1  0  0  0
  4 93  1  0  0  0
  4 94  1  0  0  0
  5  6  1  0  0  0
  5 26  1  0  0  0
  5 95  1  0  0  0
  6 25  1  0  0  0
  6 96  1  0  0  0
  6 97  1  0  0  0
  7  8  2  0  0  0
  7 26  1  0  0  0
  7 29  1  0  0  0
  8  9  1  0  0  0
  8 22  1  0  0  0
  9 10  1  0  0  0
  9 27  2  0  0  0
 10 11  2  0  0  0
 10 15  1  0  0  0
 11 12  1  0  0  0
 11 98  1  0  0  0
 12 13  2  0  0  0
 12 99  1  0  0  0
 13 14  1  0  0  0
 13 31  1  0  0  0
 14 15  2  0  0  0
 14100  1  0  0  0
 15101  1  0  0  0
 16 17  2  0  0  0
 16 21  1  0  0  0
 16 31  1  0  0  0
 17 18  1  0  0  0
 17102  1  0  0  0
 18 19  2  0  0  0
 18103  1  0  0  0
 19 20  1  0  0  0
 19 24  1  0  0  0
 20 21  2  0  0  0
 20104  1  0  0  0
 21 23  1  0  0  0
 22 28  1  0  0  0
 22 32  2  0  0  0
 26 27  1  0  0  0
 28105  1  0  0  0
 28106  1  0  0  0
 29107  1  0  0  0
 29108  1  0  0  0
 33 34  1  0  0  0
 33 66  1  0  0  0
 33 70  2  0  0  0
 34 36  1  0  0  0
 34 59  1  0  0  0
 34109  1  0  0  0
 35 44  2  0  0  0
 35 45  1  0  0  0
 35 68  1  0  0  0
 36 56  1  0  0  0
 36110  1  0  0  0
 37 39  1  0  0  0
 37 47  1  0  0  0
 37 66  1  0  0  0
 37111  1  0  0  0
 38 43  2  0  0  0
 38 46  1  0  0  0
 38 47  1  0  0  0
 39 64  1  0  0  0
 39 67  2  0  0  0
 40 52  1  0  0  0
 40 53  2  0  0  0
 40 58  1  0  0  0
 41112  1  0  0  0
 41113  1  0  0  0
 41114  1  0  0  0
 41 48  1  0  0  0
 42 43  1  0  0  0
 42 66  1  0  0  0
 42115  1  0  0  0
 42116  1  0  0  0
 43 44  1  0  0  0
 44117  1  0  0  0
 45 46  2  0  0  0
 45118  1  0  0  0
 46119  1  0  0  0
 47120  1  0  0  0
 47121  1  0  0  0
 48 56  1  0  0  0
 48 65  1  0  0  0
 48122  1  0  0  0
 49 50  1  0  0  0
 49 53  1  0  0  0
 49 64  1  0  0  0
 49123  1  0  0  0
 50 51  1  0  0  0
 50124  1  0  0  0
 50125  1  0  0  0
 51 52  1  0  0  0
 51126  1  0  0  0
 51127  1  0  0  0
 52128  1  0  0  0
 52129  1  0  0  0
 53 54  1  0  0  0
 54 55  2  0  0  0
 54130  1  0  0  0
 55 57  1  0  0  0
 55131  1  0  0  0
 56 69  2  0  0  0
 57 58  2  0  0  0
 57132  1  0  0  0
 58133  1  0  0  0
 59 60  1  0  0  0
 59 61  1  0  0  0
 59 62  1  0  0  0
 60134  1  0  0  0
 60135  1  0  0  0
 60136  1  0  0  0
 61137  1  0  0  0
 61138  1  0  0  0
 61139  1  0  0  0
 62140  1  0  0  0
 62141  1  0  0  0
 62142  1  0  0  0
 63 65  1  0  0  0
 63143  1  0  0  0
 63144  1  0  0  0
 63145  1  0  0  0
 64146  1  0  0  0
 65147  1  0  0  0
 68 85  1  0  0  0
 71 73  2  0  0  0
 71 74  1  0  0  0
 71148  1  0  0  0
 72 75  1  0  0  0
 72 76  2  0  0  0
 72149  1  0  0  0
 73 76  1  0  0  0
 73 78  1  0  0  0
 74 75  2  0  0  0
 74 81  1  0  0  0
 75 82  1  0  0  0
 76 88  1  0  0  0
 77 80  1  0  0  0
 77150  1  0  0  0
 77151  1  0  0  0
 77 79  1  0  0  0
 78 79  1  0  0  0
 78 80  1  0  0  0
 78152  1  0  0  0
 79 86  1  0  0  0
 79153  1  0  0  0
 80 87  1  0  0  0
 80154  1  0  0  0
 81155  1  0  0  0
 81156  1  0  0  0
 81157  1  0  0  0
 82158  1  0  0  0
 82159  1  0  0  0
 82160  1  0  0  0
 83161  1  0  0  0
 83162  1  0  0  0
 83163  1  0  0  0
 83 86  1  0  0  0
 84 88  1  0  0  0
 84164  1  0  0  0
 84165  1  0  0  0
 84166  1  0  0  0
 85 86  1  0  0  0
 85167  1  0  0  0
 85168  1  0  0  0
 86169  1  0  0  0
 87170  1  0  0  0
M  ISO  4   1 100  68 101  85 101  87 100
M  END
> <chiral flag>
0

> <version>
0

> <s_m_source_file>
/data/baiqing/PycharmProjects/Reinvent-master-3.2/result/LINK_invent/BTK/process_docking_weight1_custom_sum_contain_oxygen_bond_distance_aromatic_linkinvent_7_9_3/rearranged_h_0172.sdf

> <i_m_source_file_index>
78

> <r_mmod_Potential_Energy-OPLS-2005>
1635.84741210938

> <r_mmod_Stretch_Energy-OPLS-2005>
706.369201660156

> <r_mmod_Bend_Energy-OPLS-2005>
589.004760742188

> <r_mmod_Torsional_Energy-OPLS-2005>
241.387832641602

> <r_mmod_Improper_Torsional_Energy-OPLS-2005>
4.45068550109863

> <r_mmod_Van_der_Waal_Energy-OPLS-2005>
123.210876464844

> <r_mmod_Electrostatic_Energy-OPLS-2005>
-396.513580322266

> <r_mmod_Solvation_Energy-OPLS-2005>
-203.586517333984

> <b_mmod_Minimization_Converged-OPLS-2005>
0

> <r_mmod_RMS_Derivative-OPLS-2005>
5.66067695617676

$$$$
78
                    3D
 Structure written by MMmdl.
169180  0  0  1  0            999 V2000
  -30.6708  -14.7009   20.4434 C   0  0  0  0  0  0
  -30.4179  -12.4315   19.4598 C   0  0  0  0  0  0
  -29.4994  -12.4825   18.2228 C   0  0  0  0  0  0
  -28.0253  -12.3245   18.6426 C   0  0  0  0  0  0
  -27.6354  -13.2360   19.8374 C   0  0  2  0  0  0
  -28.6844  -13.1943   20.9679 C   0  0  0  0  0  0
  -25.2482  -13.8217   20.5703 C   0  0  0  0  0  0
  -24.1786  -13.0451   20.9220 C   0  0  0  0  0  0
  -24.6382  -11.6933   20.8763 C   0  0  0  0  0  0
  -23.9067  -10.4302   21.0406 C   0  0  0  0  0  0
  -24.3619   -9.4210   21.9175 C   0  0  0  0  0  0
  -23.6289   -8.2245   22.0749 C   0  0  0  0  0  0
  -22.4267   -8.0283   21.3543 C   0  0  0  0  0  0
  -21.9902   -9.0261   20.4649 C   0  0  0  0  0  0
  -22.7238  -10.2133   20.3053 C   0  0  0  0  0  0
  -21.6852   -6.0730   22.5274 C   0  0  0  0  0  0
  -21.4020   -6.5635   23.8211 C   0  0  0  0  0  0
  -21.3664   -5.6785   24.9172 C   0  0  0  0  0  0
  -21.6042   -4.3048   24.7219 C   0  0  0  0  0  0
  -21.8822   -3.8141   23.4344 C   0  0  0  0  0  0
  -21.9197   -4.6962   22.3399 C   0  0  0  0  0  0
  -22.7804  -13.5221   21.1875 C   0  0  0  0  0  0
  -22.1658   -4.2149   21.0977 F   0  0  0  0  0  0
  -21.5631   -3.4532   25.7735 F   0  0  0  0  0  0
  -29.9817  -13.5161   20.3655 N   0  0  0  0  0  0
  -26.2909  -12.9433   20.3251 N   0  0  0  0  0  0
  -25.9314  -11.6577   20.5756 N   0  0  0  0  0  0
  -22.0445  -12.8214   22.0438 N   0  0  0  0  0  0
  -25.4154  -15.1940   20.4119 N   0  0  0  0  0  0
  -31.8873  -14.6895   20.2512 O   0  0  0  0  0  0
  -21.6638   -6.8869   21.4235 O   0  0  0  0  0  0
  -22.3485  -14.5520   20.6714 O   0  0  0  0  0  0
  -24.6295  -31.8580   23.2013 C   0  0  0  0  0  0
  -25.9133  -32.4768   23.8354 C   0  0  1  0  0  0
  -27.2100  -27.2859   20.1260 C   0  0  0  0  0  0
  -25.5937  -33.8568   24.2283 N   0  0  0  0  0  0
  -23.4247  -30.4834   21.5442 C   0  0  2  0  0  0
  -24.8685  -28.9362   20.1106 C   0  0  0  0  0  0
  -22.7494  -29.4622   22.4916 C   0  0  0  0  0  0
  -18.0288  -28.1390   22.8484 C   0  0  0  0  0  0
  -24.1482  -36.7279   23.2635 C   0  0  0  0  0  0
  -25.9693  -30.7788   21.3777 C   0  0  0  0  0  0
  -26.0404  -29.4043   20.7180 C   0  0  0  0  0  0
  -27.2168  -28.5923   20.7133 C   0  0  0  0  0  0
  -26.0141  -26.8775   19.4945 C   0  0  0  0  0  0
  -24.8591  -27.6797   19.4882 C   0  0  0  0  0  0
  -23.6412  -29.8233   20.1580 C   0  0  0  0  0  0
  -25.4105  -36.3075   24.0330 C   0  0  1  0  0  0
  -20.5894  -28.3701   23.1268 C   0  0  2  0  0  0
  -20.6784  -26.9417   22.5409 C   0  0  0  0  0  0
  -19.5760  -26.6391   21.5209 C   0  0  0  0  0  0
  -18.1938  -26.7935   22.1621 C   0  0  0  0  0  0
  -19.1542  -28.8861   23.2880 C   0  0  0  0  0  0
  -18.9465  -30.1457   23.8908 C   0  0  0  0  0  0
  -17.6464  -30.6589   24.0569 C   0  0  0  0  0  0
  -25.9052  -34.9446   23.5109 C   0  0  0  0  0  0
  -16.5358  -29.9091   23.6329 C   0  0  0  0  0  0
  -16.7275  -28.6504   23.0353 C   0  0  0  0  0  0
  -26.4505  -31.6588   25.0733 C   0  0  0  0  0  0
  -25.3733  -31.3752   26.1465 C   0  0  0  0  0  0
  -27.0333  -30.2998   24.6211 C   0  0  0  0  0  0
  -27.6083  -32.4308   25.7490 C   0  0  0  0  0  0
  -27.5584  -37.1779   24.8452 C   0  0  0  0  0  0
  -21.4204  -29.3049   22.3656 N   0  0  0  0  0  0
  -26.4274  -37.3779   23.9427 N   0  0  0  0  0  0
  -24.6934  -31.0573   22.0974 N   0  0  0  0  0  0
  -23.4197  -28.8156   23.3008 O   0  0  0  0  0  0
  -28.3033  -26.4004   20.1732 O   0  0  0  0  0  0
  -26.5635  -34.8918   22.4684 O   0  0  0  0  0  0
  -23.5452  -32.1399   23.7323 O   0  0  0  0  0  0
  -29.1344  -20.2829   21.4988 C   0  0  0  0  0  0
  -28.8811  -21.6361   21.5745 C   0  0  0  0  0  0
  -29.0303  -22.2294   20.2860 C   0  0  0  0  0  0
  -29.2977  -21.1617   19.4331 C   0  0  0  0  0  0
  -29.4200  -23.4642   23.3797 C   0  0  0  0  0  0
  -29.2740  -22.1576   24.1258 C   0  0  0  0  0  0
  -31.2580  -18.7352   18.9754 C   0  0  0  0  0  0
  -31.7195  -17.3848   19.4533 C   0  0  0  0  0  0
  -27.9982  -24.2894   18.9193 C   0  0  0  0  0  0
  -28.5230  -22.3806   22.8348 C   0  0  0  0  0  0
  -29.0155  -23.7773   19.9135 C   0  0  1  0  0  0
  -29.9031  -18.5977   19.6955 C   0  0  1  0  0  0
  -30.5704  -17.3282   20.4793 C   0  0  1  0  0  0
  -28.0028  -24.9384   20.2849 C   0  0  1  0  0  0
  -30.7966  -21.7927   17.4609 C   0  0  0  0  0  0
  -29.4425  -21.2487   17.9345 C   0  0  1  0  0  0
  -29.4612  -19.9510   20.1883 N   0  0  0  0  0  0
  -29.9818  -15.9081   20.4899 N   0  0  0  0  0  0
  -29.1702  -20.1075   17.3024 F   0  0  0  0  0  0
  -31.4603  -12.5320   19.1517 H   0  0  0  0  0  0
  -30.3448  -11.4648   19.9606 H   0  0  0  0  0  0
  -29.7713  -11.6953   17.5178 H   0  0  0  0  0  0
  -29.6381  -13.4287   17.6960 H   0  0  0  0  0  0
  -27.8761  -11.2785   18.9132 H   0  0  0  0  0  0
  -27.3690  -12.5144   17.7927 H   0  0  0  0  0  0
  -27.6227  -14.2530   19.4435 H   0  0  0  0  0  0
  -28.7147  -12.2100   21.4389 H   0  0  0  0  0  0
  -28.4347  -13.9099   21.7534 H   0  0  0  0  0  0
  -25.2766   -9.5688   22.4746 H   0  0  0  0  0  0
  -24.0010   -7.4629   22.7460 H   0  0  0  0  0  0
  -21.0833   -8.8777   19.8950 H   0  0  0  0  0  0
  -22.3694  -10.9669   19.6163 H   0  0  0  0  0  0
  -21.2009   -7.6141   23.9710 H   0  0  0  0  0  0
  -21.1481   -6.0515   25.9071 H   0  0  0  0  0  0
  -22.0598   -2.7605   23.2844 H   0  0  0  0  0  0
  -22.4054  -11.9883   22.4849 H   0  0  0  0  0  0
  -21.1063  -13.1242   22.2628 H   0  0  0  0  0  0
  -24.6464  -15.8464   20.5241 H   0  0  0  0  0  0
  -26.2596  -15.6377   20.0758 H   0  0  0  0  0  0
  -26.7200  -32.5430   23.1098 H   0  0  0  0  0  0
  -25.0078  -33.9707   25.0424 H   0  0  0  0  0  0
  -22.7203  -31.3054   21.4025 H   0  0  0  0  0  0
  -23.3767  -35.9583   23.3247 H   0  0  0  0  0  0
  -24.3594  -36.8957   22.2062 H   0  0  0  0  0  0
  -23.7197  -37.6447   23.6691 H   0  0  0  0  0  0
  -26.1066  -31.5409   20.6095 H   0  0  0  0  0  0
  -26.8477  -30.8256   22.0096 H   0  0  0  0  0  0
  -28.1142  -28.9437   21.2032 H   0  0  0  0  0  0
  -25.9468  -25.9167   19.0078 H   0  0  0  0  0  0
  -23.9611  -27.3155   19.0085 H   0  0  0  0  0  0
  -23.7696  -30.6035   19.4066 H   0  0  0  0  0  0
  -22.7585  -29.2610   19.8490 H   0  0  0  0  0  0
  -25.1271  -36.1922   25.0820 H   0  0  0  0  0  0
  -20.9989  -28.3287   24.1386 H   0  0  0  0  0  0
  -20.5681  -26.2306   23.3614 H   0  0  0  0  0  0
  -21.6656  -26.7444   22.1208 H   0  0  0  0  0  0
  -19.6922  -25.6305   21.1235 H   0  0  0  0  0  0
  -19.6695  -27.3204   20.6742 H   0  0  0  0  0  0
  -17.4205  -26.6677   21.4029 H   0  0  0  0  0  0
  -18.0340  -26.0078   22.9018 H   0  0  0  0  0  0
  -19.7943  -30.7267   24.2291 H   0  0  0  0  0  0
  -17.5020  -31.6269   24.5177 H   0  0  0  0  0  0
  -15.5361  -30.2995   23.7645 H   0  0  0  0  0  0
  -15.8679  -28.0823   22.7069 H   0  0  0  0  0  0
  -24.5860  -30.7161   25.7791 H   0  0  0  0  0  0
  -24.8987  -32.2935   26.4930 H   0  0  0  0  0  0
  -25.8039  -30.8880   27.0219 H   0  0  0  0  0  0
  -26.2904  -29.6751   24.1235 H   0  0  0  0  0  0
  -27.4012  -29.7259   25.4728 H   0  0  0  0  0  0
  -27.8792  -30.4270   23.9449 H   0  0  0  0  0  0
  -27.2721  -33.3621   26.2062 H   0  0  0  0  0  0
  -28.3890  -32.6843   25.0301 H   0  0  0  0  0  0
  -28.0750  -31.8427   26.5405 H   0  0  0  0  0  0
  -28.2555  -38.0122   24.7572 H   0  0  0  0  0  0
  -28.1126  -36.2664   24.6166 H   0  0  0  0  0  0
  -27.2329  -37.1304   25.8858 H   0  0  0  0  0  0
  -20.9377  -29.8764   21.6865 H   0  0  0  0  0  0
  -26.0151  -38.2836   24.1491 H   0  0  0  0  0  0
  -29.1457  -19.5253   22.2718 H   0  0  0  0  0  0
  -30.3604  -23.6470   22.8639 H   0  0  0  0  0  0
  -28.9392  -24.3462   23.7999 H   0  0  0  0  0  0
  -28.6950  -22.1642   25.0483 H   0  0  0  0  0  0
  -30.1218  -21.4749   24.1127 H   0  0  0  0  0  0
  -31.1983  -18.8074   17.8895 H   0  0  0  0  0  0
  -31.8781  -19.5312   19.3911 H   0  0  0  0  0  0
  -32.7180  -17.3843   19.8934 H   0  0  0  0  0  0
  -31.6469  -16.6610   18.6398 H   0  0  0  0  0  0
  -27.1487  -23.6493   18.6883 H   0  0  0  0  0  0
  -28.3797  -24.8655   18.0790 H   0  0  0  0  0  0
  -27.4476  -22.5377   22.8978 H   0  0  0  0  0  0
  -30.0458  -24.0969   19.7715 H   0  0  0  0  0  0
  -29.1324  -18.2483   19.0064 H   0  0  0  0  0  0
  -30.9239  -17.6393   21.4637 H   0  0  0  0  0  0
  -27.1933  -24.7103   20.9763 H   0  0  0  0  0  0
  -30.9740  -22.7939   17.8531 H   0  0  0  0  0  0
  -30.8276  -21.8557   16.3736 H   0  0  0  0  0  0
  -31.6282  -21.1676   17.7760 H   0  0  0  0  0  0
  -28.6733  -21.9260   17.5633 H   0  0  0  0  0  0
  -28.9781  -15.8424   20.5637 H   0  0  0  0  0  0
  1 25  1  0  0  0
  1 30  2  0  0  0
  1 88  1  0  0  0
  2  3  1  0  0  0
  2 25  1  0  0  0
  2 90  1  0  0  0
  2 91  1  0  0  0
  3  4  1  0  0  0
  3 92  1  0  0  0
  3 93  1  0  0  0
  4  5  1  0  0  0
  4 94  1  0  0  0
  4 95  1  0  0  0
  5  6  1  0  0  0
  5 26  1  0  0  0
  5 96  1  0  0  0
  6 25  1  0  0  0
  6 97  1  0  0  0
  6 98  1  0  0  0
  7  8  2  0  0  0
  7 26  1  0  0  0
  7 29  1  0  0  0
  8  9  1  0  0  0
  8 22  1  0  0  0
  9 10  1  0  0  0
  9 27  2  0  0  0
 10 11  2  0  0  0
 10 15  1  0  0  0
 11 12  1  0  0  0
 11 99  1  0  0  0
 12 13  2  0  0  0
 12100  1  0  0  0
 13 14  1  0  0  0
 13 31  1  0  0  0
 14 15  2  0  0  0
 14101  1  0  0  0
 15102  1  0  0  0
 16 17  2  0  0  0
 16 21  1  0  0  0
 16 31  1  0  0  0
 17 18  1  0  0  0
 17103  1  0  0  0
 18 19  2  0  0  0
 18104  1  0  0  0
 19 20  1  0  0  0
 19 24  1  0  0  0
 20 21  2  0  0  0
 20105  1  0  0  0
 21 23  1  0  0  0
 22 28  1  0  0  0
 22 32  2  0  0  0
 26 27  1  0  0  0
 28106  1  0  0  0
 28107  1  0  0  0
 29108  1  0  0  0
 29109  1  0  0  0
 33 34  1  0  0  0
 33 66  1  0  0  0
 33 70  2  0  0  0
 34 36  1  0  0  0
 34 59  1  0  0  0
 34110  1  0  0  0
 35 44  2  0  0  0
 35 45  1  0  0  0
 35 68  1  0  0  0
 36 56  1  0  0  0
 36111  1  0  0  0
 37 39  1  0  0  0
 37 47  1  0  0  0
 37 66  1  0  0  0
 37112  1  0  0  0
 38 43  2  0  0  0
 38 46  1  0  0  0
 38 47  1  0  0  0
 39 64  1  0  0  0
 39 67  2  0  0  0
 40 52  1  0  0  0
 40 53  2  0  0  0
 40 58  1  0  0  0
 41113  1  0  0  0
 41114  1  0  0  0
 41115  1  0  0  0
 41 48  1  0  0  0
 42 43  1  0  0  0
 42 66  1  0  0  0
 42116  1  0  0  0
 42117  1  0  0  0
 43 44  1  0  0  0
 44118  1  0  0  0
 45 46  2  0  0  0
 45119  1  0  0  0
 46120  1  0  0  0
 47121  1  0  0  0
 47122  1  0  0  0
 48 56  1  0  0  0
 48 65  1  0  0  0
 48123  1  0  0  0
 49 50  1  0  0  0
 49 53  1  0  0  0
 49 64  1  0  0  0
 49124  1  0  0  0
 50 51  1  0  0  0
 50125  1  0  0  0
 50126  1  0  0  0
 51 52  1  0  0  0
 51127  1  0  0  0
 51128  1  0  0  0
 52129  1  0  0  0
 52130  1  0  0  0
 53 54  1  0  0  0
 54 55  2  0  0  0
 54131  1  0  0  0
 55 57  1  0  0  0
 55132  1  0  0  0
 56 69  2  0  0  0
 57 58  2  0  0  0
 57133  1  0  0  0
 58134  1  0  0  0
 59 60  1  0  0  0
 59 61  1  0  0  0
 59 62  1  0  0  0
 60135  1  0  0  0
 60136  1  0  0  0
 60137  1  0  0  0
 61138  1  0  0  0
 61139  1  0  0  0
 61140  1  0  0  0
 62141  1  0  0  0
 62142  1  0  0  0
 62143  1  0  0  0
 63 65  1  0  0  0
 63144  1  0  0  0
 63145  1  0  0  0
 63146  1  0  0  0
 64147  1  0  0  0
 65148  1  0  0  0
 68 84  1  0  0  0
 71 72  2  0  0  0
 71 87  1  0  0  0
 71149  1  0  0  0
 72 73  1  0  0  0
 72 80  1  0  0  0
 73 74  2  0  0  0
 73 81  1  0  0  0
 74 86  1  0  0  0
 74 87  1  0  0  0
 75 76  1  0  0  0
 75 80  1  0  0  0
 75150  1  0  0  0
 75151  1  0  0  0
 76 80  1  0  0  0
 76152  1  0  0  0
 76153  1  0  0  0
 77 78  1  0  0  0
 77 82  1  0  0  0
 77154  1  0  0  0
 77155  1  0  0  0
 78 83  1  0  0  0
 78156  1  0  0  0
 78157  1  0  0  0
 79 81  1  0  0  0
 79 84  1  0  0  0
 79158  1  0  0  0
 79159  1  0  0  0
 80160  1  0  0  0
 81 84  1  0  0  0
 81161  1  0  0  0
 82 83  1  0  0  0
 82 87  1  0  0  0
 82162  1  0  0  0
 83 88  1  0  0  0
 83163  1  0  0  0
 84164  1  0  0  0
 85165  1  0  0  0
 85166  1  0  0  0
 85167  1  0  0  0
 85 86  1  0  0  0
 86 89  1  0  0  0
 86168  1  0  0  0
 88169  1  0  0  0
M  ISO  4   1 100  68 101  84 101  88 100
M  END
> <chiral flag>
0

> <version>
0

> <s_m_source_file>
/data/baiqing/PycharmProjects/Reinvent-master-3.2/result/LINK_invent/BTK/process_docking_weight1_custom_sum_contain_oxygen_bond_distance_aromatic_linkinvent_7_9_3/rearranged_h_0172.sdf

> <i_m_source_file_index>
79

> <r_mmod_Potential_Energy-OPLS-2005>
235.267349243164

> <r_mmod_Stretch_Energy-OPLS-2005>
113.022094726562

> <r_mmod_Bend_Energy-OPLS-2005>
193.358016967773

> <r_mmod_Torsional_Energy-OPLS-2005>
319.302032470703

> <r_mmod_Improper_Torsional_Energy-OPLS-2005>
5.63361740112305

> <r_mmod_Van_der_Waal_Energy-OPLS-2005>
116.567405700684

> <r_mmod_Electrostatic_Energy-OPLS-2005>
-387.785736083984

> <r_mmod_Solvation_Energy-OPLS-2005>
-203.215042114258

> <b_mmod_Minimization_Converged-OPLS-2005>
0

> <r_mmod_RMS_Derivative-OPLS-2005>
1.61162161827087

$$$$
79
                    3D
 Structure written by MMmdl.
170181  0  0  1  0            999 V2000
  -30.5257  -15.0337   20.4406 C   0  0  0  0  0  0
  -30.4391  -12.6535   19.5228 C   0  0  0  0  0  0
  -29.5330  -12.5624   18.2746 C   0  0  0  0  0  0
  -28.0666  -12.3269   18.6831 C   0  0  0  0  0  0
  -27.6279  -13.2556   19.8451 C   0  0  2  0  0  0
  -28.6650  -13.3021   20.9860 C   0  0  0  0  0  0
  -25.2468  -13.8246   20.5742 C   0  0  0  0  0  0
  -24.1781  -13.0490   20.9242 C   0  0  0  0  0  0
  -24.6392  -11.6956   20.8755 C   0  0  0  0  0  0
  -23.9065  -10.4342   21.0391 C   0  0  0  0  0  0
  -24.3607   -9.4273   21.9183 C   0  0  0  0  0  0
  -23.6301   -8.2292   22.0747 C   0  0  0  0  0  0
  -22.4289   -8.0302   21.3531 C   0  0  0  0  0  0
  -21.9911   -9.0281   20.4633 C   0  0  0  0  0  0
  -22.7224  -10.2174   20.3059 C   0  0  0  0  0  0
  -21.6884   -6.0749   22.5272 C   0  0  0  0  0  0
  -21.4019   -6.5642   23.8199 C   0  0  0  0  0  0
  -21.3672   -5.6793   24.9158 C   0  0  0  0  0  0
  -21.6070   -4.3056   24.7212 C   0  0  0  0  0  0
  -21.8831   -3.8154   23.4330 C   0  0  0  0  0  0
  -21.9210   -4.6975   22.3389 C   0  0  0  0  0  0
  -22.7790  -13.5253   21.1881 C   0  0  0  0  0  0
  -22.1660   -4.2167   21.0965 F   0  0  0  0  0  0
  -21.5637   -3.4521   25.7716 F   0  0  0  0  0  0
  -29.9239  -13.7645   20.3875 N   0  0  0  0  0  0
  -26.2875  -12.9468   20.3253 N   0  0  0  0  0  0
  -25.9324  -11.6597   20.5742 N   0  0  0  0  0  0
  -22.0405  -12.8275   22.0430 N   0  0  0  0  0  0
  -25.4231  -15.1970   20.4183 N   0  0  0  0  0  0
  -31.7191  -15.0524   20.1093 O   0  0  0  0  0  0
  -21.6659   -6.8893   21.4242 O   0  0  0  0  0  0
  -22.3489  -14.5561   20.6701 O   0  0  0  0  0  0
  -24.6480  -31.8422   23.1854 C   0  0  0  0  0  0
  -25.9237  -32.4681   23.8258 C   0  0  1  0  0  0
  -27.2072  -27.0757   20.1812 C   0  0  0  0  0  0
  -25.5971  -33.8487   24.2169 N   0  0  0  0  0  0
  -23.4530  -30.4553   21.5357 C   0  0  2  0  0  0
  -24.9032  -28.8711   20.1155 C   0  0  0  0  0  0
  -22.7587  -29.4510   22.4896 C   0  0  0  0  0  0
  -18.0346  -28.1329   22.8450 C   0  0  0  0  0  0
  -24.1493  -36.7242   23.2637 C   0  0  0  0  0  0
  -26.0136  -30.6937   21.3949 C   0  0  0  0  0  0
  -26.0813  -29.2978   20.7416 C   0  0  0  0  0  0
  -27.2346  -28.4184   20.7538 C   0  0  0  0  0  0
  -26.0227  -26.7792   19.4758 C   0  0  0  0  0  0
  -24.8908  -27.6274   19.4639 C   0  0  0  0  0  0
  -23.6801  -29.7796   20.1575 C   0  0  0  0  0  0
  -25.4139  -36.3028   24.0305 C   0  0  1  0  0  0
  -20.5950  -28.3689   23.1247 C   0  0  2  0  0  0
  -20.6892  -26.9399   22.5413 C   0  0  0  0  0  0
  -19.5868  -26.6298   21.5235 C   0  0  0  0  0  0
  -18.2031  -26.7857   22.1607 C   0  0  0  0  0  0
  -19.1593  -28.8823   23.2832 C   0  0  0  0  0  0
  -18.9485  -30.1414   23.8864 C   0  0  0  0  0  0
  -17.6473  -30.6534   24.0530 C   0  0  0  0  0  0
  -25.9099  -34.9400   23.5049 C   0  0  0  0  0  0
  -16.5376  -29.8996   23.6320 C   0  0  0  0  0  0
  -16.7322  -28.6417   23.0346 C   0  0  0  0  0  0
  -26.4536  -31.6571   25.0717 C   0  0  0  0  0  0
  -25.3682  -31.3791   26.1375 C   0  0  0  0  0  0
  -27.0403  -30.2958   24.6355 C   0  0  0  0  0  0
  -27.6070  -32.4336   25.7500 C   0  0  0  0  0  0
  -27.5577  -37.1773   24.8457 C   0  0  0  0  0  0
  -21.4284  -29.3024   22.3623 N   0  0  0  0  0  0
  -26.4296  -37.3751   23.9400 N   0  0  0  0  0  0
  -24.7250  -31.0184   22.0942 N   0  0  0  0  0  0
  -23.4207  -28.8106   23.3096 O   0  0  0  0  0  0
  -28.2671  -26.0842   20.1707 O   0  0  0  0  0  0
  -26.5681  -34.8887   22.4625 O   0  0  0  0  0  0
  -23.5586  -32.1380   23.7008 O   0  0  0  0  0  0
  -27.4900  -21.3588   18.6087 C   0  0  0  0  0  0
  -28.1525  -21.7851   19.7904 C   0  0  0  0  0  0
  -27.6940  -23.2076   20.1615 C   0  0  0  0  0  0
  -26.2982  -23.3647   19.9791 C   0  0  0  0  0  0
  -26.3099  -21.9695   18.1586 C   0  0  0  0  0  0
  -28.7309  -18.1852   22.0497 C   0  0  0  0  0  0
  -24.1059  -24.3289   21.1598 C   0  0  0  0  0  0
  -28.8460  -16.6410   21.6268 C   0  0  0  0  0  0
  -30.2248  -17.6679   19.9236 C   0  0  0  0  0  0
  -29.0375  -20.4796   20.3911 C   0  0  1  0  0  0
  -25.3950  -23.5363   21.1892 C   0  0  2  0  0  0
  -28.3272  -19.1686   20.9205 C   0  0  1  0  0  0
  -29.1930  -18.9454   19.7411 C   0  0  2  0  0  0
  -25.2507  -24.7812   22.0403 C   0  0  2  0  0  0
  -25.6372  -21.5525   16.8654 C   0  0  0  0  0  0
  -25.2009  -24.6629   23.5470 C   0  0  0  0  0  0
  -28.3337  -24.6109   20.7766 C   0  0  0  0  0  0
  -25.6443  -22.8428   18.9247 N   0  0  0  0  0  0
  -29.8021  -16.2909   20.5299 N   0  0  0  0  0  0
  -31.4718  -12.8168   19.2121 H   0  0  0  0  0  0
  -30.4453  -11.7098   20.0691 H   0  0  0  0  0  0
  -29.8799  -11.7692   17.6094 H   0  0  0  0  0  0
  -29.6060  -13.4934   17.7103 H   0  0  0  0  0  0
  -27.9714  -11.2846   18.9911 H   0  0  0  0  0  0
  -27.4114  -12.4552   17.8210 H   0  0  0  0  0  0
  -27.5838  -14.2561   19.4160 H   0  0  0  0  0  0
  -28.7845  -12.3195   21.4477 H   0  0  0  0  0  0
  -28.3371  -13.9736   21.7798 H   0  0  0  0  0  0
  -25.2749   -9.5790   22.4737 H   0  0  0  0  0  0
  -24.0023   -7.4721   22.7471 H   0  0  0  0  0  0
  -21.0841   -8.8797   19.8949 H   0  0  0  0  0  0
  -22.3655  -10.9696   19.6162 H   0  0  0  0  0  0
  -21.1968   -7.6145   23.9701 H   0  0  0  0  0  0
  -21.1486   -6.0504   25.9061 H   0  0  0  0  0  0
  -22.0601   -2.7619   23.2808 H   0  0  0  0  0  0
  -22.3918  -11.9877   22.4795 H   0  0  0  0  0  0
  -21.1038  -13.1375   22.2625 H   0  0  0  0  0  0
  -24.6691  -15.8651   20.5221 H   0  0  0  0  0  0
  -26.2857  -15.6227   20.1053 H   0  0  0  0  0  0
  -26.7295  -32.5270   23.0976 H   0  0  0  0  0  0
  -25.0078  -33.9644   25.0289 H   0  0  0  0  0  0
  -22.7574  -31.2842   21.3810 H   0  0  0  0  0  0
  -23.3775  -35.9548   23.3284 H   0  0  0  0  0  0
  -24.3575  -36.8906   22.2055 H   0  0  0  0  0  0
  -23.7242  -37.6421   23.6702 H   0  0  0  0  0  0
  -26.1716  -31.4441   20.6187 H   0  0  0  0  0  0
  -26.8818  -30.7499   22.0396 H   0  0  0  0  0  0
  -28.1376  -28.7447   21.2523 H   0  0  0  0  0  0
  -25.9483  -25.8320   18.9614 H   0  0  0  0  0  0
  -23.9969  -27.2983   18.9530 H   0  0  0  0  0  0
  -23.8082  -30.5571   19.4041 H   0  0  0  0  0  0
  -22.7947  -29.2210   19.8498 H   0  0  0  0  0  0
  -25.1329  -36.1846   25.0802 H   0  0  0  0  0  0
  -21.0029  -28.3264   24.1371 H   0  0  0  0  0  0
  -20.5909  -26.2273   23.3624 H   0  0  0  0  0  0
  -21.6757  -26.7514   22.1161 H   0  0  0  0  0  0
  -19.7080  -25.6186   21.1340 H   0  0  0  0  0  0
  -19.6816  -27.3040   20.6709 H   0  0  0  0  0  0
  -17.4329  -26.6560   21.3985 H   0  0  0  0  0  0
  -18.0421  -26.0011   22.9015 H   0  0  0  0  0  0
  -19.7957  -30.7238   24.2221 H   0  0  0  0  0  0
  -17.5018  -31.6208   24.5134 H   0  0  0  0  0  0
  -15.5364  -30.2871   23.7663 H   0  0  0  0  0  0
  -15.8732  -28.0701   22.7097 H   0  0  0  0  0  0
  -24.5872  -30.7139   25.7660 H   0  0  0  0  0  0
  -24.8847  -32.2989   26.4682 H   0  0  0  0  0  0
  -25.7900  -30.9024   27.0233 H   0  0  0  0  0  0
  -26.3040  -29.6661   24.1341 H   0  0  0  0  0  0
  -27.3970  -29.7265   25.4947 H   0  0  0  0  0  0
  -27.8963  -30.4158   23.9709 H   0  0  0  0  0  0
  -27.2688  -33.3678   26.1979 H   0  0  0  0  0  0
  -28.3921  -32.6834   25.0353 H   0  0  0  0  0  0
  -28.0690  -31.8533   26.5495 H   0  0  0  0  0  0
  -28.2570  -38.0083   24.7525 H   0  0  0  0  0  0
  -28.1089  -36.2621   24.6262 H   0  0  0  0  0  0
  -27.2280  -37.1377   25.8848 H   0  0  0  0  0  0
  -20.9495  -29.8641   21.6727 H   0  0  0  0  0  0
  -26.0149  -38.2809   24.1413 H   0  0  0  0  0  0
  -27.8363  -20.5049   18.0510 H   0  0  0  0  0  0
  -29.6740  -18.5214   22.4846 H   0  0  0  0  0  0
  -27.9944  -18.2791   22.8497 H   0  0  0  0  0  0
  -23.2376  -23.8902   21.6453 H   0  0  0  0  0  0
  -23.8910  -24.9053   20.2635 H   0  0  0  0  0  0
  -27.8625  -16.2775   21.3307 H   0  0  0  0  0  0
  -29.1175  -16.0701   22.5168 H   0  0  0  0  0  0
  -31.0762  -18.0195   20.5082 H   0  0  0  0  0  0
  -30.6436  -17.4617   18.9384 H   0  0  0  0  0  0
  -29.8882  -20.8444   20.9611 H   0  0  0  0  0  0
  -25.3785  -22.5951   21.7358 H   0  0  0  0  0  0
  -27.2598  -19.1185   20.7110 H   0  0  0  0  0  0
  -28.6307  -18.7805   18.8260 H   0  0  0  0  0  0
  -25.7351  -25.6921   21.7296 H   0  0  0  0  0  0
  -26.3728  -21.4367   16.0716 H   0  0  0  0  0  0
  -24.9187  -22.3013   16.5323 H   0  0  0  0  0  0
  -25.1141  -20.6042   16.9854 H   0  0  0  0  0  0
  -24.5855  -23.8168   23.8528 H   0  0  0  0  0  0
  -24.7875  -25.5746   23.9814 H   0  0  0  0  0  0
  -26.2099  -24.5220   23.9345 H   0  0  0  0  0  0
  -29.3979  -24.4069   20.8856 H   0  0  0  0  0  0
  -27.9879  -24.6968   21.8063 H   0  0  0  0  0  0
  1 25  1  0  0  0
  1 30  2  0  0  0
  1 89  1  0  0  0
  2  3  1  0  0  0
  2 25  1  0  0  0
  2 90  1  0  0  0
  2 91  1  0  0  0
  3  4  1  0  0  0
  3 92  1  0  0  0
  3 93  1  0  0  0
  4  5  1  0  0  0
  4 94  1  0  0  0
  4 95  1  0  0  0
  5  6  1  0  0  0
  5 26  1  0  0  0
  5 96  1  0  0  0
  6 25  1  0  0  0
  6 97  1  0  0  0
  6 98  1  0  0  0
  7  8  2  0  0  0
  7 26  1  0  0  0
  7 29  1  0  0  0
  8  9  1  0  0  0
  8 22  1  0  0  0
  9 10  1  0  0  0
  9 27  2  0  0  0
 10 11  2  0  0  0
 10 15  1  0  0  0
 11 12  1  0  0  0
 11 99  1  0  0  0
 12 13  2  0  0  0
 12100  1  0  0  0
 13 14  1  0  0  0
 13 31  1  0  0  0
 14 15  2  0  0  0
 14101  1  0  0  0
 15102  1  0  0  0
 16 17  2  0  0  0
 16 21  1  0  0  0
 16 31  1  0  0  0
 17 18  1  0  0  0
 17103  1  0  0  0
 18 19  2  0  0  0
 18104  1  0  0  0
 19 20  1  0  0  0
 19 24  1  0  0  0
 20 21  2  0  0  0
 20105  1  0  0  0
 21 23  1  0  0  0
 22 28  1  0  0  0
 22 32  2  0  0  0
 26 27  1  0  0  0
 28106  1  0  0  0
 28107  1  0  0  0
 29108  1  0  0  0
 29109  1  0  0  0
 33 34  1  0  0  0
 33 66  1  0  0  0
 33 70  2  0  0  0
 34 36  1  0  0  0
 34 59  1  0  0  0
 34110  1  0  0  0
 35 44  2  0  0  0
 35 45  1  0  0  0
 35 68  1  0  0  0
 36 56  1  0  0  0
 36111  1  0  0  0
 37 39  1  0  0  0
 37 47  1  0  0  0
 37 66  1  0  0  0
 37112  1  0  0  0
 38 43  2  0  0  0
 38 46  1  0  0  0
 38 47  1  0  0  0
 39 64  1  0  0  0
 39 67  2  0  0  0
 40 52  1  0  0  0
 40 53  2  0  0  0
 40 58  1  0  0  0
 41113  1  0  0  0
 41114  1  0  0  0
 41115  1  0  0  0
 41 48  1  0  0  0
 42 43  1  0  0  0
 42 66  1  0  0  0
 42116  1  0  0  0
 42117  1  0  0  0
 43 44  1  0  0  0
 44118  1  0  0  0
 45 46  2  0  0  0
 45119  1  0  0  0
 46120  1  0  0  0
 47121  1  0  0  0
 47122  1  0  0  0
 48 56  1  0  0  0
 48 65  1  0  0  0
 48123  1  0  0  0
 49 50  1  0  0  0
 49 53  1  0  0  0
 49 64  1  0  0  0
 49124  1  0  0  0
 50 51  1  0  0  0
 50125  1  0  0  0
 50126  1  0  0  0
 51 52  1  0  0  0
 51127  1  0  0  0
 51128  1  0  0  0
 52129  1  0  0  0
 52130  1  0  0  0
 53 54  1  0  0  0
 54 55  2  0  0  0
 54131  1  0  0  0
 55 57  1  0  0  0
 55132  1  0  0  0
 56 69  2  0  0  0
 57 58  2  0  0  0
 57133  1  0  0  0
 58134  1  0  0  0
 59 60  1  0  0  0
 59 61  1  0  0  0
 59 62  1  0  0  0
 60135  1  0  0  0
 60136  1  0  0  0
 60137  1  0  0  0
 61138  1  0  0  0
 61139  1  0  0  0
 61140  1  0  0  0
 62141  1  0  0  0
 62142  1  0  0  0
 62143  1  0  0  0
 63 65  1  0  0  0
 63144  1  0  0  0
 63145  1  0  0  0
 63146  1  0  0  0
 64147  1  0  0  0
 65148  1  0  0  0
 68 87  1  0  0  0
 71 72  2  0  0  0
 71 75  1  0  0  0
 71149  1  0  0  0
 72 73  1  0  0  0
 72 80  1  0  0  0
 73 74  2  0  0  0
 73 87  1  0  0  0
 74 88  1  0  0  0
 74 81  1  0  0  0
 75 85  1  0  0  0
 75 88  2  0  0  0
 76 78  1  0  0  0
 76150  1  0  0  0
 76151  1  0  0  0
 76 82  1  0  0  0
 77 81  1  0  0  0
 77 84  1  0  0  0
 77152  1  0  0  0
 77153  1  0  0  0
 78 89  1  0  0  0
 78154  1  0  0  0
 78155  1  0  0  0
 79 89  1  0  0  0
 79156  1  0  0  0
 79157  1  0  0  0
 79 83  1  0  0  0
 80 82  1  0  0  0
 80 83  1  0  0  0
 80158  1  0  0  0
 81 84  1  0  0  0
 81159  1  0  0  0
 82 83  1  0  0  0
 82160  1  0  0  0
 83161  1  0  0  0
 84 86  1  0  0  0
 84162  1  0  0  0
 85163  1  0  0  0
 85164  1  0  0  0
 85165  1  0  0  0
 86166  1  0  0  0
 86167  1  0  0  0
 86168  1  0  0  0
 87169  1  0  0  0
 87170  1  0  0  0
M  ISO  4   1 100  68 101  87 101  89 100
M  END
> <chiral flag>
0

> <version>
0

> <s_m_source_file>
/data/baiqing/PycharmProjects/Reinvent-master-3.2/result/LINK_invent/BTK/process_docking_weight1_custom_sum_contain_oxygen_bond_distance_aromatic_linkinvent_7_9_3/rearranged_h_0172.sdf

> <i_m_source_file_index>
80

> <r_mmod_Potential_Energy-OPLS-2005>
1103.01782226562

> <r_mmod_Stretch_Energy-OPLS-2005>
352.68359375

> <r_mmod_Bend_Energy-OPLS-2005>
393.090301513672

> <r_mmod_Torsional_Energy-OPLS-2005>
579.321655273438

> <r_mmod_Improper_Torsional_Energy-OPLS-2005>
17.8299655914307

> <r_mmod_Van_der_Waal_Energy-OPLS-2005>
133.150039672852

> <r_mmod_Electrostatic_Energy-OPLS-2005>
-409.130798339844

> <r_mmod_Solvation_Energy-OPLS-2005>
-205.679428100586

> <b_mmod_Minimization_Converged-OPLS-2005>
0

> <r_mmod_RMS_Derivative-OPLS-2005>
4.07096767425537

$$$$
80
                    3D
 Structure written by MMmdl.
158167  0  0  1  0            999 V2000
  -30.6601  -14.6390   20.4760 C   0  0  0  0  0  0
  -30.4264  -12.3896   19.4602 C   0  0  0  0  0  0
  -29.5054  -12.4983   18.2263 C   0  0  0  0  0  0
  -28.0282  -12.3421   18.6384 C   0  0  0  0  0  0
  -27.6479  -13.2259   19.8566 C   0  0  2  0  0  0
  -28.6936  -13.1201   20.9897 C   0  0  0  0  0  0
  -25.2525  -13.8190   20.5685 C   0  0  0  0  0  0
  -24.1808  -13.0441   20.9192 C   0  0  0  0  0  0
  -24.6390  -11.6913   20.8735 C   0  0  0  0  0  0
  -23.9059  -10.4293   21.0403 C   0  0  0  0  0  0
  -24.3610   -9.4210   21.9180 C   0  0  0  0  0  0
  -23.6286   -8.2247   22.0754 C   0  0  0  0  0  0
  -22.4267   -8.0282   21.3550 C   0  0  0  0  0  0
  -21.9902   -9.0253   20.4654 C   0  0  0  0  0  0
  -22.7230  -10.2131   20.3056 C   0  0  0  0  0  0
  -21.6856   -6.0728   22.5273 C   0  0  0  0  0  0
  -21.4019   -6.5632   23.8205 C   0  0  0  0  0  0
  -21.3662   -5.6787   24.9170 C   0  0  0  0  0  0
  -21.6042   -4.3050   24.7224 C   0  0  0  0  0  0
  -21.8820   -3.8140   23.4347 C   0  0  0  0  0  0
  -21.9196   -4.6955   22.3401 C   0  0  0  0  0  0
  -22.7829  -13.5227   21.1851 C   0  0  0  0  0  0
  -22.1662   -4.2139   21.0980 F   0  0  0  0  0  0
  -21.5629   -3.4535   25.7741 F   0  0  0  0  0  0
  -30.0068  -13.4366   20.4137 N   0  0  0  0  0  0
  -26.2960  -12.9391   20.3299 N   0  0  0  0  0  0
  -25.9319  -11.6538   20.5747 N   0  0  0  0  0  0
  -22.0473  -12.8223   22.0414 N   0  0  0  0  0  0
  -25.4207  -15.1916   20.4098 N   0  0  0  0  0  0
  -31.8440  -14.7349   20.1442 O   0  0  0  0  0  0
  -21.6641   -6.8870   21.4239 O   0  0  0  0  0  0
  -22.3508  -14.5529   20.6699 O   0  0  0  0  0  0
  -24.6255  -31.8605   23.2040 C   0  0  0  0  0  0
  -25.9105  -32.4785   23.8366 C   0  0  1  0  0  0
  -27.2207  -27.3295   20.1205 C   0  0  0  0  0  0
  -25.5920  -33.8585   24.2291 N   0  0  0  0  0  0
  -23.4203  -30.4848   21.5455 C   0  0  2  0  0  0
  -24.8692  -28.9455   20.1077 C   0  0  0  0  0  0
  -22.7479  -29.4625   22.4929 C   0  0  0  0  0  0
  -18.0290  -28.1385   22.8484 C   0  0  0  0  0  0
  -24.1487  -36.7297   23.2639 C   0  0  0  0  0  0
  -25.9612  -30.7947   21.3755 C   0  0  0  0  0  0
  -26.0378  -29.4240   20.7165 C   0  0  0  0  0  0
  -27.2212  -28.6265   20.7165 C   0  0  0  0  0  0
  -26.0394  -26.9110   19.4719 C   0  0  0  0  0  0
  -24.8713  -27.6934   19.4752 C   0  0  0  0  0  0
  -23.6356  -29.8225   20.1595 C   0  0  0  0  0  0
  -25.4112  -36.3089   24.0331 C   0  0  1  0  0  0
  -20.5890  -28.3689   23.1281 C   0  0  2  0  0  0
  -20.6778  -26.9410   22.5411 C   0  0  0  0  0  0
  -19.5753  -26.6385   21.5212 C   0  0  0  0  0  0
  -18.1933  -26.7929   22.1621 C   0  0  0  0  0  0
  -19.1542  -28.8853   23.2879 C   0  0  0  0  0  0
  -18.9464  -30.1455   23.8896 C   0  0  0  0  0  0
  -17.6463  -30.6585   24.0564 C   0  0  0  0  0  0
  -25.9047  -34.9456   23.5112 C   0  0  0  0  0  0
  -16.5354  -29.9084   23.6330 C   0  0  0  0  0  0
  -16.7277  -28.6502   23.0348 C   0  0  0  0  0  0
  -26.4491  -31.6591   25.0731 C   0  0  0  0  0  0
  -25.3725  -31.3727   26.1460 C   0  0  0  0  0  0
  -27.0331  -30.3014   24.6181 C   0  0  0  0  0  0
  -27.6053  -32.4321   25.7499 C   0  0  0  0  0  0
  -27.5581  -37.1804   24.8463 C   0  0  0  0  0  0
  -21.4191  -29.3043   22.3674 N   0  0  0  0  0  0
  -26.4292  -37.3781   23.9408 N   0  0  0  0  0  0
  -24.6877  -31.0626   22.0988 N   0  0  0  0  0  0
  -23.4203  -28.8161   23.3005 O   0  0  0  0  0  0
  -28.2897  -26.4262   20.1761 O   0  0  0  0  0  0
  -26.5616  -34.8921   22.4678 O   0  0  0  0  0  0
  -23.5419  -32.1399   23.7368 O   0  0  0  0  0  0
  -28.5395  -21.4502   19.9122 C   0  0  0  0  0  0
  -28.0858  -22.8051   19.8516 C   0  0  0  0  0  0
  -28.6657  -23.8056   20.6906 C   0  0  0  0  0  0
  -29.7510  -23.3457   21.4878 C   0  0  0  0  0  0
  -29.5842  -21.0858   20.7873 C   0  0  0  0  0  0
  -29.7792  -17.8836   19.2354 C   0  0  0  0  0  0
  -29.4902  -18.4620   20.5922 C   0  0  1  0  0  0
  -30.3613  -17.1585   20.4377 C   0  0  1  0  0  0
  -26.9452  -23.1494   18.9129 C   0  0  0  0  0  0
  -30.4826  -24.2798   22.4337 C   0  0  0  0  0  0
  -27.9741  -25.2052   20.9471 C   0  0  0  0  0  0
  -30.1856  -22.0492   21.5219 N   0  0  0  0  0  0
  -30.0970  -19.7671   20.9774 N   0  0  0  0  0  0
  -29.9077  -15.7704   20.6612 N   0  0  0  0  0  0
  -31.4709  -12.4914   19.1599 H   0  0  0  0  0  0
  -30.3428  -11.4037   19.9196 H   0  0  0  0  0  0
  -29.7711  -11.7400   17.4886 H   0  0  0  0  0  0
  -29.6517  -13.4636   17.7387 H   0  0  0  0  0  0
  -27.8649  -11.2910   18.8800 H   0  0  0  0  0  0
  -27.3756  -12.5644   17.7934 H   0  0  0  0  0  0
  -27.6560  -14.2551   19.4971 H   0  0  0  0  0  0
  -28.7015  -12.1162   21.4173 H   0  0  0  0  0  0
  -28.4477  -13.7978   21.8088 H   0  0  0  0  0  0
  -25.2759   -9.5689   22.4746 H   0  0  0  0  0  0
  -24.0002   -7.4635   22.7463 H   0  0  0  0  0  0
  -21.0837   -8.8765   19.8957 H   0  0  0  0  0  0
  -22.3683  -10.9663   19.6160 H   0  0  0  0  0  0
  -21.2013   -7.6140   23.9706 H   0  0  0  0  0  0
  -21.1482   -6.0519   25.9071 H   0  0  0  0  0  0
  -22.0598   -2.7602   23.2853 H   0  0  0  0  0  0
  -22.4096  -11.9902   22.4828 H   0  0  0  0  0  0
  -21.1089  -13.1247   22.2606 H   0  0  0  0  0  0
  -24.6506  -15.8431   20.5165 H   0  0  0  0  0  0
  -26.2641  -15.6322   20.0660 H   0  0  0  0  0  0
  -26.7175  -32.5462   23.1118 H   0  0  0  0  0  0
  -25.0067  -33.9733   25.0436 H   0  0  0  0  0  0
  -22.7140  -31.3055   21.4039 H   0  0  0  0  0  0
  -23.3749  -35.9630   23.3304 H   0  0  0  0  0  0
  -24.3581  -36.8912   22.2053 H   0  0  0  0  0  0
  -23.7240  -37.6502   23.6654 H   0  0  0  0  0  0
  -26.0930  -31.5598   20.6090 H   0  0  0  0  0  0
  -26.8411  -30.8426   22.0053 H   0  0  0  0  0  0
  -28.1142  -28.9820   21.2111 H   0  0  0  0  0  0
  -26.0066  -25.9484   18.9833 H   0  0  0  0  0  0
  -23.9779  -27.3231   18.9914 H   0  0  0  0  0  0
  -23.7527  -30.6005   19.4041 H   0  0  0  0  0  0
  -22.7565  -29.2501   19.8576 H   0  0  0  0  0  0
  -25.1290  -36.1945   25.0824 H   0  0  0  0  0  0
  -20.9988  -28.3266   24.1400 H   0  0  0  0  0  0
  -20.5679  -26.2298   23.3612 H   0  0  0  0  0  0
  -21.6649  -26.7441   22.1206 H   0  0  0  0  0  0
  -19.6916  -25.6295   21.1243 H   0  0  0  0  0  0
  -19.6693  -27.3197   20.6743 H   0  0  0  0  0  0
  -17.4204  -26.6677   21.4020 H   0  0  0  0  0  0
  -18.0331  -26.0071   22.9017 H   0  0  0  0  0  0
  -19.7939  -30.7271   24.2266 H   0  0  0  0  0  0
  -17.5018  -31.6266   24.5164 H   0  0  0  0  0  0
  -15.5353  -30.2985   23.7656 H   0  0  0  0  0  0
  -15.8677  -28.0823   22.7061 H   0  0  0  0  0  0
  -24.5899  -30.7078   25.7791 H   0  0  0  0  0  0
  -24.8916  -32.2893   26.4889 H   0  0  0  0  0  0
  -25.8053  -30.8905   27.0233 H   0  0  0  0  0  0
  -26.2905  -29.6772   24.1200 H   0  0  0  0  0  0
  -27.4024  -29.7265   25.4683 H   0  0  0  0  0  0
  -27.8778  -30.4301   23.9410 H   0  0  0  0  0  0
  -27.2666  -33.3617   26.2087 H   0  0  0  0  0  0
  -28.3858  -32.6889   25.0322 H   0  0  0  0  0  0
  -28.0730  -31.8440   26.5405 H   0  0  0  0  0  0
  -28.2600  -38.0099   24.7511 H   0  0  0  0  0  0
  -28.1073  -36.2631   24.6284 H   0  0  0  0  0  0
  -27.2301  -37.1456   25.8867 H   0  0  0  0  0  0
  -20.9366  -29.8767   21.6888 H   0  0  0  0  0  0
  -26.0176  -38.2858   24.1405 H   0  0  0  0  0  0
  -28.0708  -20.6926   19.2986 H   0  0  0  0  0  0
  -30.4792  -18.4154   18.5925 H   0  0  0  0  0  0
  -28.9471  -17.4152   18.7128 H   0  0  0  0  0  0
  -28.4800  -18.3608   20.9859 H   0  0  0  0  0  0
  -31.4267  -17.3148   20.6039 H   0  0  0  0  0  0
  -26.7549  -22.3413   18.2060 H   0  0  0  0  0  0
  -27.1875  -24.0387   18.3311 H   0  0  0  0  0  0
  -26.0261  -23.3323   19.4690 H   0  0  0  0  0  0
  -30.6499  -25.2512   21.9677 H   0  0  0  0  0  0
  -31.4568  -23.8788   22.7157 H   0  0  0  0  0  0
  -29.9030  -24.4275   23.3450 H   0  0  0  0  0  0
  -28.1499  -25.4709   21.9893 H   0  0  0  0  0  0
  -26.9036  -25.0028   20.9369 H   0  0  0  0  0  0
  -30.8499  -19.7029   21.6539 H   0  0  0  0  0  0
  -28.9359  -15.6336   20.8928 H   0  0  0  0  0  0
  1 25  1  0  0  0
  1 30  2  0  0  0
  1 84  1  0  0  0
  2  3  1  0  0  0
  2 25  1  0  0  0
  2 85  1  0  0  0
  2 86  1  0  0  0
  3  4  1  0  0  0
  3 87  1  0  0  0
  3 88  1  0  0  0
  4  5  1  0  0  0
  4 89  1  0  0  0
  4 90  1  0  0  0
  5  6  1  0  0  0
  5 26  1  0  0  0
  5 91  1  0  0  0
  6 25  1  0  0  0
  6 92  1  0  0  0
  6 93  1  0  0  0
  7  8  2  0  0  0
  7 26  1  0  0  0
  7 29  1  0  0  0
  8  9  1  0  0  0
  8 22  1  0  0  0
  9 10  1  0  0  0
  9 27  2  0  0  0
 10 11  2  0  0  0
 10 15  1  0  0  0
 11 12  1  0  0  0
 11 94  1  0  0  0
 12 13  2  0  0  0
 12 95  1  0  0  0
 13 14  1  0  0  0
 13 31  1  0  0  0
 14 15  2  0  0  0
 14 96  1  0  0  0
 15 97  1  0  0  0
 16 17  2  0  0  0
 16 21  1  0  0  0
 16 31  1  0  0  0
 17 18  1  0  0  0
 17 98  1  0  0  0
 18 19  2  0  0  0
 18 99  1  0  0  0
 19 20  1  0  0  0
 19 24  1  0  0  0
 20 21  2  0  0  0
 20100  1  0  0  0
 21 23  1  0  0  0
 22 28  1  0  0  0
 22 32  2  0  0  0
 26 27  1  0  0  0
 28101  1  0  0  0
 28102  1  0  0  0
 29103  1  0  0  0
 29104  1  0  0  0
 33 34  1  0  0  0
 33 66  1  0  0  0
 33 70  2  0  0  0
 34 36  1  0  0  0
 34 59  1  0  0  0
 34105  1  0  0  0
 35 44  2  0  0  0
 35 45  1  0  0  0
 35 68  1  0  0  0
 36 56  1  0  0  0
 36106  1  0  0  0
 37 39  1  0  0  0
 37 47  1  0  0  0
 37 66  1  0  0  0
 37107  1  0  0  0
 38 43  2  0  0  0
 38 46  1  0  0  0
 38 47  1  0  0  0
 39 64  1  0  0  0
 39 67  2  0  0  0
 40 52  1  0  0  0
 40 53  2  0  0  0
 40 58  1  0  0  0
 41108  1  0  0  0
 41109  1  0  0  0
 41110  1  0  0  0
 41 48  1  0  0  0
 42 43  1  0  0  0
 42 66  1  0  0  0
 42111  1  0  0  0
 42112  1  0  0  0
 43 44  1  0  0  0
 44113  1  0  0  0
 45 46  2  0  0  0
 45114  1  0  0  0
 46115  1  0  0  0
 47116  1  0  0  0
 47117  1  0  0  0
 48 56  1  0  0  0
 48 65  1  0  0  0
 48118  1  0  0  0
 49 50  1  0  0  0
 49 53  1  0  0  0
 49 64  1  0  0  0
 49119  1  0  0  0
 50 51  1  0  0  0
 50120  1  0  0  0
 50121  1  0  0  0
 51 52  1  0  0  0
 51122  1  0  0  0
 51123  1  0  0  0
 52124  1  0  0  0
 52125  1  0  0  0
 53 54  1  0  0  0
 54 55  2  0  0  0
 54126  1  0  0  0
 55 57  1  0  0  0
 55127  1  0  0  0
 56 69  2  0  0  0
 57 58  2  0  0  0
 57128  1  0  0  0
 58129  1  0  0  0
 59 60  1  0  0  0
 59 61  1  0  0  0
 59 62  1  0  0  0
 60130  1  0  0  0
 60131  1  0  0  0
 60132  1  0  0  0
 61133  1  0  0  0
 61134  1  0  0  0
 61135  1  0  0  0
 62136  1  0  0  0
 62137  1  0  0  0
 62138  1  0  0  0
 63 65  1  0  0  0
 63139  1  0  0  0
 63140  1  0  0  0
 63141  1  0  0  0
 64142  1  0  0  0
 65143  1  0  0  0
 68 81  1  0  0  0
 71 72  2  0  0  0
 71 75  1  0  0  0
 71144  1  0  0  0
 72 73  1  0  0  0
 72 79  1  0  0  0
 73 74  2  0  0  0
 73 81  1  0  0  0
 74 80  1  0  0  0
 74 82  1  0  0  0
 75 82  2  0  0  0
 75 83  1  0  0  0
 76 77  1  0  0  0
 76 78  1  0  0  0
 76145  1  0  0  0
 76146  1  0  0  0
 77 78  1  0  0  0
 77 83  1  0  0  0
 77147  1  0  0  0
 78 84  1  0  0  0
 78148  1  0  0  0
 79149  1  0  0  0
 79150  1  0  0  0
 79151  1  0  0  0
 80152  1  0  0  0
 80153  1  0  0  0
 80154  1  0  0  0
 81155  1  0  0  0
 81156  1  0  0  0
 83157  1  0  0  0
 84158  1  0  0  0
M  ISO  4   1 100  68 101  81 101  84 100
M  END
> <chiral flag>
0

> <version>
0

> <s_m_source_file>
/data/baiqing/PycharmProjects/Reinvent-master-3.2/result/LINK_invent/BTK/process_docking_weight1_custom_sum_contain_oxygen_bond_distance_aromatic_linkinvent_7_9_3/rearranged_h_0172.sdf

> <i_m_source_file_index>
81

> <r_mmod_Potential_Energy-OPLS-2005>
-104.484428405762

> <r_mmod_Stretch_Energy-OPLS-2005>
73.5990753173828

> <r_mmod_Bend_Energy-OPLS-2005>
147.34162902832

> <r_mmod_Torsional_Energy-OPLS-2005>
299.691802978516

> <r_mmod_Improper_Torsional_Energy-OPLS-2005>
8.68664073944092

> <r_mmod_Van_der_Waal_Energy-OPLS-2005>
141.45458984375

> <r_mmod_Electrostatic_Energy-OPLS-2005>
-594.13671875

> <r_mmod_Solvation_Energy-OPLS-2005>
-234.634552001953

> <b_mmod_Minimization_Converged-OPLS-2005>
0

> <r_mmod_RMS_Derivative-OPLS-2005>
0.772060334682465

$$$$
81
                    3D
 Structure written by MMmdl.
158168  0  0  1  0            999 V2000
  -30.6005  -14.9025   20.4393 C   0  0  0  0  0  0
  -30.4253  -12.5689   19.4813 C   0  0  0  0  0  0
  -29.5056  -12.5279   18.2420 C   0  0  0  0  0  0
  -28.0382  -12.3291   18.6644 C   0  0  0  0  0  0
  -27.6292  -13.2489   19.8466 C   0  0  2  0  0  0
  -28.6810  -13.2390   20.9754 C   0  0  0  0  0  0
  -25.2456  -13.8226   20.5739 C   0  0  0  0  0  0
  -24.1769  -13.0446   20.9236 C   0  0  0  0  0  0
  -24.6387  -11.6931   20.8767 C   0  0  0  0  0  0
  -23.9075  -10.4298   21.0411 C   0  0  0  0  0  0
  -24.3624   -9.4209   21.9186 C   0  0  0  0  0  0
  -23.6299   -8.2244   22.0753 C   0  0  0  0  0  0
  -22.4281   -8.0283   21.3543 C   0  0  0  0  0  0
  -21.9918   -9.0257   20.4646 C   0  0  0  0  0  0
  -22.7248  -10.2137   20.3058 C   0  0  0  0  0  0
  -21.6856   -6.0737   22.5278 C   0  0  0  0  0  0
  -21.4016   -6.5640   23.8211 C   0  0  0  0  0  0
  -21.3660   -5.6793   24.9173 C   0  0  0  0  0  0
  -21.6044   -4.3055   24.7224 C   0  0  0  0  0  0
  -21.8819   -3.8147   23.4345 C   0  0  0  0  0  0
  -21.9194   -4.6964   22.3401 C   0  0  0  0  0  0
  -22.7788  -13.5214   21.1880 C   0  0  0  0  0  0
  -22.1662   -4.2149   21.0979 F   0  0  0  0  0  0
  -21.5628   -3.4539   25.7737 F   0  0  0  0  0  0
  -29.9423  -13.6741   20.3625 N   0  0  0  0  0  0
  -26.2887  -12.9461   20.3318 N   0  0  0  0  0  0
  -25.9324  -11.6586   20.5781 N   0  0  0  0  0  0
  -22.0440  -12.8200   22.0434 N   0  0  0  0  0  0
  -25.4131  -15.1951   20.4150 N   0  0  0  0  0  0
  -31.8062  -14.8715   20.1630 O   0  0  0  0  0  0
  -21.6643   -6.8880   21.4240 O   0  0  0  0  0  0
  -22.3470  -14.5515   20.6720 O   0  0  0  0  0  0
  -24.6403  -31.8461   23.1901 C   0  0  0  0  0  0
  -25.9189  -32.4704   23.8280 C   0  0  1  0  0  0
  -27.2129  -27.1620   20.1469 C   0  0  0  0  0  0
  -25.5947  -33.8510   24.2198 N   0  0  0  0  0  0
  -23.4421  -30.4661   21.5351 C   0  0  2  0  0  0
  -24.8902  -28.8966   20.1080 C   0  0  0  0  0  0
  -22.7549  -29.4556   22.4870 C   0  0  0  0  0  0
  -18.0301  -28.1393   22.8479 C   0  0  0  0  0  0
  -24.1491  -36.7260   23.2642 C   0  0  0  0  0  0
  -25.9954  -30.7274   21.3853 C   0  0  0  0  0  0
  -26.0653  -29.3412   20.7266 C   0  0  0  0  0  0
  -27.2278  -28.4884   20.7304 C   0  0  0  0  0  0
  -26.0174  -26.8147   19.4816 C   0  0  0  0  0  0
  -24.8776  -27.6466   19.4703 C   0  0  0  0  0  0
  -23.6660  -29.7959   20.1534 C   0  0  0  0  0  0
  -25.4123  -36.3039   24.0317 C   0  0  1  0  0  0
  -20.5911  -28.3715   23.1245 C   0  0  2  0  0  0
  -20.6785  -26.9421   22.5406 C   0  0  0  0  0  0
  -19.5760  -26.6381   21.5213 C   0  0  0  0  0  0
  -18.1941  -26.7933   22.1624 C   0  0  0  0  0  0
  -19.1557  -28.8872   23.2855 C   0  0  0  0  0  0
  -18.9474  -30.1469   23.8878 C   0  0  0  0  0  0
  -17.6472  -30.6591   24.0559 C   0  0  0  0  0  0
  -25.9071  -34.9413   23.5066 C   0  0  0  0  0  0
  -16.5362  -29.9085   23.6335 C   0  0  0  0  0  0
  -16.7286  -28.6503   23.0356 C   0  0  0  0  0  0
  -26.4521  -31.6568   25.0714 C   0  0  0  0  0  0
  -25.3711  -31.3750   26.1414 C   0  0  0  0  0  0
  -27.0387  -30.2969   24.6282 C   0  0  0  0  0  0
  -27.6051  -32.4334   25.7499 C   0  0  0  0  0  0
  -27.5576  -37.1787   24.8466 C   0  0  0  0  0  0
  -21.4245  -29.3044   22.3619 N   0  0  0  0  0  0
  -26.4288  -37.3750   23.9407 N   0  0  0  0  0  0
  -24.7122  -31.0340   22.0922 N   0  0  0  0  0  0
  -23.4206  -28.8106   23.3012 O   0  0  0  0  0  0
  -28.2760  -26.2015   20.2276 O   0  0  0  0  0  0
  -26.5656  -34.8907   22.4644 O   0  0  0  0  0  0
  -23.5530  -32.1328   23.7140 O   0  0  0  0  0  0
  -28.6002  -20.7003   20.6901 C   0  0  0  0  0  0
  -30.8723  -19.9536   19.3079 C   0  0  0  0  0  0
  -28.9833  -19.2805   20.5791 C   0  0  0  0  0  0
  -29.3480  -21.8165   20.1151 C   0  0  0  0  0  0
  -30.1404  -18.8871   19.8879 C   0  0  0  0  0  0
  -30.5100  -21.3388   19.4143 C   0  0  0  0  0  0
  -28.1800  -18.0824   21.1277 C   0  0  0  0  0  0
  -30.6145  -17.3720   19.7361 C   0  0  0  0  0  0
  -28.9162  -24.1956   18.9663 C   0  0  0  0  0  0
  -28.9311  -16.6906   21.3940 C   0  0  0  0  0  0
  -29.1590  -23.4553   20.2747 C   0  0  1  0  0  0
  -28.0495  -24.6730   20.0847 C   0  0  1  0  0  0
  -31.4605  -22.3281   18.7546 C   0  0  0  0  0  0
  -29.9420  -16.1779   20.4139 N   0  0  0  0  0  0
  -31.4593  -12.7033   19.1605 H   0  0  0  0  0  0
  -30.4092  -11.6134   20.0083 H   0  0  0  0  0  0
  -29.8133  -11.7293   17.5656 H   0  0  0  0  0  0
  -29.6030  -13.4594   17.6820 H   0  0  0  0  0  0
  -27.9216  -11.2844   18.9552 H   0  0  0  0  0  0
  -27.3731  -12.4833   17.8140 H   0  0  0  0  0  0
  -27.6016  -14.2606   19.4405 H   0  0  0  0  0  0
  -28.7758  -12.2396   21.4028 H   0  0  0  0  0  0
  -28.3956  -13.8774   21.8078 H   0  0  0  0  0  0
  -25.2766   -9.5687   22.4765 H   0  0  0  0  0  0
  -24.0007   -7.4636   22.7472 H   0  0  0  0  0  0
  -21.0850   -8.8778   19.8951 H   0  0  0  0  0  0
  -22.3705  -10.9677   19.6170 H   0  0  0  0  0  0
  -21.2011   -7.6148   23.9715 H   0  0  0  0  0  0
  -21.1481   -6.0523   25.9076 H   0  0  0  0  0  0
  -22.0598   -2.7609   23.2845 H   0  0  0  0  0  0
  -22.4068  -11.9870   22.4829 H   0  0  0  0  0  0
  -21.1052  -13.1211   22.2634 H   0  0  0  0  0  0
  -24.6441  -15.8474   20.5219 H   0  0  0  0  0  0
  -26.2608  -15.6319   20.0780 H   0  0  0  0  0  0
  -26.7253  -32.5317   23.1008 H   0  0  0  0  0  0
  -25.0072  -33.9629   25.0330 H   0  0  0  0  0  0
  -22.7433  -31.2913   21.3828 H   0  0  0  0  0  0
  -23.3758  -35.9588   23.3294 H   0  0  0  0  0  0
  -24.3576  -36.8902   22.2059 H   0  0  0  0  0  0
  -23.7242  -37.6452   23.6685 H   0  0  0  0  0  0
  -26.1487  -31.4833   20.6139 H   0  0  0  0  0  0
  -26.8671  -30.7761   22.0263 H   0  0  0  0  0  0
  -28.1230  -28.8211   21.2369 H   0  0  0  0  0  0
  -25.9350  -25.8648   18.9751 H   0  0  0  0  0  0
  -23.9818  -27.3049   18.9702 H   0  0  0  0  0  0
  -23.7995  -30.5707   19.3975 H   0  0  0  0  0  0
  -22.7812  -29.2363   19.8446 H   0  0  0  0  0  0
  -25.1311  -36.1869   25.0809 H   0  0  0  0  0  0
  -21.0002  -28.3302   24.1366 H   0  0  0  0  0  0
  -20.5679  -26.2327   23.3622 H   0  0  0  0  0  0
  -21.6652  -26.7431   22.1204 H   0  0  0  0  0  0
  -19.6921  -25.6287   21.1255 H   0  0  0  0  0  0
  -19.6698  -27.3180   20.6733 H   0  0  0  0  0  0
  -17.4210  -26.6676   21.4028 H   0  0  0  0  0  0
  -18.0341  -26.0079   22.9025 H   0  0  0  0  0  0
  -19.7950  -30.7290   24.2240 H   0  0  0  0  0  0
  -17.5025  -31.6270   24.5164 H   0  0  0  0  0  0
  -15.5361  -30.2980   23.7671 H   0  0  0  0  0  0
  -15.8686  -28.0815   22.7083 H   0  0  0  0  0  0
  -24.5897  -30.7090   25.7735 H   0  0  0  0  0  0
  -24.8892  -32.2929   26.4789 H   0  0  0  0  0  0
  -25.8000  -30.8957   27.0223 H   0  0  0  0  0  0
  -26.3001  -29.6691   24.1284 H   0  0  0  0  0  0
  -27.4004  -29.7267   25.4849 H   0  0  0  0  0  0
  -27.8905  -30.4213   23.9593 H   0  0  0  0  0  0
  -27.2643  -33.3650   26.2028 H   0  0  0  0  0  0
  -28.3888  -32.6869   25.0348 H   0  0  0  0  0  0
  -28.0691  -31.8493   26.5457 H   0  0  0  0  0  0
  -28.2588  -38.0089   24.7511 H   0  0  0  0  0  0
  -28.1078  -36.2618   24.6295 H   0  0  0  0  0  0
  -27.2292  -37.1438   25.8868 H   0  0  0  0  0  0
  -20.9450  -29.8755   21.6801 H   0  0  0  0  0  0
  -26.0156  -38.2819   24.1408 H   0  0  0  0  0  0
  -27.7079  -20.9367   21.2537 H   0  0  0  0  0  0
  -31.7690  -19.6945   18.7611 H   0  0  0  0  0  0
  -27.3788  -17.9020   20.4101 H   0  0  0  0  0  0
  -27.6807  -18.3958   22.0454 H   0  0  0  0  0  0
  -31.6627  -17.3759   20.0392 H   0  0  0  0  0  0
  -30.6274  -17.1544   18.6673 H   0  0  0  0  0  0
  -28.4000  -23.6623   18.1708 H   0  0  0  0  0  0
  -29.7199  -24.8436   18.6227 H   0  0  0  0  0  0
  -28.1581  -15.9458   21.5569 H   0  0  0  0  0  0
  -29.4606  -16.7774   22.3437 H   0  0  0  0  0  0
  -29.9939  -23.7787   20.8930 H   0  0  0  0  0  0
  -27.0072  -24.3691   20.1491 H   0  0  0  0  0  0
  -32.3881  -21.8485   18.4405 H   0  0  0  0  0  0
  -31.7371  -23.1331   19.4351 H   0  0  0  0  0  0
  -31.0040  -22.7620   17.8651 H   0  0  0  0  0  0
  1 25  1  0  0  0
  1 30  2  0  0  0
  1 84  1  0  0  0
  2  3  1  0  0  0
  2 25  1  0  0  0
  2 85  1  0  0  0
  2 86  1  0  0  0
  3  4  1  0  0  0
  3 87  1  0  0  0
  3 88  1  0  0  0
  4  5  1  0  0  0
  4 89  1  0  0  0
  4 90  1  0  0  0
  5  6  1  0  0  0
  5 26  1  0  0  0
  5 91  1  0  0  0
  6 25  1  0  0  0
  6 92  1  0  0  0
  6 93  1  0  0  0
  7  8  2  0  0  0
  7 26  1  0  0  0
  7 29  1  0  0  0
  8  9  1  0  0  0
  8 22  1  0  0  0
  9 10  1  0  0  0
  9 27  2  0  0  0
 10 11  2  0  0  0
 10 15  1  0  0  0
 11 12  1  0  0  0
 11 94  1  0  0  0
 12 13  2  0  0  0
 12 95  1  0  0  0
 13 14  1  0  0  0
 13 31  1  0  0  0
 14 15  2  0  0  0
 14 96  1  0  0  0
 15 97  1  0  0  0
 16 17  2  0  0  0
 16 21  1  0  0  0
 16 31  1  0  0  0
 17 18  1  0  0  0
 17 98  1  0  0  0
 18 19  2  0  0  0
 18 99  1  0  0  0
 19 20  1  0  0  0
 19 24  1  0  0  0
 20 21  2  0  0  0
 20100  1  0  0  0
 21 23  1  0  0  0
 22 28  1  0  0  0
 22 32  2  0  0  0
 26 27  1  0  0  0
 28101  1  0  0  0
 28102  1  0  0  0
 29103  1  0  0  0
 29104  1  0  0  0
 33 34  1  0  0  0
 33 66  1  0  0  0
 33 70  2  0  0  0
 34 36  1  0  0  0
 34 59  1  0  0  0
 34105  1  0  0  0
 35 44  2  0  0  0
 35 45  1  0  0  0
 35 68  1  0  0  0
 36 56  1  0  0  0
 36106  1  0  0  0
 37 39  1  0  0  0
 37 47  1  0  0  0
 37 66  1  0  0  0
 37107  1  0  0  0
 38 43  2  0  0  0
 38 46  1  0  0  0
 38 47  1  0  0  0
 39 64  1  0  0  0
 39 67  2  0  0  0
 40 52  1  0  0  0
 40 53  2  0  0  0
 40 58  1  0  0  0
 41108  1  0  0  0
 41109  1  0  0  0
 41110  1  0  0  0
 41 48  1  0  0  0
 42 43  1  0  0  0
 42 66  1  0  0  0
 42111  1  0  0  0
 42112  1  0  0  0
 43 44  1  0  0  0
 44113  1  0  0  0
 45 46  2  0  0  0
 45114  1  0  0  0
 46115  1  0  0  0
 47116  1  0  0  0
 47117  1  0  0  0
 48 56  1  0  0  0
 48 65  1  0  0  0
 48118  1  0  0  0
 49 50  1  0  0  0
 49 53  1  0  0  0
 49 64  1  0  0  0
 49119  1  0  0  0
 50 51  1  0  0  0
 50120  1  0  0  0
 50121  1  0  0  0
 51 52  1  0  0  0
 51122  1  0  0  0
 51123  1  0  0  0
 52124  1  0  0  0
 52125  1  0  0  0
 53 54  1  0  0  0
 54 55  2  0  0  0
 54126  1  0  0  0
 55 57  1  0  0  0
 55127  1  0  0  0
 56 69  2  0  0  0
 57 58  2  0  0  0
 57128  1  0  0  0
 58129  1  0  0  0
 59 60  1  0  0  0
 59 61  1  0  0  0
 59 62  1  0  0  0
 60130  1  0  0  0
 60131  1  0  0  0
 60132  1  0  0  0
 61133  1  0  0  0
 61134  1  0  0  0
 61135  1  0  0  0
 62136  1  0  0  0
 62137  1  0  0  0
 62138  1  0  0  0
 63 65  1  0  0  0
 63139  1  0  0  0
 63140  1  0  0  0
 63141  1  0  0  0
 64142  1  0  0  0
 65143  1  0  0  0
 68 82  1  0  0  0
 71 73  2  0  0  0
 71 74  1  0  0  0
 71144  1  0  0  0
 72 75  2  0  0  0
 72 76  1  0  0  0
 72145  1  0  0  0
 73 75  1  0  0  0
 73 77  1  0  0  0
 74 76  2  0  0  0
 74 81  1  0  0  0
 75 78  1  0  0  0
 76 83  1  0  0  0
 77 80  1  0  0  0
 77146  1  0  0  0
 77147  1  0  0  0
 78 84  1  0  0  0
 78148  1  0  0  0
 78149  1  0  0  0
 79 81  1  0  0  0
 79 82  1  0  0  0
 79150  1  0  0  0
 79151  1  0  0  0
 80 84  1  0  0  0
 80152  1  0  0  0
 80153  1  0  0  0
 81 82  1  0  0  0
 81154  1  0  0  0
 82155  1  0  0  0
 83156  1  0  0  0
 83157  1  0  0  0
 83158  1  0  0  0
M  ISO  4   1 100  68 101  82 101  84 100
M  END
> <chiral flag>
0

> <version>
0

> <s_m_source_file>
/data/baiqing/PycharmProjects/Reinvent-master-3.2/result/LINK_invent/BTK/process_docking_weight1_custom_sum_contain_oxygen_bond_distance_aromatic_linkinvent_7_9_3/rearranged_h_0172.sdf

> <i_m_source_file_index>
82

> <r_mmod_Potential_Energy-OPLS-2005>
581.340454101562

> <r_mmod_Stretch_Energy-OPLS-2005>
217.535781860352

> <r_mmod_Bend_Energy-OPLS-2005>
279.516143798828

> <r_mmod_Torsional_Energy-OPLS-2005>
298.050994873047

> <r_mmod_Improper_Torsional_Energy-OPLS-2005>
13.6357660293579

> <r_mmod_Van_der_Waal_Energy-OPLS-2005>
142.414443969727

> <r_mmod_Electrostatic_Energy-OPLS-2005>
-326.958190917969

> <r_mmod_Solvation_Energy-OPLS-2005>
-203.312194824219

> <b_mmod_Minimization_Converged-OPLS-2005>
0

> <r_mmod_RMS_Derivative-OPLS-2005>
0.1234075948596

$$$$
82
                    3D
 Structure written by MMmdl.
164173  0  0  1  0            999 V2000
  -30.6652  -14.7706   20.4483 C   0  0  0  0  0  0
  -30.4378  -12.4821   19.4609 C   0  0  0  0  0  0
  -29.5044  -12.4918   18.2317 C   0  0  0  0  0  0
  -28.0411  -12.2695   18.6592 C   0  0  0  0  0  0
  -27.6327  -13.1873   19.8366 C   0  0  2  0  0  0
  -28.6949  -13.1952   20.9670 C   0  0  0  0  0  0
  -25.2499  -13.8044   20.5604 C   0  0  0  0  0  0
  -24.1787  -13.0355   20.9191 C   0  0  0  0  0  0
  -24.6334  -11.6833   20.8762 C   0  0  0  0  0  0
  -23.8994  -10.4242   21.0415 C   0  0  0  0  0  0
  -24.3560   -9.4172   21.9195 C   0  0  0  0  0  0
  -23.6260   -8.2200   22.0740 C   0  0  0  0  0  0
  -22.4241   -8.0246   21.3527 C   0  0  0  0  0  0
  -21.9863   -9.0210   20.4633 C   0  0  0  0  0  0
  -22.7174  -10.2099   20.3053 C   0  0  0  0  0  0
  -21.6824   -6.0724   22.5272 C   0  0  0  0  0  0
  -21.4006   -6.5634   23.8207 C   0  0  0  0  0  0
  -21.3664   -5.6780   24.9172 C   0  0  0  0  0  0
  -21.6047   -4.3046   24.7216 C   0  0  0  0  0  0
  -21.8822   -3.8138   23.4336 C   0  0  0  0  0  0
  -21.9173   -4.6953   22.3394 C   0  0  0  0  0  0
  -22.7820  -13.5204   21.1833 C   0  0  0  0  0  0
  -22.1642   -4.2147   21.0971 F   0  0  0  0  0  0
  -21.5636   -3.4533   25.7729 F   0  0  0  0  0  0
  -29.9825  -13.5677   20.3631 N   0  0  0  0  0  0
  -26.2897  -12.9152   20.3272 N   0  0  0  0  0  0
  -25.9253  -11.6361   20.5803 N   0  0  0  0  0  0
  -22.0437  -12.8247   22.0391 N   0  0  0  0  0  0
  -25.4133  -15.1740   20.3839 N   0  0  0  0  0  0
  -31.8781  -14.7738   20.2250 O   0  0  0  0  0  0
  -21.6609   -6.8854   21.4227 O   0  0  0  0  0  0
  -22.3552  -14.5523   20.6670 O   0  0  0  0  0  0
  -24.6262  -31.8604   23.2033 C   0  0  0  0  0  0
  -25.9112  -32.4795   23.8367 C   0  0  1  0  0  0
  -27.2203  -27.3055   20.1449 C   0  0  0  0  0  0
  -25.5930  -33.8596   24.2295 N   0  0  0  0  0  0
  -23.4212  -30.4833   21.5448 C   0  0  2  0  0  0
  -24.8717  -28.9395   20.1096 C   0  0  0  0  0  0
  -22.7482  -29.4624   22.4936 C   0  0  0  0  0  0
  -18.0284  -28.1386   22.8507 C   0  0  0  0  0  0
  -24.1481  -36.7296   23.2635 C   0  0  0  0  0  0
  -25.9629  -30.7893   21.3766 C   0  0  0  0  0  0
  -26.0389  -29.4145   20.7231 C   0  0  0  0  0  0
  -27.2188  -28.6113   20.7278 C   0  0  0  0  0  0
  -26.0417  -26.8955   19.4848 C   0  0  0  0  0  0
  -24.8781  -27.6882   19.4734 C   0  0  0  0  0  0
  -23.6384  -29.8188   20.1589 C   0  0  0  0  0  0
  -25.4104  -36.3101   24.0336 C   0  0  1  0  0  0
  -20.5889  -28.3685   23.1298 C   0  0  2  0  0  0
  -20.6784  -26.9405   22.5418 C   0  0  0  0  0  0
  -19.5742  -26.6381   21.5237 C   0  0  0  0  0  0
  -18.1920  -26.7934   22.1642 C   0  0  0  0  0  0
  -19.1540  -28.8853   23.2906 C   0  0  0  0  0  0
  -18.9462  -30.1463   23.8913 C   0  0  0  0  0  0
  -17.6455  -30.6597   24.0559 C   0  0  0  0  0  0
  -25.9043  -34.9473   23.5115 C   0  0  0  0  0  0
  -16.5348  -29.9088   23.6338 C   0  0  0  0  0  0
  -16.7271  -28.6504   23.0365 C   0  0  0  0  0  0
  -26.4484  -31.6605   25.0738 C   0  0  0  0  0  0
  -25.3721  -31.3772   26.1481 C   0  0  0  0  0  0
  -27.0281  -30.3018   24.6186 C   0  0  0  0  0  0
  -27.6076  -32.4307   25.7478 C   0  0  0  0  0  0
  -27.5590  -37.1786   24.8452 C   0  0  0  0  0  0
  -21.4194  -29.3051   22.3699 N   0  0  0  0  0  0
  -26.4279  -37.3807   23.9428 N   0  0  0  0  0  0
  -24.6888  -31.0606   22.0989 N   0  0  0  0  0  0
  -23.4215  -28.8161   23.3003 O   0  0  0  0  0  0
  -28.3189  -26.4289   20.1894 O   0  0  0  0  0  0
  -26.5611  -34.8932   22.4677 O   0  0  0  0  0  0
  -23.5424  -32.1401   23.7358 O   0  0  0  0  0  0
  -29.6925  -21.3545   20.3666 C   0  0  0  0  0  0
  -28.8275  -22.4611   20.7568 C   0  0  0  0  0  0
  -28.9918  -23.8079   20.2218 C   0  0  0  0  0  0
  -30.7041  -21.7046   19.4337 C   0  0  0  0  0  0
  -30.0281  -23.9582   19.2737 C   0  0  0  0  0  0
  -29.6862  -19.9432   21.0410 C   0  0  0  0  0  0
  -28.3867  -17.8414   20.2832 C   0  0  0  0  0  0
  -28.6489  -16.3226   20.1755 C   0  0  0  0  0  0
  -30.6581  -17.3587   20.7934 C   0  0  0  0  0  0
  -29.7415  -18.5521   20.2523 C   0  0  2  0  0  0
  -27.7160  -22.2129   21.7714 C   0  0  0  0  0  0
  -31.8114  -20.7542   19.0047 C   0  0  0  0  0  0
  -30.3466  -25.2844   18.6072 C   0  0  0  0  0  0
  -28.0664  -25.0314   20.6488 C   0  0  0  0  0  0
  -30.8364  -22.9424   18.9018 N   0  0  0  0  0  0
  -30.0084  -16.0009   20.6149 N   0  0  0  0  0  0
  -29.5983  -19.8629   22.2687 O   0  0  0  0  0  0
  -31.4738  -12.6092   19.1402 H   0  0  0  0  0  0
  -30.4042  -11.5178   19.9709 H   0  0  0  0  0  0
  -29.8070  -11.7244   17.5194 H   0  0  0  0  0  0
  -29.5956  -13.4441   17.7088 H   0  0  0  0  0  0
  -27.9362  -11.2231   18.9480 H   0  0  0  0  0  0
  -27.3707  -12.4203   17.8112 H   0  0  0  0  0  0
  -27.5782  -14.1609   19.3727 H   0  0  0  0  0  0
  -28.7667  -12.2120   21.4341 H   0  0  0  0  0  0
  -28.4270  -13.8829   21.7688 H   0  0  0  0  0  0
  -25.2670   -9.5685   22.4826 H   0  0  0  0  0  0
  -23.9973   -7.4582   22.7455 H   0  0  0  0  0  0
  -21.0790   -8.8705   19.8935 H   0  0  0  0  0  0
  -22.3591  -10.9651   19.6197 H   0  0  0  0  0  0
  -21.2014   -7.6141   23.9725 H   0  0  0  0  0  0
  -21.1487   -6.0503   25.9078 H   0  0  0  0  0  0
  -22.0607   -2.7601   23.2820 H   0  0  0  0  0  0
  -22.3978  -11.9887   22.4798 H   0  0  0  0  0  0
  -21.1079  -13.1354   22.2594 H   0  0  0  0  0  0
  -24.6421  -15.8269   20.4733 H   0  0  0  0  0  0
  -26.2600  -15.6017   20.0327 H   0  0  0  0  0  0
  -26.7184  -32.5462   23.1125 H   0  0  0  0  0  0
  -25.0100  -33.9742   25.0462 H   0  0  0  0  0  0
  -22.7165  -31.3054   21.4020 H   0  0  0  0  0  0
  -23.3785  -35.9578   23.3215 H   0  0  0  0  0  0
  -24.3605  -36.8996   22.2069 H   0  0  0  0  0  0
  -23.7155  -37.6440   23.6704 H   0  0  0  0  0  0
  -26.0918  -31.5514   20.6077 H   0  0  0  0  0  0
  -26.8467  -30.8450   22.0003 H   0  0  0  0  0  0
  -28.1127  -28.9708   21.2196 H   0  0  0  0  0  0
  -26.0074  -25.9441   18.9743 H   0  0  0  0  0  0
  -23.9934  -27.3273   18.9679 H   0  0  0  0  0  0
  -23.7526  -30.5982   19.4037 H   0  0  0  0  0  0
  -22.7596  -29.2463   19.8561 H   0  0  0  0  0  0
  -25.1274  -36.1955   25.0828 H   0  0  0  0  0  0
  -20.9986  -28.3243   24.1418 H   0  0  0  0  0  0
  -20.5714  -26.2278   23.3614 H   0  0  0  0  0  0
  -21.6637  -26.7464   22.1160 H   0  0  0  0  0  0
  -19.6888  -25.6292   21.1263 H   0  0  0  0  0  0
  -19.6675  -27.3202   20.6772 H   0  0  0  0  0  0
  -17.4191  -26.6715   21.4035 H   0  0  0  0  0  0
  -18.0291  -26.0077   22.9032 H   0  0  0  0  0  0
  -19.7932  -30.7292   24.2272 H   0  0  0  0  0  0
  -17.5000  -31.6288   24.5133 H   0  0  0  0  0  0
  -15.5342  -30.2989   23.7663 H   0  0  0  0  0  0
  -15.8669  -28.0829   22.7075 H   0  0  0  0  0  0
  -24.5789  -30.7272   25.7779 H   0  0  0  0  0  0
  -24.9061  -32.2972   26.5027 H   0  0  0  0  0  0
  -25.8020  -30.8794   27.0189 H   0  0  0  0  0  0
  -26.2834  -29.6787   24.1225 H   0  0  0  0  0  0
  -27.3981  -29.7263   25.4684 H   0  0  0  0  0  0
  -27.8717  -30.4282   23.9397 H   0  0  0  0  0  0
  -27.2757  -33.3662   26.1996 H   0  0  0  0  0  0
  -28.3917  -32.6768   25.0302 H   0  0  0  0  0  0
  -28.0698  -31.8445   26.5433 H   0  0  0  0  0  0
  -28.2555  -38.0136   24.7602 H   0  0  0  0  0  0
  -28.1142  -36.2684   24.6149 H   0  0  0  0  0  0
  -27.2337  -37.1265   25.8857 H   0  0  0  0  0  0
  -20.9363  -29.8778   21.6923 H   0  0  0  0  0  0
  -26.0164  -38.2869   24.1485 H   0  0  0  0  0  0
  -27.8697  -18.0463   21.2230 H   0  0  0  0  0  0
  -27.7308  -18.1883   19.4830 H   0  0  0  0  0  0
  -28.5485  -16.0269   19.1312 H   0  0  0  0  0  0
  -27.9206  -15.8014   20.7882 H   0  0  0  0  0  0
  -30.8637  -17.4918   21.8570 H   0  0  0  0  0  0
  -31.6226  -17.3896   20.2854 H   0  0  0  0  0  0
  -29.9853  -18.7387   19.2072 H   0  0  0  0  0  0
  -27.3107  -21.2047   21.6881 H   0  0  0  0  0  0
  -26.8692  -22.8827   21.6395 H   0  0  0  0  0  0
  -28.0979  -22.3437   22.7836 H   0  0  0  0  0  0
  -32.2569  -20.2519   19.8638 H   0  0  0  0  0  0
  -32.6167  -21.2940   18.5044 H   0  0  0  0  0  0
  -31.4420  -20.0095   18.3021 H   0  0  0  0  0  0
  -30.7091  -25.9993   19.3461 H   0  0  0  0  0  0
  -29.4627  -25.6985   18.1224 H   0  0  0  0  0  0
  -31.1176  -25.1826   17.8438 H   0  0  0  0  0  0
  -28.1081  -25.0737   21.7382 H   0  0  0  0  0  0
  -27.0479  -24.7293   20.4171 H   0  0  0  0  0  0
  1 25  1  0  0  0
  1 30  2  0  0  0
  1 86  1  0  0  0
  2  3  1  0  0  0
  2 25  1  0  0  0
  2 88  1  0  0  0
  2 89  1  0  0  0
  3  4  1  0  0  0
  3 90  1  0  0  0
  3 91  1  0  0  0
  4  5  1  0  0  0
  4 92  1  0  0  0
  4 93  1  0  0  0
  5  6  1  0  0  0
  5 26  1  0  0  0
  5 94  1  0  0  0
  6 25  1  0  0  0
  6 95  1  0  0  0
  6 96  1  0  0  0
  7  8  2  0  0  0
  7 26  1  0  0  0
  7 29  1  0  0  0
  8  9  1  0  0  0
  8 22  1  0  0  0
  9 10  1  0  0  0
  9 27  2  0  0  0
 10 11  2  0  0  0
 10 15  1  0  0  0
 11 12  1  0  0  0
 11 97  1  0  0  0
 12 13  2  0  0  0
 12 98  1  0  0  0
 13 14  1  0  0  0
 13 31  1  0  0  0
 14 15  2  0  0  0
 14 99  1  0  0  0
 15100  1  0  0  0
 16 17  2  0  0  0
 16 21  1  0  0  0
 16 31  1  0  0  0
 17 18  1  0  0  0
 17101  1  0  0  0
 18 19  2  0  0  0
 18102  1  0  0  0
 19 20  1  0  0  0
 19 24  1  0  0  0
 20 21  2  0  0  0
 20103  1  0  0  0
 21 23  1  0  0  0
 22 28  1  0  0  0
 22 32  2  0  0  0
 26 27  1  0  0  0
 28104  1  0  0  0
 28105  1  0  0  0
 29106  1  0  0  0
 29107  1  0  0  0
 33 34  1  0  0  0
 33 66  1  0  0  0
 33 70  2  0  0  0
 34 36  1  0  0  0
 34 59  1  0  0  0
 34108  1  0  0  0
 35 44  2  0  0  0
 35 45  1  0  0  0
 35 68  1  0  0  0
 36 56  1  0  0  0
 36109  1  0  0  0
 37 39  1  0  0  0
 37 47  1  0  0  0
 37 66  1  0  0  0
 37110  1  0  0  0
 38 43  2  0  0  0
 38 46  1  0  0  0
 38 47  1  0  0  0
 39 64  1  0  0  0
 39 67  2  0  0  0
 40 52  1  0  0  0
 40 53  2  0  0  0
 40 58  1  0  0  0
 41111  1  0  0  0
 41112  1  0  0  0
 41113  1  0  0  0
 41 48  1  0  0  0
 42 43  1  0  0  0
 42 66  1  0  0  0
 42114  1  0  0  0
 42115  1  0  0  0
 43 44  1  0  0  0
 44116  1  0  0  0
 45 46  2  0  0  0
 45117  1  0  0  0
 46118  1  0  0  0
 47119  1  0  0  0
 47120  1  0  0  0
 48 56  1  0  0  0
 48 65  1  0  0  0
 48121  1  0  0  0
 49 50  1  0  0  0
 49 53  1  0  0  0
 49 64  1  0  0  0
 49122  1  0  0  0
 50 51  1  0  0  0
 50123  1  0  0  0
 50124  1  0  0  0
 51 52  1  0  0  0
 51125  1  0  0  0
 51126  1  0  0  0
 52127  1  0  0  0
 52128  1  0  0  0
 53 54  1  0  0  0
 54 55  2  0  0  0
 54129  1  0  0  0
 55 57  1  0  0  0
 55130  1  0  0  0
 56 69  2  0  0  0
 57 58  2  0  0  0
 57131  1  0  0  0
 58132  1  0  0  0
 59 60  1  0  0  0
 59 61  1  0  0  0
 59 62  1  0  0  0
 60133  1  0  0  0
 60134  1  0  0  0
 60135  1  0  0  0
 61136  1  0  0  0
 61137  1  0  0  0
 61138  1  0  0  0
 62139  1  0  0  0
 62140  1  0  0  0
 62141  1  0  0  0
 63 65  1  0  0  0
 63142  1  0  0  0
 63143  1  0  0  0
 63144  1  0  0  0
 64145  1  0  0  0
 65146  1  0  0  0
 68 84  1  0  0  0
 71 72  2  0  0  0
 71 74  1  0  0  0
 71 76  1  0  0  0
 72 73  1  0  0  0
 72 81  1  0  0  0
 73 75  2  0  0  0
 73 84  1  0  0  0
 74 82  1  0  0  0
 74 85  2  0  0  0
 75 83  1  0  0  0
 75 85  1  0  0  0
 76 87  2  0  0  0
 76 80  1  0  0  0
 77 78  1  0  0  0
 77 80  1  0  0  0
 77147  1  0  0  0
 77148  1  0  0  0
 78 86  1  0  0  0
 78149  1  0  0  0
 78150  1  0  0  0
 79 80  1  0  0  0
 79 86  1  0  0  0
 79151  1  0  0  0
 79152  1  0  0  0
 80153  1  0  0  0
 81154  1  0  0  0
 81155  1  0  0  0
 81156  1  0  0  0
 82157  1  0  0  0
 82158  1  0  0  0
 82159  1  0  0  0
 83160  1  0  0  0
 83161  1  0  0  0
 83162  1  0  0  0
 84163  1  0  0  0
 84164  1  0  0  0
M  ISO  4   1 100  68 101  84 101  86 100
M  END
> <chiral flag>
0

> <version>
0

> <s_m_source_file>
/data/baiqing/PycharmProjects/Reinvent-master-3.2/result/LINK_invent/BTK/process_docking_weight1_custom_sum_contain_oxygen_bond_distance_aromatic_linkinvent_7_9_3/rearranged_h_0172.sdf

> <i_m_source_file_index>
83

> <r_mmod_Potential_Energy-OPLS-2005>
337.275207519531

> <r_mmod_Stretch_Energy-OPLS-2005>
116.623626708984

> <r_mmod_Bend_Energy-OPLS-2005>
185.833587646484

> <r_mmod_Torsional_Energy-OPLS-2005>
373.684448242188

> <r_mmod_Improper_Torsional_Energy-OPLS-2005>
5.80926418304443

> <r_mmod_Van_der_Waal_Energy-OPLS-2005>
156.554672241211

> <r_mmod_Electrostatic_Energy-OPLS-2005>
-365.947814941406

> <r_mmod_Solvation_Energy-OPLS-2005>
-221.614944458008

> <b_mmod_Minimization_Converged-OPLS-2005>
0

> <r_mmod_RMS_Derivative-OPLS-2005>
2.61048007011414

$$$$
83
                    3D
 Structure written by MMmdl.
158167  0  0  1  0            999 V2000
  -30.6085  -14.8793   20.4719 C   0  0  0  0  0  0
  -30.4374  -12.5511   19.4963 C   0  0  0  0  0  0
  -29.5196  -12.5395   18.2520 C   0  0  0  0  0  0
  -28.0485  -12.3393   18.6605 C   0  0  0  0  0  0
  -27.6416  -13.2434   19.8547 C   0  0  2  0  0  0
  -28.6907  -13.2165   20.9902 C   0  0  0  0  0  0
  -25.2506  -13.8210   20.5698 C   0  0  0  0  0  0
  -24.1807  -13.0460   20.9212 C   0  0  0  0  0  0
  -24.6396  -11.6929   20.8762 C   0  0  0  0  0  0
  -23.9074  -10.4305   21.0421 C   0  0  0  0  0  0
  -24.3622   -9.4217   21.9204 C   0  0  0  0  0  0
  -23.6305   -8.2245   22.0764 C   0  0  0  0  0  0
  -22.4283   -8.0294   21.3562 C   0  0  0  0  0  0
  -21.9926   -9.0267   20.4665 C   0  0  0  0  0  0
  -22.7246  -10.2143   20.3078 C   0  0  0  0  0  0
  -21.6843   -6.0753   22.5287 C   0  0  0  0  0  0
  -21.3996   -6.5651   23.8224 C   0  0  0  0  0  0
  -21.3666   -5.6797   24.9180 C   0  0  0  0  0  0
  -21.6059   -4.3064   24.7217 C   0  0  0  0  0  0
  -21.8821   -3.8157   23.4338 C   0  0  0  0  0  0
  -21.9174   -4.6977   22.3393 C   0  0  0  0  0  0
  -22.7820  -13.5244   21.1826 C   0  0  0  0  0  0
  -22.1652   -4.2165   21.0969 F   0  0  0  0  0  0
  -21.5620   -3.4543   25.7729 F   0  0  0  0  0  0
  -29.9687  -13.6408   20.4011 N   0  0  0  0  0  0
  -26.2945  -12.9437   20.3318 N   0  0  0  0  0  0
  -25.9343  -11.6565   20.5765 N   0  0  0  0  0  0
  -22.0453  -12.8283   22.0387 N   0  0  0  0  0  0
  -25.4185  -15.1922   20.4051 N   0  0  0  0  0  0
  -31.7857  -14.9191   20.0956 O   0  0  0  0  0  0
  -21.6642   -6.8897   21.4261 O   0  0  0  0  0  0
  -22.3509  -14.5543   20.6635 O   0  0  0  0  0  0
  -24.6415  -31.8489   23.1938 C   0  0  0  0  0  0
  -25.9201  -32.4715   23.8325 C   0  0  1  0  0  0
  -27.2168  -27.1637   20.1357 C   0  0  0  0  0  0
  -25.5976  -33.8521   24.2240 N   0  0  0  0  0  0
  -23.4441  -30.4707   21.5396 C   0  0  2  0  0  0
  -24.8932  -28.9113   20.1094 C   0  0  0  0  0  0
  -22.7561  -29.4570   22.4884 C   0  0  0  0  0  0
  -18.0304  -28.1386   22.8478 C   0  0  0  0  0  0
  -24.1492  -36.7253   23.2638 C   0  0  0  0  0  0
  -26.0008  -30.7266   21.3953 C   0  0  0  0  0  0
  -26.0710  -29.3428   20.7324 C   0  0  0  0  0  0
  -27.2320  -28.4830   20.7378 C   0  0  0  0  0  0
  -26.0148  -26.8462   19.4551 C   0  0  0  0  0  0
  -24.8768  -27.6741   19.4563 C   0  0  0  0  0  0
  -23.6690  -29.8084   20.1573 C   0  0  0  0  0  0
  -25.4124  -36.3038   24.0321 C   0  0  1  0  0  0
  -20.5912  -28.3714   23.1230 C   0  0  2  0  0  0
  -20.6784  -26.9421   22.5395 C   0  0  0  0  0  0
  -19.5763  -26.6373   21.5204 C   0  0  0  0  0  0
  -18.1945  -26.7931   22.1612 C   0  0  0  0  0  0
  -19.1556  -28.8870   23.2845 C   0  0  0  0  0  0
  -18.9469  -30.1465   23.8869 C   0  0  0  0  0  0
  -17.6465  -30.6580   24.0545 C   0  0  0  0  0  0
  -25.9077  -34.9412   23.5084 C   0  0  0  0  0  0
  -16.5362  -29.9065   23.6330 C   0  0  0  0  0  0
  -16.7290  -28.6481   23.0368 C   0  0  0  0  0  0
  -26.4526  -31.6574   25.0757 C   0  0  0  0  0  0
  -25.3713  -31.3781   26.1458 C   0  0  0  0  0  0
  -27.0368  -30.2960   24.6349 C   0  0  0  0  0  0
  -27.6091  -32.4316   25.7516 C   0  0  0  0  0  0
  -27.5579  -37.1780   24.8460 C   0  0  0  0  0  0
  -21.4256  -29.3041   22.3607 N   0  0  0  0  0  0
  -26.4285  -37.3749   23.9407 N   0  0  0  0  0  0
  -24.7147  -31.0368   22.0968 N   0  0  0  0  0  0
  -23.4219  -28.8110   23.3022 O   0  0  0  0  0  0
  -28.2505  -26.1601   20.2247 O   0  0  0  0  0  0
  -26.5644  -34.8892   22.4653 O   0  0  0  0  0  0
  -23.5538  -32.1352   23.7165 O   0  0  0  0  0  0
  -29.1516  -20.9512   19.2110 C   0  0  0  0  0  0
  -28.8779  -22.3666   19.0803 C   0  0  0  0  0  0
  -29.0508  -21.1734   21.5575 C   0  0  0  0  0  0
  -29.2111  -20.2571   20.4572 C   0  0  0  0  0  0
  -28.6243  -23.2657   20.1705 C   0  0  0  0  0  0
  -28.7604  -22.6060   21.4401 C   0  0  0  0  0  0
  -28.9544  -17.9891   21.9661 C   0  0  0  0  0  0
  -29.0256  -16.4339   21.7725 C   0  0  0  0  0  0
  -30.2196  -17.5040   20.0583 C   0  0  0  0  0  0
  -29.1671  -18.6150   20.5840 C   0  0  2  0  0  0
  -28.7359  -22.8660   23.8371 C   0  0  0  0  0  0
  -27.8658  -24.6998   19.9081 C   0  0  0  0  0  0
  -29.8989  -16.1040   20.6296 N   0  0  0  0  0  0
  -28.5192  -23.4060   22.5383 O   0  0  0  0  0  0
  -31.4748  -12.6839   19.1896 H   0  0  0  0  0  0
  -30.4092  -11.5857   20.0048 H   0  0  0  0  0  0
  -29.8317  -11.7553   17.5609 H   0  0  0  0  0  0
  -29.6242  -13.4830   17.7133 H   0  0  0  0  0  0
  -27.9211  -11.2905   18.9293 H   0  0  0  0  0  0
  -27.3909  -12.5165   17.8072 H   0  0  0  0  0  0
  -27.6234  -14.2607   19.4626 H   0  0  0  0  0  0
  -28.7739  -12.2153   21.4160 H   0  0  0  0  0  0
  -28.3961  -13.8585   21.8166 H   0  0  0  0  0  0
  -25.2757   -9.5693   22.4786 H   0  0  0  0  0  0
  -24.0031   -7.4626   22.7467 H   0  0  0  0  0  0
  -21.0864   -8.8782   19.8971 H   0  0  0  0  0  0
  -22.3709  -10.9693   19.6181 H   0  0  0  0  0  0
  -21.1997   -7.6160   23.9741 H   0  0  0  0  0  0
  -21.1495   -6.0517   25.9088 H   0  0  0  0  0  0
  -22.0596   -2.7628   23.2814 H   0  0  0  0  0  0
  -22.4038  -11.9948   22.4818 H   0  0  0  0  0  0
  -21.1084  -13.1355   22.2570 H   0  0  0  0  0  0
  -24.6463  -15.8439   20.4946 H   0  0  0  0  0  0
  -26.2636  -15.6283   20.0577 H   0  0  0  0  0  0
  -26.7270  -32.5316   23.1059 H   0  0  0  0  0  0
  -25.0177  -33.9675   25.0426 H   0  0  0  0  0  0
  -22.7456  -31.2964   21.3897 H   0  0  0  0  0  0
  -23.3767  -35.9568   23.3287 H   0  0  0  0  0  0
  -24.3590  -36.8897   22.2056 H   0  0  0  0  0  0
  -23.7218  -37.6440   23.6671 H   0  0  0  0  0  0
  -26.1606  -31.4823   20.6254 H   0  0  0  0  0  0
  -26.8704  -30.7701   22.0394 H   0  0  0  0  0  0
  -28.1208  -28.8030   21.2628 H   0  0  0  0  0  0
  -25.8987  -25.9160   18.9207 H   0  0  0  0  0  0
  -23.9831  -27.3435   18.9448 H   0  0  0  0  0  0
  -23.8023  -30.5842   19.4030 H   0  0  0  0  0  0
  -22.7844  -29.2494   19.8460 H   0  0  0  0  0  0
  -25.1300  -36.1887   25.0811 H   0  0  0  0  0  0
  -21.0008  -28.3279   24.1350 H   0  0  0  0  0  0
  -20.5665  -26.2329   23.3616 H   0  0  0  0  0  0
  -21.6651  -26.7412   22.1206 H   0  0  0  0  0  0
  -19.6922  -25.6272   21.1264 H   0  0  0  0  0  0
  -19.6707  -27.3153   20.6713 H   0  0  0  0  0  0
  -17.4223  -26.6684   21.4008 H   0  0  0  0  0  0
  -18.0337  -26.0074   22.9006 H   0  0  0  0  0  0
  -19.7946  -30.7279   24.2240 H   0  0  0  0  0  0
  -17.5022  -31.6266   24.5130 H   0  0  0  0  0  0
  -15.5362  -30.2957   23.7666 H   0  0  0  0  0  0
  -15.8696  -28.0777   22.7122 H   0  0  0  0  0  0
  -24.5941  -30.7057   25.7808 H   0  0  0  0  0  0
  -24.8838  -32.2955   26.4753 H   0  0  0  0  0  0
  -25.8009  -30.9079   27.0311 H   0  0  0  0  0  0
  -26.2983  -29.6712   24.1316 H   0  0  0  0  0  0
  -27.3913  -29.7239   25.4933 H   0  0  0  0  0  0
  -27.8922  -30.4188   23.9707 H   0  0  0  0  0  0
  -27.2738  -33.3650   26.2046 H   0  0  0  0  0  0
  -28.3912  -32.6823   25.0338 H   0  0  0  0  0  0
  -28.0742  -31.8470   26.5464 H   0  0  0  0  0  0
  -28.2575  -38.0096   24.7518 H   0  0  0  0  0  0
  -28.1095  -36.2627   24.6261 H   0  0  0  0  0  0
  -27.2312  -37.1389   25.8867 H   0  0  0  0  0  0
  -20.9472  -29.8782   21.6809 H   0  0  0  0  0  0
  -26.0162  -38.2818   24.1417 H   0  0  0  0  0  0
  -29.2284  -20.3689   18.3031 H   0  0  0  0  0  0
  -28.7628  -22.7533   18.0771 H   0  0  0  0  0  0
  -29.0703  -20.7254   22.5385 H   0  0  0  0  0  0
  -29.7536  -18.3119   22.6358 H   0  0  0  0  0  0
  -28.0118  -18.2979   22.4192 H   0  0  0  0  0  0
  -28.0255  -16.0578   21.5597 H   0  0  0  0  0  0
  -29.3753  -15.9467   22.6846 H   0  0  0  0  0  0
  -31.2294  -17.7739   20.3734 H   0  0  0  0  0  0
  -30.2309  -17.4669   18.9689 H   0  0  0  0  0  0
  -28.2524  -18.3887   20.0329 H   0  0  0  0  0  0
  -28.6017  -23.6467   24.5857 H   0  0  0  0  0  0
  -29.7516  -22.4820   23.9458 H   0  0  0  0  0  0
  -28.0228  -22.0729   24.0625 H   0  0  0  0  0  0
  -26.8983  -24.5332   20.3826 H   0  0  0  0  0  0
  -27.6745  -24.6948   18.8353 H   0  0  0  0  0  0
  1 25  1  0  0  0
  1 30  2  0  0  0
  1 83  1  0  0  0
  2  3  1  0  0  0
  2 25  1  0  0  0
  2 85  1  0  0  0
  2 86  1  0  0  0
  3  4  1  0  0  0
  3 87  1  0  0  0
  3 88  1  0  0  0
  4  5  1  0  0  0
  4 89  1  0  0  0
  4 90  1  0  0  0
  5  6  1  0  0  0
  5 26  1  0  0  0
  5 91  1  0  0  0
  6 25  1  0  0  0
  6 92  1  0  0  0
  6 93  1  0  0  0
  7  8  2  0  0  0
  7 26  1  0  0  0
  7 29  1  0  0  0
  8  9  1  0  0  0
  8 22  1  0  0  0
  9 10  1  0  0  0
  9 27  2  0  0  0
 10 11  2  0  0  0
 10 15  1  0  0  0
 11 12  1  0  0  0
 11 94  1  0  0  0
 12 13  2  0  0  0
 12 95  1  0  0  0
 13 14  1  0  0  0
 13 31  1  0  0  0
 14 15  2  0  0  0
 14 96  1  0  0  0
 15 97  1  0  0  0
 16 17  2  0  0  0
 16 21  1  0  0  0
 16 31  1  0  0  0
 17 18  1  0  0  0
 17 98  1  0  0  0
 18 19  2  0  0  0
 18 99  1  0  0  0
 19 20  1  0  0  0
 19 24  1  0  0  0
 20 21  2  0  0  0
 20100  1  0  0  0
 21 23  1  0  0  0
 22 28  1  0  0  0
 22 32  2  0  0  0
 26 27  1  0  0  0
 28101  1  0  0  0
 28102  1  0  0  0
 29103  1  0  0  0
 29104  1  0  0  0
 33 34  1  0  0  0
 33 66  1  0  0  0
 33 70  2  0  0  0
 34 36  1  0  0  0
 34 59  1  0  0  0
 34105  1  0  0  0
 35 44  2  0  0  0
 35 45  1  0  0  0
 35 68  1  0  0  0
 36 56  1  0  0  0
 36106  1  0  0  0
 37 39  1  0  0  0
 37 47  1  0  0  0
 37 66  1  0  0  0
 37107  1  0  0  0
 38 43  2  0  0  0
 38 46  1  0  0  0
 38 47  1  0  0  0
 39 64  1  0  0  0
 39 67  2  0  0  0
 40 52  1  0  0  0
 40 53  2  0  0  0
 40 58  1  0  0  0
 41108  1  0  0  0
 41109  1  0  0  0
 41110  1  0  0  0
 41 48  1  0  0  0
 42 43  1  0  0  0
 42 66  1  0  0  0
 42111  1  0  0  0
 42112  1  0  0  0
 43 44  1  0  0  0
 44113  1  0  0  0
 45 46  2  0  0  0
 45114  1  0  0  0
 46115  1  0  0  0
 47116  1  0  0  0
 47117  1  0  0  0
 48 56  1  0  0  0
 48 65  1  0  0  0
 48118  1  0  0  0
 49 50  1  0  0  0
 49 53  1  0  0  0
 49 64  1  0  0  0
 49119  1  0  0  0
 50 51  1  0  0  0
 50120  1  0  0  0
 50121  1  0  0  0
 51 52  1  0  0  0
 51122  1  0  0  0
 51123  1  0  0  0
 52124  1  0  0  0
 52125  1  0  0  0
 53 54  1  0  0  0
 54 55  2  0  0  0
 54126  1  0  0  0
 55 57  1  0  0  0
 55127  1  0  0  0
 56 69  2  0  0  0
 57 58  2  0  0  0
 57128  1  0  0  0
 58129  1  0  0  0
 59 60  1  0  0  0
 59 61  1  0  0  0
 59 62  1  0  0  0
 60130  1  0  0  0
 60131  1  0  0  0
 60132  1  0  0  0
 61133  1  0  0  0
 61134  1  0  0  0
 61135  1  0  0  0
 62136  1  0  0  0
 62137  1  0  0  0
 62138  1  0  0  0
 63 65  1  0  0  0
 63139  1  0  0  0
 63140  1  0  0  0
 63141  1  0  0  0
 64142  1  0  0  0
 65143  1  0  0  0
 68 82  1  0  0  0
 71 72  2  0  0  0
 71 74  1  0  0  0
 71144  1  0  0  0
 72 75  1  0  0  0
 72145  1  0  0  0
 73 74  2  0  0  0
 73 76  1  0  0  0
 73146  1  0  0  0
 74 80  1  0  0  0
 75 76  2  0  0  0
 75 82  1  0  0  0
 76 84  1  0  0  0
 77 78  1  0  0  0
 77 80  1  0  0  0
 77147  1  0  0  0
 77148  1  0  0  0
 78 83  1  0  0  0
 78149  1  0  0  0
 78150  1  0  0  0
 79 80  1  0  0  0
 79 83  1  0  0  0
 79151  1  0  0  0
 79152  1  0  0  0
 80153  1  0  0  0
 81 84  1  0  0  0
 81154  1  0  0  0
 81155  1  0  0  0
 81156  1  0  0  0
 82157  1  0  0  0
 82158  1  0  0  0
M  ISO  4   1 100  68 101  82 101  83 100
M  END
> <chiral flag>
0

> <version>
0

> <s_m_source_file>
/data/baiqing/PycharmProjects/Reinvent-master-3.2/result/LINK_invent/BTK/process_docking_weight1_custom_sum_contain_oxygen_bond_distance_aromatic_linkinvent_7_9_3/rearranged_h_0172.sdf

> <i_m_source_file_index>
84

> <r_mmod_Potential_Energy-OPLS-2005>
644.539733886719

> <r_mmod_Stretch_Energy-OPLS-2005>
198.390777587891

> <r_mmod_Bend_Energy-OPLS-2005>
290.777069091797

> <r_mmod_Torsional_Energy-OPLS-2005>
329.841156005859

> <r_mmod_Improper_Torsional_Energy-OPLS-2005>
15.4356470108032

> <r_mmod_Van_der_Waal_Energy-OPLS-2005>
141.4228515625

> <r_mmod_Electrostatic_Energy-OPLS-2005>
-276.648681640625

> <r_mmod_Solvation_Energy-OPLS-2005>
-210.72135925293

> <b_mmod_Minimization_Converged-OPLS-2005>
0

> <r_mmod_RMS_Derivative-OPLS-2005>
2.34432649612427

$$$$
84
                    3D
 Structure written by MMmdl.
168177  0  0  1  0            999 V2000
  -30.5792  -14.9195   20.3904 C   0  0  0  0  0  0
  -30.4346  -12.5689   19.4771 C   0  0  0  0  0  0
  -29.5091  -12.5114   18.2422 C   0  0  0  0  0  0
  -28.0455  -12.2961   18.6726 C   0  0  0  0  0  0
  -27.6240  -13.2279   19.8385 C   0  0  2  0  0  0
  -28.6786  -13.2869   20.9629 C   0  0  0  0  0  0
  -25.2482  -13.8158   20.5765 C   0  0  0  0  0  0
  -24.1767  -13.0411   20.9241 C   0  0  0  0  0  0
  -24.6362  -11.6888   20.8782 C   0  0  0  0  0  0
  -23.9045  -10.4273   21.0425 C   0  0  0  0  0  0
  -24.3604   -9.4189   21.9196 C   0  0  0  0  0  0
  -23.6282   -8.2225   22.0758 C   0  0  0  0  0  0
  -22.4265   -8.0268   21.3544 C   0  0  0  0  0  0
  -21.9901   -9.0242   20.4647 C   0  0  0  0  0  0
  -22.7226  -10.2122   20.3064 C   0  0  0  0  0  0
  -21.6847   -6.0728   22.5280 C   0  0  0  0  0  0
  -21.4009   -6.5635   23.8212 C   0  0  0  0  0  0
  -21.3657   -5.6791   24.9176 C   0  0  0  0  0  0
  -21.6045   -4.3054   24.7228 C   0  0  0  0  0  0
  -21.8820   -3.8143   23.4351 C   0  0  0  0  0  0
  -21.9191   -4.6957   22.3405 C   0  0  0  0  0  0
  -22.7794  -13.5206   21.1881 C   0  0  0  0  0  0
  -22.1662   -4.2142   21.0982 F   0  0  0  0  0  0
  -21.5630   -3.4539   25.7741 F   0  0  0  0  0  0
  -29.9490  -13.6795   20.3390 N   0  0  0  0  0  0
  -26.2873  -12.9333   20.3329 N   0  0  0  0  0  0
  -25.9290  -11.6488   20.5801 N   0  0  0  0  0  0
  -22.0436  -12.8200   22.0434 N   0  0  0  0  0  0
  -25.4208  -15.1887   20.4220 N   0  0  0  0  0  0
  -31.8054  -14.9337   20.2370 O   0  0  0  0  0  0
  -21.6630   -6.8866   21.4240 O   0  0  0  0  0  0
  -22.3489  -14.5515   20.6722 O   0  0  0  0  0  0
  -24.6416  -31.8470   23.1921 C   0  0  0  0  0  0
  -25.9199  -32.4712   23.8299 C   0  0  1  0  0  0
  -27.2121  -27.1585   20.1508 C   0  0  0  0  0  0
  -25.5957  -33.8518   24.2213 N   0  0  0  0  0  0
  -23.4443  -30.4682   21.5373 C   0  0  2  0  0  0
  -24.8947  -28.9030   20.1106 C   0  0  0  0  0  0
  -22.7561  -29.4560   22.4872 C   0  0  0  0  0  0
  -18.0303  -28.1395   22.8478 C   0  0  0  0  0  0
  -24.1492  -36.7260   23.2641 C   0  0  0  0  0  0
  -26.0001  -30.7264   21.3911 C   0  0  0  0  0  0
  -26.0718  -29.3402   20.7331 C   0  0  0  0  0  0
  -27.2348  -28.4833   20.7397 C   0  0  0  0  0  0
  -26.0194  -26.8330   19.4679 C   0  0  0  0  0  0
  -24.8801  -27.6613   19.4619 C   0  0  0  0  0  0
  -23.6703  -29.8018   20.1554 C   0  0  0  0  0  0
  -25.4123  -36.3042   24.0318 C   0  0  1  0  0  0
  -20.5916  -28.3718   23.1239 C   0  0  2  0  0  0
  -20.6789  -26.9424   22.5403 C   0  0  0  0  0  0
  -19.5762  -26.6381   21.5212 C   0  0  0  0  0  0
  -18.1942  -26.7933   22.1623 C   0  0  0  0  0  0
  -19.1560  -28.8875   23.2850 C   0  0  0  0  0  0
  -18.9476  -30.1472   23.8875 C   0  0  0  0  0  0
  -17.6473  -30.6592   24.0558 C   0  0  0  0  0  0
  -25.9072  -34.9416   23.5071 C   0  0  0  0  0  0
  -16.5364  -29.9084   23.6337 C   0  0  0  0  0  0
  -16.7288  -28.6502   23.0359 C   0  0  0  0  0  0
  -26.4526  -31.6572   25.0732 C   0  0  0  0  0  0
  -25.3713  -31.3754   26.1426 C   0  0  0  0  0  0
  -27.0395  -30.2971   24.6305 C   0  0  0  0  0  0
  -27.6057  -32.4337   25.7516 C   0  0  0  0  0  0
  -27.5577  -37.1787   24.8465 C   0  0  0  0  0  0
  -21.4255  -29.3050   22.3617 N   0  0  0  0  0  0
  -26.4288  -37.3752   23.9408 N   0  0  0  0  0  0
  -24.7149  -31.0342   22.0952 N   0  0  0  0  0  0
  -23.4213  -28.8100   23.3010 O   0  0  0  0  0  0
  -28.2381  -26.1504   20.1977 O   0  0  0  0  0  0
  -26.5651  -34.8907   22.4646 O   0  0  0  0  0  0
  -23.5539  -32.1339   23.7149 O   0  0  0  0  0  0
  -29.7465  -22.8923   19.8151 C   0  0  0  0  0  0
  -30.1740  -21.4943   19.6770 C   0  0  0  0  0  0
  -28.5153  -23.2450   20.4557 C   0  0  0  0  0  0
  -29.4243  -20.3803   20.2201 C   0  0  0  0  0  0
  -27.8538  -22.0644   20.9617 C   0  0  0  0  0  0
  -28.8280  -18.0347   19.0126 C   0  0  0  0  0  0
  -29.2919  -16.5433   19.0078 C   0  0  0  0  0  0
  -29.7716  -18.7769   19.9486 C   0  0  2  0  0  0
  -30.0073  -17.5436   20.9920 C   0  0  2  0  0  0
  -31.4425  -21.1587   18.8920 C   0  0  0  0  0  0
  -26.5357  -22.2005   21.7038 C   0  0  0  0  0  0
  -31.3200  -17.6830   21.7804 C   0  0  0  0  0  0
  -30.2683  -24.3318   17.7887 C   0  0  0  0  0  0
  -30.5856  -24.0390   19.2606 C   0  0  0  0  0  0
  -27.8242  -24.7355   20.6646 C   0  0  0  0  0  0
  -28.2731  -20.7454   20.8524 N   0  0  0  0  0  0
  -29.8340  -16.1393   20.3282 N   0  0  0  0  0  0
  -31.4674  -12.7185   19.1581 H   0  0  0  0  0  0
  -30.4213  -11.6229   20.0208 H   0  0  0  0  0  0
  -29.8226  -11.7119   17.5694 H   0  0  0  0  0  0
  -29.5922  -13.4403   17.6754 H   0  0  0  0  0  0
  -27.9460  -11.2552   18.9830 H   0  0  0  0  0  0
  -27.3758  -12.4246   17.8214 H   0  0  0  0  0  0
  -27.5591  -14.2155   19.4008 H   0  0  0  0  0  0
  -28.7697  -12.3264   21.4718 H   0  0  0  0  0  0
  -28.3882  -14.0181   21.7193 H   0  0  0  0  0  0
  -25.2747   -9.5665   22.4773 H   0  0  0  0  0  0
  -23.9991   -7.4612   22.7474 H   0  0  0  0  0  0
  -21.0835   -8.8760   19.8948 H   0  0  0  0  0  0
  -22.3688  -10.9665   19.6176 H   0  0  0  0  0  0
  -21.2001   -7.6143   23.9711 H   0  0  0  0  0  0
  -21.1480   -6.0523   25.9077 H   0  0  0  0  0  0
  -22.0602   -2.7605   23.2853 H   0  0  0  0  0  0
  -22.4053  -11.9863   22.4824 H   0  0  0  0  0  0
  -21.1052  -13.1223   22.2637 H   0  0  0  0  0  0
  -24.6609  -15.8482   20.5483 H   0  0  0  0  0  0
  -26.2877  -15.6313   20.1448 H   0  0  0  0  0  0
  -26.7265  -32.5328   23.1030 H   0  0  0  0  0  0
  -25.0092  -33.9639   25.0352 H   0  0  0  0  0  0
  -22.7456  -31.2936   21.3860 H   0  0  0  0  0  0
  -23.3761  -35.9584   23.3291 H   0  0  0  0  0  0
  -24.3577  -36.8903   22.2058 H   0  0  0  0  0  0
  -23.7238  -37.6450   23.6684 H   0  0  0  0  0  0
  -26.1553  -31.4821   20.6199 H   0  0  0  0  0  0
  -26.8707  -30.7753   22.0333 H   0  0  0  0  0  0
  -28.1294  -28.8099   21.2511 H   0  0  0  0  0  0
  -25.9428  -25.8949   18.9382 H   0  0  0  0  0  0
  -23.9871  -27.3272   18.9517 H   0  0  0  0  0  0
  -23.8050  -30.5783   19.4017 H   0  0  0  0  0  0
  -22.7859  -29.2429   19.8444 H   0  0  0  0  0  0
  -25.1309  -36.1874   25.0811 H   0  0  0  0  0  0
  -21.0005  -28.3306   24.1361 H   0  0  0  0  0  0
  -20.5687  -26.2331   23.3620 H   0  0  0  0  0  0
  -21.6655  -26.7435   22.1198 H   0  0  0  0  0  0
  -19.6922  -25.6286   21.1256 H   0  0  0  0  0  0
  -19.6697  -27.3178   20.6731 H   0  0  0  0  0  0
  -17.4211  -26.6680   21.4027 H   0  0  0  0  0  0
  -18.0340  -26.0080   22.9025 H   0  0  0  0  0  0
  -19.7952  -30.7295   24.2233 H   0  0  0  0  0  0
  -17.5026  -31.6271   24.5163 H   0  0  0  0  0  0
  -15.5363  -30.2978   23.7675 H   0  0  0  0  0  0
  -15.8687  -28.0812   22.7089 H   0  0  0  0  0  0
  -24.5900  -30.7093   25.7745 H   0  0  0  0  0  0
  -24.8893  -32.2933   26.4800 H   0  0  0  0  0  0
  -25.7999  -30.8962   27.0237 H   0  0  0  0  0  0
  -26.3017  -29.6692   24.1298 H   0  0  0  0  0  0
  -27.3998  -29.7269   25.4878 H   0  0  0  0  0  0
  -27.8928  -30.4212   23.9634 H   0  0  0  0  0  0
  -27.2650  -33.3655   26.2041 H   0  0  0  0  0  0
  -28.3895  -32.6869   25.0365 H   0  0  0  0  0  0
  -28.0694  -31.8498   26.5476 H   0  0  0  0  0  0
  -28.2586  -38.0093   24.7518 H   0  0  0  0  0  0
  -28.1083  -36.2623   24.6286 H   0  0  0  0  0  0
  -27.2294  -37.1426   25.8868 H   0  0  0  0  0  0
  -20.9463  -29.8769   21.6804 H   0  0  0  0  0  0
  -26.0157  -38.2820   24.1415 H   0  0  0  0  0  0
  -27.8104  -18.1053   19.3994 H   0  0  0  0  0  0
  -28.8242  -18.4668   18.0113 H   0  0  0  0  0  0
  -30.0870  -16.4291   18.2679 H   0  0  0  0  0  0
  -28.4799  -15.9083   18.6706 H   0  0  0  0  0  0
  -30.7161  -18.7946   19.4115 H   0  0  0  0  0  0
  -29.1950  -17.6003   21.7181 H   0  0  0  0  0  0
  -31.9404  -22.0053   18.4286 H   0  0  0  0  0  0
  -31.2064  -20.4801   18.0719 H   0  0  0  0  0  0
  -32.1704  -20.6720   19.5421 H   0  0  0  0  0  0
  -26.6313  -22.8908   22.5416 H   0  0  0  0  0  0
  -26.1986  -21.2449   22.1074 H   0  0  0  0  0  0
  -25.7559  -22.5680   21.0370 H   0  0  0  0  0  0
  -32.1883  -17.6129   21.1243 H   0  0  0  0  0  0
  -31.4122  -16.9109   22.5449 H   0  0  0  0  0  0
  -31.3672  -18.6486   22.2852 H   0  0  0  0  0  0
  -30.8756  -25.1570   17.4171 H   0  0  0  0  0  0
  -29.2207  -24.6076   17.6642 H   0  0  0  0  0  0
  -30.4613  -23.4637   17.1584 H   0  0  0  0  0  0
  -31.6482  -23.8504   19.4043 H   0  0  0  0  0  0
  -30.4090  -24.9371   19.8504 H   0  0  0  0  0  0
  -27.7566  -24.8456   21.7470 H   0  0  0  0  0  0
  -26.7959  -24.5687   20.3567 H   0  0  0  0  0  0
  1 25  1  0  0  0
  1 30  2  0  0  0
  1 87  1  0  0  0
  2  3  1  0  0  0
  2 25  1  0  0  0
  2 88  1  0  0  0
  2 89  1  0  0  0
  3  4  1  0  0  0
  3 90  1  0  0  0
  3 91  1  0  0  0
  4  5  1  0  0  0
  4 92  1  0  0  0
  4 93  1  0  0  0
  5  6  1  0  0  0
  5 26  1  0  0  0
  5 94  1  0  0  0
  6 25  1  0  0  0
  6 95  1  0  0  0
  6 96  1  0  0  0
  7  8  2  0  0  0
  7 26  1  0  0  0
  7 29  1  0  0  0
  8  9  1  0  0  0
  8 22  1  0  0  0
  9 10  1  0  0  0
  9 27  2  0  0  0
 10 11  2  0  0  0
 10 15  1  0  0  0
 11 12  1  0  0  0
 11 97  1  0  0  0
 12 13  2  0  0  0
 12 98  1  0  0  0
 13 14  1  0  0  0
 13 31  1  0  0  0
 14 15  2  0  0  0
 14 99  1  0  0  0
 15100  1  0  0  0
 16 17  2  0  0  0
 16 21  1  0  0  0
 16 31  1  0  0  0
 17 18  1  0  0  0
 17101  1  0  0  0
 18 19  2  0  0  0
 18102  1  0  0  0
 19 20  1  0  0  0
 19 24  1  0  0  0
 20 21  2  0  0  0
 20103  1  0  0  0
 21 23  1  0  0  0
 22 28  1  0  0  0
 22 32  2  0  0  0
 26 27  1  0  0  0
 28104  1  0  0  0
 28105  1  0  0  0
 29106  1  0  0  0
 29107  1  0  0  0
 33 34  1  0  0  0
 33 66  1  0  0  0
 33 70  2  0  0  0
 34 36  1  0  0  0
 34 59  1  0  0  0
 34108  1  0  0  0
 35 44  2  0  0  0
 35 45  1  0  0  0
 35 68  1  0  0  0
 36 56  1  0  0  0
 36109  1  0  0  0
 37 39  1  0  0  0
 37 47  1  0  0  0
 37 66  1  0  0  0
 37110  1  0  0  0
 38 43  2  0  0  0
 38 46  1  0  0  0
 38 47  1  0  0  0
 39 64  1  0  0  0
 39 67  2  0  0  0
 40 52  1  0  0  0
 40 53  2  0  0  0
 40 58  1  0  0  0
 41111  1  0  0  0
 41112  1  0  0  0
 41113  1  0  0  0
 41 48  1  0  0  0
 42 43  1  0  0  0
 42 66  1  0  0  0
 42114  1  0  0  0
 42115  1  0  0  0
 43 44  1  0  0  0
 44116  1  0  0  0
 45 46  2  0  0  0
 45117  1  0  0  0
 46118  1  0  0  0
 47119  1  0  0  0
 47120  1  0  0  0
 48 56  1  0  0  0
 48 65  1  0  0  0
 48121  1  0  0  0
 49 50  1  0  0  0
 49 53  1  0  0  0
 49 64  1  0  0  0
 49122  1  0  0  0
 50 51  1  0  0  0
 50123  1  0  0  0
 50124  1  0  0  0
 51 52  1  0  0  0
 51125  1  0  0  0
 51126  1  0  0  0
 52127  1  0  0  0
 52128  1  0  0  0
 53 54  1  0  0  0
 54 55  2  0  0  0
 54129  1  0  0  0
 55 57  1  0  0  0
 55130  1  0  0  0
 56 69  2  0  0  0
 57 58  2  0  0  0
 57131  1  0  0  0
 58132  1  0  0  0
 59 60  1  0  0  0
 59 61  1  0  0  0
 59 62  1  0  0  0
 60133  1  0  0  0
 60134  1  0  0  0
 60135  1  0  0  0
 61136  1  0  0  0
 61137  1  0  0  0
 61138  1  0  0  0
 62139  1  0  0  0
 62140  1  0  0  0
 62141  1  0  0  0
 63 65  1  0  0  0
 63142  1  0  0  0
 63143  1  0  0  0
 63144  1  0  0  0
 64145  1  0  0  0
 65146  1  0  0  0
 68 85  1  0  0  0
 71 72  2  0  0  0
 71 73  1  0  0  0
 71 84  1  0  0  0
 72 74  1  0  0  0
 72 80  1  0  0  0
 73 75  2  0  0  0
 73 85  1  0  0  0
 74 86  2  0  0  0
 74 78  1  0  0  0
 75 81  1  0  0  0
 75 86  1  0  0  0
 76 77  1  0  0  0
 76 78  1  0  0  0
 76147  1  0  0  0
 76148  1  0  0  0
 77 87  1  0  0  0
 77149  1  0  0  0
 77150  1  0  0  0
 78 79  1  0  0  0
 78151  1  0  0  0
 79 82  1  0  0  0
 79 87  1  0  0  0
 79152  1  0  0  0
 80153  1  0  0  0
 80154  1  0  0  0
 80155  1  0  0  0
 81156  1  0  0  0
 81157  1  0  0  0
 81158  1  0  0  0
 82159  1  0  0  0
 82160  1  0  0  0
 82161  1  0  0  0
 83 84  1  0  0  0
 83162  1  0  0  0
 83163  1  0  0  0
 83164  1  0  0  0
 84165  1  0  0  0
 84166  1  0  0  0
 85167  1  0  0  0
 85168  1  0  0  0
M  ISO  4   1 100  68 101  85 101  87 100
M  END
> <chiral flag>
0

> <version>
0

> <s_m_source_file>
/data/baiqing/PycharmProjects/Reinvent-master-3.2/result/LINK_invent/BTK/process_docking_weight1_custom_sum_contain_oxygen_bond_distance_aromatic_linkinvent_7_9_3/rearranged_h_0172.sdf

> <i_m_source_file_index>
85

> <r_mmod_Potential_Energy-OPLS-2005>
596.145629882812

> <r_mmod_Stretch_Energy-OPLS-2005>
220.723876953125

> <r_mmod_Bend_Energy-OPLS-2005>
300.489685058594

> <r_mmod_Torsional_Energy-OPLS-2005>
350.475402832031

> <r_mmod_Improper_Torsional_Energy-OPLS-2005>
10.5071249008179

> <r_mmod_Van_der_Waal_Energy-OPLS-2005>
136.796920776367

> <r_mmod_Electrostatic_Energy-OPLS-2005>
-400.434906005859

> <r_mmod_Solvation_Energy-OPLS-2005>
-203.63134765625

> <b_mmod_Minimization_Converged-OPLS-2005>
0

> <r_mmod_RMS_Derivative-OPLS-2005>
0.251010119915009

$$$$
85
                    3D
 Structure written by MMmdl.
173184  0  0  1  0            999 V2000
  -30.7244  -14.6420   20.6168 C   0  0  0  0  0  0
  -30.4174  -12.4281   19.4804 C   0  0  0  0  0  0
  -29.5100  -12.5266   18.2350 C   0  0  0  0  0  0
  -28.0337  -12.3437   18.6279 C   0  0  0  0  0  0
  -27.6418  -13.2248   19.8382 C   0  0  2  0  0  0
  -28.6663  -13.1142   20.9792 C   0  0  0  0  0  0
  -25.2515  -13.8183   20.5631 C   0  0  0  0  0  0
  -24.1803  -13.0439   20.9167 C   0  0  0  0  0  0
  -24.6381  -11.6912   20.8700 C   0  0  0  0  0  0
  -23.9060  -10.4294   21.0391 C   0  0  0  0  0  0
  -24.3617   -9.4215   21.9174 C   0  0  0  0  0  0
  -23.6294   -8.2251   22.0752 C   0  0  0  0  0  0
  -22.4275   -8.0282   21.3546 C   0  0  0  0  0  0
  -21.9905   -9.0250   20.4646 C   0  0  0  0  0  0
  -22.7230  -10.2130   20.3047 C   0  0  0  0  0  0
  -21.6854   -6.0736   22.5280 C   0  0  0  0  0  0
  -21.4014   -6.5639   23.8213 C   0  0  0  0  0  0
  -21.3659   -5.6792   24.9175 C   0  0  0  0  0  0
  -21.6044   -4.3055   24.7225 C   0  0  0  0  0  0
  -21.8819   -3.8147   23.4346 C   0  0  0  0  0  0
  -21.9193   -4.6963   22.3403 C   0  0  0  0  0  0
  -22.7833  -13.5229   21.1864 C   0  0  0  0  0  0
  -22.1661   -4.2150   21.0981 F   0  0  0  0  0  0
  -21.5629   -3.4539   25.7737 F   0  0  0  0  0  0
  -30.0010  -13.4699   20.4569 N   0  0  0  0  0  0
  -26.2908  -12.9371   20.3125 N   0  0  0  0  0  0
  -25.9294  -11.6522   20.5637 N   0  0  0  0  0  0
  -22.0488  -12.8214   22.0425 N   0  0  0  0  0  0
  -25.4247  -15.1909   20.4115 N   0  0  0  0  0  0
  -31.8059  -14.7463   20.0284 O   0  0  0  0  0  0
  -21.6642   -6.8878   21.4243 O   0  0  0  0  0  0
  -22.3511  -14.5538   20.6723 O   0  0  0  0  0  0
  -24.6295  -31.8596   23.2024 C   0  0  0  0  0  0
  -25.9135  -32.4776   23.8356 C   0  0  1  0  0  0
  -27.2142  -27.2931   20.1103 C   0  0  0  0  0  0
  -25.5948  -33.8575   24.2285 N   0  0  0  0  0  0
  -23.4223  -30.4868   21.5470 C   0  0  2  0  0  0
  -24.8646  -28.9439   20.1124 C   0  0  0  0  0  0
  -22.7489  -29.4632   22.4929 C   0  0  0  0  0  0
  -18.0293  -28.1384   22.8489 C   0  0  0  0  0  0
  -24.1491  -36.7278   23.2640 C   0  0  0  0  0  0
  -25.9684  -30.7829   21.3771 C   0  0  0  0  0  0
  -26.0392  -29.4104   20.7150 C   0  0  0  0  0  0
  -27.2168  -28.5988   20.7016 C   0  0  0  0  0  0
  -26.0057  -26.8897   19.4954 C   0  0  0  0  0  0
  -24.8511  -27.6887   19.4940 C   0  0  0  0  0  0
  -23.6366  -29.8283   20.1611 C   0  0  0  0  0  0
  -25.4117  -36.3076   24.0332 C   0  0  1  0  0  0
  -20.5896  -28.3693   23.1273 C   0  0  2  0  0  0
  -20.6782  -26.9413   22.5403 C   0  0  0  0  0  0
  -19.5753  -26.6383   21.5210 C   0  0  0  0  0  0
  -18.1935  -26.7927   22.1626 C   0  0  0  0  0  0
  -19.1546  -28.8854   23.2878 C   0  0  0  0  0  0
  -18.9469  -30.1458   23.8893 C   0  0  0  0  0  0
  -17.6468  -30.6586   24.0567 C   0  0  0  0  0  0
  -25.9059  -34.9450   23.5106 C   0  0  0  0  0  0
  -16.5359  -29.9084   23.6333 C   0  0  0  0  0  0
  -16.7280  -28.6502   23.0354 C   0  0  0  0  0  0
  -26.4507  -31.6585   25.0730 C   0  0  0  0  0  0
  -25.3734  -31.3724   26.1451 C   0  0  0  0  0  0
  -27.0356  -30.3011   24.6189 C   0  0  0  0  0  0
  -27.6066  -32.4322   25.7500 C   0  0  0  0  0  0
  -27.5577  -37.1800   24.8471 C   0  0  0  0  0  0
  -21.4202  -29.3052   22.3671 N   0  0  0  0  0  0
  -26.4292  -37.3774   23.9411 N   0  0  0  0  0  0
  -24.6927  -31.0598   22.0985 N   0  0  0  0  0  0
  -23.4209  -28.8162   23.3006 O   0  0  0  0  0  0
  -28.3308  -26.4285   20.1560 O   0  0  0  0  0  0
  -26.5617  -34.8918   22.4666 O   0  0  0  0  0  0
  -23.5452  -32.1405   23.7339 O   0  0  0  0  0  0
  -31.4720  -19.4327   20.5242 C   0  0  0  0  0  0
  -29.1444  -19.0719   20.8180 C   0  0  0  0  0  0
  -30.4495  -18.5055   20.8306 C   0  0  0  0  0  0
  -31.2172  -20.8046   20.2705 C   0  0  0  0  0  0
  -29.8771  -21.2846   20.2659 C   0  0  0  0  0  0
  -30.9050  -16.0928   23.6225 C   0  0  0  0  0  0
  -33.6659  -21.6019   20.8419 C   0  0  0  0  0  0
  -32.7696  -22.8080   20.9677 C   0  0  0  0  0  0
  -31.2442  -17.3620   22.8869 C   0  0  0  0  0  0
  -28.7545  -22.9829   18.5544 C   0  0  0  0  0  0
  -28.9740  -23.9033   20.7951 C   0  0  0  0  0  0
  -29.8480  -15.4533   22.7382 C   0  0  0  0  0  0
  -32.4033  -21.6947   20.0104 C   0  0  0  0  0  0
  -30.9301  -17.1005   21.3998 C   0  0  1  0  0  0
  -29.5524  -22.7862   19.8401 C   0  0  1  0  0  0
  -28.5595  -24.5168   18.4699 C   0  0  2  0  0  0
  -28.1766  -24.9594   19.9086 C   0  0  2  0  0  0
  -27.5961  -24.9096   17.3420 C   0  0  0  0  0  0
  -28.8707  -20.3963   20.5340 N   0  0  0  0  0  0
  -30.2263  -15.7308   21.3390 N   0  0  0  0  0  0
  -31.4640  -12.5152   19.1842 H   0  0  0  0  0  0
  -30.3329  -11.4387   19.9331 H   0  0  0  0  0  0
  -29.7959  -11.7746   17.4984 H   0  0  0  0  0  0
  -29.6475  -13.4965   17.7542 H   0  0  0  0  0  0
  -27.8819  -11.2913   18.8707 H   0  0  0  0  0  0
  -27.3848  -12.5570   17.7776 H   0  0  0  0  0  0
  -27.6542  -14.2569   19.4865 H   0  0  0  0  0  0
  -28.6810  -12.1045   21.3926 H   0  0  0  0  0  0
  -28.3023  -13.7531   21.7755 H   0  0  0  0  0  0
  -25.2765   -9.5696   22.4742 H   0  0  0  0  0  0
  -24.0005   -7.4645   22.7474 H   0  0  0  0  0  0
  -21.0836   -8.8765   19.8955 H   0  0  0  0  0  0
  -22.3685  -10.9664   19.6153 H   0  0  0  0  0  0
  -21.2006   -7.6147   23.9716 H   0  0  0  0  0  0
  -21.1481   -6.0523   25.9078 H   0  0  0  0  0  0
  -22.0597   -2.7609   23.2846 H   0  0  0  0  0  0
  -22.4109  -11.9870   22.4798 H   0  0  0  0  0  0
  -21.1112  -13.1241   22.2650 H   0  0  0  0  0  0
  -24.6648  -15.8508   20.5367 H   0  0  0  0  0  0
  -26.2841  -15.6296   20.1051 H   0  0  0  0  0  0
  -26.7202  -32.5433   23.1098 H   0  0  0  0  0  0
  -25.0127  -33.9726   25.0452 H   0  0  0  0  0  0
  -22.7174  -31.3089   21.4062 H   0  0  0  0  0  0
  -23.3756  -35.9610   23.3319 H   0  0  0  0  0  0
  -24.3576  -36.8873   22.2049 H   0  0  0  0  0  0
  -23.7243  -37.6486   23.6647 H   0  0  0  0  0  0
  -26.1059  -31.5476   20.6113 H   0  0  0  0  0  0
  -26.8472  -30.8267   22.0089 H   0  0  0  0  0  0
  -28.1179  -28.9547   21.1809 H   0  0  0  0  0  0
  -25.9003  -25.9348   19.0129 H   0  0  0  0  0  0
  -23.9498  -27.3220   19.0221 H   0  0  0  0  0  0
  -23.7615  -30.6079   19.4087 H   0  0  0  0  0  0
  -22.7545  -29.2635   19.8537 H   0  0  0  0  0  0
  -25.1296  -36.1930   25.0825 H   0  0  0  0  0  0
  -20.9993  -28.3265   24.1391 H   0  0  0  0  0  0
  -20.5685  -26.2303   23.3606 H   0  0  0  0  0  0
  -21.6649  -26.7442   22.1192 H   0  0  0  0  0  0
  -19.6917  -25.6294   21.1239 H   0  0  0  0  0  0
  -19.6686  -27.3198   20.6743 H   0  0  0  0  0  0
  -17.4202  -26.6679   21.4030 H   0  0  0  0  0  0
  -18.0337  -26.0066   22.9018 H   0  0  0  0  0  0
  -19.7946  -30.7278   24.2256 H   0  0  0  0  0  0
  -17.5023  -31.6267   24.5167 H   0  0  0  0  0  0
  -15.5360  -30.2989   23.7656 H   0  0  0  0  0  0
  -15.8679  -28.0821   22.7070 H   0  0  0  0  0  0
  -24.5919  -30.7061   25.7777 H   0  0  0  0  0  0
  -24.8915  -32.2889   26.4868 H   0  0  0  0  0  0
  -25.8055  -30.8909   27.0232 H   0  0  0  0  0  0
  -26.2938  -29.6757   24.1208 H   0  0  0  0  0  0
  -27.4052  -29.7266   25.4691 H   0  0  0  0  0  0
  -27.8805  -30.4298   23.9420 H   0  0  0  0  0  0
  -27.2679  -33.3623   26.2074 H   0  0  0  0  0  0
  -28.3878  -32.6878   25.0329 H   0  0  0  0  0  0
  -28.0735  -31.8449   26.5416 H   0  0  0  0  0  0
  -28.2606  -38.0087   24.7507 H   0  0  0  0  0  0
  -28.1063  -36.2618   24.6315 H   0  0  0  0  0  0
  -27.2293  -37.1466   25.8875 H   0  0  0  0  0  0
  -20.9379  -29.8785   21.6891 H   0  0  0  0  0  0
  -26.0172  -38.2849   24.1407 H   0  0  0  0  0  0
  -32.4995  -19.0983   20.5479 H   0  0  0  0  0  0
  -28.2950  -18.4658   21.0974 H   0  0  0  0  0  0
  -30.5557  -16.2721   24.6404 H   0  0  0  0  0  0
  -31.7853  -15.4500   23.6798 H   0  0  0  0  0  0
  -33.6884  -20.9180   21.6884 H   0  0  0  0  0  0
  -34.6200  -21.7527   20.3398 H   0  0  0  0  0  0
  -33.1389  -23.7411   20.5459 H   0  0  0  0  0  0
  -32.1917  -22.9067   21.8851 H   0  0  0  0  0  0
  -32.2739  -17.6827   23.0528 H   0  0  0  0  0  0
  -30.6010  -18.1505   23.2824 H   0  0  0  0  0  0
  -27.7937  -22.4720   18.6296 H   0  0  0  0  0  0
  -29.2794  -22.5821   17.6866 H   0  0  0  0  0  0
  -29.7800  -24.3748   21.3579 H   0  0  0  0  0  0
  -28.2981  -23.4577   21.5258 H   0  0  0  0  0  0
  -28.8625  -15.8794   22.9327 H   0  0  0  0  0  0
  -29.8224  -14.3990   23.0147 H   0  0  0  0  0  0
  -32.5216  -21.8824   18.9443 H   0  0  0  0  0  0
  -31.9022  -16.9524   20.9283 H   0  0  0  0  0  0
  -30.5138  -23.2084   19.5618 H   0  0  0  0  0  0
  -29.5283  -24.9645   18.2403 H   0  0  0  0  0  0
  -27.1417  -24.6720   20.0854 H   0  0  0  0  0  0
  -26.6091  -24.4685   17.4821 H   0  0  0  0  0  0
  -27.9713  -24.5641   16.3783 H   0  0  0  0  0  0
  -27.4873  -25.9922   17.2723 H   0  0  0  0  0  0
  1 25  1  0  0  0
  1 30  2  0  0  0
  1 90  1  0  0  0
  2  3  1  0  0  0
  2 25  1  0  0  0
  2 91  1  0  0  0
  2 92  1  0  0  0
  3  4  1  0  0  0
  3 93  1  0  0  0
  3 94  1  0  0  0
  4  5  1  0  0  0
  4 95  1  0  0  0
  4 96  1  0  0  0
  5  6  1  0  0  0
  5 26  1  0  0  0
  5 97  1  0  0  0
  6 25  1  0  0  0
  6 98  1  0  0  0
  6 99  1  0  0  0
  7  8  2  0  0  0
  7 26  1  0  0  0
  7 29  1  0  0  0
  8  9  1  0  0  0
  8 22  1  0  0  0
  9 10  1  0  0  0
  9 27  2  0  0  0
 10 11  2  0  0  0
 10 15  1  0  0  0
 11 12  1  0  0  0
 11100  1  0  0  0
 12 13  2  0  0  0
 12101  1  0  0  0
 13 14  1  0  0  0
 13 31  1  0  0  0
 14 15  2  0  0  0
 14102  1  0  0  0
 15103  1  0  0  0
 16 17  2  0  0  0
 16 21  1  0  0  0
 16 31  1  0  0  0
 17 18  1  0  0  0
 17104  1  0  0  0
 18 19  2  0  0  0
 18105  1  0  0  0
 19 20  1  0  0  0
 19 24  1  0  0  0
 20 21  2  0  0  0
 20106  1  0  0  0
 21 23  1  0  0  0
 22 28  1  0  0  0
 22 32  2  0  0  0
 26 27  1  0  0  0
 28107  1  0  0  0
 28108  1  0  0  0
 29109  1  0  0  0
 29110  1  0  0  0
 33 34  1  0  0  0
 33 66  1  0  0  0
 33 70  2  0  0  0
 34 36  1  0  0  0
 34 59  1  0  0  0
 34111  1  0  0  0
 35 44  2  0  0  0
 35 45  1  0  0  0
 35 68  1  0  0  0
 36 56  1  0  0  0
 36112  1  0  0  0
 37 39  1  0  0  0
 37 47  1  0  0  0
 37 66  1  0  0  0
 37113  1  0  0  0
 38 43  2  0  0  0
 38 46  1  0  0  0
 38 47  1  0  0  0
 39 64  1  0  0  0
 39 67  2  0  0  0
 40 52  1  0  0  0
 40 53  2  0  0  0
 40 58  1  0  0  0
 41114  1  0  0  0
 41115  1  0  0  0
 41116  1  0  0  0
 41 48  1  0  0  0
 42 43  1  0  0  0
 42 66  1  0  0  0
 42117  1  0  0  0
 42118  1  0  0  0
 43 44  1  0  0  0
 44119  1  0  0  0
 45 46  2  0  0  0
 45120  1  0  0  0
 46121  1  0  0  0
 47122  1  0  0  0
 47123  1  0  0  0
 48 56  1  0  0  0
 48 65  1  0  0  0
 48124  1  0  0  0
 49 50  1  0  0  0
 49 53  1  0  0  0
 49 64  1  0  0  0
 49125  1  0  0  0
 50 51  1  0  0  0
 50126  1  0  0  0
 50127  1  0  0  0
 51 52  1  0  0  0
 51128  1  0  0  0
 51129  1  0  0  0
 52130  1  0  0  0
 52131  1  0  0  0
 53 54  1  0  0  0
 54 55  2  0  0  0
 54132  1  0  0  0
 55 57  1  0  0  0
 55133  1  0  0  0
 56 69  2  0  0  0
 57 58  2  0  0  0
 57134  1  0  0  0
 58135  1  0  0  0
 59 60  1  0  0  0
 59 61  1  0  0  0
 59 62  1  0  0  0
 60136  1  0  0  0
 60137  1  0  0  0
 60138  1  0  0  0
 61139  1  0  0  0
 61140  1  0  0  0
 61141  1  0  0  0
 62142  1  0  0  0
 62143  1  0  0  0
 62144  1  0  0  0
 63 65  1  0  0  0
 63145  1  0  0  0
 63146  1  0  0  0
 63147  1  0  0  0
 64148  1  0  0  0
 65149  1  0  0  0
 68 87  1  0  0  0
 71 73  2  0  0  0
 71 74  1  0  0  0
 71150  1  0  0  0
 72 73  1  0  0  0
 72 89  2  0  0  0
 72151  1  0  0  0
 73 84  1  0  0  0
 74 75  2  0  0  0
 74 83  1  0  0  0
 75 89  1  0  0  0
 75 85  1  0  0  0
 76 79  1  0  0  0
 76 82  1  0  0  0
 76152  1  0  0  0
 76153  1  0  0  0
 77 78  1  0  0  0
 77 83  1  0  0  0
 77154  1  0  0  0
 77155  1  0  0  0
 78 83  1  0  0  0
 78156  1  0  0  0
 78157  1  0  0  0
 79 84  1  0  0  0
 79158  1  0  0  0
 79159  1  0  0  0
 80 85  1  0  0  0
 80 86  1  0  0  0
 80160  1  0  0  0
 80161  1  0  0  0
 81 85  1  0  0  0
 81 87  1  0  0  0
 81162  1  0  0  0
 81163  1  0  0  0
 82 90  1  0  0  0
 82164  1  0  0  0
 82165  1  0  0  0
 83166  1  0  0  0
 84 90  1  0  0  0
 84167  1  0  0  0
 85168  1  0  0  0
 86 87  1  0  0  0
 86 88  1  0  0  0
 86169  1  0  0  0
 87170  1  0  0  0
 88171  1  0  0  0
 88172  1  0  0  0
 88173  1  0  0  0
M  ISO  4   1 100  68 101  87 101  90 100
M  END
> <chiral flag>
0

> <version>
0

> <s_m_source_file>
/data/baiqing/PycharmProjects/Reinvent-master-3.2/result/LINK_invent/BTK/process_docking_weight1_custom_sum_contain_oxygen_bond_distance_aromatic_linkinvent_7_9_3/rearranged_h_0172.sdf

> <i_m_source_file_index>
86

> <r_mmod_Potential_Energy-OPLS-2005>
366.677459716797

> <r_mmod_Stretch_Energy-OPLS-2005>
111.569007873535

> <r_mmod_Bend_Energy-OPLS-2005>
270.941131591797

> <r_mmod_Torsional_Energy-OPLS-2005>
365.903045654297

> <r_mmod_Improper_Torsional_Energy-OPLS-2005>
9.05664730072021

> <r_mmod_Van_der_Waal_Energy-OPLS-2005>
157.807205200195

> <r_mmod_Electrostatic_Energy-OPLS-2005>
-404.153594970703

> <r_mmod_Solvation_Energy-OPLS-2005>
-198.626113891602

> <b_mmod_Minimization_Converged-OPLS-2005>
0

> <r_mmod_RMS_Derivative-OPLS-2005>
0.393480628728867

$$$$
86
                    3D
 Structure written by MMmdl.
168177  0  0  1  0            999 V2000
  -30.6086  -14.9197   20.4321 C   0  0  0  0  0  0
  -30.4218  -12.5764   19.4992 C   0  0  0  0  0  0
  -29.5136  -12.5321   18.2525 C   0  0  0  0  0  0
  -28.0476  -12.3223   18.6708 C   0  0  0  0  0  0
  -27.6250  -13.2551   19.8368 C   0  0  2  0  0  0
  -28.6681  -13.3081   20.9734 C   0  0  0  0  0  0
  -25.2441  -13.8243   20.5738 C   0  0  0  0  0  0
  -24.1768  -13.0453   20.9247 C   0  0  0  0  0  0
  -24.6394  -11.6947   20.8776 C   0  0  0  0  0  0
  -23.9084  -10.4309   21.0415 C   0  0  0  0  0  0
  -24.3634   -9.4220   21.9187 C   0  0  0  0  0  0
  -23.6308   -8.2255   22.0758 C   0  0  0  0  0  0
  -22.4288   -8.0291   21.3547 C   0  0  0  0  0  0
  -21.9926   -9.0269   20.4651 C   0  0  0  0  0  0
  -22.7260  -10.2150   20.3061 C   0  0  0  0  0  0
  -21.6860   -6.0744   22.5278 C   0  0  0  0  0  0
  -21.4018   -6.5643   23.8211 C   0  0  0  0  0  0
  -21.3665   -5.6788   24.9168 C   0  0  0  0  0  0
  -21.6049   -4.3051   24.7216 C   0  0  0  0  0  0
  -21.8822   -3.8153   23.4331 C   0  0  0  0  0  0
  -21.9192   -4.6973   22.3393 C   0  0  0  0  0  0
  -22.7790  -13.5224   21.1882 C   0  0  0  0  0  0
  -22.1662   -4.2161   21.0970 F   0  0  0  0  0  0
  -21.5626   -3.4532   25.7728 F   0  0  0  0  0  0
  -29.9466  -13.6951   20.3658 N   0  0  0  0  0  0
  -26.2869  -12.9489   20.3269 N   0  0  0  0  0  0
  -25.9330  -11.6615   20.5764 N   0  0  0  0  0  0
  -22.0426  -12.8226   22.0438 N   0  0  0  0  0  0
  -25.4071  -15.1976   20.4162 N   0  0  0  0  0  0
  -31.8170  -14.8956   20.1705 O   0  0  0  0  0  0
  -21.6645   -6.8895   21.4245 O   0  0  0  0  0  0
  -22.3489  -14.5522   20.6700 O   0  0  0  0  0  0
  -24.6429  -31.8456   23.1888 C   0  0  0  0  0  0
  -25.9210  -32.4704   23.8274 C   0  0  1  0  0  0
  -27.2121  -27.1432   20.1627 C   0  0  0  0  0  0
  -25.5964  -33.8510   24.2199 N   0  0  0  0  0  0
  -23.4457  -30.4642   21.5348 C   0  0  2  0  0  0
  -24.8954  -28.8893   20.1137 C   0  0  0  0  0  0
  -22.7569  -29.4543   22.4868 C   0  0  0  0  0  0
  -18.0318  -28.1379   22.8480 C   0  0  0  0  0  0
  -24.1485  -36.7263   23.2638 C   0  0  0  0  0  0
  -25.9998  -30.7229   21.3843 C   0  0  0  0  0  0
  -26.0720  -29.3319   20.7323 C   0  0  0  0  0  0
  -27.2357  -28.4757   20.7375 C   0  0  0  0  0  0
  -26.0177  -26.8050   19.4957 C   0  0  0  0  0  0
  -24.8806  -27.6394   19.4775 C   0  0  0  0  0  0
  -23.6727  -29.7923   20.1542 C   0  0  0  0  0  0
  -25.4117  -36.3042   24.0317 C   0  0  1  0  0  0
  -20.5925  -28.3716   23.1268 C   0  0  2  0  0  0
  -20.6814  -26.9415   22.5437 C   0  0  0  0  0  0
  -19.5805  -26.6383   21.5226 C   0  0  0  0  0  0
  -18.1979  -26.7921   22.1628 C   0  0  0  0  0  0
  -19.1563  -28.8869   23.2866 C   0  0  0  0  0  0
  -18.9467  -30.1469   23.8882 C   0  0  0  0  0  0
  -17.6457  -30.6578   24.0547 C   0  0  0  0  0  0
  -25.9070  -34.9413   23.5063 C   0  0  0  0  0  0
  -16.5358  -29.9064   23.6310 C   0  0  0  0  0  0
  -16.7296  -28.6480   23.0337 C   0  0  0  0  0  0
  -26.4535  -31.6562   25.0703 C   0  0  0  0  0  0
  -25.3718  -31.3753   26.1392 C   0  0  0  0  0  0
  -27.0399  -30.2962   24.6271 C   0  0  0  0  0  0
  -27.6068  -32.4315   25.7499 C   0  0  0  0  0  0
  -27.5573  -37.1793   24.8466 C   0  0  0  0  0  0
  -21.4259  -29.3058   22.3646 N   0  0  0  0  0  0
  -26.4281  -37.3755   23.9407 N   0  0  0  0  0  0
  -24.7161  -31.0320   22.0919 N   0  0  0  0  0  0
  -23.4222  -28.8074   23.2996 O   0  0  0  0  0  0
  -28.2578  -26.1551   20.1872 O   0  0  0  0  0  0
  -26.5650  -34.8913   22.4636 O   0  0  0  0  0  0
  -23.5556  -32.1326   23.7120 O   0  0  0  0  0  0
  -27.0597  -19.5219   21.2580 C   0  0  0  0  0  0
  -27.6865  -21.7790   20.3864 C   0  0  0  0  0  0
  -28.0816  -20.3318   20.6889 C   0  0  0  0  0  0
  -25.7359  -19.9400   21.3944 C   0  0  0  0  0  0
  -26.2626  -21.9783   20.3309 C   0  0  0  0  0  0
  -29.0575  -18.3728   19.4069 C   0  0  0  0  0  0
  -28.9077  -16.8156   19.8597 C   0  0  0  0  0  0
  -29.8855  -18.7342   21.5894 C   0  0  0  0  0  0
  -30.7090  -17.3638   21.3145 C   0  0  1  0  0  0
  -24.6572  -19.0592   21.9927 C   0  0  0  0  0  0
  -25.5503  -23.0878   19.5694 C   0  0  0  0  0  0
  -31.3865  -16.9618   22.6392 C   0  0  0  0  0  0
  -28.4923  -23.1820   20.0635 C   0  0  0  0  0  0
  -27.9856  -24.6985   20.6657 C   0  0  0  0  0  0
  -25.3879  -21.1134   20.8718 N   0  3  0  0  0  0
  -29.2493  -19.4534   20.4370 N   0  0  0  0  0  0
  -29.9781  -16.1783   20.7051 N   0  0  0  0  0  0
  -31.4615  -12.6964   19.1902 H   0  0  0  0  0  0
  -30.3834  -11.6304   20.0425 H   0  0  0  0  0  0
  -29.8317  -11.7348   17.5790 H   0  0  0  0  0  0
  -29.6093  -13.4649   17.6936 H   0  0  0  0  0  0
  -27.9398  -11.2811   18.9759 H   0  0  0  0  0  0
  -27.3848  -12.4583   17.8151 H   0  0  0  0  0  0
  -27.5788  -14.2526   19.4027 H   0  0  0  0  0  0
  -28.7498  -12.3478   21.4851 H   0  0  0  0  0  0
  -28.3740  -14.0416   21.7265 H   0  0  0  0  0  0
  -25.2775   -9.5693   22.4763 H   0  0  0  0  0  0
  -24.0019   -7.4645   22.7473 H   0  0  0  0  0  0
  -21.0858   -8.8796   19.8954 H   0  0  0  0  0  0
  -22.3718  -10.9692   19.6173 H   0  0  0  0  0  0
  -21.2015   -7.6150   23.9720 H   0  0  0  0  0  0
  -21.1480   -6.0510   25.9069 H   0  0  0  0  0  0
  -22.0595   -2.7615   23.2818 H   0  0  0  0  0  0
  -22.4022  -11.9886   22.4841 H   0  0  0  0  0  0
  -21.1029  -13.1244   22.2601 H   0  0  0  0  0  0
  -24.6239  -15.8341   20.5075 H   0  0  0  0  0  0
  -26.2357  -15.6341   20.0382 H   0  0  0  0  0  0
  -26.7272  -32.5329   23.1002 H   0  0  0  0  0  0
  -25.0100  -33.9617   25.0341 H   0  0  0  0  0  0
  -22.7475  -31.2893   21.3803 H   0  0  0  0  0  0
  -23.3755  -35.9589   23.3288 H   0  0  0  0  0  0
  -24.3569  -36.8902   22.2055 H   0  0  0  0  0  0
  -23.7231  -37.6453   23.6680 H   0  0  0  0  0  0
  -26.1470  -31.4740   20.6067 H   0  0  0  0  0  0
  -26.8737  -30.7807   22.0215 H   0  0  0  0  0  0
  -28.1355  -28.8120   21.2335 H   0  0  0  0  0  0
  -25.9499  -25.8560   18.9884 H   0  0  0  0  0  0
  -23.9863  -27.3005   18.9722 H   0  0  0  0  0  0
  -23.8124  -30.5660   19.3986 H   0  0  0  0  0  0
  -22.7869  -29.2361   19.8422 H   0  0  0  0  0  0
  -25.1302  -36.1870   25.0812 H   0  0  0  0  0  0
  -21.0013  -28.3320   24.1394 H   0  0  0  0  0  0
  -20.5692  -26.2325   23.3650 H   0  0  0  0  0  0
  -21.6687  -26.7427   22.1260 H   0  0  0  0  0  0
  -19.6980  -25.6301   21.1247 H   0  0  0  0  0  0
  -19.6752  -27.3209   20.6767 H   0  0  0  0  0  0
  -17.4261  -26.6665   21.4021 H   0  0  0  0  0  0
  -18.0379  -26.0064   22.9023 H   0  0  0  0  0  0
  -19.7934  -30.7300   24.2250 H   0  0  0  0  0  0
  -17.4992  -31.6254   24.5146 H   0  0  0  0  0  0
  -15.5350  -30.2951   23.7624 H   0  0  0  0  0  0
  -15.8704  -28.0783   22.7044 H   0  0  0  0  0  0
  -24.5908  -30.7087   25.7710 H   0  0  0  0  0  0
  -24.8896  -32.2938   26.4749 H   0  0  0  0  0  0
  -25.7997  -30.8971   27.0209 H   0  0  0  0  0  0
  -26.3018  -29.6684   24.1269 H   0  0  0  0  0  0
  -27.4006  -29.7259   25.4839 H   0  0  0  0  0  0
  -27.8922  -30.4196   23.9586 H   0  0  0  0  0  0
  -27.2669  -33.3633   26.2028 H   0  0  0  0  0  0
  -28.3923  -32.6838   25.0364 H   0  0  0  0  0  0
  -28.0687  -31.8463   26.5459 H   0  0  0  0  0  0
  -28.2588  -38.0094   24.7511 H   0  0  0  0  0  0
  -28.1072  -36.2624   24.6295 H   0  0  0  0  0  0
  -27.2291  -37.1440   25.8869 H   0  0  0  0  0  0
  -20.9451  -29.8831   21.6887 H   0  0  0  0  0  0
  -26.0151  -38.2822   24.1414 H   0  0  0  0  0  0
  -27.2546  -18.5062   21.5592 H   0  0  0  0  0  0
  -28.1936  -18.6302   18.7905 H   0  0  0  0  0  0
  -29.9089  -18.4406   18.7272 H   0  0  0  0  0  0
  -28.8143  -16.2242   18.9477 H   0  0  0  0  0  0
  -27.9652  -16.6788   20.3869 H   0  0  0  0  0  0
  -30.5798  -19.4523   22.0287 H   0  0  0  0  0  0
  -29.1682  -18.5448   22.3875 H   0  0  0  0  0  0
  -31.5134  -17.6124   20.6192 H   0  0  0  0  0  0
  -25.0898  -18.2239   22.5437 H   0  0  0  0  0  0
  -24.0187  -18.6529   21.2082 H   0  0  0  0  0  0
  -24.0359  -19.6266   22.6858 H   0  0  0  0  0  0
  -26.2053  -23.6197   18.8832 H   0  0  0  0  0  0
  -25.0636  -23.7885   20.2482 H   0  0  0  0  0  0
  -24.7651  -22.6571   18.9469 H   0  0  0  0  0  0
  -30.6497  -16.6560   23.3827 H   0  0  0  0  0  0
  -31.9461  -17.7980   23.0607 H   0  0  0  0  0  0
  -32.0989  -16.1468   22.5185 H   0  0  0  0  0  0
  -28.5221  -23.2566   18.9764 H   0  0  0  0  0  0
  -29.5311  -23.0315   20.3569 H   0  0  0  0  0  0
  -28.3758  -24.7068   21.6837 H   0  0  0  0  0  0
  -26.9247  -24.6706   20.8704 H   0  0  0  0  0  0
  -24.3948  -21.3534   20.8521 H   0  0  0  0  0  0
  1 25  1  0  0  0
  1 30  2  0  0  0
  1 87  1  0  0  0
  2  3  1  0  0  0
  2 25  1  0  0  0
  2 88  1  0  0  0
  2 89  1  0  0  0
  3  4  1  0  0  0
  3 90  1  0  0  0
  3 91  1  0  0  0
  4  5  1  0  0  0
  4 92  1  0  0  0
  4 93  1  0  0  0
  5  6  1  0  0  0
  5 26  1  0  0  0
  5 94  1  0  0  0
  6 25  1  0  0  0
  6 95  1  0  0  0
  6 96  1  0  0  0
  7  8  2  0  0  0
  7 26  1  0  0  0
  7 29  1  0  0  0
  8  9  1  0  0  0
  8 22  1  0  0  0
  9 10  1  0  0  0
  9 27  2  0  0  0
 10 11  2  0  0  0
 10 15  1  0  0  0
 11 12  1  0  0  0
 11 97  1  0  0  0
 12 13  2  0  0  0
 12 98  1  0  0  0
 13 14  1  0  0  0
 13 31  1  0  0  0
 14 15  2  0  0  0
 14 99  1  0  0  0
 15100  1  0  0  0
 16 17  2  0  0  0
 16 21  1  0  0  0
 16 31  1  0  0  0
 17 18  1  0  0  0
 17101  1  0  0  0
 18 19  2  0  0  0
 18102  1  0  0  0
 19 20  1  0  0  0
 19 24  1  0  0  0
 20 21  2  0  0  0
 20103  1  0  0  0
 21 23  1  0  0  0
 22 28  1  0  0  0
 22 32  2  0  0  0
 26 27  1  0  0  0
 28104  1  0  0  0
 28105  1  0  0  0
 29106  1  0  0  0
 29107  1  0  0  0
 33 34  1  0  0  0
 33 66  1  0  0  0
 33 70  2  0  0  0
 34 36  1  0  0  0
 34 59  1  0  0  0
 34108  1  0  0  0
 35 44  2  0  0  0
 35 45  1  0  0  0
 35 68  1  0  0  0
 36 56  1  0  0  0
 36109  1  0  0  0
 37 39  1  0  0  0
 37 47  1  0  0  0
 37 66  1  0  0  0
 37110  1  0  0  0
 38 43  2  0  0  0
 38 46  1  0  0  0
 38 47  1  0  0  0
 39 64  1  0  0  0
 39 67  2  0  0  0
 40 52  1  0  0  0
 40 53  2  0  0  0
 40 58  1  0  0  0
 41111  1  0  0  0
 41112  1  0  0  0
 41113  1  0  0  0
 41 48  1  0  0  0
 42 43  1  0  0  0
 42 66  1  0  0  0
 42114  1  0  0  0
 42115  1  0  0  0
 43 44  1  0  0  0
 44116  1  0  0  0
 45 46  2  0  0  0
 45117  1  0  0  0
 46118  1  0  0  0
 47119  1  0  0  0
 47120  1  0  0  0
 48 56  1  0  0  0
 48 65  1  0  0  0
 48121  1  0  0  0
 49 50  1  0  0  0
 49 53  1  0  0  0
 49 64  1  0  0  0
 49122  1  0  0  0
 50 51  1  0  0  0
 50123  1  0  0  0
 50124  1  0  0  0
 51 52  1  0  0  0
 51125  1  0  0  0
 51126  1  0  0  0
 52127  1  0  0  0
 52128  1  0  0  0
 53 54  1  0  0  0
 54 55  2  0  0  0
 54129  1  0  0  0
 55 57  1  0  0  0
 55130  1  0  0  0
 56 69  2  0  0  0
 57 58  2  0  0  0
 57131  1  0  0  0
 58132  1  0  0  0
 59 60  1  0  0  0
 59 61  1  0  0  0
 59 62  1  0  0  0
 60133  1  0  0  0
 60134  1  0  0  0
 60135  1  0  0  0
 61136  1  0  0  0
 61137  1  0  0  0
 61138  1  0  0  0
 62139  1  0  0  0
 62140  1  0  0  0
 62141  1  0  0  0
 63 65  1  0  0  0
 63142  1  0  0  0
 63143  1  0  0  0
 63144  1  0  0  0
 64145  1  0  0  0
 65146  1  0  0  0
 68 84  1  0  0  0
 71 73  2  0  0  0
 71 74  1  0  0  0
 71147  1  0  0  0
 72 73  1  0  0  0
 72 75  2  0  0  0
 72 83  1  0  0  0
 73 86  1  0  0  0
 74 80  1  0  0  0
 74 85  2  0  0  0
 75 81  1  0  0  0
 75 85  1  0  0  0
 76 77  1  0  0  0
 76 86  1  0  0  0
 76148  1  0  0  0
 76149  1  0  0  0
 77 87  1  0  0  0
 77150  1  0  0  0
 77151  1  0  0  0
 78 79  1  0  0  0
 78 86  1  0  0  0
 78152  1  0  0  0
 78153  1  0  0  0
 79 82  1  0  0  0
 79 87  1  0  0  0
 79154  1  0  0  0
 80155  1  0  0  0
 80156  1  0  0  0
 80157  1  0  0  0
 81158  1  0  0  0
 81159  1  0  0  0
 81160  1  0  0  0
 82161  1  0  0  0
 82162  1  0  0  0
 82163  1  0  0  0
 83 84  1  0  0  0
 83164  1  0  0  0
 83165  1  0  0  0
 84166  1  0  0  0
 84167  1  0  0  0
 85168  1  0  0  0
M  CHG  1  85   1
M  ISO  4   1 100  68 101  84 101  87 100
M  END
> <chiral flag>
0

> <version>
0

> <s_m_source_file>
/data/baiqing/PycharmProjects/Reinvent-master-3.2/result/LINK_invent/BTK/process_docking_weight1_custom_sum_contain_oxygen_bond_distance_aromatic_linkinvent_7_9_3/rearranged_h_0172.sdf

> <i_m_source_file_index>
87

> <r_mmod_Potential_Energy-OPLS-2005>
765.36376953125

> <r_mmod_Stretch_Energy-OPLS-2005>
266.975799560547

> <r_mmod_Bend_Energy-OPLS-2005>
333.006103515625

> <r_mmod_Torsional_Energy-OPLS-2005>
425.699157714844

> <r_mmod_Improper_Torsional_Energy-OPLS-2005>
11.5634269714355

> <r_mmod_Van_der_Waal_Energy-OPLS-2005>
157.350936889648

> <r_mmod_Electrostatic_Energy-OPLS-2005>
-192.621978759766

> <r_mmod_Solvation_Energy-OPLS-2005>
-415.672637939453

> <b_mmod_Minimization_Converged-OPLS-2005>
0

> <r_mmod_RMS_Derivative-OPLS-2005>
1.41846919059753

$$$$
87
                    3D
 Structure written by MMmdl.
170180  0  0  1  0            999 V2000
  -30.5146  -15.1132   20.3973 C   0  0  0  0  0  0
  -30.4419  -12.7013   19.5210 C   0  0  0  0  0  0
  -29.5325  -12.5506   18.2773 C   0  0  0  0  0  0
  -28.0751  -12.2978   18.7028 C   0  0  0  0  0  0
  -27.6258  -13.2597   19.8342 C   0  0  2  0  0  0
  -28.6674  -13.3794   20.9699 C   0  0  0  0  0  0
  -25.2467  -13.8207   20.5736 C   0  0  0  0  0  0
  -24.1795  -13.0452   20.9206 C   0  0  0  0  0  0
  -24.6405  -11.6925   20.8753 C   0  0  0  0  0  0
  -23.9080  -10.4299   21.0408 C   0  0  0  0  0  0
  -24.3627   -9.4194   21.9180 C   0  0  0  0  0  0
  -23.6316   -8.2216   22.0717 C   0  0  0  0  0  0
  -22.4298   -8.0260   21.3510 C   0  0  0  0  0  0
  -21.9936   -9.0224   20.4609 C   0  0  0  0  0  0
  -22.7240  -10.2122   20.3044 C   0  0  0  0  0  0
  -21.6836   -6.0760   22.5284 C   0  0  0  0  0  0
  -21.4000   -6.5655   23.8224 C   0  0  0  0  0  0
  -21.3652   -5.6786   24.9172 C   0  0  0  0  0  0
  -21.6040   -4.3055   24.7206 C   0  0  0  0  0  0
  -21.8821   -3.8170   23.4319 C   0  0  0  0  0  0
  -21.9182   -4.6994   22.3392 C   0  0  0  0  0  0
  -22.7801  -13.5210   21.1825 C   0  0  0  0  0  0
  -22.1657   -4.2201   21.0961 F   0  0  0  0  0  0
  -21.5629   -3.4523   25.7709 F   0  0  0  0  0  0
  -29.9182  -13.8381   20.3479 N   0  0  0  0  0  0
  -26.2900  -12.9476   20.3275 N   0  0  0  0  0  0
  -25.9352  -11.6596   20.5761 N   0  0  0  0  0  0
  -22.0492  -12.8214   22.0403 N   0  0  0  0  0  0
  -25.4166  -15.1943   20.4156 N   0  0  0  0  0  0
  -31.7326  -15.1208   20.1692 O   0  0  0  0  0  0
  -21.6624   -6.8888   21.4238 O   0  0  0  0  0  0
  -22.3479  -14.5485   20.6605 O   0  0  0  0  0  0
  -24.6573  -31.8347   23.1839 C   0  0  0  0  0  0
  -25.9316  -32.4614   23.8244 C   0  0  1  0  0  0
  -27.2128  -27.0252   20.1600 C   0  0  0  0  0  0
  -25.6042  -33.8430   24.2137 N   0  0  0  0  0  0
  -23.4593  -30.4552   21.5299 C   0  0  2  0  0  0
  -24.9048  -28.8566   20.0951 C   0  0  0  0  0  0
  -22.7582  -29.4583   22.4886 C   0  0  0  0  0  0
  -18.0313  -28.1421   22.8464 C   0  0  0  0  0  0
  -24.1459  -36.7141   23.2652 C   0  0  0  0  0  0
  -26.0193  -30.6692   21.3961 C   0  0  0  0  0  0
  -26.0834  -29.2732   20.7274 C   0  0  0  0  0  0
  -27.2259  -28.3736   20.7442 C   0  0  0  0  0  0
  -26.0188  -26.7423   19.4645 C   0  0  0  0  0  0
  -24.8919  -27.6066   19.4491 C   0  0  0  0  0  0
  -23.6847  -29.7756   20.1496 C   0  0  0  0  0  0
  -25.4094  -36.2934   24.0320 C   0  0  1  0  0  0
  -20.5925  -28.3735   23.1198 C   0  0  2  0  0  0
  -20.6791  -26.9417   22.5397 C   0  0  0  0  0  0
  -19.5766  -26.6370   21.5213 C   0  0  0  0  0  0
  -18.1943  -26.7969   22.1606 C   0  0  0  0  0  0
  -19.1572  -28.8904   23.2819 C   0  0  0  0  0  0
  -18.9503  -30.1510   23.8820 C   0  0  0  0  0  0
  -17.6504  -30.6611   24.0568 C   0  0  0  0  0  0
  -25.9088  -34.9347   23.5016 C   0  0  0  0  0  0
  -16.5385  -29.9081   23.6403 C   0  0  0  0  0  0
  -16.7304  -28.6522   23.0379 C   0  0  0  0  0  0
  -26.4570  -31.6568   25.0766 C   0  0  0  0  0  0
  -25.3757  -31.3799   26.1482 C   0  0  0  0  0  0
  -27.0465  -30.2935   24.6518 C   0  0  0  0  0  0
  -27.6060  -32.4405   25.7535 C   0  0  0  0  0  0
  -27.5537  -37.1688   24.8475 C   0  0  0  0  0  0
  -21.4279  -29.3056   22.3570 N   0  0  0  0  0  0
  -26.4206  -37.3693   23.9486 N   0  0  0  0  0  0
  -24.7326  -31.0083   22.0921 N   0  0  0  0  0  0
  -23.4146  -28.8249   23.3184 O   0  0  0  0  0  0
  -28.2287  -25.9772   20.3393 O   0  0  0  0  0  0
  -26.5630  -34.8906   22.4568 O   0  0  0  0  0  0
  -23.5664  -32.1337   23.6964 O   0  0  0  0  0  0
  -27.4295  -20.0360   20.4221 C   0  0  0  0  0  0
  -28.8176  -20.2204   20.3339 C   0  0  0  0  0  0
  -26.4946  -21.0935   20.5118 C   0  0  0  0  0  0
  -29.1909  -21.7018   20.2444 C   0  0  0  0  0  0
  -26.8737  -22.4712   20.5072 C   0  0  0  0  0  0
  -28.2155  -22.8910   20.2466 C   0  0  0  0  0  0
  -31.1192  -22.7980   22.7300 C   0  0  0  0  0  0
  -32.4317  -22.9611   22.0119 C   0  0  0  0  0  0
  -29.8260  -17.5628   21.4136 C   0  0  0  0  0  0
  -29.5099  -17.4308   19.3824 C   0  0  0  0  0  0
  -29.6773  -18.7331   20.3156 C   0  0  0  0  0  0
  -31.1241  -23.0647   21.2409 C   0  0  0  0  0  0
  -25.0272  -20.6737   20.5631 C   0  0  0  0  0  0
  -25.7872  -23.5045   20.7940 C   0  0  0  0  0  0
  -31.2437  -22.3086   18.8220 C   0  0  0  0  0  0
  -28.3949  -24.5110   19.6937 C   0  0  0  0  0  0
  -30.7011  -22.0031   20.2229 C   0  0  2  0  0  0
  -29.7657  -16.3645   20.4548 N   0  0  0  0  0  0
  -31.4711  -12.8673   19.2001 H   0  0  0  0  0  0
  -30.4694  -11.7819   20.1069 H   0  0  0  0  0  0
  -29.8893  -11.7380   17.6438 H   0  0  0  0  0  0
  -29.5899  -13.4556   17.6698 H   0  0  0  0  0  0
  -28.0140  -11.2666   19.0517 H   0  0  0  0  0  0
  -27.4025  -12.3612   17.8469 H   0  0  0  0  0  0
  -27.5596  -14.2422   19.3654 H   0  0  0  0  0  0
  -28.8084  -12.4320   21.4917 H   0  0  0  0  0  0
  -28.3413  -14.1067   21.7149 H   0  0  0  0  0  0
  -25.2754   -9.5664   22.4791 H   0  0  0  0  0  0
  -24.0031   -7.4582   22.7398 H   0  0  0  0  0  0
  -21.0886   -8.8692   19.8902 H   0  0  0  0  0  0
  -22.3657  -10.9656   19.6168 H   0  0  0  0  0  0
  -21.1996   -7.6163   23.9762 H   0  0  0  0  0  0
  -21.1474   -6.0500   25.9080 H   0  0  0  0  0  0
  -22.0625   -2.7643   23.2784 H   0  0  0  0  0  0
  -22.4134  -11.9876   22.4801 H   0  0  0  0  0  0
  -21.1075  -13.1169   22.2587 H   0  0  0  0  0  0
  -24.6555  -15.8519   20.5399 H   0  0  0  0  0  0
  -26.2794  -15.6298   20.1160 H   0  0  0  0  0  0
  -26.7404  -32.5180   23.0975 H   0  0  0  0  0  0
  -25.0302  -33.9528   25.0361 H   0  0  0  0  0  0
  -22.7727  -31.2915   21.3699 H   0  0  0  0  0  0
  -23.3795  -35.9395   23.3241 H   0  0  0  0  0  0
  -24.3551  -36.8851   22.2079 H   0  0  0  0  0  0
  -23.7133  -37.6270   23.6754 H   0  0  0  0  0  0
  -26.1939  -31.4285   20.6308 H   0  0  0  0  0  0
  -26.8788  -30.7038   22.0543 H   0  0  0  0  0  0
  -28.1071  -28.6913   21.2820 H   0  0  0  0  0  0
  -25.9108  -25.7808   18.9839 H   0  0  0  0  0  0
  -23.9914  -27.2699   18.9528 H   0  0  0  0  0  0
  -23.8184  -30.5550   19.3980 H   0  0  0  0  0  0
  -22.7922  -29.2266   19.8465 H   0  0  0  0  0  0
  -25.1273  -36.1662   25.0798 H   0  0  0  0  0  0
  -20.9986  -28.3306   24.1337 H   0  0  0  0  0  0
  -20.5639  -26.2371   23.3649 H   0  0  0  0  0  0
  -21.6672  -26.7424   22.1218 H   0  0  0  0  0  0
  -19.6914  -25.6257   21.1301 H   0  0  0  0  0  0
  -19.6725  -27.3149   20.6716 H   0  0  0  0  0  0
  -17.4231  -26.6774   21.3983 H   0  0  0  0  0  0
  -18.0284  -26.0096   22.8969 H   0  0  0  0  0  0
  -19.7977  -30.7367   24.2102 H   0  0  0  0  0  0
  -17.5062  -31.6293   24.5164 H   0  0  0  0  0  0
  -15.5380  -30.2954   23.7809 H   0  0  0  0  0  0
  -15.8706  -28.0839   22.7109 H   0  0  0  0  0  0
  -24.6016  -30.6996   25.7917 H   0  0  0  0  0  0
  -24.8869  -32.2970   26.4781 H   0  0  0  0  0  0
  -25.8109  -30.9169   27.0347 H   0  0  0  0  0  0
  -26.3134  -29.6595   24.1523 H   0  0  0  0  0  0
  -27.3964  -29.7329   25.5199 H   0  0  0  0  0  0
  -27.9086  -30.4122   23.9956 H   0  0  0  0  0  0
  -27.2622  -33.3770   26.1949 H   0  0  0  0  0  0
  -28.3925  -32.6869   25.0388 H   0  0  0  0  0  0
  -28.0679  -31.8673   26.5578 H   0  0  0  0  0  0
  -28.2469  -38.0063   24.7611 H   0  0  0  0  0  0
  -28.1089  -36.2590   24.6135 H   0  0  0  0  0  0
  -27.2299  -37.1141   25.8885 H   0  0  0  0  0  0
  -20.9518  -29.8644   21.6619 H   0  0  0  0  0  0
  -26.0022  -38.2702   24.1649 H   0  0  0  0  0  0
  -27.0634  -19.0171   20.4457 H   0  0  0  0  0  0
  -30.8119  -23.6158   23.3794 H   0  0  0  0  0  0
  -30.8744  -21.7965   23.0817 H   0  0  0  0  0  0
  -33.0421  -22.0628   21.9315 H   0  0  0  0  0  0
  -32.9845  -23.8750   22.2343 H   0  0  0  0  0  0
  -28.9929  -17.5583   22.1150 H   0  0  0  0  0  0
  -30.7649  -17.6369   21.9631 H   0  0  0  0  0  0
  -30.2272  -17.4159   18.5609 H   0  0  0  0  0  0
  -28.5038  -17.3529   18.9780 H   0  0  0  0  0  0
  -30.6966  -19.0582   20.1228 H   0  0  0  0  0  0
  -30.8423  -24.0767   20.9678 H   0  0  0  0  0  0
  -24.8986  -19.7282   20.0336 H   0  0  0  0  0  0
  -24.3690  -21.3931   20.0752 H   0  0  0  0  0  0
  -24.6762  -20.5129   21.5815 H   0  0  0  0  0  0
  -25.2267  -23.1987   21.6790 H   0  0  0  0  0  0
  -25.0876  -23.6024   19.9621 H   0  0  0  0  0  0
  -26.1737  -24.4869   21.0545 H   0  0  0  0  0  0
  -31.1013  -21.4647   18.1469 H   0  0  0  0  0  0
  -32.3139  -22.5258   18.8577 H   0  0  0  0  0  0
  -30.7485  -23.1675   18.3806 H   0  0  0  0  0  0
  -27.7965  -24.5264   18.7827 H   0  0  0  0  0  0
  -29.4042  -24.5479   19.2981 H   0  0  0  0  0  0
  -31.2144  -21.0991   20.5388 H   0  0  0  0  0  0
  1 25  1  0  0  0
  1 30  2  0  0  0
  1 88  1  0  0  0
  2  3  1  0  0  0
  2 25  1  0  0  0
  2 89  1  0  0  0
  2 90  1  0  0  0
  3  4  1  0  0  0
  3 91  1  0  0  0
  3 92  1  0  0  0
  4  5  1  0  0  0
  4 93  1  0  0  0
  4 94  1  0  0  0
  5  6  1  0  0  0
  5 26  1  0  0  0
  5 95  1  0  0  0
  6 25  1  0  0  0
  6 96  1  0  0  0
  6 97  1  0  0  0
  7  8  2  0  0  0
  7 26  1  0  0  0
  7 29  1  0  0  0
  8  9  1  0  0  0
  8 22  1  0  0  0
  9 10  1  0  0  0
  9 27  2  0  0  0
 10 11  2  0  0  0
 10 15  1  0  0  0
 11 12  1  0  0  0
 11 98  1  0  0  0
 12 13  2  0  0  0
 12 99  1  0  0  0
 13 14  1  0  0  0
 13 31  1  0  0  0
 14 15  2  0  0  0
 14100  1  0  0  0
 15101  1  0  0  0
 16 17  2  0  0  0
 16 21  1  0  0  0
 16 31  1  0  0  0
 17 18  1  0  0  0
 17102  1  0  0  0
 18 19  2  0  0  0
 18103  1  0  0  0
 19 20  1  0  0  0
 19 24  1  0  0  0
 20 21  2  0  0  0
 20104  1  0  0  0
 21 23  1  0  0  0
 22 28  1  0  0  0
 22 32  2  0  0  0
 26 27  1  0  0  0
 28105  1  0  0  0
 28106  1  0  0  0
 29107  1  0  0  0
 29108  1  0  0  0
 33 34  1  0  0  0
 33 66  1  0  0  0
 33 70  2  0  0  0
 34 36  1  0  0  0
 34 59  1  0  0  0
 34109  1  0  0  0
 35 44  2  0  0  0
 35 45  1  0  0  0
 35 68  1  0  0  0
 36 56  1  0  0  0
 36110  1  0  0  0
 37 39  1  0  0  0
 37 47  1  0  0  0
 37 66  1  0  0  0
 37111  1  0  0  0
 38 43  2  0  0  0
 38 46  1  0  0  0
 38 47  1  0  0  0
 39 64  1  0  0  0
 39 67  2  0  0  0
 40 52  1  0  0  0
 40 53  2  0  0  0
 40 58  1  0  0  0
 41112  1  0  0  0
 41113  1  0  0  0
 41114  1  0  0  0
 41 48  1  0  0  0
 42 43  1  0  0  0
 42 66  1  0  0  0
 42115  1  0  0  0
 42116  1  0  0  0
 43 44  1  0  0  0
 44117  1  0  0  0
 45 46  2  0  0  0
 45118  1  0  0  0
 46119  1  0  0  0
 47120  1  0  0  0
 47121  1  0  0  0
 48 56  1  0  0  0
 48 65  1  0  0  0
 48122  1  0  0  0
 49 50  1  0  0  0
 49 53  1  0  0  0
 49 64  1  0  0  0
 49123  1  0  0  0
 50 51  1  0  0  0
 50124  1  0  0  0
 50125  1  0  0  0
 51 52  1  0  0  0
 51126  1  0  0  0
 51127  1  0  0  0
 52128  1  0  0  0
 52129  1  0  0  0
 53 54  1  0  0  0
 54 55  2  0  0  0
 54130  1  0  0  0
 55 57  1  0  0  0
 55131  1  0  0  0
 56 69  2  0  0  0
 57 58  2  0  0  0
 57132  1  0  0  0
 58133  1  0  0  0
 59 60  1  0  0  0
 59 61  1  0  0  0
 59 62  1  0  0  0
 60134  1  0  0  0
 60135  1  0  0  0
 60136  1  0  0  0
 61137  1  0  0  0
 61138  1  0  0  0
 61139  1  0  0  0
 62140  1  0  0  0
 62141  1  0  0  0
 62142  1  0  0  0
 63 65  1  0  0  0
 63143  1  0  0  0
 63144  1  0  0  0
 63145  1  0  0  0
 64146  1  0  0  0
 65147  1  0  0  0
 68 86  1  0  0  0
 71 72  2  0  0  0
 71 73  1  0  0  0
 71148  1  0  0  0
 72 74  1  0  0  0
 72 81  1  0  0  0
 73 75  2  0  0  0
 73 83  1  0  0  0
 74 76  2  0  0  0
 74 87  1  0  0  0
 75 76  1  0  0  0
 75 84  1  0  0  0
 76 86  1  0  0  0
 77 78  1  0  0  0
 77149  1  0  0  0
 77150  1  0  0  0
 77 82  1  0  0  0
 78 82  1  0  0  0
 78151  1  0  0  0
 78152  1  0  0  0
 79 81  1  0  0  0
 79 88  1  0  0  0
 79153  1  0  0  0
 79154  1  0  0  0
 80 81  1  0  0  0
 80 88  1  0  0  0
 80155  1  0  0  0
 80156  1  0  0  0
 81157  1  0  0  0
 82 87  1  0  0  0
 82158  1  0  0  0
 83159  1  0  0  0
 83160  1  0  0  0
 83161  1  0  0  0
 84162  1  0  0  0
 84163  1  0  0  0
 84164  1  0  0  0
 85165  1  0  0  0
 85166  1  0  0  0
 85167  1  0  0  0
 85 87  1  0  0  0
 86168  1  0  0  0
 86169  1  0  0  0
 87170  1  0  0  0
M  ISO  4   1 100  68 101  86 101  88 100
M  END
> <chiral flag>
0

> <version>
0

> <s_m_source_file>
/data/baiqing/PycharmProjects/Reinvent-master-3.2/result/LINK_invent/BTK/process_docking_weight1_custom_sum_contain_oxygen_bond_distance_aromatic_linkinvent_7_9_3/rearranged_h_0172.sdf

> <i_m_source_file_index>
88

> <r_mmod_Potential_Energy-OPLS-2005>
1077.49829101562

> <r_mmod_Stretch_Energy-OPLS-2005>
400.561706542969

> <r_mmod_Bend_Energy-OPLS-2005>
390.878479003906

> <r_mmod_Torsional_Energy-OPLS-2005>
368.363677978516

> <r_mmod_Improper_Torsional_Energy-OPLS-2005>
12.9973621368408

> <r_mmod_Van_der_Waal_Energy-OPLS-2005>
116.560325622559

> <r_mmod_Electrostatic_Energy-OPLS-2005>
-340.243835449219

> <r_mmod_Solvation_Energy-OPLS-2005>
-192.869613647461

> <b_mmod_Minimization_Converged-OPLS-2005>
0

> <r_mmod_RMS_Derivative-OPLS-2005>
5.99418210983276

$$$$
88
                    3D
 Structure written by MMmdl.
175185  0  0  1  0            999 V2000
  -30.7428  -14.4331   20.6572 C   0  0  0  0  0  0
  -30.4217  -12.3195   19.4086 C   0  0  0  0  0  0
  -29.4868  -12.5176   18.1990 C   0  0  0  0  0  0
  -28.0122  -12.3508   18.6136 C   0  0  0  0  0  0
  -27.6618  -13.1827   19.8721 C   0  0  2  0  0  0
  -28.7056  -12.9364   20.9913 C   0  0  0  0  0  0
  -25.2614  -13.8104   20.5656 C   0  0  0  0  0  0
  -24.1844  -13.0418   20.9178 C   0  0  0  0  0  0
  -24.6369  -11.6877   20.8750 C   0  0  0  0  0  0
  -23.9033  -10.4277   21.0424 C   0  0  0  0  0  0
  -24.3595   -9.4192   21.9195 C   0  0  0  0  0  0
  -23.6274   -8.2228   22.0757 C   0  0  0  0  0  0
  -22.4258   -8.0272   21.3545 C   0  0  0  0  0  0
  -21.9890   -9.0245   20.4648 C   0  0  0  0  0  0
  -22.7213  -10.2124   20.3062 C   0  0  0  0  0  0
  -21.6841   -6.0733   22.5280 C   0  0  0  0  0  0
  -21.4005   -6.5639   23.8213 C   0  0  0  0  0  0
  -21.3658   -5.6793   24.9176 C   0  0  0  0  0  0
  -21.6044   -4.3055   24.7224 C   0  0  0  0  0  0
  -21.8818   -3.8146   23.4347 C   0  0  0  0  0  0
  -21.9188   -4.6963   22.3403 C   0  0  0  0  0  0
  -22.7873  -13.5246   21.1844 C   0  0  0  0  0  0
  -22.1655   -4.2149   21.0981 F   0  0  0  0  0  0
  -21.5636   -3.4538   25.7739 F   0  0  0  0  0  0
  -30.0346  -13.2806   20.4592 N   0  0  0  0  0  0
  -26.3016  -12.9221   20.3339 N   0  0  0  0  0  0
  -25.9281  -11.6412   20.5765 N   0  0  0  0  0  0
  -22.0497  -12.8248   22.0395 N   0  0  0  0  0  0
  -25.4358  -15.1815   20.4032 N   0  0  0  0  0  0
  -31.8050  -14.6441   20.0598 O   0  0  0  0  0  0
  -21.6625   -6.8869   21.4240 O   0  0  0  0  0  0
  -22.3575  -14.5563   20.6699 O   0  0  0  0  0  0
  -24.6119  -31.8694   23.2122 C   0  0  0  0  0  0
  -25.9025  -32.4828   23.8406 C   0  0  1  0  0  0
  -27.2421  -27.4575   20.0755 C   0  0  0  0  0  0
  -25.5893  -33.8630   24.2334 N   0  0  0  0  0  0
  -23.3992  -30.4933   21.5522 C   0  0  2  0  0  0
  -24.8457  -28.9603   20.1168 C   0  0  0  0  0  0
  -22.7397  -29.4666   22.5003 C   0  0  0  0  0  0
  -18.0267  -28.1376   22.8494 C   0  0  0  0  0  0
  -24.1486  -36.7317   23.2636 C   0  0  0  0  0  0
  -25.9265  -30.8362   21.3662 C   0  0  0  0  0  0
  -26.0029  -29.4703   20.7178 C   0  0  0  0  0  0
  -27.1984  -28.7188   20.7091 C   0  0  0  0  0  0
  -26.0614  -26.9515   19.4833 C   0  0  0  0  0  0
  -24.8673  -27.6959   19.5043 C   0  0  0  0  0  0
  -23.6071  -29.8253   20.1666 C   0  0  0  0  0  0
  -25.4104  -36.3115   24.0339 C   0  0  1  0  0  0
  -20.5858  -28.3657   23.1328 C   0  0  2  0  0  0
  -20.6758  -26.9395   22.5426 C   0  0  0  0  0  0
  -19.5742  -26.6385   21.5218 C   0  0  0  0  0  0
  -18.1915  -26.7929   22.1614 C   0  0  0  0  0  0
  -19.1517  -28.8833   23.2910 C   0  0  0  0  0  0
  -18.9446  -30.1441   23.8917 C   0  0  0  0  0  0
  -17.6450  -30.6583   24.0568 C   0  0  0  0  0  0
  -25.9032  -34.9481   23.5132 C   0  0  0  0  0  0
  -16.5340  -29.9088   23.6327 C   0  0  0  0  0  0
  -16.7257  -28.6506   23.0345 C   0  0  0  0  0  0
  -26.4465  -31.6604   25.0726 C   0  0  0  0  0  0
  -25.3744  -31.3729   26.1493 C   0  0  0  0  0  0
  -27.0270  -30.3038   24.6094 C   0  0  0  0  0  0
  -27.6063  -32.4310   25.7466 C   0  0  0  0  0  0
  -27.5586  -37.1806   24.8460 C   0  0  0  0  0  0
  -21.4129  -29.3029   22.3739 N   0  0  0  0  0  0
  -26.4291  -37.3800   23.9414 N   0  0  0  0  0  0
  -24.6640  -31.0806   22.1020 N   0  0  0  0  0  0
  -23.4178  -28.8209   23.3039 O   0  0  0  0  0  0
  -28.4300  -26.7583   20.0658 O   0  0  0  0  0  0
  -26.5596  -34.8929   22.4694 O   0  0  0  0  0  0
  -23.5317  -32.1447   23.7523 O   0  0  0  0  0  0
  -30.2581  -24.4058   21.3471 C   0  0  0  0  0  0
  -30.3331  -24.3139   19.9493 C   0  0  0  0  0  0
  -30.4611  -23.2161   22.0866 C   0  0  0  0  0  0
  -30.5931  -23.0888   19.3618 C   0  0  0  0  0  0
  -30.7236  -22.0019   21.3910 C   0  0  0  0  0  0
  -30.6249  -23.1705   17.8652 C   0  0  0  0  0  0
  -30.4597  -24.6808   17.5778 C   0  0  0  0  0  0
  -31.5482  -17.4655   21.9188 C   0  0  0  0  0  0
  -29.1664  -17.4054   21.1215 C   0  0  0  0  0  0
  -31.3504  -16.0205   22.4459 C   0  0  0  0  0  0
  -29.0542  -15.9832   21.6986 C   0  0  0  0  0  0
  -30.2116  -18.2421   21.8801 C   0  0  0  0  0  0
  -30.1523  -25.4163   18.9210 C   0  0  2  0  0  0
  -30.3935  -23.2741   23.6048 C   0  0  0  0  0  0
  -31.1591  -26.5605   19.1490 C   0  0  0  0  0  0
  -30.9060  -20.6593   22.1013 C   0  0  0  0  0  0
  -28.7018  -25.9592   18.9131 C   0  0  0  0  0  0
  -30.7849  -21.9405   20.0354 N   0  0  0  0  0  0
  -30.3501  -15.2787   21.6532 N   0  0  0  0  0  0
  -30.3276  -19.5875   21.2699 N   0  3  0  0  0  0
  -31.4626  -12.4271   19.0984 H   0  0  0  0  0  0
  -30.3398  -11.2999   19.7887 H   0  0  0  0  0  0
  -29.7355  -11.8059   17.4104 H   0  0  0  0  0  0
  -29.6397  -13.5112   17.7746 H   0  0  0  0  0  0
  -27.8350  -11.2921   18.8075 H   0  0  0  0  0  0
  -27.3548  -12.6220   17.7867 H   0  0  0  0  0  0
  -27.7053  -14.2216   19.5516 H   0  0  0  0  0  0
  -28.6957  -11.8830   21.2757 H   0  0  0  0  0  0
  -28.4570  -13.4590   21.9135 H   0  0  0  0  0  0
  -25.2743   -9.5667   22.4767 H   0  0  0  0  0  0
  -23.9984   -7.4614   22.7471 H   0  0  0  0  0  0
  -21.0821   -8.8762   19.8951 H   0  0  0  0  0  0
  -22.3680  -10.9666   19.6171 H   0  0  0  0  0  0
  -21.1988   -7.6146   23.9715 H   0  0  0  0  0  0
  -21.1485   -6.0524   25.9080 H   0  0  0  0  0  0
  -22.0598   -2.7607   23.2846 H   0  0  0  0  0  0
  -22.4087  -11.9896   22.4777 H   0  0  0  0  0  0
  -21.1122  -13.1297   22.2602 H   0  0  0  0  0  0
  -24.6690  -15.8369   20.5088 H   0  0  0  0  0  0
  -26.2834  -15.6163   20.0628 H   0  0  0  0  0  0
  -26.7092  -32.5546   23.1170 H   0  0  0  0  0  0
  -25.0052  -33.9800   25.0484 H   0  0  0  0  0  0
  -22.6875  -31.3099   21.4140 H   0  0  0  0  0  0
  -23.3760  -35.9636   23.3275 H   0  0  0  0  0  0
  -24.3592  -36.8956   22.2056 H   0  0  0  0  0  0
  -23.7219  -37.6506   23.6668 H   0  0  0  0  0  0
  -26.0368  -31.6007   20.5961 H   0  0  0  0  0  0
  -26.8153  -30.8910   21.9829 H   0  0  0  0  0  0
  -28.0934  -29.1111   21.1721 H   0  0  0  0  0  0
  -26.0398  -25.9824   19.0083 H   0  0  0  0  0  0
  -23.9755  -27.2931   19.0438 H   0  0  0  0  0  0
  -23.7135  -30.5998   19.4061 H   0  0  0  0  0  0
  -22.7317  -29.2436   19.8717 H   0  0  0  0  0  0
  -25.1281  -36.1978   25.0833 H   0  0  0  0  0  0
  -20.9949  -28.3214   24.1448 H   0  0  0  0  0  0
  -20.5653  -26.2265   23.3610 H   0  0  0  0  0  0
  -21.6631  -26.7436   22.1219 H   0  0  0  0  0  0
  -19.6902  -25.6301   21.1233 H   0  0  0  0  0  0
  -19.6692  -27.3209   20.6760 H   0  0  0  0  0  0
  -17.4196  -26.6696   21.4005 H   0  0  0  0  0  0
  -18.0295  -26.0058   22.8993 H   0  0  0  0  0  0
  -19.7923  -30.7254   24.2291 H   0  0  0  0  0  0
  -17.5006  -31.6268   24.5161 H   0  0  0  0  0  0
  -15.5344  -30.2998   23.7645 H   0  0  0  0  0  0
  -15.8655  -28.0841   22.7043 H   0  0  0  0  0  0
  -24.5884  -30.7110   25.7841 H   0  0  0  0  0  0
  -24.8979  -32.2897   26.4973 H   0  0  0  0  0  0
  -25.8100  -30.8867   27.0231 H   0  0  0  0  0  0
  -26.2791  -29.6806   24.1173 H   0  0  0  0  0  0
  -27.4057  -29.7271   25.4543 H   0  0  0  0  0  0
  -27.8630  -30.4339   23.9217 H   0  0  0  0  0  0
  -27.2717  -33.3629   26.2034 H   0  0  0  0  0  0
  -28.3875  -32.6828   25.0281 H   0  0  0  0  0  0
  -28.0722  -31.8428   26.5384 H   0  0  0  0  0  0
  -28.2599  -38.0107   24.7518 H   0  0  0  0  0  0
  -28.1087  -36.2644   24.6263 H   0  0  0  0  0  0
  -27.2315  -37.1422   25.8864 H   0  0  0  0  0  0
  -20.9281  -29.8763   21.6977 H   0  0  0  0  0  0
  -26.0182  -38.2877   24.1432 H   0  0  0  0  0  0
  -30.0524  -25.3500   21.8320 H   0  0  0  0  0  0
  -29.8018  -22.5908   17.4470 H   0  0  0  0  0  0
  -31.5633  -22.7793   17.4713 H   0  0  0  0  0  0
  -29.6974  -24.8551   16.8176 H   0  0  0  0  0  0
  -31.3929  -25.0504   17.1512 H   0  0  0  0  0  0
  -31.9874  -17.4267   20.9207 H   0  0  0  0  0  0
  -32.2693  -17.9852   22.5505 H   0  0  0  0  0  0
  -28.1902  -17.8906   21.1724 H   0  0  0  0  0  0
  -29.4257  -17.3469   20.0630 H   0  0  0  0  0  0
  -31.0224  -16.0465   23.4861 H   0  0  0  0  0  0
  -32.3077  -15.4955   22.4588 H   0  0  0  0  0  0
  -28.2715  -15.4836   21.1452 H   0  0  0  0  0  0
  -28.7036  -16.0192   22.7311 H   0  0  0  0  0  0
  -29.8510  -18.3644   22.9032 H   0  0  0  0  0  0
  -30.3737  -24.3049   23.9609 H   0  0  0  0  0  0
  -31.2616  -22.7914   24.0552 H   0  0  0  0  0  0
  -29.4926  -22.7802   23.9707 H   0  0  0  0  0  0
  -32.1880  -26.1999   19.1224 H   0  0  0  0  0  0
  -31.0094  -27.0438   20.1149 H   0  0  0  0  0  0
  -31.0587  -27.3289   18.3817 H   0  0  0  0  0  0
  -30.4108  -20.6681   23.0718 H   0  0  0  0  0  0
  -31.9671  -20.4790   22.2745 H   0  0  0  0  0  0
  -28.0113  -25.1175   18.8477 H   0  0  0  0  0  0
  -28.5495  -26.5741   18.0238 H   0  0  0  0  0  0
  -29.4079  -19.9259   21.0416 H   0  0  0  0  0  0
  -30.8412  -19.5861   20.4031 H   0  0  0  0  0  0
  1 25  1  0  0  0
  1 30  2  0  0  0
  1 89  1  0  0  0
  2  3  1  0  0  0
  2 25  1  0  0  0
  2 91  1  0  0  0
  2 92  1  0  0  0
  3  4  1  0  0  0
  3 93  1  0  0  0
  3 94  1  0  0  0
  4  5  1  0  0  0
  4 95  1  0  0  0
  4 96  1  0  0  0
  5  6  1  0  0  0
  5 26  1  0  0  0
  5 97  1  0  0  0
  6 25  1  0  0  0
  6 98  1  0  0  0
  6 99  1  0  0  0
  7  8  2  0  0  0
  7 26  1  0  0  0
  7 29  1  0  0  0
  8  9  1  0  0  0
  8 22  1  0  0  0
  9 10  1  0  0  0
  9 27  2  0  0  0
 10 11  2  0  0  0
 10 15  1  0  0  0
 11 12  1  0  0  0
 11100  1  0  0  0
 12 13  2  0  0  0
 12101  1  0  0  0
 13 14  1  0  0  0
 13 31  1  0  0  0
 14 15  2  0  0  0
 14102  1  0  0  0
 15103  1  0  0  0
 16 17  2  0  0  0
 16 21  1  0  0  0
 16 31  1  0  0  0
 17 18  1  0  0  0
 17104  1  0  0  0
 18 19  2  0  0  0
 18105  1  0  0  0
 19 20  1  0  0  0
 19 24  1  0  0  0
 20 21  2  0  0  0
 20106  1  0  0  0
 21 23  1  0  0  0
 22 28  1  0  0  0
 22 32  2  0  0  0
 26 27  1  0  0  0
 28107  1  0  0  0
 28108  1  0  0  0
 29109  1  0  0  0
 29110  1  0  0  0
 33 34  1  0  0  0
 33 66  1  0  0  0
 33 70  2  0  0  0
 34 36  1  0  0  0
 34 59  1  0  0  0
 34111  1  0  0  0
 35 44  2  0  0  0
 35 45  1  0  0  0
 35 68  1  0  0  0
 36 56  1  0  0  0
 36112  1  0  0  0
 37 39  1  0  0  0
 37 47  1  0  0  0
 37 66  1  0  0  0
 37113  1  0  0  0
 38 43  2  0  0  0
 38 46  1  0  0  0
 38 47  1  0  0  0
 39 64  1  0  0  0
 39 67  2  0  0  0
 40 52  1  0  0  0
 40 53  2  0  0  0
 40 58  1  0  0  0
 41114  1  0  0  0
 41115  1  0  0  0
 41116  1  0  0  0
 41 48  1  0  0  0
 42 43  1  0  0  0
 42 66  1  0  0  0
 42117  1  0  0  0
 42118  1  0  0  0
 43 44  1  0  0  0
 44119  1  0  0  0
 45 46  2  0  0  0
 45120  1  0  0  0
 46121  1  0  0  0
 47122  1  0  0  0
 47123  1  0  0  0
 48 56  1  0  0  0
 48 65  1  0  0  0
 48124  1  0  0  0
 49 50  1  0  0  0
 49 53  1  0  0  0
 49 64  1  0  0  0
 49125  1  0  0  0
 50 51  1  0  0  0
 50126  1  0  0  0
 50127  1  0  0  0
 51 52  1  0  0  0
 51128  1  0  0  0
 51129  1  0  0  0
 52130  1  0  0  0
 52131  1  0  0  0
 53 54  1  0  0  0
 54 55  2  0  0  0
 54132  1  0  0  0
 55 57  1  0  0  0
 55133  1  0  0  0
 56 69  2  0  0  0
 57 58  2  0  0  0
 57134  1  0  0  0
 58135  1  0  0  0
 59 60  1  0  0  0
 59 61  1  0  0  0
 59 62  1  0  0  0
 60136  1  0  0  0
 60137  1  0  0  0
 60138  1  0  0  0
 61139  1  0  0  0
 61140  1  0  0  0
 61141  1  0  0  0
 62142  1  0  0  0
 62143  1  0  0  0
 62144  1  0  0  0
 63 65  1  0  0  0
 63145  1  0  0  0
 63146  1  0  0  0
 63147  1  0  0  0
 64148  1  0  0  0
 65149  1  0  0  0
 68 87  1  0  0  0
 71 72  2  0  0  0
 71 73  1  0  0  0
 71150  1  0  0  0
 72 74  1  0  0  0
 72 83  1  0  0  0
 73 75  2  0  0  0
 73 84  1  0  0  0
 74 76  1  0  0  0
 74 88  2  0  0  0
 75 86  1  0  0  0
 75 88  1  0  0  0
 76 77  1  0  0  0
 76151  1  0  0  0
 76152  1  0  0  0
 77 83  1  0  0  0
 77153  1  0  0  0
 77154  1  0  0  0
 78 80  1  0  0  0
 78 82  1  0  0  0
 78155  1  0  0  0
 78156  1  0  0  0
 79 81  1  0  0  0
 79 82  1  0  0  0
 79157  1  0  0  0
 79158  1  0  0  0
 80 89  1  0  0  0
 80159  1  0  0  0
 80160  1  0  0  0
 81 89  1  0  0  0
 81161  1  0  0  0
 81162  1  0  0  0
 82 90  1  0  0  0
 82163  1  0  0  0
 83 85  1  0  0  0
 83 87  1  0  0  0
 84164  1  0  0  0
 84165  1  0  0  0
 84166  1  0  0  0
 85167  1  0  0  0
 85168  1  0  0  0
 85169  1  0  0  0
 86 90  1  0  0  0
 86170  1  0  0  0
 86171  1  0  0  0
 87172  1  0  0  0
 87173  1  0  0  0
 90174  1  0  0  0
 90175  1  0  0  0
M  CHG  1  90   1
M  ISO  4   1 100  68 101  87 101  89 100
M  END
> <chiral flag>
0

> <version>
0

> <s_m_source_file>
/data/baiqing/PycharmProjects/Reinvent-master-3.2/result/LINK_invent/BTK/process_docking_weight1_custom_sum_contain_oxygen_bond_distance_aromatic_linkinvent_7_9_3/rearranged_h_0172.sdf

> <i_m_source_file_index>
89

> <r_mmod_Potential_Energy-OPLS-2005>
-224.713394165039

> <r_mmod_Stretch_Energy-OPLS-2005>
41.8657646179199

> <r_mmod_Bend_Energy-OPLS-2005>
147.770248413086

> <r_mmod_Torsional_Energy-OPLS-2005>
320.005645751953

> <r_mmod_Improper_Torsional_Energy-OPLS-2005>
5.24725294113159

> <r_mmod_Van_der_Waal_Energy-OPLS-2005>
169.966201782227

> <r_mmod_Electrostatic_Energy-OPLS-2005>
-489.866455078125

> <r_mmod_Solvation_Energy-OPLS-2005>
-429.003662109375

> <b_mmod_Minimization_Converged-OPLS-2005>
0

> <r_mmod_RMS_Derivative-OPLS-2005>
0.583453238010406

$$$$
89
                    3D
 Structure written by MMmdl.
166176  0  0  1  0            999 V2000
  -30.5291  -15.0289   20.4062 C   0  0  0  0  0  0
  -30.4361  -12.6409   19.5098 C   0  0  0  0  0  0
  -29.5219  -12.5354   18.2668 C   0  0  0  0  0  0
  -28.0597  -12.3062   18.6887 C   0  0  0  0  0  0
  -27.6226  -13.2559   19.8336 C   0  0  2  0  0  0
  -28.6632  -13.3296   20.9717 C   0  0  0  0  0  0
  -25.2427  -13.8228   20.5719 C   0  0  0  0  0  0
  -24.1761  -13.0441   20.9256 C   0  0  0  0  0  0
  -24.6387  -11.6931   20.8765 C   0  0  0  0  0  0
  -23.9075  -10.4292   21.0412 C   0  0  0  0  0  0
  -24.3625   -9.4206   21.9186 C   0  0  0  0  0  0
  -23.6297   -8.2240   22.0750 C   0  0  0  0  0  0
  -22.4279   -8.0276   21.3541 C   0  0  0  0  0  0
  -21.9921   -9.0253   20.4642 C   0  0  0  0  0  0
  -22.7250  -10.2132   20.3057 C   0  0  0  0  0  0
  -21.6852   -6.0734   22.5278 C   0  0  0  0  0  0
  -21.4014   -6.5638   23.8210 C   0  0  0  0  0  0
  -21.3660   -5.6790   24.9170 C   0  0  0  0  0  0
  -21.6046   -4.3053   24.7223 C   0  0  0  0  0  0
  -21.8817   -3.8145   23.4342 C   0  0  0  0  0  0
  -21.9191   -4.6961   22.3399 C   0  0  0  0  0  0
  -22.7779  -13.5201   21.1906 C   0  0  0  0  0  0
  -22.1659   -4.2146   21.0977 F   0  0  0  0  0  0
  -21.5630   -3.4537   25.7736 F   0  0  0  0  0  0
  -29.9298  -13.7606   20.3646 N   0  0  0  0  0  0
  -26.2850  -12.9474   20.3234 N   0  0  0  0  0  0
  -25.9318  -11.6598   20.5748 N   0  0  0  0  0  0
  -22.0432  -12.8176   22.0456 N   0  0  0  0  0  0
  -25.4077  -15.1954   20.4097 N   0  0  0  0  0  0
  -31.7430  -15.0368   20.1602 O   0  0  0  0  0  0
  -21.6641   -6.8876   21.4238 O   0  0  0  0  0  0
  -22.3457  -14.5504   20.6745 O   0  0  0  0  0  0
  -24.6483  -31.8383   23.1834 C   0  0  0  0  0  0
  -25.9228  -32.4658   23.8248 C   0  0  1  0  0  0
  -27.2107  -27.0773   20.1640 C   0  0  0  0  0  0
  -25.5962  -33.8472   24.2160 N   0  0  0  0  0  0
  -23.4544  -30.4570   21.5302 C   0  0  2  0  0  0
  -24.9028  -28.8732   20.1127 C   0  0  0  0  0  0
  -22.7592  -29.4514   22.4833 C   0  0  0  0  0  0
  -18.0308  -28.1396   22.8460 C   0  0  0  0  0  0
  -24.1497  -36.7245   23.2646 C   0  0  0  0  0  0
  -26.0152  -30.6931   21.3916 C   0  0  0  0  0  0
  -26.0823  -29.2989   20.7358 C   0  0  0  0  0  0
  -27.2357  -28.4182   20.7404 C   0  0  0  0  0  0
  -26.0068  -26.7721   19.4913 C   0  0  0  0  0  0
  -24.8817  -27.6259   19.4736 C   0  0  0  0  0  0
  -23.6836  -29.7836   20.1516 C   0  0  0  0  0  0
  -25.4125  -36.3007   24.0315 C   0  0  1  0  0  0
  -20.5922  -28.3723   23.1222 C   0  0  2  0  0  0
  -20.6794  -26.9422   22.5401 C   0  0  0  0  0  0
  -19.5772  -26.6367   21.5209 C   0  0  0  0  0  0
  -18.1946  -26.7929   22.1610 C   0  0  0  0  0  0
  -19.1565  -28.8875   23.2834 C   0  0  0  0  0  0
  -18.9487  -30.1470   23.8860 C   0  0  0  0  0  0
  -17.6485  -30.6589   24.0555 C   0  0  0  0  0  0
  -25.9078  -34.9384   23.5047 C   0  0  0  0  0  0
  -16.5373  -29.9083   23.6340 C   0  0  0  0  0  0
  -16.7291  -28.6506   23.0349 C   0  0  0  0  0  0
  -26.4535  -31.6546   25.0713 C   0  0  0  0  0  0
  -25.3705  -31.3760   26.1397 C   0  0  0  0  0  0
  -27.0411  -30.2935   24.6329 C   0  0  0  0  0  0
  -27.6051  -32.4326   25.7501 C   0  0  0  0  0  0
  -27.5573  -37.1771   24.8464 C   0  0  0  0  0  0
  -21.4276  -29.3051   22.3593 N   0  0  0  0  0  0
  -26.4280  -37.3724   23.9411 N   0  0  0  0  0  0
  -24.7264  -31.0183   22.0904 N   0  0  0  0  0  0
  -23.4213  -28.8061   23.2999 O   0  0  0  0  0  0
  -28.2616  -26.0712   20.2102 O   0  0  0  0  0  0
  -26.5668  -34.8896   22.4627 O   0  0  0  0  0  0
  -23.5586  -32.1290   23.7011 O   0  0  0  0  0  0
  -30.8792  -20.5370   20.2115 C   0  0  0  0  0  0
  -29.4911  -20.3824   20.3511 C   0  0  0  0  0  0
  -29.1095  -18.9301   20.4656 C   0  0  0  0  0  0
  -31.7486  -19.4270   20.1704 C   0  0  0  0  0  0
  -30.0667  -17.7664   20.4177 C   0  0  0  0  0  0
  -28.1380  -22.3507   21.7362 C   0  0  0  0  0  0
  -33.7854  -20.6359   19.0399 C   0  0  0  0  0  0
  -33.9451  -19.1604   18.7683 C   0  0  0  0  0  0
  -27.8093  -23.9089   21.6782 C   0  0  0  0  0  0
  -28.5730  -21.7907   20.3530 C   0  0  1  0  0  0
  -33.2268  -19.6224   20.0161 C   0  0  0  0  0  0
  -29.0061  -23.2739   19.7418 C   0  0  2  0  0  0
  -28.0242  -24.5022   20.2579 C   0  0  2  0  0  0
  -27.6334  -18.6262   20.6408 C   0  0  0  0  0  0
  -29.0902  -23.2485   18.2108 C   0  0  0  0  0  0
  -31.3590  -18.1316   20.2686 N   0  0  0  0  0  0
  -29.7574  -16.2448   20.5187 N   0  0  0  0  0  0
  -31.4669  -12.8018   19.1920 H   0  0  0  0  0  0
  -30.4434  -11.7023   20.0671 H   0  0  0  0  0  0
  -29.8557  -11.7263   17.6160 H   0  0  0  0  0  0
  -29.5950  -13.4516   17.6792 H   0  0  0  0  0  0
  -27.9743  -11.2705   19.0210 H   0  0  0  0  0  0
  -27.3927  -12.4058   17.8319 H   0  0  0  0  0  0
  -27.5709  -14.2471   19.3818 H   0  0  0  0  0  0
  -28.7691  -12.3662   21.4730 H   0  0  0  0  0  0
  -28.3467  -14.0436   21.7338 H   0  0  0  0  0  0
  -25.2766   -9.5680   22.4768 H   0  0  0  0  0  0
  -24.0000   -7.4629   22.7470 H   0  0  0  0  0  0
  -21.0852   -8.8774   19.8945 H   0  0  0  0  0  0
  -22.3707  -10.9675   19.6171 H   0  0  0  0  0  0
  -21.2007   -7.6146   23.9713 H   0  0  0  0  0  0
  -21.1487   -6.0520   25.9073 H   0  0  0  0  0  0
  -22.0597   -2.7608   23.2843 H   0  0  0  0  0  0
  -22.4062  -11.9843   22.4844 H   0  0  0  0  0  0
  -21.1049  -13.1189   22.2664 H   0  0  0  0  0  0
  -24.6276  -15.8377   20.4979 H   0  0  0  0  0  0
  -26.2245  -15.6232   19.9965 H   0  0  0  0  0  0
  -26.7287  -32.5235   23.0965 H   0  0  0  0  0  0
  -25.0103  -33.9586   25.0305 H   0  0  0  0  0  0
  -22.7604  -31.2852   21.3704 H   0  0  0  0  0  0
  -23.3763  -35.9572   23.3276 H   0  0  0  0  0  0
  -24.3592  -36.8913   22.2069 H   0  0  0  0  0  0
  -23.7254  -37.6435   23.6705 H   0  0  0  0  0  0
  -26.1781  -31.4423   20.6157 H   0  0  0  0  0  0
  -26.8839  -30.7442   22.0363 H   0  0  0  0  0  0
  -28.1346  -28.7397   21.2464 H   0  0  0  0  0  0
  -25.8991  -25.8344   18.9707 H   0  0  0  0  0  0
  -23.9861  -27.2977   18.9634 H   0  0  0  0  0  0
  -23.8258  -30.5574   19.3964 H   0  0  0  0  0  0
  -22.7966  -29.2316   19.8359 H   0  0  0  0  0  0
  -25.1315  -36.1819   25.0807 H   0  0  0  0  0  0
  -21.0007  -28.3302   24.1346 H   0  0  0  0  0  0
  -20.5688  -26.2338   23.3622 H   0  0  0  0  0  0
  -21.6656  -26.7418   22.1197 H   0  0  0  0  0  0
  -19.6950  -25.6273   21.1256 H   0  0  0  0  0  0
  -19.6718  -27.3157   20.6724 H   0  0  0  0  0  0
  -17.4221  -26.6668   21.4010 H   0  0  0  0  0  0
  -18.0337  -26.0087   22.9019 H   0  0  0  0  0  0
  -19.7973  -30.7288   24.2207 H   0  0  0  0  0  0
  -17.5047  -31.6270   24.5157 H   0  0  0  0  0  0
  -15.5375  -30.2981   23.7689 H   0  0  0  0  0  0
  -15.8687  -28.0820   22.7082 H   0  0  0  0  0  0
  -24.5911  -30.7073   25.7725 H   0  0  0  0  0  0
  -24.8868  -32.2953   26.4710 H   0  0  0  0  0  0
  -25.7974  -30.9024   27.0245 H   0  0  0  0  0  0
  -26.3048  -29.6642   24.1317 H   0  0  0  0  0  0
  -27.4006  -29.7245   25.4914 H   0  0  0  0  0  0
  -27.8957  -30.4178   23.9675 H   0  0  0  0  0  0
  -27.2641  -33.3670   26.1972 H   0  0  0  0  0  0
  -28.3910  -32.6810   25.0353 H   0  0  0  0  0  0
  -28.0659  -31.8522   26.5504 H   0  0  0  0  0  0
  -28.2550  -38.0103   24.7504 H   0  0  0  0  0  0
  -28.1103  -36.2622   24.6277 H   0  0  0  0  0  0
  -27.2296  -37.1399   25.8870 H   0  0  0  0  0  0
  -20.9481  -29.8793   21.6798 H   0  0  0  0  0  0
  -26.0139  -38.2788   24.1421 H   0  0  0  0  0  0
  -31.2965  -21.5316   20.1285 H   0  0  0  0  0  0
  -27.3010  -21.7789   22.1379 H   0  0  0  0  0  0
  -28.9618  -22.2094   22.4371 H   0  0  0  0  0  0
  -33.0857  -21.1835   18.4113 H   0  0  0  0  0  0
  -34.6786  -21.1828   19.3343 H   0  0  0  0  0  0
  -34.9434  -18.7440   18.8820 H   0  0  0  0  0  0
  -33.3421  -18.7239   17.9742 H   0  0  0  0  0  0
  -28.4677  -24.4262   22.3769 H   0  0  0  0  0  0
  -26.7924  -24.1075   22.0191 H   0  0  0  0  0  0
  -27.6590  -21.5147   19.8263 H   0  0  0  0  0  0
  -33.7395  -19.5078   20.9694 H   0  0  0  0  0  0
  -30.0029  -23.4985   20.1238 H   0  0  0  0  0  0
  -27.0973  -24.3164   19.7210 H   0  0  0  0  0  0
  -27.1797  -19.3180   21.3511 H   0  0  0  0  0  0
  -27.4678  -17.6178   21.0184 H   0  0  0  0  0  0
  -27.1112  -18.7251   19.6895 H   0  0  0  0  0  0
  -28.1189  -23.0263   17.7684 H   0  0  0  0  0  0
  -29.7941  -22.4892   17.8701 H   0  0  0  0  0  0
  -29.4203  -24.2120   17.8210 H   0  0  0  0  0  0
  -28.7823  -16.0513   20.6709 H   0  0  0  0  0  0
  1 25  1  0  0  0
  1 30  2  0  0  0
  1 87  1  0  0  0
  2  3  1  0  0  0
  2 25  1  0  0  0
  2 88  1  0  0  0
  2 89  1  0  0  0
  3  4  1  0  0  0
  3 90  1  0  0  0
  3 91  1  0  0  0
  4  5  1  0  0  0
  4 92  1  0  0  0
  4 93  1  0  0  0
  5  6  1  0  0  0
  5 26  1  0  0  0
  5 94  1  0  0  0
  6 25  1  0  0  0
  6 95  1  0  0  0
  6 96  1  0  0  0
  7  8  2  0  0  0
  7 26  1  0  0  0
  7 29  1  0  0  0
  8  9  1  0  0  0
  8 22  1  0  0  0
  9 10  1  0  0  0
  9 27  2  0  0  0
 10 11  2  0  0  0
 10 15  1  0  0  0
 11 12  1  0  0  0
 11 97  1  0  0  0
 12 13  2  0  0  0
 12 98  1  0  0  0
 13 14  1  0  0  0
 13 31  1  0  0  0
 14 15  2  0  0  0
 14 99  1  0  0  0
 15100  1  0  0  0
 16 17  2  0  0  0
 16 21  1  0  0  0
 16 31  1  0  0  0
 17 18  1  0  0  0
 17101  1  0  0  0
 18 19  2  0  0  0
 18102  1  0  0  0
 19 20  1  0  0  0
 19 24  1  0  0  0
 20 21  2  0  0  0
 20103  1  0  0  0
 21 23  1  0  0  0
 22 28  1  0  0  0
 22 32  2  0  0  0
 26 27  1  0  0  0
 28104  1  0  0  0
 28105  1  0  0  0
 29106  1  0  0  0
 29107  1  0  0  0
 33 34  1  0  0  0
 33 66  1  0  0  0
 33 70  2  0  0  0
 34 36  1  0  0  0
 34 59  1  0  0  0
 34108  1  0  0  0
 35 44  2  0  0  0
 35 45  1  0  0  0
 35 68  1  0  0  0
 36 56  1  0  0  0
 36109  1  0  0  0
 37 39  1  0  0  0
 37 47  1  0  0  0
 37 66  1  0  0  0
 37110  1  0  0  0
 38 43  2  0  0  0
 38 46  1  0  0  0
 38 47  1  0  0  0
 39 64  1  0  0  0
 39 67  2  0  0  0
 40 52  1  0  0  0
 40 53  2  0  0  0
 40 58  1  0  0  0
 41111  1  0  0  0
 41112  1  0  0  0
 41113  1  0  0  0
 41 48  1  0  0  0
 42 43  1  0  0  0
 42 66  1  0  0  0
 42114  1  0  0  0
 42115  1  0  0  0
 43 44  1  0  0  0
 44116  1  0  0  0
 45 46  2  0  0  0
 45117  1  0  0  0
 46118  1  0  0  0
 47119  1  0  0  0
 47120  1  0  0  0
 48 56  1  0  0  0
 48 65  1  0  0  0
 48121  1  0  0  0
 49 50  1  0  0  0
 49 53  1  0  0  0
 49 64  1  0  0  0
 49122  1  0  0  0
 50 51  1  0  0  0
 50123  1  0  0  0
 50124  1  0  0  0
 51 52  1  0  0  0
 51125  1  0  0  0
 51126  1  0  0  0
 52127  1  0  0  0
 52128  1  0  0  0
 53 54  1  0  0  0
 54 55  2  0  0  0
 54129  1  0  0  0
 55 57  1  0  0  0
 55130  1  0  0  0
 56 69  2  0  0  0
 57 58  2  0  0  0
 57131  1  0  0  0
 58132  1  0  0  0
 59 60  1  0  0  0
 59 61  1  0  0  0
 59 62  1  0  0  0
 60133  1  0  0  0
 60134  1  0  0  0
 60135  1  0  0  0
 61136  1  0  0  0
 61137  1  0  0  0
 61138  1  0  0  0
 62139  1  0  0  0
 62140  1  0  0  0
 62141  1  0  0  0
 63 65  1  0  0  0
 63142  1  0  0  0
 63143  1  0  0  0
 63144  1  0  0  0
 64145  1  0  0  0
 65146  1  0  0  0
 68 83  1  0  0  0
 71 72  2  0  0  0
 71 74  1  0  0  0
 71147  1  0  0  0
 72 73  1  0  0  0
 72 80  1  0  0  0
 73 75  2  0  0  0
 73 84  1  0  0  0
 74 86  2  0  0  0
 74 81  1  0  0  0
 75 86  1  0  0  0
 75 87  1  0  0  0
 76 79  1  0  0  0
 76 80  1  0  0  0
 76148  1  0  0  0
 76149  1  0  0  0
 77 78  1  0  0  0
 77 81  1  0  0  0
 77150  1  0  0  0
 77151  1  0  0  0
 78 81  1  0  0  0
 78152  1  0  0  0
 78153  1  0  0  0
 79 83  1  0  0  0
 79154  1  0  0  0
 79155  1  0  0  0
 80 82  1  0  0  0
 80156  1  0  0  0
 81157  1  0  0  0
 82 83  1  0  0  0
 82 85  1  0  0  0
 82158  1  0  0  0
 83159  1  0  0  0
 84160  1  0  0  0
 84161  1  0  0  0
 84162  1  0  0  0
 85163  1  0  0  0
 85164  1  0  0  0
 85165  1  0  0  0
 87166  1  0  0  0
M  ISO  4   1 100  68 101  83 101  87 100
M  END
> <chiral flag>
0

> <version>
0

> <s_m_source_file>
/data/baiqing/PycharmProjects/Reinvent-master-3.2/result/LINK_invent/BTK/process_docking_weight1_custom_sum_contain_oxygen_bond_distance_aromatic_linkinvent_7_9_3/rearranged_h_0172.sdf

> <i_m_source_file_index>
90

> <r_mmod_Potential_Energy-OPLS-2005>
505.754425048828

> <r_mmod_Stretch_Energy-OPLS-2005>
302.51318359375

> <r_mmod_Bend_Energy-OPLS-2005>
311.398376464844

> <r_mmod_Torsional_Energy-OPLS-2005>
277.960571289062

> <r_mmod_Improper_Torsional_Energy-OPLS-2005>
4.47268915176392

> <r_mmod_Van_der_Waal_Energy-OPLS-2005>
118.171401977539

> <r_mmod_Electrostatic_Energy-OPLS-2005>
-523.0556640625

> <r_mmod_Solvation_Energy-OPLS-2005>
-231.548324584961

> <b_mmod_Minimization_Converged-OPLS-2005>
0

> <r_mmod_RMS_Derivative-OPLS-2005>
1.28627336025238

$$$$
90
                    3D
 Structure written by MMmdl.
166176  0  0  1  0            999 V2000
  -30.7248  -14.7272   20.4741 C   0  0  0  0  0  0
  -30.4035  -12.4669   19.4620 C   0  0  0  0  0  0
  -29.4886  -12.4993   18.2239 C   0  0  0  0  0  0
  -28.0207  -12.3260   18.6501 C   0  0  0  0  0  0
  -27.6311  -13.2409   19.8426 C   0  0  2  0  0  0
  -28.6872  -13.2206   20.9709 C   0  0  0  0  0  0
  -25.2462  -13.8217   20.5722 C   0  0  0  0  0  0
  -24.1772  -13.0444   20.9231 C   0  0  0  0  0  0
  -24.6387  -11.6930   20.8776 C   0  0  0  0  0  0
  -23.9070  -10.4293   21.0418 C   0  0  0  0  0  0
  -24.3622   -9.4202   21.9190 C   0  0  0  0  0  0
  -23.6297   -8.2238   22.0754 C   0  0  0  0  0  0
  -22.4278   -8.0280   21.3547 C   0  0  0  0  0  0
  -21.9914   -9.0254   20.4649 C   0  0  0  0  0  0
  -22.7245  -10.2133   20.3061 C   0  0  0  0  0  0
  -21.6850   -6.0733   22.5279 C   0  0  0  0  0  0
  -21.4014   -6.5638   23.8212 C   0  0  0  0  0  0
  -21.3660   -5.6792   24.9175 C   0  0  0  0  0  0
  -21.6043   -4.3055   24.7226 C   0  0  0  0  0  0
  -21.8817   -3.8146   23.4347 C   0  0  0  0  0  0
  -21.9191   -4.6961   22.3405 C   0  0  0  0  0  0
  -22.7790  -13.5215   21.1876 C   0  0  0  0  0  0
  -22.1658   -4.2148   21.0980 F   0  0  0  0  0  0
  -21.5630   -3.4539   25.7737 F   0  0  0  0  0  0
  -29.9695  -13.5756   20.3527 N   0  0  0  0  0  0
  -26.2901  -12.9450   20.3316 N   0  0  0  0  0  0
  -25.9325  -11.6579   20.5801 N   0  0  0  0  0  0
  -22.0442  -12.8210   22.0439 N   0  0  0  0  0  0
  -25.4098  -15.1940   20.4103 N   0  0  0  0  0  0
  -31.9313  -14.6187   20.2382 O   0  0  0  0  0  0
  -21.6643   -6.8881   21.4242 O   0  0  0  0  0  0
  -22.3475  -14.5517   20.6716 O   0  0  0  0  0  0
  -24.6336  -31.8578   23.2039 C   0  0  0  0  0  0
  -25.9163  -32.4762   23.8368 C   0  0  1  0  0  0
  -27.1939  -27.2500   20.1146 C   0  0  0  0  0  0
  -25.5962  -33.8566   24.2282 N   0  0  0  0  0  0
  -23.4287  -30.4882   21.5488 C   0  0  2  0  0  0
  -24.8703  -28.9510   20.1057 C   0  0  0  0  0  0
  -22.7513  -29.4625   22.4909 C   0  0  0  0  0  0
  -18.0298  -28.1390   22.8480 C   0  0  0  0  0  0
  -24.1491  -36.7283   23.2638 C   0  0  0  0  0  0
  -25.9809  -30.7641   21.3919 C   0  0  0  0  0  0
  -26.0473  -29.3912   20.7253 C   0  0  0  0  0  0
  -27.2122  -28.5518   20.7271 C   0  0  0  0  0  0
  -25.9961  -26.9117   19.4346 C   0  0  0  0  0  0
  -24.8513  -27.7189   19.4494 C   0  0  0  0  0  0
  -23.6451  -29.8390   20.1602 C   0  0  0  0  0  0
  -25.4115  -36.3071   24.0329 C   0  0  1  0  0  0
  -20.5905  -28.3705   23.1255 C   0  0  2  0  0  0
  -20.6786  -26.9422   22.5400 C   0  0  0  0  0  0
  -19.5759  -26.6384   21.5210 C   0  0  0  0  0  0
  -18.1939  -26.7931   22.1622 C   0  0  0  0  0  0
  -19.1552  -28.8866   23.2863 C   0  0  0  0  0  0
  -18.9468  -30.1464   23.8886 C   0  0  0  0  0  0
  -17.6466  -30.6589   24.0558 C   0  0  0  0  0  0
  -25.9061  -34.9442   23.5100 C   0  0  0  0  0  0
  -16.5357  -29.9082   23.6336 C   0  0  0  0  0  0
  -16.7282  -28.6501   23.0354 C   0  0  0  0  0  0
  -26.4515  -31.6583   25.0760 C   0  0  0  0  0  0
  -25.3722  -31.3755   26.1472 C   0  0  0  0  0  0
  -27.0357  -30.2980   24.6285 C   0  0  0  0  0  0
  -27.6071  -32.4319   25.7532 C   0  0  0  0  0  0
  -27.5584  -37.1795   24.8458 C   0  0  0  0  0  0
  -21.4220  -29.3055   22.3645 N   0  0  0  0  0  0
  -26.4285  -37.3772   23.9418 N   0  0  0  0  0  0
  -24.7006  -31.0535   22.1035 N   0  0  0  0  0  0
  -23.4210  -28.8143   23.2992 O   0  0  0  0  0  0
  -28.2374  -26.2862   20.2026 O   0  0  0  0  0  0
  -26.5619  -34.8910   22.4661 O   0  0  0  0  0  0
  -23.5481  -32.1414   23.7321 O   0  0  0  0  0  0
  -28.8693  -21.2535   19.4742 C   0  0  0  0  0  0
  -29.3100  -20.7202   20.7097 C   0  0  0  0  0  0
  -29.4444  -21.7097   21.7454 C   0  0  0  0  0  0
  -29.0294  -23.0782   21.5159 C   0  0  0  0  0  0
  -28.5974  -23.5056   20.2290 C   0  0  0  0  0  0
  -31.1110  -22.1091   23.7611 C   0  0  0  0  0  0
  -31.3883  -20.7250   23.2512 C   0  0  0  0  0  0
  -28.5338  -18.0893   20.8673 C   0  0  0  0  0  0
  -30.6577  -18.5887   19.8561 C   0  0  0  0  0  0
  -28.9697  -16.5742   21.1482 C   0  0  0  0  0  0
  -31.1736  -17.1458   20.1893 C   0  0  0  0  0  0
  -29.6687  -19.1620   20.8856 C   0  0  0  0  0  0
  -29.9995  -21.3164   23.0957 C   0  0  0  0  0  0
  -28.9842  -24.0885   22.6596 C   0  0  0  0  0  0
  -27.8289  -24.8664   19.8927 C   0  0  0  0  0  0
  -28.5496  -22.5635   19.2449 N   0  0  0  0  0  0
  -30.1959  -16.0374   20.4761 N   0  0  0  0  0  0
  -31.4448  -12.5443   19.1440 H   0  0  0  0  0  0
  -30.3274  -11.5067   19.9751 H   0  0  0  0  0  0
  -29.7707  -11.7133   17.5221 H   0  0  0  0  0  0
  -29.6118  -13.4456   17.6947 H   0  0  0  0  0  0
  -27.8834  -11.2800   18.9262 H   0  0  0  0  0  0
  -27.3566  -12.5044   17.8033 H   0  0  0  0  0  0
  -27.6085  -14.2508   19.4345 H   0  0  0  0  0  0
  -28.7421  -12.2343   21.4337 H   0  0  0  0  0  0
  -28.4301  -13.9113   21.7735 H   0  0  0  0  0  0
  -25.2761   -9.5681   22.4775 H   0  0  0  0  0  0
  -24.0005   -7.4624   22.7466 H   0  0  0  0  0  0
  -21.0847   -8.8777   19.8955 H   0  0  0  0  0  0
  -22.3703  -10.9676   19.6177 H   0  0  0  0  0  0
  -21.2008   -7.6147   23.9720 H   0  0  0  0  0  0
  -21.1485   -6.0520   25.9080 H   0  0  0  0  0  0
  -22.0596   -2.7608   23.2846 H   0  0  0  0  0  0
  -22.4065  -11.9883   22.4841 H   0  0  0  0  0  0
  -21.1056  -13.1231   22.2634 H   0  0  0  0  0  0
  -24.6383  -15.8429   20.5217 H   0  0  0  0  0  0
  -26.2554  -15.6379   20.0779 H   0  0  0  0  0  0
  -26.7230  -32.5394   23.1106 H   0  0  0  0  0  0
  -25.0108  -33.9710   25.0426 H   0  0  0  0  0  0
  -22.7256  -31.3124   21.4108 H   0  0  0  0  0  0
  -23.3757  -35.9608   23.3278 H   0  0  0  0  0  0
  -24.3593  -36.8927   22.2059 H   0  0  0  0  0  0
  -23.7229  -37.6475   23.6669 H   0  0  0  0  0  0
  -26.1302  -31.5287   20.6284 H   0  0  0  0  0  0
  -26.8548  -30.8015   22.0301 H   0  0  0  0  0  0
  -28.1038  -28.8754   21.2458 H   0  0  0  0  0  0
  -25.8757  -25.9902   18.8878 H   0  0  0  0  0  0
  -23.9558  -27.3833   18.9439 H   0  0  0  0  0  0
  -23.7719  -30.6233   19.4130 H   0  0  0  0  0  0
  -22.7611  -29.2790   19.8496 H   0  0  0  0  0  0
  -25.1293  -36.1921   25.0819 H   0  0  0  0  0  0
  -20.9997  -28.3283   24.1376 H   0  0  0  0  0  0
  -20.5690  -26.2321   23.3609 H   0  0  0  0  0  0
  -21.6652  -26.7446   22.1193 H   0  0  0  0  0  0
  -19.6921  -25.6291   21.1253 H   0  0  0  0  0  0
  -19.6698  -27.3184   20.6731 H   0  0  0  0  0  0
  -17.4212  -26.6678   21.4023 H   0  0  0  0  0  0
  -18.0336  -26.0076   22.9022 H   0  0  0  0  0  0
  -19.7944  -30.7282   24.2253 H   0  0  0  0  0  0
  -17.5021  -31.6272   24.5154 H   0  0  0  0  0  0
  -15.5357  -30.2977   23.7674 H   0  0  0  0  0  0
  -15.8681  -28.0817   22.7074 H   0  0  0  0  0  0
  -24.5890  -30.7116   25.7794 H   0  0  0  0  0  0
  -24.8928  -32.2936   26.4876 H   0  0  0  0  0  0
  -25.8021  -30.8936   27.0262 H   0  0  0  0  0  0
  -26.2957  -29.6725   24.1278 H   0  0  0  0  0  0
  -27.3970  -29.7253   25.4838 H   0  0  0  0  0  0
  -27.8872  -30.4224   23.9589 H   0  0  0  0  0  0
  -27.2684  -33.3625   26.2099 H   0  0  0  0  0  0
  -28.3892  -32.6868   25.0366 H   0  0  0  0  0  0
  -28.0725  -31.8449   26.5462 H   0  0  0  0  0  0
  -28.2573  -38.0118   24.7533 H   0  0  0  0  0  0
  -28.1108  -36.2652   24.6237 H   0  0  0  0  0  0
  -27.2312  -37.1381   25.8860 H   0  0  0  0  0  0
  -20.9402  -29.8799   21.6871 H   0  0  0  0  0  0
  -26.0162  -38.2844   24.1426 H   0  0  0  0  0  0
  -28.7604  -20.5989   18.6221 H   0  0  0  0  0  0
  -31.5705  -22.9266   23.2093 H   0  0  0  0  0  0
  -31.0642  -22.2387   24.8405 H   0  0  0  0  0  0
  -31.5250  -19.9439   23.9965 H   0  0  0  0  0  0
  -32.0072  -20.6375   22.3603 H   0  0  0  0  0  0
  -27.7748  -18.3680   21.6000 H   0  0  0  0  0  0
  -28.0298  -18.1314   19.9004 H   0  0  0  0  0  0
  -30.2070  -18.5904   18.8625 H   0  0  0  0  0  0
  -31.5223  -19.2506   19.7893 H   0  0  0  0  0  0
  -28.1212  -15.9434   20.9001 H   0  0  0  0  0  0
  -29.1246  -16.4545   22.2214 H   0  0  0  0  0  0
  -31.8377  -17.2171   21.0532 H   0  0  0  0  0  0
  -31.8119  -16.8650   19.3490 H   0  0  0  0  0  0
  -30.1382  -19.0439   21.8569 H   0  0  0  0  0  0
  -29.2122  -20.9207   23.7347 H   0  0  0  0  0  0
  -28.7783  -23.6100   23.6169 H   0  0  0  0  0  0
  -28.1982  -24.8299   22.5185 H   0  0  0  0  0  0
  -29.9309  -24.6237   22.7356 H   0  0  0  0  0  0
  -26.8607  -24.6904   20.3647 H   0  0  0  0  0  0
  -27.6644  -24.8365   18.8142 H   0  0  0  0  0  0
  1 25  1  0  0  0
  1 30  2  0  0  0
  1 87  1  0  0  0
  2  3  1  0  0  0
  2 25  1  0  0  0
  2 88  1  0  0  0
  2 89  1  0  0  0
  3  4  1  0  0  0
  3 90  1  0  0  0
  3 91  1  0  0  0
  4  5  1  0  0  0
  4 92  1  0  0  0
  4 93  1  0  0  0
  5  6  1  0  0  0
  5 26  1  0  0  0
  5 94  1  0  0  0
  6 25  1  0  0  0
  6 95  1  0  0  0
  6 96  1  0  0  0
  7  8  2  0  0  0
  7 26  1  0  0  0
  7 29  1  0  0  0
  8  9  1  0  0  0
  8 22  1  0  0  0
  9 10  1  0  0  0
  9 27  2  0  0  0
 10 11  2  0  0  0
 10 15  1  0  0  0
 11 12  1  0  0  0
 11 97  1  0  0  0
 12 13  2  0  0  0
 12 98  1  0  0  0
 13 14  1  0  0  0
 13 31  1  0  0  0
 14 15  2  0  0  0
 14 99  1  0  0  0
 15100  1  0  0  0
 16 17  2  0  0  0
 16 21  1  0  0  0
 16 31  1  0  0  0
 17 18  1  0  0  0
 17101  1  0  0  0
 18 19  2  0  0  0
 18102  1  0  0  0
 19 20  1  0  0  0
 19 24  1  0  0  0
 20 21  2  0  0  0
 20103  1  0  0  0
 21 23  1  0  0  0
 22 28  1  0  0  0
 22 32  2  0  0  0
 26 27  1  0  0  0
 28104  1  0  0  0
 28105  1  0  0  0
 29106  1  0  0  0
 29107  1  0  0  0
 33 34  1  0  0  0
 33 66  1  0  0  0
 33 70  2  0  0  0
 34 36  1  0  0  0
 34 59  1  0  0  0
 34108  1  0  0  0
 35 44  2  0  0  0
 35 45  1  0  0  0
 35 68  1  0  0  0
 36 56  1  0  0  0
 36109  1  0  0  0
 37 39  1  0  0  0
 37 47  1  0  0  0
 37 66  1  0  0  0
 37110  1  0  0  0
 38 43  2  0  0  0
 38 46  1  0  0  0
 38 47  1  0  0  0
 39 64  1  0  0  0
 39 67  2  0  0  0
 40 52  1  0  0  0
 40 53  2  0  0  0
 40 58  1  0  0  0
 41111  1  0  0  0
 41112  1  0  0  0
 41113  1  0  0  0
 41 48  1  0  0  0
 42 43  1  0  0  0
 42 66  1  0  0  0
 42114  1  0  0  0
 42115  1  0  0  0
 43 44  1  0  0  0
 44116  1  0  0  0
 45 46  2  0  0  0
 45117  1  0  0  0
 46118  1  0  0  0
 47119  1  0  0  0
 47120  1  0  0  0
 48 56  1  0  0  0
 48 65  1  0  0  0
 48121  1  0  0  0
 49 50  1  0  0  0
 49 53  1  0  0  0
 49 64  1  0  0  0
 49122  1  0  0  0
 50 51  1  0  0  0
 50123  1  0  0  0
 50124  1  0  0  0
 51 52  1  0  0  0
 51125  1  0  0  0
 51126  1  0  0  0
 52127  1  0  0  0
 52128  1  0  0  0
 53 54  1  0  0  0
 54 55  2  0  0  0
 54129  1  0  0  0
 55 57  1  0  0  0
 55130  1  0  0  0
 56 69  2  0  0  0
 57 58  2  0  0  0
 57131  1  0  0  0
 58132  1  0  0  0
 59 60  1  0  0  0
 59 61  1  0  0  0
 59 62  1  0  0  0
 60133  1  0  0  0
 60134  1  0  0  0
 60135  1  0  0  0
 61136  1  0  0  0
 61137  1  0  0  0
 61138  1  0  0  0
 62139  1  0  0  0
 62140  1  0  0  0
 62141  1  0  0  0
 63 65  1  0  0  0
 63142  1  0  0  0
 63143  1  0  0  0
 63144  1  0  0  0
 64145  1  0  0  0
 65146  1  0  0  0
 68 85  1  0  0  0
 71 72  2  0  0  0
 71 86  1  0  0  0
 71147  1  0  0  0
 72 73  1  0  0  0
 72 82  1  0  0  0
 73 74  2  0  0  0
 73 83  1  0  0  0
 74 75  1  0  0  0
 74 84  1  0  0  0
 75 85  1  0  0  0
 75 86  2  0  0  0
 76 77  1  0  0  0
 76 83  1  0  0  0
 76148  1  0  0  0
 76149  1  0  0  0
 77 83  1  0  0  0
 77150  1  0  0  0
 77151  1  0  0  0
 78 80  1  0  0  0
 78 82  1  0  0  0
 78152  1  0  0  0
 78153  1  0  0  0
 79 81  1  0  0  0
 79 82  1  0  0  0
 79154  1  0  0  0
 79155  1  0  0  0
 80 87  1  0  0  0
 80156  1  0  0  0
 80157  1  0  0  0
 81 87  1  0  0  0
 81158  1  0  0  0
 81159  1  0  0  0
 82160  1  0  0  0
 83161  1  0  0  0
 84162  1  0  0  0
 84163  1  0  0  0
 84164  1  0  0  0
 85165  1  0  0  0
 85166  1  0  0  0
M  ISO  4   1 100  68 101  85 101  87 100
M  END
> <chiral flag>
0

> <version>
0

> <s_m_source_file>
/data/baiqing/PycharmProjects/Reinvent-master-3.2/result/LINK_invent/BTK/process_docking_weight1_custom_sum_contain_oxygen_bond_distance_aromatic_linkinvent_7_9_3/rearranged_h_0172.sdf

> <i_m_source_file_index>
91

> <r_mmod_Potential_Energy-OPLS-2005>
356.696350097656

> <r_mmod_Stretch_Energy-OPLS-2005>
125.324829101562

> <r_mmod_Bend_Energy-OPLS-2005>
221.890640258789

> <r_mmod_Torsional_Energy-OPLS-2005>
339.224212646484

> <r_mmod_Improper_Torsional_Energy-OPLS-2005>
13.6113290786743

> <r_mmod_Van_der_Waal_Energy-OPLS-2005>
169.213653564453

> <r_mmod_Electrostatic_Energy-OPLS-2005>
-403.857177734375

> <r_mmod_Solvation_Energy-OPLS-2005>
-212.201919555664

> <b_mmod_Minimization_Converged-OPLS-2005>
0

> <r_mmod_RMS_Derivative-OPLS-2005>
0.769291520118713

$$$$
91
                    3D
 Structure written by MMmdl.
160169  0  0  1  0            999 V2000
  -30.6091  -14.7742   20.4945 C   0  0  0  0  0  0
  -30.4279  -12.4809   19.4860 C   0  0  0  0  0  0
  -29.5109  -12.5245   18.2436 C   0  0  0  0  0  0
  -28.0367  -12.3450   18.6495 C   0  0  0  0  0  0
  -27.6407  -13.2365   19.8565 C   0  0  2  0  0  0
  -28.6801  -13.1765   20.9968 C   0  0  0  0  0  0
  -25.2521  -13.8204   20.5713 C   0  0  0  0  0  0
  -24.1808  -13.0444   20.9189 C   0  0  0  0  0  0
  -24.6394  -11.6920   20.8727 C   0  0  0  0  0  0
  -23.9075  -10.4295   21.0408 C   0  0  0  0  0  0
  -24.3634   -9.4217   21.9179 C   0  0  0  0  0  0
  -23.6308   -8.2252   22.0753 C   0  0  0  0  0  0
  -22.4292   -8.0287   21.3546 C   0  0  0  0  0  0
  -21.9928   -9.0261   20.4648 C   0  0  0  0  0  0
  -22.7249  -10.2139   20.3056 C   0  0  0  0  0  0
  -21.6868   -6.0752   22.5286 C   0  0  0  0  0  0
  -21.4010   -6.5648   23.8217 C   0  0  0  0  0  0
  -21.3656   -5.6798   24.9169 C   0  0  0  0  0  0
  -21.6057   -4.3063   24.7225 C   0  0  0  0  0  0
  -21.8814   -3.8158   23.4338 C   0  0  0  0  0  0
  -21.9194   -4.6980   22.3396 C   0  0  0  0  0  0
  -22.7834  -13.5232   21.1821 C   0  0  0  0  0  0
  -22.1667   -4.2167   21.0980 F   0  0  0  0  0  0
  -21.5626   -3.4542   25.7729 F   0  0  0  0  0  0
  -29.9783  -13.5454   20.4196 N   0  0  0  0  0  0
  -26.2941  -12.9415   20.3297 N   0  0  0  0  0  0
  -25.9329  -11.6550   20.5752 N   0  0  0  0  0  0
  -22.0493  -12.8231   22.0400 N   0  0  0  0  0  0
  -25.4241  -15.1927   20.4157 N   0  0  0  0  0  0
  -31.7725  -14.8677   20.0899 O   0  0  0  0  0  0
  -21.6650   -6.8896   21.4248 O   0  0  0  0  0  0
  -22.3515  -14.5536   20.6668 O   0  0  0  0  0  0
  -24.6371  -31.8537   23.2012 C   0  0  0  0  0  0
  -25.9188  -32.4733   23.8342 C   0  0  1  0  0  0
  -27.1834  -27.1881   20.1376 C   0  0  0  0  0  0
  -25.5975  -33.8536   24.2256 N   0  0  0  0  0  0
  -23.4345  -30.4818   21.5475 C   0  0  2  0  0  0
  -24.8776  -28.9327   20.1113 C   0  0  0  0  0  0
  -22.7518  -29.4608   22.4902 C   0  0  0  0  0  0
  -18.0296  -28.1408   22.8470 C   0  0  0  0  0  0
  -24.1494  -36.7269   23.2633 C   0  0  0  0  0  0
  -25.9905  -30.7348   21.4054 C   0  0  0  0  0  0
  -26.0511  -29.3543   20.7477 C   0  0  0  0  0  0
  -27.2041  -28.4882   20.7680 C   0  0  0  0  0  0
  -26.0272  -26.9271   19.3741 C   0  0  0  0  0  0
  -24.8727  -27.7239   19.4114 C   0  0  0  0  0  0
  -23.6532  -29.8259   20.1617 C   0  0  0  0  0  0
  -25.4120  -36.3054   24.0322 C   0  0  1  0  0  0
  -20.5902  -28.3717   23.1243 C   0  0  2  0  0  0
  -20.6785  -26.9429   22.5394 C   0  0  0  0  0  0
  -19.5753  -26.6392   21.5205 C   0  0  0  0  0  0
  -18.1933  -26.7945   22.1618 C   0  0  0  0  0  0
  -19.1551  -28.8884   23.2846 C   0  0  0  0  0  0
  -18.9473  -30.1481   23.8861 C   0  0  0  0  0  0
  -17.6478  -30.6595   24.0573 C   0  0  0  0  0  0
  -25.9074  -34.9421   23.5090 C   0  0  0  0  0  0
  -16.5362  -29.9088   23.6351 C   0  0  0  0  0  0
  -16.7287  -28.6515   23.0347 C   0  0  0  0  0  0
  -26.4529  -31.6565   25.0753 C   0  0  0  0  0  0
  -25.3722  -31.3751   26.1452 C   0  0  0  0  0  0
  -27.0409  -30.2962   24.6340 C   0  0  0  0  0  0
  -27.6078  -32.4321   25.7515 C   0  0  0  0  0  0
  -27.5577  -37.1780   24.8461 C   0  0  0  0  0  0
  -21.4225  -29.3056   22.3628 N   0  0  0  0  0  0
  -26.4296  -37.3757   23.9407 N   0  0  0  0  0  0
  -24.7068  -31.0432   22.1052 N   0  0  0  0  0  0
  -23.4190  -28.8107   23.2993 O   0  0  0  0  0  0
  -28.2002  -26.1795   20.2003 O   0  0  0  0  0  0
  -26.5633  -34.8904   22.4649 O   0  0  0  0  0  0
  -23.5505  -32.1411   23.7261 O   0  0  0  0  0  0
  -30.3570  -21.4452   21.8905 C   0  0  0  0  0  0
  -30.4869  -22.7757   22.3324 C   0  0  0  0  0  0
  -29.5063  -21.1851   20.8150 C   0  0  0  0  0  0
  -28.9345  -23.5436   20.8081 C   0  0  0  0  0  0
  -29.9989  -18.0544   22.0932 C   0  0  0  0  0  0
  -29.8681  -16.4937   22.1562 C   0  0  0  0  0  0
  -29.7553  -17.1826   19.9340 C   0  0  0  0  0  0
  -29.3029  -18.4553   20.7931 C   0  0  2  0  0  0
  -31.4390  -23.1408   23.4528 C   0  0  0  0  0  0
  -26.6311  -24.0457   19.8418 C   0  0  0  0  0  0
  -27.8366  -24.7100   20.5566 C   0  0  2  0  0  0
  -29.7879  -23.7973   21.7972 N   0  0  0  0  0  0
  -28.8187  -22.2651   20.2825 N   0  0  0  0  0  0
  -29.8708  -15.9301   20.7903 N   0  0  0  0  0  0
  -29.4672  -19.8657   20.2057 N   0  0  0  0  0  0
  -31.4694  -12.6047   19.1865 H   0  0  0  0  0  0
  -30.3738  -11.5035   19.9679 H   0  0  0  0  0  0
  -29.7995  -11.7532   17.5276 H   0  0  0  0  0  0
  -29.6360  -13.4800   17.7329 H   0  0  0  0  0  0
  -27.8861  -11.2926   18.8944 H   0  0  0  0  0  0
  -27.3862  -12.5534   17.7987 H   0  0  0  0  0  0
  -27.6343  -14.2596   19.4808 H   0  0  0  0  0  0
  -28.7206  -12.1782   21.4351 H   0  0  0  0  0  0
  -28.4014  -13.8553   21.8023 H   0  0  0  0  0  0
  -25.2783   -9.5695   22.4743 H   0  0  0  0  0  0
  -24.0025   -7.4652   22.7464 H   0  0  0  0  0  0
  -21.0868   -8.8777   19.8949 H   0  0  0  0  0  0
  -22.3713  -10.9677   19.6164 H   0  0  0  0  0  0
  -21.1998   -7.6157   23.9721 H   0  0  0  0  0  0
  -21.1486   -6.0529   25.9076 H   0  0  0  0  0  0
  -22.0595   -2.7625   23.2835 H   0  0  0  0  0  0
  -22.4137  -11.9914   22.4804 H   0  0  0  0  0  0
  -21.1100  -13.1239   22.2571 H   0  0  0  0  0  0
  -24.6635  -15.8524   20.5316 H   0  0  0  0  0  0
  -26.2889  -15.6318   20.1266 H   0  0  0  0  0  0
  -26.7237  -32.5337   23.1050 H   0  0  0  0  0  0
  -25.0110  -33.9671   25.0400 H   0  0  0  0  0  0
  -22.7346  -31.3083   21.4050 H   0  0  0  0  0  0
  -23.3761  -35.9595   23.3288 H   0  0  0  0  0  0
  -24.3589  -36.8905   22.2049 H   0  0  0  0  0  0
  -23.7249  -37.6467   23.6668 H   0  0  0  0  0  0
  -26.1545  -31.4929   20.6377 H   0  0  0  0  0  0
  -26.8592  -30.7718   22.0493 H   0  0  0  0  0  0
  -28.0843  -28.7908   21.3164 H   0  0  0  0  0  0
  -25.9867  -26.0849   18.7068 H   0  0  0  0  0  0
  -23.9940  -27.4216   18.8582 H   0  0  0  0  0  0
  -23.7829  -30.6093   19.4139 H   0  0  0  0  0  0
  -22.7677  -29.2680   19.8497 H   0  0  0  0  0  0
  -25.1299  -36.1887   25.0818 H   0  0  0  0  0  0
  -21.0002  -28.3312   24.1361 H   0  0  0  0  0  0
  -20.5701  -26.2331   23.3609 H   0  0  0  0  0  0
  -21.6645  -26.7454   22.1170 H   0  0  0  0  0  0
  -19.6920  -25.6299   21.1243 H   0  0  0  0  0  0
  -19.6692  -27.3190   20.6727 H   0  0  0  0  0  0
  -17.4203  -26.6698   21.4023 H   0  0  0  0  0  0
  -18.0330  -26.0098   22.9025 H   0  0  0  0  0  0
  -19.7956  -30.7318   24.2192 H   0  0  0  0  0  0
  -17.5030  -31.6265   24.5181 H   0  0  0  0  0  0
  -15.5363  -30.2974   23.7710 H   0  0  0  0  0  0
  -15.8691  -28.0845   22.7056 H   0  0  0  0  0  0
  -24.5902  -30.7105   25.7759 H   0  0  0  0  0  0
  -24.8912  -32.2938   26.4817 H   0  0  0  0  0  0
  -25.7997  -30.8949   27.0263 H   0  0  0  0  0  0
  -26.3048  -29.6663   24.1338 H   0  0  0  0  0  0
  -27.4012  -29.7272   25.4917 H   0  0  0  0  0  0
  -27.8955  -30.4196   23.9687 H   0  0  0  0  0  0
  -27.2697  -33.3636   26.2056 H   0  0  0  0  0  0
  -28.3893  -32.6849   25.0342 H   0  0  0  0  0  0
  -28.0746  -31.8476   26.5451 H   0  0  0  0  0  0
  -28.2578  -38.0089   24.7522 H   0  0  0  0  0  0
  -28.1093  -36.2622   24.6273 H   0  0  0  0  0  0
  -27.2299  -37.1405   25.8865 H   0  0  0  0  0  0
  -20.9421  -29.8790   21.6836 H   0  0  0  0  0  0
  -26.0165  -38.2829   24.1409 H   0  0  0  0  0  0
  -30.9521  -20.6626   22.3350 H   0  0  0  0  0  0
  -31.0543  -18.3258   22.0632 H   0  0  0  0  0  0
  -29.5594  -18.5340   22.9683 H   0  0  0  0  0  0
  -28.9182  -16.2199   22.6193 H   0  0  0  0  0  0
  -30.6569  -16.0625   22.7758 H   0  0  0  0  0  0
  -30.7294  -17.3699   19.4799 H   0  0  0  0  0  0
  -29.0597  -17.0011   19.1126 H   0  0  0  0  0  0
  -28.2303  -18.3491   20.9738 H   0  0  0  0  0  0
  -32.4443  -23.2948   23.0606 H   0  0  0  0  0  0
  -31.4785  -22.3493   24.2017 H   0  0  0  0  0  0
  -31.1246  -24.0575   23.9504 H   0  0  0  0  0  0
  -25.6846  -24.5391   20.0475 H   0  0  0  0  0  0
  -26.4480  -23.0411   20.2224 H   0  0  0  0  0  0
  -26.7938  -23.9579   18.7673 H   0  0  0  0  0  0
  -27.4548  -24.8521   21.5688 H   0  0  0  0  0  0
  -29.0365  -19.9249   19.2897 H   0  0  0  0  0  0
  1 25  1  0  0  0
  1 30  2  0  0  0
  1 84  1  0  0  0
  2  3  1  0  0  0
  2 25  1  0  0  0
  2 86  1  0  0  0
  2 87  1  0  0  0
  3  4  1  0  0  0
  3 88  1  0  0  0
  3 89  1  0  0  0
  4  5  1  0  0  0
  4 90  1  0  0  0
  4 91  1  0  0  0
  5  6  1  0  0  0
  5 26  1  0  0  0
  5 92  1  0  0  0
  6 25  1  0  0  0
  6 93  1  0  0  0
  6 94  1  0  0  0
  7  8  2  0  0  0
  7 26  1  0  0  0
  7 29  1  0  0  0
  8  9  1  0  0  0
  8 22  1  0  0  0
  9 10  1  0  0  0
  9 27  2  0  0  0
 10 11  2  0  0  0
 10 15  1  0  0  0
 11 12  1  0  0  0
 11 95  1  0  0  0
 12 13  2  0  0  0
 12 96  1  0  0  0
 13 14  1  0  0  0
 13 31  1  0  0  0
 14 15  2  0  0  0
 14 97  1  0  0  0
 15 98  1  0  0  0
 16 17  2  0  0  0
 16 21  1  0  0  0
 16 31  1  0  0  0
 17 18  1  0  0  0
 17 99  1  0  0  0
 18 19  2  0  0  0
 18100  1  0  0  0
 19 20  1  0  0  0
 19 24  1  0  0  0
 20 21  2  0  0  0
 20101  1  0  0  0
 21 23  1  0  0  0
 22 28  1  0  0  0
 22 32  2  0  0  0
 26 27  1  0  0  0
 28102  1  0  0  0
 28103  1  0  0  0
 29104  1  0  0  0
 29105  1  0  0  0
 33 34  1  0  0  0
 33 66  1  0  0  0
 33 70  2  0  0  0
 34 36  1  0  0  0
 34 59  1  0  0  0
 34106  1  0  0  0
 35 44  2  0  0  0
 35 45  1  0  0  0
 35 68  1  0  0  0
 36 56  1  0  0  0
 36107  1  0  0  0
 37 39  1  0  0  0
 37 47  1  0  0  0
 37 66  1  0  0  0
 37108  1  0  0  0
 38 43  2  0  0  0
 38 46  1  0  0  0
 38 47  1  0  0  0
 39 64  1  0  0  0
 39 67  2  0  0  0
 40 52  1  0  0  0
 40 53  2  0  0  0
 40 58  1  0  0  0
 41109  1  0  0  0
 41110  1  0  0  0
 41111  1  0  0  0
 41 48  1  0  0  0
 42 43  1  0  0  0
 42 66  1  0  0  0
 42112  1  0  0  0
 42113  1  0  0  0
 43 44  1  0  0  0
 44114  1  0  0  0
 45 46  2  0  0  0
 45115  1  0  0  0
 46116  1  0  0  0
 47117  1  0  0  0
 47118  1  0  0  0
 48 56  1  0  0  0
 48 65  1  0  0  0
 48119  1  0  0  0
 49 50  1  0  0  0
 49 53  1  0  0  0
 49 64  1  0  0  0
 49120  1  0  0  0
 50 51  1  0  0  0
 50121  1  0  0  0
 50122  1  0  0  0
 51 52  1  0  0  0
 51123  1  0  0  0
 51124  1  0  0  0
 52125  1  0  0  0
 52126  1  0  0  0
 53 54  1  0  0  0
 54 55  2  0  0  0
 54127  1  0  0  0
 55 57  1  0  0  0
 55128  1  0  0  0
 56 69  2  0  0  0
 57 58  2  0  0  0
 57129  1  0  0  0
 58130  1  0  0  0
 59 60  1  0  0  0
 59 61  1  0  0  0
 59 62  1  0  0  0
 60131  1  0  0  0
 60132  1  0  0  0
 60133  1  0  0  0
 61134  1  0  0  0
 61135  1  0  0  0
 61136  1  0  0  0
 62137  1  0  0  0
 62138  1  0  0  0
 62139  1  0  0  0
 63 65  1  0  0  0
 63140  1  0  0  0
 63141  1  0  0  0
 63142  1  0  0  0
 64143  1  0  0  0
 65144  1  0  0  0
 68 81  1  0  0  0
 71 72  2  0  0  0
 71 73  1  0  0  0
 71145  1  0  0  0
 72 79  1  0  0  0
 72 82  1  0  0  0
 73 83  2  0  0  0
 73 85  1  0  0  0
 74 81  1  0  0  0
 74 82  2  0  0  0
 74 83  1  0  0  0
 75 76  1  0  0  0
 75 78  1  0  0  0
 75146  1  0  0  0
 75147  1  0  0  0
 76 84  1  0  0  0
 76148  1  0  0  0
 76149  1  0  0  0
 77 78  1  0  0  0
 77 84  1  0  0  0
 77150  1  0  0  0
 77151  1  0  0  0
 78 85  1  0  0  0
 78152  1  0  0  0
 79153  1  0  0  0
 79154  1  0  0  0
 79155  1  0  0  0
 80156  1  0  0  0
 80157  1  0  0  0
 80158  1  0  0  0
 80 81  1  0  0  0
 81159  1  0  0  0
 85160  1  0  0  0
M  ISO  4   1 100  68 101  81 101  84 100
M  END
> <chiral flag>
0

> <version>
0

> <s_m_source_file>
/data/baiqing/PycharmProjects/Reinvent-master-3.2/result/LINK_invent/BTK/process_docking_weight1_custom_sum_contain_oxygen_bond_distance_aromatic_linkinvent_7_9_3/rearranged_h_0172.sdf

> <i_m_source_file_index>
92

> <r_mmod_Potential_Energy-OPLS-2005>
18.3073844909668

> <r_mmod_Stretch_Energy-OPLS-2005>
155.12255859375

> <r_mmod_Bend_Energy-OPLS-2005>
258.201751708984

> <r_mmod_Torsional_Energy-OPLS-2005>
359.952941894531

> <r_mmod_Improper_Torsional_Energy-OPLS-2005>
14.4734573364258

> <r_mmod_Van_der_Waal_Energy-OPLS-2005>
154.348495483398

> <r_mmod_Electrostatic_Energy-OPLS-2005>
-821.652465820312

> <r_mmod_Solvation_Energy-OPLS-2005>
-226.824523925781

> <b_mmod_Minimization_Converged-OPLS-2005>
0

> <r_mmod_RMS_Derivative-OPLS-2005>
2.88061499595642

$$$$
92
                    3D
 Structure written by MMmdl.
160169  0  0  1  0            999 V2000
  -30.6683  -14.7242   20.5113 C   0  0  0  0  0  0
  -30.4075  -12.4531   19.4911 C   0  0  0  0  0  0
  -29.5135  -12.5151   18.2359 C   0  0  0  0  0  0
  -28.0410  -12.3016   18.6363 C   0  0  0  0  0  0
  -27.6286  -13.2049   19.8263 C   0  0  2  0  0  0
  -28.6650  -13.1872   20.9792 C   0  0  0  0  0  0
  -25.2452  -13.8085   20.5591 C   0  0  0  0  0  0
  -24.1769  -13.0386   20.9169 C   0  0  0  0  0  0
  -24.6331  -11.6855   20.8710 C   0  0  0  0  0  0
  -23.8996  -10.4261   21.0408 C   0  0  0  0  0  0
  -24.3585   -9.4204   21.9193 C   0  0  0  0  0  0
  -23.6304   -8.2212   22.0735 C   0  0  0  0  0  0
  -22.4298   -8.0229   21.3502 C   0  0  0  0  0  0
  -21.9907   -9.0201   20.4632 C   0  0  0  0  0  0
  -22.7180  -10.2097   20.3045 C   0  0  0  0  0  0
  -21.6859   -6.0708   22.5286 C   0  0  0  0  0  0
  -21.3997   -6.5619   23.8219 C   0  0  0  0  0  0
  -21.3669   -5.6776   24.9186 C   0  0  0  0  0  0
  -21.6055   -4.3036   24.7219 C   0  0  0  0  0  0
  -21.8823   -3.8111   23.4352 C   0  0  0  0  0  0
  -21.9180   -4.6930   22.3406 C   0  0  0  0  0  0
  -22.7827  -13.5214   21.1882 C   0  0  0  0  0  0
  -22.1669   -4.2117   21.0992 F   0  0  0  0  0  0
  -21.5649   -3.4532   25.7726 F   0  0  0  0  0  0
  -29.9691  -13.5380   20.4085 N   0  0  0  0  0  0
  -26.2839  -12.9249   20.3091 N   0  0  0  0  0  0
  -25.9223  -11.6418   20.5641 N   0  0  0  0  0  0
  -22.0464  -12.8241   22.0436 N   0  0  0  0  0  0
  -25.4064  -15.1828   20.4008 N   0  0  0  0  0  0
  -31.8470  -14.7331   20.1357 O   0  0  0  0  0  0
  -21.6634   -6.8846   21.4241 O   0  0  0  0  0  0
  -22.3561  -14.5546   20.6722 O   0  0  0  0  0  0
  -24.6288  -31.8601   23.2043 C   0  0  0  0  0  0
  -25.9134  -32.4787   23.8361 C   0  0  1  0  0  0
  -27.2262  -27.3090   20.0981 C   0  0  0  0  0  0
  -25.5959  -33.8591   24.2272 N   0  0  0  0  0  0
  -23.4239  -30.4864   21.5480 C   0  0  2  0  0  0
  -24.8683  -28.9473   20.1065 C   0  0  0  0  0  0
  -22.7505  -29.4629   22.4934 C   0  0  0  0  0  0
  -18.0295  -28.1404   22.8494 C   0  0  0  0  0  0
  -24.1486  -36.7312   23.2627 C   0  0  0  0  0  0
  -25.9689  -30.7831   21.3811 C   0  0  0  0  0  0
  -26.0397  -29.4124   20.7171 C   0  0  0  0  0  0
  -27.2183  -28.6050   20.7068 C   0  0  0  0  0  0
  -26.0293  -26.9122   19.4480 C   0  0  0  0  0  0
  -24.8661  -27.7031   19.4623 C   0  0  0  0  0  0
  -23.6387  -29.8307   20.1604 C   0  0  0  0  0  0
  -25.4102  -36.3085   24.0322 C   0  0  1  0  0  0
  -20.5900  -28.3708   23.1302 C   0  0  2  0  0  0
  -20.6792  -26.9437   22.5432 C   0  0  0  0  0  0
  -19.5763  -26.6388   21.5251 C   0  0  0  0  0  0
  -18.1934  -26.7947   22.1641 C   0  0  0  0  0  0
  -19.1542  -28.8875   23.2889 C   0  0  0  0  0  0
  -18.9453  -30.1472   23.8900 C   0  0  0  0  0  0
  -17.6449  -30.6599   24.0577 C   0  0  0  0  0  0
  -25.9060  -34.9458   23.5082 C   0  0  0  0  0  0
  -16.5348  -29.9098   23.6337 C   0  0  0  0  0  0
  -16.7274  -28.6534   23.0335 C   0  0  0  0  0  0
  -26.4464  -31.6626   25.0778 C   0  0  0  0  0  0
  -25.3653  -31.3868   26.1495 C   0  0  0  0  0  0
  -27.0244  -30.3002   24.6304 C   0  0  0  0  0  0
  -27.6019  -32.4346   25.7548 C   0  0  0  0  0  0
  -27.5584  -37.1802   24.8430 C   0  0  0  0  0  0
  -21.4220  -29.3040   22.3677 N   0  0  0  0  0  0
  -26.4267  -37.3799   23.9414 N   0  0  0  0  0  0
  -24.6926  -31.0604   22.1004 N   0  0  0  0  0  0
  -23.4241  -28.8162   23.3002 O   0  0  0  0  0  0
  -28.3375  -26.4396   20.1611 O   0  0  0  0  0  0
  -26.5616  -34.8932   22.4643 O   0  0  0  0  0  0
  -23.5443  -32.1398   23.7365 O   0  0  0  0  0  0
  -28.6448  -22.5035   20.3439 C   0  0  0  0  0  0
  -30.8500  -21.7779   20.9296 C   0  0  0  0  0  0
  -29.1176  -23.8626   20.2175 C   0  0  0  0  0  0
  -29.5124  -21.4059   20.6866 C   0  0  0  0  0  0
  -30.5093  -24.0414   20.4166 C   0  0  0  0  0  0
  -30.9690  -18.2947   20.5410 C   0  0  0  0  0  0
  -28.5286  -17.7637   20.0565 C   0  0  0  0  0  0
  -30.9391  -17.0497   21.4903 C   0  0  0  0  0  0
  -28.7280  -16.4723   20.9467 C   0  0  0  0  0  0
  -29.5844  -18.9267   20.1596 C   0  0  0  0  0  0
  -31.2188  -25.3703   20.2081 C   0  0  0  0  0  0
  -28.1313  -25.0148   19.7841 C   0  0  0  0  0  0
  -31.3319  -23.0338   20.7867 N   0  0  0  0  0  0
  -30.1110  -15.9215   20.9793 N   0  0  0  0  0  0
  -29.0615  -20.0839   20.9118 O   0  0  0  0  0  0
  -31.4614  -12.5253   19.2147 H   0  0  0  0  0  0
  -30.3002  -11.4834   19.9791 H   0  0  0  0  0  0
  -29.8291  -11.7635   17.5089 H   0  0  0  0  0  0
  -29.6287  -13.4840   17.7465 H   0  0  0  0  0  0
  -27.9131  -11.2520   18.9011 H   0  0  0  0  0  0
  -27.3889  -12.4781   17.7792 H   0  0  0  0  0  0
  -27.5943  -14.1905   19.3715 H   0  0  0  0  0  0
  -28.7080  -12.2018   21.4444 H   0  0  0  0  0  0
  -28.3812  -13.8742   21.7762 H   0  0  0  0  0  0
  -25.2735   -9.5714   22.4787 H   0  0  0  0  0  0
  -23.9999   -7.4600   22.7485 H   0  0  0  0  0  0
  -21.0806   -8.8719   19.8981 H   0  0  0  0  0  0
  -22.3634  -10.9629   19.6156 H   0  0  0  0  0  0
  -21.1983   -7.6137   23.9726 H   0  0  0  0  0  0
  -21.1526   -6.0500   25.9101 H   0  0  0  0  0  0
  -22.0596   -2.7575   23.2843 H   0  0  0  0  0  0
  -22.4022  -11.9865   22.4814 H   0  0  0  0  0  0
  -21.1088  -13.1311   22.2620 H   0  0  0  0  0  0
  -24.6344  -15.8287   20.5200 H   0  0  0  0  0  0
  -26.2540  -15.6363   20.0869 H   0  0  0  0  0  0
  -26.7220  -32.5421   23.1127 H   0  0  0  0  0  0
  -25.0141  -33.9729   25.0445 H   0  0  0  0  0  0
  -22.7175  -31.3080   21.4108 H   0  0  0  0  0  0
  -23.3753  -35.9641   23.3234 H   0  0  0  0  0  0
  -24.3584  -36.8992   22.2054 H   0  0  0  0  0  0
  -23.7222  -37.6492   23.6677 H   0  0  0  0  0  0
  -26.1041  -31.5468   20.6142 H   0  0  0  0  0  0
  -26.8480  -30.8256   22.0130 H   0  0  0  0  0  0
  -28.1151  -28.9580   21.1962 H   0  0  0  0  0  0
  -25.9527  -25.9736   18.9191 H   0  0  0  0  0  0
  -23.9736  -27.3503   18.9617 H   0  0  0  0  0  0
  -23.7627  -30.6135   19.4106 H   0  0  0  0  0  0
  -22.7566  -29.2665   19.8524 H   0  0  0  0  0  0
  -25.1276  -36.1918   25.0817 H   0  0  0  0  0  0
  -20.9983  -28.3276   24.1430 H   0  0  0  0  0  0
  -20.5760  -26.2313   23.3629 H   0  0  0  0  0  0
  -21.6643  -26.7513   22.1172 H   0  0  0  0  0  0
  -19.6925  -25.6296   21.1288 H   0  0  0  0  0  0
  -19.6716  -27.3200   20.6783 H   0  0  0  0  0  0
  -17.4230  -26.6718   21.4014 H   0  0  0  0  0  0
  -18.0311  -26.0100   22.9045 H   0  0  0  0  0  0
  -19.7912  -30.7292   24.2288 H   0  0  0  0  0  0
  -17.4993  -31.6262   24.5199 H   0  0  0  0  0  0
  -15.5347  -30.2994   23.7672 H   0  0  0  0  0  0
  -15.8675  -28.0875   22.7001 H   0  0  0  0  0  0
  -24.5761  -30.7301   25.7828 H   0  0  0  0  0  0
  -24.8938  -32.3105   26.4873 H   0  0  0  0  0  0
  -25.7915  -30.9043   27.0311 H   0  0  0  0  0  0
  -26.2836  -29.6807   24.1254 H   0  0  0  0  0  0
  -27.3754  -29.7229   25.4870 H   0  0  0  0  0  0
  -27.8799  -30.4180   23.9656 H   0  0  0  0  0  0
  -27.2608  -33.3625   26.2151 H   0  0  0  0  0  0
  -28.3841  -32.6943   25.0402 H   0  0  0  0  0  0
  -28.0691  -31.8462   26.5464 H   0  0  0  0  0  0
  -28.2539  -38.0162   24.7550 H   0  0  0  0  0  0
  -28.1131  -36.2693   24.6127 H   0  0  0  0  0  0
  -27.2331  -37.1307   25.8837 H   0  0  0  0  0  0
  -20.9417  -29.8733   21.6846 H   0  0  0  0  0  0
  -26.0133  -38.2857   24.1459 H   0  0  0  0  0  0
  -27.5972  -22.3020   20.1767 H   0  0  0  0  0  0
  -31.5699  -21.0705   21.3054 H   0  0  0  0  0  0
  -31.4433  -17.9683   19.6132 H   0  0  0  0  0  0
  -31.6601  -19.0335   20.9381 H   0  0  0  0  0  0
  -27.5291  -18.1696   20.2475 H   0  0  0  0  0  0
  -28.4861  -17.4449   19.0114 H   0  0  0  0  0  0
  -30.5536  -17.3626   22.4644 H   0  0  0  0  0  0
  -31.9616  -16.7266   21.6997 H   0  0  0  0  0  0
  -28.0110  -15.7395   20.6272 H   0  0  0  0  0  0
  -28.4265  -16.6964   21.9716 H   0  0  0  0  0  0
  -29.6940  -19.3194   19.1436 H   0  0  0  0  0  0
  -30.9633  -25.8028   19.2408 H   0  0  0  0  0  0
  -32.3053  -25.2411   20.2219 H   0  0  0  0  0  0
  -30.9618  -26.0785   20.9958 H   0  0  0  0  0  0
  -27.1622  -24.6894   20.1660 H   0  0  0  0  0  0
  -28.0644  -24.9722   18.6952 H   0  0  0  0  0  0
  1 25  1  0  0  0
  1 30  2  0  0  0
  1 84  1  0  0  0
  2  3  1  0  0  0
  2 25  1  0  0  0
  2 86  1  0  0  0
  2 87  1  0  0  0
  3  4  1  0  0  0
  3 88  1  0  0  0
  3 89  1  0  0  0
  4  5  1  0  0  0
  4 90  1  0  0  0
  4 91  1  0  0  0
  5  6  1  0  0  0
  5 26  1  0  0  0
  5 92  1  0  0  0
  6 25  1  0  0  0
  6 93  1  0  0  0
  6 94  1  0  0  0
  7  8  2  0  0  0
  7 26  1  0  0  0
  7 29  1  0  0  0
  8  9  1  0  0  0
  8 22  1  0  0  0
  9 10  1  0  0  0
  9 27  2  0  0  0
 10 11  2  0  0  0
 10 15  1  0  0  0
 11 12  1  0  0  0
 11 95  1  0  0  0
 12 13  2  0  0  0
 12 96  1  0  0  0
 13 14  1  0  0  0
 13 31  1  0  0  0
 14 15  2  0  0  0
 14 97  1  0  0  0
 15 98  1  0  0  0
 16 17  2  0  0  0
 16 21  1  0  0  0
 16 31  1  0  0  0
 17 18  1  0  0  0
 17 99  1  0  0  0
 18 19  2  0  0  0
 18100  1  0  0  0
 19 20  1  0  0  0
 19 24  1  0  0  0
 20 21  2  0  0  0
 20101  1  0  0  0
 21 23  1  0  0  0
 22 28  1  0  0  0
 22 32  2  0  0  0
 26 27  1  0  0  0
 28102  1  0  0  0
 28103  1  0  0  0
 29104  1  0  0  0
 29105  1  0  0  0
 33 34  1  0  0  0
 33 66  1  0  0  0
 33 70  2  0  0  0
 34 36  1  0  0  0
 34 59  1  0  0  0
 34106  1  0  0  0
 35 44  2  0  0  0
 35 45  1  0  0  0
 35 68  1  0  0  0
 36 56  1  0  0  0
 36107  1  0  0  0
 37 39  1  0  0  0
 37 47  1  0  0  0
 37 66  1  0  0  0
 37108  1  0  0  0
 38 43  2  0  0  0
 38 46  1  0  0  0
 38 47  1  0  0  0
 39 64  1  0  0  0
 39 67  2  0  0  0
 40 52  1  0  0  0
 40 53  2  0  0  0
 40 58  1  0  0  0
 41109  1  0  0  0
 41110  1  0  0  0
 41111  1  0  0  0
 41 48  1  0  0  0
 42 43  1  0  0  0
 42 66  1  0  0  0
 42112  1  0  0  0
 42113  1  0  0  0
 43 44  1  0  0  0
 44114  1  0  0  0
 45 46  2  0  0  0
 45115  1  0  0  0
 46116  1  0  0  0
 47117  1  0  0  0
 47118  1  0  0  0
 48 56  1  0  0  0
 48 65  1  0  0  0
 48119  1  0  0  0
 49 50  1  0  0  0
 49 53  1  0  0  0
 49 64  1  0  0  0
 49120  1  0  0  0
 50 51  1  0  0  0
 50121  1  0  0  0
 50122  1  0  0  0
 51 52  1  0  0  0
 51123  1  0  0  0
 51124  1  0  0  0
 52125  1  0  0  0
 52126  1  0  0  0
 53 54  1  0  0  0
 54 55  2  0  0  0
 54127  1  0  0  0
 55 57  1  0  0  0
 55128  1  0  0  0
 56 69  2  0  0  0
 57 58  2  0  0  0
 57129  1  0  0  0
 58130  1  0  0  0
 59 60  1  0  0  0
 59 61  1  0  0  0
 59 62  1  0  0  0
 60131  1  0  0  0
 60132  1  0  0  0
 60133  1  0  0  0
 61134  1  0  0  0
 61135  1  0  0  0
 61136  1  0  0  0
 62137  1  0  0  0
 62138  1  0  0  0
 62139  1  0  0  0
 63 65  1  0  0  0
 63140  1  0  0  0
 63141  1  0  0  0
 63142  1  0  0  0
 64143  1  0  0  0
 65144  1  0  0  0
 68 82  1  0  0  0
 71 73  2  0  0  0
 71 74  1  0  0  0
 71145  1  0  0  0
 72 74  2  0  0  0
 72 83  1  0  0  0
 72146  1  0  0  0
 73 75  1  0  0  0
 73 82  1  0  0  0
 74 85  1  0  0  0
 75 81  1  0  0  0
 75 83  2  0  0  0
 76 78  1  0  0  0
 76 80  1  0  0  0
 76147  1  0  0  0
 76148  1  0  0  0
 77 79  1  0  0  0
 77 80  1  0  0  0
 77149  1  0  0  0
 77150  1  0  0  0
 78 84  1  0  0  0
 78151  1  0  0  0
 78152  1  0  0  0
 79 84  1  0  0  0
 79153  1  0  0  0
 79154  1  0  0  0
 80 85  1  0  0  0
 80155  1  0  0  0
 81156  1  0  0  0
 81157  1  0  0  0
 81158  1  0  0  0
 82159  1  0  0  0
 82160  1  0  0  0
M  ISO  4   1 100  68 101  82 101  84 100
M  END
> <chiral flag>
0

> <version>
0

> <s_m_source_file>
/data/baiqing/PycharmProjects/Reinvent-master-3.2/result/LINK_invent/BTK/process_docking_weight1_custom_sum_contain_oxygen_bond_distance_aromatic_linkinvent_7_9_3/rearranged_h_0172.sdf

> <i_m_source_file_index>
93

> <r_mmod_Potential_Energy-OPLS-2005>
257.780029296875

> <r_mmod_Stretch_Energy-OPLS-2005>
98.3009185791016

> <r_mmod_Bend_Energy-OPLS-2005>
196.510177612305

> <r_mmod_Torsional_Energy-OPLS-2005>
333.156097412109

> <r_mmod_Improper_Torsional_Energy-OPLS-2005>
2.46974229812622

> <r_mmod_Van_der_Waal_Energy-OPLS-2005>
159.396774291992

> <r_mmod_Electrostatic_Energy-OPLS-2005>
-388.937866210938

> <r_mmod_Solvation_Energy-OPLS-2005>
-215.036468505859

> <b_mmod_Minimization_Converged-OPLS-2005>
0

> <r_mmod_RMS_Derivative-OPLS-2005>
5.41877937316895

$$$$
93
                    3D
 Structure written by MMmdl.
161170  0  0  1  0            999 V2000
  -30.6901  -14.6562   20.5159 C   0  0  0  0  0  0
  -30.4238  -12.4172   19.4554 C   0  0  0  0  0  0
  -29.4991  -12.5110   18.2233 C   0  0  0  0  0  0
  -28.0239  -12.3475   18.6374 C   0  0  0  0  0  0
  -27.6474  -13.2245   19.8614 C   0  0  2  0  0  0
  -28.6977  -13.0963   20.9869 C   0  0  0  0  0  0
  -25.2511  -13.8181   20.5672 C   0  0  0  0  0  0
  -24.1802  -13.0433   20.9199 C   0  0  0  0  0  0
  -24.6393  -11.6911   20.8757 C   0  0  0  0  0  0
  -23.9069  -10.4289   21.0411 C   0  0  0  0  0  0
  -24.3619   -9.4203   21.9189 C   0  0  0  0  0  0
  -23.6293   -8.2240   22.0755 C   0  0  0  0  0  0
  -22.4276   -8.0279   21.3543 C   0  0  0  0  0  0
  -21.9914   -9.0253   20.4646 C   0  0  0  0  0  0
  -22.7243  -10.2133   20.3058 C   0  0  0  0  0  0
  -21.6852   -6.0735   22.5278 C   0  0  0  0  0  0
  -21.4012   -6.5640   23.8211 C   0  0  0  0  0  0
  -21.3659   -5.6793   24.9173 C   0  0  0  0  0  0
  -21.6044   -4.3056   24.7224 C   0  0  0  0  0  0
  -21.8819   -3.8147   23.4345 C   0  0  0  0  0  0
  -21.9191   -4.6963   22.3402 C   0  0  0  0  0  0
  -22.7822  -13.5218   21.1857 C   0  0  0  0  0  0
  -22.1660   -4.2148   21.0980 F   0  0  0  0  0  0
  -21.5631   -3.4541   25.7739 F   0  0  0  0  0  0
  -29.9980  -13.4679   20.4105 N   0  0  0  0  0  0
  -26.2962  -12.9387   20.3340 N   0  0  0  0  0  0
  -25.9329  -11.6533   20.5790 N   0  0  0  0  0  0
  -22.0472  -12.8207   22.0417 N   0  0  0  0  0  0
  -25.4153  -15.1898   20.4013 N   0  0  0  0  0  0
  -31.8654  -14.6993   20.1396 O   0  0  0  0  0  0
  -21.6639   -6.8877   21.4240 O   0  0  0  0  0  0
  -22.3504  -14.5522   20.6704 O   0  0  0  0  0  0
  -24.6298  -31.8615   23.2077 C   0  0  0  0  0  0
  -25.9145  -32.4787   23.8393 C   0  0  1  0  0  0
  -27.2039  -27.2966   20.1012 C   0  0  0  0  0  0
  -25.5957  -33.8589   24.2309 N   0  0  0  0  0  0
  -23.4225  -30.4930   21.5519 C   0  0  2  0  0  0
  -24.8651  -28.9641   20.1069 C   0  0  0  0  0  0
  -22.7493  -29.4645   22.4932 C   0  0  0  0  0  0
  -18.0293  -28.1385   22.8485 C   0  0  0  0  0  0
  -24.1491  -36.7291   23.2635 C   0  0  0  0  0  0
  -25.9714  -30.7822   21.3893 C   0  0  0  0  0  0
  -26.0403  -29.4131   20.7231 C   0  0  0  0  0  0
  -27.2119  -28.5895   20.7205 C   0  0  0  0  0  0
  -26.0053  -26.9417   19.4257 C   0  0  0  0  0  0
  -24.8514  -27.7330   19.4499 C   0  0  0  0  0  0
  -23.6370  -29.8457   20.1626 C   0  0  0  0  0  0
  -25.4114  -36.3087   24.0331 C   0  0  1  0  0  0
  -20.5897  -28.3698   23.1267 C   0  0  2  0  0  0
  -20.6784  -26.9418   22.5398 C   0  0  0  0  0  0
  -19.5754  -26.6386   21.5207 C   0  0  0  0  0  0
  -18.1936  -26.7928   22.1625 C   0  0  0  0  0  0
  -19.1546  -28.8857   23.2873 C   0  0  0  0  0  0
  -18.9466  -30.1458   23.8894 C   0  0  0  0  0  0
  -17.6466  -30.6587   24.0562 C   0  0  0  0  0  0
  -25.9056  -34.9455   23.5113 C   0  0  0  0  0  0
  -16.5357  -29.9082   23.6332 C   0  0  0  0  0  0
  -16.7279  -28.6500   23.0355 C   0  0  0  0  0  0
  -26.4512  -31.6591   25.0764 C   0  0  0  0  0  0
  -25.3736  -31.3734   26.1483 C   0  0  0  0  0  0
  -27.0352  -30.3005   24.6242 C   0  0  0  0  0  0
  -27.6073  -32.4321   25.7528 C   0  0  0  0  0  0
  -27.5581  -37.1802   24.8463 C   0  0  0  0  0  0
  -21.4206  -29.3058   22.3665 N   0  0  0  0  0  0
  -26.4289  -37.3782   23.9412 N   0  0  0  0  0  0
  -24.6937  -31.0615   22.1052 N   0  0  0  0  0  0
  -23.4211  -28.8159   23.2995 O   0  0  0  0  0  0
  -28.2682  -26.3629   20.1834 O   0  0  0  0  0  0
  -26.5611  -34.8918   22.4672 O   0  0  0  0  0  0
  -23.5455  -32.1431   23.7385 O   0  0  0  0  0  0
  -30.4195  -22.1514   21.0139 C   0  0  0  0  0  0
  -29.8941  -23.4658   20.8015 C   0  0  0  0  0  0
  -28.6381  -23.6173   20.1608 C   0  0  0  0  0  0
  -28.0064  -22.3851   19.7879 C   0  0  0  0  0  0
  -29.7128  -20.9901   20.6062 C   0  0  0  0  0  0
  -28.9660  -17.7487   21.8187 C   0  0  0  0  0  0
  -28.9499  -16.2120   21.6107 C   0  0  0  0  0  0
  -30.5668  -17.1713   20.1757 C   0  0  0  0  0  0
  -29.6093  -18.3525   20.5688 C   0  0  2  0  0  0
  -30.6768  -24.6800   21.2611 C   0  0  0  0  0  0
  -26.6530  -22.3690   19.0945 C   0  0  0  0  0  0
  -27.8826  -24.9664   19.8335 C   0  0  0  0  0  0
  -28.5175  -21.1358   20.0036 N   0  0  0  0  0  0
  -30.0212  -15.8645   20.6677 N   0  0  0  0  0  0
  -30.2588  -19.6817   20.8010 N   0  0  0  0  0  0
  -31.4649  -12.5194   19.1448 H   0  0  0  0  0  0
  -30.3547  -11.4299   19.9149 H   0  0  0  0  0  0
  -29.7680  -11.7509   17.4887 H   0  0  0  0  0  0
  -29.6375  -13.4750   17.7309 H   0  0  0  0  0  0
  -27.8639  -11.2950   18.8745 H   0  0  0  0  0  0
  -27.3674  -12.5713   17.7958 H   0  0  0  0  0  0
  -27.6591  -14.2564   19.5110 H   0  0  0  0  0  0
  -28.7297  -12.0710   21.3581 H   0  0  0  0  0  0
  -28.4342  -13.6976   21.8528 H   0  0  0  0  0  0
  -25.2762   -9.5679   22.4765 H   0  0  0  0  0  0
  -23.9999   -7.4631   22.7475 H   0  0  0  0  0  0
  -21.0846   -8.8772   19.8952 H   0  0  0  0  0  0
  -22.3701  -10.9672   19.6167 H   0  0  0  0  0  0
  -21.2004   -7.6147   23.9714 H   0  0  0  0  0  0
  -21.1483   -6.0523   25.9076 H   0  0  0  0  0  0
  -22.0599   -2.7609   23.2846 H   0  0  0  0  0  0
  -22.4095  -11.9869   22.4798 H   0  0  0  0  0  0
  -21.1091  -13.1229   22.2631 H   0  0  0  0  0  0
  -24.6432  -15.8393   20.5029 H   0  0  0  0  0  0
  -26.2592  -15.6289   20.0572 H   0  0  0  0  0  0
  -26.7210  -32.5442   23.1135 H   0  0  0  0  0  0
  -25.0121  -33.9739   25.0465 H   0  0  0  0  0  0
  -22.7174  -31.3158   21.4164 H   0  0  0  0  0  0
  -23.3757  -35.9618   23.3291 H   0  0  0  0  0  0
  -24.3586  -36.8914   22.2050 H   0  0  0  0  0  0
  -23.7237  -37.6491   23.6655 H   0  0  0  0  0  0
  -26.1144  -31.5485   20.6263 H   0  0  0  0  0  0
  -26.8483  -30.8213   22.0236 H   0  0  0  0  0  0
  -28.1036  -28.9221   21.2333 H   0  0  0  0  0  0
  -25.8911  -26.0231   18.8727 H   0  0  0  0  0  0
  -23.9571  -27.3900   18.9480 H   0  0  0  0  0  0
  -23.7606  -30.6307   19.4155 H   0  0  0  0  0  0
  -22.7549  -29.2823   19.8525 H   0  0  0  0  0  0
  -25.1290  -36.1940   25.0823 H   0  0  0  0  0  0
  -20.9990  -28.3269   24.1387 H   0  0  0  0  0  0
  -20.5690  -26.2308   23.3601 H   0  0  0  0  0  0
  -21.6650  -26.7449   22.1184 H   0  0  0  0  0  0
  -19.6915  -25.6296   21.1241 H   0  0  0  0  0  0
  -19.6686  -27.3195   20.6735 H   0  0  0  0  0  0
  -17.4202  -26.6673   21.4031 H   0  0  0  0  0  0
  -18.0342  -26.0070   22.9022 H   0  0  0  0  0  0
  -19.7941  -30.7276   24.2262 H   0  0  0  0  0  0
  -17.5018  -31.6268   24.5160 H   0  0  0  0  0  0
  -15.5357  -30.2983   23.7660 H   0  0  0  0  0  0
  -15.8678  -28.0818   22.7074 H   0  0  0  0  0  0
  -24.5914  -30.7080   25.7809 H   0  0  0  0  0  0
  -24.8927  -32.2902   26.4904 H   0  0  0  0  0  0
  -25.8056  -30.8911   27.0263 H   0  0  0  0  0  0
  -26.2939  -29.6757   24.1249 H   0  0  0  0  0  0
  -27.4010  -29.7262   25.4764 H   0  0  0  0  0  0
  -27.8831  -30.4273   23.9509 H   0  0  0  0  0  0
  -27.2696  -33.3631   26.2093 H   0  0  0  0  0  0
  -28.3891  -32.6863   25.0359 H   0  0  0  0  0  0
  -28.0732  -31.8452   26.5455 H   0  0  0  0  0  0
  -28.2588  -38.0110   24.7526 H   0  0  0  0  0  0
  -28.1091  -36.2644   24.6267 H   0  0  0  0  0  0
  -27.2303  -37.1421   25.8866 H   0  0  0  0  0  0
  -20.9381  -29.8804   21.6898 H   0  0  0  0  0  0
  -26.0171  -38.2856   24.1420 H   0  0  0  0  0  0
  -31.3808  -22.0435   21.4985 H   0  0  0  0  0  0
  -29.5750  -17.9759   22.6951 H   0  0  0  0  0  0
  -27.9701  -18.1526   22.0072 H   0  0  0  0  0  0
  -27.9928  -15.9121   21.1885 H   0  0  0  0  0  0
  -29.0751  -15.7014   22.5664 H   0  0  0  0  0  0
  -31.5475  -17.3183   20.6315 H   0  0  0  0  0  0
  -30.7207  -17.1394   19.0961 H   0  0  0  0  0  0
  -28.8463  -18.4542   19.7949 H   0  0  0  0  0  0
  -31.6328  -24.3981   21.7024 H   0  0  0  0  0  0
  -30.1112  -25.2346   22.0102 H   0  0  0  0  0  0
  -30.8777  -25.3457   20.4215 H   0  0  0  0  0  0
  -26.6785  -22.9489   18.1722 H   0  0  0  0  0  0
  -25.8805  -22.7807   19.7440 H   0  0  0  0  0  0
  -26.3486  -21.3556   18.8300 H   0  0  0  0  0  0
  -26.9201  -24.7831   20.3125 H   0  0  0  0  0  0
  -27.7417  -24.9498   18.7520 H   0  0  0  0  0  0
  -31.1746  -19.6484   21.2351 H   0  0  0  0  0  0
  1 25  1  0  0  0
  1 30  2  0  0  0
  1 84  1  0  0  0
  2  3  1  0  0  0
  2 25  1  0  0  0
  2 86  1  0  0  0
  2 87  1  0  0  0
  3  4  1  0  0  0
  3 88  1  0  0  0
  3 89  1  0  0  0
  4  5  1  0  0  0
  4 90  1  0  0  0
  4 91  1  0  0  0
  5  6  1  0  0  0
  5 26  1  0  0  0
  5 92  1  0  0  0
  6 25  1  0  0  0
  6 93  1  0  0  0
  6 94  1  0  0  0
  7  8  2  0  0  0
  7 26  1  0  0  0
  7 29  1  0  0  0
  8  9  1  0  0  0
  8 22  1  0  0  0
  9 10  1  0  0  0
  9 27  2  0  0  0
 10 11  2  0  0  0
 10 15  1  0  0  0
 11 12  1  0  0  0
 11 95  1  0  0  0
 12 13  2  0  0  0
 12 96  1  0  0  0
 13 14  1  0  0  0
 13 31  1  0  0  0
 14 15  2  0  0  0
 14 97  1  0  0  0
 15 98  1  0  0  0
 16 17  2  0  0  0
 16 21  1  0  0  0
 16 31  1  0  0  0
 17 18  1  0  0  0
 17 99  1  0  0  0
 18 19  2  0  0  0
 18100  1  0  0  0
 19 20  1  0  0  0
 19 24  1  0  0  0
 20 21  2  0  0  0
 20101  1  0  0  0
 21 23  1  0  0  0
 22 28  1  0  0  0
 22 32  2  0  0  0
 26 27  1  0  0  0
 28102  1  0  0  0
 28103  1  0  0  0
 29104  1  0  0  0
 29105  1  0  0  0
 33 34  1  0  0  0
 33 66  1  0  0  0
 33 70  2  0  0  0
 34 36  1  0  0  0
 34 59  1  0  0  0
 34106  1  0  0  0
 35 44  2  0  0  0
 35 45  1  0  0  0
 35 68  1  0  0  0
 36 56  1  0  0  0
 36107  1  0  0  0
 37 39  1  0  0  0
 37 47  1  0  0  0
 37 66  1  0  0  0
 37108  1  0  0  0
 38 43  2  0  0  0
 38 46  1  0  0  0
 38 47  1  0  0  0
 39 64  1  0  0  0
 39 67  2  0  0  0
 40 52  1  0  0  0
 40 53  2  0  0  0
 40 58  1  0  0  0
 41109  1  0  0  0
 41110  1  0  0  0
 41111  1  0  0  0
 41 48  1  0  0  0
 42 43  1  0  0  0
 42 66  1  0  0  0
 42112  1  0  0  0
 42113  1  0  0  0
 43 44  1  0  0  0
 44114  1  0  0  0
 45 46  2  0  0  0
 45115  1  0  0  0
 46116  1  0  0  0
 47117  1  0  0  0
 47118  1  0  0  0
 48 56  1  0  0  0
 48 65  1  0  0  0
 48119  1  0  0  0
 49 50  1  0  0  0
 49 53  1  0  0  0
 49 64  1  0  0  0
 49120  1  0  0  0
 50 51  1  0  0  0
 50121  1  0  0  0
 50122  1  0  0  0
 51 52  1  0  0  0
 51123  1  0  0  0
 51124  1  0  0  0
 52125  1  0  0  0
 52126  1  0  0  0
 53 54  1  0  0  0
 54 55  2  0  0  0
 54127  1  0  0  0
 55 57  1  0  0  0
 55128  1  0  0  0
 56 69  2  0  0  0
 57 58  2  0  0  0
 57129  1  0  0  0
 58130  1  0  0  0
 59 60  1  0  0  0
 59 61  1  0  0  0
 59 62  1  0  0  0
 60131  1  0  0  0
 60132  1  0  0  0
 60133  1  0  0  0
 61134  1  0  0  0
 61135  1  0  0  0
 61136  1  0  0  0
 62137  1  0  0  0
 62138  1  0  0  0
 62139  1  0  0  0
 63 65  1  0  0  0
 63140  1  0  0  0
 63141  1  0  0  0
 63142  1  0  0  0
 64143  1  0  0  0
 65144  1  0  0  0
 68 82  1  0  0  0
 71 72  2  0  0  0
 71 75  1  0  0  0
 71145  1  0  0  0
 72 73  1  0  0  0
 72 80  1  0  0  0
 73 74  2  0  0  0
 73 82  1  0  0  0
 74 81  1  0  0  0
 74 83  1  0  0  0
 75 83  2  0  0  0
 75 85  1  0  0  0
 76 77  1  0  0  0
 76 79  1  0  0  0
 76146  1  0  0  0
 76147  1  0  0  0
 77 84  1  0  0  0
 77148  1  0  0  0
 77149  1  0  0  0
 78 79  1  0  0  0
 78 84  1  0  0  0
 78150  1  0  0  0
 78151  1  0  0  0
 79 85  1  0  0  0
 79152  1  0  0  0
 80153  1  0  0  0
 80154  1  0  0  0
 80155  1  0  0  0
 81156  1  0  0  0
 81157  1  0  0  0
 81158  1  0  0  0
 82159  1  0  0  0
 82160  1  0  0  0
 85161  1  0  0  0
M  ISO  4   1 100  68 101  82 101  84 100
M  END
> <chiral flag>
0

> <version>
0

> <s_m_source_file>
/data/baiqing/PycharmProjects/Reinvent-master-3.2/result/LINK_invent/BTK/process_docking_weight1_custom_sum_contain_oxygen_bond_distance_aromatic_linkinvent_7_9_3/rearranged_h_0172.sdf

> <i_m_source_file_index>
94

> <r_mmod_Potential_Energy-OPLS-2005>
86.1814193725586

> <r_mmod_Stretch_Energy-OPLS-2005>
85.1206817626953

> <r_mmod_Bend_Energy-OPLS-2005>
207.846694946289

> <r_mmod_Torsional_Energy-OPLS-2005>
300.504241943359

> <r_mmod_Improper_Torsional_Energy-OPLS-2005>
11.2651290893555

> <r_mmod_Van_der_Waal_Energy-OPLS-2005>
159.865234375

> <r_mmod_Electrostatic_Energy-OPLS-2005>
-514.624816894531

> <r_mmod_Solvation_Energy-OPLS-2005>
-227.84587097168

> <b_mmod_Minimization_Converged-OPLS-2005>
0

> <r_mmod_RMS_Derivative-OPLS-2005>
0.330549716949463

$$$$
94
                    3D
 Structure written by MMmdl.
180191  0  0  1  0            999 V2000
  -30.6206  -14.8875   20.4246 C   0  0  0  0  0  0
  -30.4180  -12.5522   19.4905 C   0  0  0  0  0  0
  -29.5090  -12.5115   18.2452 C   0  0  0  0  0  0
  -28.0429  -12.3121   18.6689 C   0  0  0  0  0  0
  -27.6259  -13.2510   19.8335 C   0  0  2  0  0  0
  -28.6710  -13.2913   20.9681 C   0  0  0  0  0  0
  -25.2455  -13.8230   20.5722 C   0  0  0  0  0  0
  -24.1769  -13.0452   20.9227 C   0  0  0  0  0  0
  -24.6382  -11.6935   20.8747 C   0  0  0  0  0  0
  -23.9069  -10.4299   21.0398 C   0  0  0  0  0  0
  -24.3620   -9.4214   21.9174 C   0  0  0  0  0  0
  -23.6297   -8.2246   22.0746 C   0  0  0  0  0  0
  -22.4277   -8.0276   21.3541 C   0  0  0  0  0  0
  -21.9915   -9.0252   20.4646 C   0  0  0  0  0  0
  -22.7244  -10.2133   20.3053 C   0  0  0  0  0  0
  -21.6856   -6.0728   22.5278 C   0  0  0  0  0  0
  -21.4017   -6.5631   23.8211 C   0  0  0  0  0  0
  -21.3659   -5.6783   24.9172 C   0  0  0  0  0  0
  -21.6049   -4.3048   24.7224 C   0  0  0  0  0  0
  -21.8820   -3.8138   23.4345 C   0  0  0  0  0  0
  -21.9194   -4.6955   22.3401 C   0  0  0  0  0  0
  -22.7790  -13.5224   21.1874 C   0  0  0  0  0  0
  -22.1664   -4.2138   21.0981 F   0  0  0  0  0  0
  -21.5631   -3.4536   25.7739 F   0  0  0  0  0  0
  -29.9445  -13.6746   20.3503 N   0  0  0  0  0  0
  -26.2874  -12.9468   20.3253 N   0  0  0  0  0  0
  -25.9315  -11.6592   20.5735 N   0  0  0  0  0  0
  -22.0436  -12.8219   22.0432 N   0  0  0  0  0  0
  -25.4159  -15.1948   20.4145 N   0  0  0  0  0  0
  -31.8327  -14.8440   20.1804 O   0  0  0  0  0  0
  -21.6643   -6.8872   21.4239 O   0  0  0  0  0  0
  -22.3477  -14.5525   20.6708 O   0  0  0  0  0  0
  -24.6407  -31.8459   23.1890 C   0  0  0  0  0  0
  -25.9194  -32.4706   23.8272 C   0  0  1  0  0  0
  -27.2124  -27.1674   20.1589 C   0  0  0  0  0  0
  -25.5955  -33.8507   24.2192 N   0  0  0  0  0  0
  -23.4416  -30.4648   21.5341 C   0  0  2  0  0  0
  -24.8893  -28.8885   20.1175 C   0  0  0  0  0  0
  -22.7545  -29.4557   22.4873 C   0  0  0  0  0  0
  -18.0299  -28.1388   22.8476 C   0  0  0  0  0  0
  -24.1490  -36.7258   23.2639 C   0  0  0  0  0  0
  -25.9934  -30.7321   21.3797 C   0  0  0  0  0  0
  -26.0665  -29.3430   20.7276 C   0  0  0  0  0  0
  -27.2344  -28.4991   20.7261 C   0  0  0  0  0  0
  -26.0118  -26.7944   19.5253 C   0  0  0  0  0  0
  -24.8716  -27.6261   19.5024 C   0  0  0  0  0  0
  -23.6666  -29.7895   20.1551 C   0  0  0  0  0  0
  -25.4120  -36.3033   24.0314 C   0  0  1  0  0  0
  -20.5907  -28.3712   23.1241 C   0  0  2  0  0  0
  -20.6783  -26.9420   22.5402 C   0  0  0  0  0  0
  -19.5761  -26.6377   21.5206 C   0  0  0  0  0  0
  -18.1941  -26.7930   22.1616 C   0  0  0  0  0  0
  -19.1554  -28.8869   23.2851 C   0  0  0  0  0  0
  -18.9473  -30.1464   23.8875 C   0  0  0  0  0  0
  -17.6471  -30.6590   24.0554 C   0  0  0  0  0  0
  -25.9069  -34.9411   23.5060 C   0  0  0  0  0  0
  -16.5361  -29.9083   23.6335 C   0  0  0  0  0  0
  -16.7284  -28.6499   23.0362 C   0  0  0  0  0  0
  -26.4529  -31.6569   25.0706 C   0  0  0  0  0  0
  -25.3729  -31.3764   26.1417 C   0  0  0  0  0  0
  -27.0388  -30.2967   24.6268 C   0  0  0  0  0  0
  -27.6053  -32.4340   25.7501 C   0  0  0  0  0  0
  -27.5572  -37.1781   24.8459 C   0  0  0  0  0  0
  -21.4240  -29.3048   22.3621 N   0  0  0  0  0  0
  -26.4279  -37.3750   23.9415 N   0  0  0  0  0  0
  -24.7114  -31.0357   22.0901 N   0  0  0  0  0  0
  -23.4203  -28.8111   23.3015 O   0  0  0  0  0  0
  -28.2812  -26.2179   20.1457 O   0  0  0  0  0  0
  -26.5643  -34.8907   22.4630 O   0  0  0  0  0  0
  -23.5537  -32.1308   23.7151 O   0  0  0  0  0  0
  -32.3349  -21.7920   19.9750 C   0  0  0  0  0  0
  -31.8828  -22.8289   19.1655 C   0  0  0  0  0  0
  -31.4460  -20.9188   20.6184 C   0  0  0  0  0  0
  -30.5110  -23.1587   19.1780 C   0  0  0  0  0  0
  -30.0344  -21.0105   20.3837 C   0  0  0  0  0  0
  -29.5708  -22.3897   19.9422 C   0  0  0  0  0  0
  -32.9232  -23.5708   18.3279 C   0  0  0  0  0  0
  -30.0736  -24.3739   18.3513 C   0  0  0  0  0  0
  -32.4209  -24.8461   17.6444 C   0  0  0  0  0  0
  -30.9839  -24.6757   17.1592 C   0  0  0  0  0  0
  -32.0255  -20.0025   23.0058 C   0  0  0  0  0  0
  -33.3455  -20.2219   22.3199 C   0  0  0  0  0  0
  -29.7985  -18.5955   19.1213 C   0  0  0  0  0  0
  -29.2700  -18.4627   21.5092 C   0  0  0  0  0  0
  -30.5635  -17.2026   19.3800 C   0  0  0  0  0  0
  -29.0316  -16.8788   21.2130 C   0  0  0  0  0  0
  -32.1120  -19.8934   21.4962 C   0  0  0  0  0  0
  -29.3074  -19.5249   20.3071 C   0  0  0  0  0  0
  -27.2992  -22.3812   21.1432 C   0  0  0  0  0  0
  -28.1474  -24.8194   20.7835 C   0  0  0  0  0  0
  -28.1945  -23.2197   20.2114 C   0  0  1  0  0  0
  -29.9714  -16.1545   20.2844 N   0  0  0  0  0  0
  -31.4582  -12.6660   19.1816 H   0  0  0  0  0  0
  -30.3742  -11.6065   20.0326 H   0  0  0  0  0  0
  -29.8196  -11.7085   17.5754 H   0  0  0  0  0  0
  -29.6087  -13.4394   17.6797 H   0  0  0  0  0  0
  -27.9358  -11.2727   18.9806 H   0  0  0  0  0  0
  -27.3781  -12.4418   17.8142 H   0  0  0  0  0  0
  -27.5889  -14.2522   19.4025 H   0  0  0  0  0  0
  -28.7491  -12.3271   21.4720 H   0  0  0  0  0  0
  -28.3810  -14.0184   21.7269 H   0  0  0  0  0  0
  -25.2762   -9.5696   22.4750 H   0  0  0  0  0  0
  -24.0007   -7.4640   22.7466 H   0  0  0  0  0  0
  -21.0846   -8.8774   19.8954 H   0  0  0  0  0  0
  -22.3694  -10.9669   19.6163 H   0  0  0  0  0  0
  -21.2010   -7.6138   23.9716 H   0  0  0  0  0  0
  -21.1481   -6.0510   25.9077 H   0  0  0  0  0  0
  -22.0599   -2.7599   23.2850 H   0  0  0  0  0  0
  -22.4062  -11.9902   22.4854 H   0  0  0  0  0  0
  -21.1043  -13.1233   22.2603 H   0  0  0  0  0  0
  -24.6534  -15.8535   20.5312 H   0  0  0  0  0  0
  -26.2701  -15.6295   20.0915 H   0  0  0  0  0  0
  -26.7258  -32.5328   23.1001 H   0  0  0  0  0  0
  -25.0119  -33.9623   25.0353 H   0  0  0  0  0  0
  -22.7430  -31.2894   21.3789 H   0  0  0  0  0  0
  -23.3758  -35.9582   23.3278 H   0  0  0  0  0  0
  -24.3575  -36.8916   22.2056 H   0  0  0  0  0  0
  -23.7238  -37.6446   23.6690 H   0  0  0  0  0  0
  -26.1403  -31.4862   20.6052 H   0  0  0  0  0  0
  -26.8669  -30.7853   22.0184 H   0  0  0  0  0  0
  -28.1395  -28.8465   21.2050 H   0  0  0  0  0  0
  -25.9477  -25.8219   19.0571 H   0  0  0  0  0  0
  -23.9701  -27.2717   19.0217 H   0  0  0  0  0  0
  -23.8037  -30.5601   19.3953 H   0  0  0  0  0  0
  -22.7817  -29.2299   19.8470 H   0  0  0  0  0  0
  -25.1307  -36.1850   25.0806 H   0  0  0  0  0  0
  -20.9995  -28.3298   24.1363 H   0  0  0  0  0  0
  -20.5671  -26.2325   23.3617 H   0  0  0  0  0  0
  -21.6651  -26.7429   22.1203 H   0  0  0  0  0  0
  -19.6923  -25.6281   21.1255 H   0  0  0  0  0  0
  -19.6703  -27.3166   20.6720 H   0  0  0  0  0  0
  -17.4212  -26.6672   21.4019 H   0  0  0  0  0  0
  -18.0341  -26.0073   22.9012 H   0  0  0  0  0  0
  -19.7953  -30.7280   24.2236 H   0  0  0  0  0  0
  -17.5032  -31.6272   24.5154 H   0  0  0  0  0  0
  -15.5363  -30.2982   23.7673 H   0  0  0  0  0  0
  -15.8682  -28.0810   22.7099 H   0  0  0  0  0  0
  -24.5899  -30.7116   25.7756 H   0  0  0  0  0  0
  -24.8934  -32.2955   26.4795 H   0  0  0  0  0  0
  -25.8028  -30.8977   27.0225 H   0  0  0  0  0  0
  -26.2994  -29.6698   24.1271 H   0  0  0  0  0  0
  -27.4003  -29.7262   25.4835 H   0  0  0  0  0  0
  -27.8902  -30.4208   23.9571 H   0  0  0  0  0  0
  -27.2623  -33.3649   26.2033 H   0  0  0  0  0  0
  -28.3893  -32.6894   25.0359 H   0  0  0  0  0  0
  -28.0687  -31.8504   26.5467 H   0  0  0  0  0  0
  -28.2573  -38.0095   24.7522 H   0  0  0  0  0  0
  -28.1086  -36.2625   24.6261 H   0  0  0  0  0  0
  -27.2295  -37.1396   25.8863 H   0  0  0  0  0  0
  -20.9439  -29.8769   21.6813 H   0  0  0  0  0  0
  -26.0141  -38.2814   24.1441 H   0  0  0  0  0  0
  -33.4004  -21.6212   20.0486 H   0  0  0  0  0  0
  -33.2634  -22.8749   17.5599 H   0  0  0  0  0  0
  -33.7980  -23.8013   18.9379 H   0  0  0  0  0  0
  -30.1026  -25.2445   19.0009 H   0  0  0  0  0  0
  -29.0582  -24.2657   17.9737 H   0  0  0  0  0  0
  -33.0851  -25.1234   16.8249 H   0  0  0  0  0  0
  -32.4531  -25.6713   18.3572 H   0  0  0  0  0  0
  -30.6457  -25.5826   16.6565 H   0  0  0  0  0  0
  -30.9250  -23.8698   16.4262 H   0  0  0  0  0  0
  -31.5269  -20.8765   23.4202 H   0  0  0  0  0  0
  -31.9240  -19.0879   23.5864 H   0  0  0  0  0  0
  -34.0950  -19.4413   22.4393 H   0  0  0  0  0  0
  -33.7306  -21.2395   22.3252 H   0  0  0  0  0  0
  -28.9084  -18.3401   18.5440 H   0  0  0  0  0  0
  -30.3914  -19.1978   18.4319 H   0  0  0  0  0  0
  -30.1863  -18.4830   22.0775 H   0  0  0  0  0  0
  -28.5205  -18.8014   22.2249 H   0  0  0  0  0  0
  -31.5809  -17.3983   19.7091 H   0  0  0  0  0  0
  -30.6915  -16.7286   18.4055 H   0  0  0  0  0  0
  -28.0285  -16.7506   20.8063 H   0  0  0  0  0  0
  -29.0299  -16.3482   22.1658 H   0  0  0  0  0  0
  -32.1299  -18.9157   21.0345 H   0  0  0  0  0  0
  -28.2694  -19.7489   20.0720 H   0  0  0  0  0  0
  -27.0589  -21.4146   20.7083 H   0  0  0  0  0  0
  -26.3416  -22.8675   21.3315 H   0  0  0  0  0  0
  -27.7796  -22.2123   22.1073 H   0  0  0  0  0  0
  -28.8620  -24.8416   21.6062 H   0  0  0  0  0  0
  -27.1891  -24.9050   21.2960 H   0  0  0  0  0  0
  -27.6554  -23.2239   19.2644 H   0  0  0  0  0  0
  1 25  1  0  0  0
  1 30  2  0  0  0
  1 92  1  0  0  0
  2  3  1  0  0  0
  2 25  1  0  0  0
  2 93  1  0  0  0
  2 94  1  0  0  0
  3  4  1  0  0  0
  3 95  1  0  0  0
  3 96  1  0  0  0
  4  5  1  0  0  0
  4 97  1  0  0  0
  4 98  1  0  0  0
  5  6  1  0  0  0
  5 26  1  0  0  0
  5 99  1  0  0  0
  6 25  1  0  0  0
  6100  1  0  0  0
  6101  1  0  0  0
  7  8  2  0  0  0
  7 26  1  0  0  0
  7 29  1  0  0  0
  8  9  1  0  0  0
  8 22  1  0  0  0
  9 10  1  0  0  0
  9 27  2  0  0  0
 10 11  2  0  0  0
 10 15  1  0  0  0
 11 12  1  0  0  0
 11102  1  0  0  0
 12 13  2  0  0  0
 12103  1  0  0  0
 13 14  1  0  0  0
 13 31  1  0  0  0
 14 15  2  0  0  0
 14104  1  0  0  0
 15105  1  0  0  0
 16 17  2  0  0  0
 16 21  1  0  0  0
 16 31  1  0  0  0
 17 18  1  0  0  0
 17106  1  0  0  0
 18 19  2  0  0  0
 18107  1  0  0  0
 19 20  1  0  0  0
 19 24  1  0  0  0
 20 21  2  0  0  0
 20108  1  0  0  0
 21 23  1  0  0  0
 22 28  1  0  0  0
 22 32  2  0  0  0
 26 27  1  0  0  0
 28109  1  0  0  0
 28110  1  0  0  0
 29111  1  0  0  0
 29112  1  0  0  0
 33 34  1  0  0  0
 33 66  1  0  0  0
 33 70  2  0  0  0
 34 36  1  0  0  0
 34 59  1  0  0  0
 34113  1  0  0  0
 35 44  2  0  0  0
 35 45  1  0  0  0
 35 68  1  0  0  0
 36 56  1  0  0  0
 36114  1  0  0  0
 37 39  1  0  0  0
 37 47  1  0  0  0
 37 66  1  0  0  0
 37115  1  0  0  0
 38 43  2  0  0  0
 38 46  1  0  0  0
 38 47  1  0  0  0
 39 64  1  0  0  0
 39 67  2  0  0  0
 40 52  1  0  0  0
 40 53  2  0  0  0
 40 58  1  0  0  0
 41116  1  0  0  0
 41117  1  0  0  0
 41118  1  0  0  0
 41 48  1  0  0  0
 42 43  1  0  0  0
 42 66  1  0  0  0
 42119  1  0  0  0
 42120  1  0  0  0
 43 44  1  0  0  0
 44121  1  0  0  0
 45 46  2  0  0  0
 45122  1  0  0  0
 46123  1  0  0  0
 47124  1  0  0  0
 47125  1  0  0  0
 48 56  1  0  0  0
 48 65  1  0  0  0
 48126  1  0  0  0
 49 50  1  0  0  0
 49 53  1  0  0  0
 49 64  1  0  0  0
 49127  1  0  0  0
 50 51  1  0  0  0
 50128  1  0  0  0
 50129  1  0  0  0
 51 52  1  0  0  0
 51130  1  0  0  0
 51131  1  0  0  0
 52132  1  0  0  0
 52133  1  0  0  0
 53 54  1  0  0  0
 54 55  2  0  0  0
 54134  1  0  0  0
 55 57  1  0  0  0
 55135  1  0  0  0
 56 69  2  0  0  0
 57 58  2  0  0  0
 57136  1  0  0  0
 58137  1  0  0  0
 59 60  1  0  0  0
 59 61  1  0  0  0
 59 62  1  0  0  0
 60138  1  0  0  0
 60139  1  0  0  0
 60140  1  0  0  0
 61141  1  0  0  0
 61142  1  0  0  0
 61143  1  0  0  0
 62144  1  0  0  0
 62145  1  0  0  0
 62146  1  0  0  0
 63 65  1  0  0  0
 63147  1  0  0  0
 63148  1  0  0  0
 63149  1  0  0  0
 64150  1  0  0  0
 65151  1  0  0  0
 68 90  1  0  0  0
 71 72  2  0  0  0
 71 73  1  0  0  0
 71152  1  0  0  0
 72 74  1  0  0  0
 72 77  1  0  0  0
 73 75  2  0  0  0
 73 87  1  0  0  0
 74 76  2  0  0  0
 74 78  1  0  0  0
 75 76  1  0  0  0
 75 88  1  0  0  0
 76 91  1  0  0  0
 77 79  1  0  0  0
 77153  1  0  0  0
 77154  1  0  0  0
 78 80  1  0  0  0
 78155  1  0  0  0
 78156  1  0  0  0
 79 80  1  0  0  0
 79157  1  0  0  0
 79158  1  0  0  0
 80159  1  0  0  0
 80160  1  0  0  0
 81 82  1  0  0  0
 81 87  1  0  0  0
 81161  1  0  0  0
 81162  1  0  0  0
 82 87  1  0  0  0
 82163  1  0  0  0
 82164  1  0  0  0
 83 85  1  0  0  0
 83 88  1  0  0  0
 83165  1  0  0  0
 83166  1  0  0  0
 84 86  1  0  0  0
 84 88  1  0  0  0
 84167  1  0  0  0
 84168  1  0  0  0
 85 92  1  0  0  0
 85169  1  0  0  0
 85170  1  0  0  0
 86 92  1  0  0  0
 86171  1  0  0  0
 86172  1  0  0  0
 87173  1  0  0  0
 88174  1  0  0  0
 89175  1  0  0  0
 89176  1  0  0  0
 89177  1  0  0  0
 89 91  1  0  0  0
 90 91  1  0  0  0
 90178  1  0  0  0
 90179  1  0  0  0
 91180  1  0  0  0
M  ISO  4   1 100  68 101  90 101  92 100
M  END
> <chiral flag>
0

> <version>
0

> <s_m_source_file>
/data/baiqing/PycharmProjects/Reinvent-master-3.2/result/LINK_invent/BTK/process_docking_weight1_custom_sum_contain_oxygen_bond_distance_aromatic_linkinvent_7_9_3/rearranged_h_0172.sdf

> <i_m_source_file_index>
95

> <r_mmod_Potential_Energy-OPLS-2005>
904.649230957031

> <r_mmod_Stretch_Energy-OPLS-2005>
249.608947753906

> <r_mmod_Bend_Energy-OPLS-2005>
333.754364013672

> <r_mmod_Torsional_Energy-OPLS-2005>
486.897216796875

> <r_mmod_Improper_Torsional_Energy-OPLS-2005>
19.2519359588623

> <r_mmod_Van_der_Waal_Energy-OPLS-2005>
156.505142211914

> <r_mmod_Electrostatic_Energy-OPLS-2005>
-307.800842285156

> <r_mmod_Solvation_Energy-OPLS-2005>
-190.397888183594

> <b_mmod_Minimization_Converged-OPLS-2005>
0

> <r_mmod_RMS_Derivative-OPLS-2005>
1.076984167099

$$$$
95
                    3D
 Structure written by MMmdl.
167176  0  0  1  0            999 V2000
  -30.5127  -15.0017   20.3818 C   0  0  0  0  0  0
  -30.4310  -12.6143   19.5040 C   0  0  0  0  0  0
  -29.5136  -12.5387   18.2592 C   0  0  0  0  0  0
  -28.0467  -12.3276   18.6790 C   0  0  0  0  0  0
  -27.6219  -13.2623   19.8394 C   0  0  2  0  0  0
  -28.6645  -13.3050   20.9738 C   0  0  0  0  0  0
  -25.2394  -13.8258   20.5761 C   0  0  0  0  0  0
  -24.1724  -13.0460   20.9292 C   0  0  0  0  0  0
  -24.6381  -11.6968   20.8806 C   0  0  0  0  0  0
  -23.9065  -10.4311   21.0429 C   0  0  0  0  0  0
  -24.3627   -9.4217   21.9183 C   0  0  0  0  0  0
  -23.6300   -8.2236   22.0741 C   0  0  0  0  0  0
  -22.4291   -8.0296   21.3522 C   0  0  0  0  0  0
  -21.9929   -9.0256   20.4636 C   0  0  0  0  0  0
  -22.7249  -10.2141   20.3040 C   0  0  0  0  0  0
  -21.6858   -6.0741   22.5274 C   0  0  0  0  0  0
  -21.4005   -6.5638   23.8211 C   0  0  0  0  0  0
  -21.3652   -5.6799   24.9167 C   0  0  0  0  0  0
  -21.6060   -4.3064   24.7224 C   0  0  0  0  0  0
  -21.8810   -3.8156   23.4355 C   0  0  0  0  0  0
  -21.9201   -4.6974   22.3396 C   0  0  0  0  0  0
  -22.7753  -13.5199   21.1969 C   0  0  0  0  0  0
  -22.1670   -4.2154   21.0971 F   0  0  0  0  0  0
  -21.5630   -3.4541   25.7732 F   0  0  0  0  0  0
  -29.9430  -13.7238   20.3810 N   0  0  0  0  0  0
  -26.2831  -12.9527   20.3278 N   0  0  0  0  0  0
  -25.9311  -11.6646   20.5766 N   0  0  0  0  0  0
  -22.0401  -12.8150   22.0520 N   0  0  0  0  0  0
  -25.3996  -15.1976   20.4139 N   0  0  0  0  0  0
  -31.7024  -15.0350   20.0507 O   0  0  0  0  0  0
  -21.6653   -6.8891   21.4236 O   0  0  0  0  0  0
  -22.3455  -14.5533   20.6849 O   0  0  0  0  0  0
  -24.6570  -31.8336   23.1807 C   0  0  0  0  0  0
  -25.9328  -32.4634   23.8183 C   0  0  1  0  0  0
  -27.2088  -27.0831   20.1482 C   0  0  0  0  0  0
  -25.6114  -33.8417   24.2099 N   0  0  0  0  0  0
  -23.4588  -30.4625   21.5229 C   0  0  2  0  0  0
  -24.8966  -28.8618   20.1148 C   0  0  0  0  0  0
  -22.7619  -29.4559   22.4785 C   0  0  0  0  0  0
  -18.0310  -28.1474   22.8480 C   0  0  0  0  0  0
  -24.1437  -36.7135   23.2656 C   0  0  0  0  0  0
  -26.0176  -30.6979   21.3762 C   0  0  0  0  0  0
  -26.0814  -29.2975   20.7242 C   0  0  0  0  0  0
  -27.2418  -28.4266   20.7111 C   0  0  0  0  0  0
  -25.9889  -26.7527   19.5123 C   0  0  0  0  0  0
  -24.8601  -27.6032   19.4961 C   0  0  0  0  0  0
  -23.6848  -29.7844   20.1440 C   0  0  0  0  0  0
  -25.4088  -36.2934   24.0313 C   0  0  1  0  0  0
  -20.5945  -28.3769   23.1235 C   0  0  2  0  0  0
  -20.6771  -26.9471   22.5425 C   0  0  0  0  0  0
  -19.5746  -26.6437   21.5236 C   0  0  0  0  0  0
  -18.1923  -26.8041   22.1625 C   0  0  0  0  0  0
  -19.1591  -28.8948   23.2856 C   0  0  0  0  0  0
  -18.9506  -30.1558   23.8838 C   0  0  0  0  0  0
  -17.6477  -30.6640   24.0563 C   0  0  0  0  0  0
  -25.9079  -34.9336   23.4949 C   0  0  0  0  0  0
  -16.5369  -29.9123   23.6430 C   0  0  0  0  0  0
  -16.7306  -28.6594   23.0372 C   0  0  0  0  0  0
  -26.4624  -31.6592   25.0653 C   0  0  0  0  0  0
  -25.3805  -31.3917   26.1362 C   0  0  0  0  0  0
  -27.0417  -30.2953   24.6321 C   0  0  0  0  0  0
  -27.6133  -32.4365   25.7437 C   0  0  0  0  0  0
  -27.5510  -37.1703   24.8472 C   0  0  0  0  0  0
  -21.4280  -29.3097   22.3577 N   0  0  0  0  0  0
  -26.4194  -37.3707   23.9486 N   0  0  0  0  0  0
  -24.7294  -31.0230   22.0822 N   0  0  0  0  0  0
  -23.4227  -28.8174   23.2974 O   0  0  0  0  0  0
  -28.2658  -26.0924   20.0895 O   0  0  0  0  0  0
  -26.5534  -34.8874   22.4454 O   0  0  0  0  0  0
  -23.5693  -32.1207   23.7092 O   0  0  0  0  0  0
  -28.3720  -20.5462   18.7124 C   0  0  0  0  0  0
  -29.1228  -21.9232   20.5662 C   0  0  0  0  0  0
  -29.0562  -20.5381   19.9542 C   0  0  0  0  0  0
  -27.7734  -21.7087   18.1626 C   0  0  0  0  0  0
  -28.4512  -23.1409   19.9845 C   0  0  0  0  0  0
  -29.8852  -22.1298   21.8558 C   0  0  0  0  0  0
  -29.5137  -17.7671   19.7148 C   0  0  0  0  0  0
  -29.8659  -18.7977   21.7736 C   0  0  0  0  0  0
  -29.7648  -16.4739   20.7392 C   0  0  2  0  0  0
  -30.5307  -17.3638   21.7611 C   0  0  2  0  0  0
  -27.0113  -21.6336   16.8395 C   0  0  0  0  0  0
  -32.0902  -22.5719   22.9310 C   0  0  0  0  0  0
  -28.1339  -24.6410   20.6767 C   0  0  0  0  0  0
  -27.8129  -22.9057   18.8080 N   0  3  0  0  0  0
  -29.5432  -19.1715   20.3933 N   0  0  0  0  0  0
  -31.2054  -22.3926   21.7679 N   0  0  0  0  0  0
  -30.6614  -16.7964   23.1160 N   0  3  0  0  0  0
  -29.2940  -22.0702   22.9346 O   0  0  0  0  0  0
  -31.4626  -12.7672   19.1811 H   0  0  0  0  0  0
  -30.4300  -11.6664   20.0436 H   0  0  0  0  0  0
  -29.8296  -11.7213   17.6085 H   0  0  0  0  0  0
  -29.6034  -13.4554   17.6757 H   0  0  0  0  0  0
  -27.9451  -11.2889   18.9933 H   0  0  0  0  0  0
  -27.3804  -12.4611   17.8236 H   0  0  0  0  0  0
  -27.5808  -14.2608   19.4070 H   0  0  0  0  0  0
  -28.7495  -12.3331   21.4630 H   0  0  0  0  0  0
  -28.3493  -14.0084   21.7451 H   0  0  0  0  0  0
  -25.2751   -9.5724   22.4795 H   0  0  0  0  0  0
  -24.0023   -7.4625   22.7450 H   0  0  0  0  0  0
  -21.0868   -8.8767   19.8941 H   0  0  0  0  0  0
  -22.3686  -10.9668   19.6172 H   0  0  0  0  0  0
  -21.1965   -7.6140   23.9708 H   0  0  0  0  0  0
  -21.1479   -6.0516   25.9069 H   0  0  0  0  0  0
  -22.0588   -2.7622   23.2822 H   0  0  0  0  0  0
  -22.4000  -11.9733   22.4771 H   0  0  0  0  0  0
  -21.1032  -13.1178   22.2810 H   0  0  0  0  0  0
  -24.6159  -15.8356   20.5043 H   0  0  0  0  0  0
  -26.2361  -15.6437   20.0656 H   0  0  0  0  0  0
  -26.7387  -32.5098   23.0908 H   0  0  0  0  0  0
  -25.0636  -33.9572   25.0499 H   0  0  0  0  0  0
  -22.7705  -31.2899   21.3650 H   0  0  0  0  0  0
  -23.3735  -35.9411   23.3264 H   0  0  0  0  0  0
  -24.3607  -36.8819   22.2091 H   0  0  0  0  0  0
  -23.7089  -37.6298   23.6673 H   0  0  0  0  0  0
  -26.1820  -31.4492   20.6009 H   0  0  0  0  0  0
  -26.8885  -30.7445   22.0189 H   0  0  0  0  0  0
  -28.1576  -28.7687   21.1774 H   0  0  0  0  0  0
  -25.8953  -25.7957   19.0229 H   0  0  0  0  0  0
  -23.9533  -27.2781   19.0014 H   0  0  0  0  0  0
  -23.8235  -30.5430   19.3718 H   0  0  0  0  0  0
  -22.7976  -29.2341   19.8374 H   0  0  0  0  0  0
  -25.1297  -36.1680   25.0806 H   0  0  0  0  0  0
  -21.0105  -28.3341   24.1332 H   0  0  0  0  0  0
  -20.5710  -26.2392   23.3664 H   0  0  0  0  0  0
  -21.6629  -26.7443   22.1179 H   0  0  0  0  0  0
  -19.6847  -25.6348   21.1323 H   0  0  0  0  0  0
  -19.6753  -27.3195   20.6731 H   0  0  0  0  0  0
  -17.4264  -26.6936   21.3948 H   0  0  0  0  0  0
  -18.0192  -26.0205   22.9019 H   0  0  0  0  0  0
  -19.7974  -30.7446   24.2119 H   0  0  0  0  0  0
  -17.5052  -31.6300   24.5189 H   0  0  0  0  0  0
  -15.5377  -30.2974   23.7816 H   0  0  0  0  0  0
  -15.8737  -28.0907   22.7018 H   0  0  0  0  0  0
  -24.6066  -30.7116   25.7854 H   0  0  0  0  0  0
  -24.8900  -32.3129   26.4463 H   0  0  0  0  0  0
  -25.8187  -30.9461   27.0295 H   0  0  0  0  0  0
  -26.2995  -29.6767   24.1288 H   0  0  0  0  0  0
  -27.3942  -29.7232   25.4920 H   0  0  0  0  0  0
  -27.8977  -30.4175   23.9670 H   0  0  0  0  0  0
  -27.2766  -33.3830   26.1660 H   0  0  0  0  0  0
  -28.4133  -32.6664   25.0383 H   0  0  0  0  0  0
  -28.0529  -31.8665   26.5647 H   0  0  0  0  0  0
  -28.2453  -38.0056   24.7558 H   0  0  0  0  0  0
  -28.1017  -36.2587   24.6136 H   0  0  0  0  0  0
  -27.2303  -37.1187   25.8892 H   0  0  0  0  0  0
  -20.9505  -29.8804   21.6754 H   0  0  0  0  0  0
  -25.9979  -38.2706   24.1676 H   0  0  0  0  0  0
  -28.2530  -19.6359   18.1420 H   0  0  0  0  0  0
  -28.5598  -17.6361   19.1970 H   0  0  0  0  0  0
  -30.2796  -17.7516   18.9357 H   0  0  0  0  0  0
  -30.5320  -19.5207   22.2387 H   0  0  0  0  0  0
  -28.9382  -18.7836   22.3494 H   0  0  0  0  0  0
  -28.7966  -16.2231   21.1725 H   0  0  0  0  0  0
  -31.5464  -17.4922   21.3805 H   0  0  0  0  0  0
  -27.0715  -20.6375   16.4029 H   0  0  0  0  0  0
  -27.4191  -22.3274   16.1048 H   0  0  0  0  0  0
  -25.9570  -21.8658   16.9937 H   0  0  0  0  0  0
  -33.1430  -22.6282   22.6360 H   0  0  0  0  0  0
  -31.9781  -21.7328   23.6204 H   0  0  0  0  0  0
  -31.8714  -23.4811   23.4913 H   0  0  0  0  0  0
  -28.6927  -24.6790   21.6118 H   0  0  0  0  0  0
  -27.1013  -24.5545   21.0068 H   0  0  0  0  0  0
  -27.2827  -23.6724   18.3900 H   0  0  0  0  0  0
  -31.6403  -22.4407   20.8503 H   0  0  0  0  0  0
  -29.7666  -16.6087   23.5312 H   0  0  0  0  0  0
  -31.1571  -17.4371   23.7166 H   0  0  0  0  0  0
  -31.2007  -15.9487   23.0909 H   0  0  0  0  0  0
  1 25  1  0  0  0
  1 30  2  0  0  0
  1 79  1  0  0  0
  2  3  1  0  0  0
  2 25  1  0  0  0
  2 89  1  0  0  0
  2 90  1  0  0  0
  3  4  1  0  0  0
  3 91  1  0  0  0
  3 92  1  0  0  0
  4  5  1  0  0  0
  4 93  1  0  0  0
  4 94  1  0  0  0
  5  6  1  0  0  0
  5 26  1  0  0  0
  5 95  1  0  0  0
  6 25  1  0  0  0
  6 96  1  0  0  0
  6 97  1  0  0  0
  7  8  2  0  0  0
  7 26  1  0  0  0
  7 29  1  0  0  0
  8  9  1  0  0  0
  8 22  1  0  0  0
  9 10  1  0  0  0
  9 27  2  0  0  0
 10 11  2  0  0  0
 10 15  1  0  0  0
 11 12  1  0  0  0
 11 98  1  0  0  0
 12 13  2  0  0  0
 12 99  1  0  0  0
 13 14  1  0  0  0
 13 31  1  0  0  0
 14 15  2  0  0  0
 14100  1  0  0  0
 15101  1  0  0  0
 16 17  2  0  0  0
 16 21  1  0  0  0
 16 31  1  0  0  0
 17 18  1  0  0  0
 17102  1  0  0  0
 18 19  2  0  0  0
 18103  1  0  0  0
 19 20  1  0  0  0
 19 24  1  0  0  0
 20 21  2  0  0  0
 20104  1  0  0  0
 21 23  1  0  0  0
 22 28  1  0  0  0
 22 32  2  0  0  0
 26 27  1  0  0  0
 28105  1  0  0  0
 28106  1  0  0  0
 29107  1  0  0  0
 29108  1  0  0  0
 33 34  1  0  0  0
 33 66  1  0  0  0
 33 70  2  0  0  0
 34 36  1  0  0  0
 34 59  1  0  0  0
 34109  1  0  0  0
 35 44  2  0  0  0
 35 45  1  0  0  0
 35 68  1  0  0  0
 36 56  1  0  0  0
 36110  1  0  0  0
 37 39  1  0  0  0
 37 47  1  0  0  0
 37 66  1  0  0  0
 37111  1  0  0  0
 38 43  2  0  0  0
 38 46  1  0  0  0
 38 47  1  0  0  0
 39 64  1  0  0  0
 39 67  2  0  0  0
 40 52  1  0  0  0
 40 53  2  0  0  0
 40 58  1  0  0  0
 41112  1  0  0  0
 41113  1  0  0  0
 41114  1  0  0  0
 41 48  1  0  0  0
 42 43  1  0  0  0
 42 66  1  0  0  0
 42115  1  0  0  0
 42116  1  0  0  0
 43 44  1  0  0  0
 44117  1  0  0  0
 45 46  2  0  0  0
 45118  1  0  0  0
 46119  1  0  0  0
 47120  1  0  0  0
 47121  1  0  0  0
 48 56  1  0  0  0
 48 65  1  0  0  0
 48122  1  0  0  0
 49 50  1  0  0  0
 49 53  1  0  0  0
 49 64  1  0  0  0
 49123  1  0  0  0
 50 51  1  0  0  0
 50124  1  0  0  0
 50125  1  0  0  0
 51 52  1  0  0  0
 51126  1  0  0  0
 51127  1  0  0  0
 52128  1  0  0  0
 52129  1  0  0  0
 53 54  1  0  0  0
 54 55  2  0  0  0
 54130  1  0  0  0
 55 57  1  0  0  0
 55131  1  0  0  0
 56 69  2  0  0  0
 57 58  2  0  0  0
 57132  1  0  0  0
 58133  1  0  0  0
 59 60  1  0  0  0
 59 61  1  0  0  0
 59 62  1  0  0  0
 60134  1  0  0  0
 60135  1  0  0  0
 60136  1  0  0  0
 61137  1  0  0  0
 61138  1  0  0  0
 61139  1  0  0  0
 62140  1  0  0  0
 62141  1  0  0  0
 62142  1  0  0  0
 63 65  1  0  0  0
 63143  1  0  0  0
 63144  1  0  0  0
 63145  1  0  0  0
 64146  1  0  0  0
 65147  1  0  0  0
 68 83  1  0  0  0
 71 73  2  0  0  0
 71 74  1  0  0  0
 71148  1  0  0  0
 72 73  1  0  0  0
 72 75  2  0  0  0
 72 76  1  0  0  0
 73 85  1  0  0  0
 74 81  1  0  0  0
 74 84  2  0  0  0
 75 83  1  0  0  0
 75 84  1  0  0  0
 76 86  1  0  0  0
 76 88  2  0  0  0
 77 79  1  0  0  0
 77 85  1  0  0  0
 77149  1  0  0  0
 77150  1  0  0  0
 78 80  1  0  0  0
 78 85  1  0  0  0
 78151  1  0  0  0
 78152  1  0  0  0
 79 80  1  0  0  0
 79153  1  0  0  0
 80 87  1  0  0  0
 80154  1  0  0  0
 81155  1  0  0  0
 81156  1  0  0  0
 81157  1  0  0  0
 82 86  1  0  0  0
 82158  1  0  0  0
 82159  1  0  0  0
 82160  1  0  0  0
 83161  1  0  0  0
 83162  1  0  0  0
 84163  1  0  0  0
 86164  1  0  0  0
 87165  1  0  0  0
 87166  1  0  0  0
 87167  1  0  0  0
M  CHG  2  84   1  87   1
M  ISO  4   1 100  68 101  79 100  83 101
M  END
> <chiral flag>
0

> <version>
0

> <s_m_source_file>
/data/baiqing/PycharmProjects/Reinvent-master-3.2/result/LINK_invent/BTK/process_docking_weight1_custom_sum_contain_oxygen_bond_distance_aromatic_linkinvent_7_9_3/rearranged_h_0172.sdf

> <i_m_source_file_index>
96

> <r_mmod_Potential_Energy-OPLS-2005>
364.796539306641

> <r_mmod_Stretch_Energy-OPLS-2005>
311.163757324219

> <r_mmod_Bend_Energy-OPLS-2005>
346.390960693359

> <r_mmod_Torsional_Energy-OPLS-2005>
269.018005371094

> <r_mmod_Improper_Torsional_Energy-OPLS-2005>
3.97211980819702

> <r_mmod_Van_der_Waal_Energy-OPLS-2005>
116.415313720703

> <r_mmod_Electrostatic_Energy-OPLS-2005>
-4.09286499023438

> <r_mmod_Solvation_Energy-OPLS-2005>
-908.020629882812

> <b_mmod_Minimization_Converged-OPLS-2005>
0

> <r_mmod_RMS_Derivative-OPLS-2005>
9.01339626312256

$$$$
