0
                    3D
 Structure written by MMmdl.
176185  0  0  1  0            999 V2000
  -30.7357  -14.4095   20.5303 C   0  0  0  0  0  0
  -30.4075  -12.2544   19.4036 C   0  0  0  0  0  0
  -29.4901  -12.4984   18.1901 C   0  0  0  0  0  0
  -28.0080  -12.3840   18.5949 C   0  0  0  0  0  0
  -27.6634  -13.2063   19.8663 C   0  0  2  0  0  0
  -28.7074  -12.9745   20.9810 C   0  0  0  0  0  0
  -25.2575  -13.8169   20.5687 C   0  0  0  0  0  0
  -24.1834  -13.0427   20.9167 C   0  0  0  0  0  0
  -24.6417  -11.6895   20.8727 C   0  0  0  0  0  0
  -23.9069  -10.4280   21.0397 C   0  0  0  0  0  0
  -24.3610   -9.4198   21.9181 C   0  0  0  0  0  0
  -23.6293   -8.2224   22.0739 C   0  0  0  0  0  0
  -22.4261   -8.0262   21.3543 C   0  0  0  0  0  0
  -21.9905   -9.0237   20.4639 C   0  0  0  0  0  0
  -22.7234  -10.2123   20.3061 C   0  0  0  0  0  0
  -21.6849   -6.0721   22.5271 C   0  0  0  0  0  0
  -21.4021   -6.5636   23.8204 C   0  0  0  0  0  0
  -21.3660   -5.6794   24.9167 C   0  0  0  0  0  0
  -21.6049   -4.3057   24.7225 C   0  0  0  0  0  0
  -21.8814   -3.8140   23.4347 C   0  0  0  0  0  0
  -21.9192   -4.6949   22.3401 C   0  0  0  0  0  0
  -22.7854  -13.5215   21.1860 C   0  0  0  0  0  0
  -22.1659   -4.2138   21.0980 F   0  0  0  0  0  0
  -21.5620   -3.4536   25.7738 F   0  0  0  0  0  0
  -30.0453  -13.2430   20.4238 N   0  0  0  0  0  0
  -26.3044  -12.9358   20.3398 N   0  0  0  0  0  0
  -25.9339  -11.6510   20.5715 N   0  0  0  0  0  0
  -22.0517  -12.8198   22.0420 N   0  0  0  0  0  0
  -25.4253  -15.1893   20.4036 N   0  0  0  0  0  0
  -31.8820  -14.5688   20.1005 O   0  0  0  0  0  0
  -21.6627   -6.8861   21.4229 O   0  0  0  0  0  0
  -22.3531  -14.5506   20.6694 O   0  0  0  0  0  0
  -24.6060  -31.8680   23.2182 C   0  0  0  0  0  0
  -25.9030  -32.4751   23.8439 C   0  0  1  0  0  0
  -27.2346  -27.4525   20.0826 C   0  0  0  0  0  0
  -25.5948  -33.8555   24.2345 N   0  0  0  0  0  0
  -23.3875  -30.5027   21.5594 C   0  0  2  0  0  0
  -24.8348  -28.9514   20.1360 C   0  0  0  0  0  0
  -22.7276  -29.4749   22.5092 C   0  0  0  0  0  0
  -18.0203  -28.1408   22.8564 C   0  0  0  0  0  0
  -24.1439  -36.7384   23.2640 C   0  0  0  0  0  0
  -25.9182  -30.8213   21.3788 C   0  0  0  0  0  0
  -25.9985  -29.4533   20.7385 C   0  0  0  0  0  0
  -27.1945  -28.7015   20.7416 C   0  0  0  0  0  0
  -26.0719  -26.9839   19.4437 C   0  0  0  0  0  0
  -24.8677  -27.7055   19.4887 C   0  0  0  0  0  0
  -23.5932  -29.8148   20.1833 C   0  0  0  0  0  0
  -25.4000  -36.3032   24.0357 C   0  0  1  0  0  0
  -20.5804  -28.3758   23.1695 C   0  0  2  0  0  0
  -20.6632  -26.9616   22.5523 C   0  0  0  0  0  0
  -19.5813  -26.7227   21.4971 C   0  0  0  0  0  0
  -18.1961  -26.8073   22.1454 C   0  0  0  0  0  0
  -19.1417  -28.8846   23.3193 C   0  0  0  0  0  0
  -18.9322  -30.1462   23.9201 C   0  0  0  0  0  0
  -17.6316  -30.6573   24.0767 C   0  0  0  0  0  0
  -25.8974  -34.9458   23.5130 C   0  0  0  0  0  0
  -16.5224  -29.9088   23.6407 C   0  0  0  0  0  0
  -16.7215  -28.6562   23.0301 C   0  0  0  0  0  0
  -26.4509  -31.6553   25.0757 C   0  0  0  0  0  0
  -25.3797  -31.3551   26.1493 C   0  0  0  0  0  0
  -27.0393  -30.2991   24.6314 C   0  0  0  0  0  0
  -27.6125  -32.4265   25.7416 C   0  0  0  0  0  0
  -27.5520  -37.1854   24.8460 C   0  0  0  0  0  0
  -21.3958  -29.3252   22.4107 N   0  0  0  0  0  0
  -26.4192  -37.3747   23.9440 N   0  0  0  0  0  0
  -24.6540  -31.0756   22.1129 N   0  0  0  0  0  0
  -23.4205  -28.8069   23.2823 O   0  0  0  0  0  0
  -28.3617  -26.6795   19.9697 O   0  0  0  0  0  0
  -26.5548  -34.8956   22.4691 O   0  0  0  0  0  0
  -23.5282  -32.1579   23.7620 O   0  0  0  0  0  0
  -28.5599  -21.2991   21.9057 C   0  0  0  0  0  0
  -27.2264  -19.8054   20.5961 C   0  0  0  0  0  0
  -27.4672  -22.2073   21.9560 C   0  0  0  0  0  0
  -28.4437  -20.0613   21.2385 C   0  0  0  0  0  0
  -26.2840  -21.8471   21.2323 C   0  0  0  0  0  0
  -23.5581  -24.7999   21.2577 C   0  0  0  0  0  0
  -24.7724  -23.9896   21.7452 C   0  0  0  0  0  0
  -22.7259  -24.0759   20.1976 C   0  0  0  0  0  0
  -23.7107  -21.8751   20.9058 C   0  0  0  0  0  0
  -25.0336  -22.7117   20.9210 C   0  0  2  0  0  0
  -27.6449  -23.4535   22.8391 C   0  0  0  0  0  0
  -29.1993  -17.7293   21.0292 C   0  0  0  0  0  0
  -30.4237  -16.8431   20.7983 C   0  0  0  0  0  0
  -29.1590  -25.0537   21.5447 C   0  0  0  0  0  0
  -29.2159  -26.5214   21.1035 C   0  0  0  0  0  0
  -26.2105  -20.6814   20.5618 N   0  0  0  0  0  0
  -29.5168  -19.1386   21.2256 N   0  0  0  0  0  0
  -30.0198  -15.4507   20.9436 N   0  0  0  0  0  0
  -22.4838  -22.6779   20.6187 N   0  3  0  0  0  0
  -27.8389  -24.7300   22.1110 N   0  3  0  0  0  0
  -31.4553  -12.3105   19.1061 H   0  0  0  0  0  0
  -30.2620  -11.2436   19.7906 H   0  0  0  0  0  0
  -29.7065  -11.7881   17.3947 H   0  0  0  0  0  0
  -29.6769  -13.4901   17.7734 H   0  0  0  0  0  0
  -27.7896  -11.3290   18.7693 H   0  0  0  0  0  0
  -27.3635  -12.6964   17.7730 H   0  0  0  0  0  0
  -27.7120  -14.2594   19.5865 H   0  0  0  0  0  0
  -28.6621  -11.9399   21.3306 H   0  0  0  0  0  0
  -28.4945  -13.5864   21.8587 H   0  0  0  0  0  0
  -25.2764   -9.5639   22.4742 H   0  0  0  0  0  0
  -23.9990   -7.4602   22.7458 H   0  0  0  0  0  0
  -21.0824   -8.8760   19.8948 H   0  0  0  0  0  0
  -22.3707  -10.9644   19.6148 H   0  0  0  0  0  0
  -21.2029   -7.6147   23.9712 H   0  0  0  0  0  0
  -21.1491   -6.0522   25.9077 H   0  0  0  0  0  0
  -22.0601   -2.7597   23.2853 H   0  0  0  0  0  0
  -22.4146  -11.9856   22.4802 H   0  0  0  0  0  0
  -21.1133  -13.1169   22.2657 H   0  0  0  0  0  0
  -24.6449  -15.8313   20.4877 H   0  0  0  0  0  0
  -26.2627  -15.6220   20.0391 H   0  0  0  0  0  0
  -26.6984  -32.5495   23.1110 H   0  0  0  0  0  0
  -24.9873  -33.9660   25.0323 H   0  0  0  0  0  0
  -22.6766  -31.3235   21.4105 H   0  0  0  0  0  0
  -23.3572  -35.9879   23.3288 H   0  0  0  0  0  0
  -24.3496  -36.9049   22.2064 H   0  0  0  0  0  0
  -23.7438  -37.6699   23.6684 H   0  0  0  0  0  0
  -26.0529  -31.5873   20.6094 H   0  0  0  0  0  0
  -26.7837  -30.8608   22.0213 H   0  0  0  0  0  0
  -28.0801  -29.0996   21.2140 H   0  0  0  0  0  0
  -26.0874  -26.0600   18.8745 H   0  0  0  0  0  0
  -23.9837  -27.3157   18.9951 H   0  0  0  0  0  0
  -23.7262  -30.5852   19.4308 H   0  0  0  0  0  0
  -22.7054  -29.2758   19.8512 H   0  0  0  0  0  0
  -25.1166  -36.1829   25.0869 H   0  0  0  0  0  0
  -20.9868  -28.3189   24.1876 H   0  0  0  0  0  0
  -20.5313  -26.2263   23.3477 H   0  0  0  0  0  0
  -21.6501  -26.7669   22.1459 H   0  0  0  0  0  0
  -19.7275  -25.7661   20.9930 H   0  0  0  0  0  0
  -19.6889  -27.5051   20.7350 H   0  0  0  0  0  0
  -17.4228  -26.6798   21.3837 H   0  0  0  0  0  0
  -18.0738  -25.9904   22.8636 H   0  0  0  0  0  0
  -19.7761  -30.7284   24.2668 H   0  0  0  0  0  0
  -17.4795  -31.6248   24.5415 H   0  0  0  0  0  0
  -15.5227  -30.3037   23.7502 H   0  0  0  0  0  0
  -15.8631  -28.0949   22.6793 H   0  0  0  0  0  0
  -24.6055  -30.6830   25.7853 H   0  0  0  0  0  0
  -24.8961  -32.2609   26.5107 H   0  0  0  0  0  0
  -25.8190  -30.8652   27.0184 H   0  0  0  0  0  0
  -26.3213  -29.6724   24.1036 H   0  0  0  0  0  0
  -27.3799  -29.7415   25.5058 H   0  0  0  0  0  0
  -27.9101  -30.4083   23.9857 H   0  0  0  0  0  0
  -27.2808  -33.3528   26.2055 H   0  0  0  0  0  0
  -28.3804  -32.6842   25.0140 H   0  0  0  0  0  0
  -28.0888  -31.8352   26.5246 H   0  0  0  0  0  0
  -28.2468  -38.0180   24.7327 H   0  0  0  0  0  0
  -28.1019  -36.2697   24.6323 H   0  0  0  0  0  0
  -27.2260  -37.1630   25.8873 H   0  0  0  0  0  0
  -20.8953  -29.9164   21.7584 H   0  0  0  0  0  0
  -25.9977  -38.2785   24.1495 H   0  0  0  0  0  0
  -29.4726  -21.5558   22.4253 H   0  0  0  0  0  0
  -27.0170  -18.8772   20.0896 H   0  0  0  0  0  0
  -23.8894  -25.7517   20.8620 H   0  0  0  0  0  0
  -22.9520  -25.0738   22.1180 H   0  0  0  0  0  0
  -24.6593  -23.7387   22.8007 H   0  0  0  0  0  0
  -25.5629  -24.7011   21.6467 H   0  0  0  0  0  0
  -23.2312  -24.0653   19.2295 H   0  0  0  0  0  0
  -21.7900  -24.6199   20.0476 H   0  0  0  0  0  0
  -23.5663  -21.3518   21.8631 H   0  0  0  0  0  0
  -23.7728  -21.1069   20.1345 H   0  0  0  0  0  0
  -25.2430  -23.0252   19.8951 H   0  0  0  0  0  0
  -28.4733  -23.3372   23.5380 H   0  0  0  0  0  0
  -26.7757  -23.5339   23.4885 H   0  0  0  0  0  0
  -28.6380  -17.3792   21.8972 H   0  0  0  0  0  0
  -28.5654  -17.5923   20.1576 H   0  0  0  0  0  0
  -31.2392  -17.0576   21.4874 H   0  0  0  0  0  0
  -30.7930  -17.0204   19.7853 H   0  0  0  0  0  0
  -29.9263  -24.9008   22.2963 H   0  0  0  0  0  0
  -29.3962  -24.3920   20.7135 H   0  0  0  0  0  0
  -30.2281  -26.7557   20.7904 H   0  0  0  0  0  0
  -29.0144  -27.2018   21.9320 H   0  0  0  0  0  0
  -30.4782  -19.4721   21.2845 H   0  0  0  0  0  0
  -29.0632  -15.2680   21.2141 H   0  0  0  0  0  0
  -21.9800  -22.2101   19.8873 H   0  0  0  0  0  0
  -21.8685  -22.6738   21.4189 H   0  0  0  0  0  0
  -27.6038  -25.4741   22.7543 H   0  0  0  0  0  0
  -27.1578  -24.7860   21.3662 H   0  0  0  0  0  0
  1 25  1  0  0  0
  1 30  2  0  0  0
  1 88  1  0  0  0
  2  3  1  0  0  0
  2 25  1  0  0  0
  2 91  1  0  0  0
  2 92  1  0  0  0
  3  4  1  0  0  0
  3 93  1  0  0  0
  3 94  1  0  0  0
  4  5  1  0  0  0
  4 95  1  0  0  0
  4 96  1  0  0  0
  5  6  1  0  0  0
  5 26  1  0  0  0
  5 97  1  0  0  0
  6 25  1  0  0  0
  6 98  1  0  0  0
  6 99  1  0  0  0
  7  8  2  0  0  0
  7 26  1  0  0  0
  7 29  1  0  0  0
  8  9  1  0  0  0
  8 22  1  0  0  0
  9 10  1  0  0  0
  9 27  2  0  0  0
 10 11  2  0  0  0
 10 15  1  0  0  0
 11 12  1  0  0  0
 11100  1  0  0  0
 12 13  2  0  0  0
 12101  1  0  0  0
 13 14  1  0  0  0
 13 31  1  0  0  0
 14 15  2  0  0  0
 14102  1  0  0  0
 15103  1  0  0  0
 16 17  2  0  0  0
 16 21  1  0  0  0
 16 31  1  0  0  0
 17 18  1  0  0  0
 17104  1  0  0  0
 18 19  2  0  0  0
 18105  1  0  0  0
 19 20  1  0  0  0
 19 24  1  0  0  0
 20 21  2  0  0  0
 20106  1  0  0  0
 21 23  1  0  0  0
 22 28  1  0  0  0
 22 32  2  0  0  0
 26 27  1  0  0  0
 28107  1  0  0  0
 28108  1  0  0  0
 29109  1  0  0  0
 29110  1  0  0  0
 33 34  1  0  0  0
 33 66  1  0  0  0
 33 70  2  0  0  0
 34 36  1  0  0  0
 34 59  1  0  0  0
 34111  1  0  0  0
 35 44  2  0  0  0
 35 45  1  0  0  0
 35 68  1  0  0  0
 36 56  1  0  0  0
 36112  1  0  0  0
 37 39  1  0  0  0
 37 47  1  0  0  0
 37 66  1  0  0  0
 37113  1  0  0  0
 38 43  2  0  0  0
 38 46  1  0  0  0
 38 47  1  0  0  0
 39 64  1  0  0  0
 39 67  2  0  0  0
 40 52  1  0  0  0
 40 53  2  0  0  0
 40 58  1  0  0  0
 41114  1  0  0  0
 41115  1  0  0  0
 41116  1  0  0  0
 41 48  1  0  0  0
 42 43  1  0  0  0
 42 66  1  0  0  0
 42117  1  0  0  0
 42118  1  0  0  0
 43 44  1  0  0  0
 44119  1  0  0  0
 45 46  2  0  0  0
 45120  1  0  0  0
 46121  1  0  0  0
 47122  1  0  0  0
 47123  1  0  0  0
 48 56  1  0  0  0
 48 65  1  0  0  0
 48124  1  0  0  0
 49 50  1  0  0  0
 49 53  1  0  0  0
 49 64  1  0  0  0
 49125  1  0  0  0
 50 51  1  0  0  0
 50126  1  0  0  0
 50127  1  0  0  0
 51 52  1  0  0  0
 51128  1  0  0  0
 51129  1  0  0  0
 52130  1  0  0  0
 52131  1  0  0  0
 53 54  1  0  0  0
 54 55  2  0  0  0
 54132  1  0  0  0
 55 57  1  0  0  0
 55133  1  0  0  0
 56 69  2  0  0  0
 57 58  2  0  0  0
 57134  1  0  0  0
 58135  1  0  0  0
 59 60  1  0  0  0
 59 61  1  0  0  0
 59 62  1  0  0  0
 60136  1  0  0  0
 60137  1  0  0  0
 60138  1  0  0  0
 61139  1  0  0  0
 61140  1  0  0  0
 61141  1  0  0  0
 62142  1  0  0  0
 62143  1  0  0  0
 62144  1  0  0  0
 63 65  1  0  0  0
 63145  1  0  0  0
 63146  1  0  0  0
 63147  1  0  0  0
 64148  1  0  0  0
 65149  1  0  0  0
 68 85  1  0  0  0
 71 73  2  0  0  0
 71 74  1  0  0  0
 71150  1  0  0  0
 72 74  2  0  0  0
 72 86  1  0  0  0
 72151  1  0  0  0
 73 75  1  0  0  0
 73 81  1  0  0  0
 74 87  1  0  0  0
 75 86  2  0  0  0
 75 80  1  0  0  0
 76 77  1  0  0  0
 76 78  1  0  0  0
 76152  1  0  0  0
 76153  1  0  0  0
 77 80  1  0  0  0
 77154  1  0  0  0
 77155  1  0  0  0
 78 89  1  0  0  0
 78156  1  0  0  0
 78157  1  0  0  0
 79 80  1  0  0  0
 79 89  1  0  0  0
 79158  1  0  0  0
 79159  1  0  0  0
 80160  1  0  0  0
 81 90  1  0  0  0
 81161  1  0  0  0
 81162  1  0  0  0
 82 83  1  0  0  0
 82 87  1  0  0  0
 82163  1  0  0  0
 82164  1  0  0  0
 83 88  1  0  0  0
 83165  1  0  0  0
 83166  1  0  0  0
 84 85  1  0  0  0
 84 90  1  0  0  0
 84167  1  0  0  0
 84168  1  0  0  0
 85169  1  0  0  0
 85170  1  0  0  0
 87171  1  0  0  0
 88172  1  0  0  0
 89173  1  0  0  0
 89174  1  0  0  0
 90175  1  0  0  0
 90176  1  0  0  0
M  CHG  2  89   1  90   1
M  ISO  4   1 100  68 101  85 101  88 100
M  END
> <chiral flag>
0

> <version>
0

> <s_m_source_file>
/data/baiqing/PycharmProjects/Reinvent-master-3.2/result/LINK_invent/BTK/process_docking_weight1_custom_sum_contain_oxygen_bond_distance_aromatic_linkinvent_7_9_3/rearranged_h_0130.sdf

> <i_m_source_file_index>
1

> <r_mmod_Potential_Energy-OPLS-2005>
-374.885009765625

> <r_mmod_Stretch_Energy-OPLS-2005>
42.260066986084

> <r_mmod_Bend_Energy-OPLS-2005>
151.467651367188

> <r_mmod_Torsional_Energy-OPLS-2005>
268.333953857422

> <r_mmod_Improper_Torsional_Energy-OPLS-2005>
6.38034772872925

> <r_mmod_Van_der_Waal_Energy-OPLS-2005>
170.780899047852

> <r_mmod_Electrostatic_Energy-OPLS-2005>
-83.844970703125

> <r_mmod_Solvation_Energy-OPLS-2005>
-944.920349121094

> <b_mmod_Minimization_Converged-OPLS-2005>
0

> <r_mmod_RMS_Derivative-OPLS-2005>
15.8164224624634

$$$$
1
                    3D
 Structure written by MMmdl.
153161  0  0  1  0            999 V2000
  -30.4385  -15.1949   20.3627 C   0  0  0  0  0  0
  -30.4481  -12.7551   19.5019 C   0  0  0  0  0  0
  -29.5322  -12.5666   18.2671 C   0  0  0  0  0  0
  -28.0752  -12.3067   18.6955 C   0  0  0  0  0  0
  -27.6178  -13.2657   19.8235 C   0  0  2  0  0  0
  -28.6604  -13.3977   20.9522 C   0  0  0  0  0  0
  -25.2413  -13.8236   20.5730 C   0  0  0  0  0  0
  -24.1754  -13.0443   20.9240 C   0  0  0  0  0  0
  -24.6398  -11.6938   20.8762 C   0  0  0  0  0  0
  -23.9096  -10.4298   21.0421 C   0  0  0  0  0  0
  -24.3633   -9.4209   21.9210 C   0  0  0  0  0  0
  -23.6287   -8.2253   22.0778 C   0  0  0  0  0  0
  -22.4269   -8.0295   21.3560 C   0  0  0  0  0  0
  -21.9914   -9.0286   20.4674 C   0  0  0  0  0  0
  -22.7258  -10.2149   20.3075 C   0  0  0  0  0  0
  -21.6856   -6.0737   22.5271 C   0  0  0  0  0  0
  -21.4036   -6.5643   23.8209 C   0  0  0  0  0  0
  -21.3654   -5.6796   24.9173 C   0  0  0  0  0  0
  -21.6030   -4.3054   24.7217 C   0  0  0  0  0  0
  -21.8814   -3.8150   23.4342 C   0  0  0  0  0  0
  -21.9195   -4.6974   22.3401 C   0  0  0  0  0  0
  -22.7776  -13.5222   21.1879 C   0  0  0  0  0  0
  -22.1659   -4.2161   21.0981 F   0  0  0  0  0  0
  -21.5621   -3.4537   25.7729 F   0  0  0  0  0  0
  -29.8999  -13.8851   20.3249 N   0  0  0  0  0  0
  -26.2842  -12.9497   20.3211 N   0  0  0  0  0  0
  -25.9329  -11.6610   20.5711 N   0  0  0  0  0  0
  -22.0408  -12.8238   22.0434 N   0  0  0  0  0  0
  -25.4044  -15.1968   20.4156 N   0  0  0  0  0  0
  -31.6645  -15.2451   20.1850 O   0  0  0  0  0  0
  -21.6632   -6.8885   21.4232 O   0  0  0  0  0  0
  -22.3474  -14.5526   20.6716 O   0  0  0  0  0  0
  -24.6577  -31.8276   23.1743 C   0  0  0  0  0  0
  -25.9277  -32.4611   23.8194 C   0  0  1  0  0  0
  -27.2306  -26.9836   20.1758 C   0  0  0  0  0  0
  -25.5958  -33.8427   24.2099 N   0  0  0  0  0  0
  -23.4717  -30.4407   21.5213 C   0  0  2  0  0  0
  -24.9261  -28.8342   20.1147 C   0  0  0  0  0  0
  -22.7644  -29.4471   22.4792 C   0  0  0  0  0  0
  -18.0326  -28.1406   22.8464 C   0  0  0  0  0  0
  -24.1501  -36.7232   23.2652 C   0  0  0  0  0  0
  -26.0372  -30.6521   21.3962 C   0  0  0  0  0  0
  -26.1090  -29.2473   20.7399 C   0  0  0  0  0  0
  -27.2575  -28.3441   20.7435 C   0  0  0  0  0  0
  -26.0156  -26.7059   19.5099 C   0  0  0  0  0  0
  -24.9020  -27.5828   19.4790 C   0  0  0  0  0  0
  -23.7085  -29.7552   20.1478 C   0  0  0  0  0  0
  -25.4138  -36.2987   24.0301 C   0  0  1  0  0  0
  -20.5949  -28.3744   23.1197 C   0  0  2  0  0  0
  -20.6805  -26.9428   22.5402 C   0  0  0  0  0  0
  -19.5778  -26.6369   21.5218 C   0  0  0  0  0  0
  -18.1959  -26.7935   22.1624 C   0  0  0  0  0  0
  -19.1584  -28.8899   23.2819 C   0  0  0  0  0  0
  -18.9493  -30.1483   23.8860 C   0  0  0  0  0  0
  -17.6484  -30.6594   24.0554 C   0  0  0  0  0  0
  -25.9084  -34.9358   23.5017 C   0  0  0  0  0  0
  -16.5378  -29.9083   23.6334 C   0  0  0  0  0  0
  -16.7303  -28.6504   23.0357 C   0  0  0  0  0  0
  -26.4531  -31.6541   25.0705 C   0  0  0  0  0  0
  -25.3662  -31.3789   26.1365 C   0  0  0  0  0  0
  -27.0420  -30.2918   24.6414 C   0  0  0  0  0  0
  -27.6029  -32.4341   25.7502 C   0  0  0  0  0  0
  -27.5564  -37.1791   24.8470 C   0  0  0  0  0  0
  -21.4323  -29.3043   22.3549 N   0  0  0  0  0  0
  -26.4296  -37.3702   23.9377 N   0  0  0  0  0  0
  -24.7436  -30.9996   22.0849 N   0  0  0  0  0  0
  -23.4207  -28.8028   23.3007 O   0  0  0  0  0  0
  -28.2696  -25.9287   20.2233 O   0  0  0  0  0  0
  -26.5698  -34.8885   22.4614 O   0  0  0  0  0  0
  -23.5651  -32.1221   23.6855 O   0  0  0  0  0  0
  -30.3243  -20.4563   20.7845 C   0  0  0  0  0  0
  -28.2705  -20.2562   19.7675 C   0  0  0  0  0  0
  -30.4981  -18.9819   20.8031 C   0  0  0  0  0  0
  -28.4307  -18.7786   19.8082 C   0  0  0  0  0  0
  -29.2110  -21.2489   20.2582 C   0  0  0  0  0  0
  -29.5579  -17.9912   20.3098 C   0  0  0  0  0  0
  -31.5162  -22.8309   18.8309 C   0  0  0  0  0  0
  -30.0628  -23.3356   18.8563 C   0  0  0  0  0  0
  -28.0567  -24.3095   20.2156 C   0  0  0  0  0  0
  -29.2362  -22.9886   20.1204 C   0  0  1  0  0  0
  -29.5792  -16.3854   20.3565 N   0  0  0  0  0  0
  -31.4686  -12.9603   19.1744 H   0  0  0  0  0  0
  -30.5045  -11.8371   20.0897 H   0  0  0  0  0  0
  -29.8928  -11.7464   17.6442 H   0  0  0  0  0  0
  -29.5749  -13.4636   17.6463 H   0  0  0  0  0  0
  -28.0088  -11.2752   19.0447 H   0  0  0  0  0  0
  -27.4082  -12.3864   17.8369 H   0  0  0  0  0  0
  -27.5446  -14.2423   19.3442 H   0  0  0  0  0  0
  -28.8110  -12.4504   21.4717 H   0  0  0  0  0  0
  -28.3207  -14.1141   21.7022 H   0  0  0  0  0  0
  -25.2775   -9.5686   22.4792 H   0  0  0  0  0  0
  -23.9990   -7.4640   22.7500 H   0  0  0  0  0  0
  -21.0845   -8.8820   19.8976 H   0  0  0  0  0  0
  -22.3727  -10.9701   19.6194 H   0  0  0  0  0  0
  -21.2031   -7.6151   23.9717 H   0  0  0  0  0  0
  -21.1482   -6.0525   25.9075 H   0  0  0  0  0  0
  -22.0591   -2.7609   23.2842 H   0  0  0  0  0  0
  -22.4013  -11.9908   22.4852 H   0  0  0  0  0  0
  -21.1048  -13.1328   22.2643 H   0  0  0  0  0  0
  -24.6297  -15.8417   20.5191 H   0  0  0  0  0  0
  -26.2362  -15.6398   20.0504 H   0  0  0  0  0  0
  -26.7339  -32.5167   23.0900 H   0  0  0  0  0  0
  -25.0043  -33.9508   25.0208 H   0  0  0  0  0  0
  -22.7820  -31.2705   21.3528 H   0  0  0  0  0  0
  -23.3740  -35.9592   23.3358 H   0  0  0  0  0  0
  -24.3553  -36.8827   22.2054 H   0  0  0  0  0  0
  -23.7309  -37.6460   23.6671 H   0  0  0  0  0  0
  -26.2144  -31.3966   20.6196 H   0  0  0  0  0  0
  -26.8970  -30.7041   22.0515 H   0  0  0  0  0  0
  -28.1582  -28.6633   21.2501 H   0  0  0  0  0  0
  -25.8980  -25.7508   19.0203 H   0  0  0  0  0  0
  -24.0036  -27.2615   18.9715 H   0  0  0  0  0  0
  -23.8620  -30.5241   19.3891 H   0  0  0  0  0  0
  -22.8191  -29.2062   19.8315 H   0  0  0  0  0  0
  -25.1347  -36.1800   25.0798 H   0  0  0  0  0  0
  -21.0039  -28.3352   24.1322 H   0  0  0  0  0  0
  -20.5707  -26.2354   23.3637 H   0  0  0  0  0  0
  -21.6667  -26.7420   22.1204 H   0  0  0  0  0  0
  -19.6940  -25.6268   21.1286 H   0  0  0  0  0  0
  -19.6721  -27.3147   20.6724 H   0  0  0  0  0  0
  -17.4227  -26.6672   21.4032 H   0  0  0  0  0  0
  -18.0359  -26.0090   22.9036 H   0  0  0  0  0  0
  -19.7968  -30.7317   24.2213 H   0  0  0  0  0  0
  -17.5034  -31.6274   24.5154 H   0  0  0  0  0  0
  -15.5372  -30.2971   23.7686 H   0  0  0  0  0  0
  -15.8703  -28.0807   22.7090 H   0  0  0  0  0  0
  -24.5824  -30.7168   25.7668 H   0  0  0  0  0  0
  -24.8871  -32.2992   26.4715 H   0  0  0  0  0  0
  -25.7884  -30.8989   27.0198 H   0  0  0  0  0  0
  -26.3075  -29.6598   24.1415 H   0  0  0  0  0  0
  -27.3954  -29.7282   25.5054 H   0  0  0  0  0  0
  -27.9011  -30.4110   23.9815 H   0  0  0  0  0  0
  -27.2596  -33.3660   26.2002 H   0  0  0  0  0  0
  -28.3878  -32.6874   25.0366 H   0  0  0  0  0  0
  -28.0651  -31.8526   26.5483 H   0  0  0  0  0  0
  -28.2624  -38.0041   24.7422 H   0  0  0  0  0  0
  -28.1017  -36.2565   24.6427 H   0  0  0  0  0  0
  -27.2255  -37.1591   25.8868 H   0  0  0  0  0  0
  -20.9563  -29.8720   21.6678 H   0  0  0  0  0  0
  -26.0161  -38.2783   24.1309 H   0  0  0  0  0  0
  -31.1552  -21.0209   21.1881 H   0  0  0  0  0  0
  -27.3650  -20.6327   19.3097 H   0  0  0  0  0  0
  -31.4121  -18.6076   21.2410 H   0  0  0  0  0  0
  -27.6031  -18.2177   19.3961 H   0  0  0  0  0  0
  -32.0357  -23.2058   17.9488 H   0  0  0  0  0  0
  -31.5799  -21.7450   18.7920 H   0  0  0  0  0  0
  -32.0673  -23.1751   19.7064 H   0  0  0  0  0  0
  -29.5395  -22.9701   17.9719 H   0  0  0  0  0  0
  -30.1025  -24.4203   18.7433 H   0  0  0  0  0  0
  -27.4866  -24.1234   21.1254 H   0  0  0  0  0  0
  -27.3498  -24.1146   19.4100 H   0  0  0  0  0  0
  -29.8779  -23.2350   20.9672 H   0  0  0  0  0  0
  -28.6355  -16.0343   20.3129 H   0  0  0  0  0  0
  1 25  1  0  0  0
  1 30  2  0  0  0
  1 81  1  0  0  0
  2  3  1  0  0  0
  2 25  1  0  0  0
  2 82  1  0  0  0
  2 83  1  0  0  0
  3  4  1  0  0  0
  3 84  1  0  0  0
  3 85  1  0  0  0
  4  5  1  0  0  0
  4 86  1  0  0  0
  4 87  1  0  0  0
  5  6  1  0  0  0
  5 26  1  0  0  0
  5 88  1  0  0  0
  6 25  1  0  0  0
  6 89  1  0  0  0
  6 90  1  0  0  0
  7  8  2  0  0  0
  7 26  1  0  0  0
  7 29  1  0  0  0
  8  9  1  0  0  0
  8 22  1  0  0  0
  9 10  1  0  0  0
  9 27  2  0  0  0
 10 11  2  0  0  0
 10 15  1  0  0  0
 11 12  1  0  0  0
 11 91  1  0  0  0
 12 13  2  0  0  0
 12 92  1  0  0  0
 13 14  1  0  0  0
 13 31  1  0  0  0
 14 15  2  0  0  0
 14 93  1  0  0  0
 15 94  1  0  0  0
 16 17  2  0  0  0
 16 21  1  0  0  0
 16 31  1  0  0  0
 17 18  1  0  0  0
 17 95  1  0  0  0
 18 19  2  0  0  0
 18 96  1  0  0  0
 19 20  1  0  0  0
 19 24  1  0  0  0
 20 21  2  0  0  0
 20 97  1  0  0  0
 21 23  1  0  0  0
 22 28  1  0  0  0
 22 32  2  0  0  0
 26 27  1  0  0  0
 28 98  1  0  0  0
 28 99  1  0  0  0
 29100  1  0  0  0
 29101  1  0  0  0
 33 34  1  0  0  0
 33 66  1  0  0  0
 33 70  2  0  0  0
 34 36  1  0  0  0
 34 59  1  0  0  0
 34102  1  0  0  0
 35 44  2  0  0  0
 35 45  1  0  0  0
 35 68  1  0  0  0
 36 56  1  0  0  0
 36103  1  0  0  0
 37 39  1  0  0  0
 37 47  1  0  0  0
 37 66  1  0  0  0
 37104  1  0  0  0
 38 43  2  0  0  0
 38 46  1  0  0  0
 38 47  1  0  0  0
 39 64  1  0  0  0
 39 67  2  0  0  0
 40 52  1  0  0  0
 40 53  2  0  0  0
 40 58  1  0  0  0
 41105  1  0  0  0
 41106  1  0  0  0
 41107  1  0  0  0
 41 48  1  0  0  0
 42 43  1  0  0  0
 42 66  1  0  0  0
 42108  1  0  0  0
 42109  1  0  0  0
 43 44  1  0  0  0
 44110  1  0  0  0
 45 46  2  0  0  0
 45111  1  0  0  0
 46112  1  0  0  0
 47113  1  0  0  0
 47114  1  0  0  0
 48 56  1  0  0  0
 48 65  1  0  0  0
 48115  1  0  0  0
 49 50  1  0  0  0
 49 53  1  0  0  0
 49 64  1  0  0  0
 49116  1  0  0  0
 50 51  1  0  0  0
 50117  1  0  0  0
 50118  1  0  0  0
 51 52  1  0  0  0
 51119  1  0  0  0
 51120  1  0  0  0
 52121  1  0  0  0
 52122  1  0  0  0
 53 54  1  0  0  0
 54 55  2  0  0  0
 54123  1  0  0  0
 55 57  1  0  0  0
 55124  1  0  0  0
 56 69  2  0  0  0
 57 58  2  0  0  0
 57125  1  0  0  0
 58126  1  0  0  0
 59 60  1  0  0  0
 59 61  1  0  0  0
 59 62  1  0  0  0
 60127  1  0  0  0
 60128  1  0  0  0
 60129  1  0  0  0
 61130  1  0  0  0
 61131  1  0  0  0
 61132  1  0  0  0
 62133  1  0  0  0
 62134  1  0  0  0
 62135  1  0  0  0
 63 65  1  0  0  0
 63136  1  0  0  0
 63137  1  0  0  0
 63138  1  0  0  0
 64139  1  0  0  0
 65140  1  0  0  0
 68 79  1  0  0  0
 71 73  2  0  0  0
 71 75  1  0  0  0
 71141  1  0  0  0
 72 74  1  0  0  0
 72 75  2  0  0  0
 72142  1  0  0  0
 73 76  1  0  0  0
 73143  1  0  0  0
 74 76  2  0  0  0
 74144  1  0  0  0
 75 80  1  0  0  0
 76 81  1  0  0  0
 77 78  1  0  0  0
 77145  1  0  0  0
 77146  1  0  0  0
 77147  1  0  0  0
 78148  1  0  0  0
 78149  1  0  0  0
 78 80  1  0  0  0
 79 80  1  0  0  0
 79150  1  0  0  0
 79151  1  0  0  0
 80152  1  0  0  0
 81153  1  0  0  0
M  ISO  4   1 100  68 101  79 101  81 100
M  END
> <chiral flag>
0

> <version>
0

> <s_m_source_file>
/data/baiqing/PycharmProjects/Reinvent-master-3.2/result/LINK_invent/BTK/process_docking_weight1_custom_sum_contain_oxygen_bond_distance_aromatic_linkinvent_7_9_3/rearranged_h_0130.sdf

> <i_m_source_file_index>
2

> <r_mmod_Potential_Energy-OPLS-2005>
1068.26867675781

> <r_mmod_Stretch_Energy-OPLS-2005>
458.56982421875

> <r_mmod_Bend_Energy-OPLS-2005>
412.585845947266

> <r_mmod_Torsional_Energy-OPLS-2005>
231.043350219727

> <r_mmod_Improper_Torsional_Energy-OPLS-2005>
6.58192539215088

> <r_mmod_Van_der_Waal_Energy-OPLS-2005>
126.586967468262

> <r_mmod_Electrostatic_Energy-OPLS-2005>
-343.191528320312

> <r_mmod_Solvation_Energy-OPLS-2005>
-206.146102905273

> <b_mmod_Minimization_Converged-OPLS-2005>
0

> <r_mmod_RMS_Derivative-OPLS-2005>
2.55830788612366

$$$$
2
                    3D
 Structure written by MMmdl.
160169  0  0  1  0            999 V2000
  -30.6644  -14.5154   20.5662 C   0  0  0  0  0  0
  -30.4314  -12.3335   19.4252 C   0  0  0  0  0  0
  -29.4975  -12.5135   18.2088 C   0  0  0  0  0  0
  -28.0193  -12.3619   18.6222 C   0  0  0  0  0  0
  -27.6602  -13.2043   19.8753 C   0  0  2  0  0  0
  -28.7028  -12.9912   20.9961 C   0  0  0  0  0  0
  -25.2586  -13.8150   20.5688 C   0  0  0  0  0  0
  -24.1836  -13.0437   20.9183 C   0  0  0  0  0  0
  -24.6385  -11.6897   20.8728 C   0  0  0  0  0  0
  -23.9049  -10.4289   21.0403 C   0  0  0  0  0  0
  -24.3606   -9.4206   21.9182 C   0  0  0  0  0  0
  -23.6284   -8.2242   22.0755 C   0  0  0  0  0  0
  -22.4266   -8.0278   21.3546 C   0  0  0  0  0  0
  -21.9899   -9.0249   20.4650 C   0  0  0  0  0  0
  -22.7225  -10.2129   20.3057 C   0  0  0  0  0  0
  -21.6849   -6.0732   22.5281 C   0  0  0  0  0  0
  -21.4012   -6.5638   23.8213 C   0  0  0  0  0  0
  -21.3660   -5.6792   24.9177 C   0  0  0  0  0  0
  -21.6045   -4.3057   24.7227 C   0  0  0  0  0  0
  -21.8819   -3.8145   23.4349 C   0  0  0  0  0  0
  -21.9192   -4.6957   22.3406 C   0  0  0  0  0  0
  -22.7859  -13.5233   21.1845 C   0  0  0  0  0  0
  -22.1660   -4.2145   21.0981 F   0  0  0  0  0  0
  -21.5631   -3.4541   25.7739 F   0  0  0  0  0  0
  -30.0281  -13.3168   20.4430 N   0  0  0  0  0  0
  -26.3010  -12.9309   20.3360 N   0  0  0  0  0  0
  -25.9312  -11.6471   20.5758 N   0  0  0  0  0  0
  -22.0498  -12.8233   22.0401 N   0  0  0  0  0  0
  -25.4325  -15.1868   20.4119 N   0  0  0  0  0  0
  -31.7956  -14.7235   20.1196 O   0  0  0  0  0  0
  -21.6638   -6.8871   21.4241 O   0  0  0  0  0  0
  -22.3557  -14.5554   20.6703 O   0  0  0  0  0  0
  -24.6171  -31.8654   23.2071 C   0  0  0  0  0  0
  -25.9048  -32.4813   23.8384 C   0  0  1  0  0  0
  -27.2390  -27.4093   20.1039 C   0  0  0  0  0  0
  -25.5882  -33.8612   24.2306 N   0  0  0  0  0  0
  -23.4098  -30.4863   21.5468 C   0  0  2  0  0  0
  -24.8622  -28.9498   20.1119 C   0  0  0  0  0  0
  -22.7431  -29.4639   22.4966 C   0  0  0  0  0  0
  -18.0272  -28.1370   22.8486 C   0  0  0  0  0  0
  -24.1491  -36.7318   23.2638 C   0  0  0  0  0  0
  -25.9414  -30.8229   21.3667 C   0  0  0  0  0  0
  -26.0235  -29.4560   20.7115 C   0  0  0  0  0  0
  -27.2189  -28.6927   20.7061 C   0  0  0  0  0  0
  -26.0662  -26.9288   19.4888 C   0  0  0  0  0  0
  -24.8801  -27.6871   19.4929 C   0  0  0  0  0  0
  -23.6224  -29.8159   20.1627 C   0  0  0  0  0  0
  -25.4106  -36.3105   24.0336 C   0  0  1  0  0  0
  -20.5867  -28.3675   23.1294 C   0  0  2  0  0  0
  -20.6764  -26.9408   22.5409 C   0  0  0  0  0  0
  -19.5745  -26.6384   21.5204 C   0  0  0  0  0  0
  -18.1924  -26.7920   22.1618 C   0  0  0  0  0  0
  -19.1526  -28.8836   23.2889 C   0  0  0  0  0  0
  -18.9453  -30.1437   23.8904 C   0  0  0  0  0  0
  -17.6461  -30.6582   24.0555 C   0  0  0  0  0  0
  -25.9033  -34.9471   23.5123 C   0  0  0  0  0  0
  -16.5350  -29.9082   23.6328 C   0  0  0  0  0  0
  -16.7263  -28.6496   23.0351 C   0  0  0  0  0  0
  -26.4461  -31.6595   25.0720 C   0  0  0  0  0  0
  -25.3721  -31.3709   26.1463 C   0  0  0  0  0  0
  -27.0303  -30.3036   24.6119 C   0  0  0  0  0  0
  -27.6034  -32.4323   25.7482 C   0  0  0  0  0  0
  -27.5588  -37.1797   24.8452 C   0  0  0  0  0  0
  -21.4154  -29.3039   22.3702 N   0  0  0  0  0  0
  -26.4290  -37.3789   23.9410 N   0  0  0  0  0  0
  -24.6741  -31.0726   22.0986 N   0  0  0  0  0  0
  -23.4184  -28.8180   23.3026 O   0  0  0  0  0  0
  -28.3459  -26.5812   20.1338 O   0  0  0  0  0  0
  -26.5612  -34.8927   22.4699 O   0  0  0  0  0  0
  -23.5345  -32.1398   23.7435 O   0  0  0  0  0  0
  -30.4606  -22.3977   21.2156 C   0  0  0  0  0  0
  -28.2376  -21.7785   20.4878 C   0  0  0  0  0  0
  -30.0833  -23.7651   21.2141 C   0  0  0  0  0  0
  -27.8613  -23.1463   20.4825 C   0  0  0  0  0  0
  -29.5320  -21.3739   20.8995 C   0  0  0  0  0  0
  -28.7640  -24.1571   20.8899 C   0  0  0  0  0  0
  -28.8542  -19.0656   21.8866 C   0  0  0  0  0  0
  -29.3538  -17.6410   22.2449 C   0  0  0  0  0  0
  -29.9912  -17.7044   19.7771 C   0  0  0  0  0  0
  -29.9061  -19.8774   21.0932 C   0  0  1  0  0  0
  -30.2104  -16.9689   21.1334 C   0  0  2  0  0  0
  -28.2627  -25.5890   21.1833 C   0  0  0  0  0  0
  -29.9028  -15.5199   21.0546 N   0  0  0  0  0  0
  -30.2598  -19.1766   19.8304 N   0  3  0  0  0  0
  -31.4745  -12.4506   19.1253 H   0  0  0  0  0  0
  -30.3488  -11.3220   19.8268 H   0  0  0  0  0  0
  -29.7456  -11.7886   17.4322 H   0  0  0  0  0  0
  -29.6542  -13.4993   17.7673 H   0  0  0  0  0  0
  -27.8390  -11.3049   18.8222 H   0  0  0  0  0  0
  -27.3665  -12.6278   17.7898 H   0  0  0  0  0  0
  -27.7004  -14.2509   19.5723 H   0  0  0  0  0  0
  -28.6909  -11.9531   21.3319 H   0  0  0  0  0  0
  -28.4596  -13.5835   21.8790 H   0  0  0  0  0  0
  -25.2750   -9.5686   22.4758 H   0  0  0  0  0  0
  -23.9996   -7.4634   22.7478 H   0  0  0  0  0  0
  -21.0831   -8.8765   19.8957 H   0  0  0  0  0  0
  -22.3679  -10.9667   19.6169 H   0  0  0  0  0  0
  -21.2003   -7.6146   23.9713 H   0  0  0  0  0  0
  -21.1485   -6.0525   25.9079 H   0  0  0  0  0  0
  -22.0597   -2.7607   23.2853 H   0  0  0  0  0  0
  -22.4098  -11.9874   22.4762 H   0  0  0  0  0  0
  -21.1126  -13.1276   22.2624 H   0  0  0  0  0  0
  -24.6661  -15.8417   20.5238 H   0  0  0  0  0  0
  -26.2839  -15.6266   20.0872 H   0  0  0  0  0  0
  -26.7126  -32.5509   23.1151 H   0  0  0  0  0  0
  -24.9997  -33.9771   25.0425 H   0  0  0  0  0  0
  -22.6996  -31.3026   21.4034 H   0  0  0  0  0  0
  -23.3751  -35.9652   23.3282 H   0  0  0  0  0  0
  -24.3581  -36.8949   22.2055 H   0  0  0  0  0  0
  -23.7250  -37.6519   23.6670 H   0  0  0  0  0  0
  -26.0555  -31.5902   20.5998 H   0  0  0  0  0  0
  -26.8275  -30.8763   21.9878 H   0  0  0  0  0  0
  -28.1120  -29.0720   21.1843 H   0  0  0  0  0  0
  -26.0701  -25.9548   19.0214 H   0  0  0  0  0  0
  -23.9897  -27.2919   19.0237 H   0  0  0  0  0  0
  -23.7267  -30.5878   19.3995 H   0  0  0  0  0  0
  -22.7482  -29.2316   19.8707 H   0  0  0  0  0  0
  -25.1281  -36.1960   25.0827 H   0  0  0  0  0  0
  -20.9954  -28.3249   24.1415 H   0  0  0  0  0  0
  -20.5648  -26.2289   23.3601 H   0  0  0  0  0  0
  -21.6635  -26.7433   22.1210 H   0  0  0  0  0  0
  -19.6910  -25.6296   21.1227 H   0  0  0  0  0  0
  -19.6683  -27.3195   20.6735 H   0  0  0  0  0  0
  -17.4192  -26.6657   21.4026 H   0  0  0  0  0  0
  -18.0323  -26.0054   22.9006 H   0  0  0  0  0  0
  -19.7934  -30.7237   24.2281 H   0  0  0  0  0  0
  -17.5024  -31.6261   24.5162 H   0  0  0  0  0  0
  -15.5351  -30.2990   23.7656 H   0  0  0  0  0  0
  -15.8655  -28.0821   22.7072 H   0  0  0  0  0  0
  -24.5892  -30.7061   25.7788 H   0  0  0  0  0  0
  -24.8914  -32.2869   26.4918 H   0  0  0  0  0  0
  -25.8066  -30.8867   27.0217 H   0  0  0  0  0  0
  -26.2861  -29.6787   24.1170 H   0  0  0  0  0  0
  -27.4057  -29.7282   25.4588 H   0  0  0  0  0  0
  -27.8698  -30.4344   23.9287 H   0  0  0  0  0  0
  -27.2662  -33.3628   26.2065 H   0  0  0  0  0  0
  -28.3844  -32.6870   25.0305 H   0  0  0  0  0  0
  -28.0704  -31.8439   26.5388 H   0  0  0  0  0  0
  -28.2571  -38.0128   24.7537 H   0  0  0  0  0  0
  -28.1124  -36.2658   24.6233 H   0  0  0  0  0  0
  -27.2308  -37.1375   25.8853 H   0  0  0  0  0  0
  -20.9317  -29.8788   21.6941 H   0  0  0  0  0  0
  -26.0179  -38.2864   24.1428 H   0  0  0  0  0  0
  -31.4632  -22.1384   21.5276 H   0  0  0  0  0  0
  -27.4961  -21.0347   20.2285 H   0  0  0  0  0  0
  -30.7974  -24.5104   21.5363 H   0  0  0  0  0  0
  -26.8431  -23.4111   20.2348 H   0  0  0  0  0  0
  -28.5938  -19.5944   22.8039 H   0  0  0  0  0  0
  -27.9300  -18.9953   21.3118 H   0  0  0  0  0  0
  -28.4784  -17.0342   22.4820 H   0  0  0  0  0  0
  -29.9367  -17.6781   23.1659 H   0  0  0  0  0  0
  -28.9581  -17.5612   19.4556 H   0  0  0  0  0  0
  -30.6126  -17.2631   18.9968 H   0  0  0  0  0  0
  -30.8129  -19.8647   21.7009 H   0  0  0  0  0  0
  -31.2631  -17.0722   21.4061 H   0  0  0  0  0  0
  -28.8202  -25.9713   22.0388 H   0  0  0  0  0  0
  -27.2379  -25.4861   21.5474 H   0  0  0  0  0  0
  -28.9862  -15.2382   21.3698 H   0  0  0  0  0  0
  -29.7595  -19.6111   19.0735 H   0  0  0  0  0  0
  -31.2386  -19.3369   19.6598 H   0  0  0  0  0  0
  1 25  1  0  0  0
  1 30  2  0  0  0
  1 83  1  0  0  0
  2  3  1  0  0  0
  2 25  1  0  0  0
  2 85  1  0  0  0
  2 86  1  0  0  0
  3  4  1  0  0  0
  3 87  1  0  0  0
  3 88  1  0  0  0
  4  5  1  0  0  0
  4 89  1  0  0  0
  4 90  1  0  0  0
  5  6  1  0  0  0
  5 26  1  0  0  0
  5 91  1  0  0  0
  6 25  1  0  0  0
  6 92  1  0  0  0
  6 93  1  0  0  0
  7  8  2  0  0  0
  7 26  1  0  0  0
  7 29  1  0  0  0
  8  9  1  0  0  0
  8 22  1  0  0  0
  9 10  1  0  0  0
  9 27  2  0  0  0
 10 11  2  0  0  0
 10 15  1  0  0  0
 11 12  1  0  0  0
 11 94  1  0  0  0
 12 13  2  0  0  0
 12 95  1  0  0  0
 13 14  1  0  0  0
 13 31  1  0  0  0
 14 15  2  0  0  0
 14 96  1  0  0  0
 15 97  1  0  0  0
 16 17  2  0  0  0
 16 21  1  0  0  0
 16 31  1  0  0  0
 17 18  1  0  0  0
 17 98  1  0  0  0
 18 19  2  0  0  0
 18 99  1  0  0  0
 19 20  1  0  0  0
 19 24  1  0  0  0
 20 21  2  0  0  0
 20100  1  0  0  0
 21 23  1  0  0  0
 22 28  1  0  0  0
 22 32  2  0  0  0
 26 27  1  0  0  0
 28101  1  0  0  0
 28102  1  0  0  0
 29103  1  0  0  0
 29104  1  0  0  0
 33 34  1  0  0  0
 33 66  1  0  0  0
 33 70  2  0  0  0
 34 36  1  0  0  0
 34 59  1  0  0  0
 34105  1  0  0  0
 35 44  2  0  0  0
 35 45  1  0  0  0
 35 68  1  0  0  0
 36 56  1  0  0  0
 36106  1  0  0  0
 37 39  1  0  0  0
 37 47  1  0  0  0
 37 66  1  0  0  0
 37107  1  0  0  0
 38 43  2  0  0  0
 38 46  1  0  0  0
 38 47  1  0  0  0
 39 64  1  0  0  0
 39 67  2  0  0  0
 40 52  1  0  0  0
 40 53  2  0  0  0
 40 58  1  0  0  0
 41108  1  0  0  0
 41109  1  0  0  0
 41110  1  0  0  0
 41 48  1  0  0  0
 42 43  1  0  0  0
 42 66  1  0  0  0
 42111  1  0  0  0
 42112  1  0  0  0
 43 44  1  0  0  0
 44113  1  0  0  0
 45 46  2  0  0  0
 45114  1  0  0  0
 46115  1  0  0  0
 47116  1  0  0  0
 47117  1  0  0  0
 48 56  1  0  0  0
 48 65  1  0  0  0
 48118  1  0  0  0
 49 50  1  0  0  0
 49 53  1  0  0  0
 49 64  1  0  0  0
 49119  1  0  0  0
 50 51  1  0  0  0
 50120  1  0  0  0
 50121  1  0  0  0
 51 52  1  0  0  0
 51122  1  0  0  0
 51123  1  0  0  0
 52124  1  0  0  0
 52125  1  0  0  0
 53 54  1  0  0  0
 54 55  2  0  0  0
 54126  1  0  0  0
 55 57  1  0  0  0
 55127  1  0  0  0
 56 69  2  0  0  0
 57 58  2  0  0  0
 57128  1  0  0  0
 58129  1  0  0  0
 59 60  1  0  0  0
 59 61  1  0  0  0
 59 62  1  0  0  0
 60130  1  0  0  0
 60131  1  0  0  0
 60132  1  0  0  0
 61133  1  0  0  0
 61134  1  0  0  0
 61135  1  0  0  0
 62136  1  0  0  0
 62137  1  0  0  0
 62138  1  0  0  0
 63 65  1  0  0  0
 63139  1  0  0  0
 63140  1  0  0  0
 63141  1  0  0  0
 64142  1  0  0  0
 65143  1  0  0  0
 68 82  1  0  0  0
 71 73  2  0  0  0
 71 75  1  0  0  0
 71144  1  0  0  0
 72 74  1  0  0  0
 72 75  2  0  0  0
 72145  1  0  0  0
 73 76  1  0  0  0
 73146  1  0  0  0
 74 76  2  0  0  0
 74147  1  0  0  0
 75 80  1  0  0  0
 76 82  1  0  0  0
 77 78  1  0  0  0
 77 80  1  0  0  0
 77148  1  0  0  0
 77149  1  0  0  0
 78 81  1  0  0  0
 78150  1  0  0  0
 78151  1  0  0  0
 79 81  1  0  0  0
 79 84  1  0  0  0
 79152  1  0  0  0
 79153  1  0  0  0
 80 84  1  0  0  0
 80154  1  0  0  0
 81 83  1  0  0  0
 81155  1  0  0  0
 82156  1  0  0  0
 82157  1  0  0  0
 83158  1  0  0  0
 84159  1  0  0  0
 84160  1  0  0  0
M  CHG  1  84   1
M  ISO  4   1 100  68 101  82 101  83 100
M  END
> <chiral flag>
0

> <version>
0

> <s_m_source_file>
/data/baiqing/PycharmProjects/Reinvent-master-3.2/result/LINK_invent/BTK/process_docking_weight1_custom_sum_contain_oxygen_bond_distance_aromatic_linkinvent_7_9_3/rearranged_h_0130.sdf

> <i_m_source_file_index>
3

> <r_mmod_Potential_Energy-OPLS-2005>
-209.916015625

> <r_mmod_Stretch_Energy-OPLS-2005>
46.7489776611328

> <r_mmod_Bend_Energy-OPLS-2005>
100.099815368652

> <r_mmod_Torsional_Energy-OPLS-2005>
279.409149169922

> <r_mmod_Improper_Torsional_Energy-OPLS-2005>
5.2481541633606

> <r_mmod_Van_der_Waal_Energy-OPLS-2005>
149.595352172852

> <r_mmod_Electrostatic_Energy-OPLS-2005>
-343.132873535156

> <r_mmod_Solvation_Energy-OPLS-2005>
-467.805419921875

> <b_mmod_Minimization_Converged-OPLS-2005>
0

> <r_mmod_RMS_Derivative-OPLS-2005>
1.40879642963409

$$$$
3
                    3D
 Structure written by MMmdl.
158168  0  0  1  0            999 V2000
  -30.5183  -15.0785   20.3712 C   0  0  0  0  0  0
  -30.4371  -12.6728   19.5023 C   0  0  0  0  0  0
  -29.5222  -12.5276   18.2623 C   0  0  0  0  0  0
  -28.0619  -12.2892   18.6873 C   0  0  0  0  0  0
  -27.6137  -13.2530   19.8140 C   0  0  2  0  0  0
  -28.6531  -13.3525   20.9498 C   0  0  0  0  0  0
  -25.2410  -13.8225   20.5701 C   0  0  0  0  0  0
  -24.1743  -13.0448   20.9234 C   0  0  0  0  0  0
  -24.6361  -11.6932   20.8733 C   0  0  0  0  0  0
  -23.9050  -10.4297   21.0396 C   0  0  0  0  0  0
  -24.3611   -9.4216   21.9163 C   0  0  0  0  0  0
  -23.6287   -8.2262   22.0741 C   0  0  0  0  0  0
  -22.4275   -8.0287   21.3531 C   0  0  0  0  0  0
  -21.9889   -9.0264   20.4635 C   0  0  0  0  0  0
  -22.7220  -10.2142   20.3048 C   0  0  0  0  0  0
  -21.6852   -6.0729   22.5264 C   0  0  0  0  0  0
  -21.4013   -6.5616   23.8203 C   0  0  0  0  0  0
  -21.3666   -5.6766   24.9160 C   0  0  0  0  0  0
  -21.6062   -4.3040   24.7193 C   0  0  0  0  0  0
  -21.8828   -3.8130   23.4323 C   0  0  0  0  0  0
  -21.9193   -4.6952   22.3386 C   0  0  0  0  0  0
  -22.7770  -13.5240   21.1877 C   0  0  0  0  0  0
  -22.1665   -4.2150   21.0955 F   0  0  0  0  0  0
  -21.5637   -3.4504   25.7704 F   0  0  0  0  0  0
  -29.9170  -13.8023   20.3422 N   0  0  0  0  0  0
  -26.2789  -12.9447   20.3133 N   0  0  0  0  0  0
  -25.9276  -11.6579   20.5655 N   0  0  0  0  0  0
  -22.0405  -12.8243   22.0437 N   0  0  0  0  0  0
  -25.4085  -15.1954   20.4156 N   0  0  0  0  0  0
  -31.7419  -15.0524   20.1666 O   0  0  0  0  0  0
  -21.6645   -6.8882   21.4238 O   0  0  0  0  0  0
  -22.3467  -14.5532   20.6690 O   0  0  0  0  0  0
  -24.6518  -31.8378   23.1851 C   0  0  0  0  0  0
  -25.9262  -32.4670   23.8263 C   0  0  1  0  0  0
  -27.1957  -27.0424   20.1527 C   0  0  0  0  0  0
  -25.5977  -33.8487   24.2182 N   0  0  0  0  0  0
  -23.4587  -30.4574   21.5353 C   0  0  2  0  0  0
  -24.9038  -28.8728   20.1113 C   0  0  0  0  0  0
  -22.7617  -29.4520   22.4868 C   0  0  0  0  0  0
  -18.0325  -28.1394   22.8479 C   0  0  0  0  0  0
  -24.1494  -36.7239   23.2625 C   0  0  0  0  0  0
  -26.0231  -30.6759   21.4022 C   0  0  0  0  0  0
  -26.0874  -29.2802   20.7411 C   0  0  0  0  0  0
  -27.2340  -28.3837   20.7427 C   0  0  0  0  0  0
  -25.9877  -26.7682   19.4725 C   0  0  0  0  0  0
  -24.8732  -27.6348   19.4598 C   0  0  0  0  0  0
  -23.6874  -29.7890   20.1549 C   0  0  0  0  0  0
  -25.4131  -36.3030   24.0303 C   0  0  1  0  0  0
  -20.5942  -28.3735   23.1218 C   0  0  2  0  0  0
  -20.6820  -26.9432   22.5406 C   0  0  0  0  0  0
  -19.5786  -26.6372   21.5224 C   0  0  0  0  0  0
  -18.1966  -26.7934   22.1632 C   0  0  0  0  0  0
  -19.1583  -28.8887   23.2832 C   0  0  0  0  0  0
  -18.9492  -30.1481   23.8855 C   0  0  0  0  0  0
  -17.6482  -30.6596   24.0553 C   0  0  0  0  0  0
  -25.9095  -34.9395   23.5065 C   0  0  0  0  0  0
  -16.5375  -29.9078   23.6332 C   0  0  0  0  0  0
  -16.7303  -28.6491   23.0366 C   0  0  0  0  0  0
  -26.4537  -31.6563   25.0746 C   0  0  0  0  0  0
  -25.3669  -31.3804   26.1412 C   0  0  0  0  0  0
  -27.0396  -30.2937   24.6390 C   0  0  0  0  0  0
  -27.6116  -32.4282   25.7502 C   0  0  0  0  0  0
  -27.5602  -37.1747   24.8438 C   0  0  0  0  0  0
  -21.4307  -29.3041   22.3599 N   0  0  0  0  0  0
  -26.4286  -37.3757   23.9421 N   0  0  0  0  0  0
  -24.7323  -31.0136   22.0945 N   0  0  0  0  0  0
  -23.4217  -28.8068   23.3053 O   0  0  0  0  0  0
  -28.2118  -25.9874   20.1853 O   0  0  0  0  0  0
  -26.5697  -34.8886   22.4653 O   0  0  0  0  0  0
  -23.5614  -32.1321   23.7000 O   0  0  0  0  0  0
  -29.9608  -23.1038   19.3424 C   0  0  0  0  0  0
  -31.0763  -18.3214   19.3584 C   0  0  0  0  0  0
  -28.7650  -23.0444   20.0896 C   0  0  0  0  0  0
  -28.4633  -21.6243   20.4919 C   0  0  0  0  0  0
  -30.4585  -20.7577   19.4139 C   0  0  0  0  0  0
  -29.3053  -20.4181   20.1708 C   0  0  0  0  0  0
  -31.3065  -19.6800   19.0385 C   0  0  0  0  0  0
  -29.9746  -17.8559   20.1447 C   0  0  0  0  0  0
  -32.1341  -17.5091   18.6609 C   0  0  0  0  0  0
  -32.7800  -18.5373   17.7174 C   0  0  0  0  0  0
  -27.1892  -21.4038   21.2801 C   0  0  0  0  0  0
  -27.8318  -24.4382   20.2922 C   0  0  0  0  0  0
  -30.7521  -22.0368   19.0287 N   0  0  0  0  0  0
  -29.1353  -19.0014   20.4870 N   0  3  0  0  0  0
  -32.4485  -19.8595   18.2399 N   0  0  0  0  0  0
  -29.7591  -16.3189   20.4595 N   0  0  0  0  0  0
  -31.4620  -12.8467   19.1729 H   0  0  0  0  0  0
  -30.4679  -11.7454   20.0763 H   0  0  0  0  0  0
  -29.8617  -11.7017   17.6333 H   0  0  0  0  0  0
  -29.5855  -13.4270   17.6493 H   0  0  0  0  0  0
  -27.9855  -11.2574   19.0334 H   0  0  0  0  0  0
  -27.4000  -12.3715   17.8245 H   0  0  0  0  0  0
  -27.5485  -14.2305   19.3349 H   0  0  0  0  0  0
  -28.7654  -12.3897   21.4531 H   0  0  0  0  0  0
  -28.3210  -14.0567   21.7128 H   0  0  0  0  0  0
  -25.2760   -9.5682   22.4732 H   0  0  0  0  0  0
  -23.9982   -7.4637   22.7458 H   0  0  0  0  0  0
  -21.0818   -8.8785   19.8940 H   0  0  0  0  0  0
  -22.3675  -10.9674   19.6162 H   0  0  0  0  0  0
  -21.2003   -7.6128   23.9692 H   0  0  0  0  0  0
  -21.1489   -6.0501   25.9058 H   0  0  0  0  0  0
  -22.0602   -2.7592   23.2827 H   0  0  0  0  0  0
  -22.3998  -11.9944   22.4897 H   0  0  0  0  0  0
  -21.1016  -13.1294   22.2608 H   0  0  0  0  0  0
  -24.6338  -15.8394   20.5324 H   0  0  0  0  0  0
  -26.2134  -15.6250   19.9797 H   0  0  0  0  0  0
  -26.7330  -32.5228   23.0987 H   0  0  0  0  0  0
  -25.0053  -33.9598   25.0279 H   0  0  0  0  0  0
  -22.7635  -31.2860   21.3827 H   0  0  0  0  0  0
  -23.3801  -35.9522   23.3223 H   0  0  0  0  0  0
  -24.3576  -36.8949   22.2054 H   0  0  0  0  0  0
  -23.7181  -37.6379   23.6712 H   0  0  0  0  0  0
  -26.1978  -31.4268   20.6307 H   0  0  0  0  0  0
  -26.8847  -30.7194   22.0563 H   0  0  0  0  0  0
  -28.1299  -28.6902   21.2636 H   0  0  0  0  0  0
  -25.8572  -25.8411   18.9368 H   0  0  0  0  0  0
  -23.9768  -27.3301   18.9381 H   0  0  0  0  0  0
  -23.8304  -30.5660   19.4026 H   0  0  0  0  0  0
  -22.7966  -29.2408   19.8436 H   0  0  0  0  0  0
  -25.1309  -36.1861   25.0788 H   0  0  0  0  0  0
  -21.0007  -28.3324   24.1345 H   0  0  0  0  0  0
  -20.5740  -26.2336   23.3623 H   0  0  0  0  0  0
  -21.6684  -26.7456   22.1185 H   0  0  0  0  0  0
  -19.6957  -25.6267   21.1286 H   0  0  0  0  0  0
  -19.6720  -27.3157   20.6729 H   0  0  0  0  0  0
  -17.4235  -26.6671   21.4037 H   0  0  0  0  0  0
  -18.0367  -26.0080   22.9027 H   0  0  0  0  0  0
  -19.7957  -30.7333   24.2192 H   0  0  0  0  0  0
  -17.5024  -31.6268   24.5165 H   0  0  0  0  0  0
  -15.5373  -30.2970   23.7667 H   0  0  0  0  0  0
  -15.8703  -28.0787   22.7115 H   0  0  0  0  0  0
  -24.5796  -30.7242   25.7677 H   0  0  0  0  0  0
  -24.8921  -32.3016   26.4797 H   0  0  0  0  0  0
  -25.7857  -30.8931   27.0226 H   0  0  0  0  0  0
  -26.3029  -29.6649   24.1376 H   0  0  0  0  0  0
  -27.3957  -29.7255   25.4997 H   0  0  0  0  0  0
  -27.8972  -30.4162   23.9772 H   0  0  0  0  0  0
  -27.2793  -33.3603   26.2073 H   0  0  0  0  0  0
  -28.3920  -32.6787   25.0308 H   0  0  0  0  0  0
  -28.0794  -31.8393   26.5405 H   0  0  0  0  0  0
  -28.2556  -38.0113   24.7618 H   0  0  0  0  0  0
  -28.1175  -36.2662   24.6111 H   0  0  0  0  0  0
  -27.2326  -37.1177   25.8830 H   0  0  0  0  0  0
  -20.9542  -29.8706   21.6724 H   0  0  0  0  0  0
  -26.0167  -38.2815   24.1480 H   0  0  0  0  0  0
  -30.2897  -24.0583   18.9554 H   0  0  0  0  0  0
  -31.7353  -16.6574   18.1092 H   0  0  0  0  0  0
  -32.8673  -17.1652   19.3891 H   0  0  0  0  0  0
  -32.3475  -18.4504   16.7186 H   0  0  0  0  0  0
  -33.8567  -18.3895   17.6161 H   0  0  0  0  0  0
  -26.3516  -21.9110   20.8009 H   0  0  0  0  0  0
  -27.3051  -21.8032   22.2876 H   0  0  0  0  0  0
  -26.9396  -20.3468   21.3611 H   0  0  0  0  0  0
  -27.3650  -24.3328   21.2739 H   0  0  0  0  0  0
  -27.0191  -24.2584   19.5916 H   0  0  0  0  0  0
  -28.2958  -18.7783   21.0295 H   0  0  0  0  0  0
  -32.3739  -20.6558   17.6097 H   0  0  0  0  0  0
  -28.8200  -16.1172   20.7506 H   0  0  0  0  0  0
  1 25  1  0  0  0
  1 30  2  0  0  0
  1 86  1  0  0  0
  2  3  1  0  0  0
  2 25  1  0  0  0
  2 87  1  0  0  0
  2 88  1  0  0  0
  3  4  1  0  0  0
  3 89  1  0  0  0
  3 90  1  0  0  0
  4  5  1  0  0  0
  4 91  1  0  0  0
  4 92  1  0  0  0
  5  6  1  0  0  0
  5 26  1  0  0  0
  5 93  1  0  0  0
  6 25  1  0  0  0
  6 94  1  0  0  0
  6 95  1  0  0  0
  7  8  2  0  0  0
  7 26  1  0  0  0
  7 29  1  0  0  0
  8  9  1  0  0  0
  8 22  1  0  0  0
  9 10  1  0  0  0
  9 27  2  0  0  0
 10 11  2  0  0  0
 10 15  1  0  0  0
 11 12  1  0  0  0
 11 96  1  0  0  0
 12 13  2  0  0  0
 12 97  1  0  0  0
 13 14  1  0  0  0
 13 31  1  0  0  0
 14 15  2  0  0  0
 14 98  1  0  0  0
 15 99  1  0  0  0
 16 17  2  0  0  0
 16 21  1  0  0  0
 16 31  1  0  0  0
 17 18  1  0  0  0
 17100  1  0  0  0
 18 19  2  0  0  0
 18101  1  0  0  0
 19 20  1  0  0  0
 19 24  1  0  0  0
 20 21  2  0  0  0
 20102  1  0  0  0
 21 23  1  0  0  0
 22 28  1  0  0  0
 22 32  2  0  0  0
 26 27  1  0  0  0
 28103  1  0  0  0
 28104  1  0  0  0
 29105  1  0  0  0
 29106  1  0  0  0
 33 34  1  0  0  0
 33 66  1  0  0  0
 33 70  2  0  0  0
 34 36  1  0  0  0
 34 59  1  0  0  0
 34107  1  0  0  0
 35 44  2  0  0  0
 35 45  1  0  0  0
 35 68  1  0  0  0
 36 56  1  0  0  0
 36108  1  0  0  0
 37 39  1  0  0  0
 37 47  1  0  0  0
 37 66  1  0  0  0
 37109  1  0  0  0
 38 43  2  0  0  0
 38 46  1  0  0  0
 38 47  1  0  0  0
 39 64  1  0  0  0
 39 67  2  0  0  0
 40 52  1  0  0  0
 40 53  2  0  0  0
 40 58  1  0  0  0
 41110  1  0  0  0
 41111  1  0  0  0
 41112  1  0  0  0
 41 48  1  0  0  0
 42 43  1  0  0  0
 42 66  1  0  0  0
 42113  1  0  0  0
 42114  1  0  0  0
 43 44  1  0  0  0
 44115  1  0  0  0
 45 46  2  0  0  0
 45116  1  0  0  0
 46117  1  0  0  0
 47118  1  0  0  0
 47119  1  0  0  0
 48 56  1  0  0  0
 48 65  1  0  0  0
 48120  1  0  0  0
 49 50  1  0  0  0
 49 53  1  0  0  0
 49 64  1  0  0  0
 49121  1  0  0  0
 50 51  1  0  0  0
 50122  1  0  0  0
 50123  1  0  0  0
 51 52  1  0  0  0
 51124  1  0  0  0
 51125  1  0  0  0
 52126  1  0  0  0
 52127  1  0  0  0
 53 54  1  0  0  0
 54 55  2  0  0  0
 54128  1  0  0  0
 55 57  1  0  0  0
 55129  1  0  0  0
 56 69  2  0  0  0
 57 58  2  0  0  0
 57130  1  0  0  0
 58131  1  0  0  0
 59 60  1  0  0  0
 59 61  1  0  0  0
 59 62  1  0  0  0
 60132  1  0  0  0
 60133  1  0  0  0
 60134  1  0  0  0
 61135  1  0  0  0
 61136  1  0  0  0
 61137  1  0  0  0
 62138  1  0  0  0
 62139  1  0  0  0
 62140  1  0  0  0
 63 65  1  0  0  0
 63141  1  0  0  0
 63142  1  0  0  0
 63143  1  0  0  0
 64144  1  0  0  0
 65145  1  0  0  0
 68 82  1  0  0  0
 71 73  2  0  0  0
 71 83  1  0  0  0
 71146  1  0  0  0
 72 77  2  0  0  0
 72 78  1  0  0  0
 72 79  1  0  0  0
 73 74  1  0  0  0
 73 82  1  0  0  0
 74 76  2  0  0  0
 74 81  1  0  0  0
 75 76  1  0  0  0
 75 77  1  0  0  0
 75 83  2  0  0  0
 76 84  1  0  0  0
 77 85  1  0  0  0
 78 84  2  0  0  0
 78 86  1  0  0  0
 79 80  1  0  0  0
 79147  1  0  0  0
 79148  1  0  0  0
 80 85  1  0  0  0
 80149  1  0  0  0
 80150  1  0  0  0
 81151  1  0  0  0
 81152  1  0  0  0
 81153  1  0  0  0
 82154  1  0  0  0
 82155  1  0  0  0
 84156  1  0  0  0
 85157  1  0  0  0
 86158  1  0  0  0
M  CHG  1  84   1
M  ISO  4   1 100  68 101  82 101  86 100
M  END
> <chiral flag>
0

> <version>
0

> <s_m_source_file>
/data/baiqing/PycharmProjects/Reinvent-master-3.2/result/LINK_invent/BTK/process_docking_weight1_custom_sum_contain_oxygen_bond_distance_aromatic_linkinvent_7_9_3/rearranged_h_0130.sdf

> <i_m_source_file_index>
4

> <r_mmod_Potential_Energy-OPLS-2005>
849.018249511719

> <r_mmod_Stretch_Energy-OPLS-2005>
361.436828613281

> <r_mmod_Bend_Energy-OPLS-2005>
329.398071289062

> <r_mmod_Torsional_Energy-OPLS-2005>
241.029251098633

> <r_mmod_Improper_Torsional_Energy-OPLS-2005>
8.8881950378418

> <r_mmod_Van_der_Waal_Energy-OPLS-2005>
149.261306762695

> <r_mmod_Electrostatic_Energy-OPLS-2005>
-103.543869018555

> <r_mmod_Solvation_Energy-OPLS-2005>
-426.020202636719

> <b_mmod_Minimization_Converged-OPLS-2005>
0

> <r_mmod_RMS_Derivative-OPLS-2005>
3.57292413711548

$$$$
4
                    3D
 Structure written by MMmdl.
168178  0  0  1  0            999 V2000
  -30.5105  -14.9244   20.4421 C   0  0  0  0  0  0
  -30.4557  -12.5708   19.4961 C   0  0  0  0  0  0
  -29.5276  -12.5384   18.2567 C   0  0  0  0  0  0
  -28.0590  -12.3233   18.6708 C   0  0  0  0  0  0
  -27.6408  -13.2385   19.8509 C   0  0  2  0  0  0
  -28.6853  -13.2185   20.9896 C   0  0  0  0  0  0
  -25.2514  -13.8201   20.5716 C   0  0  0  0  0  0
  -24.1807  -13.0441   20.9212 C   0  0  0  0  0  0
  -24.6400  -11.6921   20.8741 C   0  0  0  0  0  0
  -23.9074  -10.4294   21.0398 C   0  0  0  0  0  0
  -24.3622   -9.4207   21.9175 C   0  0  0  0  0  0
  -23.6292   -8.2246   22.0752 C   0  0  0  0  0  0
  -22.4275   -8.0280   21.3543 C   0  0  0  0  0  0
  -21.9911   -9.0254   20.4645 C   0  0  0  0  0  0
  -22.7244  -10.2130   20.3049 C   0  0  0  0  0  0
  -21.6858   -6.0730   22.5276 C   0  0  0  0  0  0
  -21.4019   -6.5635   23.8208 C   0  0  0  0  0  0
  -21.3662   -5.6790   24.9172 C   0  0  0  0  0  0
  -21.6045   -4.3053   24.7227 C   0  0  0  0  0  0
  -21.8820   -3.8142   23.4350 C   0  0  0  0  0  0
  -21.9193   -4.6956   22.3403 C   0  0  0  0  0  0
  -22.7825  -13.5220   21.1874 C   0  0  0  0  0  0
  -22.1659   -4.2140   21.0980 F   0  0  0  0  0  0
  -21.5629   -3.4538   25.7742 F   0  0  0  0  0  0
  -29.9698  -13.6411   20.4103 N   0  0  0  0  0  0
  -26.2941  -12.9412   20.3285 N   0  0  0  0  0  0
  -25.9336  -11.6549   20.5742 N   0  0  0  0  0  0
  -22.0475  -12.8205   22.0423 N   0  0  0  0  0  0
  -25.4198  -15.1934   20.4156 N   0  0  0  0  0  0
  -31.6831  -15.0767   20.0832 O   0  0  0  0  0  0
  -21.6642   -6.8874   21.4237 O   0  0  0  0  0  0
  -22.3502  -14.5522   20.6718 O   0  0  0  0  0  0
  -24.6424  -31.8436   23.1877 C   0  0  0  0  0  0
  -25.9195  -32.4692   23.8273 C   0  0  1  0  0  0
  -27.2227  -27.1410   20.1507 C   0  0  0  0  0  0
  -25.5945  -33.8501   24.2189 N   0  0  0  0  0  0
  -23.4463  -30.4612   21.5337 C   0  0  2  0  0  0
  -24.8978  -28.8903   20.1094 C   0  0  0  0  0  0
  -22.7558  -29.4534   22.4864 C   0  0  0  0  0  0
  -18.0302  -28.1376   22.8469 C   0  0  0  0  0  0
  -24.1488  -36.7259   23.2638 C   0  0  0  0  0  0
  -26.0007  -30.7200   21.3852 C   0  0  0  0  0  0
  -26.0748  -29.3317   20.7268 C   0  0  0  0  0  0
  -27.2377  -28.4737   20.7295 C   0  0  0  0  0  0
  -26.0180  -26.8008   19.4949 C   0  0  0  0  0  0
  -24.8822  -27.6389   19.4774 C   0  0  0  0  0  0
  -23.6717  -29.7885   20.1538 C   0  0  0  0  0  0
  -25.4117  -36.3029   24.0313 C   0  0  1  0  0  0
  -20.5913  -28.3705   23.1224 C   0  0  2  0  0  0
  -20.6782  -26.9404   22.5398 C   0  0  0  0  0  0
  -19.5766  -26.6367   21.5195 C   0  0  0  0  0  0
  -18.1943  -26.7917   22.1604 C   0  0  0  0  0  0
  -19.1560  -28.8858   23.2838 C   0  0  0  0  0  0
  -18.9479  -30.1456   23.8861 C   0  0  0  0  0  0
  -17.6477  -30.6576   24.0547 C   0  0  0  0  0  0
  -25.9071  -34.9406   23.5060 C   0  0  0  0  0  0
  -16.5366  -29.9066   23.6334 C   0  0  0  0  0  0
  -16.7288  -28.6486   23.0351 C   0  0  0  0  0  0
  -26.4523  -31.6561   25.0713 C   0  0  0  0  0  0
  -25.3697  -31.3754   26.1402 C   0  0  0  0  0  0
  -27.0390  -30.2953   24.6302 C   0  0  0  0  0  0
  -27.6051  -32.4332   25.7498 C   0  0  0  0  0  0
  -27.5581  -37.1773   24.8453 C   0  0  0  0  0  0
  -21.4251  -29.3038   22.3609 N   0  0  0  0  0  0
  -26.4277  -37.3746   23.9419 N   0  0  0  0  0  0
  -24.7162  -31.0292   22.0912 N   0  0  0  0  0  0
  -23.4199  -28.8075   23.3008 O   0  0  0  0  0  0
  -28.2797  -26.1595   20.2234 O   0  0  0  0  0  0
  -26.5661  -34.8899   22.4641 O   0  0  0  0  0  0
  -23.5544  -32.1320   23.7094 O   0  0  0  0  0  0
  -28.6184  -18.2006   21.5225 C   0  0  0  0  0  0
  -30.2119  -18.4954   19.8428 C   0  0  0  0  0  0
  -28.2790  -19.6127   21.4653 C   0  0  0  0  0  0
  -29.5672  -17.5329   20.6936 C   0  0  0  0  0  0
  -28.9446  -20.4818   20.5269 C   0  0  0  0  0  0
  -24.8321  -20.8033   22.7443 C   0  0  0  0  0  0
  -25.1279  -19.6728   23.7271 C   0  0  0  0  0  0
  -27.8409  -21.2399   24.9065 C   0  0  0  0  0  0
  -29.0957  -20.6970   24.2722 C   0  0  0  0  0  0
  -26.0198  -20.8511   21.7754 C   0  0  0  0  0  0
  -26.4595  -19.0732   23.2639 C   0  0  0  0  0  0
  -27.9535  -21.1641   23.3938 C   0  0  0  0  0  0
  -27.2252  -20.1695   22.4695 C   0  0  0  0  0  0
  -29.0114  -23.3081   20.3535 C   0  0  0  0  0  0
  -27.9947  -24.6335   20.0898 C   0  0  0  0  0  0
  -29.9196  -19.8689   19.7683 N   0  0  0  0  0  0
  -29.6527  -16.0008   20.7663 N   0  0  0  0  0  0
  -28.4608  -21.8564   20.2405 N   0  0  0  0  0  0
  -31.4877  -12.7440   19.1858 H   0  0  0  0  0  0
  -30.4554  -11.6057   20.0058 H   0  0  0  0  0  0
  -29.8427  -11.7535   17.5678 H   0  0  0  0  0  0
  -29.6157  -13.4792   17.7106 H   0  0  0  0  0  0
  -27.9490  -11.2775   18.9603 H   0  0  0  0  0  0
  -27.3965  -12.4740   17.8174 H   0  0  0  0  0  0
  -27.6181  -14.2502   19.4453 H   0  0  0  0  0  0
  -28.7659  -12.2233   21.4300 H   0  0  0  0  0  0
  -28.3854  -13.8828   21.8013 H   0  0  0  0  0  0
  -25.2768   -9.5688   22.4743 H   0  0  0  0  0  0
  -24.0003   -7.4645   22.7482 H   0  0  0  0  0  0
  -21.0839   -8.8777   19.8956 H   0  0  0  0  0  0
  -22.3703  -10.9665   19.6158 H   0  0  0  0  0  0
  -21.2012   -7.6144   23.9710 H   0  0  0  0  0  0
  -21.1483   -6.0521   25.9074 H   0  0  0  0  0  0
  -22.0596   -2.7603   23.2859 H   0  0  0  0  0  0
  -22.4101  -11.9868   22.4808 H   0  0  0  0  0  0
  -21.1084  -13.1211   22.2625 H   0  0  0  0  0  0
  -24.6484  -15.8423   20.5272 H   0  0  0  0  0  0
  -26.2579  -15.6349   20.0611 H   0  0  0  0  0  0
  -26.7255  -32.5307   23.1000 H   0  0  0  0  0  0
  -25.0062  -33.9629   25.0314 H   0  0  0  0  0  0
  -22.7486  -31.2866   21.3779 H   0  0  0  0  0  0
  -23.3763  -35.9574   23.3258 H   0  0  0  0  0  0
  -24.3584  -36.8946   22.2063 H   0  0  0  0  0  0
  -23.7230  -37.6434   23.6713 H   0  0  0  0  0  0
  -26.1515  -31.4752   20.6125 H   0  0  0  0  0  0
  -26.8714  -30.7731   22.0272 H   0  0  0  0  0  0
  -28.1336  -28.8087   21.2338 H   0  0  0  0  0  0
  -25.9164  -25.8452   19.0040 H   0  0  0  0  0  0
  -23.9840  -27.2979   18.9816 H   0  0  0  0  0  0
  -23.7999  -30.5609   19.3943 H   0  0  0  0  0  0
  -22.7882  -29.2239   19.8501 H   0  0  0  0  0  0
  -25.1293  -36.1854   25.0802 H   0  0  0  0  0  0
  -21.0007  -28.3294   24.1345 H   0  0  0  0  0  0
  -20.5641  -26.2319   23.3619 H   0  0  0  0  0  0
  -21.6652  -26.7384   22.1217 H   0  0  0  0  0  0
  -19.6926  -25.6269   21.1248 H   0  0  0  0  0  0
  -19.6711  -27.3157   20.6702 H   0  0  0  0  0  0
  -17.4213  -26.6661   21.4005 H   0  0  0  0  0  0
  -18.0341  -26.0051   22.8990 H   0  0  0  0  0  0
  -19.7959  -30.7272   24.2220 H   0  0  0  0  0  0
  -17.5033  -31.6257   24.5149 H   0  0  0  0  0  0
  -15.5367  -30.2948   23.7681 H   0  0  0  0  0  0
  -15.8692  -28.0791   22.7076 H   0  0  0  0  0  0
  -24.5891  -30.7086   25.7727 H   0  0  0  0  0  0
  -24.8858  -32.2931   26.4752 H   0  0  0  0  0  0
  -25.7964  -30.8984   27.0234 H   0  0  0  0  0  0
  -26.3014  -29.6672   24.1295 H   0  0  0  0  0  0
  -27.3985  -29.7259   25.4889 H   0  0  0  0  0  0
  -27.8925  -30.4186   23.9628 H   0  0  0  0  0  0
  -27.2648  -33.3662   26.2003 H   0  0  0  0  0  0
  -28.3893  -32.6854   25.0345 H   0  0  0  0  0  0
  -28.0680  -31.8507   26.5476 H   0  0  0  0  0  0
  -28.2544  -38.0118   24.7547 H   0  0  0  0  0  0
  -28.1132  -36.2653   24.6209 H   0  0  0  0  0  0
  -27.2314  -37.1325   25.8856 H   0  0  0  0  0  0
  -20.9460  -29.8775   21.6811 H   0  0  0  0  0  0
  -26.0142  -38.2806   24.1458 H   0  0  0  0  0  0
  -28.1232  -17.5576   22.2301 H   0  0  0  0  0  0
  -30.9611  -18.1514   19.1451 H   0  0  0  0  0  0
  -24.7448  -21.7479   23.2832 H   0  0  0  0  0  0
  -23.8921  -20.6438   22.2139 H   0  0  0  0  0  0
  -24.3372  -18.9216   23.7370 H   0  0  0  0  0  0
  -25.1961  -20.0682   24.7400 H   0  0  0  0  0  0
  -27.8976  -22.2287   25.3577 H   0  0  0  0  0  0
  -27.2370  -20.5249   25.4569 H   0  0  0  0  0  0
  -29.2731  -19.6264   24.3555 H   0  0  0  0  0  0
  -29.9889  -21.3175   24.3034 H   0  0  0  0  0  0
  -26.1996  -21.8779   21.4615 H   0  0  0  0  0  0
  -25.7531  -20.2816   20.8830 H   0  0  0  0  0  0
  -26.1726  -18.2620   22.5937 H   0  0  0  0  0  0
  -27.0335  -18.6245   24.0759 H   0  0  0  0  0  0
  -28.1338  -22.1239   22.9156 H   0  0  0  0  0  0
  -29.4407  -23.4055   21.3510 H   0  0  0  0  0  0
  -29.8580  -23.3856   19.6707 H   0  0  0  0  0  0
  -27.1215  -24.4592   20.7200 H   0  0  0  0  0  0
  -27.6402  -24.5002   19.0677 H   0  0  0  0  0  0
  -28.8033  -15.6077   21.1431 H   0  0  0  0  0  0
  -27.4746  -21.8913   20.4670 H   0  0  0  0  0  0
  1 25  1  0  0  0
  1 30  2  0  0  0
  1 87  1  0  0  0
  2  3  1  0  0  0
  2 25  1  0  0  0
  2 89  1  0  0  0
  2 90  1  0  0  0
  3  4  1  0  0  0
  3 91  1  0  0  0
  3 92  1  0  0  0
  4  5  1  0  0  0
  4 93  1  0  0  0
  4 94  1  0  0  0
  5  6  1  0  0  0
  5 26  1  0  0  0
  5 95  1  0  0  0
  6 25  1  0  0  0
  6 96  1  0  0  0
  6 97  1  0  0  0
  7  8  2  0  0  0
  7 26  1  0  0  0
  7 29  1  0  0  0
  8  9  1  0  0  0
  8 22  1  0  0  0
  9 10  1  0  0  0
  9 27  2  0  0  0
 10 11  2  0  0  0
 10 15  1  0  0  0
 11 12  1  0  0  0
 11 98  1  0  0  0
 12 13  2  0  0  0
 12 99  1  0  0  0
 13 14  1  0  0  0
 13 31  1  0  0  0
 14 15  2  0  0  0
 14100  1  0  0  0
 15101  1  0  0  0
 16 17  2  0  0  0
 16 21  1  0  0  0
 16 31  1  0  0  0
 17 18  1  0  0  0
 17102  1  0  0  0
 18 19  2  0  0  0
 18103  1  0  0  0
 19 20  1  0  0  0
 19 24  1  0  0  0
 20 21  2  0  0  0
 20104  1  0  0  0
 21 23  1  0  0  0
 22 28  1  0  0  0
 22 32  2  0  0  0
 26 27  1  0  0  0
 28105  1  0  0  0
 28106  1  0  0  0
 29107  1  0  0  0
 29108  1  0  0  0
 33 34  1  0  0  0
 33 66  1  0  0  0
 33 70  2  0  0  0
 34 36  1  0  0  0
 34 59  1  0  0  0
 34109  1  0  0  0
 35 44  2  0  0  0
 35 45  1  0  0  0
 35 68  1  0  0  0
 36 56  1  0  0  0
 36110  1  0  0  0
 37 39  1  0  0  0
 37 47  1  0  0  0
 37 66  1  0  0  0
 37111  1  0  0  0
 38 43  2  0  0  0
 38 46  1  0  0  0
 38 47  1  0  0  0
 39 64  1  0  0  0
 39 67  2  0  0  0
 40 52  1  0  0  0
 40 53  2  0  0  0
 40 58  1  0  0  0
 41112  1  0  0  0
 41113  1  0  0  0
 41114  1  0  0  0
 41 48  1  0  0  0
 42 43  1  0  0  0
 42 66  1  0  0  0
 42115  1  0  0  0
 42116  1  0  0  0
 43 44  1  0  0  0
 44117  1  0  0  0
 45 46  2  0  0  0
 45118  1  0  0  0
 46119  1  0  0  0
 47120  1  0  0  0
 47121  1  0  0  0
 48 56  1  0  0  0
 48 65  1  0  0  0
 48122  1  0  0  0
 49 50  1  0  0  0
 49 53  1  0  0  0
 49 64  1  0  0  0
 49123  1  0  0  0
 50 51  1  0  0  0
 50124  1  0  0  0
 50125  1  0  0  0
 51 52  1  0  0  0
 51126  1  0  0  0
 51127  1  0  0  0
 52128  1  0  0  0
 52129  1  0  0  0
 53 54  1  0  0  0
 54 55  2  0  0  0
 54130  1  0  0  0
 55 57  1  0  0  0
 55131  1  0  0  0
 56 69  2  0  0  0
 57 58  2  0  0  0
 57132  1  0  0  0
 58133  1  0  0  0
 59 60  1  0  0  0
 59 61  1  0  0  0
 59 62  1  0  0  0
 60134  1  0  0  0
 60135  1  0  0  0
 60136  1  0  0  0
 61137  1  0  0  0
 61138  1  0  0  0
 61139  1  0  0  0
 62140  1  0  0  0
 62141  1  0  0  0
 62142  1  0  0  0
 63 65  1  0  0  0
 63143  1  0  0  0
 63144  1  0  0  0
 63145  1  0  0  0
 64146  1  0  0  0
 65147  1  0  0  0
 68 85  1  0  0  0
 71 73  2  0  0  0
 71 74  1  0  0  0
 71148  1  0  0  0
 72 74  2  0  0  0
 72 86  1  0  0  0
 72149  1  0  0  0
 73 75  1  0  0  0
 73 83  1  0  0  0
 74 87  1  0  0  0
 75 86  2  0  0  0
 75 88  1  0  0  0
 76 77  1  0  0  0
 76 80  1  0  0  0
 76150  1  0  0  0
 76151  1  0  0  0
 77 81  1  0  0  0
 77152  1  0  0  0
 77153  1  0  0  0
 78 79  1  0  0  0
 78154  1  0  0  0
 78155  1  0  0  0
 78 82  1  0  0  0
 79 82  1  0  0  0
 79156  1  0  0  0
 79157  1  0  0  0
 80 83  1  0  0  0
 80158  1  0  0  0
 80159  1  0  0  0
 81 83  1  0  0  0
 81160  1  0  0  0
 81161  1  0  0  0
 82 83  1  0  0  0
 82162  1  0  0  0
 84 85  1  0  0  0
 84 88  1  0  0  0
 84163  1  0  0  0
 84164  1  0  0  0
 85165  1  0  0  0
 85166  1  0  0  0
 87167  1  0  0  0
 88168  1  0  0  0
M  ISO  4   1 100  68 101  85 101  87 100
M  END
> <chiral flag>
0

> <version>
0

> <s_m_source_file>
/data/baiqing/PycharmProjects/Reinvent-master-3.2/result/LINK_invent/BTK/process_docking_weight1_custom_sum_contain_oxygen_bond_distance_aromatic_linkinvent_7_9_3/rearranged_h_0130.sdf

> <i_m_source_file_index>
5

> <r_mmod_Potential_Energy-OPLS-2005>
367.108520507812

> <r_mmod_Stretch_Energy-OPLS-2005>
226.605346679688

> <r_mmod_Bend_Energy-OPLS-2005>
319.587188720703

> <r_mmod_Torsional_Energy-OPLS-2005>
340.0576171875

> <r_mmod_Improper_Torsional_Energy-OPLS-2005>
7.46252489089966

> <r_mmod_Van_der_Waal_Energy-OPLS-2005>
138.165328979492

> <r_mmod_Electrostatic_Energy-OPLS-2005>
-610.335205078125

> <r_mmod_Solvation_Energy-OPLS-2005>
-237.417495727539

> <b_mmod_Minimization_Converged-OPLS-2005>
0

> <r_mmod_RMS_Derivative-OPLS-2005>
1.07604837417603

$$$$
5
                    3D
 Structure written by MMmdl.
159167  0  0  1  0            999 V2000
  -30.7367  -14.4619   20.5929 C   0  0  0  0  0  0
  -30.4181  -12.3075   19.4263 C   0  0  0  0  0  0
  -29.4939  -12.5052   18.2089 C   0  0  0  0  0  0
  -28.0160  -12.3662   18.6218 C   0  0  0  0  0  0
  -27.6619  -13.2125   19.8741 C   0  0  2  0  0  0
  -28.7042  -13.0077   20.9973 C   0  0  0  0  0  0
  -25.2592  -13.8180   20.5698 C   0  0  0  0  0  0
  -24.1849  -13.0445   20.9191 C   0  0  0  0  0  0
  -24.6413  -11.6916   20.8748 C   0  0  0  0  0  0
  -23.9078  -10.4296   21.0413 C   0  0  0  0  0  0
  -24.3625   -9.4205   21.9189 C   0  0  0  0  0  0
  -23.6297   -8.2242   22.0753 C   0  0  0  0  0  0
  -22.4276   -8.0288   21.3546 C   0  0  0  0  0  0
  -21.9916   -9.0264   20.4646 C   0  0  0  0  0  0
  -22.7251  -10.2139   20.3058 C   0  0  0  0  0  0
  -21.6850   -6.0740   22.5287 C   0  0  0  0  0  0
  -21.4012   -6.5642   23.8224 C   0  0  0  0  0  0
  -21.3657   -5.6791   24.9184 C   0  0  0  0  0  0
  -21.6043   -4.3055   24.7231 C   0  0  0  0  0  0
  -21.8817   -3.8148   23.4353 C   0  0  0  0  0  0
  -21.9192   -4.6966   22.3409 C   0  0  0  0  0  0
  -22.7865  -13.5238   21.1846 C   0  0  0  0  0  0
  -22.1661   -4.2153   21.0986 F   0  0  0  0  0  0
  -21.5624   -3.4536   25.7742 F   0  0  0  0  0  0
  -30.0363  -13.3022   20.4428 N   0  0  0  0  0  0
  -26.3033  -12.9364   20.3369 N   0  0  0  0  0  0
  -25.9341  -11.6516   20.5766 N   0  0  0  0  0  0
  -22.0497  -12.8237   22.0401 N   0  0  0  0  0  0
  -25.4303  -15.1904   20.4116 N   0  0  0  0  0  0
  -31.8513  -14.6221   20.0882 O   0  0  0  0  0  0
  -21.6636   -6.8886   21.4249 O   0  0  0  0  0  0
  -22.3551  -14.5536   20.6678 O   0  0  0  0  0  0
  -24.6167  -31.8678   23.2099 C   0  0  0  0  0  0
  -25.9056  -32.4824   23.8395 C   0  0  1  0  0  0
  -27.2269  -27.4123   20.0964 C   0  0  0  0  0  0
  -25.5906  -33.8620   24.2330 N   0  0  0  0  0  0
  -23.4053  -30.4943   21.5511 C   0  0  2  0  0  0
  -24.8507  -28.9674   20.1079 C   0  0  0  0  0  0
  -22.7424  -29.4666   22.4974 C   0  0  0  0  0  0
  -18.0281  -28.1384   22.8492 C   0  0  0  0  0  0
  -24.1488  -36.7312   23.2641 C   0  0  0  0  0  0
  -25.9392  -30.8265   21.3687 C   0  0  0  0  0  0
  -26.0142  -29.4632   20.7099 C   0  0  0  0  0  0
  -27.2054  -28.6952   20.6997 C   0  0  0  0  0  0
  -26.0426  -26.9535   19.4665 C   0  0  0  0  0  0
  -24.8620  -27.7142   19.4799 C   0  0  0  0  0  0
  -23.6138  -29.8352   20.1626 C   0  0  0  0  0  0
  -25.4104  -36.3106   24.0343 C   0  0  1  0  0  0
  -20.5872  -28.3662   23.1307 C   0  0  2  0  0  0
  -20.6767  -26.9392   22.5410 C   0  0  0  0  0  0
  -19.5741  -26.6382   21.5209 C   0  0  0  0  0  0
  -18.1923  -26.7932   22.1624 C   0  0  0  0  0  0
  -19.1530  -28.8835   23.2905 C   0  0  0  0  0  0
  -18.9463  -30.1451   23.8904 C   0  0  0  0  0  0
  -17.6462  -30.6581   24.0566 C   0  0  0  0  0  0
  -25.9035  -34.9478   23.5131 C   0  0  0  0  0  0
  -16.5356  -29.9079   23.6331 C   0  0  0  0  0  0
  -16.7268  -28.6501   23.0340 C   0  0  0  0  0  0
  -26.4469  -31.6602   25.0731 C   0  0  0  0  0  0
  -25.3725  -31.3714   26.1476 C   0  0  0  0  0  0
  -27.0302  -30.3043   24.6118 C   0  0  0  0  0  0
  -27.6049  -32.4311   25.7492 C   0  0  0  0  0  0
  -27.5577  -37.1811   24.8473 C   0  0  0  0  0  0
  -21.4149  -29.3041   22.3723 N   0  0  0  0  0  0
  -26.4291  -37.3791   23.9416 N   0  0  0  0  0  0
  -24.6721  -31.0772   22.1009 N   0  0  0  0  0  0
  -23.4197  -28.8191   23.3003 O   0  0  0  0  0  0
  -28.3707  -26.6250   20.1517 O   0  0  0  0  0  0
  -26.5604  -34.8935   22.4698 O   0  0  0  0  0  0
  -23.5352  -32.1436   23.7477 O   0  0  0  0  0  0
  -32.3624  -18.3704   22.0384 C   0  0  0  0  0  0
  -31.4814  -19.4592   21.9037 C   0  0  0  0  0  0
  -31.9154  -17.0569   21.8038 C   0  0  0  0  0  0
  -29.6923  -17.9151   21.3061 C   0  0  0  0  0  0
  -30.1356  -19.2487   21.5274 C   0  0  0  0  0  0
  -30.5746  -16.8091   21.4261 C   0  0  0  0  0  0
  -28.2688  -20.4814   22.6582 C   0  0  0  0  0  0
  -29.2652  -24.2720   20.6137 C   0  0  0  0  0  0
  -29.7927  -21.8219   21.0917 C   0  0  0  0  0  0
  -28.1540  -25.1967   20.0457 C   0  0  0  0  0  0
  -29.1475  -20.4254   21.3934 C   0  0  1  0  0  0
  -30.0909  -15.4760   21.2094 N   0  0  0  0  0  0
  -28.7845  -22.8582   20.7307 N   0  3  0  0  0  0
  -31.4635  -12.3918   19.1236 H   0  0  0  0  0  0
  -30.3098  -11.2995   19.8301 H   0  0  0  0  0  0
  -29.7346  -11.7777   17.4327 H   0  0  0  0  0  0
  -29.6649  -13.4898   17.7714 H   0  0  0  0  0  0
  -27.8289  -11.3109   18.8237 H   0  0  0  0  0  0
  -27.3641  -12.6338   17.7897 H   0  0  0  0  0  0
  -27.7033  -14.2582   19.5695 H   0  0  0  0  0  0
  -28.6787  -11.9761   21.3518 H   0  0  0  0  0  0
  -28.4651  -13.6206   21.8674 H   0  0  0  0  0  0
  -25.2771   -9.5669   22.4766 H   0  0  0  0  0  0
  -24.0003   -7.4625   22.7468 H   0  0  0  0  0  0
  -21.0846   -8.8793   19.8953 H   0  0  0  0  0  0
  -22.3725  -10.9681   19.6165 H   0  0  0  0  0  0
  -21.2005   -7.6151   23.9732 H   0  0  0  0  0  0
  -21.1478   -6.0519   25.9088 H   0  0  0  0  0  0
  -22.0596   -2.7611   23.2853 H   0  0  0  0  0  0
  -22.4090  -11.9899   22.4809 H   0  0  0  0  0  0
  -21.1109  -13.1266   22.2582 H   0  0  0  0  0  0
  -24.6615  -15.8431   20.5189 H   0  0  0  0  0  0
  -26.2804  -15.6315   20.0833 H   0  0  0  0  0  0
  -26.7124  -32.5541   23.1151 H   0  0  0  0  0  0
  -25.0057  -33.9785   25.0471 H   0  0  0  0  0  0
  -22.6941  -31.3116   21.4151 H   0  0  0  0  0  0
  -23.3754  -35.9644   23.3316 H   0  0  0  0  0  0
  -24.3575  -36.8906   22.2052 H   0  0  0  0  0  0
  -23.7248  -37.6522   23.6642 H   0  0  0  0  0  0
  -26.0592  -31.5920   20.6012 H   0  0  0  0  0  0
  -26.8250  -30.8743   21.9913 H   0  0  0  0  0  0
  -28.0986  -29.0736   21.1774 H   0  0  0  0  0  0
  -25.9985  -26.0024   18.9578 H   0  0  0  0  0  0
  -23.9732  -27.3309   18.9974 H   0  0  0  0  0  0
  -23.7217  -30.6148   19.4081 H   0  0  0  0  0  0
  -22.7374  -29.2586   19.8626 H   0  0  0  0  0  0
  -25.1278  -36.1956   25.0835 H   0  0  0  0  0  0
  -20.9970  -28.3222   24.1422 H   0  0  0  0  0  0
  -20.5670  -26.2258   23.3599 H   0  0  0  0  0  0
  -21.6639  -26.7433   22.1202 H   0  0  0  0  0  0
  -19.6906  -25.6293   21.1229 H   0  0  0  0  0  0
  -19.6696  -27.3204   20.6753 H   0  0  0  0  0  0
  -17.4199  -26.6680   21.4028 H   0  0  0  0  0  0
  -18.0330  -26.0080   22.9024 H   0  0  0  0  0  0
  -19.7939  -30.7274   24.2261 H   0  0  0  0  0  0
  -17.5020  -31.6264   24.5162 H   0  0  0  0  0  0
  -15.5355  -30.2985   23.7660 H   0  0  0  0  0  0
  -15.8672  -28.0840   22.7025 H   0  0  0  0  0  0
  -24.5915  -30.7035   25.7824 H   0  0  0  0  0  0
  -24.8904  -32.2871   26.4910 H   0  0  0  0  0  0
  -25.8079  -30.8907   27.0250 H   0  0  0  0  0  0
  -26.2858  -29.6812   24.1148 H   0  0  0  0  0  0
  -27.4056  -29.7259   25.4571 H   0  0  0  0  0  0
  -27.8693  -30.4375   23.9284 H   0  0  0  0  0  0
  -27.2674  -33.3609   26.2084 H   0  0  0  0  0  0
  -28.3846  -32.6869   25.0305 H   0  0  0  0  0  0
  -28.0734  -31.8433   26.5401 H   0  0  0  0  0  0
  -28.2601  -38.0098   24.7500 H   0  0  0  0  0  0
  -28.1056  -36.2629   24.6306 H   0  0  0  0  0  0
  -27.2298  -37.1472   25.8877 H   0  0  0  0  0  0
  -20.9292  -29.8772   21.6971 H   0  0  0  0  0  0
  -26.0176  -38.2873   24.1404 H   0  0  0  0  0  0
  -33.3891  -18.5432   22.3317 H   0  0  0  0  0  0
  -31.8594  -20.4511   22.1037 H   0  0  0  0  0  0
  -32.6160  -16.2424   21.9267 H   0  0  0  0  0  0
  -28.6602  -17.7422   21.0346 H   0  0  0  0  0  0
  -27.7549  -19.5343   22.8236 H   0  0  0  0  0  0
  -27.5004  -21.2523   22.5969 H   0  0  0  0  0  0
  -28.8697  -20.6828   23.5464 H   0  0  0  0  0  0
  -29.5678  -24.6231   21.6009 H   0  0  0  0  0  0
  -30.1479  -24.3191   19.9747 H   0  0  0  0  0  0
  -30.4997  -21.7317   20.2654 H   0  0  0  0  0  0
  -30.3591  -22.1674   21.9575 H   0  0  0  0  0  0
  -27.2392  -24.9427   20.5852 H   0  0  0  0  0  0
  -27.9904  -24.9454   18.9966 H   0  0  0  0  0  0
  -28.5049  -20.1757   20.5476 H   0  0  0  0  0  0
  -29.1301  -15.2923   21.4550 H   0  0  0  0  0  0
  -28.0551  -22.8306   21.4262 H   0  0  0  0  0  0
  -28.3707  -22.5802   19.8528 H   0  0  0  0  0  0
  1 25  1  0  0  0
  1 30  2  0  0  0
  1 82  1  0  0  0
  2  3  1  0  0  0
  2 25  1  0  0  0
  2 84  1  0  0  0
  2 85  1  0  0  0
  3  4  1  0  0  0
  3 86  1  0  0  0
  3 87  1  0  0  0
  4  5  1  0  0  0
  4 88  1  0  0  0
  4 89  1  0  0  0
  5  6  1  0  0  0
  5 26  1  0  0  0
  5 90  1  0  0  0
  6 25  1  0  0  0
  6 91  1  0  0  0
  6 92  1  0  0  0
  7  8  2  0  0  0
  7 26  1  0  0  0
  7 29  1  0  0  0
  8  9  1  0  0  0
  8 22  1  0  0  0
  9 10  1  0  0  0
  9 27  2  0  0  0
 10 11  2  0  0  0
 10 15  1  0  0  0
 11 12  1  0  0  0
 11 93  1  0  0  0
 12 13  2  0  0  0
 12 94  1  0  0  0
 13 14  1  0  0  0
 13 31  1  0  0  0
 14 15  2  0  0  0
 14 95  1  0  0  0
 15 96  1  0  0  0
 16 17  2  0  0  0
 16 21  1  0  0  0
 16 31  1  0  0  0
 17 18  1  0  0  0
 17 97  1  0  0  0
 18 19  2  0  0  0
 18 98  1  0  0  0
 19 20  1  0  0  0
 19 24  1  0  0  0
 20 21  2  0  0  0
 20 99  1  0  0  0
 21 23  1  0  0  0
 22 28  1  0  0  0
 22 32  2  0  0  0
 26 27  1  0  0  0
 28100  1  0  0  0
 28101  1  0  0  0
 29102  1  0  0  0
 29103  1  0  0  0
 33 34  1  0  0  0
 33 66  1  0  0  0
 33 70  2  0  0  0
 34 36  1  0  0  0
 34 59  1  0  0  0
 34104  1  0  0  0
 35 44  2  0  0  0
 35 45  1  0  0  0
 35 68  1  0  0  0
 36 56  1  0  0  0
 36105  1  0  0  0
 37 39  1  0  0  0
 37 47  1  0  0  0
 37 66  1  0  0  0
 37106  1  0  0  0
 38 43  2  0  0  0
 38 46  1  0  0  0
 38 47  1  0  0  0
 39 64  1  0  0  0
 39 67  2  0  0  0
 40 52  1  0  0  0
 40 53  2  0  0  0
 40 58  1  0  0  0
 41107  1  0  0  0
 41108  1  0  0  0
 41109  1  0  0  0
 41 48  1  0  0  0
 42 43  1  0  0  0
 42 66  1  0  0  0
 42110  1  0  0  0
 42111  1  0  0  0
 43 44  1  0  0  0
 44112  1  0  0  0
 45 46  2  0  0  0
 45113  1  0  0  0
 46114  1  0  0  0
 47115  1  0  0  0
 47116  1  0  0  0
 48 56  1  0  0  0
 48 65  1  0  0  0
 48117  1  0  0  0
 49 50  1  0  0  0
 49 53  1  0  0  0
 49 64  1  0  0  0
 49118  1  0  0  0
 50 51  1  0  0  0
 50119  1  0  0  0
 50120  1  0  0  0
 51 52  1  0  0  0
 51121  1  0  0  0
 51122  1  0  0  0
 52123  1  0  0  0
 52124  1  0  0  0
 53 54  1  0  0  0
 54 55  2  0  0  0
 54125  1  0  0  0
 55 57  1  0  0  0
 55126  1  0  0  0
 56 69  2  0  0  0
 57 58  2  0  0  0
 57127  1  0  0  0
 58128  1  0  0  0
 59 60  1  0  0  0
 59 61  1  0  0  0
 59 62  1  0  0  0
 60129  1  0  0  0
 60130  1  0  0  0
 60131  1  0  0  0
 61132  1  0  0  0
 61133  1  0  0  0
 61134  1  0  0  0
 62135  1  0  0  0
 62136  1  0  0  0
 62137  1  0  0  0
 63 65  1  0  0  0
 63138  1  0  0  0
 63139  1  0  0  0
 63140  1  0  0  0
 64141  1  0  0  0
 65142  1  0  0  0
 68 80  1  0  0  0
 71 72  2  0  0  0
 71 73  1  0  0  0
 71143  1  0  0  0
 72 75  1  0  0  0
 72144  1  0  0  0
 73 76  2  0  0  0
 73145  1  0  0  0
 74 75  2  0  0  0
 74 76  1  0  0  0
 74146  1  0  0  0
 75 81  1  0  0  0
 76 82  1  0  0  0
 77147  1  0  0  0
 77148  1  0  0  0
 77149  1  0  0  0
 77 81  1  0  0  0
 78 80  1  0  0  0
 78 83  1  0  0  0
 78150  1  0  0  0
 78151  1  0  0  0
 79 81  1  0  0  0
 79 83  1  0  0  0
 79152  1  0  0  0
 79153  1  0  0  0
 80154  1  0  0  0
 80155  1  0  0  0
 81156  1  0  0  0
 82157  1  0  0  0
 83158  1  0  0  0
 83159  1  0  0  0
M  CHG  1  83   1
M  ISO  4   1 100  68 101  80 101  82 100
M  END
> <chiral flag>
0

> <version>
0

> <s_m_source_file>
/data/baiqing/PycharmProjects/Reinvent-master-3.2/result/LINK_invent/BTK/process_docking_weight1_custom_sum_contain_oxygen_bond_distance_aromatic_linkinvent_7_9_3/rearranged_h_0130.sdf

> <i_m_source_file_index>
6

> <r_mmod_Potential_Energy-OPLS-2005>
-172.417724609375

> <r_mmod_Stretch_Energy-OPLS-2005>
43.7883491516113

> <r_mmod_Bend_Energy-OPLS-2005>
97.0989761352539

> <r_mmod_Torsional_Energy-OPLS-2005>
221.548721313477

> <r_mmod_Improper_Torsional_Energy-OPLS-2005>
3.0466890335083

> <r_mmod_Van_der_Waal_Energy-OPLS-2005>
160.210159301758

> <r_mmod_Electrostatic_Energy-OPLS-2005>
-251.817276000977

> <r_mmod_Solvation_Energy-OPLS-2005>
-462.408203125

> <b_mmod_Minimization_Converged-OPLS-2005>
0

> <r_mmod_RMS_Derivative-OPLS-2005>
1.44123709201813

$$$$
6
                    3D
 Structure written by MMmdl.
173181  0  0  1  0            999 V2000
  -30.7926  -14.3410   20.7143 C   0  0  0  0  0  0
  -30.4142  -12.2979   19.3831 C   0  0  0  0  0  0
  -29.4769  -12.5273   18.1849 C   0  0  0  0  0  0
  -28.0049  -12.3762   18.6083 C   0  0  0  0  0  0
  -27.6639  -13.2028   19.8750 C   0  0  2  0  0  0
  -28.7029  -12.9546   20.9903 C   0  0  0  0  0  0
  -25.2601  -13.8159   20.5666 C   0  0  0  0  0  0
  -24.1846  -13.0444   20.9162 C   0  0  0  0  0  0
  -24.6393  -11.6908   20.8729 C   0  0  0  0  0  0
  -23.9059  -10.4296   21.0401 C   0  0  0  0  0  0
  -24.3611   -9.4216   21.9182 C   0  0  0  0  0  0
  -23.6288   -8.2249   22.0760 C   0  0  0  0  0  0
  -22.4271   -8.0283   21.3547 C   0  0  0  0  0  0
  -21.9904   -9.0253   20.4651 C   0  0  0  0  0  0
  -22.7230  -10.2135   20.3052 C   0  0  0  0  0  0
  -21.6855   -6.0738   22.5282 C   0  0  0  0  0  0
  -21.4017   -6.5642   23.8214 C   0  0  0  0  0  0
  -21.3653   -5.6793   24.9177 C   0  0  0  0  0  0
  -21.6040   -4.3057   24.7229 C   0  0  0  0  0  0
  -21.8821   -3.8148   23.4352 C   0  0  0  0  0  0
  -21.9194   -4.6965   22.3406 C   0  0  0  0  0  0
  -22.7872  -13.5244   21.1829 C   0  0  0  0  0  0
  -22.1664   -4.2153   21.0984 F   0  0  0  0  0  0
  -21.5623   -3.4538   25.7741 F   0  0  0  0  0  0
  -30.0472  -13.2380   20.4523 N   0  0  0  0  0  0
  -26.3032  -12.9321   20.3355 N   0  0  0  0  0  0
  -25.9314  -11.6484   20.5747 N   0  0  0  0  0  0
  -22.0509  -12.8242   22.0386 N   0  0  0  0  0  0
  -25.4339  -15.1874   20.4070 N   0  0  0  0  0  0
  -31.7869  -14.6657   20.0598 O   0  0  0  0  0  0
  -21.6636   -6.8880   21.4243 O   0  0  0  0  0  0
  -22.3561  -14.5555   20.6682 O   0  0  0  0  0  0
  -24.6100  -31.8698   23.2110 C   0  0  0  0  0  0
  -25.9013  -32.4824   23.8401 C   0  0  1  0  0  0
  -27.2413  -27.4721   20.0863 C   0  0  0  0  0  0
  -25.5894  -33.8621   24.2336 N   0  0  0  0  0  0
  -23.3976  -30.4909   21.5508 C   0  0  2  0  0  0
  -24.8472  -28.9568   20.1183 C   0  0  0  0  0  0
  -22.7395  -29.4653   22.5009 C   0  0  0  0  0  0
  -18.0274  -28.1359   22.8505 C   0  0  0  0  0  0
  -24.1494  -36.7321   23.2641 C   0  0  0  0  0  0
  -25.9217  -30.8433   21.3614 C   0  0  0  0  0  0
  -26.0016  -29.4770   20.7168 C   0  0  0  0  0  0
  -27.2024  -28.7377   20.7076 C   0  0  0  0  0  0
  -26.0780  -26.9562   19.4834 C   0  0  0  0  0  0
  -24.8760  -27.6907   19.5047 C   0  0  0  0  0  0
  -23.6056  -29.8185   20.1666 C   0  0  0  0  0  0
  -25.4107  -36.3106   24.0343 C   0  0  1  0  0  0
  -20.5863  -28.3641   23.1333 C   0  0  2  0  0  0
  -20.6764  -26.9381   22.5422 C   0  0  0  0  0  0
  -19.5740  -26.6374   21.5218 C   0  0  0  0  0  0
  -18.1916  -26.7910   22.1628 C   0  0  0  0  0  0
  -19.1524  -28.8816   23.2914 C   0  0  0  0  0  0
  -18.9453  -30.1428   23.8918 C   0  0  0  0  0  0
  -17.6454  -30.6570   24.0564 C   0  0  0  0  0  0
  -25.9034  -34.9471   23.5136 C   0  0  0  0  0  0
  -16.5346  -29.9075   23.6319 C   0  0  0  0  0  0
  -16.7264  -28.6489   23.0346 C   0  0  0  0  0  0
  -26.4461  -31.6581   25.0708 C   0  0  0  0  0  0
  -25.3744  -31.3662   26.1467 C   0  0  0  0  0  0
  -27.0289  -30.3034   24.6040 C   0  0  0  0  0  0
  -27.6039  -32.4298   25.7471 C   0  0  0  0  0  0
  -27.5582  -37.1811   24.8465 C   0  0  0  0  0  0
  -21.4129  -29.3014   22.3750 N   0  0  0  0  0  0
  -26.4294  -37.3786   23.9408 N   0  0  0  0  0  0
  -24.6606  -31.0825   22.0996 N   0  0  0  0  0  0
  -23.4182  -28.8198   23.3043 O   0  0  0  0  0  0
  -28.4054  -26.7502   20.0290 O   0  0  0  0  0  0
  -26.5593  -34.8918   22.4696 O   0  0  0  0  0  0
  -23.5305  -32.1444   23.7525 O   0  0  0  0  0  0
  -27.7758  -22.5222   22.2962 C   0  0  0  0  0  0
  -29.6290  -23.8448   20.5883 C   0  0  0  0  0  0
  -28.3806  -24.5871   21.1422 C   0  0  2  0  0  0
  -29.0740  -21.8316   21.8264 C   0  0  1  0  0  0
  -26.5512  -24.2615   24.4720 C   0  0  0  0  0  0
  -25.4115  -24.2939   22.1958 C   0  0  0  0  0  0
  -28.7496  -26.0985   21.2467 C   0  0  0  0  0  0
  -28.9299  -20.2854   21.8118 C   0  0  0  0  0  0
  -31.3303  -15.9215   22.5536 C   0  0  0  0  0  0
  -30.2746  -19.5225   21.7423 C   0  0  0  0  0  0
  -31.4256  -17.3394   21.9544 C   0  0  0  0  0  0
  -26.7025  -24.6052   22.9813 C   0  0  0  0  0  0
  -27.9318  -23.9876   22.4268 N   0  0  0  0  0  0
  -30.4483  -15.0060   21.8256 N   0  0  0  0  0  0
  -29.4245  -22.3866   20.5017 N   0  3  0  0  0  0
  -30.1336  -18.0614   21.9609 N   0  3  0  0  0  0
  -31.4550  -12.4046   19.0714 H   0  0  0  0  0  0
  -30.3206  -11.2745   19.7488 H   0  0  0  0  0  0
  -29.7091  -11.8222   17.3853 H   0  0  0  0  0  0
  -29.6410  -13.5239   17.7720 H   0  0  0  0  0  0
  -27.8170  -11.3180   18.7938 H   0  0  0  0  0  0
  -27.3468  -12.6604   17.7862 H   0  0  0  0  0  0
  -27.7198  -14.2555   19.5962 H   0  0  0  0  0  0
  -28.6638  -11.9152   21.3193 H   0  0  0  0  0  0
  -28.4453  -13.5465   21.8688 H   0  0  0  0  0  0
  -25.2758   -9.5695   22.4753 H   0  0  0  0  0  0
  -24.0002   -7.4648   22.7482 H   0  0  0  0  0  0
  -21.0834   -8.8769   19.8958 H   0  0  0  0  0  0
  -22.3686  -10.9672   19.6155 H   0  0  0  0  0  0
  -21.2014   -7.6151   23.9723 H   0  0  0  0  0  0
  -21.1468   -6.0522   25.9079 H   0  0  0  0  0  0
  -22.0605   -2.7612   23.2851 H   0  0  0  0  0  0
  -22.4113  -11.9893   22.4766 H   0  0  0  0  0  0
  -21.1129  -13.1277   22.2591 H   0  0  0  0  0  0
  -24.6681  -15.8452   20.5073 H   0  0  0  0  0  0
  -26.2889  -15.6216   20.0824 H   0  0  0  0  0  0
  -26.7092  -32.5565   23.1176 H   0  0  0  0  0  0
  -25.0048  -33.9786   25.0486 H   0  0  0  0  0  0
  -22.6843  -31.3054   21.4092 H   0  0  0  0  0  0
  -23.3741  -35.9668   23.3302 H   0  0  0  0  0  0
  -24.3585  -36.8937   22.2055 H   0  0  0  0  0  0
  -23.7265  -37.6536   23.6657 H   0  0  0  0  0  0
  -26.0273  -31.6057   20.5882 H   0  0  0  0  0  0
  -26.8117  -30.9028   21.9753 H   0  0  0  0  0  0
  -28.0973  -29.1387   21.1625 H   0  0  0  0  0  0
  -26.1050  -25.9913   18.9972 H   0  0  0  0  0  0
  -23.9884  -27.2841   19.0393 H   0  0  0  0  0  0
  -23.7077  -30.5894   19.4020 H   0  0  0  0  0  0
  -22.7324  -29.2310   19.8773 H   0  0  0  0  0  0
  -25.1277  -36.1976   25.0836 H   0  0  0  0  0  0
  -20.9961  -28.3209   24.1450 H   0  0  0  0  0  0
  -20.5670  -26.2248   23.3601 H   0  0  0  0  0  0
  -21.6634  -26.7418   22.1215 H   0  0  0  0  0  0
  -19.6897  -25.6292   21.1226 H   0  0  0  0  0  0
  -19.6678  -27.3201   20.6761 H   0  0  0  0  0  0
  -17.4190  -26.6676   21.4023 H   0  0  0  0  0  0
  -18.0297  -26.0035   22.9006 H   0  0  0  0  0  0
  -19.7930  -30.7234   24.2302 H   0  0  0  0  0  0
  -17.5008  -31.6253   24.5156 H   0  0  0  0  0  0
  -15.5348  -30.2976   23.7623 H   0  0  0  0  0  0
  -15.8668  -28.0812   22.7043 H   0  0  0  0  0  0
  -24.5927  -30.6995   25.7806 H   0  0  0  0  0  0
  -24.8918  -32.2803   26.4936 H   0  0  0  0  0  0
  -25.8112  -30.8825   27.0213 H   0  0  0  0  0  0
  -26.2812  -29.6787   24.1137 H   0  0  0  0  0  0
  -27.4134  -29.7263   25.4457 H   0  0  0  0  0  0
  -27.8607  -30.4370   23.9117 H   0  0  0  0  0  0
  -27.2664  -33.3592   26.2070 H   0  0  0  0  0  0
  -28.3837  -32.6868   25.0290 H   0  0  0  0  0  0
  -28.0718  -31.8410   26.5370 H   0  0  0  0  0  0
  -28.2593  -38.0116   24.7514 H   0  0  0  0  0  0
  -28.1087  -36.2642   24.6290 H   0  0  0  0  0  0
  -27.2298  -37.1466   25.8870 H   0  0  0  0  0  0
  -20.9283  -29.8754   21.6992 H   0  0  0  0  0  0
  -26.0187  -38.2869   24.1393 H   0  0  0  0  0  0
  -27.4964  -22.0938   23.2583 H   0  0  0  0  0  0
  -26.9725  -22.2750   21.6012 H   0  0  0  0  0  0
  -30.4994  -24.0359   21.2185 H   0  0  0  0  0  0
  -29.8791  -24.2264   19.5972 H   0  0  0  0  0  0
  -27.5724  -24.4737   20.4192 H   0  0  0  0  0  0
  -29.8643  -22.0874   22.5354 H   0  0  0  0  0  0
  -25.7702  -24.8739   24.9245 H   0  0  0  0  0  0
  -27.4719  -24.4584   25.0221 H   0  0  0  0  0  0
  -26.2710  -23.2224   24.6413 H   0  0  0  0  0  0
  -24.5851  -24.8923   22.5812 H   0  0  0  0  0  0
  -25.1062  -23.2516   22.2859 H   0  0  0  0  0  0
  -25.4960  -24.5341   21.1369 H   0  0  0  0  0  0
  -29.8232  -26.2211   21.3948 H   0  0  0  0  0  0
  -28.3202  -26.6164   22.1007 H   0  0  0  0  0  0
  -28.2683  -19.9706   21.0032 H   0  0  0  0  0  0
  -28.4288  -19.9910   22.7352 H   0  0  0  0  0  0
  -30.9865  -15.9791   23.5872 H   0  0  0  0  0  0
  -32.3314  -15.4882   22.6053 H   0  0  0  0  0  0
  -30.9495  -19.9194   22.5028 H   0  0  0  0  0  0
  -30.7563  -19.6949   20.7788 H   0  0  0  0  0  0
  -31.8226  -17.3067   20.9387 H   0  0  0  0  0  0
  -32.1512  -17.9019   22.5445 H   0  0  0  0  0  0
  -26.7972  -25.6873   22.9712 H   0  0  0  0  0  0
  -29.6393  -14.6517   22.3160 H   0  0  0  0  0  0
  -30.2735  -21.9767   20.1508 H   0  0  0  0  0  0
  -28.6871  -22.2024   19.8409 H   0  0  0  0  0  0
  -29.5354  -17.6589   21.2574 H   0  0  0  0  0  0
  -29.7006  -17.9103   22.8580 H   0  0  0  0  0  0
  1 25  1  0  0  0
  1 30  2  0  0  0
  1 84  1  0  0  0
  2  3  1  0  0  0
  2 25  1  0  0  0
  2 87  1  0  0  0
  2 88  1  0  0  0
  3  4  1  0  0  0
  3 89  1  0  0  0
  3 90  1  0  0  0
  4  5  1  0  0  0
  4 91  1  0  0  0
  4 92  1  0  0  0
  5  6  1  0  0  0
  5 26  1  0  0  0
  5 93  1  0  0  0
  6 25  1  0  0  0
  6 94  1  0  0  0
  6 95  1  0  0  0
  7  8  2  0  0  0
  7 26  1  0  0  0
  7 29  1  0  0  0
  8  9  1  0  0  0
  8 22  1  0  0  0
  9 10  1  0  0  0
  9 27  2  0  0  0
 10 11  2  0  0  0
 10 15  1  0  0  0
 11 12  1  0  0  0
 11 96  1  0  0  0
 12 13  2  0  0  0
 12 97  1  0  0  0
 13 14  1  0  0  0
 13 31  1  0  0  0
 14 15  2  0  0  0
 14 98  1  0  0  0
 15 99  1  0  0  0
 16 17  2  0  0  0
 16 21  1  0  0  0
 16 31  1  0  0  0
 17 18  1  0  0  0
 17100  1  0  0  0
 18 19  2  0  0  0
 18101  1  0  0  0
 19 20  1  0  0  0
 19 24  1  0  0  0
 20 21  2  0  0  0
 20102  1  0  0  0
 21 23  1  0  0  0
 22 28  1  0  0  0
 22 32  2  0  0  0
 26 27  1  0  0  0
 28103  1  0  0  0
 28104  1  0  0  0
 29105  1  0  0  0
 29106  1  0  0  0
 33 34  1  0  0  0
 33 66  1  0  0  0
 33 70  2  0  0  0
 34 36  1  0  0  0
 34 59  1  0  0  0
 34107  1  0  0  0
 35 44  2  0  0  0
 35 45  1  0  0  0
 35 68  1  0  0  0
 36 56  1  0  0  0
 36108  1  0  0  0
 37 39  1  0  0  0
 37 47  1  0  0  0
 37 66  1  0  0  0
 37109  1  0  0  0
 38 43  2  0  0  0
 38 46  1  0  0  0
 38 47  1  0  0  0
 39 64  1  0  0  0
 39 67  2  0  0  0
 40 52  1  0  0  0
 40 53  2  0  0  0
 40 58  1  0  0  0
 41110  1  0  0  0
 41111  1  0  0  0
 41112  1  0  0  0
 41 48  1  0  0  0
 42 43  1  0  0  0
 42 66  1  0  0  0
 42113  1  0  0  0
 42114  1  0  0  0
 43 44  1  0  0  0
 44115  1  0  0  0
 45 46  2  0  0  0
 45116  1  0  0  0
 46117  1  0  0  0
 47118  1  0  0  0
 47119  1  0  0  0
 48 56  1  0  0  0
 48 65  1  0  0  0
 48120  1  0  0  0
 49 50  1  0  0  0
 49 53  1  0  0  0
 49 64  1  0  0  0
 49121  1  0  0  0
 50 51  1  0  0  0
 50122  1  0  0  0
 50123  1  0  0  0
 51 52  1  0  0  0
 51124  1  0  0  0
 51125  1  0  0  0
 52126  1  0  0  0
 52127  1  0  0  0
 53 54  1  0  0  0
 54 55  2  0  0  0
 54128  1  0  0  0
 55 57  1  0  0  0
 55129  1  0  0  0
 56 69  2  0  0  0
 57 58  2  0  0  0
 57130  1  0  0  0
 58131  1  0  0  0
 59 60  1  0  0  0
 59 61  1  0  0  0
 59 62  1  0  0  0
 60132  1  0  0  0
 60133  1  0  0  0
 60134  1  0  0  0
 61135  1  0  0  0
 61136  1  0  0  0
 61137  1  0  0  0
 62138  1  0  0  0
 62139  1  0  0  0
 62140  1  0  0  0
 63 65  1  0  0  0
 63141  1  0  0  0
 63142  1  0  0  0
 63143  1  0  0  0
 64144  1  0  0  0
 65145  1  0  0  0
 68 77  1  0  0  0
 71 74  1  0  0  0
 71 83  1  0  0  0
 71146  1  0  0  0
 71147  1  0  0  0
 72 73  1  0  0  0
 72 85  1  0  0  0
 72148  1  0  0  0
 72149  1  0  0  0
 73 77  1  0  0  0
 73 83  1  0  0  0
 73150  1  0  0  0
 74 78  1  0  0  0
 74 85  1  0  0  0
 74151  1  0  0  0
 75152  1  0  0  0
 75153  1  0  0  0
 75154  1  0  0  0
 75 82  1  0  0  0
 76 82  1  0  0  0
 76155  1  0  0  0
 76156  1  0  0  0
 76157  1  0  0  0
 77158  1  0  0  0
 77159  1  0  0  0
 78 80  1  0  0  0
 78160  1  0  0  0
 78161  1  0  0  0
 79 81  1  0  0  0
 79 84  1  0  0  0
 79162  1  0  0  0
 79163  1  0  0  0
 80 86  1  0  0  0
 80164  1  0  0  0
 80165  1  0  0  0
 81 86  1  0  0  0
 81166  1  0  0  0
 81167  1  0  0  0
 82 83  1  0  0  0
 82168  1  0  0  0
 84169  1  0  0  0
 85170  1  0  0  0
 85171  1  0  0  0
 86172  1  0  0  0
 86173  1  0  0  0
M  CHG  2  85   1  86   1
M  ISO  4   1 100  68 101  77 101  84 100
M  END
> <chiral flag>
0

> <version>
0

> <s_m_source_file>
/data/baiqing/PycharmProjects/Reinvent-master-3.2/result/LINK_invent/BTK/process_docking_weight1_custom_sum_contain_oxygen_bond_distance_aromatic_linkinvent_7_9_3/rearranged_h_0130.sdf

> <i_m_source_file_index>
7

> <r_mmod_Potential_Energy-OPLS-2005>
-397.543090820312

> <r_mmod_Stretch_Energy-OPLS-2005>
38.7237663269043

> <r_mmod_Bend_Energy-OPLS-2005>
104.915863037109

> <r_mmod_Torsional_Energy-OPLS-2005>
276.7314453125

> <r_mmod_Improper_Torsional_Energy-OPLS-2005>
3.23453116416931

> <r_mmod_Van_der_Waal_Energy-OPLS-2005>
144.474975585938

> <r_mmod_Electrostatic_Energy-OPLS-2005>
18.9346008300781

> <r_mmod_Solvation_Energy-OPLS-2005>
-991.031433105469

> <b_mmod_Minimization_Converged-OPLS-2005>
0

> <r_mmod_RMS_Derivative-OPLS-2005>
0.975595891475677

$$$$
7
                    3D
 Structure written by MMmdl.
165174  0  0  1  0            999 V2000
  -29.9005  -16.0104   20.3772 C   0  0  0  0  0  0
  -30.3380  -13.3938   19.5531 C   0  0  0  0  0  0
  -29.5426  -12.7599   18.3640 C   0  0  0  0  0  0
  -28.1503  -12.2916   18.8124 C   0  0  0  0  0  0
  -27.5469  -13.3136   19.7962 C   0  0  2  0  0  0
  -28.5014  -13.7714   20.9162 C   0  0  0  0  0  0
  -25.2102  -13.8233   20.5783 C   0  0  0  0  0  0
  -24.1556  -13.0367   20.9305 C   0  0  0  0  0  0
  -24.6287  -11.6883   20.8748 C   0  0  0  0  0  0
  -23.9040  -10.4255   21.0404 C   0  0  0  0  0  0
  -24.3626   -9.4182   21.9173 C   0  0  0  0  0  0
  -23.6308   -8.2217   22.0736 C   0  0  0  0  0  0
  -22.4288   -8.0260   21.3532 C   0  0  0  0  0  0
  -21.9911   -9.0223   20.4634 C   0  0  0  0  0  0
  -22.7223  -10.2103   20.3044 C   0  0  0  0  0  0
  -21.6860   -6.0727   22.5281 C   0  0  0  0  0  0
  -21.4024   -6.5632   23.8212 C   0  0  0  0  0  0
  -21.3654   -5.6778   24.9170 C   0  0  0  0  0  0
  -21.6037   -4.3040   24.7222 C   0  0  0  0  0  0
  -21.8827   -3.8140   23.4343 C   0  0  0  0  0  0
  -21.9203   -4.6959   22.3403 C   0  0  0  0  0  0
  -22.7594  -13.5100   21.1981 C   0  0  0  0  0  0
  -22.1665   -4.2143   21.0979 F   0  0  0  0  0  0
  -21.5625   -3.4528   25.7734 F   0  0  0  0  0  0
  -29.5566  -14.5569   20.2383 N   0  0  0  0  0  0
  -26.2465  -12.9537   20.3097 N   0  0  0  0  0  0
  -25.9194  -11.6606   20.5584 N   0  0  0  0  0  0
  -22.0319  -12.8066   22.0556 N   0  0  0  0  0  0
  -25.3647  -15.1995   20.4286 N   0  0  0  0  0  0
  -31.1609  -15.9781   20.3530 O   0  0  0  0  0  0
  -21.6635   -6.8873   21.4242 O   0  0  0  0  0  0
  -22.3271  -14.5405   20.6832 O   0  0  0  0  0  0
  -24.6377  -31.7532   23.1311 C   0  0  0  0  0  0
  -25.9068  -32.4185   23.7762 C   0  0  1  0  0  0
  -27.9134  -27.1542   19.5182 C   0  0  0  0  0  0
  -25.5715  -33.8079   24.1646 N   0  0  0  0  0  0
  -23.4741  -30.1925   21.5479 C   0  0  2  0  0  0
  -24.8249  -28.0316   20.5345 C   0  0  0  0  0  0
  -22.7235  -29.3864   22.5943 C   0  0  0  0  0  0
  -18.0084  -28.1371   22.8475 C   0  0  0  0  0  0
  -24.1488  -36.7028   23.2679 C   0  0  0  0  0  0
  -25.9855  -30.3372   21.5082 C   0  0  0  0  0  0
  -26.1161  -28.8062   21.0877 C   0  0  0  0  0  0
  -27.5895  -28.4191   20.5911 C   0  0  0  0  0  0
  -26.5239  -26.2496   18.7716 C   0  0  0  0  0  0
  -24.9283  -26.7257   19.4415 C   0  0  0  0  0  0
  -23.6945  -29.1437   20.3818 C   0  0  0  0  0  0
  -25.4150  -36.2757   24.0276 C   0  0  1  0  0  0
  -20.5566  -28.3472   23.1655 C   0  0  2  0  0  0
  -20.6536  -26.9281   22.5552 C   0  0  0  0  0  0
  -19.5612  -26.6400   21.5221 C   0  0  0  0  0  0
  -18.1764  -26.7930   22.1583 C   0  0  0  0  0  0
  -19.1311  -28.8780   23.2995 C   0  0  0  0  0  0
  -18.9296  -30.1420   23.8954 C   0  0  0  0  0  0
  -17.6312  -30.6609   24.0552 C   0  0  0  0  0  0
  -25.9101  -34.9133   23.4868 C   0  0  0  0  0  0
  -16.5205  -29.9122   23.6286 C   0  0  0  0  0  0
  -16.7097  -28.6555   23.0270 C   0  0  0  0  0  0
  -26.4463  -31.6446   25.0495 C   0  0  0  0  0  0
  -25.3604  -31.3801   26.1194 C   0  0  0  0  0  0
  -27.0481  -30.2757   24.6656 C   0  0  0  0  0  0
  -27.5907  -32.4457   25.7191 C   0  0  0  0  0  0
  -27.5551  -37.1637   24.8480 C   0  0  0  0  0  0
  -21.4002  -29.2804   22.4330 N   0  0  0  0  0  0
  -26.4266  -37.3541   23.9407 N   0  0  0  0  0  0
  -24.7156  -30.8193   22.1100 N   0  0  0  0  0  0
  -23.3546  -28.7793   23.4587 O   0  0  0  0  0  0
  -28.9206  -26.5141   20.1650 O   0  0  0  0  0  0
  -26.5882  -34.8791   22.4587 O   0  0  0  0  0  0
  -23.5467  -32.1042   23.6059 O   0  0  0  0  0  0
  -28.4158  -24.1408   21.5909 C   0  0  0  0  0  0
  -29.2694  -25.1667   21.9883 C   0  0  0  0  0  0
  -27.4103  -26.4106   22.1107 C   0  0  0  0  0  0
  -26.5408  -26.1560   21.0095 C   0  0  0  0  0  0
  -27.1489  -24.4076   20.9346 C   0  0  0  0  0  0
  -28.7548  -26.3654   21.5758 C   0  0  0  0  0  0
  -25.7960  -27.9516   16.2116 C   0  0  0  0  0  0
  -27.2842  -28.2323   16.3814 C   0  0  0  0  0  0
  -25.1567  -28.4959   17.4939 C   0  0  0  0  0  0
  -27.3857  -28.9888   17.7135 C   0  0  0  0  0  0
  -26.2261  -28.4659   18.7211 C   0  0  0  0  0  0
  -27.1927  -18.8704   21.6345 C   0  0  0  0  0  0
  -28.0135  -21.1597   20.2171 C   0  0  0  0  0  0
  -28.4644  -19.1815   20.8254 C   0  0  2  0  0  0
  -27.0597  -22.7467   20.5173 N   0  0  0  0  0  0
  -28.9643  -17.3799   20.3510 N   0  0  0  0  0  0
  -31.2822  -13.7715   19.1608 H   0  0  0  0  0  0
  -30.6216  -12.6227   20.2735 H   0  0  0  0  0  0
  -30.1028  -11.9342   17.9222 H   0  0  0  0  0  0
  -29.4307  -13.5114   17.5810 H   0  0  0  0  0  0
  -28.2550  -11.3279   19.3127 H   0  0  0  0  0  0
  -27.4956  -12.1280   17.9549 H   0  0  0  0  0  0
  -27.3645  -14.1861   19.1662 H   0  0  0  0  0  0
  -28.8727  -12.9436   21.5240 H   0  0  0  0  0  0
  -27.9714  -14.4377   21.5998 H   0  0  0  0  0  0
  -25.2785   -9.5668   22.4730 H   0  0  0  0  0  0
  -24.0025   -7.4608   22.7446 H   0  0  0  0  0  0
  -21.0843   -8.8751   19.8941 H   0  0  0  0  0  0
  -22.3693  -10.9648   19.6160 H   0  0  0  0  0  0
  -21.2022   -7.6142   23.9720 H   0  0  0  0  0  0
  -21.1455   -6.0502   25.9069 H   0  0  0  0  0  0
  -22.0617   -2.7606   23.2843 H   0  0  0  0  0  0
  -22.4006  -11.9744   22.4924 H   0  0  0  0  0  0
  -21.0932  -13.1032   22.2800 H   0  0  0  0  0  0
  -24.5879  -15.8379   20.5610 H   0  0  0  0  0  0
  -26.1899  -15.6525   20.0645 H   0  0  0  0  0  0
  -26.7035  -32.4647   23.0346 H   0  0  0  0  0  0
  -24.9627  -33.9106   24.9627 H   0  0  0  0  0  0
  -22.8202  -30.9892   21.1875 H   0  0  0  0  0  0
  -23.3788  -35.9318   23.3281 H   0  0  0  0  0  0
  -24.3537  -36.8754   22.2104 H   0  0  0  0  0  0
  -23.7218  -37.6167   23.6818 H   0  0  0  0  0  0
  -26.1582  -30.9514   20.6245 H   0  0  0  0  0  0
  -26.8464  -30.5444   22.1281 H   0  0  0  0  0  0
  -28.4248  -28.9735   20.9929 H   0  0  0  0  0  0
  -26.6488  -25.3717   18.1548 H   0  0  0  0  0  0
  -24.0300  -26.2727   19.0473 H   0  0  0  0  0  0
  -23.8718  -29.7236   19.4796 H   0  0  0  0  0  0
  -22.7650  -28.6134   20.1617 H   0  0  0  0  0  0
  -25.1389  -36.1452   25.0767 H   0  0  0  0  0  0
  -20.9367  -28.2837   24.1876 H   0  0  0  0  0  0
  -20.5371  -26.2024   23.3605 H   0  0  0  0  0  0
  -21.6431  -26.7341   22.1390 H   0  0  0  0  0  0
  -19.6795  -25.6357   21.1133 H   0  0  0  0  0  0
  -19.6645  -27.3318   20.6844 H   0  0  0  0  0  0
  -17.4055  -26.6666   21.3954 H   0  0  0  0  0  0
  -18.0155  -26.0054   22.8958 H   0  0  0  0  0  0
  -19.7782  -30.7188   24.2358 H   0  0  0  0  0  0
  -17.4878  -31.6288   24.5159 H   0  0  0  0  0  0
  -15.5215  -30.3050   23.7612 H   0  0  0  0  0  0
  -15.8473  -28.0939   22.6896 H   0  0  0  0  0  0
  -24.5829  -30.7067   25.7582 H   0  0  0  0  0  0
  -24.8734  -32.3008   26.4404 H   0  0  0  0  0  0
  -25.7861  -30.9163   27.0098 H   0  0  0  0  0  0
  -26.3172  -29.6163   24.1976 H   0  0  0  0  0  0
  -27.4059  -29.7479   25.5500 H   0  0  0  0  0  0
  -27.9093  -30.3777   24.0056 H   0  0  0  0  0  0
  -27.2416  -33.3854   26.1489 H   0  0  0  0  0  0
  -28.3753  -32.6883   25.0012 H   0  0  0  0  0  0
  -28.0549  -31.8839   26.5300 H   0  0  0  0  0  0
  -28.2546  -37.9954   24.7536 H   0  0  0  0  0  0
  -28.1069  -36.2474   24.6312 H   0  0  0  0  0  0
  -27.2261  -37.1270   25.8883 H   0  0  0  0  0  0
  -20.9559  -29.8128   21.6983 H   0  0  0  0  0  0
  -26.0070  -38.2588   24.1393 H   0  0  0  0  0  0
  -28.8662  -23.1627   21.7092 H   0  0  0  0  0  0
  -30.3186  -24.9785   22.1619 H   0  0  0  0  0  0
  -27.2256  -27.2409   22.7783 H   0  0  0  0  0  0
  -25.6128  -26.8817   16.0996 H   0  0  0  0  0  0
  -25.3860  -28.4476   15.3297 H   0  0  0  0  0  0
  -27.6905  -28.8169   15.5548 H   0  0  0  0  0  0
  -27.8406  -27.2951   16.4213 H   0  0  0  0  0  0
  -24.1535  -28.1033   17.6528 H   0  0  0  0  0  0
  -24.9335  -29.5431   17.2712 H   0  0  0  0  0  0
  -27.1873  -30.0358   17.4693 H   0  0  0  0  0  0
  -28.4073  -29.0420   18.0930 H   0  0  0  0  0  0
  -25.9932  -29.4969   19.0075 H   0  0  0  0  0  0
  -26.8577  -19.7323   22.2129 H   0  0  0  0  0  0
  -27.3470  -18.0514   22.3356 H   0  0  0  0  0  0
  -26.3671  -18.5845   20.9799 H   0  0  0  0  0  0
  -28.9995  -21.5510   19.9637 H   0  0  0  0  0  0
  -27.5877  -20.9320   19.2374 H   0  0  0  0  0  0
  -29.2379  -19.3796   21.5697 H   0  0  0  0  0  0
  -26.1267  -22.5821   20.1452 H   0  0  0  0  0  0
  -28.0919  -16.9904   20.0230 H   0  0  0  0  0  0
  1 25  1  0  0  0
  1 30  2  0  0  0
  1 86  1  0  0  0
  2  3  1  0  0  0
  2 25  1  0  0  0
  2 87  1  0  0  0
  2 88  1  0  0  0
  3  4  1  0  0  0
  3 89  1  0  0  0
  3 90  1  0  0  0
  4  5  1  0  0  0
  4 91  1  0  0  0
  4 92  1  0  0  0
  5  6  1  0  0  0
  5 26  1  0  0  0
  5 93  1  0  0  0
  6 25  1  0  0  0
  6 94  1  0  0  0
  6 95  1  0  0  0
  7  8  2  0  0  0
  7 26  1  0  0  0
  7 29  1  0  0  0
  8  9  1  0  0  0
  8 22  1  0  0  0
  9 10  1  0  0  0
  9 27  2  0  0  0
 10 11  2  0  0  0
 10 15  1  0  0  0
 11 12  1  0  0  0
 11 96  1  0  0  0
 12 13  2  0  0  0
 12 97  1  0  0  0
 13 14  1  0  0  0
 13 31  1  0  0  0
 14 15  2  0  0  0
 14 98  1  0  0  0
 15 99  1  0  0  0
 16 17  2  0  0  0
 16 21  1  0  0  0
 16 31  1  0  0  0
 17 18  1  0  0  0
 17100  1  0  0  0
 18 19  2  0  0  0
 18101  1  0  0  0
 19 20  1  0  0  0
 19 24  1  0  0  0
 20 21  2  0  0  0
 20102  1  0  0  0
 21 23  1  0  0  0
 22 28  1  0  0  0
 22 32  2  0  0  0
 26 27  1  0  0  0
 28103  1  0  0  0
 28104  1  0  0  0
 29105  1  0  0  0
 29106  1  0  0  0
 33 34  1  0  0  0
 33 66  1  0  0  0
 33 70  2  0  0  0
 34 36  1  0  0  0
 34 59  1  0  0  0
 34107  1  0  0  0
 35 44  2  0  0  0
 35 45  1  0  0  0
 35 68  1  0  0  0
 36 56  1  0  0  0
 36108  1  0  0  0
 37 39  1  0  0  0
 37 47  1  0  0  0
 37 66  1  0  0  0
 37109  1  0  0  0
 38 43  2  0  0  0
 38 46  1  0  0  0
 38 47  1  0  0  0
 39 64  1  0  0  0
 39 67  2  0  0  0
 40 52  1  0  0  0
 40 53  2  0  0  0
 40 58  1  0  0  0
 41110  1  0  0  0
 41111  1  0  0  0
 41112  1  0  0  0
 41 48  1  0  0  0
 42 43  1  0  0  0
 42 66  1  0  0  0
 42113  1  0  0  0
 42114  1  0  0  0
 43 44  1  0  0  0
 44115  1  0  0  0
 45 46  2  0  0  0
 45116  1  0  0  0
 46117  1  0  0  0
 47118  1  0  0  0
 47119  1  0  0  0
 48 56  1  0  0  0
 48 65  1  0  0  0
 48120  1  0  0  0
 49 50  1  0  0  0
 49 53  1  0  0  0
 49 64  1  0  0  0
 49121  1  0  0  0
 50 51  1  0  0  0
 50122  1  0  0  0
 50123  1  0  0  0
 51 52  1  0  0  0
 51124  1  0  0  0
 51125  1  0  0  0
 52126  1  0  0  0
 52127  1  0  0  0
 53 54  1  0  0  0
 54 55  2  0  0  0
 54128  1  0  0  0
 55 57  1  0  0  0
 55129  1  0  0  0
 56 69  2  0  0  0
 57 58  2  0  0  0
 57130  1  0  0  0
 58131  1  0  0  0
 59 60  1  0  0  0
 59 61  1  0  0  0
 59 62  1  0  0  0
 60132  1  0  0  0
 60133  1  0  0  0
 60134  1  0  0  0
 61135  1  0  0  0
 61136  1  0  0  0
 61137  1  0  0  0
 62138  1  0  0  0
 62139  1  0  0  0
 62140  1  0  0  0
 63 65  1  0  0  0
 63141  1  0  0  0
 63142  1  0  0  0
 63143  1  0  0  0
 64144  1  0  0  0
 65145  1  0  0  0
 68 76  1  0  0  0
 71 72  2  0  0  0
 71 75  1  0  0  0
 71146  1  0  0  0
 72 76  1  0  0  0
 72147  1  0  0  0
 73 74  1  0  0  0
 73 76  2  0  0  0
 73148  1  0  0  0
 74 75  2  0  0  0
 74 81  1  0  0  0
 75 85  1  0  0  0
 77 78  1  0  0  0
 77 79  1  0  0  0
 77149  1  0  0  0
 77150  1  0  0  0
 78 80  1  0  0  0
 78151  1  0  0  0
 78152  1  0  0  0
 79 81  1  0  0  0
 79153  1  0  0  0
 79154  1  0  0  0
 80 81  1  0  0  0
 80155  1  0  0  0
 80156  1  0  0  0
 81157  1  0  0  0
 82158  1  0  0  0
 82159  1  0  0  0
 82160  1  0  0  0
 82 84  1  0  0  0
 83 84  1  0  0  0
 83 85  1  0  0  0
 83161  1  0  0  0
 83162  1  0  0  0
 84 86  1  0  0  0
 84163  1  0  0  0
 85164  1  0  0  0
 86165  1  0  0  0
M  ISO  4   1 100  68 101  76 101  86 100
M  END
> <chiral flag>
0

> <version>
0

> <s_m_source_file>
/data/baiqing/PycharmProjects/Reinvent-master-3.2/result/LINK_invent/BTK/process_docking_weight1_custom_sum_contain_oxygen_bond_distance_aromatic_linkinvent_7_9_3/rearranged_h_0130.sdf

> <i_m_source_file_index>
8

> <r_mmod_Potential_Energy-OPLS-2005>
12723.84375

> <r_mmod_Stretch_Energy-OPLS-2005>
7257.10546875

> <r_mmod_Bend_Energy-OPLS-2005>
1285.04333496094

> <r_mmod_Torsional_Energy-OPLS-2005>
734.584777832031

> <r_mmod_Improper_Torsional_Energy-OPLS-2005>
100.125900268555

> <r_mmod_Van_der_Waal_Energy-OPLS-2005>
2300.07250976562

> <r_mmod_Electrostatic_Energy-OPLS-2005>
-396.964935302734

> <r_mmod_Solvation_Energy-OPLS-2005>
-232.373107910156

> <b_mmod_Minimization_Converged-OPLS-2005>
0

> <r_mmod_RMS_Derivative-OPLS-2005>
5.13601064682007

$$$$
8
                    3D
 Structure written by MMmdl.
160168  0  0  1  0            999 V2000
  -30.6719  -14.4739   20.6002 C   0  0  0  0  0  0
  -30.4358  -12.3027   19.4496 C   0  0  0  0  0  0
  -29.5175  -12.4964   18.2236 C   0  0  0  0  0  0
  -28.0304  -12.3710   18.6129 C   0  0  0  0  0  0
  -27.6634  -13.2082   19.8713 C   0  0  2  0  0  0
  -28.6943  -12.9611   20.9944 C   0  0  0  0  0  0
  -25.2571  -13.8183   20.5644 C   0  0  0  0  0  0
  -24.1817  -13.0452   20.9142 C   0  0  0  0  0  0
  -24.6380  -11.6914   20.8708 C   0  0  0  0  0  0
  -23.9062  -10.4304   21.0381 C   0  0  0  0  0  0
  -24.3604   -9.4220   21.9176 C   0  0  0  0  0  0
  -23.6283   -8.2255   22.0754 C   0  0  0  0  0  0
  -22.4281   -8.0286   21.3540 C   0  0  0  0  0  0
  -21.9902   -9.0259   20.4659 C   0  0  0  0  0  0
  -22.7224  -10.2138   20.3042 C   0  0  0  0  0  0
  -21.6869   -6.0731   22.5270 C   0  0  0  0  0  0
  -21.4037   -6.5639   23.8202 C   0  0  0  0  0  0
  -21.3653   -5.6786   24.9164 C   0  0  0  0  0  0
  -21.6044   -4.3048   24.7213 C   0  0  0  0  0  0
  -21.8818   -3.8140   23.4337 C   0  0  0  0  0  0
  -21.9187   -4.6959   22.3395 C   0  0  0  0  0  0
  -22.7822  -13.5239   21.1801 C   0  0  0  0  0  0
  -22.1649   -4.2149   21.0973 F   0  0  0  0  0  0
  -21.5605   -3.4522   25.7720 F   0  0  0  0  0  0
  -30.0286  -13.2837   20.4625 N   0  0  0  0  0  0
  -26.3011  -12.9349   20.3271 N   0  0  0  0  0  0
  -25.9301  -11.6502   20.5697 N   0  0  0  0  0  0
  -22.0458  -12.8270   22.0382 N   0  0  0  0  0  0
  -25.4288  -15.1919   20.4077 N   0  0  0  0  0  0
  -31.7903  -14.6953   20.1207 O   0  0  0  0  0  0
  -21.6648   -6.8876   21.4237 O   0  0  0  0  0  0
  -22.3492  -14.5525   20.6622 O   0  0  0  0  0  0
  -24.6178  -31.8665   23.2079 C   0  0  0  0  0  0
  -25.9065  -32.4832   23.8385 C   0  0  1  0  0  0
  -27.2410  -27.4316   20.0910 C   0  0  0  0  0  0
  -25.5884  -33.8630   24.2327 N   0  0  0  0  0  0
  -23.4065  -30.4870   21.5494 C   0  0  2  0  0  0
  -24.8519  -28.9468   20.1192 C   0  0  0  0  0  0
  -22.7434  -29.4634   22.4997 C   0  0  0  0  0  0
  -18.0276  -28.1370   22.8503 C   0  0  0  0  0  0
  -24.1472  -36.7314   23.2637 C   0  0  0  0  0  0
  -25.9357  -30.8343   21.3556 C   0  0  0  0  0  0
  -26.0126  -29.4656   20.7044 C   0  0  0  0  0  0
  -27.2122  -28.7202   20.6742 C   0  0  0  0  0  0
  -26.0563  -26.9169   19.5202 C   0  0  0  0  0  0
  -24.8690  -27.6738   19.5220 C   0  0  0  0  0  0
  -23.6132  -29.8129   20.1673 C   0  0  0  0  0  0
  -25.4100  -36.3133   24.0349 C   0  0  1  0  0  0
  -20.5867  -28.3651   23.1342 C   0  0  2  0  0  0
  -20.6757  -26.9389   22.5426 C   0  0  0  0  0  0
  -19.5739  -26.6386   21.5215 C   0  0  0  0  0  0
  -18.1922  -26.7928   22.1627 C   0  0  0  0  0  0
  -19.1526  -28.8829   23.2919 C   0  0  0  0  0  0
  -18.9436  -30.1428   23.8934 C   0  0  0  0  0  0
  -17.6436  -30.6580   24.0558 C   0  0  0  0  0  0
  -25.9022  -34.9494   23.5149 C   0  0  0  0  0  0
  -16.5331  -29.9078   23.6317 C   0  0  0  0  0  0
  -16.7263  -28.6490   23.0363 C   0  0  0  0  0  0
  -26.4466  -31.6623   25.0725 C   0  0  0  0  0  0
  -25.3719  -31.3729   26.1464 C   0  0  0  0  0  0
  -27.0270  -30.3058   24.6105 C   0  0  0  0  0  0
  -27.6062  -32.4321   25.7492 C   0  0  0  0  0  0
  -27.5578  -37.1820   24.8469 C   0  0  0  0  0  0
  -21.4158  -29.3024   22.3747 N   0  0  0  0  0  0
  -26.4296  -37.3806   23.9412 N   0  0  0  0  0  0
  -24.6715  -31.0763   22.0963 N   0  0  0  0  0  0
  -23.4202  -28.8172   23.3036 O   0  0  0  0  0  0
  -28.4342  -26.7423   20.0514 O   0  0  0  0  0  0
  -26.5592  -34.8967   22.4711 O   0  0  0  0  0  0
  -23.5376  -32.1374   23.7483 O   0  0  0  0  0  0
  -31.4707  -19.3750   18.0101 C   0  0  0  0  0  0
  -30.7311  -20.5646   17.8834 C   0  0  0  0  0  0
  -31.0217  -18.3974   18.9087 C   0  0  0  0  0  0
  -29.5790  -20.7371   18.6762 C   0  0  0  0  0  0
  -29.8904  -18.6561   19.6985 C   0  0  0  0  0  0
  -27.1915  -21.5781   18.5408 C   0  0  0  0  0  0
  -28.5421  -24.4118   19.1388 C   0  0  0  0  0  0
  -28.4398  -25.3411   20.3745 C   0  0  0  0  0  0
  -30.3133  -16.8580   21.3511 C   0  0  0  0  0  0
  -28.6834  -21.9746   18.5042 C   0  0  1  0  0  0
  -29.2038  -19.8167   19.6052 N   0  0  0  0  0  0
  -29.3841  -17.7133   20.6000 N   0  0  0  0  0  0
  -29.9429  -15.4446   21.1842 N   0  0  0  0  0  0
  -29.0063  -23.0319   19.4885 N   0  3  0  0  0  0
  -31.4856  -12.4080   19.1673 H   0  0  0  0  0  0
  -30.3372  -11.2957   19.8563 H   0  0  0  0  0  0
  -29.7712  -11.7663   17.4523 H   0  0  0  0  0  0
  -29.6963  -13.4800   17.7861 H   0  0  0  0  0  0
  -27.8315  -11.3176   18.8018 H   0  0  0  0  0  0
  -27.3960  -12.6471   17.7704 H   0  0  0  0  0  0
  -27.7170  -14.2604   19.5866 H   0  0  0  0  0  0
  -28.6681  -11.9128   21.2963 H   0  0  0  0  0  0
  -28.4456  -13.5247   21.8934 H   0  0  0  0  0  0
  -25.2745   -9.5705   22.4735 H   0  0  0  0  0  0
  -23.9988   -7.4668   22.7490 H   0  0  0  0  0  0
  -21.0806   -8.8770   19.9006 H   0  0  0  0  0  0
  -22.3663  -10.9652   19.6130 H   0  0  0  0  0  0
  -21.2070   -7.6145   23.9711 H   0  0  0  0  0  0
  -21.1467   -6.0516   25.9069 H   0  0  0  0  0  0
  -22.0611   -2.7601   23.2832 H   0  0  0  0  0  0
  -22.4081  -11.9950   22.4797 H   0  0  0  0  0  0
  -21.1084  -13.1335   22.2590 H   0  0  0  0  0  0
  -24.6614  -15.8461   20.5230 H   0  0  0  0  0  0
  -26.2792  -15.6336   20.0795 H   0  0  0  0  0  0
  -26.7160  -32.5527   23.1166 H   0  0  0  0  0  0
  -25.0066  -33.9773   25.0492 H   0  0  0  0  0  0
  -22.6955  -31.3034   21.4089 H   0  0  0  0  0  0
  -23.3738  -35.9635   23.3313 H   0  0  0  0  0  0
  -24.3562  -36.8901   22.2042 H   0  0  0  0  0  0
  -23.7224  -37.6537   23.6622 H   0  0  0  0  0  0
  -26.0453  -31.5993   20.5849 H   0  0  0  0  0  0
  -26.8267  -30.8919   21.9696 H   0  0  0  0  0  0
  -28.1188  -29.1272   21.0991 H   0  0  0  0  0  0
  -26.0391  -25.9426   19.0574 H   0  0  0  0  0  0
  -23.9739  -27.2708   19.0672 H   0  0  0  0  0  0
  -23.7157  -30.5821   19.4018 H   0  0  0  0  0  0
  -22.7388  -29.2273   19.8799 H   0  0  0  0  0  0
  -25.1278  -36.1995   25.0843 H   0  0  0  0  0  0
  -20.9955  -28.3194   24.1461 H   0  0  0  0  0  0
  -20.5655  -26.2240   23.3593 H   0  0  0  0  0  0
  -21.6627  -26.7436   22.1206 H   0  0  0  0  0  0
  -19.6885  -25.6301   21.1234 H   0  0  0  0  0  0
  -19.6686  -27.3200   20.6746 H   0  0  0  0  0  0
  -17.4184  -26.6691   21.4030 H   0  0  0  0  0  0
  -18.0310  -26.0069   22.9015 H   0  0  0  0  0  0
  -19.7909  -30.7248   24.2325 H   0  0  0  0  0  0
  -17.4986  -31.6270   24.5139 H   0  0  0  0  0  0
  -15.5328  -30.2982   23.7629 H   0  0  0  0  0  0
  -15.8667  -28.0808   22.7078 H   0  0  0  0  0  0
  -24.5900  -30.7074   25.7787 H   0  0  0  0  0  0
  -24.8884  -32.2875   26.4906 H   0  0  0  0  0  0
  -25.8047  -30.8903   27.0224 H   0  0  0  0  0  0
  -26.2807  -29.6867   24.1109 H   0  0  0  0  0  0
  -27.3964  -29.7273   25.4578 H   0  0  0  0  0  0
  -27.8683  -30.4373   23.9297 H   0  0  0  0  0  0
  -27.2702  -33.3607   26.2111 H   0  0  0  0  0  0
  -28.3842  -32.6889   25.0293 H   0  0  0  0  0  0
  -28.0750  -31.8406   26.5359 H   0  0  0  0  0  0
  -28.2630  -38.0086   24.7510 H   0  0  0  0  0  0
  -28.1045  -36.2629   24.6295 H   0  0  0  0  0  0
  -27.2301  -37.1480   25.8876 H   0  0  0  0  0  0
  -20.9293  -29.8733   21.6966 H   0  0  0  0  0  0
  -26.0189  -38.2896   24.1379 H   0  0  0  0  0  0
  -32.3511  -19.1893   17.4108 H   0  0  0  0  0  0
  -31.0380  -21.3051   17.1583 H   0  0  0  0  0  0
  -31.5493  -17.4543   18.9590 H   0  0  0  0  0  0
  -26.9686  -20.8618   17.7516 H   0  0  0  0  0  0
  -26.5164  -22.4214   18.4142 H   0  0  0  0  0  0
  -26.9375  -21.0991   19.4874 H   0  0  0  0  0  0
  -29.2446  -24.8364   18.4184 H   0  0  0  0  0  0
  -27.5814  -24.3780   18.6253 H   0  0  0  0  0  0
  -29.3212  -25.1906   20.9986 H   0  0  0  0  0  0
  -27.5927  -25.0630   21.0046 H   0  0  0  0  0  0
  -30.2238  -17.1270   22.4043 H   0  0  0  0  0  0
  -31.3606  -17.0347   21.1036 H   0  0  0  0  0  0
  -28.8984  -22.3803   17.5127 H   0  0  0  0  0  0
  -28.5474  -18.0098   21.0911 H   0  0  0  0  0  0
  -29.0400  -15.1603   21.5363 H   0  0  0  0  0  0
  -28.6391  -22.7296   20.3768 H   0  0  0  0  0  0
  -30.0115  -23.0408   19.5794 H   0  0  0  0  0  0
  1 25  1  0  0  0
  1 30  2  0  0  0
  1 83  1  0  0  0
  2  3  1  0  0  0
  2 25  1  0  0  0
  2 85  1  0  0  0
  2 86  1  0  0  0
  3  4  1  0  0  0
  3 87  1  0  0  0
  3 88  1  0  0  0
  4  5  1  0  0  0
  4 89  1  0  0  0
  4 90  1  0  0  0
  5  6  1  0  0  0
  5 26  1  0  0  0
  5 91  1  0  0  0
  6 25  1  0  0  0
  6 92  1  0  0  0
  6 93  1  0  0  0
  7  8  2  0  0  0
  7 26  1  0  0  0
  7 29  1  0  0  0
  8  9  1  0  0  0
  8 22  1  0  0  0
  9 10  1  0  0  0
  9 27  2  0  0  0
 10 11  2  0  0  0
 10 15  1  0  0  0
 11 12  1  0  0  0
 11 94  1  0  0  0
 12 13  2  0  0  0
 12 95  1  0  0  0
 13 14  1  0  0  0
 13 31  1  0  0  0
 14 15  2  0  0  0
 14 96  1  0  0  0
 15 97  1  0  0  0
 16 17  2  0  0  0
 16 21  1  0  0  0
 16 31  1  0  0  0
 17 18  1  0  0  0
 17 98  1  0  0  0
 18 19  2  0  0  0
 18 99  1  0  0  0
 19 20  1  0  0  0
 19 24  1  0  0  0
 20 21  2  0  0  0
 20100  1  0  0  0
 21 23  1  0  0  0
 22 28  1  0  0  0
 22 32  2  0  0  0
 26 27  1  0  0  0
 28101  1  0  0  0
 28102  1  0  0  0
 29103  1  0  0  0
 29104  1  0  0  0
 33 34  1  0  0  0
 33 66  1  0  0  0
 33 70  2  0  0  0
 34 36  1  0  0  0
 34 59  1  0  0  0
 34105  1  0  0  0
 35 44  2  0  0  0
 35 45  1  0  0  0
 35 68  1  0  0  0
 36 56  1  0  0  0
 36106  1  0  0  0
 37 39  1  0  0  0
 37 47  1  0  0  0
 37 66  1  0  0  0
 37107  1  0  0  0
 38 43  2  0  0  0
 38 46  1  0  0  0
 38 47  1  0  0  0
 39 64  1  0  0  0
 39 67  2  0  0  0
 40 52  1  0  0  0
 40 53  2  0  0  0
 40 58  1  0  0  0
 41108  1  0  0  0
 41109  1  0  0  0
 41110  1  0  0  0
 41 48  1  0  0  0
 42 43  1  0  0  0
 42 66  1  0  0  0
 42111  1  0  0  0
 42112  1  0  0  0
 43 44  1  0  0  0
 44113  1  0  0  0
 45 46  2  0  0  0
 45114  1  0  0  0
 46115  1  0  0  0
 47116  1  0  0  0
 47117  1  0  0  0
 48 56  1  0  0  0
 48 65  1  0  0  0
 48118  1  0  0  0
 49 50  1  0  0  0
 49 53  1  0  0  0
 49 64  1  0  0  0
 49119  1  0  0  0
 50 51  1  0  0  0
 50120  1  0  0  0
 50121  1  0  0  0
 51 52  1  0  0  0
 51122  1  0  0  0
 51123  1  0  0  0
 52124  1  0  0  0
 52125  1  0  0  0
 53 54  1  0  0  0
 54 55  2  0  0  0
 54126  1  0  0  0
 55 57  1  0  0  0
 55127  1  0  0  0
 56 69  2  0  0  0
 57 58  2  0  0  0
 57128  1  0  0  0
 58129  1  0  0  0
 59 60  1  0  0  0
 59 61  1  0  0  0
 59 62  1  0  0  0
 60130  1  0  0  0
 60131  1  0  0  0
 60132  1  0  0  0
 61133  1  0  0  0
 61134  1  0  0  0
 61135  1  0  0  0
 62136  1  0  0  0
 62137  1  0  0  0
 62138  1  0  0  0
 63 65  1  0  0  0
 63139  1  0  0  0
 63140  1  0  0  0
 63141  1  0  0  0
 64142  1  0  0  0
 65143  1  0  0  0
 68 78  1  0  0  0
 71 72  2  0  0  0
 71 73  1  0  0  0
 71144  1  0  0  0
 72 74  1  0  0  0
 72145  1  0  0  0
 73 75  2  0  0  0
 73146  1  0  0  0
 74 80  1  0  0  0
 74 81  2  0  0  0
 75 81  1  0  0  0
 75 82  1  0  0  0
 76147  1  0  0  0
 76148  1  0  0  0
 76149  1  0  0  0
 76 80  1  0  0  0
 77 78  1  0  0  0
 77 84  1  0  0  0
 77150  1  0  0  0
 77151  1  0  0  0
 78152  1  0  0  0
 78153  1  0  0  0
 79 82  1  0  0  0
 79 83  1  0  0  0
 79154  1  0  0  0
 79155  1  0  0  0
 80 84  1  0  0  0
 80156  1  0  0  0
 82157  1  0  0  0
 83158  1  0  0  0
 84159  1  0  0  0
 84160  1  0  0  0
M  CHG  1  84   1
M  ISO  4   1 100  68 101  78 101  83 100
M  END
> <chiral flag>
0

> <version>
0

> <s_m_source_file>
/data/baiqing/PycharmProjects/Reinvent-master-3.2/result/LINK_invent/BTK/process_docking_weight1_custom_sum_contain_oxygen_bond_distance_aromatic_linkinvent_7_9_3/rearranged_h_0130.sdf

> <i_m_source_file_index>
9

> <r_mmod_Potential_Energy-OPLS-2005>
-513.134399414062

> <r_mmod_Stretch_Energy-OPLS-2005>
37.5453186035156

> <r_mmod_Bend_Energy-OPLS-2005>
104.076049804688

> <r_mmod_Torsional_Energy-OPLS-2005>
201.302337646484

> <r_mmod_Improper_Torsional_Energy-OPLS-2005>
5.91048336029053

> <r_mmod_Van_der_Waal_Energy-OPLS-2005>
155.284408569336

> <r_mmod_Electrostatic_Energy-OPLS-2005>
-564.644897460938

> <r_mmod_Solvation_Energy-OPLS-2005>
-465.383972167969

> <b_mmod_Minimization_Converged-OPLS-2005>
0

> <r_mmod_RMS_Derivative-OPLS-2005>
4.51069164276123

$$$$
9
                    3D
 Structure written by MMmdl.
168176  0  0  1  0            999 V2000
  -30.5980  -14.7188   20.4878 C   0  0  0  0  0  0
  -30.4696  -12.4587   19.4664 C   0  0  0  0  0  0
  -29.5368  -12.5069   18.2372 C   0  0  0  0  0  0
  -28.0513  -12.3536   18.6286 C   0  0  0  0  0  0
  -27.6515  -13.2246   19.8522 C   0  0  2  0  0  0
  -28.6969  -13.1129   20.9888 C   0  0  0  0  0  0
  -25.2575  -13.8189   20.5685 C   0  0  0  0  0  0
  -24.1827  -13.0410   20.9222 C   0  0  0  0  0  0
  -24.6418  -11.6906   20.8682 C   0  0  0  0  0  0
  -23.9048  -10.4292   21.0397 C   0  0  0  0  0  0
  -24.3604   -9.4231   21.9205 C   0  0  0  0  0  0
  -23.6330   -8.2226   22.0751 C   0  0  0  0  0  0
  -22.4308   -8.0253   21.3522 C   0  0  0  0  0  0
  -21.9925   -9.0200   20.4613 C   0  0  0  0  0  0
  -22.7205  -10.2131   20.3066 C   0  0  0  0  0  0
  -21.6818   -6.0761   22.5312 C   0  0  0  0  0  0
  -21.3952   -6.5650   23.8247 C   0  0  0  0  0  0
  -21.3662   -5.6794   24.9211 C   0  0  0  0  0  0
  -21.6060   -4.3054   24.7239 C   0  0  0  0  0  0
  -21.8830   -3.8165   23.4355 C   0  0  0  0  0  0
  -21.9189   -4.6999   22.3418 C   0  0  0  0  0  0
  -22.7869  -13.5237   21.1856 C   0  0  0  0  0  0
  -22.1699   -4.2161   21.0995 F   0  0  0  0  0  0
  -21.5643   -3.4566   25.7775 F   0  0  0  0  0  0
  -30.0073  -13.4784   20.4295 N   0  0  0  0  0  0
  -26.2966  -12.9336   20.3187 N   0  0  0  0  0  0
  -25.9324  -11.6503   20.5638 N   0  0  0  0  0  0
  -22.0432  -12.8214   22.0381 N   0  0  0  0  0  0
  -25.4320  -15.1903   20.4234 N   0  0  0  0  0  0
  -31.7735  -14.8866   20.1563 O   0  0  0  0  0  0
  -21.6625   -6.8900   21.4269 O   0  0  0  0  0  0
  -22.3592  -14.5541   20.6762 O   0  0  0  0  0  0
  -24.6354  -31.8603   23.1955 C   0  0  0  0  0  0
  -25.9207  -32.4749   23.8326 C   0  0  1  0  0  0
  -27.1661  -27.2462   20.1519 C   0  0  0  0  0  0
  -25.6006  -33.8536   24.2292 N   0  0  0  0  0  0
  -23.4299  -30.4906   21.5381 C   0  0  2  0  0  0
  -24.8643  -28.9435   20.0947 C   0  0  0  0  0  0
  -22.7549  -29.4694   22.4872 C   0  0  0  0  0  0
  -18.0327  -28.1378   22.8489 C   0  0  0  0  0  0
  -24.1516  -36.7249   23.2649 C   0  0  0  0  0  0
  -25.9746  -30.7652   21.3794 C   0  0  0  0  0  0
  -26.0317  -29.3852   20.7304 C   0  0  0  0  0  0
  -27.1875  -28.5423   20.7613 C   0  0  0  0  0  0
  -26.0069  -26.8969   19.4375 C   0  0  0  0  0  0
  -24.8617  -27.7096   19.4287 C   0  0  0  0  0  0
  -23.6419  -29.8389   20.1446 C   0  0  0  0  0  0
  -25.4137  -36.3054   24.0370 C   0  0  1  0  0  0
  -20.5931  -28.3735   23.1198 C   0  0  2  0  0  0
  -20.6799  -26.9440   22.5364 C   0  0  0  0  0  0
  -19.5748  -26.6395   21.5200 C   0  0  0  0  0  0
  -18.1948  -26.7941   22.1622 C   0  0  0  0  0  0
  -19.1576  -28.8868   23.2852 C   0  0  0  0  0  0
  -18.9497  -30.1452   23.8893 C   0  0  0  0  0  0
  -17.6492  -30.6557   24.0575 C   0  0  0  0  0  0
  -25.9084  -34.9443   23.5124 C   0  0  0  0  0  0
  -16.5387  -29.9057   23.6298 C   0  0  0  0  0  0
  -16.7327  -28.6477   23.0352 C   0  0  0  0  0  0
  -26.4547  -31.6510   25.0687 C   0  0  0  0  0  0
  -25.3733  -31.3639   26.1368 C   0  0  0  0  0  0
  -27.0485  -30.2962   24.6163 C   0  0  0  0  0  0
  -27.6141  -32.4227   25.7401 C   0  0  0  0  0  0
  -27.5630  -37.1782   24.8491 C   0  0  0  0  0  0
  -21.4260  -29.3083   22.3596 N   0  0  0  0  0  0
  -26.4319  -37.3754   23.9443 N   0  0  0  0  0  0
  -24.7001  -31.0624   22.0911 N   0  0  0  0  0  0
  -23.4257  -28.8247   23.2992 O   0  0  0  0  0  0
  -28.2063  -26.3041   20.2196 O   0  0  0  0  0  0
  -26.5628  -34.8948   22.4656 O   0  0  0  0  0  0
  -23.5515  -32.1433   23.7257 O   0  0  0  0  0  0
  -31.2150  -22.7030   19.6350 C   0  0  0  0  0  0
  -30.9277  -21.4808   20.5468 C   0  0  0  0  0  0
  -28.6015  -22.2724   20.8766 C   0  0  0  0  0  0
  -30.2655  -23.9512   19.7747 C   0  0  2  0  0  0
  -28.7663  -23.6176   20.0391 C   0  0  2  0  0  0
  -29.4656  -21.0197   20.3880 C   0  0  2  0  0  0
  -31.8668  -25.4426   18.4385 C   0  0  0  0  0  0
  -29.8621  -24.4302   17.2123 C   0  0  0  0  0  0
  -27.8669  -24.8699   20.5463 C   0  0  0  0  0  0
  -29.7426  -17.2168   20.1815 C   0  0  0  0  0  0
  -29.9626  -18.4373   21.1943 C   0  0  0  0  0  0
  -30.4295  -24.9317   18.5611 C   0  0  0  0  0  0
  -29.7468  -15.7787   20.6818 N   0  0  0  0  0  0
  -29.0875  -19.6915   21.0459 N   0  3  0  0  0  0
  -31.4935  -12.6631   19.1419 H   0  0  0  0  0  0
  -30.5039  -11.4718   19.9245 H   0  0  0  0  0  0
  -29.8172  -11.7296   17.5248 H   0  0  0  0  0  0
  -29.6877  -13.4539   17.7163 H   0  0  0  0  0  0
  -27.8753  -11.3003   18.8426 H   0  0  0  0  0  0
  -27.4275  -12.5999   17.7706 H   0  0  0  0  0  0
  -27.6482  -14.2511   19.4923 H   0  0  0  0  0  0
  -28.7277  -12.0914   21.3800 H   0  0  0  0  0  0
  -28.4190  -13.7462   21.8346 H   0  0  0  0  0  0
  -25.2757   -9.5731   22.4774 H   0  0  0  0  0  0
  -24.0039   -7.4623   22.7483 H   0  0  0  0  0  0
  -21.0843   -8.8726   19.8918 H   0  0  0  0  0  0
  -22.3676  -10.9656   19.6182 H   0  0  0  0  0  0
  -21.1903   -7.6153   23.9755 H   0  0  0  0  0  0
  -21.1472   -6.0528   25.9109 H   0  0  0  0  0  0
  -22.0603   -2.7623   23.2866 H   0  0  0  0  0  0
  -22.3988  -11.9876   22.4790 H   0  0  0  0  0  0
  -21.1047  -13.1292   22.2484 H   0  0  0  0  0  0
  -24.6638  -15.8437   20.5434 H   0  0  0  0  0  0
  -26.2729  -15.6307   20.0713 H   0  0  0  0  0  0
  -26.7339  -32.5417   23.1139 H   0  0  0  0  0  0
  -25.0239  -33.9598   25.0508 H   0  0  0  0  0  0
  -22.7321  -31.3173   21.3995 H   0  0  0  0  0  0
  -23.3820  -35.9529   23.3236 H   0  0  0  0  0  0
  -24.3679  -36.8892   22.2080 H   0  0  0  0  0  0
  -23.7204  -37.6428   23.6656 H   0  0  0  0  0  0
  -26.1314  -31.5237   20.6084 H   0  0  0  0  0  0
  -26.8497  -30.8003   22.0164 H   0  0  0  0  0  0
  -28.0683  -28.8565   21.3030 H   0  0  0  0  0  0
  -25.9749  -25.9751   18.8759 H   0  0  0  0  0  0
  -23.9940  -27.3847   18.8748 H   0  0  0  0  0  0
  -23.7464  -30.6175   19.3870 H   0  0  0  0  0  0
  -22.7606  -29.2743   19.8434 H   0  0  0  0  0  0
  -25.1295  -36.1933   25.0866 H   0  0  0  0  0  0
  -21.0104  -28.3347   24.1290 H   0  0  0  0  0  0
  -20.5677  -26.2410   23.3617 H   0  0  0  0  0  0
  -21.6679  -26.7408   22.1178 H   0  0  0  0  0  0
  -19.6899  -25.6308   21.1213 H   0  0  0  0  0  0
  -19.6639  -27.3210   20.6726 H   0  0  0  0  0  0
  -17.4225  -26.6742   21.4001 H   0  0  0  0  0  0
  -18.0294  -26.0055   22.8969 H   0  0  0  0  0  0
  -19.7968  -30.7261   24.2307 H   0  0  0  0  0  0
  -17.5027  -31.6237   24.5159 H   0  0  0  0  0  0
  -15.5382  -30.2950   23.7575 H   0  0  0  0  0  0
  -15.8762  -28.0772   22.7056 H   0  0  0  0  0  0
  -24.5901  -30.7030   25.7637 H   0  0  0  0  0  0
  -24.8930  -32.2789   26.4815 H   0  0  0  0  0  0
  -25.7973  -30.8762   27.0134 H   0  0  0  0  0  0
  -26.3121  -29.6597   24.1263 H   0  0  0  0  0  0
  -27.4341  -29.7297   25.4644 H   0  0  0  0  0  0
  -27.8882  -30.4327   23.9354 H   0  0  0  0  0  0
  -27.2818  -33.3529   26.1999 H   0  0  0  0  0  0
  -28.3869  -32.6750   25.0127 H   0  0  0  0  0  0
  -28.0902  -31.8334   26.5240 H   0  0  0  0  0  0
  -28.2598  -38.0133   24.7610 H   0  0  0  0  0  0
  -28.1168  -36.2667   24.6196 H   0  0  0  0  0  0
  -27.2372  -37.1301   25.8898 H   0  0  0  0  0  0
  -20.9463  -29.9023   21.6969 H   0  0  0  0  0  0
  -26.0222  -38.2838   24.1386 H   0  0  0  0  0  0
  -31.2411  -22.3532   18.6048 H   0  0  0  0  0  0
  -32.2383  -23.0224   19.8423 H   0  0  0  0  0  0
  -31.1429  -21.7325   21.5855 H   0  0  0  0  0  0
  -31.6227  -20.6839   20.2803 H   0  0  0  0  0  0
  -27.5432  -22.0044   20.8771 H   0  0  0  0  0  0
  -28.8356  -22.4819   21.9261 H   0  0  0  0  0  0
  -30.6022  -24.4897   20.6589 H   0  0  0  0  0  0
  -28.3725  -23.3161   19.0744 H   0  0  0  0  0  0
  -29.2986  -20.8754   19.3178 H   0  0  0  0  0  0
  -32.1571  -25.9790   19.3457 H   0  0  0  0  0  0
  -31.9847  -26.1327   17.6032 H   0  0  0  0  0  0
  -32.5630  -24.6199   18.2910 H   0  0  0  0  0  0
  -28.7706  -24.3650   17.2284 H   0  0  0  0  0  0
  -30.2463  -23.4504   16.9281 H   0  0  0  0  0  0
  -30.0939  -25.1319   16.4114 H   0  0  0  0  0  0
  -27.8401  -24.8404   21.6411 H   0  0  0  0  0  0
  -26.8368  -24.5994   20.2733 H   0  0  0  0  0  0
  -30.4257  -17.3228   19.3365 H   0  0  0  0  0  0
  -28.7490  -17.3286   19.7467 H   0  0  0  0  0  0
  -31.0209  -18.6988   21.2432 H   0  0  0  0  0  0
  -29.7260  -18.0568   22.1880 H   0  0  0  0  0  0
  -29.8709  -25.8394   18.7578 H   0  0  0  0  0  0
  -28.8160  -15.4552   20.9004 H   0  0  0  0  0  0
  -28.2300  -19.3911   20.6147 H   0  0  0  0  0  0
  -28.8316  -19.9231   21.9942 H   0  0  0  0  0  0
  1 25  1  0  0  0
  1 30  2  0  0  0
  1 83  1  0  0  0
  2  3  1  0  0  0
  2 25  1  0  0  0
  2 85  1  0  0  0
  2 86  1  0  0  0
  3  4  1  0  0  0
  3 87  1  0  0  0
  3 88  1  0  0  0
  4  5  1  0  0  0
  4 89  1  0  0  0
  4 90  1  0  0  0
  5  6  1  0  0  0
  5 26  1  0  0  0
  5 91  1  0  0  0
  6 25  1  0  0  0
  6 92  1  0  0  0
  6 93  1  0  0  0
  7  8  2  0  0  0
  7 26  1  0  0  0
  7 29  1  0  0  0
  8  9  1  0  0  0
  8 22  1  0  0  0
  9 10  1  0  0  0
  9 27  2  0  0  0
 10 11  2  0  0  0
 10 15  1  0  0  0
 11 12  1  0  0  0
 11 94  1  0  0  0
 12 13  2  0  0  0
 12 95  1  0  0  0
 13 14  1  0  0  0
 13 31  1  0  0  0
 14 15  2  0  0  0
 14 96  1  0  0  0
 15 97  1  0  0  0
 16 17  2  0  0  0
 16 21  1  0  0  0
 16 31  1  0  0  0
 17 18  1  0  0  0
 17 98  1  0  0  0
 18 19  2  0  0  0
 18 99  1  0  0  0
 19 20  1  0  0  0
 19 24  1  0  0  0
 20 21  2  0  0  0
 20100  1  0  0  0
 21 23  1  0  0  0
 22 28  1  0  0  0
 22 32  2  0  0  0
 26 27  1  0  0  0
 28101  1  0  0  0
 28102  1  0  0  0
 29103  1  0  0  0
 29104  1  0  0  0
 33 34  1  0  0  0
 33 66  1  0  0  0
 33 70  2  0  0  0
 34 36  1  0  0  0
 34 59  1  0  0  0
 34105  1  0  0  0
 35 44  2  0  0  0
 35 45  1  0  0  0
 35 68  1  0  0  0
 36 56  1  0  0  0
 36106  1  0  0  0
 37 39  1  0  0  0
 37 47  1  0  0  0
 37 66  1  0  0  0
 37107  1  0  0  0
 38 43  2  0  0  0
 38 46  1  0  0  0
 38 47  1  0  0  0
 39 64  1  0  0  0
 39 67  2  0  0  0
 40 52  1  0  0  0
 40 53  2  0  0  0
 40 58  1  0  0  0
 41108  1  0  0  0
 41109  1  0  0  0
 41110  1  0  0  0
 41 48  1  0  0  0
 42 43  1  0  0  0
 42 66  1  0  0  0
 42111  1  0  0  0
 42112  1  0  0  0
 43 44  1  0  0  0
 44113  1  0  0  0
 45 46  2  0  0  0
 45114  1  0  0  0
 46115  1  0  0  0
 47116  1  0  0  0
 47117  1  0  0  0
 48 56  1  0  0  0
 48 65  1  0  0  0
 48118  1  0  0  0
 49 50  1  0  0  0
 49 53  1  0  0  0
 49 64  1  0  0  0
 49119  1  0  0  0
 50 51  1  0  0  0
 50120  1  0  0  0
 50121  1  0  0  0
 51 52  1  0  0  0
 51122  1  0  0  0
 51123  1  0  0  0
 52124  1  0  0  0
 52125  1  0  0  0
 53 54  1  0  0  0
 54 55  2  0  0  0
 54126  1  0  0  0
 55 57  1  0  0  0
 55127  1  0  0  0
 56 69  2  0  0  0
 57 58  2  0  0  0
 57128  1  0  0  0
 58129  1  0  0  0
 59 60  1  0  0  0
 59 61  1  0  0  0
 59 62  1  0  0  0
 60130  1  0  0  0
 60131  1  0  0  0
 60132  1  0  0  0
 61133  1  0  0  0
 61134  1  0  0  0
 61135  1  0  0  0
 62136  1  0  0  0
 62137  1  0  0  0
 62138  1  0  0  0
 63 65  1  0  0  0
 63139  1  0  0  0
 63140  1  0  0  0
 63141  1  0  0  0
 64142  1  0  0  0
 65143  1  0  0  0
 68 79  1  0  0  0
 71 72  1  0  0  0
 71144  1  0  0  0
 71145  1  0  0  0
 71 74  1  0  0  0
 72 76  1  0  0  0
 72146  1  0  0  0
 72147  1  0  0  0
 73 75  1  0  0  0
 73 76  1  0  0  0
 73148  1  0  0  0
 73149  1  0  0  0
 74 75  1  0  0  0
 74 82  1  0  0  0
 74150  1  0  0  0
 75 79  1  0  0  0
 75151  1  0  0  0
 76 84  1  0  0  0
 76152  1  0  0  0
 77153  1  0  0  0
 77154  1  0  0  0
 77155  1  0  0  0
 77 82  1  0  0  0
 78 82  1  0  0  0
 78156  1  0  0  0
 78157  1  0  0  0
 78158  1  0  0  0
 79159  1  0  0  0
 79160  1  0  0  0
 80 81  1  0  0  0
 80 83  1  0  0  0
 80161  1  0  0  0
 80162  1  0  0  0
 81 84  1  0  0  0
 81163  1  0  0  0
 81164  1  0  0  0
 82165  1  0  0  0
 83166  1  0  0  0
 84167  1  0  0  0
 84168  1  0  0  0
M  CHG  1  84   1
M  ISO  4   1 100  68 101  79 101  83 100
M  END
> <chiral flag>
0

> <version>
0

> <s_m_source_file>
/data/baiqing/PycharmProjects/Reinvent-master-3.2/result/LINK_invent/BTK/process_docking_weight1_custom_sum_contain_oxygen_bond_distance_aromatic_linkinvent_7_9_3/rearranged_h_0130.sdf

> <i_m_source_file_index>
10

> <r_mmod_Potential_Energy-OPLS-2005>
71.4819259643555

> <r_mmod_Stretch_Energy-OPLS-2005>
107.815231323242

> <r_mmod_Bend_Energy-OPLS-2005>
199.095138549805

> <r_mmod_Torsional_Energy-OPLS-2005>
309.105560302734

> <r_mmod_Improper_Torsional_Energy-OPLS-2005>
7.51569080352783

> <r_mmod_Van_der_Waal_Energy-OPLS-2005>
129.139083862305

> <r_mmod_Electrostatic_Energy-OPLS-2005>
-296.468566894531

> <r_mmod_Solvation_Energy-OPLS-2005>
-478.223236083984

> <b_mmod_Minimization_Converged-OPLS-2005>
0

> <r_mmod_RMS_Derivative-OPLS-2005>
10.2272996902466

$$$$
10
                    3D
 Structure written by MMmdl.
163171  0  0  1  0            999 V2000
  -30.5965  -14.7723   20.5009 C   0  0  0  0  0  0
  -30.4541  -12.5056   19.4641 C   0  0  0  0  0  0
  -29.5249  -12.5393   18.2300 C   0  0  0  0  0  0
  -28.0480  -12.3566   18.6392 C   0  0  0  0  0  0
  -27.6423  -13.2391   19.8486 C   0  0  2  0  0  0
  -28.6814  -13.1696   20.9861 C   0  0  0  0  0  0
  -25.2484  -13.8209   20.5652 C   0  0  0  0  0  0
  -24.1808  -13.0435   20.9161 C   0  0  0  0  0  0
  -24.6387  -11.6916   20.8708 C   0  0  0  0  0  0
  -23.9083  -10.4285   21.0402 C   0  0  0  0  0  0
  -24.3650   -9.4217   21.9188 C   0  0  0  0  0  0
  -23.6313   -8.2249   22.0759 C   0  0  0  0  0  0
  -22.4256   -8.0297   21.3570 C   0  0  0  0  0  0
  -21.9916   -9.0272   20.4663 C   0  0  0  0  0  0
  -22.7247  -10.2139   20.3050 C   0  0  0  0  0  0
  -21.6846   -6.0753   22.5272 C   0  0  0  0  0  0
  -21.4041   -6.5648   23.8219 C   0  0  0  0  0  0
  -21.3668   -5.6786   24.9165 C   0  0  0  0  0  0
  -21.6007   -4.3049   24.7183 C   0  0  0  0  0  0
  -21.8839   -3.8155   23.4311 C   0  0  0  0  0  0
  -21.9214   -4.6991   22.3373 C   0  0  0  0  0  0
  -22.7817  -13.5248   21.1789 C   0  0  0  0  0  0
  -22.1690   -4.2216   21.0973 F   0  0  0  0  0  0
  -21.5608   -3.4523   25.7699 F   0  0  0  0  0  0
  -29.9775  -13.5484   20.4044 N   0  0  0  0  0  0
  -26.2939  -12.9426   20.3185 N   0  0  0  0  0  0
  -25.9331  -11.6534   20.5588 N   0  0  0  0  0  0
  -22.0406  -12.8310   22.0344 N   0  0  0  0  0  0
  -25.4109  -15.1944   20.4197 N   0  0  0  0  0  0
  -31.7917  -14.8732   20.1960 O   0  0  0  0  0  0
  -21.6655   -6.8897   21.4220 O   0  0  0  0  0  0
  -22.3518  -14.5509   20.6593 O   0  0  0  0  0  0
  -24.6325  -31.8558   23.1955 C   0  0  0  0  0  0
  -25.9154  -32.4741   23.8310 C   0  0  1  0  0  0
  -27.2101  -27.2582   20.1261 C   0  0  0  0  0  0
  -25.5946  -33.8533   24.2238 N   0  0  0  0  0  0
  -23.4252  -30.4845   21.5385 C   0  0  2  0  0  0
  -24.8689  -28.9277   20.1090 C   0  0  0  0  0  0
  -22.7459  -29.4661   22.4857 C   0  0  0  0  0  0
  -18.0311  -28.1405   22.8470 C   0  0  0  0  0  0
  -24.1496  -36.7284   23.2632 C   0  0  0  0  0  0
  -25.9728  -30.7642   21.3783 C   0  0  0  0  0  0
  -26.0417  -29.3892   20.7178 C   0  0  0  0  0  0
  -27.2153  -28.5671   20.7177 C   0  0  0  0  0  0
  -26.0105  -26.8655   19.4895 C   0  0  0  0  0  0
  -24.8592  -27.6730   19.4837 C   0  0  0  0  0  0
  -23.6378  -29.8154   20.1572 C   0  0  0  0  0  0
  -25.4115  -36.3053   24.0320 C   0  0  1  0  0  0
  -20.5899  -28.3722   23.1226 C   0  0  2  0  0  0
  -20.6797  -26.9429   22.5393 C   0  0  0  0  0  0
  -19.5798  -26.6390   21.5182 C   0  0  0  0  0  0
  -18.1967  -26.7945   22.1576 C   0  0  0  0  0  0
  -19.1551  -28.8874   23.2850 C   0  0  0  0  0  0
  -18.9480  -30.1462   23.8901 C   0  0  0  0  0  0
  -17.6488  -30.6589   24.0564 C   0  0  0  0  0  0
  -25.9049  -34.9425   23.5066 C   0  0  0  0  0  0
  -16.5378  -29.9089   23.6334 C   0  0  0  0  0  0
  -16.7295  -28.6502   23.0345 C   0  0  0  0  0  0
  -26.4507  -31.6571   25.0714 C   0  0  0  0  0  0
  -25.3719  -31.3781   26.1436 C   0  0  0  0  0  0
  -27.0343  -30.2963   24.6254 C   0  0  0  0  0  0
  -27.6055  -32.4328   25.7490 C   0  0  0  0  0  0
  -27.5589  -37.1785   24.8430 C   0  0  0  0  0  0
  -21.4170  -29.3076   22.3589 N   0  0  0  0  0  0
  -26.4284  -37.3770   23.9414 N   0  0  0  0  0  0
  -24.6966  -31.0517   22.0951 N   0  0  0  0  0  0
  -23.4158  -28.8224   23.2985 O   0  0  0  0  0  0
  -28.3103  -26.3698   20.1768 O   0  0  0  0  0  0
  -26.5619  -34.8912   22.4644 O   0  0  0  0  0  0
  -23.5472  -32.1386   23.7262 O   0  0  0  0  0  0
  -29.9125  -22.0362   22.7588 C   0  0  0  0  0  0
  -30.3571  -21.1339   23.7333 C   0  0  0  0  0  0
  -29.5286  -21.3559   21.6330 C   0  0  0  0  0  0
  -30.1940  -19.8633   23.2649 C   0  0  0  0  0  0
  -29.2419  -17.7306   24.3232 C   0  0  0  0  0  0
  -31.0457  -18.9355   25.5210 C   0  0  0  0  0  0
  -28.9703  -22.1858   20.4199 C   0  0  0  0  0  0
  -29.2385  -23.8077   20.3379 C   0  0  0  0  0  0
  -29.3600  -18.6514   21.0962 C   0  0  0  0  0  0
  -30.3502  -17.3333   21.0368 C   0  0  0  0  0  0
  -28.0458  -24.8889   20.2318 C   0  0  0  0  0  0
  -30.4749  -18.6323   24.1171 C   0  0  0  0  0  0
  -29.7195  -19.9206   21.9174 N   0  0  0  0  0  0
  -29.8424  -15.9074   20.7640 N   0  0  0  0  0  0
  -31.4828  -12.6867   19.1392 H   0  0  0  0  0  0
  -30.4656  -11.5279   19.9440 H   0  0  0  0  0  0
  -29.8215  -11.7734   17.5122 H   0  0  0  0  0  0
  -29.6454  -13.4968   17.7167 H   0  0  0  0  0  0
  -27.8973  -11.3020   18.8703 H   0  0  0  0  0  0
  -27.4037  -12.5819   17.7888 H   0  0  0  0  0  0
  -27.6396  -14.2675   19.4864 H   0  0  0  0  0  0
  -28.7203  -12.1753   21.4307 H   0  0  0  0  0  0
  -28.3961  -13.8499   21.7915 H   0  0  0  0  0  0
  -25.2812   -9.5713   22.4725 H   0  0  0  0  0  0
  -24.0075   -7.4620   22.7445 H   0  0  0  0  0  0
  -21.0851   -8.8790   19.8912 H   0  0  0  0  0  0
  -22.3752  -10.9690   19.6166 H   0  0  0  0  0  0
  -21.2082   -7.6171   23.9758 H   0  0  0  0  0  0
  -21.1431   -6.0494   25.9086 H   0  0  0  0  0  0
  -22.0604   -2.7621   23.2756 H   0  0  0  0  0  0
  -22.4052  -12.0185   22.5054 H   0  0  0  0  0  0
  -21.0965  -13.1285   22.2291 H   0  0  0  0  0  0
  -24.6159  -15.8158   20.5216 H   0  0  0  0  0  0
  -26.2363  -15.6578   20.0650 H   0  0  0  0  0  0
  -26.7220  -32.5379   23.1033 H   0  0  0  0  0  0
  -25.0086  -33.9669   25.0380 H   0  0  0  0  0  0
  -22.7260  -31.3104   21.3915 H   0  0  0  0  0  0
  -23.3760  -35.9601   23.3229 H   0  0  0  0  0  0
  -24.3616  -36.8976   22.2060 H   0  0  0  0  0  0
  -23.7223  -37.6458   23.6702 H   0  0  0  0  0  0
  -26.1135  -31.5283   20.6135 H   0  0  0  0  0  0
  -26.8488  -30.8076   22.0144 H   0  0  0  0  0  0
  -28.1100  -28.9057   21.2176 H   0  0  0  0  0  0
  -25.9191  -25.9135   18.9906 H   0  0  0  0  0  0
  -23.9601  -27.3133   19.0029 H   0  0  0  0  0  0
  -23.7522  -30.5855   19.3920 H   0  0  0  0  0  0
  -22.7556  -29.2426   19.8636 H   0  0  0  0  0  0
  -25.1288  -36.1891   25.0806 H   0  0  0  0  0  0
  -21.0021  -28.3363   24.1332 H   0  0  0  0  0  0
  -20.5661  -26.2359   23.3620 H   0  0  0  0  0  0
  -21.6684  -26.7451   22.1251 H   0  0  0  0  0  0
  -19.6971  -25.6291   21.1251 H   0  0  0  0  0  0
  -19.6752  -27.3159   20.6685 H   0  0  0  0  0  0
  -17.4234  -26.6686   21.3972 H   0  0  0  0  0  0
  -18.0370  -26.0086   22.8980 H   0  0  0  0  0  0
  -19.7961  -30.7270   24.2269 H   0  0  0  0  0  0
  -17.5047  -31.6284   24.5165 H   0  0  0  0  0  0
  -15.5375  -30.2998   23.7660 H   0  0  0  0  0  0
  -15.8693  -28.0828   22.7061 H   0  0  0  0  0  0
  -24.5894  -30.7107   25.7792 H   0  0  0  0  0  0
  -24.8904  -32.2975   26.4776 H   0  0  0  0  0  0
  -25.8025  -30.9037   27.0254 H   0  0  0  0  0  0
  -26.2941  -29.6712   24.1238 H   0  0  0  0  0  0
  -27.3924  -29.7239   25.4815 H   0  0  0  0  0  0
  -27.8859  -30.4172   23.9556 H   0  0  0  0  0  0
  -27.2639  -33.3621   26.2050 H   0  0  0  0  0  0
  -28.3865  -32.6898   25.0326 H   0  0  0  0  0  0
  -28.0710  -31.8472   26.5420 H   0  0  0  0  0  0
  -28.2545  -38.0144   24.7557 H   0  0  0  0  0  0
  -28.1153  -36.2681   24.6130 H   0  0  0  0  0  0
  -27.2344  -37.1284   25.8841 H   0  0  0  0  0  0
  -20.9330  -29.8745   21.6748 H   0  0  0  0  0  0
  -26.0144  -38.2830   24.1461 H   0  0  0  0  0  0
  -29.8708  -23.1059   22.9125 H   0  0  0  0  0  0
  -30.7217  -21.4126   24.7126 H   0  0  0  0  0  0
  -28.8494  -17.3198   23.3989 H   0  0  0  0  0  0
  -28.4354  -18.2737   24.8195 H   0  0  0  0  0  0
  -29.4890  -16.8768   24.9539 H   0  0  0  0  0  0
  -31.9708  -19.5116   25.4903 H   0  0  0  0  0  0
  -31.2900  -18.0017   26.0290 H   0  0  0  0  0  0
  -30.3227  -19.4615   26.1440 H   0  0  0  0  0  0
  -27.8940  -22.0312   20.3388 H   0  0  0  0  0  0
  -29.3722  -21.7478   19.5041 H   0  0  0  0  0  0
  -29.8460  -23.9667   19.4469 H   0  0  0  0  0  0
  -29.9067  -24.1358   21.1271 H   0  0  0  0  0  0
  -28.3943  -18.3212   21.4892 H   0  0  0  0  0  0
  -29.1355  -18.9707   20.0791 H   0  0  0  0  0  0
  -30.7971  -17.1634   22.0028 H   0  0  0  0  0  0
  -31.1830  -17.5520   20.3613 H   0  0  0  0  0  0
  -27.3829  -24.7221   21.0807 H   0  0  0  0  0  0
  -27.4857  -24.6034   19.3433 H   0  0  0  0  0  0
  -31.3032  -18.0860   23.6791 H   0  0  0  0  0  0
  -28.8461  -15.7568   20.8638 H   0  0  0  0  0  0
  1 25  1  0  0  0
  1 30  2  0  0  0
  1 84  1  0  0  0
  2  3  1  0  0  0
  2 25  1  0  0  0
  2 85  1  0  0  0
  2 86  1  0  0  0
  3  4  1  0  0  0
  3 87  1  0  0  0
  3 88  1  0  0  0
  4  5  1  0  0  0
  4 89  1  0  0  0
  4 90  1  0  0  0
  5  6  1  0  0  0
  5 26  1  0  0  0
  5 91  1  0  0  0
  6 25  1  0  0  0
  6 92  1  0  0  0
  6 93  1  0  0  0
  7  8  2  0  0  0
  7 26  1  0  0  0
  7 29  1  0  0  0
  8  9  1  0  0  0
  8 22  1  0  0  0
  9 10  1  0  0  0
  9 27  2  0  0  0
 10 11  2  0  0  0
 10 15  1  0  0  0
 11 12  1  0  0  0
 11 94  1  0  0  0
 12 13  2  0  0  0
 12 95  1  0  0  0
 13 14  1  0  0  0
 13 31  1  0  0  0
 14 15  2  0  0  0
 14 96  1  0  0  0
 15 97  1  0  0  0
 16 17  2  0  0  0
 16 21  1  0  0  0
 16 31  1  0  0  0
 17 18  1  0  0  0
 17 98  1  0  0  0
 18 19  2  0  0  0
 18 99  1  0  0  0
 19 20  1  0  0  0
 19 24  1  0  0  0
 20 21  2  0  0  0
 20100  1  0  0  0
 21 23  1  0  0  0
 22 28  1  0  0  0
 22 32  2  0  0  0
 26 27  1  0  0  0
 28101  1  0  0  0
 28102  1  0  0  0
 29103  1  0  0  0
 29104  1  0  0  0
 33 34  1  0  0  0
 33 66  1  0  0  0
 33 70  2  0  0  0
 34 36  1  0  0  0
 34 59  1  0  0  0
 34105  1  0  0  0
 35 44  2  0  0  0
 35 45  1  0  0  0
 35 68  1  0  0  0
 36 56  1  0  0  0
 36106  1  0  0  0
 37 39  1  0  0  0
 37 47  1  0  0  0
 37 66  1  0  0  0
 37107  1  0  0  0
 38 43  2  0  0  0
 38 46  1  0  0  0
 38 47  1  0  0  0
 39 64  1  0  0  0
 39 67  2  0  0  0
 40 52  1  0  0  0
 40 53  2  0  0  0
 40 58  1  0  0  0
 41108  1  0  0  0
 41109  1  0  0  0
 41110  1  0  0  0
 41 48  1  0  0  0
 42 43  1  0  0  0
 42 66  1  0  0  0
 42111  1  0  0  0
 42112  1  0  0  0
 43 44  1  0  0  0
 44113  1  0  0  0
 45 46  2  0  0  0
 45114  1  0  0  0
 46115  1  0  0  0
 47116  1  0  0  0
 47117  1  0  0  0
 48 56  1  0  0  0
 48 65  1  0  0  0
 48118  1  0  0  0
 49 50  1  0  0  0
 49 53  1  0  0  0
 49 64  1  0  0  0
 49119  1  0  0  0
 50 51  1  0  0  0
 50120  1  0  0  0
 50121  1  0  0  0
 51 52  1  0  0  0
 51122  1  0  0  0
 51123  1  0  0  0
 52124  1  0  0  0
 52125  1  0  0  0
 53 54  1  0  0  0
 54 55  2  0  0  0
 54126  1  0  0  0
 55 57  1  0  0  0
 55127  1  0  0  0
 56 69  2  0  0  0
 57 58  2  0  0  0
 57128  1  0  0  0
 58129  1  0  0  0
 59 60  1  0  0  0
 59 61  1  0  0  0
 59 62  1  0  0  0
 60130  1  0  0  0
 60131  1  0  0  0
 60132  1  0  0  0
 61133  1  0  0  0
 61134  1  0  0  0
 61135  1  0  0  0
 62136  1  0  0  0
 62137  1  0  0  0
 62138  1  0  0  0
 63 65  1  0  0  0
 63139  1  0  0  0
 63140  1  0  0  0
 63141  1  0  0  0
 64142  1  0  0  0
 65143  1  0  0  0
 68 81  1  0  0  0
 71 72  1  0  0  0
 71 73  2  0  0  0
 71144  1  0  0  0
 72 74  2  0  0  0
 72145  1  0  0  0
 73 77  1  0  0  0
 73 83  1  0  0  0
 74 82  1  0  0  0
 74 83  1  0  0  0
 75146  1  0  0  0
 75147  1  0  0  0
 75148  1  0  0  0
 75 82  1  0  0  0
 76 82  1  0  0  0
 76149  1  0  0  0
 76150  1  0  0  0
 76151  1  0  0  0
 77 78  1  0  0  0
 77152  1  0  0  0
 77153  1  0  0  0
 78 81  1  0  0  0
 78154  1  0  0  0
 78155  1  0  0  0
 79 80  1  0  0  0
 79 83  1  0  0  0
 79156  1  0  0  0
 79157  1  0  0  0
 80 84  1  0  0  0
 80158  1  0  0  0
 80159  1  0  0  0
 81160  1  0  0  0
 81161  1  0  0  0
 82162  1  0  0  0
 84163  1  0  0  0
M  ISO  4   1 100  68 101  81 101  84 100
M  END
> <chiral flag>
0

> <version>
0

> <s_m_source_file>
/data/baiqing/PycharmProjects/Reinvent-master-3.2/result/LINK_invent/BTK/process_docking_weight1_custom_sum_contain_oxygen_bond_distance_aromatic_linkinvent_7_9_3/rearranged_h_0130.sdf

> <i_m_source_file_index>
11

> <r_mmod_Potential_Energy-OPLS-2005>
218.381652832031

> <r_mmod_Stretch_Energy-OPLS-2005>
160.352569580078

> <r_mmod_Bend_Energy-OPLS-2005>
218.000457763672

> <r_mmod_Torsional_Energy-OPLS-2005>
236.052551269531

> <r_mmod_Improper_Torsional_Energy-OPLS-2005>
4.62340497970581

> <r_mmod_Van_der_Waal_Energy-OPLS-2005>
132.547668457031

> <r_mmod_Electrostatic_Energy-OPLS-2005>
-413.166137695312

> <r_mmod_Solvation_Energy-OPLS-2005>
-213.796447753906

> <b_mmod_Minimization_Converged-OPLS-2005>
0

> <r_mmod_RMS_Derivative-OPLS-2005>
6.8112621307373

$$$$
11
                    3D
 Structure written by MMmdl.
170178  0  0  1  0            999 V2000
  -30.7103  -14.4368   20.5704 C   0  0  0  0  0  0
  -30.4222  -12.2834   19.4282 C   0  0  0  0  0  0
  -29.5006  -12.5084   18.2116 C   0  0  0  0  0  0
  -28.0198  -12.3716   18.6178 C   0  0  0  0  0  0
  -27.6659  -13.2019   19.8811 C   0  0  2  0  0  0
  -28.7047  -12.9632   21.0034 C   0  0  0  0  0  0
  -25.2583  -13.8160   20.5671 C   0  0  0  0  0  0
  -24.1817  -13.0440   20.9158 C   0  0  0  0  0  0
  -24.6353  -11.6896   20.8691 C   0  0  0  0  0  0
  -23.9018  -10.4300   21.0370 C   0  0  0  0  0  0
  -24.3575   -9.4225   21.9157 C   0  0  0  0  0  0
  -23.6275   -8.2248   22.0728 C   0  0  0  0  0  0
  -22.4274   -8.0272   21.3512 C   0  0  0  0  0  0
  -21.9880   -9.0243   20.4631 C   0  0  0  0  0  0
  -22.7176  -10.2131   20.3037 C   0  0  0  0  0  0
  -21.6862   -6.0717   22.5267 C   0  0  0  0  0  0
  -21.4019   -6.5622   23.8207 C   0  0  0  0  0  0
  -21.3664   -5.6770   24.9164 C   0  0  0  0  0  0
  -21.6057   -4.3041   24.7201 C   0  0  0  0  0  0
  -21.8817   -3.8123   23.4339 C   0  0  0  0  0  0
  -21.9196   -4.6945   22.3395 C   0  0  0  0  0  0
  -22.7835  -13.5248   21.1822 C   0  0  0  0  0  0
  -22.1655   -4.2131   21.0968 F   0  0  0  0  0  0
  -21.5636   -3.4534   25.7720 F   0  0  0  0  0  0
  -30.0438  -13.2558   20.4617 N   0  0  0  0  0  0
  -26.3025  -12.9323   20.3371 N   0  0  0  0  0  0
  -25.9290  -11.6482   20.5725 N   0  0  0  0  0  0
  -22.0461  -12.8271   22.0402 N   0  0  0  0  0  0
  -25.4319  -15.1881   20.4050 N   0  0  0  0  0  0
  -31.8065  -14.6387   20.0454 O   0  0  0  0  0  0
  -21.6641   -6.8856   21.4231 O   0  0  0  0  0  0
  -22.3527  -14.5554   20.6666 O   0  0  0  0  0  0
  -24.6104  -31.8706   23.2130 C   0  0  0  0  0  0
  -25.9033  -32.4822   23.8389 C   0  0  1  0  0  0
  -27.2268  -27.4789   20.0686 C   0  0  0  0  0  0
  -25.5882  -33.8618   24.2318 N   0  0  0  0  0  0
  -23.3948  -30.4988   21.5534 C   0  0  2  0  0  0
  -24.8371  -28.9617   20.1251 C   0  0  0  0  0  0
  -22.7384  -29.4693   22.5000 C   0  0  0  0  0  0
  -18.0267  -28.1377   22.8494 C   0  0  0  0  0  0
  -24.1488  -36.7349   23.2632 C   0  0  0  0  0  0
  -25.9203  -30.8419   21.3625 C   0  0  0  0  0  0
  -25.9938  -29.4749   20.7211 C   0  0  0  0  0  0
  -27.1930  -28.7324   20.7091 C   0  0  0  0  0  0
  -26.0486  -26.9537   19.4968 C   0  0  0  0  0  0
  -24.8516  -27.6915   19.5225 C   0  0  0  0  0  0
  -23.6031  -29.8328   20.1680 C   0  0  0  0  0  0
  -25.4097  -36.3114   24.0337 C   0  0  1  0  0  0
  -20.5851  -28.3657   23.1319 C   0  0  2  0  0  0
  -20.6752  -26.9389   22.5423 C   0  0  0  0  0  0
  -19.5738  -26.6387   21.5206 C   0  0  0  0  0  0
  -18.1917  -26.7933   22.1617 C   0  0  0  0  0  0
  -19.1514  -28.8834   23.2916 C   0  0  0  0  0  0
  -18.9449  -30.1444   23.8922 C   0  0  0  0  0  0
  -17.6454  -30.6591   24.0566 C   0  0  0  0  0  0
  -25.9029  -34.9470   23.5123 C   0  0  0  0  0  0
  -16.5341  -29.9098   23.6311 C   0  0  0  0  0  0
  -16.7259  -28.6518   23.0337 C   0  0  0  0  0  0
  -26.4460  -31.6572   25.0700 C   0  0  0  0  0  0
  -25.3729  -31.3693   26.1459 C   0  0  0  0  0  0
  -27.0233  -30.3002   24.6030 C   0  0  0  0  0  0
  -27.6040  -32.4258   25.7458 C   0  0  0  0  0  0
  -27.5579  -37.1819   24.8453 C   0  0  0  0  0  0
  -21.4115  -29.3048   22.3749 N   0  0  0  0  0  0
  -26.4272  -37.3799   23.9419 N   0  0  0  0  0  0
  -24.6602  -31.0854   22.1016 N   0  0  0  0  0  0
  -23.4194  -28.8215   23.2995 O   0  0  0  0  0  0
  -28.4117  -26.8015   19.9471 O   0  0  0  0  0  0
  -26.5605  -34.8919   22.4690 O   0  0  0  0  0  0
  -23.5309  -32.1448   23.7553 O   0  0  0  0  0  0
  -31.5726  -19.2856   19.1649 C   0  0  0  0  0  0
  -31.2174  -20.1145   21.1548 C   0  0  0  0  0  0
  -31.2932  -21.1308   20.2197 C   0  0  0  0  0  0
  -29.6634  -20.8859   22.9886 C   0  0  0  0  0  0
  -32.1571  -20.7898   23.4005 C   0  0  0  0  0  0
  -31.4590  -17.5473   20.9274 C   0  0  0  0  0  0
  -30.0785  -16.8616   20.7829 C   0  0  0  0  0  0
  -31.0733  -23.4185   19.2838 C   0  0  0  0  0  0
  -31.1961  -24.9083   19.6448 C   0  0  0  0  0  0
  -30.2885  -26.9158   18.4221 C   0  0  0  0  0  0
  -28.7932  -26.5915   18.5839 C   0  0  0  0  0  0
  -30.9764  -20.1703   22.6424 C   0  0  0  0  0  0
  -31.5101  -20.5942   18.9553 N   0  0  0  0  0  0
  -31.4207  -18.9233   20.4447 N   0  0  0  0  0  0
  -31.1861  -22.5143   20.4200 N   0  0  0  0  0  0
  -30.0106  -15.4327   21.1340 N   0  0  0  0  0  0
  -31.1545  -25.7140   18.4071 N   0  3  0  0  0  0
  -31.4690  -12.3728   19.1317 H   0  0  0  0  0  0
  -30.3088  -11.2688   19.8105 H   0  0  0  0  0  0
  -29.7412  -11.7897   17.4269 H   0  0  0  0  0  0
  -29.6779  -13.4982   17.7865 H   0  0  0  0  0  0
  -27.8173  -11.3170   18.8026 H   0  0  0  0  0  0
  -27.3761  -12.6572   17.7860 H   0  0  0  0  0  0
  -27.7222  -14.2511   19.5952 H   0  0  0  0  0  0
  -28.6658  -11.9245   21.3360 H   0  0  0  0  0  0
  -28.4616  -13.5602   21.8846 H   0  0  0  0  0  0
  -25.2724   -9.5733   22.4708 H   0  0  0  0  0  0
  -24.0005   -7.4651   22.7459 H   0  0  0  0  0  0
  -21.0802   -8.8735   19.8956 H   0  0  0  0  0  0
  -22.3612  -10.9647   19.6144 H   0  0  0  0  0  0
  -21.2009   -7.6130   23.9707 H   0  0  0  0  0  0
  -21.1494   -6.0494   25.9069 H   0  0  0  0  0  0
  -22.0600   -2.7587   23.2832 H   0  0  0  0  0  0
  -22.4073  -11.9975   22.4849 H   0  0  0  0  0  0
  -21.1079  -13.1303   22.2571 H   0  0  0  0  0  0
  -24.6608  -15.8412   20.4945 H   0  0  0  0  0  0
  -26.2852  -15.6222   20.0703 H   0  0  0  0  0  0
  -26.7121  -32.5536   23.1150 H   0  0  0  0  0  0
  -24.9977  -33.9756   25.0425 H   0  0  0  0  0  0
  -22.6841  -31.3186   21.4170 H   0  0  0  0  0  0
  -23.3717  -35.9717   23.3284 H   0  0  0  0  0  0
  -24.3606  -36.8968   22.2053 H   0  0  0  0  0  0
  -23.7284  -37.6569   23.6661 H   0  0  0  0  0  0
  -26.0265  -31.5994   20.5832 H   0  0  0  0  0  0
  -26.8128  -30.9017   21.9726 H   0  0  0  0  0  0
  -28.0947  -29.1350   21.1508 H   0  0  0  0  0  0
  -26.0574  -25.9871   19.0153 H   0  0  0  0  0  0
  -23.9588  -27.2866   19.0663 H   0  0  0  0  0  0
  -23.7188  -30.6079   19.4092 H   0  0  0  0  0  0
  -22.7245  -29.2609   19.8710 H   0  0  0  0  0  0
  -25.1278  -36.1952   25.0839 H   0  0  0  0  0  0
  -20.9958  -28.3211   24.1430 H   0  0  0  0  0  0
  -20.5627  -26.2267   23.3614 H   0  0  0  0  0  0
  -21.6628  -26.7423   22.1230 H   0  0  0  0  0  0
  -19.6886  -25.6306   21.1217 H   0  0  0  0  0  0
  -19.6668  -27.3209   20.6744 H   0  0  0  0  0  0
  -17.4187  -26.6688   21.4014 H   0  0  0  0  0  0
  -18.0312  -26.0057   22.8993 H   0  0  0  0  0  0
  -19.7917  -30.7260   24.2297 H   0  0  0  0  0  0
  -17.5001  -31.6263   24.5180 H   0  0  0  0  0  0
  -15.5342  -30.3016   23.7616 H   0  0  0  0  0  0
  -15.8661  -28.0860   22.7017 H   0  0  0  0  0  0
  -24.5909  -30.7023   25.7812 H   0  0  0  0  0  0
  -24.8910  -32.2872   26.4868 H   0  0  0  0  0  0
  -25.8075  -30.8897   27.0246 H   0  0  0  0  0  0
  -26.2739  -29.6823   24.1066 H   0  0  0  0  0  0
  -27.3984  -29.7181   25.4465 H   0  0  0  0  0  0
  -27.8608  -30.4319   23.9163 H   0  0  0  0  0  0
  -27.2668  -33.3549   26.2073 H   0  0  0  0  0  0
  -28.3838  -32.6832   25.0278 H   0  0  0  0  0  0
  -28.0725  -31.8349   26.5338 H   0  0  0  0  0  0
  -28.2590  -38.0120   24.7499 H   0  0  0  0  0  0
  -28.1087  -36.2659   24.6264 H   0  0  0  0  0  0
  -27.2319  -37.1442   25.8858 H   0  0  0  0  0  0
  -20.9269  -29.8793   21.6998 H   0  0  0  0  0  0
  -26.0162  -38.2877   24.1427 H   0  0  0  0  0  0
  -31.7379  -18.5729   18.3671 H   0  0  0  0  0  0
  -28.8249  -20.4265   22.4659 H   0  0  0  0  0  0
  -29.6830  -21.9400   22.7152 H   0  0  0  0  0  0
  -29.4598  -20.8267   24.0570 H   0  0  0  0  0  0
  -33.0743  -20.2286   23.2211 H   0  0  0  0  0  0
  -31.9771  -20.7882   24.4773 H   0  0  0  0  0  0
  -32.3347  -21.8222   23.0957 H   0  0  0  0  0  0
  -32.2169  -17.0355   20.3337 H   0  0  0  0  0  0
  -31.8182  -17.5207   21.9556 H   0  0  0  0  0  0
  -29.7244  -16.9584   19.7535 H   0  0  0  0  0  0
  -29.3567  -17.3948   21.4024 H   0  0  0  0  0  0
  -31.8447  -23.1639   18.5564 H   0  0  0  0  0  0
  -30.1118  -23.2311   18.8040 H   0  0  0  0  0  0
  -32.1389  -25.1107   20.1564 H   0  0  0  0  0  0
  -30.4042  -25.1966   20.3359 H   0  0  0  0  0  0
  -30.6225  -27.6382   19.1682 H   0  0  0  0  0  0
  -30.4273  -27.4008   17.4537 H   0  0  0  0  0  0
  -28.5518  -25.5749   18.2688 H   0  0  0  0  0  0
  -28.2395  -27.2533   17.9115 H   0  0  0  0  0  0
  -30.8601  -19.1571   23.0252 H   0  0  0  0  0  0
  -31.0072  -22.8648   21.3562 H   0  0  0  0  0  0
  -29.1583  -15.1426   21.5895 H   0  0  0  0  0  0
  -30.8596  -25.1130   17.6547 H   0  0  0  0  0  0
  -32.0966  -26.0020   18.1948 H   0  0  0  0  0  0
  1 25  1  0  0  0
  1 30  2  0  0  0
  1 86  1  0  0  0
  2  3  1  0  0  0
  2 25  1  0  0  0
  2 88  1  0  0  0
  2 89  1  0  0  0
  3  4  1  0  0  0
  3 90  1  0  0  0
  3 91  1  0  0  0
  4  5  1  0  0  0
  4 92  1  0  0  0
  4 93  1  0  0  0
  5  6  1  0  0  0
  5 26  1  0  0  0
  5 94  1  0  0  0
  6 25  1  0  0  0
  6 95  1  0  0  0
  6 96  1  0  0  0
  7  8  2  0  0  0
  7 26  1  0  0  0
  7 29  1  0  0  0
  8  9  1  0  0  0
  8 22  1  0  0  0
  9 10  1  0  0  0
  9 27  2  0  0  0
 10 11  2  0  0  0
 10 15  1  0  0  0
 11 12  1  0  0  0
 11 97  1  0  0  0
 12 13  2  0  0  0
 12 98  1  0  0  0
 13 14  1  0  0  0
 13 31  1  0  0  0
 14 15  2  0  0  0
 14 99  1  0  0  0
 15100  1  0  0  0
 16 17  2  0  0  0
 16 21  1  0  0  0
 16 31  1  0  0  0
 17 18  1  0  0  0
 17101  1  0  0  0
 18 19  2  0  0  0
 18102  1  0  0  0
 19 20  1  0  0  0
 19 24  1  0  0  0
 20 21  2  0  0  0
 20103  1  0  0  0
 21 23  1  0  0  0
 22 28  1  0  0  0
 22 32  2  0  0  0
 26 27  1  0  0  0
 28104  1  0  0  0
 28105  1  0  0  0
 29106  1  0  0  0
 29107  1  0  0  0
 33 34  1  0  0  0
 33 66  1  0  0  0
 33 70  2  0  0  0
 34 36  1  0  0  0
 34 59  1  0  0  0
 34108  1  0  0  0
 35 44  2  0  0  0
 35 45  1  0  0  0
 35 68  1  0  0  0
 36 56  1  0  0  0
 36109  1  0  0  0
 37 39  1  0  0  0
 37 47  1  0  0  0
 37 66  1  0  0  0
 37110  1  0  0  0
 38 43  2  0  0  0
 38 46  1  0  0  0
 38 47  1  0  0  0
 39 64  1  0  0  0
 39 67  2  0  0  0
 40 52  1  0  0  0
 40 53  2  0  0  0
 40 58  1  0  0  0
 41111  1  0  0  0
 41112  1  0  0  0
 41113  1  0  0  0
 41 48  1  0  0  0
 42 43  1  0  0  0
 42 66  1  0  0  0
 42114  1  0  0  0
 42115  1  0  0  0
 43 44  1  0  0  0
 44116  1  0  0  0
 45 46  2  0  0  0
 45117  1  0  0  0
 46118  1  0  0  0
 47119  1  0  0  0
 47120  1  0  0  0
 48 56  1  0  0  0
 48 65  1  0  0  0
 48121  1  0  0  0
 49 50  1  0  0  0
 49 53  1  0  0  0
 49 64  1  0  0  0
 49122  1  0  0  0
 50 51  1  0  0  0
 50123  1  0  0  0
 50124  1  0  0  0
 51 52  1  0  0  0
 51125  1  0  0  0
 51126  1  0  0  0
 52127  1  0  0  0
 52128  1  0  0  0
 53 54  1  0  0  0
 54 55  2  0  0  0
 54129  1  0  0  0
 55 57  1  0  0  0
 55130  1  0  0  0
 56 69  2  0  0  0
 57 58  2  0  0  0
 57131  1  0  0  0
 58132  1  0  0  0
 59 60  1  0  0  0
 59 61  1  0  0  0
 59 62  1  0  0  0
 60133  1  0  0  0
 60134  1  0  0  0
 60135  1  0  0  0
 61136  1  0  0  0
 61137  1  0  0  0
 61138  1  0  0  0
 62139  1  0  0  0
 62140  1  0  0  0
 62141  1  0  0  0
 63 65  1  0  0  0
 63142  1  0  0  0
 63143  1  0  0  0
 63144  1  0  0  0
 64145  1  0  0  0
 65146  1  0  0  0
 68 81  1  0  0  0
 71 83  2  0  0  0
 71 84  1  0  0  0
 71147  1  0  0  0
 72 73  2  0  0  0
 72 82  1  0  0  0
 72 84  1  0  0  0
 73 83  1  0  0  0
 73 85  1  0  0  0
 74148  1  0  0  0
 74149  1  0  0  0
 74150  1  0  0  0
 74 82  1  0  0  0
 75 82  1  0  0  0
 75151  1  0  0  0
 75152  1  0  0  0
 75153  1  0  0  0
 76 77  1  0  0  0
 76 84  1  0  0  0
 76154  1  0  0  0
 76155  1  0  0  0
 77 86  1  0  0  0
 77156  1  0  0  0
 77157  1  0  0  0
 78 79  1  0  0  0
 78 85  1  0  0  0
 78158  1  0  0  0
 78159  1  0  0  0
 79 87  1  0  0  0
 79160  1  0  0  0
 79161  1  0  0  0
 80 81  1  0  0  0
 80 87  1  0  0  0
 80162  1  0  0  0
 80163  1  0  0  0
 81164  1  0  0  0
 81165  1  0  0  0
 82166  1  0  0  0
 85167  1  0  0  0
 86168  1  0  0  0
 87169  1  0  0  0
 87170  1  0  0  0
M  CHG  1  87   1
M  ISO  4   1 100  68 101  81 101  86 100
M  END
> <chiral flag>
0

> <version>
0

> <s_m_source_file>
/data/baiqing/PycharmProjects/Reinvent-master-3.2/result/LINK_invent/BTK/process_docking_weight1_custom_sum_contain_oxygen_bond_distance_aromatic_linkinvent_7_9_3/rearranged_h_0130.sdf

> <i_m_source_file_index>
12

> <r_mmod_Potential_Energy-OPLS-2005>
-307.791595458984

> <r_mmod_Stretch_Energy-OPLS-2005>
32.9928398132324

> <r_mmod_Bend_Energy-OPLS-2005>
108.231140136719

> <r_mmod_Torsional_Energy-OPLS-2005>
253.393905639648

> <r_mmod_Improper_Torsional_Energy-OPLS-2005>
5.9389386177063

> <r_mmod_Van_der_Waal_Energy-OPLS-2005>
132.145538330078

> <r_mmod_Electrostatic_Energy-OPLS-2005>
-390.116729736328

> <r_mmod_Solvation_Energy-OPLS-2005>
-460.360656738281

> <b_mmod_Minimization_Converged-OPLS-2005>
0

> <r_mmod_RMS_Derivative-OPLS-2005>
3.79214549064636

$$$$
12
                    3D
 Structure written by MMmdl.
173182  0  0  1  0            999 V2000
  -30.6918  -14.4676   20.5570 C   0  0  0  0  0  0
  -30.4223  -12.2978   19.4178 C   0  0  0  0  0  0
  -29.4891  -12.4862   18.2029 C   0  0  0  0  0  0
  -28.0105  -12.3546   18.6170 C   0  0  0  0  0  0
  -27.6614  -13.1975   19.8726 C   0  0  2  0  0  0
  -28.7042  -12.9792   20.9937 C   0  0  0  0  0  0
  -25.2635  -13.8136   20.5685 C   0  0  0  0  0  0
  -24.1857  -13.0445   20.9169 C   0  0  0  0  0  0
  -24.6379  -11.6894   20.8707 C   0  0  0  0  0  0
  -23.9029  -10.4297   21.0380 C   0  0  0  0  0  0
  -24.3589   -9.4217   21.9156 C   0  0  0  0  0  0
  -23.6292   -8.2243   22.0725 C   0  0  0  0  0  0
  -22.4272   -8.0277   21.3524 C   0  0  0  0  0  0
  -21.9900   -9.0235   20.4610 C   0  0  0  0  0  0
  -22.7206  -10.2128   20.3025 C   0  0  0  0  0  0
  -21.6858   -6.0727   22.5270 C   0  0  0  0  0  0
  -21.4014   -6.5630   23.8198 C   0  0  0  0  0  0
  -21.3660   -5.6785   24.9157 C   0  0  0  0  0  0
  -21.6045   -4.3053   24.7204 C   0  0  0  0  0  0
  -21.8829   -3.8139   23.4331 C   0  0  0  0  0  0
  -21.9199   -4.6956   22.3385 C   0  0  0  0  0  0
  -22.7890  -13.5263   21.1839 C   0  0  0  0  0  0
  -22.1675   -4.2137   21.0969 F   0  0  0  0  0  0
  -21.5629   -3.4537   25.7718 F   0  0  0  0  0  0
  -30.0335  -13.2833   20.4392 N   0  0  0  0  0  0
  -26.3033  -12.9274   20.3359 N   0  0  0  0  0  0
  -25.9306  -11.6445   20.5750 N   0  0  0  0  0  0
  -22.0526  -12.8231   22.0370 N   0  0  0  0  0  0
  -25.4470  -15.1834   20.4103 N   0  0  0  0  0  0
  -31.8246  -14.6551   20.1067 O   0  0  0  0  0  0
  -21.6651   -6.8864   21.4229 O   0  0  0  0  0  0
  -22.3579  -14.5570   20.6687 O   0  0  0  0  0  0
  -24.6147  -31.8671   23.2108 C   0  0  0  0  0  0
  -25.9019  -32.4828   23.8412 C   0  0  1  0  0  0
  -27.2331  -27.4188   20.0973 C   0  0  0  0  0  0
  -25.5884  -33.8628   24.2330 N   0  0  0  0  0  0
  -23.4041  -30.4898   21.5507 C   0  0  2  0  0  0
  -24.8501  -28.9595   20.1098 C   0  0  0  0  0  0
  -22.7436  -29.4639   22.4996 C   0  0  0  0  0  0
  -18.0264  -28.1358   22.8494 C   0  0  0  0  0  0
  -24.1487  -36.7292   23.2658 C   0  0  0  0  0  0
  -25.9352  -30.8293   21.3642 C   0  0  0  0  0  0
  -26.0123  -29.4644   20.7072 C   0  0  0  0  0  0
  -27.2051  -28.7033   20.6911 C   0  0  0  0  0  0
  -26.0536  -26.9409   19.4790 C   0  0  0  0  0  0
  -24.8688  -27.7003   19.4900 C   0  0  0  0  0  0
  -23.6119  -29.8262   20.1643 C   0  0  0  0  0  0
  -25.4108  -36.3108   24.0359 C   0  0  1  0  0  0
  -20.5871  -28.3630   23.1323 C   0  0  2  0  0  0
  -20.6756  -26.9369   22.5407 C   0  0  0  0  0  0
  -19.5736  -26.6359   21.5212 C   0  0  0  0  0  0
  -18.1905  -26.7905   22.1611 C   0  0  0  0  0  0
  -19.1521  -28.8811   23.2904 C   0  0  0  0  0  0
  -18.9464  -30.1428   23.8901 C   0  0  0  0  0  0
  -17.6467  -30.6575   24.0559 C   0  0  0  0  0  0
  -25.9030  -34.9485   23.5138 C   0  0  0  0  0  0
  -16.5355  -29.9071   23.6333 C   0  0  0  0  0  0
  -16.7251  -28.6486   23.0349 C   0  0  0  0  0  0
  -26.4438  -31.6618   25.0744 C   0  0  0  0  0  0
  -25.3729  -31.3695   26.1518 C   0  0  0  0  0  0
  -27.0267  -30.3080   24.6071 C   0  0  0  0  0  0
  -27.6010  -32.4352   25.7486 C   0  0  0  0  0  0
  -27.5574  -37.1806   24.8487 C   0  0  0  0  0  0
  -21.4152  -29.3016   22.3756 N   0  0  0  0  0  0
  -26.4296  -37.3791   23.9421 N   0  0  0  0  0  0
  -24.6693  -31.0791   22.0995 N   0  0  0  0  0  0
  -23.4203  -28.8170   23.3032 O   0  0  0  0  0  0
  -28.3996  -26.6724   20.1477 O   0  0  0  0  0  0
  -26.5615  -34.8930   22.4711 O   0  0  0  0  0  0
  -23.5326  -32.1416   23.7486 O   0  0  0  0  0  0
  -28.5316  -19.9737   20.4590 C   0  0  0  0  0  0
  -28.6168  -21.3181   20.0401 C   0  0  0  0  0  0
  -30.7514  -21.5234   21.1677 C   0  0  0  0  0  0
  -29.5570  -19.3735   21.2288 C   0  0  0  0  0  0
  -30.6728  -20.1759   21.6150 C   0  0  0  0  0  0
  -29.7358  -22.0999   20.3779 C   0  0  0  0  0  0
  -35.3459  -18.6594   21.5638 C   0  0  0  0  0  0
  -34.5272  -18.4197   20.2996 C   0  0  0  0  0  0
  -34.2771  -18.9157   22.6231 C   0  0  0  0  0  0
  -33.3291  -19.3713   20.4160 C   0  0  0  0  0  0
  -33.2160  -19.7718   21.9068 C   0  0  0  0  0  0
  -29.3935  -17.8880   21.6095 C   0  0  0  0  0  0
  -30.2771  -16.9134   20.7859 C   0  0  0  0  0  0
  -28.3066  -25.2470   19.9503 C   0  0  0  0  0  0
  -29.4453  -24.4686   20.6528 C   0  0  0  0  0  0
  -31.7938  -19.6469   22.5202 C   0  0  1  0  0  0
  -29.9513  -15.4948   21.0119 N   0  0  0  0  0  0
  -31.7077  -20.3000   23.8352 N   0  3  0  0  0  0
  -29.8781  -23.3642   19.8494 O   0  0  0  0  0  0
  -31.4653  -12.4011   19.1112 H   0  0  0  0  0  0
  -30.3321  -11.2875   19.8198 H   0  0  0  0  0  0
  -29.7245  -11.7515   17.4313 H   0  0  0  0  0  0
  -29.6581  -13.4647   17.7513 H   0  0  0  0  0  0
  -27.8145  -11.2990   18.8120 H   0  0  0  0  0  0
  -27.3616  -12.6289   17.7850 H   0  0  0  0  0  0
  -27.7079  -14.2430   19.5691 H   0  0  0  0  0  0
  -28.6816  -11.9428   21.3362 H   0  0  0  0  0  0
  -28.4714  -13.5828   21.8721 H   0  0  0  0  0  0
  -25.2733   -9.5708   22.4726 H   0  0  0  0  0  0
  -24.0011   -7.4628   22.7441 H   0  0  0  0  0  0
  -21.0839   -8.8714   19.8903 H   0  0  0  0  0  0
  -22.3645  -10.9647   19.6122 H   0  0  0  0  0  0
  -21.2008   -7.6137   23.9689 H   0  0  0  0  0  0
  -21.1477   -6.0515   25.9054 H   0  0  0  0  0  0
  -22.0611   -2.7604   23.2823 H   0  0  0  0  0  0
  -22.4185  -11.9927   22.4778 H   0  0  0  0  0  0
  -21.1113  -13.1185   22.2512 H   0  0  0  0  0  0
  -24.6971  -15.8543   20.5317 H   0  0  0  0  0  0
  -26.3051  -15.6040   20.0776 H   0  0  0  0  0  0
  -26.7084  -32.5500   23.1172 H   0  0  0  0  0  0
  -25.0064  -33.9813   25.0489 H   0  0  0  0  0  0
  -22.6924  -31.3057   21.4124 H   0  0  0  0  0  0
  -23.3784  -35.9595   23.3331 H   0  0  0  0  0  0
  -24.3580  -36.8865   22.2068 H   0  0  0  0  0  0
  -23.7203  -37.6489   23.6647 H   0  0  0  0  0  0
  -26.0523  -31.5985   20.5996 H   0  0  0  0  0  0
  -26.8225  -30.8778   21.9841 H   0  0  0  0  0  0
  -28.1019  -29.0913   21.1529 H   0  0  0  0  0  0
  -26.0243  -25.9823   18.9805 H   0  0  0  0  0  0
  -23.9798  -27.3095   19.0164 H   0  0  0  0  0  0
  -23.7154  -30.6036   19.4068 H   0  0  0  0  0  0
  -22.7358  -29.2467   19.8659 H   0  0  0  0  0  0
  -25.1275  -36.1998   25.0859 H   0  0  0  0  0  0
  -20.9939  -28.3172   24.1453 H   0  0  0  0  0  0
  -20.5666  -26.2227   23.3581 H   0  0  0  0  0  0
  -21.6619  -26.7407   22.1197 H   0  0  0  0  0  0
  -19.6905  -25.6282   21.1209 H   0  0  0  0  0  0
  -19.6683  -27.3203   20.6784 H   0  0  0  0  0  0
  -17.4183  -26.6673   21.4006 H   0  0  0  0  0  0
  -18.0292  -26.0029   22.8986 H   0  0  0  0  0  0
  -19.7951  -30.7234   24.2254 H   0  0  0  0  0  0
  -17.5033  -31.6259   24.5145 H   0  0  0  0  0  0
  -15.5364  -30.2970   23.7682 H   0  0  0  0  0  0
  -15.8639  -28.0814   22.7067 H   0  0  0  0  0  0
  -24.5928  -30.6985   25.7905 H   0  0  0  0  0  0
  -24.8904  -32.2827   26.5012 H   0  0  0  0  0  0
  -25.8141  -30.8883   27.0262 H   0  0  0  0  0  0
  -26.2775  -29.6860   24.1162 H   0  0  0  0  0  0
  -27.4111  -29.7286   25.4476 H   0  0  0  0  0  0
  -27.8568  -30.4434   23.9136 H   0  0  0  0  0  0
  -27.2639  -33.3672   26.2038 H   0  0  0  0  0  0
  -28.3826  -32.6895   25.0318 H   0  0  0  0  0  0
  -28.0668  -31.8505   26.5426 H   0  0  0  0  0  0
  -28.2623  -38.0077   24.7533 H   0  0  0  0  0  0
  -28.1030  -36.2615   24.6318 H   0  0  0  0  0  0
  -27.2284  -37.1467   25.8887 H   0  0  0  0  0  0
  -20.9315  -29.8760   21.6993 H   0  0  0  0  0  0
  -26.0195  -38.2868   24.1433 H   0  0  0  0  0  0
  -27.6633  -19.3967   20.1710 H   0  0  0  0  0  0
  -27.8282  -21.7411   19.4337 H   0  0  0  0  0  0
  -31.6146  -22.1255   21.4155 H   0  0  0  0  0  0
  -35.9730  -19.5442   21.4396 H   0  0  0  0  0  0
  -35.9972  -17.8208   21.8133 H   0  0  0  0  0  0
  -34.1643  -17.3898   20.2917 H   0  0  0  0  0  0
  -35.1029  -18.5709   19.3856 H   0  0  0  0  0  0
  -34.6833  -19.3963   23.5145 H   0  0  0  0  0  0
  -33.8567  -17.9581   22.9340 H   0  0  0  0  0  0
  -32.4310  -18.8900   20.0296 H   0  0  0  0  0  0
  -33.4912  -20.2620   19.8066 H   0  0  0  0  0  0
  -33.5354  -20.8141   21.9673 H   0  0  0  0  0  0
  -28.3478  -17.6097   21.4687 H   0  0  0  0  0  0
  -29.5689  -17.7608   22.6779 H   0  0  0  0  0  0
  -31.3344  -17.0817   20.9937 H   0  0  0  0  0  0
  -30.1424  -17.1181   19.7224 H   0  0  0  0  0  0
  -27.3640  -24.8352   20.3148 H   0  0  0  0  0  0
  -28.3472  -25.0617   18.8758 H   0  0  0  0  0  0
  -29.1406  -24.1669   21.6580 H   0  0  0  0  0  0
  -30.3065  -25.1250   20.7788 H   0  0  0  0  0  0
  -31.6265  -18.5883   22.7073 H   0  0  0  0  0  0
  -29.0213  -15.2715   21.3328 H   0  0  0  0  0  0
  -31.8811  -21.2845   23.7566 H   0  0  0  0  0  0
  -32.3717  -19.9060   24.4747 H   0  0  0  0  0  0
  -30.7869  -20.1737   24.2152 H   0  0  0  0  0  0
  1 25  1  0  0  0
  1 30  2  0  0  0
  1 87  1  0  0  0
  2  3  1  0  0  0
  2 25  1  0  0  0
  2 90  1  0  0  0
  2 91  1  0  0  0
  3  4  1  0  0  0
  3 92  1  0  0  0
  3 93  1  0  0  0
  4  5  1  0  0  0
  4 94  1  0  0  0
  4 95  1  0  0  0
  5  6  1  0  0  0
  5 26  1  0  0  0
  5 96  1  0  0  0
  6 25  1  0  0  0
  6 97  1  0  0  0
  6 98  1  0  0  0
  7  8  2  0  0  0
  7 26  1  0  0  0
  7 29  1  0  0  0
  8  9  1  0  0  0
  8 22  1  0  0  0
  9 10  1  0  0  0
  9 27  2  0  0  0
 10 11  2  0  0  0
 10 15  1  0  0  0
 11 12  1  0  0  0
 11 99  1  0  0  0
 12 13  2  0  0  0
 12100  1  0  0  0
 13 14  1  0  0  0
 13 31  1  0  0  0
 14 15  2  0  0  0
 14101  1  0  0  0
 15102  1  0  0  0
 16 17  2  0  0  0
 16 21  1  0  0  0
 16 31  1  0  0  0
 17 18  1  0  0  0
 17103  1  0  0  0
 18 19  2  0  0  0
 18104  1  0  0  0
 19 20  1  0  0  0
 19 24  1  0  0  0
 20 21  2  0  0  0
 20105  1  0  0  0
 21 23  1  0  0  0
 22 28  1  0  0  0
 22 32  2  0  0  0
 26 27  1  0  0  0
 28106  1  0  0  0
 28107  1  0  0  0
 29108  1  0  0  0
 29109  1  0  0  0
 33 34  1  0  0  0
 33 66  1  0  0  0
 33 70  2  0  0  0
 34 36  1  0  0  0
 34 59  1  0  0  0
 34110  1  0  0  0
 35 44  2  0  0  0
 35 45  1  0  0  0
 35 68  1  0  0  0
 36 56  1  0  0  0
 36111  1  0  0  0
 37 39  1  0  0  0
 37 47  1  0  0  0
 37 66  1  0  0  0
 37112  1  0  0  0
 38 43  2  0  0  0
 38 46  1  0  0  0
 38 47  1  0  0  0
 39 64  1  0  0  0
 39 67  2  0  0  0
 40 52  1  0  0  0
 40 53  2  0  0  0
 40 58  1  0  0  0
 41113  1  0  0  0
 41114  1  0  0  0
 41115  1  0  0  0
 41 48  1  0  0  0
 42 43  1  0  0  0
 42 66  1  0  0  0
 42116  1  0  0  0
 42117  1  0  0  0
 43 44  1  0  0  0
 44118  1  0  0  0
 45 46  2  0  0  0
 45119  1  0  0  0
 46120  1  0  0  0
 47121  1  0  0  0
 47122  1  0  0  0
 48 56  1  0  0  0
 48 65  1  0  0  0
 48123  1  0  0  0
 49 50  1  0  0  0
 49 53  1  0  0  0
 49 64  1  0  0  0
 49124  1  0  0  0
 50 51  1  0  0  0
 50125  1  0  0  0
 50126  1  0  0  0
 51 52  1  0  0  0
 51127  1  0  0  0
 51128  1  0  0  0
 52129  1  0  0  0
 52130  1  0  0  0
 53 54  1  0  0  0
 54 55  2  0  0  0
 54131  1  0  0  0
 55 57  1  0  0  0
 55132  1  0  0  0
 56 69  2  0  0  0
 57 58  2  0  0  0
 57133  1  0  0  0
 58134  1  0  0  0
 59 60  1  0  0  0
 59 61  1  0  0  0
 59 62  1  0  0  0
 60135  1  0  0  0
 60136  1  0  0  0
 60137  1  0  0  0
 61138  1  0  0  0
 61139  1  0  0  0
 61140  1  0  0  0
 62141  1  0  0  0
 62142  1  0  0  0
 62143  1  0  0  0
 63 65  1  0  0  0
 63144  1  0  0  0
 63145  1  0  0  0
 63146  1  0  0  0
 64147  1  0  0  0
 65148  1  0  0  0
 68 84  1  0  0  0
 71 72  2  0  0  0
 71 74  1  0  0  0
 71149  1  0  0  0
 72 76  1  0  0  0
 72150  1  0  0  0
 73 75  1  0  0  0
 73 76  2  0  0  0
 73151  1  0  0  0
 74 75  2  0  0  0
 74 82  1  0  0  0
 75 86  1  0  0  0
 76 89  1  0  0  0
 77 78  1  0  0  0
 77 79  1  0  0  0
 77152  1  0  0  0
 77153  1  0  0  0
 78 80  1  0  0  0
 78154  1  0  0  0
 78155  1  0  0  0
 79156  1  0  0  0
 79157  1  0  0  0
 79 81  1  0  0  0
 80 81  1  0  0  0
 80158  1  0  0  0
 80159  1  0  0  0
 81 86  1  0  0  0
 81160  1  0  0  0
 82 83  1  0  0  0
 82161  1  0  0  0
 82162  1  0  0  0
 83 87  1  0  0  0
 83163  1  0  0  0
 83164  1  0  0  0
 84 85  1  0  0  0
 84165  1  0  0  0
 84166  1  0  0  0
 85 89  1  0  0  0
 85167  1  0  0  0
 85168  1  0  0  0
 86 88  1  0  0  0
 86169  1  0  0  0
 87170  1  0  0  0
 88171  1  0  0  0
 88172  1  0  0  0
 88173  1  0  0  0
M  CHG  1  88   1
M  ISO  4   1 100  68 101  84 101  87 100
M  END
> <chiral flag>
0

> <version>
0

> <s_m_source_file>
/data/baiqing/PycharmProjects/Reinvent-master-3.2/result/LINK_invent/BTK/process_docking_weight1_custom_sum_contain_oxygen_bond_distance_aromatic_linkinvent_7_9_3/rearranged_h_0130.sdf

> <i_m_source_file_index>
13

> <r_mmod_Potential_Energy-OPLS-2005>
-229.011856079102

> <r_mmod_Stretch_Energy-OPLS-2005>
41.8965225219727

> <r_mmod_Bend_Energy-OPLS-2005>
126.078430175781

> <r_mmod_Torsional_Energy-OPLS-2005>
288.302551269531

> <r_mmod_Improper_Torsional_Energy-OPLS-2005>
5.31489849090576

> <r_mmod_Van_der_Waal_Energy-OPLS-2005>
146.420074462891

> <r_mmod_Electrostatic_Energy-OPLS-2005>
-356.102630615234

> <r_mmod_Solvation_Energy-OPLS-2005>
-495.759979248047

> <b_mmod_Minimization_Converged-OPLS-2005>
0

> <r_mmod_RMS_Derivative-OPLS-2005>
2.92350745201111

$$$$
13
                    3D
 Structure written by MMmdl.
178187  0  0  1  0            999 V2000
  -30.7366  -14.3665   20.6203 C   0  0  0  0  0  0
  -30.4162  -12.2580   19.3924 C   0  0  0  0  0  0
  -29.4861  -12.5014   18.1874 C   0  0  0  0  0  0
  -28.0061  -12.3840   18.6056 C   0  0  0  0  0  0
  -27.6692  -13.1979   19.8829 C   0  0  2  0  0  0
  -28.7073  -12.9156   20.9905 C   0  0  0  0  0  0
  -25.2636  -13.8145   20.5686 C   0  0  0  0  0  0
  -24.1849  -13.0440   20.9179 C   0  0  0  0  0  0
  -24.6383  -11.6911   20.8724 C   0  0  0  0  0  0
  -23.9027  -10.4296   21.0415 C   0  0  0  0  0  0
  -24.3571   -9.4217   21.9210 C   0  0  0  0  0  0
  -23.6266   -8.2235   22.0757 C   0  0  0  0  0  0
  -22.4249   -8.0270   21.3541 C   0  0  0  0  0  0
  -21.9885   -9.0243   20.4640 C   0  0  0  0  0  0
  -22.7198  -10.2135   20.3065 C   0  0  0  0  0  0
  -21.6851   -6.0715   22.5274 C   0  0  0  0  0  0
  -21.4008   -6.5629   23.8199 C   0  0  0  0  0  0
  -21.3659   -5.6780   24.9172 C   0  0  0  0  0  0
  -21.6035   -4.3038   24.7229 C   0  0  0  0  0  0
  -21.8828   -3.8128   23.4350 C   0  0  0  0  0  0
  -21.9194   -4.6940   22.3406 C   0  0  0  0  0  0
  -22.7878  -13.5284   21.1823 C   0  0  0  0  0  0
  -22.1669   -4.2138   21.0982 F   0  0  0  0  0  0
  -21.5635   -3.4513   25.7734 F   0  0  0  0  0  0
  -30.0472  -13.2102   20.4473 N   0  0  0  0  0  0
  -26.3063  -12.9305   20.3399 N   0  0  0  0  0  0
  -25.9312  -11.6472   20.5771 N   0  0  0  0  0  0
  -22.0459  -12.8297   22.0354 N   0  0  0  0  0  0
  -25.4434  -15.1840   20.4096 N   0  0  0  0  0  0
  -31.8102  -14.6009   20.0568 O   0  0  0  0  0  0
  -21.6623   -6.8854   21.4241 O   0  0  0  0  0  0
  -22.3592  -14.5596   20.6654 O   0  0  0  0  0  0
  -24.6123  -31.8753   23.2098 C   0  0  0  0  0  0
  -25.9064  -32.4830   23.8385 C   0  0  1  0  0  0
  -27.2353  -27.4688   20.1162 C   0  0  0  0  0  0
  -25.5976  -33.8631   24.2359 N   0  0  0  0  0  0
  -23.3967  -30.4964   21.5445 C   0  0  2  0  0  0
  -24.8459  -28.9633   20.1106 C   0  0  0  0  0  0
  -22.7409  -29.4718   22.4986 C   0  0  0  0  0  0
  -18.0286  -28.1420   22.8495 C   0  0  0  0  0  0
  -24.1510  -36.7292   23.2625 C   0  0  0  0  0  0
  -25.9199  -30.8519   21.3570 C   0  0  0  0  0  0
  -25.9986  -29.4888   20.7080 C   0  0  0  0  0  0
  -27.1959  -28.7480   20.7023 C   0  0  0  0  0  0
  -26.0683  -26.9472   19.5108 C   0  0  0  0  0  0
  -24.8766  -27.6937   19.5036 C   0  0  0  0  0  0
  -23.6055  -29.8235   20.1588 C   0  0  0  0  0  0
  -25.4135  -36.3113   24.0330 C   0  0  1  0  0  0
  -20.5894  -28.3701   23.1350 C   0  0  2  0  0  0
  -20.6813  -26.9449   22.5442 C   0  0  0  0  0  0
  -19.5776  -26.6425   21.5252 C   0  0  0  0  0  0
  -18.1935  -26.7981   22.1621 C   0  0  0  0  0  0
  -19.1534  -28.8879   23.2913 C   0  0  0  0  0  0
  -18.9424  -30.1509   23.8886 C   0  0  0  0  0  0
  -17.6416  -30.6604   24.0579 C   0  0  0  0  0  0
  -25.9055  -34.9477   23.5119 C   0  0  0  0  0  0
  -16.5321  -29.9077   23.6378 C   0  0  0  0  0  0
  -16.7269  -28.6539   23.0308 C   0  0  0  0  0  0
  -26.4524  -31.6563   25.0692 C   0  0  0  0  0  0
  -25.3808  -31.3601   26.1429 C   0  0  0  0  0  0
  -27.0331  -30.3007   24.6033 C   0  0  0  0  0  0
  -27.6148  -32.4217   25.7435 C   0  0  0  0  0  0
  -27.5595  -37.1787   24.8463 C   0  0  0  0  0  0
  -21.4139  -29.3061   22.3743 N   0  0  0  0  0  0
  -26.4320  -37.3802   23.9407 N   0  0  0  0  0  0
  -24.6589  -31.0916   22.0936 N   0  0  0  0  0  0
  -23.4222  -28.8306   23.3022 O   0  0  0  0  0  0
  -28.4336  -26.7984   20.1480 O   0  0  0  0  0  0
  -26.5578  -34.8924   22.4658 O   0  0  0  0  0  0
  -23.5331  -32.1462   23.7545 O   0  0  0  0  0  0
  -29.5885  -18.9256   21.6876 C   0  0  0  0  0  0
  -31.9907  -18.5039   21.7163 C   0  0  0  0  0  0
  -29.3443  -17.5437   21.5782 C   0  0  0  0  0  0
  -31.7468  -17.1223   21.6006 C   0  0  0  0  0  0
  -30.9107  -19.4116   21.7654 C   0  0  0  0  0  0
  -30.4209  -16.6374   21.5212 C   0  0  0  0  0  0
  -33.2361  -25.9702   20.5370 C   0  0  0  0  0  0
  -33.4723  -27.2468   21.3474 C   0  0  0  0  0  0
  -31.7568  -27.6157   19.7288 C   0  0  0  0  0  0
  -31.7768  -26.1112   20.0844 C   0  0  1  0  0  0
  -31.1656  -20.8981   21.9229 C   0  0  0  0  0  0
  -31.6911  -23.6163   19.2232 C   0  0  0  0  0  0
  -31.2912  -22.9958   20.5915 C   0  0  0  0  0  0
  -28.8145  -24.7602   18.9580 C   0  0  0  0  0  0
  -28.4058  -25.3848   20.3013 C   0  0  0  0  0  0
  -31.3748  -25.1228   18.9487 C   0  0  1  0  0  0
  -30.1209  -15.2621   21.4033 N   0  0  0  0  0  0
  -32.6285  -28.2791   20.7186 N   0  3  0  0  0  0
  -31.4441  -21.5208   20.6140 N   0  3  0  0  0  0
  -30.0265  -25.3798   18.3584 N   0  3  0  0  0  0
  -31.4612  -12.3463   19.0893 H   0  0  0  0  0  0
  -30.2994  -11.2372   19.7594 H   0  0  0  0  0  0
  -29.7049  -11.7810   17.3984 H   0  0  0  0  0  0
  -29.6757  -13.4877   17.7616 H   0  0  0  0  0  0
  -27.7932  -11.3281   18.7792 H   0  0  0  0  0  0
  -27.3551  -12.6907   17.7843 H   0  0  0  0  0  0
  -27.7381  -14.2539   19.6221 H   0  0  0  0  0  0
  -28.6651  -11.8642   21.2844 H   0  0  0  0  0  0
  -28.4685  -13.4694   21.8986 H   0  0  0  0  0  0
  -25.2712   -9.5706   22.4782 H   0  0  0  0  0  0
  -23.9964   -7.4639   22.7488 H   0  0  0  0  0  0
  -21.0804   -8.8765   19.8960 H   0  0  0  0  0  0
  -22.3660  -10.9662   19.6150 H   0  0  0  0  0  0
  -21.1992   -7.6130   23.9709 H   0  0  0  0  0  0
  -21.1478   -6.0499   25.9074 H   0  0  0  0  0  0
  -22.0607   -2.7587   23.2845 H   0  0  0  0  0  0
  -22.3993  -11.9945   22.4765 H   0  0  0  0  0  0
  -21.1104  -13.1412   22.2530 H   0  0  0  0  0  0
  -24.6868  -15.8524   20.5126 H   0  0  0  0  0  0
  -26.3048  -15.6068   20.0849 H   0  0  0  0  0  0
  -26.7155  -32.5579   23.1167 H   0  0  0  0  0  0
  -25.0233  -33.9819   25.0573 H   0  0  0  0  0  0
  -22.6828  -31.3093   21.4061 H   0  0  0  0  0  0
  -23.3804  -35.9586   23.3281 H   0  0  0  0  0  0
  -24.3600  -36.8922   22.2042 H   0  0  0  0  0  0
  -23.7233  -37.6483   23.6630 H   0  0  0  0  0  0
  -26.0308  -31.6190   20.5908 H   0  0  0  0  0  0
  -26.8121  -30.9070   21.9681 H   0  0  0  0  0  0
  -28.0883  -29.1493   21.1627 H   0  0  0  0  0  0
  -26.0690  -25.9764   19.0373 H   0  0  0  0  0  0
  -23.9911  -27.2929   19.0277 H   0  0  0  0  0  0
  -23.7101  -30.5952   19.3943 H   0  0  0  0  0  0
  -22.7343  -29.2348   19.8671 H   0  0  0  0  0  0
  -25.1315  -36.1955   25.0825 H   0  0  0  0  0  0
  -20.9966  -28.3250   24.1471 H   0  0  0  0  0  0
  -20.5822  -26.2260   23.3591 H   0  0  0  0  0  0
  -21.6645  -26.7569   22.1131 H   0  0  0  0  0  0
  -19.6905  -25.6330   21.1266 H   0  0  0  0  0  0
  -19.6729  -27.3262   20.6806 H   0  0  0  0  0  0
  -17.4237  -26.6791   21.3993 H   0  0  0  0  0  0
  -18.0255  -26.0133   22.9013 H   0  0  0  0  0  0
  -19.7880  -30.7383   24.2184 H   0  0  0  0  0  0
  -17.4939  -31.6256   24.5206 H   0  0  0  0  0  0
  -15.5305  -30.2905   23.7774 H   0  0  0  0  0  0
  -15.8683  -28.0898   22.6900 H   0  0  0  0  0  0
  -24.5960  -30.7024   25.7679 H   0  0  0  0  0  0
  -24.9016  -32.2719   26.4986 H   0  0  0  0  0  0
  -25.8149  -30.8617   27.0103 H   0  0  0  0  0  0
  -26.2795  -29.6723   24.1263 H   0  0  0  0  0  0
  -27.4311  -29.7309   25.4446 H   0  0  0  0  0  0
  -27.8557  -30.4345   23.8998 H   0  0  0  0  0  0
  -27.2849  -33.3516   26.2066 H   0  0  0  0  0  0
  -28.3904  -32.6759   25.0201 H   0  0  0  0  0  0
  -28.0864  -31.8280   26.5280 H   0  0  0  0  0  0
  -28.2598  -38.0098   24.7557 H   0  0  0  0  0  0
  -28.1106  -36.2642   24.6236 H   0  0  0  0  0  0
  -27.2302  -37.1362   25.8858 H   0  0  0  0  0  0
  -20.9294  -29.8685   21.6895 H   0  0  0  0  0  0
  -26.0213  -38.2886   24.1394 H   0  0  0  0  0  0
  -28.7495  -19.6080   21.7159 H   0  0  0  0  0  0
  -33.0122  -18.8547   21.7667 H   0  0  0  0  0  0
  -28.3240  -17.1870   21.5245 H   0  0  0  0  0  0
  -32.5905  -16.4463   21.5762 H   0  0  0  0  0  0
  -33.4398  -25.0696   21.1142 H   0  0  0  0  0  0
  -33.8977  -25.9630   19.6686 H   0  0  0  0  0  0
  -34.5234  -27.5316   21.3819 H   0  0  0  0  0  0
  -33.1213  -27.1082   22.3712 H   0  0  0  0  0  0
  -30.7570  -28.0507   19.7361 H   0  0  0  0  0  0
  -32.1857  -27.7799   18.7369 H   0  0  0  0  0  0
  -31.1414  -25.9642   20.9565 H   0  0  0  0  0  0
  -32.0018  -21.0548   22.6058 H   0  0  0  0  0  0
  -30.2899  -21.3540   22.3883 H   0  0  0  0  0  0
  -31.2783  -23.0189   18.4114 H   0  0  0  0  0  0
  -32.7707  -23.4936   19.1267 H   0  0  0  0  0  0
  -30.2528  -23.2117   20.8301 H   0  0  0  0  0  0
  -31.8855  -23.4253   21.4007 H   0  0  0  0  0  0
  -27.9997  -24.9308   18.2544 H   0  0  0  0  0  0
  -28.9099  -23.6793   19.0277 H   0  0  0  0  0  0
  -29.1185  -25.1233   21.0810 H   0  0  0  0  0  0
  -27.4516  -24.9952   20.6593 H   0  0  0  0  0  0
  -32.0254  -25.3843   18.1127 H   0  0  0  0  0  0
  -29.2194  -14.9625   21.7439 H   0  0  0  0  0  0
  -33.1919  -28.9907   20.2799 H   0  0  0  0  0  0
  -32.0746  -28.7202   21.4355 H   0  0  0  0  0  0
  -30.8152  -21.1072   19.9440 H   0  0  0  0  0  0
  -32.3805  -21.2575   20.3512 H   0  0  0  0  0  0
  -29.8636  -26.3744   18.2897 H   0  0  0  0  0  0
  -30.0710  -25.0547   17.4035 H   0  0  0  0  0  0
  1 25  1  0  0  0
  1 30  2  0  0  0
  1 87  1  0  0  0
  2  3  1  0  0  0
  2 25  1  0  0  0
  2 91  1  0  0  0
  2 92  1  0  0  0
  3  4  1  0  0  0
  3 93  1  0  0  0
  3 94  1  0  0  0
  4  5  1  0  0  0
  4 95  1  0  0  0
  4 96  1  0  0  0
  5  6  1  0  0  0
  5 26  1  0  0  0
  5 97  1  0  0  0
  6 25  1  0  0  0
  6 98  1  0  0  0
  6 99  1  0  0  0
  7  8  2  0  0  0
  7 26  1  0  0  0
  7 29  1  0  0  0
  8  9  1  0  0  0
  8 22  1  0  0  0
  9 10  1  0  0  0
  9 27  2  0  0  0
 10 11  2  0  0  0
 10 15  1  0  0  0
 11 12  1  0  0  0
 11100  1  0  0  0
 12 13  2  0  0  0
 12101  1  0  0  0
 13 14  1  0  0  0
 13 31  1  0  0  0
 14 15  2  0  0  0
 14102  1  0  0  0
 15103  1  0  0  0
 16 17  2  0  0  0
 16 21  1  0  0  0
 16 31  1  0  0  0
 17 18  1  0  0  0
 17104  1  0  0  0
 18 19  2  0  0  0
 18105  1  0  0  0
 19 20  1  0  0  0
 19 24  1  0  0  0
 20 21  2  0  0  0
 20106  1  0  0  0
 21 23  1  0  0  0
 22 28  1  0  0  0
 22 32  2  0  0  0
 26 27  1  0  0  0
 28107  1  0  0  0
 28108  1  0  0  0
 29109  1  0  0  0
 29110  1  0  0  0
 33 34  1  0  0  0
 33 66  1  0  0  0
 33 70  2  0  0  0
 34 36  1  0  0  0
 34 59  1  0  0  0
 34111  1  0  0  0
 35 44  2  0  0  0
 35 45  1  0  0  0
 35 68  1  0  0  0
 36 56  1  0  0  0
 36112  1  0  0  0
 37 39  1  0  0  0
 37 47  1  0  0  0
 37 66  1  0  0  0
 37113  1  0  0  0
 38 43  2  0  0  0
 38 46  1  0  0  0
 38 47  1  0  0  0
 39 64  1  0  0  0
 39 67  2  0  0  0
 40 52  1  0  0  0
 40 53  2  0  0  0
 40 58  1  0  0  0
 41114  1  0  0  0
 41115  1  0  0  0
 41116  1  0  0  0
 41 48  1  0  0  0
 42 43  1  0  0  0
 42 66  1  0  0  0
 42117  1  0  0  0
 42118  1  0  0  0
 43 44  1  0  0  0
 44119  1  0  0  0
 45 46  2  0  0  0
 45120  1  0  0  0
 46121  1  0  0  0
 47122  1  0  0  0
 47123  1  0  0  0
 48 56  1  0  0  0
 48 65  1  0  0  0
 48124  1  0  0  0
 49 50  1  0  0  0
 49 53  1  0  0  0
 49 64  1  0  0  0
 49125  1  0  0  0
 50 51  1  0  0  0
 50126  1  0  0  0
 50127  1  0  0  0
 51 52  1  0  0  0
 51128  1  0  0  0
 51129  1  0  0  0
 52130  1  0  0  0
 52131  1  0  0  0
 53 54  1  0  0  0
 54 55  2  0  0  0
 54132  1  0  0  0
 55 57  1  0  0  0
 55133  1  0  0  0
 56 69  2  0  0  0
 57 58  2  0  0  0
 57134  1  0  0  0
 58135  1  0  0  0
 59 60  1  0  0  0
 59 61  1  0  0  0
 59 62  1  0  0  0
 60136  1  0  0  0
 60137  1  0  0  0
 60138  1  0  0  0
 61139  1  0  0  0
 61140  1  0  0  0
 61141  1  0  0  0
 62142  1  0  0  0
 62143  1  0  0  0
 62144  1  0  0  0
 63 65  1  0  0  0
 63145  1  0  0  0
 63146  1  0  0  0
 63147  1  0  0  0
 64148  1  0  0  0
 65149  1  0  0  0
 68 85  1  0  0  0
 71 73  2  0  0  0
 71 75  1  0  0  0
 71150  1  0  0  0
 72 74  1  0  0  0
 72 75  2  0  0  0
 72151  1  0  0  0
 73 76  1  0  0  0
 73152  1  0  0  0
 74 76  2  0  0  0
 74153  1  0  0  0
 75 81  1  0  0  0
 76 87  1  0  0  0
 77 78  1  0  0  0
 77154  1  0  0  0
 77155  1  0  0  0
 77 80  1  0  0  0
 78 88  1  0  0  0
 78156  1  0  0  0
 78157  1  0  0  0
 79 80  1  0  0  0
 79 88  1  0  0  0
 79158  1  0  0  0
 79159  1  0  0  0
 80 86  1  0  0  0
 80160  1  0  0  0
 81 89  1  0  0  0
 81161  1  0  0  0
 81162  1  0  0  0
 82 83  1  0  0  0
 82163  1  0  0  0
 82164  1  0  0  0
 82 86  1  0  0  0
 83 89  1  0  0  0
 83165  1  0  0  0
 83166  1  0  0  0
 84 85  1  0  0  0
 84 90  1  0  0  0
 84167  1  0  0  0
 84168  1  0  0  0
 85169  1  0  0  0
 85170  1  0  0  0
 86 90  1  0  0  0
 86171  1  0  0  0
 87172  1  0  0  0
 88173  1  0  0  0
 88174  1  0  0  0
 89175  1  0  0  0
 89176  1  0  0  0
 90177  1  0  0  0
 90178  1  0  0  0
M  CHG  3  88   1  89   1  90   1
M  ISO  4   1 100  68 101  85 101  87 100
M  END
> <chiral flag>
0

> <version>
0

> <s_m_source_file>
/data/baiqing/PycharmProjects/Reinvent-master-3.2/result/LINK_invent/BTK/process_docking_weight1_custom_sum_contain_oxygen_bond_distance_aromatic_linkinvent_7_9_3/rearranged_h_0130.sdf

> <i_m_source_file_index>
14

> <r_mmod_Potential_Energy-OPLS-2005>
-446.607055664062

> <r_mmod_Stretch_Energy-OPLS-2005>
35.8958930969238

> <r_mmod_Bend_Energy-OPLS-2005>
146.210266113281

> <r_mmod_Torsional_Energy-OPLS-2005>
309.938690185547

> <r_mmod_Improper_Torsional_Energy-OPLS-2005>
2.86508750915527

> <r_mmod_Van_der_Waal_Energy-OPLS-2005>
147.408905029297

> <r_mmod_Electrostatic_Energy-OPLS-2005>
614.643371582031

> <r_mmod_Solvation_Energy-OPLS-2005>
-1713.01477050781

> <b_mmod_Minimization_Converged-OPLS-2005>
0

> <r_mmod_RMS_Derivative-OPLS-2005>
4.70856380462646

$$$$
14
                    3D
 Structure written by MMmdl.
187197  0  0  1  0            999 V2000
  -30.6659  -14.8493   20.4246 C   0  0  0  0  0  0
  -30.4059  -12.5352   19.4714 C   0  0  0  0  0  0
  -29.4956  -12.5003   18.2288 C   0  0  0  0  0  0
  -28.0306  -12.3184   18.6571 C   0  0  0  0  0  0
  -27.6218  -13.2523   19.8275 C   0  0  2  0  0  0
  -28.6734  -13.2974   20.9563 C   0  0  0  0  0  0
  -25.2445  -13.8232   20.5719 C   0  0  0  0  0  0
  -24.1763  -13.0456   20.9230 C   0  0  0  0  0  0
  -24.6381  -11.6940   20.8751 C   0  0  0  0  0  0
  -23.9055  -10.4310   21.0395 C   0  0  0  0  0  0
  -24.3614   -9.4237   21.9171 C   0  0  0  0  0  0
  -23.6295   -8.2267   22.0743 C   0  0  0  0  0  0
  -22.4280   -8.0291   21.3538 C   0  0  0  0  0  0
  -21.9902   -9.0249   20.4635 C   0  0  0  0  0  0
  -22.7229  -10.2136   20.3040 C   0  0  0  0  0  0
  -21.6871   -6.0719   22.5264 C   0  0  0  0  0  0
  -21.4026   -6.5620   23.8206 C   0  0  0  0  0  0
  -21.3651   -5.6756   24.9158 C   0  0  0  0  0  0
  -21.6044   -4.3027   24.7204 C   0  0  0  0  0  0
  -21.8827   -3.8117   23.4319 C   0  0  0  0  0  0
  -21.9201   -4.6954   22.3387 C   0  0  0  0  0  0
  -22.7781  -13.5230   21.1859 C   0  0  0  0  0  0
  -22.1677   -4.2137   21.0962 F   0  0  0  0  0  0
  -21.5641   -3.4500   25.7711 F   0  0  0  0  0  0
  -29.9426  -13.6666   20.3261 N   0  0  0  0  0  0
  -26.2857  -12.9470   20.3232 N   0  0  0  0  0  0
  -25.9309  -11.6595   20.5734 N   0  0  0  0  0  0
  -22.0422  -12.8222   22.0396 N   0  0  0  0  0  0
  -25.4093  -15.1958   20.4150 N   0  0  0  0  0  0
  -31.8814  -14.7439   20.2331 O   0  0  0  0  0  0
  -21.6674   -6.8865   21.4226 O   0  0  0  0  0  0
  -22.3472  -14.5546   20.6718 O   0  0  0  0  0  0
  -24.6392  -31.8479   23.1909 C   0  0  0  0  0  0
  -25.9173  -32.4717   23.8292 C   0  0  1  0  0  0
  -27.2190  -27.1764   20.1471 C   0  0  0  0  0  0
  -25.5933  -33.8522   24.2204 N   0  0  0  0  0  0
  -23.4407  -30.4672   21.5358 C   0  0  2  0  0  0
  -24.8915  -28.9024   20.1098 C   0  0  0  0  0  0
  -22.7549  -29.4553   22.4870 C   0  0  0  0  0  0
  -18.0309  -28.1408   22.8465 C   0  0  0  0  0  0
  -24.1492  -36.7264   23.2638 C   0  0  0  0  0  0
  -25.9954  -30.7342   21.3852 C   0  0  0  0  0  0
  -26.0670  -29.3503   20.7258 C   0  0  0  0  0  0
  -27.2323  -28.5009   20.7304 C   0  0  0  0  0  0
  -26.0195  -26.8219   19.4916 C   0  0  0  0  0  0
  -24.8781  -27.6502   19.4782 C   0  0  0  0  0  0
  -23.6651  -29.7984   20.1536 C   0  0  0  0  0  0
  -25.4119  -36.3042   24.0316 C   0  0  1  0  0  0
  -20.5910  -28.3720   23.1253 C   0  0  2  0  0  0
  -20.6797  -26.9427   22.5416 C   0  0  0  0  0  0
  -19.5775  -26.6386   21.5219 C   0  0  0  0  0  0
  -18.1952  -26.7948   22.1617 C   0  0  0  0  0  0
  -19.1563  -28.8882   23.2848 C   0  0  0  0  0  0
  -18.9481  -30.1481   23.8866 C   0  0  0  0  0  0
  -17.6475  -30.6596   24.0566 C   0  0  0  0  0  0
  -25.9068  -34.9418   23.5068 C   0  0  0  0  0  0
  -16.5363  -29.9090   23.6344 C   0  0  0  0  0  0
  -16.7291  -28.6521   23.0338 C   0  0  0  0  0  0
  -26.4496  -31.6575   25.0719 C   0  0  0  0  0  0
  -25.3694  -31.3770   26.1426 C   0  0  0  0  0  0
  -27.0345  -30.2967   24.6283 C   0  0  0  0  0  0
  -27.6019  -32.4344   25.7514 C   0  0  0  0  0  0
  -27.5578  -37.1788   24.8455 C   0  0  0  0  0  0
  -21.4246  -29.3044   22.3623 N   0  0  0  0  0  0
  -26.4282  -37.3749   23.9407 N   0  0  0  0  0  0
  -24.7107  -31.0375   22.0920 N   0  0  0  0  0  0
  -23.4216  -28.8098   23.3009 O   0  0  0  0  0  0
  -28.2786  -26.2132   20.2310 O   0  0  0  0  0  0
  -26.5654  -34.8907   22.4648 O   0  0  0  0  0  0
  -23.5520  -32.1331   23.7156 O   0  0  0  0  0  0
  -30.2487  -23.9385   20.9853 C   0  0  0  0  0  0
  -31.2252  -23.0071   21.3722 C   0  0  0  0  0  0
  -28.8469  -22.0537   20.3120 C   0  0  0  0  0  0
  -29.8438  -21.0344   20.7119 C   0  0  0  0  0  0
  -29.0269  -23.5252   20.4392 C   0  0  0  0  0  0
  -31.0502  -21.6076   21.2471 C   0  0  0  0  0  0
  -28.6046  -18.4014   20.8649 C   0  0  0  0  0  0
  -30.5068  -18.6859   19.4350 C   0  0  0  0  0  0
  -30.7026  -17.9631   24.6098 C   0  0  0  0  0  0
  -28.9444  -16.8061   21.0246 C   0  0  0  0  0  0
  -31.0213  -17.2180   19.7282 C   0  0  0  0  0  0
  -32.8663  -17.0650   25.1085 C   0  0  0  0  0  0
  -29.8115  -19.3801   20.6301 C   0  0  0  0  0  0
  -32.1698  -18.3884   24.7474 C   0  0  1  0  0  0
  -30.5217  -16.8321   25.6340 C   0  0  1  0  0  0
  -28.0602  -16.4409   24.9964 C   0  0  0  0  0  0
  -32.2406  -20.7684   21.7336 C   0  0  0  0  0  0
  -27.9928  -24.7098   20.0338 C   0  0  0  0  0  0
  -32.7531  -19.0672   23.4858 C   0  0  0  0  0  0
  -29.4410  -15.7996   25.2168 C   0  0  2  0  0  0
  -30.1092  -16.1605   20.3017 N   0  0  0  0  0  0
  -29.2676  -14.7808   26.2438 N   0  0  0  0  0  0
  -31.8527  -16.2065   25.7539 N   0  3  0  0  0  0
  -32.0215  -20.3037   23.1215 N   0  3  0  0  0  0
  -31.4455  -12.6304   19.1525 H   0  0  0  0  0  0
  -30.3476  -11.5919   20.0162 H   0  0  0  0  0  0
  -29.7902  -11.6902   17.5587 H   0  0  0  0  0  0
  -29.6050  -13.4244   17.6594 H   0  0  0  0  0  0
  -27.9072  -11.2749   18.9535 H   0  0  0  0  0  0
  -27.3679  -12.4754   17.8049 H   0  0  0  0  0  0
  -27.5809  -14.2523   19.3964 H   0  0  0  0  0  0
  -28.7473  -12.3344   21.4634 H   0  0  0  0  0  0
  -28.3928  -14.0279   21.7152 H   0  0  0  0  0  0
  -25.2749   -9.5745   22.4745 H   0  0  0  0  0  0
  -24.0001   -7.4657   22.7457 H   0  0  0  0  0  0
  -21.0827   -8.8783   19.8931 H   0  0  0  0  0  0
  -22.3679  -10.9676   19.6166 H   0  0  0  0  0  0
  -21.2049   -7.6129   23.9720 H   0  0  0  0  0  0
  -21.1455   -6.0478   25.9066 H   0  0  0  0  0  0
  -22.0619   -2.7581   23.2833 H   0  0  0  0  0  0
  -22.4023  -11.9892   22.4817 H   0  0  0  0  0  0
  -21.1054  -13.1277   22.2596 H   0  0  0  0  0  0
  -24.6386  -15.8423   20.5355 H   0  0  0  0  0  0
  -26.2531  -15.6396   20.0770 H   0  0  0  0  0  0
  -26.7239  -32.5336   23.1026 H   0  0  0  0  0  0
  -25.0053  -33.9654   25.0330 H   0  0  0  0  0  0
  -22.7408  -31.2906   21.3843 H   0  0  0  0  0  0
  -23.3758  -35.9587   23.3282 H   0  0  0  0  0  0
  -24.3582  -36.8914   22.2055 H   0  0  0  0  0  0
  -23.7247  -37.6454   23.6693 H   0  0  0  0  0  0
  -26.1495  -31.4912   20.6150 H   0  0  0  0  0  0
  -26.8661  -30.7819   22.0268 H   0  0  0  0  0  0
  -28.1246  -28.8350   21.2402 H   0  0  0  0  0  0
  -25.9277  -25.8641   19.0031 H   0  0  0  0  0  0
  -23.9795  -27.3011   18.9879 H   0  0  0  0  0  0
  -23.7965  -30.5742   19.3992 H   0  0  0  0  0  0
  -22.7822  -29.2364   19.8447 H   0  0  0  0  0  0
  -25.1311  -36.1865   25.0808 H   0  0  0  0  0  0
  -21.0005  -28.3319   24.1371 H   0  0  0  0  0  0
  -20.5718  -26.2322   23.3618 H   0  0  0  0  0  0
  -21.6667  -26.7455   22.1199 H   0  0  0  0  0  0
  -19.6938  -25.6294   21.1262 H   0  0  0  0  0  0
  -19.6729  -27.3186   20.6742 H   0  0  0  0  0  0
  -17.4223  -26.6680   21.4021 H   0  0  0  0  0  0
  -18.0347  -26.0108   22.9033 H   0  0  0  0  0  0
  -19.7954  -30.7315   24.2210 H   0  0  0  0  0  0
  -17.5028  -31.6271   24.5180 H   0  0  0  0  0  0
  -15.5370  -30.2978   23.7700 H   0  0  0  0  0  0
  -15.8686  -28.0847   22.7045 H   0  0  0  0  0  0
  -24.5854  -30.7131   25.7770 H   0  0  0  0  0  0
  -24.8902  -32.2962   26.4819 H   0  0  0  0  0  0
  -25.7987  -30.8970   27.0234 H   0  0  0  0  0  0
  -26.2949  -29.6712   24.1267 H   0  0  0  0  0  0
  -27.3934  -29.7247   25.4859 H   0  0  0  0  0  0
  -27.8880  -30.4207   23.9604 H   0  0  0  0  0  0
  -27.2584  -33.3654   26.2048 H   0  0  0  0  0  0
  -28.3854  -32.6899   25.0362 H   0  0  0  0  0  0
  -28.0652  -31.8499   26.5476 H   0  0  0  0  0  0
  -28.2573  -38.0109   24.7521 H   0  0  0  0  0  0
  -28.1103  -36.2641   24.6259 H   0  0  0  0  0  0
  -27.2302  -37.1404   25.8859 H   0  0  0  0  0  0
  -20.9447  -29.8735   21.6786 H   0  0  0  0  0  0
  -26.0151  -38.2816   24.1418 H   0  0  0  0  0  0
  -30.4472  -24.9952   21.1126 H   0  0  0  0  0  0
  -32.1486  -23.3932   21.7814 H   0  0  0  0  0  0
  -27.9132  -21.6992   19.8942 H   0  0  0  0  0  0
  -28.0616  -18.7192   21.7559 H   0  0  0  0  0  0
  -27.8978  -18.5301   20.0433 H   0  0  0  0  0  0
  -29.8314  -18.6788   18.5777 H   0  0  0  0  0  0
  -31.3643  -19.2805   19.1159 H   0  0  0  0  0  0
  -30.5255  -17.5801   23.6043 H   0  0  0  0  0  0
  -30.0043  -18.7841   24.7827 H   0  0  0  0  0  0
  -28.0487  -16.2421   20.7682 H   0  0  0  0  0  0
  -29.1010  -16.6016   22.0832 H   0  0  0  0  0  0
  -31.8729  -17.3123   20.4037 H   0  0  0  0  0  0
  -31.4370  -16.8316   18.7935 H   0  0  0  0  0  0
  -33.7337  -17.2144   25.7530 H   0  0  0  0  0  0
  -33.2183  -16.5523   24.2122 H   0  0  0  0  0  0
  -30.3987  -19.0947   21.4941 H   0  0  0  0  0  0
  -32.2629  -19.0600   25.6016 H   0  0  0  0  0  0
  -30.2751  -17.2779   26.5996 H   0  0  0  0  0  0
  -28.0872  -17.2097   24.2245 H   0  0  0  0  0  0
  -27.6835  -16.9101   25.9063 H   0  0  0  0  0  0
  -27.3242  -15.7024   24.6763 H   0  0  0  0  0  0
  -33.1658  -21.3461   21.6987 H   0  0  0  0  0  0
  -32.4167  -19.9392   21.0498 H   0  0  0  0  0  0
  -27.0650  -24.4748   20.5548 H   0  0  0  0  0  0
  -27.7878  -24.5616   18.9734 H   0  0  0  0  0  0
  -32.7085  -18.3590   22.6570 H   0  0  0  0  0  0
  -33.8079  -19.3047   23.6350 H   0  0  0  0  0  0
  -29.7490  -15.3125   24.2886 H   0  0  0  0  0  0
  -28.9998  -15.2022   27.1288 H   0  0  0  0  0  0
  -30.1160  -14.2609   26.4431 H   0  0  0  0  0  0
  -32.0749  -16.0655   26.7264 H   0  0  0  0  0  0
  -31.8440  -15.3064   25.3028 H   0  0  0  0  0  0
  -31.0345  -20.1369   23.2175 H   0  0  0  0  0  0
  -32.2575  -21.0463   23.7603 H   0  0  0  0  0  0
  1 25  1  0  0  0
  1 30  2  0  0  0
  1 91  1  0  0  0
  2  3  1  0  0  0
  2 25  1  0  0  0
  2 95  1  0  0  0
  2 96  1  0  0  0
  3  4  1  0  0  0
  3 97  1  0  0  0
  3 98  1  0  0  0
  4  5  1  0  0  0
  4 99  1  0  0  0
  4100  1  0  0  0
  5  6  1  0  0  0
  5 26  1  0  0  0
  5101  1  0  0  0
  6 25  1  0  0  0
  6102  1  0  0  0
  6103  1  0  0  0
  7  8  2  0  0  0
  7 26  1  0  0  0
  7 29  1  0  0  0
  8  9  1  0  0  0
  8 22  1  0  0  0
  9 10  1  0  0  0
  9 27  2  0  0  0
 10 11  2  0  0  0
 10 15  1  0  0  0
 11 12  1  0  0  0
 11104  1  0  0  0
 12 13  2  0  0  0
 12105  1  0  0  0
 13 14  1  0  0  0
 13 31  1  0  0  0
 14 15  2  0  0  0
 14106  1  0  0  0
 15107  1  0  0  0
 16 17  2  0  0  0
 16 21  1  0  0  0
 16 31  1  0  0  0
 17 18  1  0  0  0
 17108  1  0  0  0
 18 19  2  0  0  0
 18109  1  0  0  0
 19 20  1  0  0  0
 19 24  1  0  0  0
 20 21  2  0  0  0
 20110  1  0  0  0
 21 23  1  0  0  0
 22 28  1  0  0  0
 22 32  2  0  0  0
 26 27  1  0  0  0
 28111  1  0  0  0
 28112  1  0  0  0
 29113  1  0  0  0
 29114  1  0  0  0
 33 34  1  0  0  0
 33 66  1  0  0  0
 33 70  2  0  0  0
 34 36  1  0  0  0
 34 59  1  0  0  0
 34115  1  0  0  0
 35 44  2  0  0  0
 35 45  1  0  0  0
 35 68  1  0  0  0
 36 56  1  0  0  0
 36116  1  0  0  0
 37 39  1  0  0  0
 37 47  1  0  0  0
 37 66  1  0  0  0
 37117  1  0  0  0
 38 43  2  0  0  0
 38 46  1  0  0  0
 38 47  1  0  0  0
 39 64  1  0  0  0
 39 67  2  0  0  0
 40 52  1  0  0  0
 40 53  2  0  0  0
 40 58  1  0  0  0
 41118  1  0  0  0
 41119  1  0  0  0
 41120  1  0  0  0
 41 48  1  0  0  0
 42 43  1  0  0  0
 42 66  1  0  0  0
 42121  1  0  0  0
 42122  1  0  0  0
 43 44  1  0  0  0
 44123  1  0  0  0
 45 46  2  0  0  0
 45124  1  0  0  0
 46125  1  0  0  0
 47126  1  0  0  0
 47127  1  0  0  0
 48 56  1  0  0  0
 48 65  1  0  0  0
 48128  1  0  0  0
 49 50  1  0  0  0
 49 53  1  0  0  0
 49 64  1  0  0  0
 49129  1  0  0  0
 50 51  1  0  0  0
 50130  1  0  0  0
 50131  1  0  0  0
 51 52  1  0  0  0
 51132  1  0  0  0
 51133  1  0  0  0
 52134  1  0  0  0
 52135  1  0  0  0
 53 54  1  0  0  0
 54 55  2  0  0  0
 54136  1  0  0  0
 55 57  1  0  0  0
 55137  1  0  0  0
 56 69  2  0  0  0
 57 58  2  0  0  0
 57138  1  0  0  0
 58139  1  0  0  0
 59 60  1  0  0  0
 59 61  1  0  0  0
 59 62  1  0  0  0
 60140  1  0  0  0
 60141  1  0  0  0
 60142  1  0  0  0
 61143  1  0  0  0
 61144  1  0  0  0
 61145  1  0  0  0
 62146  1  0  0  0
 62147  1  0  0  0
 62148  1  0  0  0
 63 65  1  0  0  0
 63149  1  0  0  0
 63150  1  0  0  0
 63151  1  0  0  0
 64152  1  0  0  0
 65153  1  0  0  0
 68 88  1  0  0  0
 71 72  2  0  0  0
 71 75  1  0  0  0
 71154  1  0  0  0
 72 76  1  0  0  0
 72155  1  0  0  0
 73 74  1  0  0  0
 73 75  2  0  0  0
 73156  1  0  0  0
 74 76  2  0  0  0
 74 83  1  0  0  0
 75 88  1  0  0  0
 76 87  1  0  0  0
 77 80  1  0  0  0
 77 83  1  0  0  0
 77157  1  0  0  0
 77158  1  0  0  0
 78 81  1  0  0  0
 78 83  1  0  0  0
 78159  1  0  0  0
 78160  1  0  0  0
 79 84  1  0  0  0
 79161  1  0  0  0
 79162  1  0  0  0
 79 85  1  0  0  0
 80 91  1  0  0  0
 80163  1  0  0  0
 80164  1  0  0  0
 81 91  1  0  0  0
 81165  1  0  0  0
 81166  1  0  0  0
 82 84  1  0  0  0
 82 93  1  0  0  0
 82167  1  0  0  0
 82168  1  0  0  0
 83169  1  0  0  0
 84 89  1  0  0  0
 84170  1  0  0  0
 85 90  1  0  0  0
 85 93  1  0  0  0
 85171  1  0  0  0
 86172  1  0  0  0
 86173  1  0  0  0
 86174  1  0  0  0
 86 90  1  0  0  0
 87 94  1  0  0  0
 87175  1  0  0  0
 87176  1  0  0  0
 88177  1  0  0  0
 88178  1  0  0  0
 89 94  1  0  0  0
 89179  1  0  0  0
 89180  1  0  0  0
 90 92  1  0  0  0
 90181  1  0  0  0
 92182  1  0  0  0
 92183  1  0  0  0
 93184  1  0  0  0
 93185  1  0  0  0
 94186  1  0  0  0
 94187  1  0  0  0
M  CHG  2  93   1  94   1
M  ISO  4   1 100  68 101  88 101  91 100
M  END
> <chiral flag>
0

> <version>
0

> <s_m_source_file>
/data/baiqing/PycharmProjects/Reinvent-master-3.2/result/LINK_invent/BTK/process_docking_weight1_custom_sum_contain_oxygen_bond_distance_aromatic_linkinvent_7_9_3/rearranged_h_0130.sdf

> <i_m_source_file_index>
15

> <r_mmod_Potential_Energy-OPLS-2005>
294.653045654297

> <r_mmod_Stretch_Energy-OPLS-2005>
207.826309204102

> <r_mmod_Bend_Energy-OPLS-2005>
298.863464355469

> <r_mmod_Torsional_Energy-OPLS-2005>
384.028717041016

> <r_mmod_Improper_Torsional_Energy-OPLS-2005>
13.8985948562622

> <r_mmod_Van_der_Waal_Energy-OPLS-2005>
128.030700683594

> <r_mmod_Electrostatic_Energy-OPLS-2005>
121.813781738281

> <r_mmod_Solvation_Energy-OPLS-2005>
-1011.40026855469

> <b_mmod_Minimization_Converged-OPLS-2005>
0

> <r_mmod_RMS_Derivative-OPLS-2005>
3.33675360679626

$$$$
15
                    3D
 Structure written by MMmdl.
161170  0  0  1  0            999 V2000
  -30.6474  -14.6450   20.4867 C   0  0  0  0  0  0
  -30.4284  -12.3947   19.4582 C   0  0  0  0  0  0
  -29.5090  -12.5050   18.2230 C   0  0  0  0  0  0
  -28.0305  -12.3473   18.6315 C   0  0  0  0  0  0
  -27.6481  -13.2255   19.8538 C   0  0  2  0  0  0
  -28.6915  -13.1140   20.9868 C   0  0  0  0  0  0
  -25.2529  -13.8186   20.5658 C   0  0  0  0  0  0
  -24.1814  -13.0437   20.9178 C   0  0  0  0  0  0
  -24.6399  -11.6914   20.8730 C   0  0  0  0  0  0
  -23.9074  -10.4297   21.0395 C   0  0  0  0  0  0
  -24.3627   -9.4211   21.9171 C   0  0  0  0  0  0
  -23.6300   -8.2247   22.0751 C   0  0  0  0  0  0
  -22.4273   -8.0287   21.3553 C   0  0  0  0  0  0
  -21.9914   -9.0259   20.4649 C   0  0  0  0  0  0
  -22.7244  -10.2135   20.3048 C   0  0  0  0  0  0
  -21.6855   -6.0737   22.5279 C   0  0  0  0  0  0
  -21.4019   -6.5642   23.8213 C   0  0  0  0  0  0
  -21.3661   -5.6793   24.9174 C   0  0  0  0  0  0
  -21.6038   -4.3057   24.7226 C   0  0  0  0  0  0
  -21.8819   -3.8151   23.4348 C   0  0  0  0  0  0
  -21.9192   -4.6966   22.3403 C   0  0  0  0  0  0
  -22.7832  -13.5218   21.1848 C   0  0  0  0  0  0
  -22.1659   -4.2151   21.0981 F   0  0  0  0  0  0
  -21.5633   -3.4540   25.7742 F   0  0  0  0  0  0
  -30.0034  -13.4394   20.4120 N   0  0  0  0  0  0
  -26.2961  -12.9388   20.3262 N   0  0  0  0  0  0
  -25.9328  -11.6534   20.5717 N   0  0  0  0  0  0
  -22.0482  -12.8215   22.0414 N   0  0  0  0  0  0
  -25.4213  -15.1912   20.4083 N   0  0  0  0  0  0
  -31.8277  -14.7578   20.1497 O   0  0  0  0  0  0
  -21.6642   -6.8880   21.4241 O   0  0  0  0  0  0
  -22.3512  -14.5513   20.6689 O   0  0  0  0  0  0
  -24.6274  -31.8589   23.2015 C   0  0  0  0  0  0
  -25.9118  -32.4773   23.8349 C   0  0  1  0  0  0
  -27.2256  -27.3125   20.0971 C   0  0  0  0  0  0
  -25.5933  -33.8578   24.2277 N   0  0  0  0  0  0
  -23.4206  -30.4829   21.5450 C   0  0  2  0  0  0
  -24.8646  -28.9359   20.1108 C   0  0  0  0  0  0
  -22.7481  -29.4614   22.4932 C   0  0  0  0  0  0
  -18.0288  -28.1376   22.8483 C   0  0  0  0  0  0
  -24.1492  -36.7293   23.2638 C   0  0  0  0  0  0
  -25.9628  -30.7859   21.3734 C   0  0  0  0  0  0
  -26.0350  -29.4127   20.7132 C   0  0  0  0  0  0
  -27.2142  -28.6094   20.7015 C   0  0  0  0  0  0
  -26.0194  -26.8777   19.5006 C   0  0  0  0  0  0
  -24.8574  -27.6721   19.5023 C   0  0  0  0  0  0
  -23.6354  -29.8201   20.1594 C   0  0  0  0  0  0
  -25.4116  -36.3085   24.0328 C   0  0  1  0  0  0
  -20.5888  -28.3678   23.1283 C   0  0  2  0  0  0
  -20.6775  -26.9400   22.5409 C   0  0  0  0  0  0
  -19.5750  -26.6373   21.5209 C   0  0  0  0  0  0
  -18.1930  -26.7918   22.1623 C   0  0  0  0  0  0
  -19.1540  -28.8843   23.2877 C   0  0  0  0  0  0
  -18.9464  -30.1448   23.8889 C   0  0  0  0  0  0
  -17.6463  -30.6577   24.0555 C   0  0  0  0  0  0
  -25.9051  -34.9450   23.5102 C   0  0  0  0  0  0
  -16.5354  -29.9072   23.6326 C   0  0  0  0  0  0
  -16.7275  -28.6492   23.0343 C   0  0  0  0  0  0
  -26.4499  -31.6587   25.0724 C   0  0  0  0  0  0
  -25.3735  -31.3728   26.1456 C   0  0  0  0  0  0
  -27.0332  -30.3010   24.6175 C   0  0  0  0  0  0
  -27.6060  -32.4318   25.7496 C   0  0  0  0  0  0
  -27.5582  -37.1805   24.8462 C   0  0  0  0  0  0
  -21.4191  -29.3036   22.3681 N   0  0  0  0  0  0
  -26.4293  -37.3779   23.9407 N   0  0  0  0  0  0
  -24.6892  -31.0593   22.0970 N   0  0  0  0  0  0
  -23.4202  -28.8151   23.3010 O   0  0  0  0  0  0
  -28.3571  -26.4794   20.1534 O   0  0  0  0  0  0
  -26.5612  -34.8920   22.4665 O   0  0  0  0  0  0
  -23.5432  -32.1393   23.7340 O   0  0  0  0  0  0
  -29.8534  -23.4602   20.5662 C   0  0  0  0  0  0
  -30.1555  -22.0903   20.8229 C   0  0  0  0  0  0
  -27.8939  -22.7621   19.3897 C   0  0  0  0  0  0
  -28.7159  -23.8414   19.8191 C   0  0  0  0  0  0
  -28.1893  -21.3764   19.6328 C   0  0  0  0  0  0
  -29.3703  -20.9956   20.3605 C   0  0  0  0  0  0
  -28.3919  -19.7880   16.7544 C   0  0  0  0  0  0
  -27.0733  -19.0542   16.7744 C   0  0  0  0  0  0
  -27.2217  -20.3597   17.5245 C   0  0  0  0  0  0
  -27.1903  -20.3844   19.0449 C   0  0  0  0  0  0
  -28.5095  -25.3065   19.2664 C   0  0  0  0  0  0
  -30.3697  -17.1967   20.7972 C   0  0  0  0  0  0
  -29.3761  -18.3769   20.3817 C   0  0  0  0  0  0
  -29.8959  -15.7614   20.7492 N   0  0  0  0  0  0
  -29.9041  -19.7163   20.6803 O   0  0  0  0  0  0
  -31.4745  -12.5011   19.1648 H   0  0  0  0  0  0
  -30.3462  -11.4066   19.9149 H   0  0  0  0  0  0
  -29.7764  -11.7499   17.4827 H   0  0  0  0  0  0
  -29.6569  -13.4726   17.7401 H   0  0  0  0  0  0
  -27.8619  -11.2955   18.8653 H   0  0  0  0  0  0
  -27.3814  -12.5761   17.7856 H   0  0  0  0  0  0
  -27.6579  -14.2559   19.4981 H   0  0  0  0  0  0
  -28.7018  -12.1082   21.4080 H   0  0  0  0  0  0
  -28.4434  -13.7855   21.8109 H   0  0  0  0  0  0
  -25.2779   -9.5681   22.4735 H   0  0  0  0  0  0
  -24.0018   -7.4631   22.7465 H   0  0  0  0  0  0
  -21.0847   -8.8774   19.8951 H   0  0  0  0  0  0
  -22.3706  -10.9672   19.6153 H   0  0  0  0  0  0
  -21.2017   -7.6151   23.9715 H   0  0  0  0  0  0
  -21.1478   -6.0527   25.9075 H   0  0  0  0  0  0
  -22.0597   -2.7614   23.2845 H   0  0  0  0  0  0
  -22.4103  -11.9907   22.4851 H   0  0  0  0  0  0
  -21.1087  -13.1227   22.2590 H   0  0  0  0  0  0
  -24.6484  -15.8399   20.5090 H   0  0  0  0  0  0
  -26.2668  -15.6338   20.0730 H   0  0  0  0  0  0
  -26.7187  -32.5433   23.1093 H   0  0  0  0  0  0
  -25.0105  -33.9725   25.0439 H   0  0  0  0  0  0
  -22.7147  -31.3037   21.4032 H   0  0  0  0  0  0
  -23.3755  -35.9624   23.3298 H   0  0  0  0  0  0
  -24.3587  -36.8915   22.2052 H   0  0  0  0  0  0
  -23.7246  -37.6496   23.6659 H   0  0  0  0  0  0
  -26.0966  -31.5499   20.6062 H   0  0  0  0  0  0
  -26.8428  -30.8326   22.0033 H   0  0  0  0  0  0
  -28.1140  -28.9718   21.1786 H   0  0  0  0  0  0
  -25.9231  -25.8973   19.0622 H   0  0  0  0  0  0
  -23.9523  -27.2917   19.0488 H   0  0  0  0  0  0
  -23.7620  -30.5991   19.4063 H   0  0  0  0  0  0
  -22.7526  -29.2566   19.8518 H   0  0  0  0  0  0
  -25.1298  -36.1935   25.0820 H   0  0  0  0  0  0
  -20.9979  -28.3250   24.1403 H   0  0  0  0  0  0
  -20.5668  -26.2284   23.3608 H   0  0  0  0  0  0
  -21.6644  -26.7422   22.1208 H   0  0  0  0  0  0
  -19.6908  -25.6281   21.1241 H   0  0  0  0  0  0
  -19.6687  -27.3178   20.6734 H   0  0  0  0  0  0
  -17.4198  -26.6660   21.4027 H   0  0  0  0  0  0
  -18.0333  -26.0062   22.9023 H   0  0  0  0  0  0
  -19.7939  -30.7266   24.2253 H   0  0  0  0  0  0
  -17.5014  -31.6259   24.5156 H   0  0  0  0  0  0
  -15.5351  -30.2967   23.7652 H   0  0  0  0  0  0
  -15.8679  -28.0808   22.7054 H   0  0  0  0  0  0
  -24.5909  -30.7071   25.7799 H   0  0  0  0  0  0
  -24.8923  -32.2890   26.4887 H   0  0  0  0  0  0
  -25.8066  -30.8913   27.0231 H   0  0  0  0  0  0
  -26.2897  -29.6769   24.1201 H   0  0  0  0  0  0
  -27.4035  -29.7263   25.4674 H   0  0  0  0  0  0
  -27.8768  -30.4301   23.9390 H   0  0  0  0  0  0
  -27.2679  -33.3625   26.2065 H   0  0  0  0  0  0
  -28.3877  -32.6864   25.0327 H   0  0  0  0  0  0
  -28.0716  -31.8443   26.5419 H   0  0  0  0  0  0
  -28.2596  -38.0106   24.7516 H   0  0  0  0  0  0
  -28.1084  -36.2639   24.6279 H   0  0  0  0  0  0
  -27.2302  -37.1445   25.8866 H   0  0  0  0  0  0
  -20.9359  -29.8780   21.6917 H   0  0  0  0  0  0
  -26.0174  -38.2854   24.1409 H   0  0  0  0  0  0
  -30.5432  -24.2235   20.8996 H   0  0  0  0  0  0
  -31.0615  -21.8725   21.3712 H   0  0  0  0  0  0
  -27.0225  -23.0030   18.7961 H   0  0  0  0  0  0
  -28.6724  -20.2913   15.8310 H   0  0  0  0  0  0
  -29.2214  -19.3730   17.3214 H   0  0  0  0  0  0
  -27.0210  -18.1331   17.3524 H   0  0  0  0  0  0
  -26.4679  -19.0680   15.8698 H   0  0  0  0  0  0
  -26.7685  -21.2380   17.0677 H   0  0  0  0  0  0
  -26.1889  -20.6941   19.3452 H   0  0  0  0  0  0
  -27.2859  -19.3823   19.4406 H   0  0  0  0  0  0
  -27.7857  -25.2824   18.4542 H   0  0  0  0  0  0
  -29.4375  -25.5152   18.7331 H   0  0  0  0  0  0
  -30.6955  -17.3801   21.8218 H   0  0  0  0  0  0
  -31.2711  -17.2922   20.1893 H   0  0  0  0  0  0
  -28.4348  -18.2459   20.9151 H   0  0  0  0  0  0
  -29.1778  -18.2860   19.3153 H   0  0  0  0  0  0
  -28.9251  -15.5967   20.9697 H   0  0  0  0  0  0
  1 25  1  0  0  0
  1 30  2  0  0  0
  1 84  1  0  0  0
  2  3  1  0  0  0
  2 25  1  0  0  0
  2 86  1  0  0  0
  2 87  1  0  0  0
  3  4  1  0  0  0
  3 88  1  0  0  0
  3 89  1  0  0  0
  4  5  1  0  0  0
  4 90  1  0  0  0
  4 91  1  0  0  0
  5  6  1  0  0  0
  5 26  1  0  0  0
  5 92  1  0  0  0
  6 25  1  0  0  0
  6 93  1  0  0  0
  6 94  1  0  0  0
  7  8  2  0  0  0
  7 26  1  0  0  0
  7 29  1  0  0  0
  8  9  1  0  0  0
  8 22  1  0  0  0
  9 10  1  0  0  0
  9 27  2  0  0  0
 10 11  2  0  0  0
 10 15  1  0  0  0
 11 12  1  0  0  0
 11 95  1  0  0  0
 12 13  2  0  0  0
 12 96  1  0  0  0
 13 14  1  0  0  0
 13 31  1  0  0  0
 14 15  2  0  0  0
 14 97  1  0  0  0
 15 98  1  0  0  0
 16 17  2  0  0  0
 16 21  1  0  0  0
 16 31  1  0  0  0
 17 18  1  0  0  0
 17 99  1  0  0  0
 18 19  2  0  0  0
 18100  1  0  0  0
 19 20  1  0  0  0
 19 24  1  0  0  0
 20 21  2  0  0  0
 20101  1  0  0  0
 21 23  1  0  0  0
 22 28  1  0  0  0
 22 32  2  0  0  0
 26 27  1  0  0  0
 28102  1  0  0  0
 28103  1  0  0  0
 29104  1  0  0  0
 29105  1  0  0  0
 33 34  1  0  0  0
 33 66  1  0  0  0
 33 70  2  0  0  0
 34 36  1  0  0  0
 34 59  1  0  0  0
 34106  1  0  0  0
 35 44  2  0  0  0
 35 45  1  0  0  0
 35 68  1  0  0  0
 36 56  1  0  0  0
 36107  1  0  0  0
 37 39  1  0  0  0
 37 47  1  0  0  0
 37 66  1  0  0  0
 37108  1  0  0  0
 38 43  2  0  0  0
 38 46  1  0  0  0
 38 47  1  0  0  0
 39 64  1  0  0  0
 39 67  2  0  0  0
 40 52  1  0  0  0
 40 53  2  0  0  0
 40 58  1  0  0  0
 41109  1  0  0  0
 41110  1  0  0  0
 41111  1  0  0  0
 41 48  1  0  0  0
 42 43  1  0  0  0
 42 66  1  0  0  0
 42112  1  0  0  0
 42113  1  0  0  0
 43 44  1  0  0  0
 44114  1  0  0  0
 45 46  2  0  0  0
 45115  1  0  0  0
 46116  1  0  0  0
 47117  1  0  0  0
 47118  1  0  0  0
 48 56  1  0  0  0
 48 65  1  0  0  0
 48119  1  0  0  0
 49 50  1  0  0  0
 49 53  1  0  0  0
 49 64  1  0  0  0
 49120  1  0  0  0
 50 51  1  0  0  0
 50121  1  0  0  0
 50122  1  0  0  0
 51 52  1  0  0  0
 51123  1  0  0  0
 51124  1  0  0  0
 52125  1  0  0  0
 52126  1  0  0  0
 53 54  1  0  0  0
 54 55  2  0  0  0
 54127  1  0  0  0
 55 57  1  0  0  0
 55128  1  0  0  0
 56 69  2  0  0  0
 57 58  2  0  0  0
 57129  1  0  0  0
 58130  1  0  0  0
 59 60  1  0  0  0
 59 61  1  0  0  0
 59 62  1  0  0  0
 60131  1  0  0  0
 60132  1  0  0  0
 60133  1  0  0  0
 61134  1  0  0  0
 61135  1  0  0  0
 61136  1  0  0  0
 62137  1  0  0  0
 62138  1  0  0  0
 62139  1  0  0  0
 63 65  1  0  0  0
 63140  1  0  0  0
 63141  1  0  0  0
 63142  1  0  0  0
 64143  1  0  0  0
 65144  1  0  0  0
 68 81  1  0  0  0
 71 72  2  0  0  0
 71 74  1  0  0  0
 71145  1  0  0  0
 72 76  1  0  0  0
 72146  1  0  0  0
 73 74  2  0  0  0
 73 75  1  0  0  0
 73147  1  0  0  0
 74 81  1  0  0  0
 75 76  2  0  0  0
 75 80  1  0  0  0
 76 85  1  0  0  0
 77 78  1  0  0  0
 77 79  1  0  0  0
 77148  1  0  0  0
 77149  1  0  0  0
 78 79  1  0  0  0
 78150  1  0  0  0
 78151  1  0  0  0
 79 80  1  0  0  0
 79152  1  0  0  0
 80153  1  0  0  0
 80154  1  0  0  0
 81155  1  0  0  0
 81156  1  0  0  0
 82 83  1  0  0  0
 82 84  1  0  0  0
 82157  1  0  0  0
 82158  1  0  0  0
 83 85  1  0  0  0
 83159  1  0  0  0
 83160  1  0  0  0
 84161  1  0  0  0
M  ISO  4   1 100  68 101  81 101  84 100
M  END
> <chiral flag>
0

> <version>
0

> <s_m_source_file>
/data/baiqing/PycharmProjects/Reinvent-master-3.2/result/LINK_invent/BTK/process_docking_weight1_custom_sum_contain_oxygen_bond_distance_aromatic_linkinvent_7_9_3/rearranged_h_0130.sdf

> <i_m_source_file_index>
16

> <r_mmod_Potential_Energy-OPLS-2005>
111.523223876953

> <r_mmod_Stretch_Energy-OPLS-2005>
85.4935836791992

> <r_mmod_Bend_Energy-OPLS-2005>
189.615493774414

> <r_mmod_Torsional_Energy-OPLS-2005>
250.243835449219

> <r_mmod_Improper_Torsional_Energy-OPLS-2005>
5.98032283782959

> <r_mmod_Van_der_Waal_Energy-OPLS-2005>
140.588012695312

> <r_mmod_Electrostatic_Energy-OPLS-2005>
-398.342193603516

> <r_mmod_Solvation_Energy-OPLS-2005>
-213.606491088867

> <b_mmod_Minimization_Converged-OPLS-2005>
0

> <r_mmod_RMS_Derivative-OPLS-2005>
1.37870562076569

$$$$
16
                    3D
 Structure written by MMmdl.
158166  0  0  1  0            999 V2000
  -30.7012  -14.4779   20.6119 C   0  0  0  0  0  0
  -30.4296  -12.3241   19.4268 C   0  0  0  0  0  0
  -29.5005  -12.5182   18.2113 C   0  0  0  0  0  0
  -28.0193  -12.3779   18.6175 C   0  0  0  0  0  0
  -27.6618  -13.2117   19.8769 C   0  0  2  0  0  0
  -28.7014  -12.9847   20.9975 C   0  0  0  0  0  0
  -25.2575  -13.8191   20.5679 C   0  0  0  0  0  0
  -24.1837  -13.0456   20.9179 C   0  0  0  0  0  0
  -24.6394  -11.6920   20.8727 C   0  0  0  0  0  0
  -23.9059  -10.4297   21.0382 C   0  0  0  0  0  0
  -24.3626   -9.4213   21.9162 C   0  0  0  0  0  0
  -23.6308   -8.2243   22.0729 C   0  0  0  0  0  0
  -22.4290   -8.0274   21.3524 C   0  0  0  0  0  0
  -21.9915   -9.0249   20.4630 C   0  0  0  0  0  0
  -22.7240  -10.2129   20.3042 C   0  0  0  0  0  0
  -21.6850   -6.0742   22.5285 C   0  0  0  0  0  0
  -21.4015   -6.5644   23.8222 C   0  0  0  0  0  0
  -21.3659   -5.6785   24.9174 C   0  0  0  0  0  0
  -21.6047   -4.3051   24.7213 C   0  0  0  0  0  0
  -21.8822   -3.8150   23.4332 C   0  0  0  0  0  0
  -21.9188   -4.6972   22.3394 C   0  0  0  0  0  0
  -22.7853  -13.5238   21.1837 C   0  0  0  0  0  0
  -22.1656   -4.2166   21.0964 F   0  0  0  0  0  0
  -21.5627   -3.4524   25.7716 F   0  0  0  0  0  0
  -30.0309  -13.3036   20.4500 N   0  0  0  0  0  0
  -26.3021  -12.9370   20.3357 N   0  0  0  0  0  0
  -25.9323  -11.6523   20.5757 N   0  0  0  0  0  0
  -22.0482  -12.8240   22.0405 N   0  0  0  0  0  0
  -25.4303  -15.1909   20.4092 N   0  0  0  0  0  0
  -31.8200  -14.6804   20.1340 O   0  0  0  0  0  0
  -21.6630   -6.8888   21.4247 O   0  0  0  0  0  0
  -22.3528  -14.5526   20.6650 O   0  0  0  0  0  0
  -24.6166  -31.8681   23.2100 C   0  0  0  0  0  0
  -25.9053  -32.4816   23.8396 C   0  0  1  0  0  0
  -27.2249  -27.4122   20.0982 C   0  0  0  0  0  0
  -25.5903  -33.8615   24.2323 N   0  0  0  0  0  0
  -23.4048  -30.4965   21.5500 C   0  0  2  0  0  0
  -24.8470  -28.9650   20.1106 C   0  0  0  0  0  0
  -22.7423  -29.4684   22.4959 C   0  0  0  0  0  0
  -18.0284  -28.1376   22.8493 C   0  0  0  0  0  0
  -24.1484  -36.7334   23.2636 C   0  0  0  0  0  0
  -25.9374  -30.8278   21.3656 C   0  0  0  0  0  0
  -26.0113  -29.4632   20.7083 C   0  0  0  0  0  0
  -27.2021  -28.6959   20.6975 C   0  0  0  0  0  0
  -26.0394  -26.9481   19.4755 C   0  0  0  0  0  0
  -24.8567  -27.7070   19.4903 C   0  0  0  0  0  0
  -23.6127  -29.8356   20.1626 C   0  0  0  0  0  0
  -25.4098  -36.3115   24.0342 C   0  0  1  0  0  0
  -20.5874  -28.3681   23.1293 C   0  0  2  0  0  0
  -20.6762  -26.9409   22.5411 C   0  0  0  0  0  0
  -19.5739  -26.6377   21.5208 C   0  0  0  0  0  0
  -18.1923  -26.7921   22.1626 C   0  0  0  0  0  0
  -19.1531  -28.8841   23.2893 C   0  0  0  0  0  0
  -18.9461  -30.1447   23.8903 C   0  0  0  0  0  0
  -17.6463  -30.6579   24.0566 C   0  0  0  0  0  0
  -25.9036  -34.9478   23.5132 C   0  0  0  0  0  0
  -16.5356  -29.9089   23.6314 C   0  0  0  0  0  0
  -16.7274  -28.6506   23.0333 C   0  0  0  0  0  0
  -26.4462  -31.6591   25.0731 C   0  0  0  0  0  0
  -25.3739  -31.3708   26.1496 C   0  0  0  0  0  0
  -27.0271  -30.3026   24.6097 C   0  0  0  0  0  0
  -27.6031  -32.4312   25.7504 C   0  0  0  0  0  0
  -27.5584  -37.1808   24.8458 C   0  0  0  0  0  0
  -21.4148  -29.3057   22.3697 N   0  0  0  0  0  0
  -26.4288  -37.3800   23.9415 N   0  0  0  0  0  0
  -24.6717  -31.0779   22.1003 N   0  0  0  0  0  0
  -23.4195  -28.8212   23.2990 O   0  0  0  0  0  0
  -28.3764  -26.6386   20.1551 O   0  0  0  0  0  0
  -26.5608  -34.8933   22.4700 O   0  0  0  0  0  0
  -23.5351  -32.1444   23.7473 O   0  0  0  0  0  0
  -29.8336  -17.9015   20.8407 C   0  0  0  0  0  0
  -31.3476  -19.3711   22.0119 C   0  0  0  0  0  0
  -30.2776  -19.2205   21.1085 C   0  0  0  0  0  0
  -30.4675  -16.7991   21.4648 C   0  0  0  0  0  0
  -31.5125  -17.0763   22.3762 C   0  0  0  0  0  0
  -32.1976  -15.9877   23.1843 C   0  0  0  0  0  0
  -29.6218  -20.4205   20.3994 C   0  0  0  0  0  0
  -29.8707  -21.8527   20.9709 C   0  0  0  0  0  0
  -29.3220  -24.3174   20.5809 C   0  0  0  0  0  0
  -28.2065  -25.2132   19.9795 C   0  0  0  0  0  0
  -31.9400  -18.3311   22.6347 N   0  0  0  0  0  0
  -30.0076  -15.4646   21.2188 N   0  0  0  0  0  0
  -29.1248  -22.8848   20.1983 N   0  3  0  0  0  0
  -31.4723  -12.4400   19.1253 H   0  0  0  0  0  0
  -30.3467  -11.3089   19.8175 H   0  0  0  0  0  0
  -29.7492  -11.7963   17.4323 H   0  0  0  0  0  0
  -29.6686  -13.5056   17.7790 H   0  0  0  0  0  0
  -27.8259  -11.3224   18.8071 H   0  0  0  0  0  0
  -27.3730  -12.6605   17.7853 H   0  0  0  0  0  0
  -27.7078  -14.2611   19.5850 H   0  0  0  0  0  0
  -28.6792  -11.9446   21.3248 H   0  0  0  0  0  0
  -28.4562  -13.5702   21.8846 H   0  0  0  0  0  0
  -25.2779   -9.5695   22.4719 H   0  0  0  0  0  0
  -24.0024   -7.4638   22.7453 H   0  0  0  0  0  0
  -21.0843   -8.8782   19.8951 H   0  0  0  0  0  0
  -22.3703  -10.9668   19.6141 H   0  0  0  0  0  0
  -21.2017   -7.6150   23.9743 H   0  0  0  0  0  0
  -21.1474   -6.0496   25.9082 H   0  0  0  0  0  0
  -22.0602   -2.7617   23.2811 H   0  0  0  0  0  0
  -22.4067  -11.9929   22.4865 H   0  0  0  0  0  0
  -21.1091  -13.1272   22.2559 H   0  0  0  0  0  0
  -24.6686  -15.8507   20.5219 H   0  0  0  0  0  0
  -26.2871  -15.6254   20.0880 H   0  0  0  0  0  0
  -26.7125  -32.5519   23.1156 H   0  0  0  0  0  0
  -25.0011  -33.9775   25.0435 H   0  0  0  0  0  0
  -22.6960  -31.3157   21.4122 H   0  0  0  0  0  0
  -23.3740  -35.9673   23.3281 H   0  0  0  0  0  0
  -24.3587  -36.8966   22.2056 H   0  0  0  0  0  0
  -23.7235  -37.6535   23.6660 H   0  0  0  0  0  0
  -26.0518  -31.5931   20.5974 H   0  0  0  0  0  0
  -26.8265  -30.8788   21.9831 H   0  0  0  0  0  0
  -28.0963  -29.0746   21.1715 H   0  0  0  0  0  0
  -25.9932  -25.9930   18.9746 H   0  0  0  0  0  0
  -23.9626  -27.3167   19.0217 H   0  0  0  0  0  0
  -23.7276  -30.6142   19.4075 H   0  0  0  0  0  0
  -22.7350  -29.2611   19.8609 H   0  0  0  0  0  0
  -25.1257  -36.1984   25.0835 H   0  0  0  0  0  0
  -20.9981  -28.3242   24.1404 H   0  0  0  0  0  0
  -20.5634  -26.2299   23.3608 H   0  0  0  0  0  0
  -21.6634  -26.7418   22.1220 H   0  0  0  0  0  0
  -19.6894  -25.6284   21.1236 H   0  0  0  0  0  0
  -19.6667  -27.3181   20.6731 H   0  0  0  0  0  0
  -17.4191  -26.6679   21.4032 H   0  0  0  0  0  0
  -18.0329  -26.0056   22.9017 H   0  0  0  0  0  0
  -19.7943  -30.7258   24.2268 H   0  0  0  0  0  0
  -17.5025  -31.6256   24.5174 H   0  0  0  0  0  0
  -15.5357  -30.2998   23.7614 H   0  0  0  0  0  0
  -15.8683  -28.0833   22.7015 H   0  0  0  0  0  0
  -24.5910  -30.7041   25.7857 H   0  0  0  0  0  0
  -24.8941  -32.2875   26.4946 H   0  0  0  0  0  0
  -25.8128  -30.8896   27.0248 H   0  0  0  0  0  0
  -26.2802  -29.6821   24.1132 H   0  0  0  0  0  0
  -27.4006  -29.7223   25.4541 H   0  0  0  0  0  0
  -27.8661  -30.4328   23.9258 H   0  0  0  0  0  0
  -27.2624  -33.3586   26.2119 H   0  0  0  0  0  0
  -28.3834  -32.6911   25.0342 H   0  0  0  0  0  0
  -28.0707  -31.8420   26.5401 H   0  0  0  0  0  0
  -28.2580  -38.0123   24.7524 H   0  0  0  0  0  0
  -28.1100  -36.2658   24.6240 H   0  0  0  0  0  0
  -27.2328  -37.1413   25.8867 H   0  0  0  0  0  0
  -20.9295  -29.8842   21.6981 H   0  0  0  0  0  0
  -26.0180  -38.2884   24.1407 H   0  0  0  0  0  0
  -29.0207  -17.7370   20.1476 H   0  0  0  0  0  0
  -31.7459  -20.3445   22.2565 H   0  0  0  0  0  0
  -31.4663  -15.3030   23.6133 H   0  0  0  0  0  0
  -32.7738  -16.4048   24.0107 H   0  0  0  0  0  0
  -32.8820  -15.4199   22.5547 H   0  0  0  0  0  0
  -28.5464  -20.2376   20.3804 H   0  0  0  0  0  0
  -29.9486  -20.3945   19.3587 H   0  0  0  0  0  0
  -30.9326  -22.0977   20.9428 H   0  0  0  0  0  0
  -29.5581  -21.9002   22.0158 H   0  0  0  0  0  0
  -29.3170  -24.4211   21.6677 H   0  0  0  0  0  0
  -30.3025  -24.6485   20.2369 H   0  0  0  0  0  0
  -27.2758  -24.8903   20.4515 H   0  0  0  0  0  0
  -28.1136  -25.0088   18.9121 H   0  0  0  0  0  0
  -29.0446  -15.2589   21.4417 H   0  0  0  0  0  0
  -28.1443  -22.6647   20.2810 H   0  0  0  0  0  0
  -29.3704  -22.7838   19.2245 H   0  0  0  0  0  0
  1 25  1  0  0  0
  1 30  2  0  0  0
  1 82  1  0  0  0
  2  3  1  0  0  0
  2 25  1  0  0  0
  2 84  1  0  0  0
  2 85  1  0  0  0
  3  4  1  0  0  0
  3 86  1  0  0  0
  3 87  1  0  0  0
  4  5  1  0  0  0
  4 88  1  0  0  0
  4 89  1  0  0  0
  5  6  1  0  0  0
  5 26  1  0  0  0
  5 90  1  0  0  0
  6 25  1  0  0  0
  6 91  1  0  0  0
  6 92  1  0  0  0
  7  8  2  0  0  0
  7 26  1  0  0  0
  7 29  1  0  0  0
  8  9  1  0  0  0
  8 22  1  0  0  0
  9 10  1  0  0  0
  9 27  2  0  0  0
 10 11  2  0  0  0
 10 15  1  0  0  0
 11 12  1  0  0  0
 11 93  1  0  0  0
 12 13  2  0  0  0
 12 94  1  0  0  0
 13 14  1  0  0  0
 13 31  1  0  0  0
 14 15  2  0  0  0
 14 95  1  0  0  0
 15 96  1  0  0  0
 16 17  2  0  0  0
 16 21  1  0  0  0
 16 31  1  0  0  0
 17 18  1  0  0  0
 17 97  1  0  0  0
 18 19  2  0  0  0
 18 98  1  0  0  0
 19 20  1  0  0  0
 19 24  1  0  0  0
 20 21  2  0  0  0
 20 99  1  0  0  0
 21 23  1  0  0  0
 22 28  1  0  0  0
 22 32  2  0  0  0
 26 27  1  0  0  0
 28100  1  0  0  0
 28101  1  0  0  0
 29102  1  0  0  0
 29103  1  0  0  0
 33 34  1  0  0  0
 33 66  1  0  0  0
 33 70  2  0  0  0
 34 36  1  0  0  0
 34 59  1  0  0  0
 34104  1  0  0  0
 35 44  2  0  0  0
 35 45  1  0  0  0
 35 68  1  0  0  0
 36 56  1  0  0  0
 36105  1  0  0  0
 37 39  1  0  0  0
 37 47  1  0  0  0
 37 66  1  0  0  0
 37106  1  0  0  0
 38 43  2  0  0  0
 38 46  1  0  0  0
 38 47  1  0  0  0
 39 64  1  0  0  0
 39 67  2  0  0  0
 40 52  1  0  0  0
 40 53  2  0  0  0
 40 58  1  0  0  0
 41107  1  0  0  0
 41108  1  0  0  0
 41109  1  0  0  0
 41 48  1  0  0  0
 42 43  1  0  0  0
 42 66  1  0  0  0
 42110  1  0  0  0
 42111  1  0  0  0
 43 44  1  0  0  0
 44112  1  0  0  0
 45 46  2  0  0  0
 45113  1  0  0  0
 46114  1  0  0  0
 47115  1  0  0  0
 47116  1  0  0  0
 48 56  1  0  0  0
 48 65  1  0  0  0
 48117  1  0  0  0
 49 50  1  0  0  0
 49 53  1  0  0  0
 49 64  1  0  0  0
 49118  1  0  0  0
 50 51  1  0  0  0
 50119  1  0  0  0
 50120  1  0  0  0
 51 52  1  0  0  0
 51121  1  0  0  0
 51122  1  0  0  0
 52123  1  0  0  0
 52124  1  0  0  0
 53 54  1  0  0  0
 54 55  2  0  0  0
 54125  1  0  0  0
 55 57  1  0  0  0
 55126  1  0  0  0
 56 69  2  0  0  0
 57 58  2  0  0  0
 57127  1  0  0  0
 58128  1  0  0  0
 59 60  1  0  0  0
 59 61  1  0  0  0
 59 62  1  0  0  0
 60129  1  0  0  0
 60130  1  0  0  0
 60131  1  0  0  0
 61132  1  0  0  0
 61133  1  0  0  0
 61134  1  0  0  0
 62135  1  0  0  0
 62136  1  0  0  0
 62137  1  0  0  0
 63 65  1  0  0  0
 63138  1  0  0  0
 63139  1  0  0  0
 63140  1  0  0  0
 64141  1  0  0  0
 65142  1  0  0  0
 68 80  1  0  0  0
 71 73  2  0  0  0
 71 74  1  0  0  0
 71143  1  0  0  0
 72 73  1  0  0  0
 72 81  2  0  0  0
 72144  1  0  0  0
 73 77  1  0  0  0
 74 75  2  0  0  0
 74 82  1  0  0  0
 75 76  1  0  0  0
 75 81  1  0  0  0
 76145  1  0  0  0
 76146  1  0  0  0
 76147  1  0  0  0
 77 78  1  0  0  0
 77148  1  0  0  0
 77149  1  0  0  0
 78 83  1  0  0  0
 78150  1  0  0  0
 78151  1  0  0  0
 79 80  1  0  0  0
 79 83  1  0  0  0
 79152  1  0  0  0
 79153  1  0  0  0
 80154  1  0  0  0
 80155  1  0  0  0
 82156  1  0  0  0
 83157  1  0  0  0
 83158  1  0  0  0
M  CHG  1  83   1
M  ISO  4   1 100  68 101  80 101  82 100
M  END
> <chiral flag>
0

> <version>
0

> <s_m_source_file>
/data/baiqing/PycharmProjects/Reinvent-master-3.2/result/LINK_invent/BTK/process_docking_weight1_custom_sum_contain_oxygen_bond_distance_aromatic_linkinvent_7_9_3/rearranged_h_0130.sdf

> <i_m_source_file_index>
17

> <r_mmod_Potential_Energy-OPLS-2005>
-380.823852539062

> <r_mmod_Stretch_Energy-OPLS-2005>
41.2288093566895

> <r_mmod_Bend_Energy-OPLS-2005>
98.9319076538086

> <r_mmod_Torsional_Energy-OPLS-2005>
224.459167480469

> <r_mmod_Improper_Torsional_Energy-OPLS-2005>
3.10760879516602

> <r_mmod_Van_der_Waal_Energy-OPLS-2005>
158.136169433594

> <r_mmod_Electrostatic_Energy-OPLS-2005>
-434.020355224609

> <r_mmod_Solvation_Energy-OPLS-2005>
-488.775482177734

> <b_mmod_Minimization_Converged-OPLS-2005>
0

> <r_mmod_RMS_Derivative-OPLS-2005>
2.34022521972656

$$$$
17
                    3D
 Structure written by MMmdl.
172181  0  0  1  0            999 V2000
  -30.7641  -14.4990   20.5887 C   0  0  0  0  0  0
  -30.4213  -12.3447   19.4175 C   0  0  0  0  0  0
  -29.4850  -12.5286   18.1987 C   0  0  0  0  0  0
  -28.0088  -12.3727   18.6207 C   0  0  0  0  0  0
  -27.6658  -13.2107   19.8781 C   0  0  2  0  0  0
  -28.7187  -12.9965   20.9890 C   0  0  0  0  0  0
  -25.2602  -13.8156   20.5686 C   0  0  0  0  0  0
  -24.1881  -13.0442   20.9191 C   0  0  0  0  0  0
  -24.6460  -11.6892   20.8720 C   0  0  0  0  0  0
  -23.9125  -10.4273   21.0408 C   0  0  0  0  0  0
  -24.3648   -9.4207   21.9224 C   0  0  0  0  0  0
  -23.6303   -8.2248   22.0804 C   0  0  0  0  0  0
  -22.4309   -8.0277   21.3550 C   0  0  0  0  0  0
  -21.9931   -9.0277   20.4693 C   0  0  0  0  0  0
  -22.7277  -10.2146   20.3090 C   0  0  0  0  0  0
  -21.6849   -6.0734   22.5278 C   0  0  0  0  0  0
  -21.4021   -6.5637   23.8226 C   0  0  0  0  0  0
  -21.3661   -5.6790   24.9166 C   0  0  0  0  0  0
  -21.6047   -4.3046   24.7205 C   0  0  0  0  0  0
  -21.8844   -3.8156   23.4322 C   0  0  0  0  0  0
  -21.9193   -4.6965   22.3390 C   0  0  0  0  0  0
  -22.7892  -13.5258   21.1790 C   0  0  0  0  0  0
  -22.1665   -4.2125   21.0965 F   0  0  0  0  0  0
  -21.5620   -3.4572   25.7737 F   0  0  0  0  0  0
  -30.0427  -13.3426   20.4402 N   0  0  0  0  0  0
  -26.3078  -12.9359   20.3443 N   0  0  0  0  0  0
  -25.9417  -11.6519   20.5816 N   0  0  0  0  0  0
  -22.0523  -12.8277   22.0333 N   0  0  0  0  0  0
  -25.4289  -15.1892   20.4018 N   0  0  0  0  0  0
  -31.8720  -14.6176   20.0431 O   0  0  0  0  0  0
  -21.6659   -6.8873   21.4243 O   0  0  0  0  0  0
  -22.3592  -14.5524   20.6540 O   0  0  0  0  0  0
  -24.6097  -31.8779   23.2138 C   0  0  0  0  0  0
  -25.8990  -32.4875   23.8477 C   0  0  1  0  0  0
  -27.2468  -27.4610   20.0938 C   0  0  0  0  0  0
  -25.5886  -33.8681   24.2437 N   0  0  0  0  0  0
  -23.3979  -30.4942   21.5564 C   0  0  2  0  0  0
  -24.8482  -28.9744   20.1132 C   0  0  0  0  0  0
  -22.7407  -29.4651   22.5040 C   0  0  0  0  0  0
  -18.0214  -28.1443   22.8476 C   0  0  0  0  0  0
  -24.1445  -36.7317   23.2650 C   0  0  0  0  0  0
  -25.9314  -30.8467   21.3670 C   0  0  0  0  0  0
  -26.0084  -29.4836   20.7177 C   0  0  0  0  0  0
  -27.2078  -28.7363   20.7022 C   0  0  0  0  0  0
  -26.0666  -26.9614   19.4874 C   0  0  0  0  0  0
  -24.8813  -27.7182   19.4869 C   0  0  0  0  0  0
  -23.6020  -29.8357   20.1657 C   0  0  0  0  0  0
  -25.4056  -36.3110   24.0363 C   0  0  1  0  0  0
  -20.5820  -28.3681   23.1358 C   0  0  2  0  0  0
  -20.6734  -26.9425   22.5454 C   0  0  0  0  0  0
  -19.5675  -26.6396   21.5292 C   0  0  0  0  0  0
  -18.1841  -26.7963   22.1684 C   0  0  0  0  0  0
  -19.1470  -28.8878   23.2913 C   0  0  0  0  0  0
  -18.9412  -30.1505   23.8881 C   0  0  0  0  0  0
  -17.6420  -30.6632   24.0554 C   0  0  0  0  0  0
  -25.9012  -34.9489   23.5195 C   0  0  0  0  0  0
  -16.5314  -29.9146   23.6338 C   0  0  0  0  0  0
  -16.7218  -28.6599   23.0303 C   0  0  0  0  0  0
  -26.4466  -31.6601   25.0768 C   0  0  0  0  0  0
  -25.3779  -31.3708   26.1537 C   0  0  0  0  0  0
  -27.0328  -30.3037   24.6173 C   0  0  0  0  0  0
  -27.6074  -32.4326   25.7499 C   0  0  0  0  0  0
  -27.5542  -37.1797   24.8482 C   0  0  0  0  0  0
  -21.4123  -29.3054   22.3808 N   0  0  0  0  0  0
  -26.4246  -37.3785   23.9453 N   0  0  0  0  0  0
  -24.6632  -31.0908   22.1037 N   0  0  0  0  0  0
  -23.4179  -28.8118   23.3003 O   0  0  0  0  0  0
  -28.4339  -26.7538   20.0920 O   0  0  0  0  0  0
  -26.5602  -34.8896   22.4773 O   0  0  0  0  0  0
  -23.5337  -32.1511   23.7653 O   0  0  0  0  0  0
  -29.8436  -17.1527   22.9628 C   0  0  0  0  0  0
  -26.6954  -20.6637   17.5212 C   0  0  0  0  0  0
  -26.3704  -19.4057   18.2932 C   0  0  0  0  0  0
  -30.8214  -17.7434   21.9785 C   0  0  0  0  0  0
  -29.6586  -15.7080   22.4780 C   0  0  0  0  0  0
  -27.4600  -20.3368   18.7958 C   0  0  0  0  0  0
  -30.5193  -16.9856   20.6720 C   0  0  1  0  0  0
  -29.4246  -17.6027   19.7421 C   0  0  0  0  0  0
  -29.9492  -21.1070   18.6662 C   0  0  0  0  0  0
  -29.4772  -22.5806   18.8385 C   0  0  0  0  0  0
  -29.6861  -24.6415   20.2708 C   0  0  0  0  0  0
  -28.3755  -25.3438   19.8417 C   0  0  0  0  0  0
  -28.9303  -19.9187   18.7663 C   0  0  1  0  0  0
  -30.1385  -15.6081   21.0821 N   0  0  0  0  0  0
  -29.2552  -19.0700   19.9400 N   0  3  0  0  0  0
  -29.6448  -23.1486   20.2049 N   0  3  0  0  0  0
  -31.4661  -12.4193   19.1025 H   0  0  0  0  0  0
  -30.3053  -11.3339   19.8230 H   0  0  0  0  0  0
  -29.7230  -11.8104   17.4120 H   0  0  0  0  0  0
  -29.6409  -13.5154   17.7584 H   0  0  0  0  0  0
  -27.8172  -11.3144   18.8046 H   0  0  0  0  0  0
  -27.3492  -12.6508   17.7978 H   0  0  0  0  0  0
  -27.7054  -14.2608   19.5825 H   0  0  0  0  0  0
  -28.7231  -11.9482   21.2969 H   0  0  0  0  0  0
  -28.4540  -13.5376   21.8899 H   0  0  0  0  0  0
  -25.2800   -9.5634   22.4797 H   0  0  0  0  0  0
  -23.9989   -7.4624   22.7557 H   0  0  0  0  0  0
  -21.0855   -8.8834   19.8984 H   0  0  0  0  0  0
  -22.3795  -10.9686   19.6174 H   0  0  0  0  0  0
  -21.2032   -7.6155   23.9680 H   0  0  0  0  0  0
  -21.1454   -6.0540   25.9051 H   0  0  0  0  0  0
  -22.0611   -2.7604   23.2860 H   0  0  0  0  0  0
  -22.4155  -11.9936   22.4691 H   0  0  0  0  0  0
  -21.1136  -13.1307   22.2538 H   0  0  0  0  0  0
  -24.6583  -15.8370   20.5116 H   0  0  0  0  0  0
  -26.2824  -15.6262   20.0842 H   0  0  0  0  0  0
  -26.7112  -32.5560   23.1312 H   0  0  0  0  0  0
  -24.9874  -33.9963   25.0453 H   0  0  0  0  0  0
  -22.6701  -31.2961   21.4286 H   0  0  0  0  0  0
  -23.3699  -35.9666   23.3326 H   0  0  0  0  0  0
  -24.3515  -36.8976   22.2079 H   0  0  0  0  0  0
  -23.7249  -37.6544   23.6650 H   0  0  0  0  0  0
  -26.0431  -31.6009   20.5850 H   0  0  0  0  0  0
  -26.8251  -30.9125   21.9743 H   0  0  0  0  0  0
  -28.1002  -29.1417   21.1612 H   0  0  0  0  0  0
  -26.0364  -26.0034   18.9874 H   0  0  0  0  0  0
  -24.0070  -27.3255   18.9909 H   0  0  0  0  0  0
  -23.6978  -30.6241   19.4175 H   0  0  0  0  0  0
  -22.7166  -29.2593   19.8753 H   0  0  0  0  0  0
  -25.1210  -36.1977   25.0860 H   0  0  0  0  0  0
  -20.9972  -28.3269   24.1433 H   0  0  0  0  0  0
  -20.5674  -26.2308   23.3649 H   0  0  0  0  0  0
  -21.6575  -26.7409   22.1175 H   0  0  0  0  0  0
  -19.6792  -25.6322   21.1261 H   0  0  0  0  0  0
  -19.6592  -27.3252   20.6875 H   0  0  0  0  0  0
  -17.4095  -26.6683   21.4113 H   0  0  0  0  0  0
  -18.0150  -26.0179   22.9148 H   0  0  0  0  0  0
  -19.7904  -30.7321   24.2241 H   0  0  0  0  0  0
  -17.4977  -31.6263   24.5250 H   0  0  0  0  0  0
  -15.5334  -30.3068   23.7686 H   0  0  0  0  0  0
  -15.8581  -28.0975   22.7023 H   0  0  0  0  0  0
  -24.5848  -30.7214   25.7867 H   0  0  0  0  0  0
  -24.9040  -32.2863   26.5066 H   0  0  0  0  0  0
  -25.8102  -30.8740   27.0241 H   0  0  0  0  0  0
  -26.2948  -29.6778   24.1168 H   0  0  0  0  0  0
  -27.4089  -29.7233   25.4625 H   0  0  0  0  0  0
  -27.8706  -30.4392   23.9342 H   0  0  0  0  0  0
  -27.2700  -33.3607   26.2112 H   0  0  0  0  0  0
  -28.3761  -32.7044   25.0256 H   0  0  0  0  0  0
  -28.0835  -31.8449   26.5362 H   0  0  0  0  0  0
  -28.2573  -38.0076   24.7417 H   0  0  0  0  0  0
  -28.1006  -36.2605   24.6334 H   0  0  0  0  0  0
  -27.2222  -37.1457   25.8878 H   0  0  0  0  0  0
  -20.9348  -29.8813   21.7018 H   0  0  0  0  0  0
  -26.0121  -38.2862   24.1474 H   0  0  0  0  0  0
  -28.8958  -17.6879   22.8928 H   0  0  0  0  0  0
  -30.1676  -17.2321   24.0031 H   0  0  0  0  0  0
  -25.9477  -21.4572   17.5445 H   0  0  0  0  0  0
  -27.1992  -20.5203   16.5637 H   0  0  0  0  0  0
  -26.6593  -18.4525   17.8469 H   0  0  0  0  0  0
  -25.4265  -19.3934   18.8330 H   0  0  0  0  0  0
  -31.8316  -17.4980   22.3117 H   0  0  0  0  0  0
  -30.7889  -18.8306   21.9123 H   0  0  0  0  0  0
  -30.2117  -15.0213   23.1220 H   0  0  0  0  0  0
  -28.5973  -15.4799   22.5514 H   0  0  0  0  0  0
  -27.1953  -20.9206   19.6816 H   0  0  0  0  0  0
  -31.4524  -17.0109   20.1029 H   0  0  0  0  0  0
  -28.4574  -17.1090   19.8620 H   0  0  0  0  0  0
  -29.7276  -17.4095   18.7147 H   0  0  0  0  0  0
  -30.8328  -20.9321   19.2862 H   0  0  0  0  0  0
  -30.3467  -21.0575   17.6488 H   0  0  0  0  0  0
  -28.4623  -22.7436   18.4869 H   0  0  0  0  0  0
  -30.1214  -23.1748   18.1875 H   0  0  0  0  0  0
  -29.8994  -24.9128   21.3062 H   0  0  0  0  0  0
  -30.5312  -24.9998   19.6856 H   0  0  0  0  0  0
  -28.1861  -25.1696   18.7794 H   0  0  0  0  0  0
  -27.5576  -24.9017   20.4114 H   0  0  0  0  0  0
  -29.0801  -19.3332   17.8555 H   0  0  0  0  0  0
  -30.1004  -19.4275   20.3626 H   0  0  0  0  0  0
  -28.5061  -19.1835   20.6052 H   0  0  0  0  0  0
  -30.5307  -22.8331   20.5707 H   0  0  0  0  0  0
  -28.9278  -22.8136   20.8311 H   0  0  0  0  0  0
  1 25  1  0  0  0
  1 30  2  0  0  0
  1 84  1  0  0  0
  2  3  1  0  0  0
  2 25  1  0  0  0
  2 87  1  0  0  0
  2 88  1  0  0  0
  3  4  1  0  0  0
  3 89  1  0  0  0
  3 90  1  0  0  0
  4  5  1  0  0  0
  4 91  1  0  0  0
  4 92  1  0  0  0
  5  6  1  0  0  0
  5 26  1  0  0  0
  5 93  1  0  0  0
  6 25  1  0  0  0
  6 94  1  0  0  0
  6 95  1  0  0  0
  7  8  2  0  0  0
  7 26  1  0  0  0
  7 29  1  0  0  0
  8  9  1  0  0  0
  8 22  1  0  0  0
  9 10  1  0  0  0
  9 27  2  0  0  0
 10 11  2  0  0  0
 10 15  1  0  0  0
 11 12  1  0  0  0
 11 96  1  0  0  0
 12 13  2  0  0  0
 12 97  1  0  0  0
 13 14  1  0  0  0
 13 31  1  0  0  0
 14 15  2  0  0  0
 14 98  1  0  0  0
 15 99  1  0  0  0
 16 17  2  0  0  0
 16 21  1  0  0  0
 16 31  1  0  0  0
 17 18  1  0  0  0
 17100  1  0  0  0
 18 19  2  0  0  0
 18101  1  0  0  0
 19 20  1  0  0  0
 19 24  1  0  0  0
 20 21  2  0  0  0
 20102  1  0  0  0
 21 23  1  0  0  0
 22 28  1  0  0  0
 22 32  2  0  0  0
 26 27  1  0  0  0
 28103  1  0  0  0
 28104  1  0  0  0
 29105  1  0  0  0
 29106  1  0  0  0
 33 34  1  0  0  0
 33 66  1  0  0  0
 33 70  2  0  0  0
 34 36  1  0  0  0
 34 59  1  0  0  0
 34107  1  0  0  0
 35 44  2  0  0  0
 35 45  1  0  0  0
 35 68  1  0  0  0
 36 56  1  0  0  0
 36108  1  0  0  0
 37 39  1  0  0  0
 37 47  1  0  0  0
 37 66  1  0  0  0
 37109  1  0  0  0
 38 43  2  0  0  0
 38 46  1  0  0  0
 38 47  1  0  0  0
 39 64  1  0  0  0
 39 67  2  0  0  0
 40 52  1  0  0  0
 40 53  2  0  0  0
 40 58  1  0  0  0
 41110  1  0  0  0
 41111  1  0  0  0
 41112  1  0  0  0
 41 48  1  0  0  0
 42 43  1  0  0  0
 42 66  1  0  0  0
 42113  1  0  0  0
 42114  1  0  0  0
 43 44  1  0  0  0
 44115  1  0  0  0
 45 46  2  0  0  0
 45116  1  0  0  0
 46117  1  0  0  0
 47118  1  0  0  0
 47119  1  0  0  0
 48 56  1  0  0  0
 48 65  1  0  0  0
 48120  1  0  0  0
 49 50  1  0  0  0
 49 53  1  0  0  0
 49 64  1  0  0  0
 49121  1  0  0  0
 50 51  1  0  0  0
 50122  1  0  0  0
 50123  1  0  0  0
 51 52  1  0  0  0
 51124  1  0  0  0
 51125  1  0  0  0
 52126  1  0  0  0
 52127  1  0  0  0
 53 54  1  0  0  0
 54 55  2  0  0  0
 54128  1  0  0  0
 55 57  1  0  0  0
 55129  1  0  0  0
 56 69  2  0  0  0
 57 58  2  0  0  0
 57130  1  0  0  0
 58131  1  0  0  0
 59 60  1  0  0  0
 59 61  1  0  0  0
 59 62  1  0  0  0
 60132  1  0  0  0
 60133  1  0  0  0
 60134  1  0  0  0
 61135  1  0  0  0
 61136  1  0  0  0
 61137  1  0  0  0
 62138  1  0  0  0
 62139  1  0  0  0
 62140  1  0  0  0
 63 65  1  0  0  0
 63141  1  0  0  0
 63142  1  0  0  0
 63143  1  0  0  0
 64144  1  0  0  0
 65145  1  0  0  0
 68 82  1  0  0  0
 71 74  1  0  0  0
 71 75  1  0  0  0
 71146  1  0  0  0
 71147  1  0  0  0
 72 73  1  0  0  0
 72148  1  0  0  0
 72149  1  0  0  0
 72 76  1  0  0  0
 73 76  1  0  0  0
 73150  1  0  0  0
 73151  1  0  0  0
 74 77  1  0  0  0
 74152  1  0  0  0
 74153  1  0  0  0
 75 84  1  0  0  0
 75154  1  0  0  0
 75155  1  0  0  0
 76 83  1  0  0  0
 76156  1  0  0  0
 77 78  1  0  0  0
 77 84  1  0  0  0
 77157  1  0  0  0
 78 85  1  0  0  0
 78158  1  0  0  0
 78159  1  0  0  0
 79 80  1  0  0  0
 79160  1  0  0  0
 79161  1  0  0  0
 79 83  1  0  0  0
 80 86  1  0  0  0
 80162  1  0  0  0
 80163  1  0  0  0
 81 82  1  0  0  0
 81 86  1  0  0  0
 81164  1  0  0  0
 81165  1  0  0  0
 82166  1  0  0  0
 82167  1  0  0  0
 83 85  1  0  0  0
 83168  1  0  0  0
 85169  1  0  0  0
 85170  1  0  0  0
 86171  1  0  0  0
 86172  1  0  0  0
M  CHG  2  85   1  86   1
M  ISO  4   1 100  68 101  82 101  84 100
M  END
> <chiral flag>
0

> <version>
0

> <s_m_source_file>
/data/baiqing/PycharmProjects/Reinvent-master-3.2/result/LINK_invent/BTK/process_docking_weight1_custom_sum_contain_oxygen_bond_distance_aromatic_linkinvent_7_9_3/rearranged_h_0130.sdf

> <i_m_source_file_index>
18

> <r_mmod_Potential_Energy-OPLS-2005>
30.3086223602295

> <r_mmod_Stretch_Energy-OPLS-2005>
47.6307716369629

> <r_mmod_Bend_Energy-OPLS-2005>
151.743270874023

> <r_mmod_Torsional_Energy-OPLS-2005>
436.563629150391

> <r_mmod_Improper_Torsional_Energy-OPLS-2005>
9.84967517852783

> <r_mmod_Van_der_Waal_Energy-OPLS-2005>
133.787322998047

> <r_mmod_Electrostatic_Energy-OPLS-2005>
216.470657348633

> <r_mmod_Solvation_Energy-OPLS-2005>
-979.869506835938

> <b_mmod_Minimization_Converged-OPLS-2005>
0

> <r_mmod_RMS_Derivative-OPLS-2005>
10.238076210022

$$$$
18
                    3D
 Structure written by MMmdl.
165173  0  0  1  0            999 V2000
  -30.5201  -14.9582   20.4215 C   0  0  0  0  0  0
  -30.4451  -12.5981   19.4820 C   0  0  0  0  0  0
  -29.5190  -12.5241   18.2457 C   0  0  0  0  0  0
  -28.0527  -12.3079   18.6698 C   0  0  0  0  0  0
  -27.6275  -13.2432   19.8318 C   0  0  2  0  0  0
  -28.6735  -13.2708   20.9644 C   0  0  0  0  0  0
  -25.2460  -13.8201   20.5703 C   0  0  0  0  0  0
  -24.1780  -13.0431   20.9237 C   0  0  0  0  0  0
  -24.6393  -11.6916   20.8761 C   0  0  0  0  0  0
  -23.9078  -10.4288   21.0418 C   0  0  0  0  0  0
  -24.3629   -9.4203   21.9194 C   0  0  0  0  0  0
  -23.6299   -8.2242   22.0760 C   0  0  0  0  0  0
  -22.4281   -8.0283   21.3548 C   0  0  0  0  0  0
  -21.9922   -9.0259   20.4650 C   0  0  0  0  0  0
  -22.7254  -10.2135   20.3062 C   0  0  0  0  0  0
  -21.6854   -6.0740   22.5284 C   0  0  0  0  0  0
  -21.4014   -6.5644   23.8217 C   0  0  0  0  0  0
  -21.3657   -5.6795   24.9178 C   0  0  0  0  0  0
  -21.6043   -4.3057   24.7228 C   0  0  0  0  0  0
  -21.8816   -3.8150   23.4349 C   0  0  0  0  0  0
  -21.9192   -4.6967   22.3405 C   0  0  0  0  0  0
  -22.7800  -13.5205   21.1890 C   0  0  0  0  0  0
  -22.1660   -4.2153   21.0981 F   0  0  0  0  0  0
  -21.5627   -3.4538   25.7741 F   0  0  0  0  0  0
  -29.9408  -13.6930   20.3557 N   0  0  0  0  0  0
  -26.2878  -12.9424   20.3220 N   0  0  0  0  0  0
  -25.9322  -11.6560   20.5736 N   0  0  0  0  0  0
  -22.0449  -12.8191   22.0441 N   0  0  0  0  0  0
  -25.4094  -15.1932   20.4107 N   0  0  0  0  0  0
  -31.7363  -15.0382   20.2220 O   0  0  0  0  0  0
  -21.6639   -6.8883   21.4245 O   0  0  0  0  0  0
  -22.3493  -14.5515   20.6737 O   0  0  0  0  0  0
  -24.6437  -31.8434   23.1857 C   0  0  0  0  0  0
  -25.9202  -32.4694   23.8255 C   0  0  1  0  0  0
  -27.2180  -27.1232   20.1673 C   0  0  0  0  0  0
  -25.5946  -33.8500   24.2177 N   0  0  0  0  0  0
  -23.4474  -30.4595   21.5338 C   0  0  2  0  0  0
  -24.8950  -28.8728   20.1230 C   0  0  0  0  0  0
  -22.7561  -29.4541   22.4886 C   0  0  0  0  0  0
  -18.0302  -28.1391   22.8482 C   0  0  0  0  0  0
  -24.1488  -36.7257   23.2642 C   0  0  0  0  0  0
  -26.0020  -30.7142   21.3824 C   0  0  0  0  0  0
  -26.0737  -29.3197   20.7341 C   0  0  0  0  0  0
  -27.2392  -28.4642   20.7290 C   0  0  0  0  0  0
  -26.0095  -26.7673   19.5381 C   0  0  0  0  0  0
  -24.8750  -27.6097   19.5097 C   0  0  0  0  0  0
  -23.6740  -29.7797   20.1572 C   0  0  0  0  0  0
  -25.4124  -36.3036   24.0312 C   0  0  1  0  0  0
  -20.5912  -28.3719   23.1245 C   0  0  2  0  0  0
  -20.6793  -26.9427   22.5404 C   0  0  0  0  0  0
  -19.5768  -26.6384   21.5210 C   0  0  0  0  0  0
  -18.1945  -26.7934   22.1617 C   0  0  0  0  0  0
  -19.1558  -28.8873   23.2855 C   0  0  0  0  0  0
  -18.9478  -30.1468   23.8882 C   0  0  0  0  0  0
  -17.6478  -30.6595   24.0555 C   0  0  0  0  0  0
  -25.9074  -34.9410   23.5057 C   0  0  0  0  0  0
  -16.5367  -29.9088   23.6336 C   0  0  0  0  0  0
  -16.7286  -28.6500   23.0364 C   0  0  0  0  0  0
  -26.4523  -31.6564   25.0698 C   0  0  0  0  0  0
  -25.3697  -31.3750   26.1386 C   0  0  0  0  0  0
  -27.0395  -30.2968   24.6267 C   0  0  0  0  0  0
  -27.6054  -32.4331   25.7485 C   0  0  0  0  0  0
  -27.5577  -37.1785   24.8465 C   0  0  0  0  0  0
  -21.4255  -29.3048   22.3625 N   0  0  0  0  0  0
  -26.4289  -37.3749   23.9407 N   0  0  0  0  0  0
  -24.7181  -31.0277   22.0897 N   0  0  0  0  0  0
  -23.4201  -28.8103   23.3051 O   0  0  0  0  0  0
  -28.3106  -26.1859   20.1128 O   0  0  0  0  0  0
  -26.5669  -34.8909   22.4639 O   0  0  0  0  0  0
  -23.5553  -32.1316   23.7072 O   0  0  0  0  0  0
  -28.7087  -22.8104   17.6152 C   0  0  0  0  0  0
  -29.2232  -21.5708   18.3356 C   0  0  0  0  0  0
  -27.6399  -23.4371   18.5178 C   0  0  2  0  0  0
  -28.1074  -23.1890   19.9749 C   0  0  1  0  0  0
  -29.1751  -21.8526   19.8510 C   0  0  1  0  0  0
  -25.6442  -23.6079   16.9191 C   0  0  0  0  0  0
  -25.9216  -21.4891   18.2659 C   0  0  0  0  0  0
  -28.3285  -24.7248   20.6732 C   0  0  0  0  0  0
  -29.9033  -17.6600   20.8516 C   0  0  0  0  0  0
  -29.2753  -18.9932   20.0120 C   0  0  0  0  0  0
  -26.1725  -23.0065   18.2325 C   0  0  0  0  0  0
  -29.7000  -16.1200   20.5097 N   0  0  0  0  0  0
  -29.0951  -20.4594   20.6334 N   0  3  0  0  0  0
  -31.4739  -12.7756   19.1645 H   0  0  0  0  0  0
  -30.4554  -11.6484   20.0194 H   0  0  0  0  0  0
  -29.8387  -11.7217   17.5794 H   0  0  0  0  0  0
  -29.6006  -13.4485   17.6722 H   0  0  0  0  0  0
  -27.9530  -11.2676   18.9821 H   0  0  0  0  0  0
  -27.3866  -12.4337   17.8155 H   0  0  0  0  0  0
  -27.5883  -14.2435   19.4002 H   0  0  0  0  0  0
  -28.7693  -12.2931   21.4389 H   0  0  0  0  0  0
  -28.3737  -13.9683   21.7486 H   0  0  0  0  0  0
  -25.2774   -9.5676   22.4771 H   0  0  0  0  0  0
  -24.0003   -7.4633   22.7481 H   0  0  0  0  0  0
  -21.0853   -8.8785   19.8957 H   0  0  0  0  0  0
  -22.3718  -10.9678   19.6174 H   0  0  0  0  0  0
  -21.2007   -7.6151   23.9722 H   0  0  0  0  0  0
  -21.1479   -6.0524   25.9081 H   0  0  0  0  0  0
  -22.0595   -2.7613   23.2849 H   0  0  0  0  0  0
  -22.4062  -11.9840   22.4811 H   0  0  0  0  0  0
  -21.1070  -13.1216   22.2656 H   0  0  0  0  0  0
  -24.6309  -15.8347   20.5162 H   0  0  0  0  0  0
  -26.2359  -15.6374   20.0349 H   0  0  0  0  0  0
  -26.7265  -32.5302   23.0984 H   0  0  0  0  0  0
  -25.0060  -33.9611   25.0301 H   0  0  0  0  0  0
  -22.7500  -31.2849   21.3757 H   0  0  0  0  0  0
  -23.3759  -35.9579   23.3292 H   0  0  0  0  0  0
  -24.3565  -36.8906   22.2059 H   0  0  0  0  0  0
  -23.7236  -37.6443   23.6691 H   0  0  0  0  0  0
  -26.1503  -31.4630   20.6032 H   0  0  0  0  0  0
  -26.8746  -30.7736   22.0213 H   0  0  0  0  0  0
  -28.1486  -28.8131   21.1970 H   0  0  0  0  0  0
  -25.9308  -25.8015   19.0647 H   0  0  0  0  0  0
  -23.9736  -27.2611   19.0243 H   0  0  0  0  0  0
  -23.8142  -30.5490   19.3968 H   0  0  0  0  0  0
  -22.7874  -29.2226   19.8492 H   0  0  0  0  0  0
  -25.1313  -36.1864   25.0805 H   0  0  0  0  0  0
  -20.9994  -28.3310   24.1369 H   0  0  0  0  0  0
  -20.5688  -26.2334   23.3622 H   0  0  0  0  0  0
  -21.6661  -26.7442   22.1204 H   0  0  0  0  0  0
  -19.6929  -25.6288   21.1260 H   0  0  0  0  0  0
  -19.6705  -27.3177   20.6728 H   0  0  0  0  0  0
  -17.4219  -26.6683   21.4014 H   0  0  0  0  0  0
  -18.0337  -26.0070   22.9007 H   0  0  0  0  0  0
  -19.7955  -30.7282   24.2248 H   0  0  0  0  0  0
  -17.5036  -31.6272   24.5161 H   0  0  0  0  0  0
  -15.5367  -30.2988   23.7671 H   0  0  0  0  0  0
  -15.8684  -28.0809   22.7103 H   0  0  0  0  0  0
  -24.5907  -30.7064   25.7703 H   0  0  0  0  0  0
  -24.8840  -32.2926   26.4721 H   0  0  0  0  0  0
  -25.7976  -30.8994   27.0218 H   0  0  0  0  0  0
  -26.3011  -29.6687   24.1275 H   0  0  0  0  0  0
  -27.4023  -29.7274   25.4833 H   0  0  0  0  0  0
  -27.8908  -30.4220   23.9573 H   0  0  0  0  0  0
  -27.2660  -33.3668   26.1986 H   0  0  0  0  0  0
  -28.3910  -32.6832   25.0341 H   0  0  0  0  0  0
  -28.0670  -31.8499   26.5464 H   0  0  0  0  0  0
  -28.2590  -38.0087   24.7520 H   0  0  0  0  0  0
  -28.1082  -36.2618   24.6291 H   0  0  0  0  0  0
  -27.2288  -37.1431   25.8864 H   0  0  0  0  0  0
  -20.9470  -29.8755   21.6796 H   0  0  0  0  0  0
  -26.0158  -38.2814   24.1414 H   0  0  0  0  0  0
  -28.3466  -22.5849   16.6121 H   0  0  0  0  0  0
  -29.5328  -23.5163   17.4992 H   0  0  0  0  0  0
  -30.2246  -21.2991   17.9996 H   0  0  0  0  0  0
  -28.5709  -20.7389   18.0778 H   0  0  0  0  0  0
  -27.6773  -24.5071   18.3146 H   0  0  0  0  0  0
  -27.2564  -22.7874   20.5254 H   0  0  0  0  0  0
  -30.1552  -22.2541   20.1127 H   0  0  0  0  0  0
  -25.7580  -24.6920   16.9014 H   0  0  0  0  0  0
  -24.5826  -23.3950   16.7906 H   0  0  0  0  0  0
  -26.1648  -23.2067   16.0495 H   0  0  0  0  0  0
  -26.2768  -21.0355   19.1906 H   0  0  0  0  0  0
  -26.4048  -20.9831   17.4300 H   0  0  0  0  0  0
  -24.8550  -21.2717   18.1939 H   0  0  0  0  0  0
  -29.2975  -24.6608   21.1681 H   0  0  0  0  0  0
  -27.6301  -24.7618   21.5101 H   0  0  0  0  0  0
  -29.5264  -17.7478   21.8708 H   0  0  0  0  0  0
  -30.9788  -17.8150   20.9481 H   0  0  0  0  0  0
  -28.2934  -18.7129   19.6307 H   0  0  0  0  0  0
  -29.9005  -19.0931   19.1255 H   0  0  0  0  0  0
  -25.5596  -23.4390   19.0256 H   0  0  0  0  0  0
  -28.7242  -15.8650   20.5072 H   0  0  0  0  0  0
  -28.2214  -20.4482   21.1332 H   0  0  0  0  0  0
  -29.7991  -20.5363   21.3497 H   0  0  0  0  0  0
  1 25  1  0  0  0
  1 30  2  0  0  0
  1 82  1  0  0  0
  2  3  1  0  0  0
  2 25  1  0  0  0
  2 84  1  0  0  0
  2 85  1  0  0  0
  3  4  1  0  0  0
  3 86  1  0  0  0
  3 87  1  0  0  0
  4  5  1  0  0  0
  4 88  1  0  0  0
  4 89  1  0  0  0
  5  6  1  0  0  0
  5 26  1  0  0  0
  5 90  1  0  0  0
  6 25  1  0  0  0
  6 91  1  0  0  0
  6 92  1  0  0  0
  7  8  2  0  0  0
  7 26  1  0  0  0
  7 29  1  0  0  0
  8  9  1  0  0  0
  8 22  1  0  0  0
  9 10  1  0  0  0
  9 27  2  0  0  0
 10 11  2  0  0  0
 10 15  1  0  0  0
 11 12  1  0  0  0
 11 93  1  0  0  0
 12 13  2  0  0  0
 12 94  1  0  0  0
 13 14  1  0  0  0
 13 31  1  0  0  0
 14 15  2  0  0  0
 14 95  1  0  0  0
 15 96  1  0  0  0
 16 17  2  0  0  0
 16 21  1  0  0  0
 16 31  1  0  0  0
 17 18  1  0  0  0
 17 97  1  0  0  0
 18 19  2  0  0  0
 18 98  1  0  0  0
 19 20  1  0  0  0
 19 24  1  0  0  0
 20 21  2  0  0  0
 20 99  1  0  0  0
 21 23  1  0  0  0
 22 28  1  0  0  0
 22 32  2  0  0  0
 26 27  1  0  0  0
 28100  1  0  0  0
 28101  1  0  0  0
 29102  1  0  0  0
 29103  1  0  0  0
 33 34  1  0  0  0
 33 66  1  0  0  0
 33 70  2  0  0  0
 34 36  1  0  0  0
 34 59  1  0  0  0
 34104  1  0  0  0
 35 44  2  0  0  0
 35 45  1  0  0  0
 35 68  1  0  0  0
 36 56  1  0  0  0
 36105  1  0  0  0
 37 39  1  0  0  0
 37 47  1  0  0  0
 37 66  1  0  0  0
 37106  1  0  0  0
 38 43  2  0  0  0
 38 46  1  0  0  0
 38 47  1  0  0  0
 39 64  1  0  0  0
 39 67  2  0  0  0
 40 52  1  0  0  0
 40 53  2  0  0  0
 40 58  1  0  0  0
 41107  1  0  0  0
 41108  1  0  0  0
 41109  1  0  0  0
 41 48  1  0  0  0
 42 43  1  0  0  0
 42 66  1  0  0  0
 42110  1  0  0  0
 42111  1  0  0  0
 43 44  1  0  0  0
 44112  1  0  0  0
 45 46  2  0  0  0
 45113  1  0  0  0
 46114  1  0  0  0
 47115  1  0  0  0
 47116  1  0  0  0
 48 56  1  0  0  0
 48 65  1  0  0  0
 48117  1  0  0  0
 49 50  1  0  0  0
 49 53  1  0  0  0
 49 64  1  0  0  0
 49118  1  0  0  0
 50 51  1  0  0  0
 50119  1  0  0  0
 50120  1  0  0  0
 51 52  1  0  0  0
 51121  1  0  0  0
 51122  1  0  0  0
 52123  1  0  0  0
 52124  1  0  0  0
 53 54  1  0  0  0
 54 55  2  0  0  0
 54125  1  0  0  0
 55 57  1  0  0  0
 55126  1  0  0  0
 56 69  2  0  0  0
 57 58  2  0  0  0
 57127  1  0  0  0
 58128  1  0  0  0
 59 60  1  0  0  0
 59 61  1  0  0  0
 59 62  1  0  0  0
 60129  1  0  0  0
 60130  1  0  0  0
 60131  1  0  0  0
 61132  1  0  0  0
 61133  1  0  0  0
 61134  1  0  0  0
 62135  1  0  0  0
 62136  1  0  0  0
 62137  1  0  0  0
 63 65  1  0  0  0
 63138  1  0  0  0
 63139  1  0  0  0
 63140  1  0  0  0
 64141  1  0  0  0
 65142  1  0  0  0
 68 78  1  0  0  0
 71 72  1  0  0  0
 71143  1  0  0  0
 71144  1  0  0  0
 71 73  1  0  0  0
 72 75  1  0  0  0
 72145  1  0  0  0
 72146  1  0  0  0
 73 74  1  0  0  0
 73 81  1  0  0  0
 73147  1  0  0  0
 74 75  1  0  0  0
 74 78  1  0  0  0
 74148  1  0  0  0
 75 83  1  0  0  0
 75149  1  0  0  0
 76150  1  0  0  0
 76151  1  0  0  0
 76152  1  0  0  0
 76 81  1  0  0  0
 77 81  1  0  0  0
 77153  1  0  0  0
 77154  1  0  0  0
 77155  1  0  0  0
 78156  1  0  0  0
 78157  1  0  0  0
 79 80  1  0  0  0
 79 82  1  0  0  0
 79158  1  0  0  0
 79159  1  0  0  0
 80 83  1  0  0  0
 80160  1  0  0  0
 80161  1  0  0  0
 81162  1  0  0  0
 82163  1  0  0  0
 83164  1  0  0  0
 83165  1  0  0  0
M  CHG  1  83   1
M  ISO  4   1 100  68 101  78 101  82 100
M  END
> <chiral flag>
0

> <version>
0

> <s_m_source_file>
/data/baiqing/PycharmProjects/Reinvent-master-3.2/result/LINK_invent/BTK/process_docking_weight1_custom_sum_contain_oxygen_bond_distance_aromatic_linkinvent_7_9_3/rearranged_h_0130.sdf

> <i_m_source_file_index>
19

> <r_mmod_Potential_Energy-OPLS-2005>
529.971557617188

> <r_mmod_Stretch_Energy-OPLS-2005>
294.7900390625

> <r_mmod_Bend_Energy-OPLS-2005>
357.568695068359

> <r_mmod_Torsional_Energy-OPLS-2005>
347.245971679688

> <r_mmod_Improper_Torsional_Energy-OPLS-2005>
4.80999898910522

> <r_mmod_Van_der_Waal_Energy-OPLS-2005>
106.320030212402

> <r_mmod_Electrostatic_Energy-OPLS-2005>
-289.45361328125

> <r_mmod_Solvation_Energy-OPLS-2005>
-486.368041992188

> <b_mmod_Minimization_Converged-OPLS-2005>
0

> <r_mmod_RMS_Derivative-OPLS-2005>
0.769479751586914

$$$$
19
                    3D
 Structure written by MMmdl.
164172  0  0  1  0            999 V2000
  -30.7328  -14.4066   20.5865 C   0  0  0  0  0  0
  -30.4241  -12.2682   19.4155 C   0  0  0  0  0  0
  -29.5078  -12.5209   18.1991 C   0  0  0  0  0  0
  -28.0151  -12.4363   18.5850 C   0  0  0  0  0  0
  -27.6717  -13.2144   19.8846 C   0  0  2  0  0  0
  -28.7149  -12.9422   20.9947 C   0  0  0  0  0  0
  -25.2611  -13.8212   20.5687 C   0  0  0  0  0  0
  -24.1872  -13.0474   20.9169 C   0  0  0  0  0  0
  -24.6414  -11.6936   20.8710 C   0  0  0  0  0  0
  -23.9069  -10.4322   21.0360 C   0  0  0  0  0  0
  -24.3638   -9.4228   21.9142 C   0  0  0  0  0  0
  -23.6321   -8.2253   22.0723 C   0  0  0  0  0  0
  -22.4284   -8.0300   21.3518 C   0  0  0  0  0  0
  -21.9923   -9.0260   20.4607 C   0  0  0  0  0  0
  -22.7237  -10.2139   20.2997 C   0  0  0  0  0  0
  -21.6871   -6.0738   22.5265 C   0  0  0  0  0  0
  -21.4024   -6.5641   23.8212 C   0  0  0  0  0  0
  -21.3671   -5.6783   24.9167 C   0  0  0  0  0  0
  -21.6040   -4.3057   24.7211 C   0  0  0  0  0  0
  -21.8827   -3.8137   23.4331 C   0  0  0  0  0  0
  -21.9217   -4.6968   22.3399 C   0  0  0  0  0  0
  -22.7874  -13.5225   21.1846 C   0  0  0  0  0  0
  -22.1661   -4.2143   21.0961 F   0  0  0  0  0  0
  -21.5651   -3.4538   25.7725 F   0  0  0  0  0  0
  -30.0559  -13.2351   20.4563 N   0  0  0  0  0  0
  -26.3072  -12.9397   20.3375 N   0  0  0  0  0  0
  -25.9353  -11.6539   20.5731 N   0  0  0  0  0  0
  -22.0500  -12.8200   22.0376 N   0  0  0  0  0  0
  -25.4369  -15.1953   20.4151 N   0  0  0  0  0  0
  -31.8186  -14.6347   20.0485 O   0  0  0  0  0  0
  -21.6668   -6.8885   21.4224 O   0  0  0  0  0  0
  -22.3545  -14.5532   20.6696 O   0  0  0  0  0  0
  -24.6169  -31.8680   23.2037 C   0  0  0  0  0  0
  -25.9048  -32.4831   23.8316 C   0  0  1  0  0  0
  -27.2444  -27.4692   20.0784 C   0  0  0  0  0  0
  -25.5925  -33.8629   24.2287 N   0  0  0  0  0  0
  -23.3972  -30.4921   21.5450 C   0  0  2  0  0  0
  -24.8388  -28.9460   20.1169 C   0  0  0  0  0  0
  -22.7411  -29.4682   22.4960 C   0  0  0  0  0  0
  -18.0264  -28.1437   22.8467 C   0  0  0  0  0  0
  -24.1496  -36.7339   23.2633 C   0  0  0  0  0  0
  -25.9173  -30.8418   21.3394 C   0  0  0  0  0  0
  -25.9953  -29.4713   20.7086 C   0  0  0  0  0  0
  -27.1955  -28.7378   20.6902 C   0  0  0  0  0  0
  -26.0723  -26.9459   19.4839 C   0  0  0  0  0  0
  -24.8700  -27.6796   19.5063 C   0  0  0  0  0  0
  -23.6030  -29.8142   20.1626 C   0  0  0  0  0  0
  -25.4107  -36.3108   24.0325 C   0  0  1  0  0  0
  -20.5865  -28.3709   23.1325 C   0  0  2  0  0  0
  -20.6794  -26.9458   22.5414 C   0  0  0  0  0  0
  -19.5749  -26.6439   21.5230 C   0  0  0  0  0  0
  -18.1919  -26.7982   22.1624 C   0  0  0  0  0  0
  -19.1521  -28.8876   23.2915 C   0  0  0  0  0  0
  -18.9462  -30.1488   23.8912 C   0  0  0  0  0  0
  -17.6471  -30.6636   24.0592 C   0  0  0  0  0  0
  -25.9040  -34.9487   23.5111 C   0  0  0  0  0  0
  -16.5350  -29.9153   23.6333 C   0  0  0  0  0  0
  -16.7270  -28.6590   23.0305 C   0  0  0  0  0  0
  -26.4460  -31.6591   25.0629 C   0  0  0  0  0  0
  -25.3781  -31.3702   26.1429 C   0  0  0  0  0  0
  -27.0255  -30.3043   24.5935 C   0  0  0  0  0  0
  -27.6043  -32.4305   25.7446 C   0  0  0  0  0  0
  -27.5582  -37.1825   24.8466 C   0  0  0  0  0  0
  -21.4135  -29.3083   22.3723 N   0  0  0  0  0  0
  -26.4280  -37.3804   23.9422 N   0  0  0  0  0  0
  -24.6639  -31.0806   22.0917 N   0  0  0  0  0  0
  -23.4194  -28.8230   23.2996 O   0  0  0  0  0  0
  -28.4499  -26.8064   20.0391 O   0  0  0  0  0  0
  -26.5592  -34.8937   22.4678 O   0  0  0  0  0  0
  -23.5360  -32.1405   23.7468 O   0  0  0  0  0  0
  -30.3516  -21.3638   22.8313 C   0  0  0  0  0  0
  -30.3929  -19.9606   22.7278 C   0  0  0  0  0  0
  -28.4054  -19.8051   24.1200 C   0  0  0  0  0  0
  -29.2986  -22.0063   23.5217 C   0  0  0  0  0  0
  -28.3517  -21.2128   24.2231 C   0  0  0  0  0  0
  -29.3669  -19.1794   23.2988 C   0  0  0  0  0  0
  -27.2286  -21.8354   25.0355 C   0  0  0  0  0  0
  -29.1675  -23.5258   23.4153 C   0  0  0  0  0  0
  -29.0877  -17.6046   21.5294 C   0  0  0  0  0  0
  -30.2501  -16.7978   20.9376 C   0  0  0  0  0  0
  -28.1440  -25.2763   21.9228 C   0  0  0  0  0  0
  -28.4692  -25.4296   20.4189 C   0  0  0  0  0  0
  -29.2330  -17.8228   22.9714 N   0  0  0  0  0  0
  -30.0563  -15.3761   21.2077 N   0  0  0  0  0  0
  -28.1904  -23.8593   22.3512 N   0  3  0  0  0  0
  -31.4737  -12.3513   19.1318 H   0  0  0  0  0  0
  -30.2943  -11.2507   19.7904 H   0  0  0  0  0  0
  -29.7340  -11.8015   17.4105 H   0  0  0  0  0  0
  -29.7234  -13.5065   17.7795 H   0  0  0  0  0  0
  -27.7519  -11.3861   18.6895 H   0  0  0  0  0  0
  -27.4087  -12.8192   17.7615 H   0  0  0  0  0  0
  -27.7264  -14.2729   19.6401 H   0  0  0  0  0  0
  -28.6707  -11.8951   21.2933 H   0  0  0  0  0  0
  -28.4901  -13.5132   21.8957 H   0  0  0  0  0  0
  -25.2795   -9.5753   22.4698 H   0  0  0  0  0  0
  -24.0073   -7.4668   22.7437 H   0  0  0  0  0  0
  -21.0855   -8.8733   19.8919 H   0  0  0  0  0  0
  -22.3664  -10.9670   19.6103 H   0  0  0  0  0  0
  -21.1963   -7.6139   23.9701 H   0  0  0  0  0  0
  -21.1511   -6.0512   25.9081 H   0  0  0  0  0  0
  -22.0594   -2.7590   23.2826 H   0  0  0  0  0  0
  -22.4159  -11.9913   22.4860 H   0  0  0  0  0  0
  -21.1075  -13.1167   22.2470 H   0  0  0  0  0  0
  -24.6803  -15.8620   20.5354 H   0  0  0  0  0  0
  -26.2932  -15.6265   20.0908 H   0  0  0  0  0  0
  -26.7121  -32.5513   23.1074 H   0  0  0  0  0  0
  -25.0102  -33.9790   25.0455 H   0  0  0  0  0  0
  -22.6856  -31.3101   21.4018 H   0  0  0  0  0  0
  -23.3735  -35.9696   23.3298 H   0  0  0  0  0  0
  -24.3575  -36.8966   22.2049 H   0  0  0  0  0  0
  -23.7292  -37.6573   23.6635 H   0  0  0  0  0  0
  -26.0009  -31.5866   20.5458 H   0  0  0  0  0  0
  -26.8247  -30.9234   21.9284 H   0  0  0  0  0  0
  -28.0884  -29.1423   21.1444 H   0  0  0  0  0  0
  -26.0874  -25.9890   18.9791 H   0  0  0  0  0  0
  -23.9843  -27.2759   19.0323 H   0  0  0  0  0  0
  -23.7207  -30.5861   19.3984 H   0  0  0  0  0  0
  -22.7234  -29.2381   19.8640 H   0  0  0  0  0  0
  -25.1304  -36.1929   25.0809 H   0  0  0  0  0  0
  -20.9937  -28.3291   24.1461 H   0  0  0  0  0  0
  -20.5764  -26.2319   23.3590 H   0  0  0  0  0  0
  -21.6659  -26.7576   22.1163 H   0  0  0  0  0  0
  -19.6934  -25.6372   21.1232 H   0  0  0  0  0  0
  -19.6707  -27.3285   20.6783 H   0  0  0  0  0  0
  -17.4224  -26.6745   21.4016 H   0  0  0  0  0  0
  -18.0310  -26.0156   22.9038 H   0  0  0  0  0  0
  -19.7942  -30.7320   24.2274 H   0  0  0  0  0  0
  -17.5033  -31.6286   24.5253 H   0  0  0  0  0  0
  -15.5368  -30.3074   23.7651 H   0  0  0  0  0  0
  -15.8660  -28.0959   22.6923 H   0  0  0  0  0  0
  -24.5953  -30.7000   25.7843 H   0  0  0  0  0  0
  -24.8951  -32.2850   26.4864 H   0  0  0  0  0  0
  -25.8197  -30.8938   27.0180 H   0  0  0  0  0  0
  -26.2697  -29.6817   24.1103 H   0  0  0  0  0  0
  -27.4210  -29.7253   25.4289 H   0  0  0  0  0  0
  -27.8450  -30.4418   23.8877 H   0  0  0  0  0  0
  -27.2643  -33.3621   26.1971 H   0  0  0  0  0  0
  -28.3891  -32.6832   25.0317 H   0  0  0  0  0  0
  -28.0608  -31.8432   26.5421 H   0  0  0  0  0  0
  -28.2619  -38.0108   24.7523 H   0  0  0  0  0  0
  -28.1058  -36.2659   24.6260 H   0  0  0  0  0  0
  -27.2291  -37.1454   25.8862 H   0  0  0  0  0  0
  -20.9271  -29.8776   21.6940 H   0  0  0  0  0  0
  -26.0157  -38.2875   24.1429 H   0  0  0  0  0  0
  -31.1049  -21.9411   22.3144 H   0  0  0  0  0  0
  -31.1782  -19.4944   22.1461 H   0  0  0  0  0  0
  -27.6511  -19.2134   24.6213 H   0  0  0  0  0  0
  -26.3989  -21.1401   25.1520 H   0  0  0  0  0  0
  -26.8262  -22.7225   24.5502 H   0  0  0  0  0  0
  -27.5773  -22.1002   26.0341 H   0  0  0  0  0  0
  -30.1386  -23.9674   23.1810 H   0  0  0  0  0  0
  -28.8475  -23.9630   24.3609 H   0  0  0  0  0  0
  -29.0124  -18.5648   21.0121 H   0  0  0  0  0  0
  -28.1376  -17.1075   21.3190 H   0  0  0  0  0  0
  -31.2233  -17.1540   21.2788 H   0  0  0  0  0  0
  -30.2370  -16.9282   19.8507 H   0  0  0  0  0  0
  -27.1416  -25.6498   22.1221 H   0  0  0  0  0  0
  -28.8165  -25.8983   22.5154 H   0  0  0  0  0  0
  -27.8130  -24.8230   19.7940 H   0  0  0  0  0  0
  -29.4824  -25.0681   20.2287 H   0  0  0  0  0  0
  -28.4879  -17.3727   23.4953 H   0  0  0  0  0  0
  -29.2175  -15.1141   21.6980 H   0  0  0  0  0  0
  -27.2725  -23.5928   22.6736 H   0  0  0  0  0  0
  -28.3932  -23.2807   21.5508 H   0  0  0  0  0  0
  1 25  1  0  0  0
  1 30  2  0  0  0
  1 84  1  0  0  0
  2  3  1  0  0  0
  2 25  1  0  0  0
  2 86  1  0  0  0
  2 87  1  0  0  0
  3  4  1  0  0  0
  3 88  1  0  0  0
  3 89  1  0  0  0
  4  5  1  0  0  0
  4 90  1  0  0  0
  4 91  1  0  0  0
  5  6  1  0  0  0
  5 26  1  0  0  0
  5 92  1  0  0  0
  6 25  1  0  0  0
  6 93  1  0  0  0
  6 94  1  0  0  0
  7  8  2  0  0  0
  7 26  1  0  0  0
  7 29  1  0  0  0
  8  9  1  0  0  0
  8 22  1  0  0  0
  9 10  1  0  0  0
  9 27  2  0  0  0
 10 11  2  0  0  0
 10 15  1  0  0  0
 11 12  1  0  0  0
 11 95  1  0  0  0
 12 13  2  0  0  0
 12 96  1  0  0  0
 13 14  1  0  0  0
 13 31  1  0  0  0
 14 15  2  0  0  0
 14 97  1  0  0  0
 15 98  1  0  0  0
 16 17  2  0  0  0
 16 21  1  0  0  0
 16 31  1  0  0  0
 17 18  1  0  0  0
 17 99  1  0  0  0
 18 19  2  0  0  0
 18100  1  0  0  0
 19 20  1  0  0  0
 19 24  1  0  0  0
 20 21  2  0  0  0
 20101  1  0  0  0
 21 23  1  0  0  0
 22 28  1  0  0  0
 22 32  2  0  0  0
 26 27  1  0  0  0
 28102  1  0  0  0
 28103  1  0  0  0
 29104  1  0  0  0
 29105  1  0  0  0
 33 34  1  0  0  0
 33 66  1  0  0  0
 33 70  2  0  0  0
 34 36  1  0  0  0
 34 59  1  0  0  0
 34106  1  0  0  0
 35 44  2  0  0  0
 35 45  1  0  0  0
 35 68  1  0  0  0
 36 56  1  0  0  0
 36107  1  0  0  0
 37 39  1  0  0  0
 37 47  1  0  0  0
 37 66  1  0  0  0
 37108  1  0  0  0
 38 43  2  0  0  0
 38 46  1  0  0  0
 38 47  1  0  0  0
 39 64  1  0  0  0
 39 67  2  0  0  0
 40 52  1  0  0  0
 40 53  2  0  0  0
 40 58  1  0  0  0
 41109  1  0  0  0
 41110  1  0  0  0
 41111  1  0  0  0
 41 48  1  0  0  0
 42 43  1  0  0  0
 42 66  1  0  0  0
 42112  1  0  0  0
 42113  1  0  0  0
 43 44  1  0  0  0
 44114  1  0  0  0
 45 46  2  0  0  0
 45115  1  0  0  0
 46116  1  0  0  0
 47117  1  0  0  0
 47118  1  0  0  0
 48 56  1  0  0  0
 48 65  1  0  0  0
 48119  1  0  0  0
 49 50  1  0  0  0
 49 53  1  0  0  0
 49 64  1  0  0  0
 49120  1  0  0  0
 50 51  1  0  0  0
 50121  1  0  0  0
 50122  1  0  0  0
 51 52  1  0  0  0
 51123  1  0  0  0
 51124  1  0  0  0
 52125  1  0  0  0
 52126  1  0  0  0
 53 54  1  0  0  0
 54 55  2  0  0  0
 54127  1  0  0  0
 55 57  1  0  0  0
 55128  1  0  0  0
 56 69  2  0  0  0
 57 58  2  0  0  0
 57129  1  0  0  0
 58130  1  0  0  0
 59 60  1  0  0  0
 59 61  1  0  0  0
 59 62  1  0  0  0
 60131  1  0  0  0
 60132  1  0  0  0
 60133  1  0  0  0
 61134  1  0  0  0
 61135  1  0  0  0
 61136  1  0  0  0
 62137  1  0  0  0
 62138  1  0  0  0
 62139  1  0  0  0
 63 65  1  0  0  0
 63140  1  0  0  0
 63141  1  0  0  0
 63142  1  0  0  0
 64143  1  0  0  0
 65144  1  0  0  0
 68 82  1  0  0  0
 71 72  2  0  0  0
 71 74  1  0  0  0
 71145  1  0  0  0
 72 76  1  0  0  0
 72146  1  0  0  0
 73 75  1  0  0  0
 73 76  2  0  0  0
 73147  1  0  0  0
 74 75  2  0  0  0
 74 78  1  0  0  0
 75 77  1  0  0  0
 76 83  1  0  0  0
 77148  1  0  0  0
 77149  1  0  0  0
 77150  1  0  0  0
 78 85  1  0  0  0
 78151  1  0  0  0
 78152  1  0  0  0
 79 80  1  0  0  0
 79 83  1  0  0  0
 79153  1  0  0  0
 79154  1  0  0  0
 80 84  1  0  0  0
 80155  1  0  0  0
 80156  1  0  0  0
 81 82  1  0  0  0
 81 85  1  0  0  0
 81157  1  0  0  0
 81158  1  0  0  0
 82159  1  0  0  0
 82160  1  0  0  0
 83161  1  0  0  0
 84162  1  0  0  0
 85163  1  0  0  0
 85164  1  0  0  0
M  CHG  1  85   1
M  ISO  4   1 100  68 101  82 101  84 100
M  END
> <chiral flag>
0

> <version>
0

> <s_m_source_file>
/data/baiqing/PycharmProjects/Reinvent-master-3.2/result/LINK_invent/BTK/process_docking_weight1_custom_sum_contain_oxygen_bond_distance_aromatic_linkinvent_7_9_3/rearranged_h_0130.sdf

> <i_m_source_file_index>
20

> <r_mmod_Potential_Energy-OPLS-2005>
-282.449859619141

> <r_mmod_Stretch_Energy-OPLS-2005>
34.319019317627

> <r_mmod_Bend_Energy-OPLS-2005>
90.8336410522461

> <r_mmod_Torsional_Energy-OPLS-2005>
244.608047485352

> <r_mmod_Improper_Torsional_Energy-OPLS-2005>
10.5454721450806

> <r_mmod_Van_der_Waal_Energy-OPLS-2005>
152.496337890625

> <r_mmod_Electrostatic_Energy-OPLS-2005>
-354.811981201172

> <r_mmod_Solvation_Energy-OPLS-2005>
-469.430450439453

> <b_mmod_Minimization_Converged-OPLS-2005>
0

> <r_mmod_RMS_Derivative-OPLS-2005>
6.20781517028809

$$$$
20
                    3D
 Structure written by MMmdl.
160168  0  0  1  0            999 V2000
  -30.7604  -14.5286   20.5196 C   0  0  0  0  0  0
  -30.3967  -12.3329   19.4554 C   0  0  0  0  0  0
  -29.5148  -12.4763   18.1899 C   0  0  0  0  0  0
  -28.0324  -12.8097   18.4932 C   0  0  0  0  0  0
  -27.7060  -12.7404   19.9832 C   0  0  2  0  0  0
  -28.7095  -13.1977   21.0389 C   0  0  0  0  0  0
  -25.3088  -13.7497   20.5501 C   0  0  0  0  0  0
  -24.1852  -13.0383   20.9074 C   0  0  0  0  0  0
  -24.5714  -11.6676   20.8886 C   0  0  0  0  0  0
  -23.8401  -10.4247   21.0613 C   0  0  0  0  0  0
  -24.3196   -9.4179   21.9291 C   0  0  0  0  0  0
  -23.6073   -8.2123   22.0765 C   0  0  0  0  0  0
  -22.4078   -8.0129   21.3524 C   0  0  0  0  0  0
  -21.9561   -9.0067   20.4669 C   0  0  0  0  0  0
  -22.6689  -10.2047   20.3170 C   0  0  0  0  0  0
  -21.6773   -6.0628   22.5276 C   0  0  0  0  0  0
  -21.3934   -6.5581   23.8194 C   0  0  0  0  0  0
  -21.3651   -5.6767   24.9186 C   0  0  0  0  0  0
  -21.6057   -4.3030   24.7263 C   0  0  0  0  0  0
  -21.8816   -3.8085   23.4391 C   0  0  0  0  0  0
  -21.9166   -4.6875   22.3427 C   0  0  0  0  0  0
  -22.8005  -13.5542   21.1779 C   0  0  0  0  0  0
  -22.1668   -4.2065   21.1012 F   0  0  0  0  0  0
  -21.5662   -3.4512   25.7782 F   0  0  0  0  0  0
  -30.0332  -13.3886   20.4200 N   0  0  0  0  0  0
  -26.3024  -12.7801   20.3648 N   0  0  0  0  0  0
  -25.8343  -11.5489   20.6026 N   0  0  0  0  0  0
  -22.0507  -12.8638   22.0329 N   0  0  0  0  0  0
  -25.5548  -15.1090   20.3703 N   0  0  0  0  0  0
  -31.8954  -14.6506   20.0635 O   0  0  0  0  0  0
  -21.6544   -6.8690   21.4197 O   0  0  0  0  0  0
  -22.3852  -14.5883   20.6572 O   0  0  0  0  0  0
  -24.6115  -31.8690   23.2101 C   0  0  0  0  0  0
  -25.8999  -32.4824   23.8405 C   0  0  1  0  0  0
  -27.2383  -27.4546   20.0891 C   0  0  0  0  0  0
  -25.5867  -33.8624   24.2336 N   0  0  0  0  0  0
  -23.4009  -30.4895   21.5514 C   0  0  2  0  0  0
  -24.8494  -28.9536   20.1207 C   0  0  0  0  0  0
  -22.7402  -29.4649   22.5008 C   0  0  0  0  0  0
  -18.0268  -28.1377   22.8486 C   0  0  0  0  0  0
  -24.1496  -36.7320   23.2642 C   0  0  0  0  0  0
  -25.9281  -30.8385   21.3624 C   0  0  0  0  0  0
  -26.0072  -29.4726   20.7143 C   0  0  0  0  0  0
  -27.2068  -28.7276   20.6995 C   0  0  0  0  0  0
  -26.0698  -26.9410   19.4934 C   0  0  0  0  0  0
  -24.8729  -27.6845   19.5119 C   0  0  0  0  0  0
  -23.6092  -29.8181   20.1674 C   0  0  0  0  0  0
  -25.4113  -36.3118   24.0347 C   0  0  1  0  0  0
  -20.5860  -28.3655   23.1330 C   0  0  2  0  0  0
  -20.6763  -26.9393   22.5431 C   0  0  0  0  0  0
  -19.5746  -26.6385   21.5222 C   0  0  0  0  0  0
  -18.1920  -26.7923   22.1626 C   0  0  0  0  0  0
  -19.1519  -28.8831   23.2904 C   0  0  0  0  0  0
  -18.9442  -30.1437   23.8915 C   0  0  0  0  0  0
  -17.6446  -30.6581   24.0559 C   0  0  0  0  0  0
  -25.9033  -34.9485   23.5147 C   0  0  0  0  0  0
  -16.5337  -29.9088   23.6320 C   0  0  0  0  0  0
  -16.7258  -28.6508   23.0336 C   0  0  0  0  0  0
  -26.4457  -31.6590   25.0719 C   0  0  0  0  0  0
  -25.3728  -31.3688   26.1467 C   0  0  0  0  0  0
  -27.0279  -30.3040   24.6057 C   0  0  0  0  0  0
  -27.6064  -32.4294   25.7455 C   0  0  0  0  0  0
  -27.5593  -37.1816   24.8466 C   0  0  0  0  0  0
  -21.4137  -29.3019   22.3735 N   0  0  0  0  0  0
  -26.4303  -37.3799   23.9412 N   0  0  0  0  0  0
  -24.6652  -31.0792   22.1005 N   0  0  0  0  0  0
  -23.4192  -28.8201   23.3039 O   0  0  0  0  0  0
  -28.3968  -26.7185   20.0506 O   0  0  0  0  0  0
  -26.5608  -34.8930   22.4717 O   0  0  0  0  0  0
  -23.5306  -32.1430   23.7492 O   0  0  0  0  0  0
  -29.2377  -22.5074   19.2477 C   0  0  0  0  0  0
  -29.2162  -23.8713   19.6066 C   0  0  0  0  0  0
  -27.7327  -22.0127   21.0933 C   0  0  0  0  0  0
  -28.5003  -21.5666   19.9971 C   0  0  0  0  0  0
  -28.4585  -24.3195   20.7116 C   0  0  0  0  0  0
  -27.7052  -23.3829   21.4660 C   0  0  0  0  0  0
  -26.1953  -22.9263   23.2878 C   0  0  0  0  0  0
  -28.4928  -20.0847   19.6191 C   0  0  0  0  0  0
  -28.5369  -25.7911   21.1300 C   0  0  0  0  0  0
  -30.4698  -17.0085   20.9133 C   0  0  0  0  0  0
  -29.3235  -17.8409   20.2871 C   0  0  0  0  0  0
  -30.0890  -15.5923   20.9884 N   0  0  0  0  0  0
  -29.5587  -19.3072   20.2924 N   0  3  0  0  0  0
  -26.9840  -23.8487   22.5468 O   0  0  0  0  0  0
  -31.4557  -12.3523   19.1868 H   0  0  0  0  0  0
  -30.2377  -11.3598   19.9237 H   0  0  0  0  0  0
  -29.5707  -11.5526   17.6129 H   0  0  0  0  0  0
  -29.9244  -13.2498   17.5385 H   0  0  0  0  0  0
  -27.3726  -12.1468   17.9291 H   0  0  0  0  0  0
  -27.8132  -13.8167   18.1386 H   0  0  0  0  0  0
  -27.9563  -11.6785   20.0654 H   0  0  0  0  0  0
  -28.7975  -12.4528   21.8310 H   0  0  0  0  0  0
  -28.3024  -14.0781   21.5329 H   0  0  0  0  0  0
  -25.2355   -9.5726   22.4820 H   0  0  0  0  0  0
  -23.9861   -7.4485   22.7400 H   0  0  0  0  0  0
  -21.0518   -8.8490   19.8963 H   0  0  0  0  0  0
  -22.3105  -10.9585   19.6296 H   0  0  0  0  0  0
  -21.1889   -7.6088   23.9669 H   0  0  0  0  0  0
  -21.1489   -6.0518   25.9090 H   0  0  0  0  0  0
  -22.0607   -2.7543   23.2919 H   0  0  0  0  0  0
  -22.3971  -12.0244   22.4737 H   0  0  0  0  0  0
  -21.1140  -13.1775   22.2498 H   0  0  0  0  0  0
  -26.4286  -15.4738   20.0151 H   0  0  0  0  0  0
  -24.8230  -15.8085   20.4320 H   0  0  0  0  0  0
  -26.7074  -32.5549   23.1180 H   0  0  0  0  0  0
  -24.9980  -33.9798   25.0455 H   0  0  0  0  0  0
  -22.6901  -31.3065   21.4122 H   0  0  0  0  0  0
  -23.3754  -35.9658   23.3309 H   0  0  0  0  0  0
  -24.3589  -36.8919   22.2056 H   0  0  0  0  0  0
  -23.7258  -37.6539   23.6637 H   0  0  0  0  0  0
  -26.0375  -31.6039   20.5923 H   0  0  0  0  0  0
  -26.8178  -30.8952   21.9771 H   0  0  0  0  0  0
  -28.1050  -29.1234   21.1529 H   0  0  0  0  0  0
  -26.0911  -25.9705   19.0176 H   0  0  0  0  0  0
  -23.9807  -27.2808   19.0536 H   0  0  0  0  0  0
  -23.7161  -30.5940   19.4082 H   0  0  0  0  0  0
  -22.7348  -29.2352   19.8710 H   0  0  0  0  0  0
  -25.1288  -36.2002   25.0841 H   0  0  0  0  0  0
  -20.9937  -28.3215   24.1456 H   0  0  0  0  0  0
  -20.5660  -26.2260   23.3608 H   0  0  0  0  0  0
  -21.6633  -26.7435   22.1229 H   0  0  0  0  0  0
  -19.6909  -25.6303   21.1235 H   0  0  0  0  0  0
  -19.6698  -27.3210   20.6767 H   0  0  0  0  0  0
  -17.4194  -26.6658   21.4027 H   0  0  0  0  0  0
  -18.0315  -26.0068   22.9025 H   0  0  0  0  0  0
  -19.7915  -30.7239   24.2307 H   0  0  0  0  0  0
  -17.5003  -31.6260   24.5155 H   0  0  0  0  0  0
  -15.5340  -30.2996   23.7634 H   0  0  0  0  0  0
  -15.8657  -28.0836   22.7046 H   0  0  0  0  0  0
  -24.5913  -30.7022   25.7800 H   0  0  0  0  0  0
  -24.8893  -32.2833   26.4913 H   0  0  0  0  0  0
  -25.8071  -30.8864   27.0226 H   0  0  0  0  0  0
  -26.2811  -29.6825   24.1090 H   0  0  0  0  0  0
  -27.4058  -29.7248   25.4493 H   0  0  0  0  0  0
  -27.8650  -30.4397   23.9202 H   0  0  0  0  0  0
  -27.2726  -33.3595   26.2061 H   0  0  0  0  0  0
  -28.3836  -32.6829   25.0238 H   0  0  0  0  0  0
  -28.0758  -31.8382   26.5324 H   0  0  0  0  0  0
  -28.2614  -38.0109   24.7493 H   0  0  0  0  0  0
  -28.1083  -36.2636   24.6304 H   0  0  0  0  0  0
  -27.2300  -37.1481   25.8866 H   0  0  0  0  0  0
  -20.9291  -29.8719   21.6945 H   0  0  0  0  0  0
  -26.0198  -38.2890   24.1377 H   0  0  0  0  0  0
  -29.8246  -22.1921   18.3943 H   0  0  0  0  0  0
  -29.7986  -24.5817   19.0363 H   0  0  0  0  0  0
  -27.1667  -21.2760   21.6449 H   0  0  0  0  0  0
  -26.8084  -22.1411   23.7317 H   0  0  0  0  0  0
  -25.4197  -22.4736   22.6677 H   0  0  0  0  0  0
  -25.7012  -23.4533   24.1037 H   0  0  0  0  0  0
  -28.5819  -19.9724   18.5384 H   0  0  0  0  0  0
  -27.5174  -19.6746   19.8883 H   0  0  0  0  0  0
  -29.5197  -25.9524   21.5729 H   0  0  0  0  0  0
  -27.8237  -26.0094   21.9280 H   0  0  0  0  0  0
  -30.6932  -17.3537   21.9229 H   0  0  0  0  0  0
  -31.3821  -17.1409   20.3280 H   0  0  0  0  0  0
  -28.3985  -17.6429   20.8323 H   0  0  0  0  0  0
  -29.1601  -17.5112   19.2602 H   0  0  0  0  0  0
  -29.1591  -15.3917   21.3246 H   0  0  0  0  0  0
  -30.4344  -19.5190   19.8434 H   0  0  0  0  0  0
  -29.6191  -19.6179   21.2479 H   0  0  0  0  0  0
  1 25  1  0  0  0
  1 30  2  0  0  0
  1 82  1  0  0  0
  2  3  1  0  0  0
  2 25  1  0  0  0
  2 85  1  0  0  0
  2 86  1  0  0  0
  3  4  1  0  0  0
  3 87  1  0  0  0
  3 88  1  0  0  0
  4  5  1  0  0  0
  4 89  1  0  0  0
  4 90  1  0  0  0
  5  6  1  0  0  0
  5 26  1  0  0  0
  5 91  1  0  0  0
  6 25  1  0  0  0
  6 92  1  0  0  0
  6 93  1  0  0  0
  7  8  2  0  0  0
  7 26  1  0  0  0
  7 29  1  0  0  0
  8  9  1  0  0  0
  8 22  1  0  0  0
  9 10  1  0  0  0
  9 27  2  0  0  0
 10 11  2  0  0  0
 10 15  1  0  0  0
 11 12  1  0  0  0
 11 94  1  0  0  0
 12 13  2  0  0  0
 12 95  1  0  0  0
 13 14  1  0  0  0
 13 31  1  0  0  0
 14 15  2  0  0  0
 14 96  1  0  0  0
 15 97  1  0  0  0
 16 17  2  0  0  0
 16 21  1  0  0  0
 16 31  1  0  0  0
 17 18  1  0  0  0
 17 98  1  0  0  0
 18 19  2  0  0  0
 18 99  1  0  0  0
 19 20  1  0  0  0
 19 24  1  0  0  0
 20 21  2  0  0  0
 20100  1  0  0  0
 21 23  1  0  0  0
 22 28  1  0  0  0
 22 32  2  0  0  0
 26 27  1  0  0  0
 28101  1  0  0  0
 28102  1  0  0  0
 29103  1  0  0  0
 29104  1  0  0  0
 33 34  1  0  0  0
 33 66  1  0  0  0
 33 70  2  0  0  0
 34 36  1  0  0  0
 34 59  1  0  0  0
 34105  1  0  0  0
 35 44  2  0  0  0
 35 45  1  0  0  0
 35 68  1  0  0  0
 36 56  1  0  0  0
 36106  1  0  0  0
 37 39  1  0  0  0
 37 47  1  0  0  0
 37 66  1  0  0  0
 37107  1  0  0  0
 38 43  2  0  0  0
 38 46  1  0  0  0
 38 47  1  0  0  0
 39 64  1  0  0  0
 39 67  2  0  0  0
 40 52  1  0  0  0
 40 53  2  0  0  0
 40 58  1  0  0  0
 41108  1  0  0  0
 41109  1  0  0  0
 41110  1  0  0  0
 41 48  1  0  0  0
 42 43  1  0  0  0
 42 66  1  0  0  0
 42111  1  0  0  0
 42112  1  0  0  0
 43 44  1  0  0  0
 44113  1  0  0  0
 45 46  2  0  0  0
 45114  1  0  0  0
 46115  1  0  0  0
 47116  1  0  0  0
 47117  1  0  0  0
 48 56  1  0  0  0
 48 65  1  0  0  0
 48118  1  0  0  0
 49 50  1  0  0  0
 49 53  1  0  0  0
 49 64  1  0  0  0
 49119  1  0  0  0
 50 51  1  0  0  0
 50120  1  0  0  0
 50121  1  0  0  0
 51 52  1  0  0  0
 51122  1  0  0  0
 51123  1  0  0  0
 52124  1  0  0  0
 52125  1  0  0  0
 53 54  1  0  0  0
 54 55  2  0  0  0
 54126  1  0  0  0
 55 57  1  0  0  0
 55127  1  0  0  0
 56 69  2  0  0  0
 57 58  2  0  0  0
 57128  1  0  0  0
 58129  1  0  0  0
 59 60  1  0  0  0
 59 61  1  0  0  0
 59 62  1  0  0  0
 60130  1  0  0  0
 60131  1  0  0  0
 60132  1  0  0  0
 61133  1  0  0  0
 61134  1  0  0  0
 61135  1  0  0  0
 62136  1  0  0  0
 62137  1  0  0  0
 62138  1  0  0  0
 63 65  1  0  0  0
 63139  1  0  0  0
 63140  1  0  0  0
 63141  1  0  0  0
 64142  1  0  0  0
 65143  1  0  0  0
 68 79  1  0  0  0
 71 72  2  0  0  0
 71 74  1  0  0  0
 71144  1  0  0  0
 72 75  1  0  0  0
 72145  1  0  0  0
 73 74  2  0  0  0
 73 76  1  0  0  0
 73146  1  0  0  0
 74 78  1  0  0  0
 75 76  2  0  0  0
 75 79  1  0  0  0
 76 84  1  0  0  0
 77 84  1  0  0  0
 77147  1  0  0  0
 77148  1  0  0  0
 77149  1  0  0  0
 78 83  1  0  0  0
 78150  1  0  0  0
 78151  1  0  0  0
 79152  1  0  0  0
 79153  1  0  0  0
 80 81  1  0  0  0
 80 82  1  0  0  0
 80154  1  0  0  0
 80155  1  0  0  0
 81 83  1  0  0  0
 81156  1  0  0  0
 81157  1  0  0  0
 82158  1  0  0  0
 83159  1  0  0  0
 83160  1  0  0  0
M  CHG  1  83   1
M  ISO  4   1 100  68 101  79 101  82 100
M  END
> <chiral flag>
0

> <version>
0

> <s_m_source_file>
/data/baiqing/PycharmProjects/Reinvent-master-3.2/result/LINK_invent/BTK/process_docking_weight1_custom_sum_contain_oxygen_bond_distance_aromatic_linkinvent_7_9_3/rearranged_h_0130.sdf

> <i_m_source_file_index>
21

> <r_mmod_Potential_Energy-OPLS-2005>
-141.968002319336

> <r_mmod_Stretch_Energy-OPLS-2005>
35.3370895385742

> <r_mmod_Bend_Energy-OPLS-2005>
145.772811889648

> <r_mmod_Torsional_Energy-OPLS-2005>
250.045349121094

> <r_mmod_Improper_Torsional_Energy-OPLS-2005>
3.99300146102905

> <r_mmod_Van_der_Waal_Energy-OPLS-2005>
167.107513427734

> <r_mmod_Electrostatic_Energy-OPLS-2005>
-317.454071044922

> <r_mmod_Solvation_Energy-OPLS-2005>
-503.566009521484

> <b_mmod_Minimization_Converged-OPLS-2005>
0

> <r_mmod_RMS_Derivative-OPLS-2005>
2.56518292427063

$$$$
21
                    3D
 Structure written by MMmdl.
186195  0  0  1  0            999 V2000
  -30.6060  -14.7111   20.4323 C   0  0  0  0  0  0
  -30.4286  -12.4302   19.4560 C   0  0  0  0  0  0
  -29.5062  -12.5017   18.2200 C   0  0  0  0  0  0
  -28.0286  -12.3376   18.6332 C   0  0  0  0  0  0
  -27.6384  -13.2281   19.8441 C   0  0  2  0  0  0
  -28.6845  -13.1490   20.9746 C   0  0  0  0  0  0
  -25.2511  -13.8192   20.5694 C   0  0  0  0  0  0
  -24.1802  -13.0435   20.9203 C   0  0  0  0  0  0
  -24.6380  -11.6915   20.8736 C   0  0  0  0  0  0
  -23.9059  -10.4292   21.0402 C   0  0  0  0  0  0
  -24.3608   -9.4209   21.9186 C   0  0  0  0  0  0
  -23.6287   -8.2244   22.0749 C   0  0  0  0  0  0
  -22.4269   -8.0276   21.3540 C   0  0  0  0  0  0
  -21.9905   -9.0255   20.4652 C   0  0  0  0  0  0
  -22.7228  -10.2133   20.3060 C   0  0  0  0  0  0
  -21.6856   -6.0730   22.5280 C   0  0  0  0  0  0
  -21.4016   -6.5628   23.8208 C   0  0  0  0  0  0
  -21.3662   -5.6777   24.9172 C   0  0  0  0  0  0
  -21.6044   -4.3043   24.7226 C   0  0  0  0  0  0
  -21.8817   -3.8140   23.4342 C   0  0  0  0  0  0
  -21.9196   -4.6955   22.3403 C   0  0  0  0  0  0
  -22.7827  -13.5232   21.1868 C   0  0  0  0  0  0
  -22.1665   -4.2139   21.0984 F   0  0  0  0  0  0
  -21.5637   -3.4531   25.7737 F   0  0  0  0  0  0
  -29.9822  -13.4887   20.3836 N   0  0  0  0  0  0
  -26.2918  -12.9385   20.3248 N   0  0  0  0  0  0
  -25.9309  -11.6533   20.5714 N   0  0  0  0  0  0
  -22.0460  -12.8235   22.0415 N   0  0  0  0  0  0
  -25.4203  -15.1916   20.4102 N   0  0  0  0  0  0
  -31.8220  -14.7901   20.2303 O   0  0  0  0  0  0
  -21.6642   -6.8869   21.4237 O   0  0  0  0  0  0
  -22.3537  -14.5552   20.6718 O   0  0  0  0  0  0
  -24.6273  -31.8583   23.1987 C   0  0  0  0  0  0
  -25.9118  -32.4766   23.8330 C   0  0  1  0  0  0
  -27.2244  -27.3023   20.1242 C   0  0  0  0  0  0
  -25.5926  -33.8567   24.2257 N   0  0  0  0  0  0
  -23.4222  -30.4801   21.5418 C   0  0  2  0  0  0
  -24.8694  -28.9251   20.1143 C   0  0  0  0  0  0
  -22.7476  -29.4626   22.4926 C   0  0  0  0  0  0
  -18.0286  -28.1389   22.8488 C   0  0  0  0  0  0
  -24.1490  -36.7292   23.2643 C   0  0  0  0  0  0
  -25.9634  -30.7839   21.3708 C   0  0  0  0  0  0
  -26.0393  -29.4080   20.7160 C   0  0  0  0  0  0
  -27.2236  -28.6098   20.7053 C   0  0  0  0  0  0
  -26.0341  -26.8681   19.5079 C   0  0  0  0  0  0
  -24.8688  -27.6616   19.5003 C   0  0  0  0  0  0
  -23.6385  -29.8093   20.1596 C   0  0  0  0  0  0
  -25.4116  -36.3079   24.0328 C   0  0  1  0  0  0
  -20.5890  -28.3699   23.1283 C   0  0  2  0  0  0
  -20.6779  -26.9421   22.5418 C   0  0  0  0  0  0
  -19.5756  -26.6386   21.5221 C   0  0  0  0  0  0
  -18.1933  -26.7934   22.1624 C   0  0  0  0  0  0
  -19.1542  -28.8861   23.2884 C   0  0  0  0  0  0
  -18.9461  -30.1460   23.8898 C   0  0  0  0  0  0
  -17.6463  -30.6594   24.0562 C   0  0  0  0  0  0
  -25.9057  -34.9449   23.5095 C   0  0  0  0  0  0
  -16.5353  -29.9093   23.6333 C   0  0  0  0  0  0
  -16.7274  -28.6510   23.0351 C   0  0  0  0  0  0
  -26.4494  -31.6585   25.0711 C   0  0  0  0  0  0
  -25.3719  -31.3739   26.1432 C   0  0  0  0  0  0
  -27.0335  -30.3003   24.6182 C   0  0  0  0  0  0
  -27.6052  -32.4321   25.7484 C   0  0  0  0  0  0
  -27.5581  -37.1797   24.8461 C   0  0  0  0  0  0
  -21.4192  -29.3048   22.3669 N   0  0  0  0  0  0
  -26.4292  -37.3775   23.9409 N   0  0  0  0  0  0
  -24.6899  -31.0583   22.0942 N   0  0  0  0  0  0
  -23.4194  -28.8176   23.3018 O   0  0  0  0  0  0
  -28.3389  -26.4486   20.1084 O   0  0  0  0  0  0
  -26.5631  -34.8922   22.4663 O   0  0  0  0  0  0
  -23.5434  -32.1385   23.7311 O   0  0  0  0  0  0
  -29.8792  -17.9520   18.9605 C   0  0  0  0  0  0
  -29.7702  -16.4117   18.8761 C   0  0  0  0  0  0
  -26.1092  -19.4097   25.2160 C   0  0  0  0  0  0
  -26.0403  -17.6199   23.6909 C   0  0  0  0  0  0
  -29.2196  -18.3245   20.2790 C   0  0  1  0  0  0
  -27.5589  -18.9000   25.1289 C   0  0  2  0  0  0
  -27.5003  -17.6606   24.1979 C   0  0  2  0  0  0
  -29.6600  -17.0411   21.1358 C   0  0  1  0  0  0
  -28.5990  -19.9978   27.1891 C   0  0  0  0  0  0
  -27.5896  -17.6876   27.4324 C   0  0  0  0  0  0
  -30.3010  -22.6364   21.5869 C   0  0  0  0  0  0
  -29.5158  -19.8206   20.8293 C   0  0  0  0  0  0
  -28.6727  -16.7020   22.2751 C   0  0  0  0  0  0
  -28.6805  -23.7515   19.9215 C   0  0  0  0  0  0
  -28.2056  -25.0860   20.6957 C   0  0  0  0  0  0
  -28.2918  -18.6704   26.4757 C   0  0  0  0  0  0
  -29.0001  -22.4157   20.7826 C   0  0  1  0  0  0
  -29.8087  -15.8366   20.2365 N   0  0  0  0  0  0
  -28.4663  -17.8699   23.1205 N   0  0  0  0  0  0
  -25.4776  -18.9460   23.9752 N   0  3  0  0  0  0
  -29.0448  -21.0587   20.0524 N   0  3  0  0  0  0
  -31.4719  -12.5501   19.1565 H   0  0  0  0  0  0
  -30.3641  -11.4516   19.9327 H   0  0  0  0  0  0
  -29.7821  -11.7309   17.4998 H   0  0  0  0  0  0
  -29.6415  -13.4580   17.7115 H   0  0  0  0  0  0
  -27.8732  -11.2883   18.8831 H   0  0  0  0  0  0
  -27.3746  -12.5459   17.7854 H   0  0  0  0  0  0
  -27.6327  -14.2517   19.4724 H   0  0  0  0  0  0
  -28.7131  -12.1520   21.4170 H   0  0  0  0  0  0
  -28.4301  -13.8394   21.7792 H   0  0  0  0  0  0
  -25.2751   -9.5706   22.4752 H   0  0  0  0  0  0
  -24.0015   -7.4632   22.7453 H   0  0  0  0  0  0
  -21.0841   -8.8761   19.8953 H   0  0  0  0  0  0
  -22.3679  -10.9666   19.6165 H   0  0  0  0  0  0
  -21.2002   -7.6137   23.9710 H   0  0  0  0  0  0
  -21.1490   -6.0512   25.9072 H   0  0  0  0  0  0
  -22.0599   -2.7607   23.2841 H   0  0  0  0  0  0
  -22.4071  -11.9896   22.4811 H   0  0  0  0  0  0
  -21.1069  -13.1265   22.2572 H   0  0  0  0  0  0
  -24.6277  -15.8225   20.4425 H   0  0  0  0  0  0
  -26.2466  -15.6111   20.0043 H   0  0  0  0  0  0
  -26.7185  -32.5436   23.1078 H   0  0  0  0  0  0
  -25.0049  -33.9706   25.0387 H   0  0  0  0  0  0
  -22.7172  -31.3010   21.3956 H   0  0  0  0  0  0
  -23.3755  -35.9621   23.3296 H   0  0  0  0  0  0
  -24.3580  -36.8926   22.2060 H   0  0  0  0  0  0
  -23.7237  -37.6489   23.6668 H   0  0  0  0  0  0
  -26.0957  -31.5459   20.6013 H   0  0  0  0  0  0
  -26.8436  -30.8341   22.0004 H   0  0  0  0  0  0
  -28.1259  -28.9806   21.1710 H   0  0  0  0  0  0
  -26.0035  -25.8978   19.0333 H   0  0  0  0  0  0
  -23.9718  -27.2864   19.0268 H   0  0  0  0  0  0
  -23.7580  -30.5831   19.4003 H   0  0  0  0  0  0
  -22.7580  -29.2386   19.8591 H   0  0  0  0  0  0
  -25.1297  -36.1924   25.0820 H   0  0  0  0  0  0
  -20.9987  -28.3281   24.1404 H   0  0  0  0  0  0
  -20.5693  -26.2310   23.3622 H   0  0  0  0  0  0
  -21.6643  -26.7457   22.1206 H   0  0  0  0  0  0
  -19.6921  -25.6297   21.1254 H   0  0  0  0  0  0
  -19.6703  -27.3198   20.6755 H   0  0  0  0  0  0
  -17.4213  -26.6696   21.4014 H   0  0  0  0  0  0
  -18.0324  -26.0074   22.9016 H   0  0  0  0  0  0
  -19.7939  -30.7273   24.2269 H   0  0  0  0  0  0
  -17.5020  -31.6273   24.5166 H   0  0  0  0  0  0
  -15.5354  -30.2992   23.7657 H   0  0  0  0  0  0
  -15.8676  -28.0830   22.7056 H   0  0  0  0  0  0
  -24.5885  -30.7103   25.7750 H   0  0  0  0  0  0
  -24.8922  -32.2917   26.4847 H   0  0  0  0  0  0
  -25.8034  -30.8911   27.0210 H   0  0  0  0  0  0
  -26.2911  -29.6751   24.1208 H   0  0  0  0  0  0
  -27.4020  -29.7266   25.4697 H   0  0  0  0  0  0
  -27.8788  -30.4271   23.9413 H   0  0  0  0  0  0
  -27.2659  -33.3618   26.2060 H   0  0  0  0  0  0
  -28.3866  -32.6886   25.0319 H   0  0  0  0  0  0
  -28.0718  -31.8447   26.5400 H   0  0  0  0  0  0
  -28.2591  -38.0101   24.7511 H   0  0  0  0  0  0
  -28.1078  -36.2628   24.6274 H   0  0  0  0  0  0
  -27.2300  -37.1441   25.8865 H   0  0  0  0  0  0
  -20.9371  -29.8746   21.6862 H   0  0  0  0  0  0
  -26.0171  -38.2851   24.1402 H   0  0  0  0  0  0
  -29.4140  -18.4430   18.1035 H   0  0  0  0  0  0
  -30.9306  -18.2430   18.9759 H   0  0  0  0  0  0
  -30.5415  -16.0079   18.2167 H   0  0  0  0  0  0
  -28.8128  -16.1385   18.4306 H   0  0  0  0  0  0
  -26.0498  -20.4942   25.3172 H   0  0  0  0  0  0
  -25.5742  -18.9678   26.0559 H   0  0  0  0  0  0
  -25.4788  -16.8820   24.2650 H   0  0  0  0  0  0
  -25.9284  -17.3622   22.6381 H   0  0  0  0  0  0
  -28.1411  -18.2496   20.1335 H   0  0  0  0  0  0
  -28.1028  -19.6931   24.6097 H   0  0  0  0  0  0
  -27.7383  -16.7410   24.7351 H   0  0  0  0  0  0
  -30.6444  -17.2388   21.5662 H   0  0  0  0  0  0
  -29.1863  -20.6637   26.5543 H   0  0  0  0  0  0
  -29.1755  -19.8306   28.1001 H   0  0  0  0  0  0
  -27.6866  -20.5255   27.4688 H   0  0  0  0  0  0
  -27.3630  -16.7353   26.9538 H   0  0  0  0  0  0
  -26.6583  -18.0925   27.8274 H   0  0  0  0  0  0
  -28.2261  -17.4677   28.2902 H   0  0  0  0  0  0
  -30.3000  -23.5938   22.1049 H   0  0  0  0  0  0
  -31.1773  -22.6217   20.9379 H   0  0  0  0  0  0
  -30.4406  -21.8781   22.3574 H   0  0  0  0  0  0
  -30.5880  -19.9150   21.0026 H   0  0  0  0  0  0
  -29.0568  -19.9203   21.8100 H   0  0  0  0  0  0
  -29.0641  -15.8815   22.8791 H   0  0  0  0  0  0
  -27.7287  -16.3609   21.8492 H   0  0  0  0  0  0
  -29.5705  -23.9957   19.3403 H   0  0  0  0  0  0
  -27.9146  -23.5173   19.1822 H   0  0  0  0  0  0
  -28.7783  -25.1500   21.6201 H   0  0  0  0  0  0
  -27.1812  -24.9277   21.0355 H   0  0  0  0  0  0
  -29.2576  -18.2273   26.2263 H   0  0  0  0  0  0
  -28.1893  -22.3186   21.5063 H   0  0  0  0  0  0
  -29.3580  -18.0992   23.5501 H   0  0  0  0  0  0
  -25.7346  -19.5661   23.2253 H   0  0  0  0  0  0
  -24.4741  -18.9212   24.0507 H   0  0  0  0  0  0
  -28.1153  -20.8699   19.7131 H   0  0  0  0  0  0
  -29.6325  -21.1463   19.2387 H   0  0  0  0  0  0
  1 25  1  0  0  0
  1 30  2  0  0  0
  1 88  1  0  0  0
  2  3  1  0  0  0
  2 25  1  0  0  0
  2 92  1  0  0  0
  2 93  1  0  0  0
  3  4  1  0  0  0
  3 94  1  0  0  0
  3 95  1  0  0  0
  4  5  1  0  0  0
  4 96  1  0  0  0
  4 97  1  0  0  0
  5  6  1  0  0  0
  5 26  1  0  0  0
  5 98  1  0  0  0
  6 25  1  0  0  0
  6 99  1  0  0  0
  6100  1  0  0  0
  7  8  2  0  0  0
  7 26  1  0  0  0
  7 29  1  0  0  0
  8  9  1  0  0  0
  8 22  1  0  0  0
  9 10  1  0  0  0
  9 27  2  0  0  0
 10 11  2  0  0  0
 10 15  1  0  0  0
 11 12  1  0  0  0
 11101  1  0  0  0
 12 13  2  0  0  0
 12102  1  0  0  0
 13 14  1  0  0  0
 13 31  1  0  0  0
 14 15  2  0  0  0
 14103  1  0  0  0
 15104  1  0  0  0
 16 17  2  0  0  0
 16 21  1  0  0  0
 16 31  1  0  0  0
 17 18  1  0  0  0
 17105  1  0  0  0
 18 19  2  0  0  0
 18106  1  0  0  0
 19 20  1  0  0  0
 19 24  1  0  0  0
 20 21  2  0  0  0
 20107  1  0  0  0
 21 23  1  0  0  0
 22 28  1  0  0  0
 22 32  2  0  0  0
 26 27  1  0  0  0
 28108  1  0  0  0
 28109  1  0  0  0
 29110  1  0  0  0
 29111  1  0  0  0
 33 34  1  0  0  0
 33 66  1  0  0  0
 33 70  2  0  0  0
 34 36  1  0  0  0
 34 59  1  0  0  0
 34112  1  0  0  0
 35 44  2  0  0  0
 35 45  1  0  0  0
 35 68  1  0  0  0
 36 56  1  0  0  0
 36113  1  0  0  0
 37 39  1  0  0  0
 37 47  1  0  0  0
 37 66  1  0  0  0
 37114  1  0  0  0
 38 43  2  0  0  0
 38 46  1  0  0  0
 38 47  1  0  0  0
 39 64  1  0  0  0
 39 67  2  0  0  0
 40 52  1  0  0  0
 40 53  2  0  0  0
 40 58  1  0  0  0
 41115  1  0  0  0
 41116  1  0  0  0
 41117  1  0  0  0
 41 48  1  0  0  0
 42 43  1  0  0  0
 42 66  1  0  0  0
 42118  1  0  0  0
 42119  1  0  0  0
 43 44  1  0  0  0
 44120  1  0  0  0
 45 46  2  0  0  0
 45121  1  0  0  0
 46122  1  0  0  0
 47123  1  0  0  0
 47124  1  0  0  0
 48 56  1  0  0  0
 48 65  1  0  0  0
 48125  1  0  0  0
 49 50  1  0  0  0
 49 53  1  0  0  0
 49 64  1  0  0  0
 49126  1  0  0  0
 50 51  1  0  0  0
 50127  1  0  0  0
 50128  1  0  0  0
 51 52  1  0  0  0
 51129  1  0  0  0
 51130  1  0  0  0
 52131  1  0  0  0
 52132  1  0  0  0
 53 54  1  0  0  0
 54 55  2  0  0  0
 54133  1  0  0  0
 55 57  1  0  0  0
 55134  1  0  0  0
 56 69  2  0  0  0
 57 58  2  0  0  0
 57135  1  0  0  0
 58136  1  0  0  0
 59 60  1  0  0  0
 59 61  1  0  0  0
 59 62  1  0  0  0
 60137  1  0  0  0
 60138  1  0  0  0
 60139  1  0  0  0
 61140  1  0  0  0
 61141  1  0  0  0
 61142  1  0  0  0
 62143  1  0  0  0
 62144  1  0  0  0
 62145  1  0  0  0
 63 65  1  0  0  0
 63146  1  0  0  0
 63147  1  0  0  0
 63148  1  0  0  0
 64149  1  0  0  0
 65150  1  0  0  0
 68 85  1  0  0  0
 71 72  1  0  0  0
 71 75  1  0  0  0
 71151  1  0  0  0
 71152  1  0  0  0
 72 88  1  0  0  0
 72153  1  0  0  0
 72154  1  0  0  0
 73 90  1  0  0  0
 73155  1  0  0  0
 73156  1  0  0  0
 73 76  1  0  0  0
 74 77  1  0  0  0
 74 90  1  0  0  0
 74157  1  0  0  0
 74158  1  0  0  0
 75 78  1  0  0  0
 75 82  1  0  0  0
 75159  1  0  0  0
 76 77  1  0  0  0
 76 86  1  0  0  0
 76160  1  0  0  0
 77 89  1  0  0  0
 77161  1  0  0  0
 78 83  1  0  0  0
 78 88  1  0  0  0
 78162  1  0  0  0
 79163  1  0  0  0
 79164  1  0  0  0
 79165  1  0  0  0
 79 86  1  0  0  0
 80 86  1  0  0  0
 80166  1  0  0  0
 80167  1  0  0  0
 80168  1  0  0  0
 81169  1  0  0  0
 81170  1  0  0  0
 81171  1  0  0  0
 81 87  1  0  0  0
 82 91  1  0  0  0
 82172  1  0  0  0
 82173  1  0  0  0
 83 89  1  0  0  0
 83174  1  0  0  0
 83175  1  0  0  0
 84 85  1  0  0  0
 84 87  1  0  0  0
 84176  1  0  0  0
 84177  1  0  0  0
 85178  1  0  0  0
 85179  1  0  0  0
 86180  1  0  0  0
 87 91  1  0  0  0
 87181  1  0  0  0
 89182  1  0  0  0
 90183  1  0  0  0
 90184  1  0  0  0
 91185  1  0  0  0
 91186  1  0  0  0
M  CHG  2  90   1  91   1
M  ISO  4   1 100  68 101  85 101  88 100
M  END
> <chiral flag>
0

> <version>
0

> <s_m_source_file>
/data/baiqing/PycharmProjects/Reinvent-master-3.2/result/LINK_invent/BTK/process_docking_weight1_custom_sum_contain_oxygen_bond_distance_aromatic_linkinvent_7_9_3/rearranged_h_0130.sdf

> <i_m_source_file_index>
22

> <r_mmod_Potential_Energy-OPLS-2005>
169.80615234375

> <r_mmod_Stretch_Energy-OPLS-2005>
110.904937744141

> <r_mmod_Bend_Energy-OPLS-2005>
214.369583129883

> <r_mmod_Torsional_Energy-OPLS-2005>
458.860046386719

> <r_mmod_Improper_Torsional_Energy-OPLS-2005>
18.5901279449463

> <r_mmod_Van_der_Waal_Energy-OPLS-2005>
104.530014038086

> <r_mmod_Electrostatic_Energy-OPLS-2005>
112.345878601074

> <r_mmod_Solvation_Energy-OPLS-2005>
-918.919982910156

> <b_mmod_Minimization_Converged-OPLS-2005>
0

> <r_mmod_RMS_Derivative-OPLS-2005>
1.66243135929108

$$$$
22
                    3D
 Structure written by MMmdl.
175184  0  0  1  0            999 V2000
  -30.8409  -14.2898   20.7639 C   0  0  0  0  0  0
  -30.4108  -12.2878   19.4075 C   0  0  0  0  0  0
  -29.4908  -12.5334   18.1970 C   0  0  0  0  0  0
  -28.0155  -12.3742   18.6005 C   0  0  0  0  0  0
  -27.6625  -13.2025   19.8596 C   0  0  2  0  0  0
  -28.6848  -12.9564   20.9868 C   0  0  0  0  0  0
  -25.2586  -13.8146   20.5604 C   0  0  0  0  0  0
  -24.1827  -13.0429   20.9111 C   0  0  0  0  0  0
  -24.6352  -11.6898   20.8645 C   0  0  0  0  0  0
  -23.9017  -10.4294   21.0343 C   0  0  0  0  0  0
  -24.3582   -9.4220   21.9136 C   0  0  0  0  0  0
  -23.6253   -8.2257   22.0750 C   0  0  0  0  0  0
  -22.4234   -8.0290   21.3540 C   0  0  0  0  0  0
  -21.9849   -9.0236   20.4643 C   0  0  0  0  0  0
  -22.7178  -10.2113   20.3018 C   0  0  0  0  0  0
  -21.6838   -6.0695   22.5244 C   0  0  0  0  0  0
  -21.4016   -6.5614   23.8177 C   0  0  0  0  0  0
  -21.3661   -5.6779   24.9150 C   0  0  0  0  0  0
  -21.6041   -4.3039   24.7206 C   0  0  0  0  0  0
  -21.8833   -3.8108   23.4336 C   0  0  0  0  0  0
  -21.9205   -4.6927   22.3381 C   0  0  0  0  0  0
  -22.7855  -13.5245   21.1807 C   0  0  0  0  0  0
  -22.1655   -4.2103   21.0957 F   0  0  0  0  0  0
  -21.5643   -3.4521   25.7723 F   0  0  0  0  0  0
  -30.0567  -13.2087   20.5032 N   0  0  0  0  0  0
  -26.2993  -12.9303   20.3206 N   0  0  0  0  0  0
  -25.9268  -11.6458   20.5610 N   0  0  0  0  0  0
  -22.0525  -12.8231   22.0392 N   0  0  0  0  0  0
  -25.4360  -15.1858   20.4043 N   0  0  0  0  0  0
  -31.7195  -14.6772   19.9912 O   0  0  0  0  0  0
  -21.6641   -6.8847   21.4214 O   0  0  0  0  0  0
  -22.3516  -14.5525   20.6656 O   0  0  0  0  0  0
  -24.6101  -31.8696   23.2136 C   0  0  0  0  0  0
  -25.9023  -32.4839   23.8408 C   0  0  1  0  0  0
  -27.2327  -27.4684   20.0999 C   0  0  0  0  0  0
  -25.5889  -33.8630   24.2342 N   0  0  0  0  0  0
  -23.3965  -30.4937   21.5516 C   0  0  2  0  0  0
  -24.8450  -28.9616   20.1195 C   0  0  0  0  0  0
  -22.7396  -29.4673   22.5007 C   0  0  0  0  0  0
  -18.0267  -28.1377   22.8495 C   0  0  0  0  0  0
  -24.1473  -36.7308   23.2635 C   0  0  0  0  0  0
  -25.9211  -30.8466   21.3628 C   0  0  0  0  0  0
  -26.0014  -29.4812   20.7171 C   0  0  0  0  0  0
  -27.2007  -28.7380   20.7117 C   0  0  0  0  0  0
  -26.0689  -26.9540   19.4927 C   0  0  0  0  0  0
  -24.8705  -27.6937   19.5072 C   0  0  0  0  0  0
  -23.6035  -29.8238   20.1667 C   0  0  0  0  0  0
  -25.4099  -36.3116   24.0339 C   0  0  1  0  0  0
  -20.5854  -28.3653   23.1323 C   0  0  2  0  0  0
  -20.6755  -26.9395   22.5418 C   0  0  0  0  0  0
  -19.5733  -26.6389   21.5211 C   0  0  0  0  0  0
  -18.1913  -26.7929   22.1633 C   0  0  0  0  0  0
  -19.1517  -28.8834   23.2912 C   0  0  0  0  0  0
  -18.9450  -30.1448   23.8916 C   0  0  0  0  0  0
  -17.6453  -30.6587   24.0558 C   0  0  0  0  0  0
  -25.9024  -34.9482   23.5140 C   0  0  0  0  0  0
  -16.5343  -29.9082   23.6336 C   0  0  0  0  0  0
  -16.7261  -28.6497   23.0354 C   0  0  0  0  0  0
  -26.4484  -31.6606   25.0711 C   0  0  0  0  0  0
  -25.3756  -31.3709   26.1458 C   0  0  0  0  0  0
  -27.0300  -30.3043   24.6070 C   0  0  0  0  0  0
  -27.6062  -32.4321   25.7475 C   0  0  0  0  0  0
  -27.5585  -37.1808   24.8477 C   0  0  0  0  0  0
  -21.4129  -29.3016   22.3729 N   0  0  0  0  0  0
  -26.4290  -37.3793   23.9426 N   0  0  0  0  0  0
  -24.6602  -31.0830   22.1019 N   0  0  0  0  0  0
  -23.4175  -28.8218   23.3039 O   0  0  0  0  0  0
  -28.3906  -26.7360   20.0703 O   0  0  0  0  0  0
  -26.5574  -34.8940   22.4698 O   0  0  0  0  0  0
  -23.5307  -32.1457   23.7556 O   0  0  0  0  0  0
  -27.9586  -24.2965   22.8677 C   0  0  0  0  0  0
  -27.6349  -25.2806   21.9130 C   0  0  0  0  0  0
  -29.9498  -25.3177   21.1820 C   0  0  0  0  0  0
  -29.2788  -23.8160   22.9932 C   0  0  0  0  0  0
  -30.2873  -24.3378   22.1403 C   0  0  0  0  0  0
  -28.6326  -25.7993   21.0530 C   0  0  0  0  0  0
  -28.8652  -19.3035   22.4678 C   0  0  0  0  0  0
  -31.3313  -19.5113   23.0765 C   0  0  0  0  0  0
  -28.6040  -20.5663   23.3261 C   0  0  0  0  0  0
  -30.9607  -20.7013   23.9731 C   0  0  0  0  0  0
  -30.1543  -18.5267   22.8438 C   0  0  1  0  0  0
  -31.7328  -23.8666   22.2066 C   0  0  0  0  0  0
  -29.5719  -22.7498   24.0455 C   0  0  0  0  0  0
  -30.8483  -15.2135   24.4459 C   0  0  0  0  0  0
  -30.1631  -14.5331   23.2411 C   0  0  0  0  0  0
  -31.1487  -16.7165   24.2734 C   0  0  0  0  0  0
  -30.7708  -14.9030   21.9587 N   0  0  0  0  0  0
  -29.8081  -21.4353   23.4007 N   0  3  2  0  0  0
  -29.9537  -17.5354   23.9416 N   0  3  0  0  0  0
  -31.4577  -12.3804   19.1107 H   0  0  0  0  0  0
  -30.3030  -11.2610   19.7545 H   0  0  0  0  0  0
  -29.7331  -11.8400   17.3908 H   0  0  0  0  0  0
  -29.6598  -13.5331   17.7950 H   0  0  0  0  0  0
  -27.8287  -11.3153   18.7875 H   0  0  0  0  0  0
  -27.3675  -12.6571   17.7703 H   0  0  0  0  0  0
  -27.7154  -14.2574   19.5849 H   0  0  0  0  0  0
  -28.6193  -11.9298   21.3468 H   0  0  0  0  0  0
  -28.3745  -13.5750   21.8166 H   0  0  0  0  0  0
  -25.2756   -9.5669   22.4670 H   0  0  0  0  0  0
  -23.9949   -7.4655   22.7481 H   0  0  0  0  0  0
  -21.0773   -8.8730   19.8964 H   0  0  0  0  0  0
  -22.3627  -10.9616   19.6107 H   0  0  0  0  0  0
  -21.2002   -7.6122   23.9635 H   0  0  0  0  0  0
  -21.1473   -6.0532   25.9054 H   0  0  0  0  0  0
  -22.0625   -2.7564   23.2847 H   0  0  0  0  0  0
  -22.4151  -11.9894   22.4754 H   0  0  0  0  0  0
  -21.1142  -13.1214   22.2620 H   0  0  0  0  0  0
  -24.6768  -15.8511   20.5085 H   0  0  0  0  0  0
  -26.2980  -15.6156   20.0912 H   0  0  0  0  0  0
  -26.7092  -32.5577   23.1167 H   0  0  0  0  0  0
  -25.0065  -33.9796   25.0499 H   0  0  0  0  0  0
  -22.6833  -31.3086   21.4138 H   0  0  0  0  0  0
  -23.3744  -35.9634   23.3318 H   0  0  0  0  0  0
  -24.3551  -36.8893   22.2045 H   0  0  0  0  0  0
  -23.7230  -37.6524   23.6625 H   0  0  0  0  0  0
  -26.0257  -31.6123   20.5926 H   0  0  0  0  0  0
  -26.8085  -30.9021   21.9797 H   0  0  0  0  0  0
  -28.0983  -29.1301   21.1698 H   0  0  0  0  0  0
  -26.0942  -25.9800   19.0262 H   0  0  0  0  0  0
  -23.9811  -27.2857   19.0462 H   0  0  0  0  0  0
  -23.7122  -30.5972   19.4043 H   0  0  0  0  0  0
  -22.7284  -29.2393   19.8744 H   0  0  0  0  0  0
  -25.1274  -36.1984   25.0827 H   0  0  0  0  0  0
  -20.9959  -28.3229   24.1431 H   0  0  0  0  0  0
  -20.5657  -26.2260   23.3598 H   0  0  0  0  0  0
  -21.6625  -26.7441   22.1208 H   0  0  0  0  0  0
  -19.6896  -25.6305   21.1220 H   0  0  0  0  0  0
  -19.6680  -27.3210   20.6742 H   0  0  0  0  0  0
  -17.4188  -26.6687   21.4030 H   0  0  0  0  0  0
  -18.0325  -26.0058   22.9010 H   0  0  0  0  0  0
  -19.7924  -30.7254   24.2300 H   0  0  0  0  0  0
  -17.5003  -31.6265   24.5149 H   0  0  0  0  0  0
  -15.5347  -30.2976   23.7642 H   0  0  0  0  0  0
  -15.8666  -28.0809   22.7068 H   0  0  0  0  0  0
  -24.5892  -30.7101   25.7804 H   0  0  0  0  0  0
  -24.8985  -32.2860   26.4976 H   0  0  0  0  0  0
  -25.8090  -30.8831   27.0188 H   0  0  0  0  0  0
  -26.2832  -29.6806   24.1134 H   0  0  0  0  0  0
  -27.4093  -29.7290   25.4535 H   0  0  0  0  0  0
  -27.8660  -30.4372   23.9191 H   0  0  0  0  0  0
  -27.2677  -33.3597   26.2112 H   0  0  0  0  0  0
  -28.3834  -32.6922   25.0272 H   0  0  0  0  0  0
  -28.0756  -31.8401   26.5344 H   0  0  0  0  0  0
  -28.2618  -38.0092   24.7501 H   0  0  0  0  0  0
  -28.1061  -36.2623   24.6315 H   0  0  0  0  0  0
  -27.2289  -37.1473   25.8874 H   0  0  0  0  0  0
  -20.9296  -29.8716   21.6932 H   0  0  0  0  0  0
  -26.0196  -38.2875   24.1420 H   0  0  0  0  0  0
  -27.1756  -23.9138   23.5066 H   0  0  0  0  0  0
  -26.6121  -25.6242   21.8558 H   0  0  0  0  0  0
  -30.7136  -25.7096   20.5235 H   0  0  0  0  0  0
  -28.9472  -19.6204   21.4278 H   0  0  0  0  0  0
  -27.9942  -18.6468   22.4936 H   0  0  0  0  0  0
  -32.2131  -19.0164   23.4791 H   0  0  0  0  0  0
  -31.6521  -19.8989   22.1095 H   0  0  0  0  0  0
  -28.2965  -20.2818   24.3341 H   0  0  0  0  0  0
  -27.7722  -21.1284   22.9000 H   0  0  0  0  0  0
  -31.8250  -21.3602   24.0626 H   0  0  0  0  0  0
  -30.7207  -20.3629   24.9838 H   0  0  0  0  0  0
  -30.4125  -17.9243   21.9690 H   0  0  0  0  0  0
  -32.3853  -24.5147   21.6183 H   0  0  0  0  0  0
  -31.8320  -22.8583   21.8012 H   0  0  0  0  0  0
  -32.1133  -23.8717   23.2287 H   0  0  0  0  0  0
  -28.7547  -22.6806   24.7645 H   0  0  0  0  0  0
  -30.4355  -23.0720   24.6294 H   0  0  0  0  0  0
  -31.7890  -14.6998   24.6538 H   0  0  0  0  0  0
  -30.2419  -15.0570   25.3388 H   0  0  0  0  0  0
  -29.1214  -14.8511   23.2441 H   0  0  0  0  0  0
  -30.1726  -13.4504   23.3787 H   0  0  0  0  0  0
  -31.9089  -16.8144   23.4983 H   0  0  0  0  0  0
  -31.6042  -17.1096   25.1832 H   0  0  0  0  0  0
  -31.4429  -15.6525   22.0077 H   0  0  0  0  0  0
  -30.0536  -21.6787   22.4526 H   0  0  0  0  0  0
  -29.2313  -16.8970   23.6448 H   0  0  0  0  0  0
  -29.6122  -17.9725   24.7846 H   0  0  0  0  0  0
  1 25  1  0  0  0
  1 30  2  0  0  0
  1 87  1  0  0  0
  2  3  1  0  0  0
  2 25  1  0  0  0
  2 90  1  0  0  0
  2 91  1  0  0  0
  3  4  1  0  0  0
  3 92  1  0  0  0
  3 93  1  0  0  0
  4  5  1  0  0  0
  4 94  1  0  0  0
  4 95  1  0  0  0
  5  6  1  0  0  0
  5 26  1  0  0  0
  5 96  1  0  0  0
  6 25  1  0  0  0
  6 97  1  0  0  0
  6 98  1  0  0  0
  7  8  2  0  0  0
  7 26  1  0  0  0
  7 29  1  0  0  0
  8  9  1  0  0  0
  8 22  1  0  0  0
  9 10  1  0  0  0
  9 27  2  0  0  0
 10 11  2  0  0  0
 10 15  1  0  0  0
 11 12  1  0  0  0
 11 99  1  0  0  0
 12 13  2  0  0  0
 12100  1  0  0  0
 13 14  1  0  0  0
 13 31  1  0  0  0
 14 15  2  0  0  0
 14101  1  0  0  0
 15102  1  0  0  0
 16 17  2  0  0  0
 16 21  1  0  0  0
 16 31  1  0  0  0
 17 18  1  0  0  0
 17103  1  0  0  0
 18 19  2  0  0  0
 18104  1  0  0  0
 19 20  1  0  0  0
 19 24  1  0  0  0
 20 21  2  0  0  0
 20105  1  0  0  0
 21 23  1  0  0  0
 22 28  1  0  0  0
 22 32  2  0  0  0
 26 27  1  0  0  0
 28106  1  0  0  0
 28107  1  0  0  0
 29108  1  0  0  0
 29109  1  0  0  0
 33 34  1  0  0  0
 33 66  1  0  0  0
 33 70  2  0  0  0
 34 36  1  0  0  0
 34 59  1  0  0  0
 34110  1  0  0  0
 35 44  2  0  0  0
 35 45  1  0  0  0
 35 68  1  0  0  0
 36 56  1  0  0  0
 36111  1  0  0  0
 37 39  1  0  0  0
 37 47  1  0  0  0
 37 66  1  0  0  0
 37112  1  0  0  0
 38 43  2  0  0  0
 38 46  1  0  0  0
 38 47  1  0  0  0
 39 64  1  0  0  0
 39 67  2  0  0  0
 40 52  1  0  0  0
 40 53  2  0  0  0
 40 58  1  0  0  0
 41113  1  0  0  0
 41114  1  0  0  0
 41115  1  0  0  0
 41 48  1  0  0  0
 42 43  1  0  0  0
 42 66  1  0  0  0
 42116  1  0  0  0
 42117  1  0  0  0
 43 44  1  0  0  0
 44118  1  0  0  0
 45 46  2  0  0  0
 45119  1  0  0  0
 46120  1  0  0  0
 47121  1  0  0  0
 47122  1  0  0  0
 48 56  1  0  0  0
 48 65  1  0  0  0
 48123  1  0  0  0
 49 50  1  0  0  0
 49 53  1  0  0  0
 49 64  1  0  0  0
 49124  1  0  0  0
 50 51  1  0  0  0
 50125  1  0  0  0
 50126  1  0  0  0
 51 52  1  0  0  0
 51127  1  0  0  0
 51128  1  0  0  0
 52129  1  0  0  0
 52130  1  0  0  0
 53 54  1  0  0  0
 54 55  2  0  0  0
 54131  1  0  0  0
 55 57  1  0  0  0
 55132  1  0  0  0
 56 69  2  0  0  0
 57 58  2  0  0  0
 57133  1  0  0  0
 58134  1  0  0  0
 59 60  1  0  0  0
 59 61  1  0  0  0
 59 62  1  0  0  0
 60135  1  0  0  0
 60136  1  0  0  0
 60137  1  0  0  0
 61138  1  0  0  0
 61139  1  0  0  0
 61140  1  0  0  0
 62141  1  0  0  0
 62142  1  0  0  0
 62143  1  0  0  0
 63 65  1  0  0  0
 63144  1  0  0  0
 63145  1  0  0  0
 63146  1  0  0  0
 64147  1  0  0  0
 65148  1  0  0  0
 68 76  1  0  0  0
 71 72  2  0  0  0
 71 74  1  0  0  0
 71149  1  0  0  0
 72 76  1  0  0  0
 72150  1  0  0  0
 73 75  1  0  0  0
 73 76  2  0  0  0
 73151  1  0  0  0
 74 75  2  0  0  0
 74 83  1  0  0  0
 75 82  1  0  0  0
 77 79  1  0  0  0
 77 81  1  0  0  0
 77152  1  0  0  0
 77153  1  0  0  0
 78 80  1  0  0  0
 78 81  1  0  0  0
 78154  1  0  0  0
 78155  1  0  0  0
 79 88  1  0  0  0
 79156  1  0  0  0
 79157  1  0  0  0
 80 88  1  0  0  0
 80158  1  0  0  0
 80159  1  0  0  0
 81 89  1  0  0  0
 81160  1  0  0  0
 82161  1  0  0  0
 82162  1  0  0  0
 82163  1  0  0  0
 83164  1  0  0  0
 83165  1  0  0  0
 83 88  1  0  0  0
 84 85  1  0  0  0
 84 86  1  0  0  0
 84166  1  0  0  0
 84167  1  0  0  0
 85 87  1  0  0  0
 85168  1  0  0  0
 85169  1  0  0  0
 86 89  1  0  0  0
 86170  1  0  0  0
 86171  1  0  0  0
 87172  1  0  0  0
 88173  1  0  0  0
 89174  1  0  0  0
 89175  1  0  0  0
M  CHG  2  88   1  89   1
M  ISO  4   1 100  68 101  76 101  87 100
M  END
> <chiral flag>
0

> <version>
0

> <s_m_source_file>
/data/baiqing/PycharmProjects/Reinvent-master-3.2/result/LINK_invent/BTK/process_docking_weight1_custom_sum_contain_oxygen_bond_distance_aromatic_linkinvent_7_9_3/rearranged_h_0130.sdf

> <i_m_source_file_index>
23

> <r_mmod_Potential_Energy-OPLS-2005>
-209.469940185547

> <r_mmod_Stretch_Energy-OPLS-2005>
36.5338554382324

> <r_mmod_Bend_Energy-OPLS-2005>
123.721298217773

> <r_mmod_Torsional_Energy-OPLS-2005>
311.706329345703

> <r_mmod_Improper_Torsional_Energy-OPLS-2005>
3.44953632354736

> <r_mmod_Van_der_Waal_Energy-OPLS-2005>
154.454162597656

> <r_mmod_Electrostatic_Energy-OPLS-2005>
157.0927734375

> <r_mmod_Solvation_Energy-OPLS-2005>
-1006.22601318359

> <b_mmod_Minimization_Converged-OPLS-2005>
0

> <r_mmod_RMS_Derivative-OPLS-2005>
3.4138514995575

$$$$
23
                    3D
 Structure written by MMmdl.
172181  0  0  1  0            999 V2000
  -30.6520  -14.5823   20.4890 C   0  0  0  0  0  0
  -30.4223  -12.3478   19.4654 C   0  0  0  0  0  0
  -29.5060  -12.4969   18.2322 C   0  0  0  0  0  0
  -28.0306  -12.3379   18.6461 C   0  0  0  0  0  0
  -27.6535  -13.2149   19.8689 C   0  0  2  0  0  0
  -28.6913  -13.0716   21.0067 C   0  0  0  0  0  0
  -25.2549  -13.8152   20.5690 C   0  0  0  0  0  0
  -24.1802  -13.0439   20.9155 C   0  0  0  0  0  0
  -24.6359  -11.6888   20.8712 C   0  0  0  0  0  0
  -23.9045  -10.4271   21.0396 C   0  0  0  0  0  0
  -24.3609   -9.4198   21.9185 C   0  0  0  0  0  0
  -23.6282   -8.2236   22.0761 C   0  0  0  0  0  0
  -22.4266   -8.0262   21.3555 C   0  0  0  0  0  0
  -21.9904   -9.0223   20.4644 C   0  0  0  0  0  0
  -22.7215  -10.2111   20.3049 C   0  0  0  0  0  0
  -21.6855   -6.0716   22.5263 C   0  0  0  0  0  0
  -21.4027   -6.5634   23.8185 C   0  0  0  0  0  0
  -21.3663   -5.6791   24.9156 C   0  0  0  0  0  0
  -21.6047   -4.3043   24.7209 C   0  0  0  0  0  0
  -21.8821   -3.8138   23.4323 C   0  0  0  0  0  0
  -21.9192   -4.6955   22.3387 C   0  0  0  0  0  0
  -22.7829  -13.5227   21.1845 C   0  0  0  0  0  0
  -22.1658   -4.2142   21.0960 F   0  0  0  0  0  0
  -21.5634   -3.4526   25.7728 F   0  0  0  0  0  0
  -30.0176  -13.3725   20.4459 N   0  0  0  0  0  0
  -26.2980  -12.9329   20.3340 N   0  0  0  0  0  0
  -25.9292  -11.6488   20.5761 N   0  0  0  0  0  0
  -22.0493  -12.8195   22.0387 N   0  0  0  0  0  0
  -25.4259  -15.1874   20.4095 N   0  0  0  0  0  0
  -31.8210  -14.7178   20.1162 O   0  0  0  0  0  0
  -21.6629   -6.8858   21.4232 O   0  0  0  0  0  0
  -22.3533  -14.5544   20.6703 O   0  0  0  0  0  0
  -24.6340  -31.8575   23.2000 C   0  0  0  0  0  0
  -25.9154  -32.4736   23.8392 C   0  0  1  0  0  0
  -27.2287  -27.3522   20.1263 C   0  0  0  0  0  0
  -25.5941  -33.8516   24.2279 N   0  0  0  0  0  0
  -23.4268  -30.4822   21.5382 C   0  0  2  0  0  0
  -24.8785  -28.9599   20.0811 C   0  0  0  0  0  0
  -22.7527  -29.4590   22.4828 C   0  0  0  0  0  0
  -18.0252  -28.1347   22.8406 C   0  0  0  0  0  0
  -24.1496  -36.7364   23.2646 C   0  0  0  0  0  0
  -25.9639  -30.8115   21.3639 C   0  0  0  0  0  0
  -26.0443  -29.4457   20.6943 C   0  0  0  0  0  0
  -27.2290  -28.6587   20.6959 C   0  0  0  0  0  0
  -26.0612  -26.9257   19.4571 C   0  0  0  0  0  0
  -24.8959  -27.7073   19.4425 C   0  0  0  0  0  0
  -23.6404  -29.8317   20.1473 C   0  0  0  0  0  0
  -25.4105  -36.3052   24.0313 C   0  0  1  0  0  0
  -20.5884  -28.3688   23.1192 C   0  0  2  0  0  0
  -20.6755  -26.9386   22.5406 C   0  0  0  0  0  0
  -19.5756  -26.6362   21.5158 C   0  0  0  0  0  0
  -18.1904  -26.7895   22.1527 C   0  0  0  0  0  0
  -19.1545  -28.8830   23.2778 C   0  0  0  0  0  0
  -18.9473  -30.1409   23.8820 C   0  0  0  0  0  0
  -17.6493  -30.6531   24.0550 C   0  0  0  0  0  0
  -25.9026  -34.9392   23.5099 C   0  0  0  0  0  0
  -16.5351  -29.9049   23.6341 C   0  0  0  0  0  0
  -16.7257  -28.6487   23.0308 C   0  0  0  0  0  0
  -26.4530  -31.6550   25.0768 C   0  0  0  0  0  0
  -25.3751  -31.3686   26.1507 C   0  0  0  0  0  0
  -27.0425  -30.2976   24.6214 C   0  0  0  0  0  0
  -27.6040  -32.4389   25.7538 C   0  0  0  0  0  0
  -27.5550  -37.1772   24.8438 C   0  0  0  0  0  0
  -21.4228  -29.3051   22.3608 N   0  0  0  0  0  0
  -26.4264  -37.3750   23.9406 N   0  0  0  0  0  0
  -24.6929  -31.0625   22.0923 N   0  0  0  0  0  0
  -23.4272  -28.8071   23.2849 O   0  0  0  0  0  0
  -28.2532  -26.4171   20.3368 O   0  0  0  0  0  0
  -26.5585  -34.8911   22.4640 O   0  0  0  0  0  0
  -23.5484  -32.1464   23.7252 O   0  0  0  0  0  0
  -29.0786  -21.6184   21.1772 C   0  0  0  0  0  0
  -28.1202  -25.1936   23.7438 C   0  0  0  0  0  0
  -29.2202  -24.3932   23.0511 C   0  0  0  0  0  0
  -27.5526  -26.0588   22.6099 C   0  0  0  0  0  0
  -30.7759  -18.4122   22.6209 C   0  0  0  0  0  0
  -31.4453  -19.3457   23.6203 C   0  0  0  0  0  0
  -31.3956  -21.2586   22.1351 C   0  0  0  0  0  0
  -30.2941  -20.5897   21.2225 C   0  0  1  0  0  0
  -28.5196  -24.0065   21.7455 C   0  0  1  0  0  0
  -27.7905  -25.3367   21.2408 C   0  0  2  0  0  0
  -29.6433  -16.9381   18.5970 C   0  0  0  0  0  0
  -29.2119  -18.2059   20.7566 C   0  0  0  0  0  0
  -30.0439  -17.0293   20.0817 C   0  0  1  0  0  0
  -29.9213  -19.1479   21.6686 N   0  0  0  0  0  0
  -29.2710  -22.9673   20.9637 N   0  0  0  0  0  0
  -29.8469  -15.6660   20.6794 N   0  0  0  0  0  0
  -32.2556  -20.3089   22.8682 N   0  3  0  0  0  0
  -27.9547  -21.1901   21.4562 O   0  0  0  0  0  0
  -31.4710  -12.4352   19.1816 H   0  0  0  0  0  0
  -30.3168  -11.3553   19.9007 H   0  0  0  0  0  0
  -29.7629  -11.7527   17.4772 H   0  0  0  0  0  0
  -29.6559  -13.4725   17.7675 H   0  0  0  0  0  0
  -27.8790  -11.2865   18.8944 H   0  0  0  0  0  0
  -27.3696  -12.5510   17.8062 H   0  0  0  0  0  0
  -27.6703  -14.2479   19.5232 H   0  0  0  0  0  0
  -28.6778  -12.0617   21.4174 H   0  0  0  0  0  0
  -28.4518  -13.7376   21.8380 H   0  0  0  0  0  0
  -25.2734   -9.5681   22.4756 H   0  0  0  0  0  0
  -23.9972   -7.4646   22.7503 H   0  0  0  0  0  0
  -21.0826   -8.8724   19.8943 H   0  0  0  0  0  0
  -22.3653  -10.9651   19.6153 H   0  0  0  0  0  0
  -21.2034   -7.6144   23.9691 H   0  0  0  0  0  0
  -21.1497   -6.0522   25.9062 H   0  0  0  0  0  0
  -22.0609   -2.7597   23.2817 H   0  0  0  0  0  0
  -22.4103  -11.9831   22.4702 H   0  0  0  0  0  0
  -21.1130  -13.1241   22.2663 H   0  0  0  0  0  0
  -24.6564  -15.8393   20.5036 H   0  0  0  0  0  0
  -26.2714  -15.6203   20.0633 H   0  0  0  0  0  0
  -26.7242  -32.5431   23.1173 H   0  0  0  0  0  0
  -25.0039  -33.9692   25.0399 H   0  0  0  0  0  0
  -22.7189  -31.3014   21.3965 H   0  0  0  0  0  0
  -23.3670  -35.9776   23.3284 H   0  0  0  0  0  0
  -24.3585  -36.9057   22.2078 H   0  0  0  0  0  0
  -23.7359  -37.6570   23.6730 H   0  0  0  0  0  0
  -26.0924  -31.5900   20.6069 H   0  0  0  0  0  0
  -26.8435  -30.8579   21.9960 H   0  0  0  0  0  0
  -28.1191  -29.0112   21.1984 H   0  0  0  0  0  0
  -26.0331  -25.9442   18.9977 H   0  0  0  0  0  0
  -24.0112  -27.3294   18.9491 H   0  0  0  0  0  0
  -23.7556  -30.6219   19.4022 H   0  0  0  0  0  0
  -22.7637  -29.2618   19.8422 H   0  0  0  0  0  0
  -25.1258  -36.1905   25.0799 H   0  0  0  0  0  0
  -20.9940  -28.3262   24.1337 H   0  0  0  0  0  0
  -20.5663  -26.2247   23.3601 H   0  0  0  0  0  0
  -21.6593  -26.7447   22.1174 H   0  0  0  0  0  0
  -19.7015  -25.6285   21.1199 H   0  0  0  0  0  0
  -19.6718  -27.3113   20.6620 H   0  0  0  0  0  0
  -17.4204  -26.6581   21.3905 H   0  0  0  0  0  0
  -18.0304  -26.0055   22.8960 H   0  0  0  0  0  0
  -19.7990  -30.7169   24.2189 H   0  0  0  0  0  0
  -17.5080  -31.6220   24.5108 H   0  0  0  0  0  0
  -15.5349  -30.2915   23.7736 H   0  0  0  0  0  0
  -15.8644  -28.0812   22.7010 H   0  0  0  0  0  0
  -24.5923  -30.7038   25.7864 H   0  0  0  0  0  0
  -24.8952  -32.2824   26.4996 H   0  0  0  0  0  0
  -25.8118  -30.8871   27.0268 H   0  0  0  0  0  0
  -26.3026  -29.6566   24.1391 H   0  0  0  0  0  0
  -27.4304  -29.7379   25.4716 H   0  0  0  0  0  0
  -27.8795  -30.4272   23.9354 H   0  0  0  0  0  0
  -27.2601  -33.3732   26.2027 H   0  0  0  0  0  0
  -28.3861  -32.6904   25.0360 H   0  0  0  0  0  0
  -28.0694  -31.8627   26.5552 H   0  0  0  0  0  0
  -28.2456  -38.0130   24.7430 H   0  0  0  0  0  0
  -28.1127  -36.2635   24.6286 H   0  0  0  0  0  0
  -27.2284  -37.1445   25.8834 H   0  0  0  0  0  0
  -20.9406  -29.8952   21.6982 H   0  0  0  0  0  0
  -26.0132  -38.2819   24.1399 H   0  0  0  0  0  0
  -28.4654  -25.7736   24.6051 H   0  0  0  0  0  0
  -27.3468  -24.5201   24.1148 H   0  0  0  0  0  0
  -29.5258  -23.5376   23.6536 H   0  0  0  0  0  0
  -30.1033  -25.0053   22.8641 H   0  0  0  0  0  0
  -28.1125  -26.9926   22.6340 H   0  0  0  0  0  0
  -26.5006  -26.3117   22.7620 H   0  0  0  0  0  0
  -30.1643  -17.6950   23.1771 H   0  0  0  0  0  0
  -31.5523  -17.8278   22.1227 H   0  0  0  0  0  0
  -32.0709  -18.7711   24.2984 H   0  0  0  0  0  0
  -30.7029  -19.8500   24.2390 H   0  0  0  0  0  0
  -30.9479  -21.8934   22.9042 H   0  0  0  0  0  0
  -32.0328  -21.9193   21.5418 H   0  0  0  0  0  0
  -30.7115  -20.5097   20.2169 H   0  0  0  0  0  0
  -27.6404  -23.4553   22.0815 H   0  0  0  0  0  0
  -26.8300  -24.9683   20.8709 H   0  0  0  0  0  0
  -29.7565  -17.8999   18.0966 H   0  0  0  0  0  0
  -28.6030  -16.6316   18.4896 H   0  0  0  0  0  0
  -30.2584  -16.2226   18.0495 H   0  0  0  0  0  0
  -28.3595  -17.7735   21.2866 H   0  0  0  0  0  0
  -28.7593  -18.8249   19.9773 H   0  0  0  0  0  0
  -31.1063  -17.2712   20.0814 H   0  0  0  0  0  0
  -30.1428  -23.2762   20.5513 H   0  0  0  0  0  0
  -28.9132  -15.4476   20.9909 H   0  0  0  0  0  0
  -32.8496  -19.8115   22.2240 H   0  0  0  0  0  0
  -32.8398  -20.8181   23.5123 H   0  0  0  0  0  0
  1 25  1  0  0  0
  1 30  2  0  0  0
  1 86  1  0  0  0
  2  3  1  0  0  0
  2 25  1  0  0  0
  2 89  1  0  0  0
  2 90  1  0  0  0
  3  4  1  0  0  0
  3 91  1  0  0  0
  3 92  1  0  0  0
  4  5  1  0  0  0
  4 93  1  0  0  0
  4 94  1  0  0  0
  5  6  1  0  0  0
  5 26  1  0  0  0
  5 95  1  0  0  0
  6 25  1  0  0  0
  6 96  1  0  0  0
  6 97  1  0  0  0
  7  8  2  0  0  0
  7 26  1  0  0  0
  7 29  1  0  0  0
  8  9  1  0  0  0
  8 22  1  0  0  0
  9 10  1  0  0  0
  9 27  2  0  0  0
 10 11  2  0  0  0
 10 15  1  0  0  0
 11 12  1  0  0  0
 11 98  1  0  0  0
 12 13  2  0  0  0
 12 99  1  0  0  0
 13 14  1  0  0  0
 13 31  1  0  0  0
 14 15  2  0  0  0
 14100  1  0  0  0
 15101  1  0  0  0
 16 17  2  0  0  0
 16 21  1  0  0  0
 16 31  1  0  0  0
 17 18  1  0  0  0
 17102  1  0  0  0
 18 19  2  0  0  0
 18103  1  0  0  0
 19 20  1  0  0  0
 19 24  1  0  0  0
 20 21  2  0  0  0
 20104  1  0  0  0
 21 23  1  0  0  0
 22 28  1  0  0  0
 22 32  2  0  0  0
 26 27  1  0  0  0
 28105  1  0  0  0
 28106  1  0  0  0
 29107  1  0  0  0
 29108  1  0  0  0
 33 34  1  0  0  0
 33 66  1  0  0  0
 33 70  2  0  0  0
 34 36  1  0  0  0
 34 59  1  0  0  0
 34109  1  0  0  0
 35 44  2  0  0  0
 35 45  1  0  0  0
 35 68  1  0  0  0
 36 56  1  0  0  0
 36110  1  0  0  0
 37 39  1  0  0  0
 37 47  1  0  0  0
 37 66  1  0  0  0
 37111  1  0  0  0
 38 43  2  0  0  0
 38 46  1  0  0  0
 38 47  1  0  0  0
 39 64  1  0  0  0
 39 67  2  0  0  0
 40 52  1  0  0  0
 40 53  2  0  0  0
 40 58  1  0  0  0
 41112  1  0  0  0
 41113  1  0  0  0
 41114  1  0  0  0
 41 48  1  0  0  0
 42 43  1  0  0  0
 42 66  1  0  0  0
 42115  1  0  0  0
 42116  1  0  0  0
 43 44  1  0  0  0
 44117  1  0  0  0
 45 46  2  0  0  0
 45118  1  0  0  0
 46119  1  0  0  0
 47120  1  0  0  0
 47121  1  0  0  0
 48 56  1  0  0  0
 48 65  1  0  0  0
 48122  1  0  0  0
 49 50  1  0  0  0
 49 53  1  0  0  0
 49 64  1  0  0  0
 49123  1  0  0  0
 50 51  1  0  0  0
 50124  1  0  0  0
 50125  1  0  0  0
 51 52  1  0  0  0
 51126  1  0  0  0
 51127  1  0  0  0
 52128  1  0  0  0
 52129  1  0  0  0
 53 54  1  0  0  0
 54 55  2  0  0  0
 54130  1  0  0  0
 55 57  1  0  0  0
 55131  1  0  0  0
 56 69  2  0  0  0
 57 58  2  0  0  0
 57132  1  0  0  0
 58133  1  0  0  0
 59 60  1  0  0  0
 59 61  1  0  0  0
 59 62  1  0  0  0
 60134  1  0  0  0
 60135  1  0  0  0
 60136  1  0  0  0
 61137  1  0  0  0
 61138  1  0  0  0
 61139  1  0  0  0
 62140  1  0  0  0
 62141  1  0  0  0
 62142  1  0  0  0
 63 65  1  0  0  0
 63143  1  0  0  0
 63144  1  0  0  0
 63145  1  0  0  0
 64146  1  0  0  0
 65147  1  0  0  0
 68 80  1  0  0  0
 71 85  1  0  0  0
 71 88  2  0  0  0
 71 78  1  0  0  0
 72 73  1  0  0  0
 72 74  1  0  0  0
 72148  1  0  0  0
 72149  1  0  0  0
 73 79  1  0  0  0
 73150  1  0  0  0
 73151  1  0  0  0
 74 80  1  0  0  0
 74152  1  0  0  0
 74153  1  0  0  0
 75 76  1  0  0  0
 75 84  1  0  0  0
 75154  1  0  0  0
 75155  1  0  0  0
 76 87  1  0  0  0
 76156  1  0  0  0
 76157  1  0  0  0
 77 78  1  0  0  0
 77 87  1  0  0  0
 77158  1  0  0  0
 77159  1  0  0  0
 78 84  1  0  0  0
 78160  1  0  0  0
 79 80  1  0  0  0
 79 85  1  0  0  0
 79161  1  0  0  0
 80162  1  0  0  0
 81163  1  0  0  0
 81164  1  0  0  0
 81165  1  0  0  0
 81 83  1  0  0  0
 82 83  1  0  0  0
 82 84  1  0  0  0
 82166  1  0  0  0
 82167  1  0  0  0
 83 86  1  0  0  0
 83168  1  0  0  0
 85169  1  0  0  0
 86170  1  0  0  0
 87171  1  0  0  0
 87172  1  0  0  0
M  CHG  1  87   1
M  ISO  4   1 100  68 101  80 101  86 100
M  END
> <chiral flag>
0

> <version>
0

> <s_m_source_file>
/data/baiqing/PycharmProjects/Reinvent-master-3.2/result/LINK_invent/BTK/process_docking_weight1_custom_sum_contain_oxygen_bond_distance_aromatic_linkinvent_7_9_3/rearranged_h_0130.sdf

> <i_m_source_file_index>
24

> <r_mmod_Potential_Energy-OPLS-2005>
80.6753387451172

> <r_mmod_Stretch_Energy-OPLS-2005>
93.6960296630859

> <r_mmod_Bend_Energy-OPLS-2005>
252.465255737305

> <r_mmod_Torsional_Energy-OPLS-2005>
363.189483642578

> <r_mmod_Improper_Torsional_Energy-OPLS-2005>
11.4340181350708

> <r_mmod_Van_der_Waal_Energy-OPLS-2005>
145.009216308594

> <r_mmod_Electrostatic_Energy-OPLS-2005>
-338.662719726562

> <r_mmod_Solvation_Energy-OPLS-2005>
-499.353820800781

> <b_mmod_Minimization_Converged-OPLS-2005>
0

> <r_mmod_RMS_Derivative-OPLS-2005>
7.46302175521851

$$$$
24
                    3D
 Structure written by MMmdl.
187195  0  0  1  0            999 V2000
  -30.5136  -14.9714   20.4457 C   0  0  0  0  0  0
  -30.4433  -12.6145   19.4925 C   0  0  0  0  0  0
  -29.5221  -12.5494   18.2527 C   0  0  0  0  0  0
  -28.0531  -12.3316   18.6635 C   0  0  0  0  0  0
  -27.6248  -13.2528   19.8349 C   0  0  2  0  0  0
  -28.6667  -13.2760   20.9710 C   0  0  0  0  0  0
  -25.2470  -13.8209   20.5780 C   0  0  0  0  0  0
  -24.1772  -13.0418   20.9221 C   0  0  0  0  0  0
  -24.6402  -11.6905   20.8714 C   0  0  0  0  0  0
  -23.9063  -10.4287   21.0390 C   0  0  0  0  0  0
  -24.3610   -9.4205   21.9161 C   0  0  0  0  0  0
  -23.6288   -8.2249   22.0749 C   0  0  0  0  0  0
  -22.4270   -8.0282   21.3543 C   0  0  0  0  0  0
  -21.9901   -9.0245   20.4646 C   0  0  0  0  0  0
  -22.7231  -10.2117   20.3041 C   0  0  0  0  0  0
  -21.6874   -6.0730   22.5265 C   0  0  0  0  0  0
  -21.4022   -6.5632   23.8202 C   0  0  0  0  0  0
  -21.3657   -5.6782   24.9159 C   0  0  0  0  0  0
  -21.6050   -4.3044   24.7218 C   0  0  0  0  0  0
  -21.8819   -3.8135   23.4345 C   0  0  0  0  0  0
  -21.9199   -4.6961   22.3399 C   0  0  0  0  0  0
  -22.7803  -13.5205   21.1875 C   0  0  0  0  0  0
  -22.1676   -4.2141   21.0978 F   0  0  0  0  0  0
  -21.5621   -3.4534   25.7735 F   0  0  0  0  0  0
  -29.9356  -13.7050   20.3712 N   0  0  0  0  0  0
  -26.2867  -12.9445   20.3215 N   0  0  0  0  0  0
  -25.9322  -11.6560   20.5661 N   0  0  0  0  0  0
  -22.0463  -12.8161   22.0426 N   0  0  0  0  0  0
  -25.4146  -15.1955   20.4408 N   0  0  0  0  0  0
  -31.7275  -15.0520   20.2280 O   0  0  0  0  0  0
  -21.6643   -6.8872   21.4235 O   0  0  0  0  0  0
  -22.3478  -14.5501   20.6730 O   0  0  0  0  0  0
  -24.6440  -31.8431   23.1870 C   0  0  0  0  0  0
  -25.9216  -32.4683   23.8260 C   0  0  1  0  0  0
  -27.2121  -27.1310   20.1579 C   0  0  0  0  0  0
  -25.5960  -33.8494   24.2191 N   0  0  0  0  0  0
  -23.4465  -30.4610   21.5347 C   0  0  2  0  0  0
  -24.8947  -28.8825   20.1137 C   0  0  0  0  0  0
  -22.7557  -29.4543   22.4890 C   0  0  0  0  0  0
  -18.0305  -28.1396   22.8500 C   0  0  0  0  0  0
  -24.1502  -36.7263   23.2642 C   0  0  0  0  0  0
  -26.0012  -30.7121   21.3872 C   0  0  0  0  0  0
  -26.0699  -29.3189   20.7390 C   0  0  0  0  0  0
  -27.2321  -28.4597   20.7444 C   0  0  0  0  0  0
  -26.0204  -26.7981   19.4844 C   0  0  0  0  0  0
  -24.8849  -27.6373   19.4643 C   0  0  0  0  0  0
  -23.6705  -29.7850   20.1556 C   0  0  0  0  0  0
  -25.4129  -36.3032   24.0315 C   0  0  1  0  0  0
  -20.5908  -28.3722   23.1258 C   0  0  2  0  0  0
  -20.6793  -26.9424   22.5423 C   0  0  0  0  0  0
  -19.5763  -26.6396   21.5232 C   0  0  0  0  0  0
  -18.1940  -26.7936   22.1630 C   0  0  0  0  0  0
  -19.1558  -28.8878   23.2865 C   0  0  0  0  0  0
  -18.9457  -30.1478   23.8886 C   0  0  0  0  0  0
  -17.6456  -30.6594   24.0564 C   0  0  0  0  0  0
  -25.9077  -34.9404   23.5059 C   0  0  0  0  0  0
  -16.5350  -29.9074   23.6332 C   0  0  0  0  0  0
  -16.7286  -28.6493   23.0367 C   0  0  0  0  0  0
  -26.4539  -31.6528   25.0686 C   0  0  0  0  0  0
  -25.3719  -31.3702   26.1369 C   0  0  0  0  0  0
  -27.0380  -30.2919   24.6252 C   0  0  0  0  0  0
  -27.6107  -32.4258   25.7443 C   0  0  0  0  0  0
  -27.5583  -37.1784   24.8457 C   0  0  0  0  0  0
  -21.4251  -29.3034   22.3622 N   0  0  0  0  0  0
  -26.4297  -37.3734   23.9399 N   0  0  0  0  0  0
  -24.7171  -31.0276   22.0910 N   0  0  0  0  0  0
  -23.4196  -28.8111   23.3055 O   0  0  0  0  0  0
  -28.2812  -26.1697   20.1117 O   0  0  0  0  0  0
  -26.5659  -34.8892   22.4637 O   0  0  0  0  0  0
  -23.5563  -32.1331   23.7081 O   0  0  0  0  0  0
  -29.5798  -17.4987   14.5474 C   0  0  0  0  0  0
  -28.1682  -19.3681   15.2940 C   0  0  0  0  0  0
  -29.1848  -16.6223   15.7576 C   0  0  2  0  0  0
  -27.8246  -17.0699   16.3678 C   0  0  1  0  0  0
  -27.7627  -18.6208   16.5799 C   0  0  1  0  0  0
  -30.3256  -16.5252   16.7889 C   0  0  0  0  0  0
  -24.8068  -16.2894   17.2524 C   0  0  0  0  0  0
  -24.8505  -14.7666   15.2419 C   0  0  0  0  0  0
  -27.0920  -23.1523   19.0585 C   0  0  0  0  0  0
  -26.6342  -16.5572   15.5056 C   0  0  0  0  0  0
  -29.1577  -21.8966   20.0833 C   0  0  0  0  0  0
  -29.9022  -17.6741   20.9012 C   0  0  0  0  0  0
  -28.2860  -18.6350   19.0210 C   0  0  0  0  0  0
  -28.2482  -24.7672   20.7861 C   0  0  0  0  0  0
  -25.7045  -15.5662   16.2374 C   0  0  0  0  0  0
  -28.0363  -23.1564   20.2681 C   0  0  1  0  0  0
  -29.3988  -19.0318   20.0104 C   0  0  1  0  0  0
  -29.6955  -16.1304   20.5711 N   0  0  0  0  0  0
  -28.6197  -19.0999   17.6768 N   0  0  0  0  0  0
  -28.9819  -20.4210   20.6966 N   0  0  0  0  0  0
  -29.5179  -18.9336   14.8900 N   0  3  0  0  0  0
  -31.4728  -12.7996   19.1808 H   0  0  0  0  0  0
  -30.4549  -11.6619   20.0236 H   0  0  0  0  0  0
  -29.8453  -11.7595   17.5757 H   0  0  0  0  0  0
  -29.6071  -13.4848   17.6967 H   0  0  0  0  0  0
  -27.9399  -11.2869   18.9513 H   0  0  0  0  0  0
  -27.3965  -12.4848   17.8065 H   0  0  0  0  0  0
  -27.5816  -14.2571   19.4130 H   0  0  0  0  0  0
  -28.7585  -12.2958   21.4427 H   0  0  0  0  0  0
  -28.3607  -13.9675   21.7561 H   0  0  0  0  0  0
  -25.2759   -9.5677   22.4724 H   0  0  0  0  0  0
  -24.0000   -7.4639   22.7465 H   0  0  0  0  0  0
  -21.0845   -8.8747   19.8941 H   0  0  0  0  0  0
  -22.3701  -10.9639   19.6139 H   0  0  0  0  0  0
  -21.2006   -7.6134   23.9690 H   0  0  0  0  0  0
  -21.1491   -6.0522   25.9058 H   0  0  0  0  0  0
  -22.0600   -2.7603   23.2847 H   0  0  0  0  0  0
  -22.4126  -11.9842   22.4782 H   0  0  0  0  0  0
  -21.1080  -13.1160   22.2631 H   0  0  0  0  0  0
  -24.6352  -15.8327   20.5513 H   0  0  0  0  0  0
  -26.2379  -15.6405   20.0632 H   0  0  0  0  0  0
  -26.7266  -32.5292   23.0972 H   0  0  0  0  0  0
  -25.0096  -33.9611   25.0333 H   0  0  0  0  0  0
  -22.7486  -31.2871   21.3810 H   0  0  0  0  0  0
  -23.3770  -35.9581   23.3262 H   0  0  0  0  0  0
  -24.3606  -36.8947   22.2068 H   0  0  0  0  0  0
  -23.7250  -37.6443   23.6711 H   0  0  0  0  0  0
  -26.1568  -31.4603   20.6079 H   0  0  0  0  0  0
  -26.8705  -30.7679   22.0302 H   0  0  0  0  0  0
  -28.1335  -28.7962   21.2375 H   0  0  0  0  0  0
  -25.9665  -25.8588   18.9547 H   0  0  0  0  0  0
  -23.9985  -27.3122   18.9361 H   0  0  0  0  0  0
  -23.7973  -30.5578   19.3972 H   0  0  0  0  0  0
  -22.7855  -29.2225   19.8529 H   0  0  0  0  0  0
  -25.1321  -36.1863   25.0807 H   0  0  0  0  0  0
  -21.0004  -28.3327   24.1374 H   0  0  0  0  0  0
  -20.5731  -26.2318   23.3641 H   0  0  0  0  0  0
  -21.6655  -26.7460   22.1192 H   0  0  0  0  0  0
  -19.6926  -25.6307   21.1266 H   0  0  0  0  0  0
  -19.6711  -27.3210   20.6768 H   0  0  0  0  0  0
  -17.4221  -26.6718   21.4018 H   0  0  0  0  0  0
  -18.0312  -26.0071   22.9014 H   0  0  0  0  0  0
  -19.7921  -30.7315   24.2249 H   0  0  0  0  0  0
  -17.4982  -31.6267   24.5169 H   0  0  0  0  0  0
  -15.5345  -30.2961   23.7656 H   0  0  0  0  0  0
  -15.8690  -28.0795   22.7092 H   0  0  0  0  0  0
  -24.5996  -30.6926   25.7702 H   0  0  0  0  0  0
  -24.8773  -32.2850   26.4640 H   0  0  0  0  0  0
  -25.8005  -30.9026   27.0240 H   0  0  0  0  0  0
  -26.2973  -29.6634   24.1293 H   0  0  0  0  0  0
  -27.4029  -29.7217   25.4804 H   0  0  0  0  0  0
  -27.8869  -30.4135   23.9520 H   0  0  0  0  0  0
  -27.2800  -33.3665   26.1842 H   0  0  0  0  0  0
  -28.3997  -32.6613   25.0290 H   0  0  0  0  0  0
  -28.0655  -31.8460   26.5482 H   0  0  0  0  0  0
  -28.2575  -38.0106   24.7509 H   0  0  0  0  0  0
  -28.1112  -36.2636   24.6274 H   0  0  0  0  0  0
  -27.2297  -37.1402   25.8858 H   0  0  0  0  0  0
  -20.9471  -29.8710   21.6768 H   0  0  0  0  0  0
  -26.0175  -38.2806   24.1376 H   0  0  0  0  0  0
  -28.9059  -17.3110   13.7103 H   0  0  0  0  0  0
  -30.5792  -17.2426   14.1973 H   0  0  0  0  0  0
  -28.1699  -20.4478   15.4585 H   0  0  0  0  0  0
  -27.4643  -19.1779   14.4834 H   0  0  0  0  0  0
  -29.0631  -15.6008   15.3937 H   0  0  0  0  0  0
  -27.7251  -16.5647   17.3252 H   0  0  0  0  0  0
  -26.7303  -18.8913   16.8133 H   0  0  0  0  0  0
  -30.6231  -17.4953   17.1831 H   0  0  0  0  0  0
  -31.2139  -16.0752   16.3444 H   0  0  0  0  0  0
  -30.0375  -15.9032   17.6357 H   0  0  0  0  0  0
  -24.1870  -15.5808   17.8037 H   0  0  0  0  0  0
  -24.1398  -16.9953   16.7561 H   0  0  0  0  0  0
  -25.3932  -16.8455   17.9834 H   0  0  0  0  0  0
  -24.2006  -14.0592   15.7588 H   0  0  0  0  0  0
  -25.4756  -14.1905   14.5588 H   0  0  0  0  0  0
  -24.2191  -15.4215   14.6402 H   0  0  0  0  0  0
  -26.8328  -22.1397   18.7500 H   0  0  0  0  0  0
  -27.5503  -23.6522   18.2056 H   0  0  0  0  0  0
  -26.1573  -23.6636   19.2874 H   0  0  0  0  0  0
  -27.0134  -16.0682   14.6077 H   0  0  0  0  0  0
  -26.0360  -17.3879   15.1295 H   0  0  0  0  0  0
  -30.1097  -22.2861   20.4452 H   0  0  0  0  0  0
  -29.3245  -21.7990   19.0109 H   0  0  0  0  0  0
  -29.4723  -17.7866   21.8972 H   0  0  0  0  0  0
  -30.9736  -17.7950   21.0611 H   0  0  0  0  0  0
  -27.3180  -19.0297   19.3346 H   0  0  0  0  0  0
  -28.1757  -17.5549   19.0433 H   0  0  0  0  0  0
  -29.1593  -24.7514   21.3817 H   0  0  0  0  0  0
  -27.4744  -24.9073   21.5431 H   0  0  0  0  0  0
  -26.3202  -14.8427   16.7750 H   0  0  0  0  0  0
  -27.4313  -22.7582   21.0853 H   0  0  0  0  0  0
  -30.2865  -19.2461   19.4125 H   0  0  0  0  0  0
  -28.7224  -15.8725   20.6218 H   0  0  0  0  0  0
  -28.6152  -20.1203   17.7036 H   0  0  0  0  0  0
  -29.3304  -20.4270   21.6567 H   0  0  0  0  0  0
  -29.8412  -19.4875   14.1148 H   0  0  0  0  0  0
  -30.1164  -19.1005   15.6838 H   0  0  0  0  0  0
  1 25  1  0  0  0
  1 30  2  0  0  0
  1 88  1  0  0  0
  2  3  1  0  0  0
  2 25  1  0  0  0
  2 92  1  0  0  0
  2 93  1  0  0  0
  3  4  1  0  0  0
  3 94  1  0  0  0
  3 95  1  0  0  0
  4  5  1  0  0  0
  4 96  1  0  0  0
  4 97  1  0  0  0
  5  6  1  0  0  0
  5 26  1  0  0  0
  5 98  1  0  0  0
  6 25  1  0  0  0
  6 99  1  0  0  0
  6100  1  0  0  0
  7  8  2  0  0  0
  7 26  1  0  0  0
  7 29  1  0  0  0
  8  9  1  0  0  0
  8 22  1  0  0  0
  9 10  1  0  0  0
  9 27  2  0  0  0
 10 11  2  0  0  0
 10 15  1  0  0  0
 11 12  1  0  0  0
 11101  1  0  0  0
 12 13  2  0  0  0
 12102  1  0  0  0
 13 14  1  0  0  0
 13 31  1  0  0  0
 14 15  2  0  0  0
 14103  1  0  0  0
 15104  1  0  0  0
 16 17  2  0  0  0
 16 21  1  0  0  0
 16 31  1  0  0  0
 17 18  1  0  0  0
 17105  1  0  0  0
 18 19  2  0  0  0
 18106  1  0  0  0
 19 20  1  0  0  0
 19 24  1  0  0  0
 20 21  2  0  0  0
 20107  1  0  0  0
 21 23  1  0  0  0
 22 28  1  0  0  0
 22 32  2  0  0  0
 26 27  1  0  0  0
 28108  1  0  0  0
 28109  1  0  0  0
 29110  1  0  0  0
 29111  1  0  0  0
 33 34  1  0  0  0
 33 66  1  0  0  0
 33 70  2  0  0  0
 34 36  1  0  0  0
 34 59  1  0  0  0
 34112  1  0  0  0
 35 44  2  0  0  0
 35 45  1  0  0  0
 35 68  1  0  0  0
 36 56  1  0  0  0
 36113  1  0  0  0
 37 39  1  0  0  0
 37 47  1  0  0  0
 37 66  1  0  0  0
 37114  1  0  0  0
 38 43  2  0  0  0
 38 46  1  0  0  0
 38 47  1  0  0  0
 39 64  1  0  0  0
 39 67  2  0  0  0
 40 52  1  0  0  0
 40 53  2  0  0  0
 40 58  1  0  0  0
 41115  1  0  0  0
 41116  1  0  0  0
 41117  1  0  0  0
 41 48  1  0  0  0
 42 43  1  0  0  0
 42 66  1  0  0  0
 42118  1  0  0  0
 42119  1  0  0  0
 43 44  1  0  0  0
 44120  1  0  0  0
 45 46  2  0  0  0
 45121  1  0  0  0
 46122  1  0  0  0
 47123  1  0  0  0
 47124  1  0  0  0
 48 56  1  0  0  0
 48 65  1  0  0  0
 48125  1  0  0  0
 49 50  1  0  0  0
 49 53  1  0  0  0
 49 64  1  0  0  0
 49126  1  0  0  0
 50 51  1  0  0  0
 50127  1  0  0  0
 50128  1  0  0  0
 51 52  1  0  0  0
 51129  1  0  0  0
 51130  1  0  0  0
 52131  1  0  0  0
 52132  1  0  0  0
 53 54  1  0  0  0
 54 55  2  0  0  0
 54133  1  0  0  0
 55 57  1  0  0  0
 55134  1  0  0  0
 56 69  2  0  0  0
 57 58  2  0  0  0
 57135  1  0  0  0
 58136  1  0  0  0
 59 60  1  0  0  0
 59 61  1  0  0  0
 59 62  1  0  0  0
 60137  1  0  0  0
 60138  1  0  0  0
 60139  1  0  0  0
 61140  1  0  0  0
 61141  1  0  0  0
 61142  1  0  0  0
 62143  1  0  0  0
 62144  1  0  0  0
 62145  1  0  0  0
 63 65  1  0  0  0
 63146  1  0  0  0
 63147  1  0  0  0
 63148  1  0  0  0
 64149  1  0  0  0
 65150  1  0  0  0
 68 84  1  0  0  0
 71 73  1  0  0  0
 71 91  1  0  0  0
 71151  1  0  0  0
 71152  1  0  0  0
 72 75  1  0  0  0
 72 91  1  0  0  0
 72153  1  0  0  0
 72154  1  0  0  0
 73 74  1  0  0  0
 73 76  1  0  0  0
 73155  1  0  0  0
 74 75  1  0  0  0
 74 80  1  0  0  0
 74156  1  0  0  0
 75 89  1  0  0  0
 75157  1  0  0  0
 76158  1  0  0  0
 76159  1  0  0  0
 76160  1  0  0  0
 77161  1  0  0  0
 77162  1  0  0  0
 77163  1  0  0  0
 77 85  1  0  0  0
 78 85  1  0  0  0
 78164  1  0  0  0
 78165  1  0  0  0
 78166  1  0  0  0
 79167  1  0  0  0
 79168  1  0  0  0
 79169  1  0  0  0
 79 86  1  0  0  0
 80 85  1  0  0  0
 80170  1  0  0  0
 80171  1  0  0  0
 81 86  1  0  0  0
 81 90  1  0  0  0
 81172  1  0  0  0
 81173  1  0  0  0
 82 88  1  0  0  0
 82174  1  0  0  0
 82175  1  0  0  0
 82 87  1  0  0  0
 83 87  1  0  0  0
 83 89  1  0  0  0
 83176  1  0  0  0
 83177  1  0  0  0
 84 86  1  0  0  0
 84178  1  0  0  0
 84179  1  0  0  0
 85180  1  0  0  0
 86181  1  0  0  0
 87 90  1  0  0  0
 87182  1  0  0  0
 88183  1  0  0  0
 89184  1  0  0  0
 90185  1  0  0  0
 91186  1  0  0  0
 91187  1  0  0  0
M  CHG  1  91   1
M  ISO  4   1 100  68 101  84 101  88 100
M  END
> <chiral flag>
0

> <version>
0

> <s_m_source_file>
/data/baiqing/PycharmProjects/Reinvent-master-3.2/result/LINK_invent/BTK/process_docking_weight1_custom_sum_contain_oxygen_bond_distance_aromatic_linkinvent_7_9_3/rearranged_h_0130.sdf

> <i_m_source_file_index>
25

> <r_mmod_Potential_Energy-OPLS-2005>
505.698211669922

> <r_mmod_Stretch_Energy-OPLS-2005>
296.603057861328

> <r_mmod_Bend_Energy-OPLS-2005>
350.578552246094

> <r_mmod_Torsional_Energy-OPLS-2005>
383.473052978516

> <r_mmod_Improper_Torsional_Energy-OPLS-2005>
4.62511682510376

> <r_mmod_Van_der_Waal_Energy-OPLS-2005>
97.6972503662109

> <r_mmod_Electrostatic_Energy-OPLS-2005>
-384.295013427734

> <r_mmod_Solvation_Energy-OPLS-2005>
-443.003295898438

> <b_mmod_Minimization_Converged-OPLS-2005>
0

> <r_mmod_RMS_Derivative-OPLS-2005>
2.96747279167175

$$$$
25
                    3D
 Structure written by MMmdl.
162171  0  0  1  0            999 V2000
  -30.6933  -14.4819   20.5670 C   0  0  0  0  0  0
  -30.4253  -12.3094   19.4221 C   0  0  0  0  0  0
  -29.4948  -12.5039   18.2064 C   0  0  0  0  0  0
  -28.0167  -12.3610   18.6196 C   0  0  0  0  0  0
  -27.6620  -13.2036   19.8739 C   0  0  2  0  0  0
  -28.7038  -12.9850   20.9946 C   0  0  0  0  0  0
  -25.2596  -13.8156   20.5671 C   0  0  0  0  0  0
  -24.1845  -13.0440   20.9180 C   0  0  0  0  0  0
  -24.6396  -11.6902   20.8739 C   0  0  0  0  0  0
  -23.9062  -10.4291   21.0406 C   0  0  0  0  0  0
  -24.3617   -9.4207   21.9186 C   0  0  0  0  0  0
  -23.6292   -8.2240   22.0755 C   0  0  0  0  0  0
  -22.4273   -8.0283   21.3545 C   0  0  0  0  0  0
  -21.9911   -9.0253   20.4644 C   0  0  0  0  0  0
  -22.7237  -10.2133   20.3053 C   0  0  0  0  0  0
  -21.6853   -6.0737   22.5280 C   0  0  0  0  0  0
  -21.4010   -6.5641   23.8214 C   0  0  0  0  0  0
  -21.3657   -5.6794   24.9178 C   0  0  0  0  0  0
  -21.6043   -4.3057   24.7226 C   0  0  0  0  0  0
  -21.8817   -3.8151   23.4344 C   0  0  0  0  0  0
  -21.9192   -4.6968   22.3401 C   0  0  0  0  0  0
  -22.7866  -13.5242   21.1846 C   0  0  0  0  0  0
  -22.1662   -4.2156   21.0979 F   0  0  0  0  0  0
  -21.5631   -3.4539   25.7740 F   0  0  0  0  0  0
  -30.0358  -13.2949   20.4442 N   0  0  0  0  0  0
  -26.3027  -12.9315   20.3357 N   0  0  0  0  0  0
  -25.9322  -11.6483   20.5765 N   0  0  0  0  0  0
  -22.0499  -12.8227   22.0392 N   0  0  0  0  0  0
  -25.4337  -15.1874   20.4065 N   0  0  0  0  0  0
  -31.8238  -14.6562   20.0993 O   0  0  0  0  0  0
  -21.6637   -6.8880   21.4242 O   0  0  0  0  0  0
  -22.3555  -14.5556   20.6708 O   0  0  0  0  0  0
  -24.6137  -31.8687   23.2111 C   0  0  0  0  0  0
  -25.9035  -32.4827   23.8401 C   0  0  1  0  0  0
  -27.2354  -27.4355   20.1041 C   0  0  0  0  0  0
  -25.5898  -33.8622   24.2334 N   0  0  0  0  0  0
  -23.4023  -30.4912   21.5506 C   0  0  2  0  0  0
  -24.8519  -28.9547   20.1187 C   0  0  0  0  0  0
  -22.7407  -29.4660   22.4993 C   0  0  0  0  0  0
  -18.0270  -28.1376   22.8487 C   0  0  0  0  0  0
  -24.1487  -36.7306   23.2638 C   0  0  0  0  0  0
  -25.9302  -30.8330   21.3666 C   0  0  0  0  0  0
  -26.0096  -29.4641   20.7222 C   0  0  0  0  0  0
  -27.2056  -28.7093   20.7212 C   0  0  0  0  0  0
  -26.0687  -26.9455   19.4877 C   0  0  0  0  0  0
  -24.8747  -27.6913   19.5019 C   0  0  0  0  0  0
  -23.6126  -29.8212   20.1661 C   0  0  0  0  0  0
  -25.4109  -36.3112   24.0340 C   0  0  1  0  0  0
  -20.5864  -28.3657   23.1321 C   0  0  2  0  0  0
  -20.6761  -26.9392   22.5419 C   0  0  0  0  0  0
  -19.5742  -26.6377   21.5215 C   0  0  0  0  0  0
  -18.1913  -26.7927   22.1610 C   0  0  0  0  0  0
  -19.1524  -28.8832   23.2902 C   0  0  0  0  0  0
  -18.9454  -30.1438   23.8916 C   0  0  0  0  0  0
  -17.6460  -30.6587   24.0567 C   0  0  0  0  0  0
  -25.9031  -34.9475   23.5131 C   0  0  0  0  0  0
  -16.5346  -29.9091   23.6336 C   0  0  0  0  0  0
  -16.7261  -28.6507   23.0355 C   0  0  0  0  0  0
  -26.4469  -31.6600   25.0721 C   0  0  0  0  0  0
  -25.3734  -31.3732   26.1474 C   0  0  0  0  0  0
  -27.0276  -30.3033   24.6085 C   0  0  0  0  0  0
  -27.6050  -32.4306   25.7475 C   0  0  0  0  0  0
  -27.5581  -37.1811   24.8467 C   0  0  0  0  0  0
  -21.4134  -29.3033   22.3731 N   0  0  0  0  0  0
  -26.4298  -37.3791   23.9409 N   0  0  0  0  0  0
  -24.6667  -31.0791   22.1012 N   0  0  0  0  0  0
  -23.4182  -28.8195   23.3030 O   0  0  0  0  0  0
  -28.3648  -26.6481   20.0435 O   0  0  0  0  0  0
  -26.5587  -34.8921   22.4689 O   0  0  0  0  0  0
  -23.5331  -32.1434   23.7507 O   0  0  0  0  0  0
  -31.2409  -18.8956   20.8520 C   0  0  0  0  0  0
  -30.0619  -19.3630   21.4003 C   0  0  0  0  0  0
  -30.1761  -16.8861   21.1295 C   0  0  0  0  0  0
  -30.3660  -24.2409   20.4346 C   0  0  0  0  0  0
  -28.1185  -23.7148   21.3863 C   0  0  0  0  0  0
  -30.3310  -25.6585   21.0534 C   0  0  0  0  0  0
  -28.0206  -25.1372   21.9926 C   0  0  0  0  0  0
  -29.5841  -23.2282   21.2998 C   0  0  1  0  0  0
  -28.9055  -26.2036   21.2917 C   0  0  2  0  0  0
  -32.4447  -19.6968   20.4541 C   0  0  0  0  0  0
  -29.6999  -20.7705   21.8439 C   0  0  0  0  0  0
  -31.2828  -17.5004   20.6938 N   0  0  0  0  0  0
  -29.9673  -15.4731   21.1263 N   0  0  0  0  0  0
  -29.7164  -21.8274   20.7933 N   0  3  0  0  0  0
  -28.9709  -18.0248   21.7283 S   0  0  0  0  0  0
  -31.4694  -12.4067   19.1199 H   0  0  0  0  0  0
  -30.3277  -11.2980   19.8200 H   0  0  0  0  0  0
  -29.7352  -11.7795   17.4268 H   0  0  0  0  0  0
  -29.6601  -13.4894   17.7676 H   0  0  0  0  0  0
  -27.8311  -11.3044   18.8196 H   0  0  0  0  0  0
  -27.3637  -12.6292   17.7882 H   0  0  0  0  0  0
  -27.7054  -14.2504   19.5728 H   0  0  0  0  0  0
  -28.6827  -11.9481   21.3332 H   0  0  0  0  0  0
  -28.4609  -13.5789   21.8768 H   0  0  0  0  0  0
  -25.2761   -9.5686   22.4757 H   0  0  0  0  0  0
  -24.0007   -7.4632   22.7470 H   0  0  0  0  0  0
  -21.0846   -8.8765   19.8942 H   0  0  0  0  0  0
  -22.3699  -10.9672   19.6159 H   0  0  0  0  0  0
  -21.1995   -7.6148   23.9723 H   0  0  0  0  0  0
  -21.1481   -6.0521   25.9080 H   0  0  0  0  0  0
  -22.0598   -2.7612   23.2843 H   0  0  0  0  0  0
  -22.4099  -11.9872   22.4764 H   0  0  0  0  0  0
  -21.1115  -13.1251   22.2592 H   0  0  0  0  0  0
  -24.6649  -15.8420   20.5027 H   0  0  0  0  0  0
  -26.2794  -15.6220   20.0593 H   0  0  0  0  0  0
  -26.7105  -32.5555   23.1167 H   0  0  0  0  0  0
  -25.0077  -33.9787   25.0496 H   0  0  0  0  0  0
  -22.6904  -31.3072   21.4092 H   0  0  0  0  0  0
  -23.3761  -35.9627   23.3303 H   0  0  0  0  0  0
  -24.3585  -36.8922   22.2054 H   0  0  0  0  0  0
  -23.7226  -37.6503   23.6652 H   0  0  0  0  0  0
  -26.0404  -31.5956   20.5945 H   0  0  0  0  0  0
  -26.8198  -30.8908   21.9823 H   0  0  0  0  0  0
  -28.0996  -29.1059   21.1806 H   0  0  0  0  0  0
  -26.0847  -25.9771   19.0078 H   0  0  0  0  0  0
  -23.9851  -27.2919   19.0351 H   0  0  0  0  0  0
  -23.7216  -30.5948   19.4051 H   0  0  0  0  0  0
  -22.7373  -29.2400   19.8699 H   0  0  0  0  0  0
  -25.1294  -36.1981   25.0836 H   0  0  0  0  0  0
  -20.9948  -28.3219   24.1444 H   0  0  0  0  0  0
  -20.5660  -26.2263   23.3607 H   0  0  0  0  0  0
  -21.6633  -26.7424   22.1218 H   0  0  0  0  0  0
  -19.6906  -25.6292   21.1231 H   0  0  0  0  0  0
  -19.6702  -27.3197   20.6756 H   0  0  0  0  0  0
  -17.4191  -26.6702   21.3997 H   0  0  0  0  0  0
  -18.0286  -26.0054   22.8986 H   0  0  0  0  0  0
  -19.7933  -30.7246   24.2294 H   0  0  0  0  0  0
  -17.5019  -31.6276   24.5154 H   0  0  0  0  0  0
  -15.5350  -30.3005   23.7658 H   0  0  0  0  0  0
  -15.8650  -28.0836   22.7077 H   0  0  0  0  0  0
  -24.5888  -30.7099   25.7825 H   0  0  0  0  0  0
  -24.8953  -32.2904   26.4921 H   0  0  0  0  0  0
  -25.8077  -30.8898   27.0231 H   0  0  0  0  0  0
  -26.2804  -29.6815   24.1137 H   0  0  0  0  0  0
  -27.4044  -29.7254   25.4533 H   0  0  0  0  0  0
  -27.8647  -30.4351   23.9223 H   0  0  0  0  0  0
  -27.2689  -33.3615   26.2053 H   0  0  0  0  0  0
  -28.3864  -32.6848   25.0300 H   0  0  0  0  0  0
  -28.0704  -31.8422   26.5394 H   0  0  0  0  0  0
  -28.2617  -38.0089   24.7485 H   0  0  0  0  0  0
  -28.1060  -36.2616   24.6330 H   0  0  0  0  0  0
  -27.2293  -37.1513   25.8869 H   0  0  0  0  0  0
  -20.9283  -29.8759   21.6962 H   0  0  0  0  0  0
  -26.0195  -38.2874   24.1399 H   0  0  0  0  0  0
  -31.4058  -23.9267   20.3359 H   0  0  0  0  0  0
  -29.9546  -24.2721   19.4243 H   0  0  0  0  0  0
  -27.6644  -23.7157   20.3944 H   0  0  0  0  0  0
  -27.5285  -23.0280   21.9946 H   0  0  0  0  0  0
  -30.8918  -26.3538   20.4277 H   0  0  0  0  0  0
  -30.8561  -25.6323   22.0091 H   0  0  0  0  0  0
  -28.3257  -25.0798   23.0386 H   0  0  0  0  0  0
  -26.9797  -25.4620   22.0156 H   0  0  0  0  0  0
  -30.0209  -23.2618   22.2999 H   0  0  0  0  0  0
  -28.9912  -27.0684   21.9518 H   0  0  0  0  0  0
  -32.6141  -20.5360   21.1286 H   0  0  0  0  0  0
  -32.3387  -20.0951   19.4447 H   0  0  0  0  0  0
  -33.3510  -19.0906   20.4679 H   0  0  0  0  0  0
  -30.3911  -21.0536   22.6390 H   0  0  0  0  0  0
  -28.7110  -20.7661   22.3040 H   0  0  0  0  0  0
  -29.0767  -15.1751   21.4911 H   0  0  0  0  0  0
  -30.6034  -21.7688   20.3247 H   0  0  0  0  0  0
  -29.0029  -21.6379   20.1084 H   0  0  0  0  0  0
  1 25  1  0  0  0
  1 30  2  0  0  0
  1 83  1  0  0  0
  2  3  1  0  0  0
  2 25  1  0  0  0
  2 86  1  0  0  0
  2 87  1  0  0  0
  3  4  1  0  0  0
  3 88  1  0  0  0
  3 89  1  0  0  0
  4  5  1  0  0  0
  4 90  1  0  0  0
  4 91  1  0  0  0
  5  6  1  0  0  0
  5 26  1  0  0  0
  5 92  1  0  0  0
  6 25  1  0  0  0
  6 93  1  0  0  0
  6 94  1  0  0  0
  7  8  2  0  0  0
  7 26  1  0  0  0
  7 29  1  0  0  0
  8  9  1  0  0  0
  8 22  1  0  0  0
  9 10  1  0  0  0
  9 27  2  0  0  0
 10 11  2  0  0  0
 10 15  1  0  0  0
 11 12  1  0  0  0
 11 95  1  0  0  0
 12 13  2  0  0  0
 12 96  1  0  0  0
 13 14  1  0  0  0
 13 31  1  0  0  0
 14 15  2  0  0  0
 14 97  1  0  0  0
 15 98  1  0  0  0
 16 17  2  0  0  0
 16 21  1  0  0  0
 16 31  1  0  0  0
 17 18  1  0  0  0
 17 99  1  0  0  0
 18 19  2  0  0  0
 18100  1  0  0  0
 19 20  1  0  0  0
 19 24  1  0  0  0
 20 21  2  0  0  0
 20101  1  0  0  0
 21 23  1  0  0  0
 22 28  1  0  0  0
 22 32  2  0  0  0
 26 27  1  0  0  0
 28102  1  0  0  0
 28103  1  0  0  0
 29104  1  0  0  0
 29105  1  0  0  0
 33 34  1  0  0  0
 33 66  1  0  0  0
 33 70  2  0  0  0
 34 36  1  0  0  0
 34 59  1  0  0  0
 34106  1  0  0  0
 35 44  2  0  0  0
 35 45  1  0  0  0
 35 68  1  0  0  0
 36 56  1  0  0  0
 36107  1  0  0  0
 37 39  1  0  0  0
 37 47  1  0  0  0
 37 66  1  0  0  0
 37108  1  0  0  0
 38 43  2  0  0  0
 38 46  1  0  0  0
 38 47  1  0  0  0
 39 64  1  0  0  0
 39 67  2  0  0  0
 40 52  1  0  0  0
 40 53  2  0  0  0
 40 58  1  0  0  0
 41109  1  0  0  0
 41110  1  0  0  0
 41111  1  0  0  0
 41 48  1  0  0  0
 42 43  1  0  0  0
 42 66  1  0  0  0
 42112  1  0  0  0
 42113  1  0  0  0
 43 44  1  0  0  0
 44114  1  0  0  0
 45 46  2  0  0  0
 45115  1  0  0  0
 46116  1  0  0  0
 47117  1  0  0  0
 47118  1  0  0  0
 48 56  1  0  0  0
 48 65  1  0  0  0
 48119  1  0  0  0
 49 50  1  0  0  0
 49 53  1  0  0  0
 49 64  1  0  0  0
 49120  1  0  0  0
 50 51  1  0  0  0
 50121  1  0  0  0
 50122  1  0  0  0
 51 52  1  0  0  0
 51123  1  0  0  0
 51124  1  0  0  0
 52125  1  0  0  0
 52126  1  0  0  0
 53 54  1  0  0  0
 54 55  2  0  0  0
 54127  1  0  0  0
 55 57  1  0  0  0
 55128  1  0  0  0
 56 69  2  0  0  0
 57 58  2  0  0  0
 57129  1  0  0  0
 58130  1  0  0  0
 59 60  1  0  0  0
 59 61  1  0  0  0
 59 62  1  0  0  0
 60131  1  0  0  0
 60132  1  0  0  0
 60133  1  0  0  0
 61134  1  0  0  0
 61135  1  0  0  0
 61136  1  0  0  0
 62137  1  0  0  0
 62138  1  0  0  0
 62139  1  0  0  0
 63 65  1  0  0  0
 63140  1  0  0  0
 63141  1  0  0  0
 63142  1  0  0  0
 64143  1  0  0  0
 65144  1  0  0  0
 68 79  1  0  0  0
 71 72  2  0  0  0
 71 80  1  0  0  0
 71 82  1  0  0  0
 72 81  1  0  0  0
 72 85  1  0  0  0
 73 82  2  0  0  0
 73 83  1  0  0  0
 73 85  1  0  0  0
 74 76  1  0  0  0
 74 78  1  0  0  0
 74145  1  0  0  0
 74146  1  0  0  0
 75 77  1  0  0  0
 75 78  1  0  0  0
 75147  1  0  0  0
 75148  1  0  0  0
 76 79  1  0  0  0
 76149  1  0  0  0
 76150  1  0  0  0
 77 79  1  0  0  0
 77151  1  0  0  0
 77152  1  0  0  0
 78 84  1  0  0  0
 78153  1  0  0  0
 79154  1  0  0  0
 80155  1  0  0  0
 80156  1  0  0  0
 80157  1  0  0  0
 81 84  1  0  0  0
 81158  1  0  0  0
 81159  1  0  0  0
 83160  1  0  0  0
 84161  1  0  0  0
 84162  1  0  0  0
M  CHG  1  84   1
M  ISO  4   1 100  68 101  79 101  83 100
M  END
> <chiral flag>
0

> <version>
0

> <s_m_source_file>
/data/baiqing/PycharmProjects/Reinvent-master-3.2/result/LINK_invent/BTK/process_docking_weight1_custom_sum_contain_oxygen_bond_distance_aromatic_linkinvent_7_9_3/rearranged_h_0130.sdf

> <i_m_source_file_index>
26

> <r_mmod_Potential_Energy-OPLS-2005>
-284.167083740234

> <r_mmod_Stretch_Energy-OPLS-2005>
37.5590858459473

> <r_mmod_Bend_Energy-OPLS-2005>
107.215888977051

> <r_mmod_Torsional_Energy-OPLS-2005>
240.012100219727

> <r_mmod_Improper_Torsional_Energy-OPLS-2005>
3.55736207962036

> <r_mmod_Van_der_Waal_Energy-OPLS-2005>
123.919303894043

> <r_mmod_Electrostatic_Energy-OPLS-2005>
-329.357666015625

> <r_mmod_Solvation_Energy-OPLS-2005>
-479.762939453125

> <b_mmod_Minimization_Converged-OPLS-2005>
0

> <r_mmod_RMS_Derivative-OPLS-2005>
1.04769921302795

$$$$
26
                    3D
 Structure written by MMmdl.
154162  0  0  1  0            999 V2000
  -30.5507  -14.6780   20.4852 C   0  0  0  0  0  0
  -30.4131  -12.4165   19.4347 C   0  0  0  0  0  0
  -29.4785  -12.5417   18.2159 C   0  0  0  0  0  0
  -28.0084  -12.3540   18.6381 C   0  0  0  0  0  0
  -27.6357  -13.2099   19.8727 C   0  0  2  0  0  0
  -28.6752  -13.0521   21.0021 C   0  0  0  0  0  0
  -25.2486  -13.8100   20.5578 C   0  0  0  0  0  0
  -24.1774  -13.0382   20.9179 C   0  0  0  0  0  0
  -24.6361  -11.6839   20.8829 C   0  0  0  0  0  0
  -23.9043  -10.4234   21.0494 C   0  0  0  0  0  0
  -24.3604   -9.4139   21.9233 C   0  0  0  0  0  0
  -23.6275   -8.2170   22.0830 C   0  0  0  0  0  0
  -22.4259   -8.0255   21.3566 C   0  0  0  0  0  0
  -21.9882   -9.0195   20.4659 C   0  0  0  0  0  0
  -22.7239  -10.2049   20.3105 C   0  0  0  0  0  0
  -21.6816   -6.0754   22.5309 C   0  0  0  0  0  0
  -21.3984   -6.5682   23.8230 C   0  0  0  0  0  0
  -21.3616   -5.6849   24.9176 C   0  0  0  0  0  0
  -21.6046   -4.3118   24.7248 C   0  0  0  0  0  0
  -21.8804   -3.8159   23.4380 C   0  0  0  0  0  0
  -21.9160   -4.6964   22.3417 C   0  0  0  0  0  0
  -22.7799  -13.5157   21.1824 C   0  0  0  0  0  0
  -22.1687   -4.2176   21.0978 F   0  0  0  0  0  0
  -21.5598   -3.4600   25.7738 F   0  0  0  0  0  0
  -29.9783  -13.4270   20.4313 N   0  0  0  0  0  0
  -26.2882  -12.9243   20.3313 N   0  0  0  0  0  0
  -25.9294  -11.6424   20.5845 N   0  0  0  0  0  0
  -22.0459  -12.8109   22.0365 N   0  0  0  0  0  0
  -25.4288  -15.1769   20.3946 N   0  0  0  0  0  0
  -31.7324  -14.8284   20.1453 O   0  0  0  0  0  0
  -21.6615   -6.8847   21.4278 O   0  0  0  0  0  0
  -22.3536  -14.5495   20.6743 O   0  0  0  0  0  0
  -24.6305  -31.8575   23.1998 C   0  0  0  0  0  0
  -25.9126  -32.4788   23.8367 C   0  0  1  0  0  0
  -27.1793  -27.2454   20.1113 C   0  0  0  0  0  0
  -25.5911  -33.8591   24.2306 N   0  0  0  0  0  0
  -23.4297  -30.4811   21.5446 C   0  0  2  0  0  0
  -24.8728  -28.9347   20.1066 C   0  0  0  0  0  0
  -22.7523  -29.4612   22.4931 C   0  0  0  0  0  0
  -18.0299  -28.1371   22.8477 C   0  0  0  0  0  0
  -24.1488  -36.7278   23.2633 C   0  0  0  0  0  0
  -25.9781  -30.7620   21.3857 C   0  0  0  0  0  0
  -26.0461  -29.3802   20.7346 C   0  0  0  0  0  0
  -27.2113  -28.5420   20.7362 C   0  0  0  0  0  0
  -25.9923  -26.8800   19.4498 C   0  0  0  0  0  0
  -24.8543  -27.6972   19.4506 C   0  0  0  0  0  0
  -23.6453  -29.8173   20.1585 C   0  0  0  0  0  0
  -25.4129  -36.3109   24.0333 C   0  0  1  0  0  0
  -20.5893  -28.3687   23.1269 C   0  0  2  0  0  0
  -20.6775  -26.9400   22.5419 C   0  0  0  0  0  0
  -19.5764  -26.6355   21.5208 C   0  0  0  0  0  0
  -18.1948  -26.7897   22.1609 C   0  0  0  0  0  0
  -19.1553  -28.8859   23.2855 C   0  0  0  0  0  0
  -18.9474  -30.1442   23.8873 C   0  0  0  0  0  0
  -17.6476  -30.6582   24.0544 C   0  0  0  0  0  0
  -25.9070  -34.9456   23.5137 C   0  0  0  0  0  0
  -16.5362  -29.9075   23.6304 C   0  0  0  0  0  0
  -16.7292  -28.6487   23.0353 C   0  0  0  0  0  0
  -26.4450  -31.6592   25.0753 C   0  0  0  0  0  0
  -25.3616  -31.3744   26.1434 C   0  0  0  0  0  0
  -27.0276  -30.3021   24.6180 C   0  0  0  0  0  0
  -27.6075  -32.4247   25.7514 C   0  0  0  0  0  0
  -27.5605  -37.1808   24.8466 C   0  0  0  0  0  0
  -21.4234  -29.3042   22.3673 N   0  0  0  0  0  0
  -26.4306  -37.3811   23.9396 N   0  0  0  0  0  0
  -24.6991  -31.0491   22.0994 N   0  0  0  0  0  0
  -23.4206  -28.8135   23.3028 O   0  0  0  0  0  0
  -28.2140  -26.2879   20.0771 O   0  0  0  0  0  0
  -26.5652  -34.8926   22.4713 O   0  0  0  0  0  0
  -23.5448  -32.1430   23.7256 O   0  0  0  0  0  0
  -28.7447  -22.3553   20.6437 C   0  0  0  0  0  0
  -27.2879  -23.2297   18.9572 C   0  0  0  0  0  0
  -27.7236  -20.9290   18.9973 C   0  0  0  0  0  0
  -28.0884  -23.5273   20.0800 C   0  0  0  0  0  0
  -28.5826  -21.0051   20.1153 C   0  0  0  0  0  0
  -28.8129  -25.0927   22.0441 C   0  0  0  0  0  0
  -28.9302  -18.3568   20.3290 C   0  0  0  0  0  0
  -30.0674  -17.2516   20.6821 C   0  0  0  0  0  0
  -27.9746  -24.9769   20.7724 C   0  0  1  0  0  0
  -27.1148  -21.9960   18.4350 N   0  0  0  0  0  0
  -29.2105  -19.8149   20.6742 N   0  0  0  0  0  0
  -29.7260  -15.7670   20.7122 N   0  0  0  0  0  0
  -31.4562  -12.5387   19.1443 H   0  0  0  0  0  0
  -30.3429  -11.4109   19.8566 H   0  0  0  0  0  0
  -29.7415  -11.8219   17.4338 H   0  0  0  0  0  0
  -29.5935  -13.5303   17.7671 H   0  0  0  0  0  0
  -27.8656  -11.2949   18.8619 H   0  0  0  0  0  0
  -27.3363  -12.5973   17.8134 H   0  0  0  0  0  0
  -27.6564  -14.2460   19.5468 H   0  0  0  0  0  0
  -28.6893  -12.0141   21.3485 H   0  0  0  0  0  0
  -28.4257  -13.6535   21.8774 H   0  0  0  0  0  0
  -25.2794   -9.5572   22.4779 H   0  0  0  0  0  0
  -23.9979   -7.4522   22.7540 H   0  0  0  0  0  0
  -21.0881   -8.8724   19.8901 H   0  0  0  0  0  0
  -22.3797  -10.9615   19.6193 H   0  0  0  0  0  0
  -21.2057   -7.6177   23.9749 H   0  0  0  0  0  0
  -21.1457   -6.0563   25.9073 H   0  0  0  0  0  0
  -22.0635   -2.7624   23.2853 H   0  0  0  0  0  0
  -22.4214  -11.9781   22.4551 H   0  0  0  0  0  0
  -21.1155  -13.1110   22.2813 H   0  0  0  0  0  0
  -24.6623  -15.8446   20.4417 H   0  0  0  0  0  0
  -26.2721  -15.5820   20.0097 H   0  0  0  0  0  0
  -26.7205  -32.5444   23.1129 H   0  0  0  0  0  0
  -25.0004  -33.9761   25.0406 H   0  0  0  0  0  0
  -22.7249  -31.3024   21.3978 H   0  0  0  0  0  0
  -23.3801  -35.9552   23.3274 H   0  0  0  0  0  0
  -24.3575  -36.8924   22.2043 H   0  0  0  0  0  0
  -23.7178  -37.6442   23.6669 H   0  0  0  0  0  0
  -26.1067  -31.5131   20.6046 H   0  0  0  0  0  0
  -26.8604  -30.8255   22.0115 H   0  0  0  0  0  0
  -28.1084  -28.8582   21.2508 H   0  0  0  0  0  0
  -25.9364  -25.9374   18.9304 H   0  0  0  0  0  0
  -23.9703  -27.3695   18.9265 H   0  0  0  0  0  0
  -23.7542  -30.5885   19.3924 H   0  0  0  0  0  0
  -22.7667  -29.2364   19.8716 H   0  0  0  0  0  0
  -25.1303  -36.1989   25.0824 H   0  0  0  0  0  0
  -20.9988  -28.3256   24.1366 H   0  0  0  0  0  0
  -20.5629  -26.2304   23.3620 H   0  0  0  0  0  0
  -21.6671  -26.7376   22.1247 H   0  0  0  0  0  0
  -19.6933  -25.6265   21.1247 H   0  0  0  0  0  0
  -19.6707  -27.3142   20.6694 H   0  0  0  0  0  0
  -17.4208  -26.6634   21.4019 H   0  0  0  0  0  0
  -18.0354  -26.0048   22.9012 H   0  0  0  0  0  0
  -19.7961  -30.7264   24.2230 H   0  0  0  0  0  0
  -17.5037  -31.6274   24.5149 H   0  0  0  0  0  0
  -15.5352  -30.2988   23.7644 H   0  0  0  0  0  0
  -15.8693  -28.0807   22.7072 H   0  0  0  0  0  0
  -24.5788  -30.7126   25.7701 H   0  0  0  0  0  0
  -24.8775  -32.2899   26.4837 H   0  0  0  0  0  0
  -25.7827  -30.8886   27.0238 H   0  0  0  0  0  0
  -26.2860  -29.6817   24.1128 H   0  0  0  0  0  0
  -27.3923  -29.7241   25.4678 H   0  0  0  0  0  0
  -27.8755  -30.4362   23.9466 H   0  0  0  0  0  0
  -27.2805  -33.3580   26.2111 H   0  0  0  0  0  0
  -28.3876  -32.6704   25.0297 H   0  0  0  0  0  0
  -28.0726  -31.8292   26.5382 H   0  0  0  0  0  0
  -28.2617  -38.0118   24.7548 H   0  0  0  0  0  0
  -28.1106  -36.2644   24.6256 H   0  0  0  0  0  0
  -27.2301  -37.1436   25.8867 H   0  0  0  0  0  0
  -20.9424  -29.8802   21.6929 H   0  0  0  0  0  0
  -26.0203  -38.2879   24.1417 H   0  0  0  0  0  0
  -29.3541  -22.4781   21.5224 H   0  0  0  0  0  0
  -26.6943  -23.9822   18.4559 H   0  0  0  0  0  0
  -27.4886  -19.9834   18.5315 H   0  0  0  0  0  0
  -28.5981  -24.2899   22.7484 H   0  0  0  0  0  0
  -28.5931  -26.0364   22.5404 H   0  0  0  0  0  0
  -29.8789  -25.0898   21.8123 H   0  0  0  0  0  0
  -28.0097  -18.0782   20.8483 H   0  0  0  0  0  0
  -28.6831  -18.2665   19.2671 H   0  0  0  0  0  0
  -30.4779  -17.4694   21.6679 H   0  0  0  0  0  0
  -30.8927  -17.3891   19.9807 H   0  0  0  0  0  0
  -26.9347  -24.9767   21.1005 H   0  0  0  0  0  0
  -29.7346  -19.9659   21.5345 H   0  0  0  0  0  0
  -28.7748  -15.5342   20.9559 H   0  0  0  0  0  0
  1 25  1  0  0  0
  1 30  2  0  0  0
  1 82  1  0  0  0
  2  3  1  0  0  0
  2 25  1  0  0  0
  2 83  1  0  0  0
  2 84  1  0  0  0
  3  4  1  0  0  0
  3 85  1  0  0  0
  3 86  1  0  0  0
  4  5  1  0  0  0
  4 87  1  0  0  0
  4 88  1  0  0  0
  5  6  1  0  0  0
  5 26  1  0  0  0
  5 89  1  0  0  0
  6 25  1  0  0  0
  6 90  1  0  0  0
  6 91  1  0  0  0
  7  8  2  0  0  0
  7 26  1  0  0  0
  7 29  1  0  0  0
  8  9  1  0  0  0
  8 22  1  0  0  0
  9 10  1  0  0  0
  9 27  2  0  0  0
 10 11  2  0  0  0
 10 15  1  0  0  0
 11 12  1  0  0  0
 11 92  1  0  0  0
 12 13  2  0  0  0
 12 93  1  0  0  0
 13 14  1  0  0  0
 13 31  1  0  0  0
 14 15  2  0  0  0
 14 94  1  0  0  0
 15 95  1  0  0  0
 16 17  2  0  0  0
 16 21  1  0  0  0
 16 31  1  0  0  0
 17 18  1  0  0  0
 17 96  1  0  0  0
 18 19  2  0  0  0
 18 97  1  0  0  0
 19 20  1  0  0  0
 19 24  1  0  0  0
 20 21  2  0  0  0
 20 98  1  0  0  0
 21 23  1  0  0  0
 22 28  1  0  0  0
 22 32  2  0  0  0
 26 27  1  0  0  0
 28 99  1  0  0  0
 28100  1  0  0  0
 29101  1  0  0  0
 29102  1  0  0  0
 33 34  1  0  0  0
 33 66  1  0  0  0
 33 70  2  0  0  0
 34 36  1  0  0  0
 34 59  1  0  0  0
 34103  1  0  0  0
 35 44  2  0  0  0
 35 45  1  0  0  0
 35 68  1  0  0  0
 36 56  1  0  0  0
 36104  1  0  0  0
 37 39  1  0  0  0
 37 47  1  0  0  0
 37 66  1  0  0  0
 37105  1  0  0  0
 38 43  2  0  0  0
 38 46  1  0  0  0
 38 47  1  0  0  0
 39 64  1  0  0  0
 39 67  2  0  0  0
 40 52  1  0  0  0
 40 53  2  0  0  0
 40 58  1  0  0  0
 41106  1  0  0  0
 41107  1  0  0  0
 41108  1  0  0  0
 41 48  1  0  0  0
 42 43  1  0  0  0
 42 66  1  0  0  0
 42109  1  0  0  0
 42110  1  0  0  0
 43 44  1  0  0  0
 44111  1  0  0  0
 45 46  2  0  0  0
 45112  1  0  0  0
 46113  1  0  0  0
 47114  1  0  0  0
 47115  1  0  0  0
 48 56  1  0  0  0
 48 65  1  0  0  0
 48116  1  0  0  0
 49 50  1  0  0  0
 49 53  1  0  0  0
 49 64  1  0  0  0
 49117  1  0  0  0
 50 51  1  0  0  0
 50118  1  0  0  0
 50119  1  0  0  0
 51 52  1  0  0  0
 51120  1  0  0  0
 51121  1  0  0  0
 52122  1  0  0  0
 52123  1  0  0  0
 53 54  1  0  0  0
 54 55  2  0  0  0
 54124  1  0  0  0
 55 57  1  0  0  0
 55125  1  0  0  0
 56 69  2  0  0  0
 57 58  2  0  0  0
 57126  1  0  0  0
 58127  1  0  0  0
 59 60  1  0  0  0
 59 61  1  0  0  0
 59 62  1  0  0  0
 60128  1  0  0  0
 60129  1  0  0  0
 60130  1  0  0  0
 61131  1  0  0  0
 61132  1  0  0  0
 61133  1  0  0  0
 62134  1  0  0  0
 62135  1  0  0  0
 62136  1  0  0  0
 63 65  1  0  0  0
 63137  1  0  0  0
 63138  1  0  0  0
 63139  1  0  0  0
 64140  1  0  0  0
 65141  1  0  0  0
 68 79  1  0  0  0
 71 74  2  0  0  0
 71 75  1  0  0  0
 71142  1  0  0  0
 72 74  1  0  0  0
 72 80  2  0  0  0
 72143  1  0  0  0
 73 75  2  0  0  0
 73 80  1  0  0  0
 73144  1  0  0  0
 74 79  1  0  0  0
 75 81  1  0  0  0
 76145  1  0  0  0
 76146  1  0  0  0
 76147  1  0  0  0
 76 79  1  0  0  0
 77 78  1  0  0  0
 77 81  1  0  0  0
 77148  1  0  0  0
 77149  1  0  0  0
 78 82  1  0  0  0
 78150  1  0  0  0
 78151  1  0  0  0
 79152  1  0  0  0
 81153  1  0  0  0
 82154  1  0  0  0
M  ISO  4   1 100  68 101  79 101  82 100
M  END
> <chiral flag>
0

> <version>
0

> <s_m_source_file>
/data/baiqing/PycharmProjects/Reinvent-master-3.2/result/LINK_invent/BTK/process_docking_weight1_custom_sum_contain_oxygen_bond_distance_aromatic_linkinvent_7_9_3/rearranged_h_0130.sdf

> <i_m_source_file_index>
27

> <r_mmod_Potential_Energy-OPLS-2005>
48.4483795166016

> <r_mmod_Stretch_Energy-OPLS-2005>
123.098686218262

> <r_mmod_Bend_Energy-OPLS-2005>
177.098922729492

> <r_mmod_Torsional_Energy-OPLS-2005>
229.642013549805

> <r_mmod_Improper_Torsional_Energy-OPLS-2005>
7.97392463684082

> <r_mmod_Van_der_Waal_Energy-OPLS-2005>
139.075149536133

> <r_mmod_Electrostatic_Energy-OPLS-2005>
-471.502288818359

> <r_mmod_Solvation_Energy-OPLS-2005>
-237.878326416016

> <b_mmod_Minimization_Converged-OPLS-2005>
0

> <r_mmod_RMS_Derivative-OPLS-2005>
10.059473991394

$$$$
27
                    3D
 Structure written by MMmdl.
158166  0  0  1  0            999 V2000
  -30.6636  -14.5028   20.5407 C   0  0  0  0  0  0
  -30.4253  -12.3127   19.4289 C   0  0  0  0  0  0
  -29.4955  -12.4901   18.2079 C   0  0  0  0  0  0
  -28.0126  -12.3599   18.6154 C   0  0  0  0  0  0
  -27.6566  -13.2049   19.8707 C   0  0  2  0  0  0
  -28.6999  -12.9801   20.9895 C   0  0  0  0  0  0
  -25.2574  -13.8196   20.5700 C   0  0  0  0  0  0
  -24.1797  -13.0448   20.9164 C   0  0  0  0  0  0
  -24.6351  -11.6918   20.8730 C   0  0  0  0  0  0
  -23.9014  -10.4301   21.0404 C   0  0  0  0  0  0
  -24.3589   -9.4227   21.9174 C   0  0  0  0  0  0
  -23.6276   -8.2252   22.0740 C   0  0  0  0  0  0
  -22.4240   -8.0282   21.3545 C   0  0  0  0  0  0
  -21.9884   -9.0245   20.4634 C   0  0  0  0  0  0
  -22.7195  -10.2132   20.3039 C   0  0  0  0  0  0
  -21.6863   -6.0731   22.5281 C   0  0  0  0  0  0
  -21.4026   -6.5647   23.8215 C   0  0  0  0  0  0
  -21.3647   -5.6796   24.9172 C   0  0  0  0  0  0
  -21.6044   -4.3058   24.7231 C   0  0  0  0  0  0
  -21.8816   -3.8147   23.4352 C   0  0  0  0  0  0
  -21.9192   -4.6958   22.3408 C   0  0  0  0  0  0
  -22.7829  -13.5250   21.1851 C   0  0  0  0  0  0
  -22.1654   -4.2141   21.0987 F   0  0  0  0  0  0
  -21.5610   -3.4534   25.7749 F   0  0  0  0  0  0
  -30.0183  -13.3104   20.4332 N   0  0  0  0  0  0
  -26.2995  -12.9332   20.3366 N   0  0  0  0  0  0
  -25.9282  -11.6496   20.5757 N   0  0  0  0  0  0
  -22.0446  -12.8236   22.0406 N   0  0  0  0  0  0
  -25.4296  -15.1911   20.4144 N   0  0  0  0  0  0
  -31.8294  -14.6568   20.1708 O   0  0  0  0  0  0
  -21.6611   -6.8858   21.4230 O   0  0  0  0  0  0
  -22.3520  -14.5545   20.6691 O   0  0  0  0  0  0
  -24.6236  -31.8687   23.2177 C   0  0  0  0  0  0
  -25.9066  -32.4850   23.8523 C   0  0  1  0  0  0
  -27.2241  -27.3989   20.0863 C   0  0  0  0  0  0
  -25.5905  -33.8648   24.2436 N   0  0  0  0  0  0
  -23.4135  -30.4988   21.5529 C   0  0  2  0  0  0
  -24.8512  -28.9621   20.1180 C   0  0  0  0  0  0
  -22.7484  -29.4759   22.4974 C   0  0  0  0  0  0
  -18.0384  -28.1467   22.8426 C   0  0  0  0  0  0
  -24.1461  -36.7305   23.2649 C   0  0  0  0  0  0
  -25.9508  -30.8204   21.3782 C   0  0  0  0  0  0
  -26.0156  -29.4534   20.7207 C   0  0  0  0  0  0
  -27.2046  -28.6777   20.7019 C   0  0  0  0  0  0
  -26.0428  -26.9542   19.4463 C   0  0  0  0  0  0
  -24.8624  -27.7147   19.4771 C   0  0  0  0  0  0
  -23.6199  -29.8331   20.1659 C   0  0  0  0  0  0
  -25.4081  -36.3124   24.0371 C   0  0  1  0  0  0
  -20.5940  -28.3802   23.1266 C   0  0  2  0  0  0
  -20.6927  -26.9539   22.5402 C   0  0  0  0  0  0
  -19.5931  -26.6496   21.5171 C   0  0  0  0  0  0
  -18.2068  -26.8041   22.1502 C   0  0  0  0  0  0
  -19.1626  -28.8966   23.2790 C   0  0  0  0  0  0
  -18.9536  -30.1591   23.8785 C   0  0  0  0  0  0
  -17.6544  -30.6659   24.0531 C   0  0  0  0  0  0
  -25.9025  -34.9480   23.5195 C   0  0  0  0  0  0
  -16.5442  -29.9156   23.6302 C   0  0  0  0  0  0
  -16.7371  -28.6556   23.0326 C   0  0  0  0  0  0
  -26.4468  -31.6601   25.0836 C   0  0  0  0  0  0
  -25.3797  -31.3634   26.1635 C   0  0  0  0  0  0
  -27.0296  -30.3064   24.6180 C   0  0  0  0  0  0
  -27.6081  -32.4318   25.7566 C   0  0  0  0  0  0
  -27.5577  -37.1799   24.8493 C   0  0  0  0  0  0
  -21.4207  -29.3200   22.3708 N   0  0  0  0  0  0
  -26.4279  -37.3802   23.9445 N   0  0  0  0  0  0
  -24.6802  -31.0814   22.1066 N   0  0  0  0  0  0
  -23.4186  -28.8266   23.3027 O   0  0  0  0  0  0
  -28.3808  -26.6334   20.1252 O   0  0  0  0  0  0
  -26.5591  -34.8901   22.4765 O   0  0  0  0  0  0
  -23.5414  -32.1420   23.7552 O   0  0  0  0  0  0
  -29.6128  -20.1195   21.9704 C   0  0  0  0  0  0
  -29.8803  -18.7464   22.1739 C   0  0  0  0  0  0
  -28.5768  -20.5230   21.0972 C   0  0  0  0  0  0
  -29.1095  -17.7802   21.5047 C   0  0  0  0  0  0
  -27.8518  -19.4715   20.4641 C   0  0  0  0  0  0
  -26.6625  -19.7383   19.5590 C   0  0  0  0  0  0
  -28.2188  -22.0344   20.9604 C   0  0  0  0  0  0
  -29.3222  -16.2674   21.7405 C   0  0  0  0  0  0
  -29.2524  -24.3613   20.6450 C   0  0  0  0  0  0
  -28.3386  -25.2314   19.7481 C   0  0  0  0  0  0
  -28.1273  -18.1489   20.6499 N   0  0  0  0  0  0
  -29.8736  -15.5911   20.5600 N   0  0  0  0  0  0
  -29.2585  -22.8942   20.3142 N   0  3  0  0  0  0
  -31.4689  -12.4209   19.1299 H   0  0  0  0  0  0
  -30.3353  -11.3041   19.8389 H   0  0  0  0  0  0
  -29.7379  -11.7532   17.4418 H   0  0  0  0  0  0
  -29.6580  -13.4685   17.7544 H   0  0  0  0  0  0
  -27.8220  -11.3042   18.8167 H   0  0  0  0  0  0
  -27.3624  -12.6271   17.7814 H   0  0  0  0  0  0
  -27.6976  -14.2488   19.5685 H   0  0  0  0  0  0
  -28.4737  -13.5533   21.8879 H   0  0  0  0  0  0
  -28.6848  -11.9328   21.3010 H   0  0  0  0  0  0
  -25.2711   -9.5724   22.4759 H   0  0  0  0  0  0
  -23.9982   -7.4655   22.7483 H   0  0  0  0  0  0
  -21.0808   -8.8759   19.8952 H   0  0  0  0  0  0
  -22.3635  -10.9667   19.6160 H   0  0  0  0  0  0
  -21.2025   -7.6156   23.9721 H   0  0  0  0  0  0
  -21.1469   -6.0526   25.9084 H   0  0  0  0  0  0
  -22.0603   -2.7606   23.2862 H   0  0  0  0  0  0
  -22.4020  -11.9908   22.4823 H   0  0  0  0  0  0
  -21.1077  -13.1310   22.2570 H   0  0  0  0  0  0
  -24.6754  -15.8527   20.5592 H   0  0  0  0  0  0
  -26.2974  -15.6381   20.1447 H   0  0  0  0  0  0
  -26.7176  -32.5511   23.1318 H   0  0  0  0  0  0
  -25.0119  -33.9873   25.0618 H   0  0  0  0  0  0
  -22.7021  -31.3181   21.4192 H   0  0  0  0  0  0
  -23.3725  -35.9638   23.3334 H   0  0  0  0  0  0
  -24.3573  -36.8885   22.2062 H   0  0  0  0  0  0
  -23.7162  -37.6501   23.6639 H   0  0  0  0  0  0
  -26.0919  -31.5831   20.6079 H   0  0  0  0  0  0
  -26.8318  -30.8645   22.0081 H   0  0  0  0  0  0
  -28.0982  -29.0487   21.1828 H   0  0  0  0  0  0
  -25.9998  -26.0309   18.8947 H   0  0  0  0  0  0
  -23.9735  -27.3406   18.9897 H   0  0  0  0  0  0
  -23.7386  -30.6113   19.4113 H   0  0  0  0  0  0
  -22.7379  -29.2628   19.8741 H   0  0  0  0  0  0
  -25.1210  -36.2054   25.0865 H   0  0  0  0  0  0
  -20.9959  -28.3424   24.1419 H   0  0  0  0  0  0
  -20.5995  -26.2367   23.3599 H   0  0  0  0  0  0
  -21.6800  -26.7708   22.1130 H   0  0  0  0  0  0
  -19.7180  -25.6448   21.1114 H   0  0  0  0  0  0
  -19.6938  -27.3299   20.6711 H   0  0  0  0  0  0
  -17.4432  -26.6879   21.3816 H   0  0  0  0  0  0
  -18.0421  -26.0170   22.8893 H   0  0  0  0  0  0
  -19.7955  -30.7515   24.2085 H   0  0  0  0  0  0
  -17.5117  -31.6331   24.5145 H   0  0  0  0  0  0
  -15.5497  -30.3128   23.7685 H   0  0  0  0  0  0
  -15.8724  -28.0904   22.7073 H   0  0  0  0  0  0
  -24.6025  -30.6884   25.8027 H   0  0  0  0  0  0
  -24.8916  -32.2732   26.5164 H   0  0  0  0  0  0
  -25.8265  -30.8826   27.0364 H   0  0  0  0  0  0
  -26.2843  -29.6851   24.1230 H   0  0  0  0  0  0
  -27.4065  -29.7262   25.4610 H   0  0  0  0  0  0
  -27.8687  -30.4396   23.9360 H   0  0  0  0  0  0
  -27.2758  -33.3651   26.2152 H   0  0  0  0  0  0
  -28.3885  -32.6845   25.0363 H   0  0  0  0  0  0
  -28.0776  -31.8440   26.5469 H   0  0  0  0  0  0
  -28.2594  -38.0089   24.7515 H   0  0  0  0  0  0
  -28.1053  -36.2618   24.6321 H   0  0  0  0  0  0
  -27.2333  -37.1473   25.8906 H   0  0  0  0  0  0
  -20.9451  -29.8927   21.6862 H   0  0  0  0  0  0
  -26.0183  -38.2906   24.1385 H   0  0  0  0  0  0
  -30.1908  -20.8621   22.5034 H   0  0  0  0  0  0
  -30.6557  -18.4385   22.8620 H   0  0  0  0  0  0
  -26.3927  -18.8466   18.9935 H   0  0  0  0  0  0
  -26.8717  -20.5314   18.8402 H   0  0  0  0  0  0
  -25.7924  -20.0152   20.1514 H   0  0  0  0  0  0
  -28.0289  -22.4099   21.9674 H   0  0  0  0  0  0
  -27.2770  -22.1683   20.4255 H   0  0  0  0  0  0
  -29.9826  -16.1158   22.5999 H   0  0  0  0  0  0
  -28.3647  -15.8227   22.0134 H   0  0  0  0  0  0
  -29.0152  -24.5129   21.7003 H   0  0  0  0  0  0
  -30.2694  -24.7378   20.5220 H   0  0  0  0  0  0
  -27.3467  -24.7844   19.7940 H   0  0  0  0  0  0
  -28.6743  -25.1706   18.7112 H   0  0  0  0  0  0
  -30.2372  -16.3010   19.9448 H   0  0  0  0  0  0
  -29.2267  -22.7753   19.3122 H   0  0  0  0  0  0
  -30.1522  -22.5521   20.6201 H   0  0  0  0  0  0
  1 25  1  0  0  0
  1 30  2  0  0  0
  1 82  1  0  0  0
  2  3  1  0  0  0
  2 25  1  0  0  0
  2 84  1  0  0  0
  2 85  1  0  0  0
  3  4  1  0  0  0
  3 86  1  0  0  0
  3 87  1  0  0  0
  4  5  1  0  0  0
  4 88  1  0  0  0
  4 89  1  0  0  0
  5  6  1  0  0  0
  5 26  1  0  0  0
  5 90  1  0  0  0
  6 25  1  0  0  0
  6 91  1  0  0  0
  6 92  1  0  0  0
  7  8  2  0  0  0
  7 26  1  0  0  0
  7 29  1  0  0  0
  8  9  1  0  0  0
  8 22  1  0  0  0
  9 10  1  0  0  0
  9 27  2  0  0  0
 10 11  2  0  0  0
 10 15  1  0  0  0
 11 12  1  0  0  0
 11 93  1  0  0  0
 12 13  2  0  0  0
 12 94  1  0  0  0
 13 14  1  0  0  0
 13 31  1  0  0  0
 14 15  2  0  0  0
 14 95  1  0  0  0
 15 96  1  0  0  0
 16 17  2  0  0  0
 16 21  1  0  0  0
 16 31  1  0  0  0
 17 18  1  0  0  0
 17 97  1  0  0  0
 18 19  2  0  0  0
 18 98  1  0  0  0
 19 20  1  0  0  0
 19 24  1  0  0  0
 20 21  2  0  0  0
 20 99  1  0  0  0
 21 23  1  0  0  0
 22 28  1  0  0  0
 22 32  2  0  0  0
 26 27  1  0  0  0
 28100  1  0  0  0
 28101  1  0  0  0
 29102  1  0  0  0
 29103  1  0  0  0
 33 34  1  0  0  0
 33 66  1  0  0  0
 33 70  2  0  0  0
 34 36  1  0  0  0
 34 59  1  0  0  0
 34104  1  0  0  0
 35 44  2  0  0  0
 35 45  1  0  0  0
 35 68  1  0  0  0
 36 56  1  0  0  0
 36105  1  0  0  0
 37 39  1  0  0  0
 37 47  1  0  0  0
 37 66  1  0  0  0
 37106  1  0  0  0
 38 43  2  0  0  0
 38 46  1  0  0  0
 38 47  1  0  0  0
 39 64  1  0  0  0
 39 67  2  0  0  0
 40 52  1  0  0  0
 40 53  2  0  0  0
 40 58  1  0  0  0
 41107  1  0  0  0
 41108  1  0  0  0
 41109  1  0  0  0
 41 48  1  0  0  0
 42 43  1  0  0  0
 42 66  1  0  0  0
 42110  1  0  0  0
 42111  1  0  0  0
 43 44  1  0  0  0
 44112  1  0  0  0
 45 46  2  0  0  0
 45113  1  0  0  0
 46114  1  0  0  0
 47115  1  0  0  0
 47116  1  0  0  0
 48 56  1  0  0  0
 48 65  1  0  0  0
 48117  1  0  0  0
 49 50  1  0  0  0
 49 53  1  0  0  0
 49 64  1  0  0  0
 49118  1  0  0  0
 50 51  1  0  0  0
 50119  1  0  0  0
 50120  1  0  0  0
 51 52  1  0  0  0
 51121  1  0  0  0
 51122  1  0  0  0
 52123  1  0  0  0
 52124  1  0  0  0
 53 54  1  0  0  0
 54 55  2  0  0  0
 54125  1  0  0  0
 55 57  1  0  0  0
 55126  1  0  0  0
 56 69  2  0  0  0
 57 58  2  0  0  0
 57127  1  0  0  0
 58128  1  0  0  0
 59 60  1  0  0  0
 59 61  1  0  0  0
 59 62  1  0  0  0
 60129  1  0  0  0
 60130  1  0  0  0
 60131  1  0  0  0
 61132  1  0  0  0
 61133  1  0  0  0
 61134  1  0  0  0
 62135  1  0  0  0
 62136  1  0  0  0
 62137  1  0  0  0
 63 65  1  0  0  0
 63138  1  0  0  0
 63139  1  0  0  0
 63140  1  0  0  0
 64141  1  0  0  0
 65142  1  0  0  0
 68 80  1  0  0  0
 71 72  2  0  0  0
 71 73  1  0  0  0
 71143  1  0  0  0
 72 74  1  0  0  0
 72144  1  0  0  0
 73 75  2  0  0  0
 73 77  1  0  0  0
 74 78  1  0  0  0
 74 81  2  0  0  0
 75 76  1  0  0  0
 75 81  1  0  0  0
 76145  1  0  0  0
 76146  1  0  0  0
 76147  1  0  0  0
 77 83  1  0  0  0
 77148  1  0  0  0
 77149  1  0  0  0
 78 82  1  0  0  0
 78150  1  0  0  0
 78151  1  0  0  0
 79 80  1  0  0  0
 79 83  1  0  0  0
 79152  1  0  0  0
 79153  1  0  0  0
 80154  1  0  0  0
 80155  1  0  0  0
 82156  1  0  0  0
 83157  1  0  0  0
 83158  1  0  0  0
M  CHG  1  83   1
M  ISO  4   1 100  68 101  80 101  82 100
M  END
> <chiral flag>
0

> <version>
0

> <s_m_source_file>
/data/baiqing/PycharmProjects/Reinvent-master-3.2/result/LINK_invent/BTK/process_docking_weight1_custom_sum_contain_oxygen_bond_distance_aromatic_linkinvent_7_9_3/rearranged_h_0130.sdf

> <i_m_source_file_index>
28

> <r_mmod_Potential_Energy-OPLS-2005>
-380.642395019531

> <r_mmod_Stretch_Energy-OPLS-2005>
46.1742858886719

> <r_mmod_Bend_Energy-OPLS-2005>
119.630012512207

> <r_mmod_Torsional_Energy-OPLS-2005>
256.662048339844

> <r_mmod_Improper_Torsional_Energy-OPLS-2005>
20.9080295562744

> <r_mmod_Van_der_Waal_Energy-OPLS-2005>
146.43229675293

> <r_mmod_Electrostatic_Energy-OPLS-2005>
-525.693359375

> <r_mmod_Solvation_Energy-OPLS-2005>
-465.979187011719

> <b_mmod_Minimization_Converged-OPLS-2005>
0

> <r_mmod_RMS_Derivative-OPLS-2005>
6.96809864044189

$$$$
28
                    3D
 Structure written by MMmdl.
160168  0  0  1  0            999 V2000
  -30.7050  -14.4535   20.5796 C   0  0  0  0  0  0
  -30.4299  -12.3031   19.4132 C   0  0  0  0  0  0
  -29.4959  -12.4977   18.2010 C   0  0  0  0  0  0
  -28.0187  -12.3583   18.6189 C   0  0  0  0  0  0
  -27.6651  -13.1994   19.8736 C   0  0  2  0  0  0
  -28.7072  -12.9720   20.9926 C   0  0  0  0  0  0
  -25.2627  -13.8158   20.5664 C   0  0  0  0  0  0
  -24.1875  -13.0454   20.9206 C   0  0  0  0  0  0
  -24.6403  -11.6914   20.8751 C   0  0  0  0  0  0
  -23.9061  -10.4304   21.0411 C   0  0  0  0  0  0
  -24.3614   -9.4220   21.9186 C   0  0  0  0  0  0
  -23.6299   -8.2243   22.0747 C   0  0  0  0  0  0
  -22.4274   -8.0286   21.3546 C   0  0  0  0  0  0
  -21.9912   -9.0267   20.4643 C   0  0  0  0  0  0
  -22.7232  -10.2152   20.3060 C   0  0  0  0  0  0
  -21.6854   -6.0736   22.5279 C   0  0  0  0  0  0
  -21.4008   -6.5636   23.8220 C   0  0  0  0  0  0
  -21.3661   -5.6781   24.9175 C   0  0  0  0  0  0
  -21.6047   -4.3045   24.7218 C   0  0  0  0  0  0
  -21.8828   -3.8145   23.4343 C   0  0  0  0  0  0
  -21.9201   -4.6967   22.3399 C   0  0  0  0  0  0
  -22.7898  -13.5263   21.1861 C   0  0  0  0  0  0
  -22.1664   -4.2153   21.0977 F   0  0  0  0  0  0
  -21.5633   -3.4530   25.7735 F   0  0  0  0  0  0
  -30.0384  -13.2772   20.4422 N   0  0  0  0  0  0
  -26.3046  -12.9304   20.3345 N   0  0  0  0  0  0
  -25.9323  -11.6478   20.5777 N   0  0  0  0  0  0
  -22.0501  -12.8271   22.0399 N   0  0  0  0  0  0
  -25.4379  -15.1873   20.4013 N   0  0  0  0  0  0
  -31.8243  -14.6554   20.1033 O   0  0  0  0  0  0
  -21.6633   -6.8885   21.4246 O   0  0  0  0  0  0
  -22.3594  -14.5563   20.6694 O   0  0  0  0  0  0
  -24.6149  -31.8703   23.2105 C   0  0  0  0  0  0
  -25.9049  -32.4838   23.8399 C   0  0  1  0  0  0
  -27.2260  -27.4325   20.1010 C   0  0  0  0  0  0
  -25.5936  -33.8637   24.2337 N   0  0  0  0  0  0
  -23.4015  -30.4944   21.5526 C   0  0  2  0  0  0
  -24.8429  -28.9563   20.1195 C   0  0  0  0  0  0
  -22.7402  -29.4692   22.5022 C   0  0  0  0  0  0
  -18.0273  -28.1376   22.8506 C   0  0  0  0  0  0
  -24.1489  -36.7305   23.2634 C   0  0  0  0  0  0
  -25.9301  -30.8348   21.3615 C   0  0  0  0  0  0
  -26.0052  -29.4694   20.7081 C   0  0  0  0  0  0
  -27.2010  -28.7175   20.6901 C   0  0  0  0  0  0
  -26.0444  -26.9305   19.5127 C   0  0  0  0  0  0
  -24.8570  -27.6853   19.5203 C   0  0  0  0  0  0
  -23.6074  -29.8260   20.1670 C   0  0  0  0  0  0
  -25.4111  -36.3127   24.0343 C   0  0  1  0  0  0
  -20.5865  -28.3676   23.1328 C   0  0  2  0  0  0
  -20.6785  -26.9422   22.5418 C   0  0  0  0  0  0
  -19.5754  -26.6390   21.5227 C   0  0  0  0  0  0
  -18.1927  -26.7930   22.1623 C   0  0  0  0  0  0
  -19.1526  -28.8838   23.2913 C   0  0  0  0  0  0
  -18.9458  -30.1441   23.8920 C   0  0  0  0  0  0
  -17.6462  -30.6593   24.0570 C   0  0  0  0  0  0
  -25.9047  -34.9489   23.5131 C   0  0  0  0  0  0
  -16.5353  -29.9102   23.6328 C   0  0  0  0  0  0
  -16.7265  -28.6506   23.0371 C   0  0  0  0  0  0
  -26.4450  -31.6627   25.0736 C   0  0  0  0  0  0
  -25.3706  -31.3761   26.1489 C   0  0  0  0  0  0
  -27.0260  -30.3073   24.6102 C   0  0  0  0  0  0
  -27.6036  -32.4347   25.7481 C   0  0  0  0  0  0
  -27.5584  -37.1808   24.8465 C   0  0  0  0  0  0
  -21.4138  -29.3050   22.3736 N   0  0  0  0  0  0
  -26.4296  -37.3812   23.9418 N   0  0  0  0  0  0
  -24.6676  -31.0813   22.0998 N   0  0  0  0  0  0
  -23.4171  -28.8241   23.3080 O   0  0  0  0  0  0
  -28.3992  -26.7074   20.0979 O   0  0  0  0  0  0
  -26.5584  -34.8944   22.4677 O   0  0  0  0  0  0
  -23.5352  -32.1453   23.7503 O   0  0  0  0  0  0
  -27.4001  -19.9056   17.0812 C   0  0  0  0  0  0
  -27.5916  -21.2104   16.6051 C   0  0  0  0  0  0
  -27.6355  -19.6183   18.4343 C   0  0  0  0  0  0
  -27.9840  -22.2282   17.4913 C   0  0  0  0  0  0
  -28.0728  -20.6198   19.3327 C   0  0  0  0  0  0
  -28.1995  -21.9660   18.8712 C   0  0  0  0  0  0
  -28.3650  -20.2161   20.7856 C   0  0  0  0  0  0
  -30.3632  -16.8773   21.1050 C   0  0  0  0  0  0
  -29.1261  -17.8116   21.0511 C   0  0  0  0  0  0
  -28.3160  -25.3282   20.4989 C   0  0  0  0  0  0
  -28.4236  -24.3439   19.3179 C   0  0  0  0  0  0
  -29.9934  -15.4526   21.1302 N   0  0  0  0  0  0
  -29.4887  -19.2491   20.9164 N   0  3  0  0  0  0
  -28.4980  -22.9794   19.7712 O   0  0  0  0  0  0
  -31.4717  -12.4141   19.1063 H   0  0  0  0  0  0
  -30.3399  -11.2893   19.8047 H   0  0  0  0  0  0
  -29.7339  -11.7670   17.4262 H   0  0  0  0  0  0
  -29.6658  -13.4805   17.7591 H   0  0  0  0  0  0
  -27.8379  -11.3026   18.8232 H   0  0  0  0  0  0
  -27.3646  -12.6239   17.7873 H   0  0  0  0  0  0
  -27.7118  -14.2478   19.5786 H   0  0  0  0  0  0
  -28.6845  -11.9331   21.3251 H   0  0  0  0  0  0
  -28.4689  -13.5637   21.8767 H   0  0  0  0  0  0
  -25.2766   -9.5701   22.4749 H   0  0  0  0  0  0
  -24.0029   -7.4632   22.7456 H   0  0  0  0  0  0
  -21.0840   -8.8786   19.8944 H   0  0  0  0  0  0
  -22.3694  -10.9695   19.6166 H   0  0  0  0  0  0
  -21.1973   -7.6139   23.9733 H   0  0  0  0  0  0
  -21.1476   -6.0494   25.9084 H   0  0  0  0  0  0
  -22.0602   -2.7608   23.2835 H   0  0  0  0  0  0
  -22.4072  -11.9935   22.4829 H   0  0  0  0  0  0
  -21.1116  -13.1328   22.2553 H   0  0  0  0  0  0
  -24.6667  -15.8413   20.4812 H   0  0  0  0  0  0
  -26.2716  -15.6048   20.0097 H   0  0  0  0  0  0
  -26.7120  -32.5523   23.1161 H   0  0  0  0  0  0
  -25.0184  -33.9808   25.0552 H   0  0  0  0  0  0
  -22.6919  -31.3125   21.4153 H   0  0  0  0  0  0
  -23.3772  -35.9620   23.3310 H   0  0  0  0  0  0
  -24.3591  -36.8884   22.2046 H   0  0  0  0  0  0
  -23.7204  -37.6502   23.6629 H   0  0  0  0  0  0
  -26.0427  -31.5969   20.5890 H   0  0  0  0  0  0
  -26.8175  -30.8835   21.9806 H   0  0  0  0  0  0
  -28.1018  -29.1101   21.1411 H   0  0  0  0  0  0
  -26.0233  -25.9600   19.0441 H   0  0  0  0  0  0
  -23.9617  -27.2799   19.0686 H   0  0  0  0  0  0
  -23.7185  -30.6017   19.4082 H   0  0  0  0  0  0
  -22.7281  -29.2501   19.8704 H   0  0  0  0  0  0
  -25.1276  -36.2003   25.0836 H   0  0  0  0  0  0
  -20.9945  -28.3241   24.1454 H   0  0  0  0  0  0
  -20.5738  -26.2280   23.3603 H   0  0  0  0  0  0
  -21.6656  -26.7513   22.1181 H   0  0  0  0  0  0
  -19.6939  -25.6302   21.1256 H   0  0  0  0  0  0
  -19.6700  -27.3209   20.6769 H   0  0  0  0  0  0
  -17.4215  -26.6701   21.4012 H   0  0  0  0  0  0
  -18.0314  -26.0051   22.8992 H   0  0  0  0  0  0
  -19.7937  -30.7247   24.2316 H   0  0  0  0  0  0
  -17.5028  -31.6285   24.5151 H   0  0  0  0  0  0
  -15.5357  -30.3020   23.7645 H   0  0  0  0  0  0
  -15.8660  -28.0828   22.7108 H   0  0  0  0  0  0
  -24.5887  -30.7091   25.7842 H   0  0  0  0  0  0
  -24.8888  -32.2928   26.4915 H   0  0  0  0  0  0
  -25.8044  -30.8960   27.0269 H   0  0  0  0  0  0
  -26.2794  -29.6886   24.1114 H   0  0  0  0  0  0
  -27.3977  -29.7274   25.4557 H   0  0  0  0  0  0
  -27.8664  -30.4398   23.9278 H   0  0  0  0  0  0
  -27.2666  -33.3651   26.2072 H   0  0  0  0  0  0
  -28.3821  -32.6909   25.0280 H   0  0  0  0  0  0
  -28.0732  -31.8469   26.5375 H   0  0  0  0  0  0
  -28.2609  -38.0103   24.7541 H   0  0  0  0  0  0
  -28.1064  -36.2642   24.6248 H   0  0  0  0  0  0
  -27.2307  -37.1390   25.8866 H   0  0  0  0  0  0
  -20.9308  -29.8728   21.6916 H   0  0  0  0  0  0
  -26.0193  -38.2894   24.1428 H   0  0  0  0  0  0
  -27.0747  -19.1226   16.4100 H   0  0  0  0  0  0
  -27.4165  -21.4364   15.5623 H   0  0  0  0  0  0
  -27.4677  -18.6056   18.7643 H   0  0  0  0  0  0
  -28.0993  -23.2143   17.0674 H   0  0  0  0  0  0
  -27.4576  -19.8374   21.2588 H   0  0  0  0  0  0
  -28.6436  -21.1050   21.3504 H   0  0  0  0  0  0
  -30.9684  -17.0952   21.9868 H   0  0  0  0  0  0
  -30.9940  -17.0758   20.2355 H   0  0  0  0  0  0
  -28.5250  -17.6811   21.9528 H   0  0  0  0  0  0
  -28.4969  -17.5041   20.2200 H   0  0  0  0  0  0
  -29.1476  -25.1402   21.1780 H   0  0  0  0  0  0
  -27.4125  -25.1276   21.0783 H   0  0  0  0  0  0
  -29.3139  -24.5689   18.7294 H   0  0  0  0  0  0
  -27.5566  -24.5011   18.6792 H   0  0  0  0  0  0
  -29.0854  -15.2056   21.4945 H   0  0  0  0  0  0
  -29.9976  -19.5073   21.7471 H   0  0  0  0  0  0
  -30.1083  -19.3831   20.1360 H   0  0  0  0  0  0
  1 25  1  0  0  0
  1 30  2  0  0  0
  1 82  1  0  0  0
  2  3  1  0  0  0
  2 25  1  0  0  0
  2 85  1  0  0  0
  2 86  1  0  0  0
  3  4  1  0  0  0
  3 87  1  0  0  0
  3 88  1  0  0  0
  4  5  1  0  0  0
  4 89  1  0  0  0
  4 90  1  0  0  0
  5  6  1  0  0  0
  5 26  1  0  0  0
  5 91  1  0  0  0
  6 25  1  0  0  0
  6 92  1  0  0  0
  6 93  1  0  0  0
  7  8  2  0  0  0
  7 26  1  0  0  0
  7 29  1  0  0  0
  8  9  1  0  0  0
  8 22  1  0  0  0
  9 10  1  0  0  0
  9 27  2  0  0  0
 10 11  2  0  0  0
 10 15  1  0  0  0
 11 12  1  0  0  0
 11 94  1  0  0  0
 12 13  2  0  0  0
 12 95  1  0  0  0
 13 14  1  0  0  0
 13 31  1  0  0  0
 14 15  2  0  0  0
 14 96  1  0  0  0
 15 97  1  0  0  0
 16 17  2  0  0  0
 16 21  1  0  0  0
 16 31  1  0  0  0
 17 18  1  0  0  0
 17 98  1  0  0  0
 18 19  2  0  0  0
 18 99  1  0  0  0
 19 20  1  0  0  0
 19 24  1  0  0  0
 20 21  2  0  0  0
 20100  1  0  0  0
 21 23  1  0  0  0
 22 28  1  0  0  0
 22 32  2  0  0  0
 26 27  1  0  0  0
 28101  1  0  0  0
 28102  1  0  0  0
 29103  1  0  0  0
 29104  1  0  0  0
 33 34  1  0  0  0
 33 66  1  0  0  0
 33 70  2  0  0  0
 34 36  1  0  0  0
 34 59  1  0  0  0
 34105  1  0  0  0
 35 44  2  0  0  0
 35 45  1  0  0  0
 35 68  1  0  0  0
 36 56  1  0  0  0
 36106  1  0  0  0
 37 39  1  0  0  0
 37 47  1  0  0  0
 37 66  1  0  0  0
 37107  1  0  0  0
 38 43  2  0  0  0
 38 46  1  0  0  0
 38 47  1  0  0  0
 39 64  1  0  0  0
 39 67  2  0  0  0
 40 52  1  0  0  0
 40 53  2  0  0  0
 40 58  1  0  0  0
 41108  1  0  0  0
 41109  1  0  0  0
 41110  1  0  0  0
 41 48  1  0  0  0
 42 43  1  0  0  0
 42 66  1  0  0  0
 42111  1  0  0  0
 42112  1  0  0  0
 43 44  1  0  0  0
 44113  1  0  0  0
 45 46  2  0  0  0
 45114  1  0  0  0
 46115  1  0  0  0
 47116  1  0  0  0
 47117  1  0  0  0
 48 56  1  0  0  0
 48 65  1  0  0  0
 48118  1  0  0  0
 49 50  1  0  0  0
 49 53  1  0  0  0
 49 64  1  0  0  0
 49119  1  0  0  0
 50 51  1  0  0  0
 50120  1  0  0  0
 50121  1  0  0  0
 51 52  1  0  0  0
 51122  1  0  0  0
 51123  1  0  0  0
 52124  1  0  0  0
 52125  1  0  0  0
 53 54  1  0  0  0
 54 55  2  0  0  0
 54126  1  0  0  0
 55 57  1  0  0  0
 55127  1  0  0  0
 56 69  2  0  0  0
 57 58  2  0  0  0
 57128  1  0  0  0
 58129  1  0  0  0
 59 60  1  0  0  0
 59 61  1  0  0  0
 59 62  1  0  0  0
 60130  1  0  0  0
 60131  1  0  0  0
 60132  1  0  0  0
 61133  1  0  0  0
 61134  1  0  0  0
 61135  1  0  0  0
 62136  1  0  0  0
 62137  1  0  0  0
 62138  1  0  0  0
 63 65  1  0  0  0
 63139  1  0  0  0
 63140  1  0  0  0
 63141  1  0  0  0
 64142  1  0  0  0
 65143  1  0  0  0
 68 80  1  0  0  0
 71 72  2  0  0  0
 71 73  1  0  0  0
 71144  1  0  0  0
 72 74  1  0  0  0
 72145  1  0  0  0
 73 75  2  0  0  0
 73146  1  0  0  0
 74 76  2  0  0  0
 74147  1  0  0  0
 75 76  1  0  0  0
 75 77  1  0  0  0
 76 84  1  0  0  0
 77 83  1  0  0  0
 77148  1  0  0  0
 77149  1  0  0  0
 78 79  1  0  0  0
 78 82  1  0  0  0
 78150  1  0  0  0
 78151  1  0  0  0
 79 83  1  0  0  0
 79152  1  0  0  0
 79153  1  0  0  0
 80 81  1  0  0  0
 80154  1  0  0  0
 80155  1  0  0  0
 81 84  1  0  0  0
 81156  1  0  0  0
 81157  1  0  0  0
 82158  1  0  0  0
 83159  1  0  0  0
 83160  1  0  0  0
M  CHG  1  83   1
M  ISO  4   1 100  68 101  80 101  82 100
M  END
> <chiral flag>
0

> <version>
0

> <s_m_source_file>
/data/baiqing/PycharmProjects/Reinvent-master-3.2/result/LINK_invent/BTK/process_docking_weight1_custom_sum_contain_oxygen_bond_distance_aromatic_linkinvent_7_9_3/rearranged_h_0130.sdf

> <i_m_source_file_index>
29

> <r_mmod_Potential_Energy-OPLS-2005>
-310.204650878906

> <r_mmod_Stretch_Energy-OPLS-2005>
39.0606842041016

> <r_mmod_Bend_Energy-OPLS-2005>
96.1445236206055

> <r_mmod_Torsional_Energy-OPLS-2005>
207.625854492188

> <r_mmod_Improper_Torsional_Energy-OPLS-2005>
4.06358957290649

> <r_mmod_Van_der_Waal_Energy-OPLS-2005>
159.583404541016

> <r_mmod_Electrostatic_Energy-OPLS-2005>
-342.461730957031

> <r_mmod_Solvation_Energy-OPLS-2005>
-486.049285888672

> <b_mmod_Minimization_Converged-OPLS-2005>
0

> <r_mmod_RMS_Derivative-OPLS-2005>
2.36766386032104

$$$$
29
                    3D
 Structure written by MMmdl.
182192  0  0  1  0            999 V2000
  -30.6212  -14.8786   20.3942 C   0  0  0  0  0  0
  -30.4286  -12.5470   19.4649 C   0  0  0  0  0  0
  -29.5047  -12.5000   18.2299 C   0  0  0  0  0  0
  -28.0395  -12.3077   18.6607 C   0  0  0  0  0  0
  -27.6274  -13.2472   19.8247 C   0  0  2  0  0  0
  -28.6816  -13.2951   20.9503 C   0  0  0  0  0  0
  -25.2484  -13.8225   20.5710 C   0  0  0  0  0  0
  -24.1785  -13.0459   20.9218 C   0  0  0  0  0  0
  -24.6400  -11.6931   20.8759 C   0  0  0  0  0  0
  -23.9081  -10.4298   21.0411 C   0  0  0  0  0  0
  -24.3632   -9.4207   21.9182 C   0  0  0  0  0  0
  -23.6307   -8.2240   22.0748 C   0  0  0  0  0  0
  -22.4284   -8.0286   21.3538 C   0  0  0  0  0  0
  -21.9927   -9.0258   20.4641 C   0  0  0  0  0  0
  -22.7260  -10.2135   20.3053 C   0  0  0  0  0  0
  -21.6851   -6.0747   22.5281 C   0  0  0  0  0  0
  -21.4013   -6.5649   23.8216 C   0  0  0  0  0  0
  -21.3652   -5.6800   24.9175 C   0  0  0  0  0  0
  -21.6041   -4.3063   24.7219 C   0  0  0  0  0  0
  -21.8821   -3.8157   23.4339 C   0  0  0  0  0  0
  -21.9193   -4.6976   22.3399 C   0  0  0  0  0  0
  -22.7806  -13.5236   21.1886 C   0  0  0  0  0  0
  -22.1663   -4.2161   21.0973 F   0  0  0  0  0  0
  -21.5620   -3.4544   25.7733 F   0  0  0  0  0  0
  -29.9519  -13.6661   20.3180 N   0  0  0  0  0  0
  -26.2895  -12.9460   20.3233 N   0  0  0  0  0  0
  -25.9334  -11.6586   20.5754 N   0  0  0  0  0  0
  -22.0453  -12.8196   22.0427 N   0  0  0  0  0  0
  -25.4209  -15.1951   20.4143 N   0  0  0  0  0  0
  -31.8518  -14.8337   20.2936 O   0  0  0  0  0  0
  -21.6640   -6.8891   21.4241 O   0  0  0  0  0  0
  -22.3489  -14.5543   20.6754 O   0  0  0  0  0  0
  -24.6418  -31.8493   23.1943 C   0  0  0  0  0  0
  -25.9200  -32.4722   23.8304 C   0  0  1  0  0  0
  -27.2044  -27.1676   20.1303 C   0  0  0  0  0  0
  -25.5961  -33.8518   24.2215 N   0  0  0  0  0  0
  -23.4437  -30.4741   21.5404 C   0  0  2  0  0  0
  -24.8896  -28.9213   20.1053 C   0  0  0  0  0  0
  -22.7559  -29.4568   22.4861 C   0  0  0  0  0  0
  -18.0312  -28.1404   22.8487 C   0  0  0  0  0  0
  -24.1478  -36.7253   23.2633 C   0  0  0  0  0  0
  -26.0001  -30.7323   21.3910 C   0  0  0  0  0  0
  -26.0692  -29.3492   20.7274 C   0  0  0  0  0  0
  -27.2279  -28.4868   20.7315 C   0  0  0  0  0  0
  -25.9984  -26.8552   19.4538 C   0  0  0  0  0  0
  -24.8652  -27.6849   19.4551 C   0  0  0  0  0  0
  -23.6662  -29.8178   20.1548 C   0  0  0  0  0  0
  -25.4113  -36.3042   24.0329 C   0  0  1  0  0  0
  -20.5927  -28.3717   23.1243 C   0  0  2  0  0  0
  -20.6787  -26.9424   22.5404 C   0  0  0  0  0  0
  -19.5765  -26.6390   21.5205 C   0  0  0  0  0  0
  -18.1951  -26.7950   22.1623 C   0  0  0  0  0  0
  -19.1567  -28.8882   23.2861 C   0  0  0  0  0  0
  -18.9484  -30.1477   23.8885 C   0  0  0  0  0  0
  -17.6476  -30.6593   24.0566 C   0  0  0  0  0  0
  -25.9072  -34.9420   23.5075 C   0  0  0  0  0  0
  -16.5365  -29.9087   23.6335 C   0  0  0  0  0  0
  -16.7297  -28.6508   23.0353 C   0  0  0  0  0  0
  -26.4518  -31.6574   25.0726 C   0  0  0  0  0  0
  -25.3698  -31.3787   26.1422 C   0  0  0  0  0  0
  -27.0340  -30.2963   24.6284 C   0  0  0  0  0  0
  -27.6069  -32.4312   25.7500 C   0  0  0  0  0  0
  -27.5591  -37.1767   24.8453 C   0  0  0  0  0  0
  -21.4253  -29.3045   22.3608 N   0  0  0  0  0  0
  -26.4263  -37.3774   23.9448 N   0  0  0  0  0  0
  -24.7146  -31.0375   22.0973 N   0  0  0  0  0  0
  -23.4218  -28.8104   23.2988 O   0  0  0  0  0  0
  -28.2297  -26.1562   20.2114 O   0  0  0  0  0  0
  -26.5626  -34.8917   22.4634 O   0  0  0  0  0  0
  -23.5545  -32.1336   23.7188 O   0  0  0  0  0  0
  -29.1094  -22.6915   21.2885 C   0  0  0  0  0  0
  -28.4123  -22.2678   19.0839 C   0  0  0  0  0  0
  -29.4084  -20.3077   20.3603 C   0  0  0  0  0  0
  -28.5535  -23.2632   20.1028 C   0  0  0  0  0  0
  -29.5177  -21.2979   21.4162 C   0  0  0  0  0  0
  -28.8029  -20.8778   19.1852 C   0  0  0  0  0  0
  -36.1969  -20.1622   19.9082 C   0  0  0  0  0  0
  -35.1912  -19.2249   20.5682 C   0  0  0  0  0  0
  -31.5034  -17.5248   18.5691 C   0  0  0  0  0  0
  -30.3470  -16.4992   18.5720 C   0  0  0  0  0  0
  -29.3598  -17.3308   20.5653 C   0  0  0  0  0  0
  -35.3208  -21.2779   19.3277 C   0  0  0  0  0  0
  -30.1015  -18.8050   20.4203 C   0  0  1  0  0  0
  -31.3801  -18.7580   19.5188 C   0  0  1  0  0  0
  -33.9664  -19.3144   19.6469 C   0  0  1  0  0  0
  -30.0702  -20.8874   22.7720 C   0  0  0  0  0  0
  -29.3293  -20.3547   16.7342 C   0  0  0  0  0  0
  -28.4937  -20.0077   17.9754 C   0  0  0  0  0  0
  -27.7997  -24.7041   19.9276 C   0  0  0  0  0  0
  -32.6608  -18.9413   20.3830 C   0  0  0  0  0  0
  -29.9889  -16.0622   19.9281 N   0  0  0  0  0  0
  -33.9705  -20.7036   19.1400 N   0  3  0  0  0  0
  -31.4634  -12.6803   19.1455 H   0  0  0  0  0  0
  -30.3981  -11.6041   20.0138 H   0  0  0  0  0  0
  -29.8063  -11.6907   17.5635 H   0  0  0  0  0  0
  -29.5984  -13.4230   17.6546 H   0  0  0  0  0  0
  -27.9259  -11.2680   18.9707 H   0  0  0  0  0  0
  -27.3713  -12.4430   17.8100 H   0  0  0  0  0  0
  -27.5869  -14.2455   19.3867 H   0  0  0  0  0  0
  -28.7617  -12.3364   21.4650 H   0  0  0  0  0  0
  -28.4020  -14.0387   21.6990 H   0  0  0  0  0  0
  -25.2768   -9.5686   22.4768 H   0  0  0  0  0  0
  -24.0008   -7.4630   22.7465 H   0  0  0  0  0  0
  -21.0853   -8.8778   19.8954 H   0  0  0  0  0  0
  -22.3708  -10.9672   19.6162 H   0  0  0  0  0  0
  -21.2007   -7.6160   23.9728 H   0  0  0  0  0  0
  -21.1470   -6.0522   25.9079 H   0  0  0  0  0  0
  -22.0607   -2.7622   23.2828 H   0  0  0  0  0  0
  -22.4073  -11.9848   22.4780 H   0  0  0  0  0  0
  -21.1077  -13.1208   22.2672 H   0  0  0  0  0  0
  -24.6616  -15.8566   20.5315 H   0  0  0  0  0  0
  -26.2846  -15.6318   20.1183 H   0  0  0  0  0  0
  -26.7272  -32.5344   23.1042 H   0  0  0  0  0  0
  -25.0111  -33.9641   25.0368 H   0  0  0  0  0  0
  -22.7461  -31.3019   21.3928 H   0  0  0  0  0  0
  -23.3777  -35.9539   23.3231 H   0  0  0  0  0  0
  -24.3586  -36.8933   22.2057 H   0  0  0  0  0  0
  -23.7161  -37.6414   23.6689 H   0  0  0  0  0  0
  -26.1513  -31.4928   20.6234 H   0  0  0  0  0  0
  -26.8716  -30.7790   22.0305 H   0  0  0  0  0  0
  -28.1199  -28.8063   21.2524 H   0  0  0  0  0  0
  -25.8630  -25.9262   18.9243 H   0  0  0  0  0  0
  -23.9694  -27.3547   18.9459 H   0  0  0  0  0  0
  -23.8010  -30.5961   19.4034 H   0  0  0  0  0  0
  -22.7832  -29.2582   19.8410 H   0  0  0  0  0  0
  -25.1287  -36.1863   25.0820 H   0  0  0  0  0  0
  -21.0029  -28.3290   24.1358 H   0  0  0  0  0  0
  -20.5677  -26.2331   23.3622 H   0  0  0  0  0  0
  -21.6658  -26.7425   22.1205 H   0  0  0  0  0  0
  -19.6915  -25.6291   21.1258 H   0  0  0  0  0  0
  -19.6716  -27.3190   20.6732 H   0  0  0  0  0  0
  -17.4228  -26.6702   21.4018 H   0  0  0  0  0  0
  -18.0349  -26.0097   22.9021 H   0  0  0  0  0  0
  -19.7962  -30.7301   24.2243 H   0  0  0  0  0  0
  -17.5033  -31.6274   24.5168 H   0  0  0  0  0  0
  -15.5369  -30.2973   23.7686 H   0  0  0  0  0  0
  -15.8699  -28.0823   22.7064 H   0  0  0  0  0  0
  -24.5901  -30.7096   25.7765 H   0  0  0  0  0  0
  -24.8849  -32.2971   26.4741 H   0  0  0  0  0  0
  -25.7981  -30.9051   27.0264 H   0  0  0  0  0  0
  -26.2930  -29.6723   24.1275 H   0  0  0  0  0  0
  -27.3916  -29.7234   25.4848 H   0  0  0  0  0  0
  -27.8869  -30.4179   23.9607 H   0  0  0  0  0  0
  -27.2701  -33.3655   26.2011 H   0  0  0  0  0  0
  -28.3922  -32.6793   25.0344 H   0  0  0  0  0  0
  -28.0682  -31.8456   26.5464 H   0  0  0  0  0  0
  -28.2533  -38.0140   24.7615 H   0  0  0  0  0  0
  -28.1150  -36.2675   24.6111 H   0  0  0  0  0  0
  -27.2349  -37.1228   25.8860 H   0  0  0  0  0  0
  -20.9445  -29.8773   21.6815 H   0  0  0  0  0  0
  -26.0125  -38.2823   24.1528 H   0  0  0  0  0  0
  -29.1903  -23.3365   22.1523 H   0  0  0  0  0  0
  -27.9245  -22.5774   18.1712 H   0  0  0  0  0  0
  -36.7175  -19.6357   19.1063 H   0  0  0  0  0  0
  -36.9500  -20.5351   20.6032 H   0  0  0  0  0  0
  -34.9472  -19.5944   21.5657 H   0  0  0  0  0  0
  -35.5674  -18.2072   20.6770 H   0  0  0  0  0  0
  -31.6350  -17.8808   17.5459 H   0  0  0  0  0  0
  -32.4227  -16.9832   18.7917 H   0  0  0  0  0  0
  -30.6258  -15.6421   17.9534 H   0  0  0  0  0  0
  -29.4686  -16.9135   18.0808 H   0  0  0  0  0  0
  -28.3655  -17.4201   20.1283 H   0  0  0  0  0  0
  -29.1707  -17.1188   21.6180 H   0  0  0  0  0  0
  -35.7274  -21.6676   18.3936 H   0  0  0  0  0  0
  -35.2499  -22.1133   20.0260 H   0  0  0  0  0  0
  -30.5154  -18.8186   21.4229 H   0  0  0  0  0  0
  -31.3266  -19.6318   18.8706 H   0  0  0  0  0  0
  -34.1317  -18.6485   18.7981 H   0  0  0  0  0  0
  -29.8331  -21.6232   23.5402 H   0  0  0  0  0  0
  -31.1542  -20.7834   22.7341 H   0  0  0  0  0  0
  -29.6393  -19.9406   23.1004 H   0  0  0  0  0  0
  -29.0301  -19.7369   15.8865 H   0  0  0  0  0  0
  -30.3925  -20.1885   16.8992 H   0  0  0  0  0  0
  -29.1980  -21.3958   16.4392 H   0  0  0  0  0  0
  -27.4361  -20.1355   17.7394 H   0  0  0  0  0  0
  -28.6077  -18.9546   18.2173 H   0  0  0  0  0  0
  -26.8575  -24.5493   20.4557 H   0  0  0  0  0  0
  -27.5597  -24.7054   18.8646 H   0  0  0  0  0  0
  -32.8217  -18.0200   20.9435 H   0  0  0  0  0  0
  -32.4908  -19.7115   21.1346 H   0  0  0  0  0  0
  -33.7094  -20.7289   18.1670 H   0  0  0  0  0  0
  -33.3155  -21.2674   19.6585 H   0  0  0  0  0  0
  1 25  1  0  0  0
  1 30  2  0  0  0
  1 91  1  0  0  0
  2  3  1  0  0  0
  2 25  1  0  0  0
  2 93  1  0  0  0
  2 94  1  0  0  0
  3  4  1  0  0  0
  3 95  1  0  0  0
  3 96  1  0  0  0
  4  5  1  0  0  0
  4 97  1  0  0  0
  4 98  1  0  0  0
  5  6  1  0  0  0
  5 26  1  0  0  0
  5 99  1  0  0  0
  6 25  1  0  0  0
  6100  1  0  0  0
  6101  1  0  0  0
  7  8  2  0  0  0
  7 26  1  0  0  0
  7 29  1  0  0  0
  8  9  1  0  0  0
  8 22  1  0  0  0
  9 10  1  0  0  0
  9 27  2  0  0  0
 10 11  2  0  0  0
 10 15  1  0  0  0
 11 12  1  0  0  0
 11102  1  0  0  0
 12 13  2  0  0  0
 12103  1  0  0  0
 13 14  1  0  0  0
 13 31  1  0  0  0
 14 15  2  0  0  0
 14104  1  0  0  0
 15105  1  0  0  0
 16 17  2  0  0  0
 16 21  1  0  0  0
 16 31  1  0  0  0
 17 18  1  0  0  0
 17106  1  0  0  0
 18 19  2  0  0  0
 18107  1  0  0  0
 19 20  1  0  0  0
 19 24  1  0  0  0
 20 21  2  0  0  0
 20108  1  0  0  0
 21 23  1  0  0  0
 22 28  1  0  0  0
 22 32  2  0  0  0
 26 27  1  0  0  0
 28109  1  0  0  0
 28110  1  0  0  0
 29111  1  0  0  0
 29112  1  0  0  0
 33 34  1  0  0  0
 33 66  1  0  0  0
 33 70  2  0  0  0
 34 36  1  0  0  0
 34 59  1  0  0  0
 34113  1  0  0  0
 35 44  2  0  0  0
 35 45  1  0  0  0
 35 68  1  0  0  0
 36 56  1  0  0  0
 36114  1  0  0  0
 37 39  1  0  0  0
 37 47  1  0  0  0
 37 66  1  0  0  0
 37115  1  0  0  0
 38 43  2  0  0  0
 38 46  1  0  0  0
 38 47  1  0  0  0
 39 64  1  0  0  0
 39 67  2  0  0  0
 40 52  1  0  0  0
 40 53  2  0  0  0
 40 58  1  0  0  0
 41116  1  0  0  0
 41117  1  0  0  0
 41118  1  0  0  0
 41 48  1  0  0  0
 42 43  1  0  0  0
 42 66  1  0  0  0
 42119  1  0  0  0
 42120  1  0  0  0
 43 44  1  0  0  0
 44121  1  0  0  0
 45 46  2  0  0  0
 45122  1  0  0  0
 46123  1  0  0  0
 47124  1  0  0  0
 47125  1  0  0  0
 48 56  1  0  0  0
 48 65  1  0  0  0
 48126  1  0  0  0
 49 50  1  0  0  0
 49 53  1  0  0  0
 49 64  1  0  0  0
 49127  1  0  0  0
 50 51  1  0  0  0
 50128  1  0  0  0
 50129  1  0  0  0
 51 52  1  0  0  0
 51130  1  0  0  0
 51131  1  0  0  0
 52132  1  0  0  0
 52133  1  0  0  0
 53 54  1  0  0  0
 54 55  2  0  0  0
 54134  1  0  0  0
 55 57  1  0  0  0
 55135  1  0  0  0
 56 69  2  0  0  0
 57 58  2  0  0  0
 57136  1  0  0  0
 58137  1  0  0  0
 59 60  1  0  0  0
 59 61  1  0  0  0
 59 62  1  0  0  0
 60138  1  0  0  0
 60139  1  0  0  0
 60140  1  0  0  0
 61141  1  0  0  0
 61142  1  0  0  0
 61143  1  0  0  0
 62144  1  0  0  0
 62145  1  0  0  0
 62146  1  0  0  0
 63 65  1  0  0  0
 63147  1  0  0  0
 63148  1  0  0  0
 63149  1  0  0  0
 64150  1  0  0  0
 65151  1  0  0  0
 68 89  1  0  0  0
 71 74  2  0  0  0
 71 75  1  0  0  0
 71152  1  0  0  0
 72 74  1  0  0  0
 72 76  2  0  0  0
 72153  1  0  0  0
 73 75  2  0  0  0
 73 76  1  0  0  0
 73 83  1  0  0  0
 74 89  1  0  0  0
 75 86  1  0  0  0
 76 88  1  0  0  0
 77 78  1  0  0  0
 77 82  1  0  0  0
 77154  1  0  0  0
 77155  1  0  0  0
 78 85  1  0  0  0
 78156  1  0  0  0
 78157  1  0  0  0
 79 80  1  0  0  0
 79 84  1  0  0  0
 79158  1  0  0  0
 79159  1  0  0  0
 80 91  1  0  0  0
 80160  1  0  0  0
 80161  1  0  0  0
 81 83  1  0  0  0
 81 91  1  0  0  0
 81162  1  0  0  0
 81163  1  0  0  0
 82 92  1  0  0  0
 82164  1  0  0  0
 82165  1  0  0  0
 83 84  1  0  0  0
 83166  1  0  0  0
 84 90  1  0  0  0
 84167  1  0  0  0
 85 90  1  0  0  0
 85 92  1  0  0  0
 85168  1  0  0  0
 86169  1  0  0  0
 86170  1  0  0  0
 86171  1  0  0  0
 87 88  1  0  0  0
 87172  1  0  0  0
 87173  1  0  0  0
 87174  1  0  0  0
 88175  1  0  0  0
 88176  1  0  0  0
 89177  1  0  0  0
 89178  1  0  0  0
 90179  1  0  0  0
 90180  1  0  0  0
 92181  1  0  0  0
 92182  1  0  0  0
M  CHG  1  92   1
M  ISO  4   1 100  68 101  89 101  91 100
M  END
> <chiral flag>
0

> <version>
0

> <s_m_source_file>
/data/baiqing/PycharmProjects/Reinvent-master-3.2/result/LINK_invent/BTK/process_docking_weight1_custom_sum_contain_oxygen_bond_distance_aromatic_linkinvent_7_9_3/rearranged_h_0130.sdf

> <i_m_source_file_index>
30

> <r_mmod_Potential_Energy-OPLS-2005>
671.437622070312

> <r_mmod_Stretch_Energy-OPLS-2005>
205.896575927734

> <r_mmod_Bend_Energy-OPLS-2005>
317.331512451172

> <r_mmod_Torsional_Energy-OPLS-2005>
458.550323486328

> <r_mmod_Improper_Torsional_Energy-OPLS-2005>
29.9920196533203

> <r_mmod_Van_der_Waal_Energy-OPLS-2005>
142.037445068359

> <r_mmod_Electrostatic_Energy-OPLS-2005>
-227.142822265625

> <r_mmod_Solvation_Energy-OPLS-2005>
-425.555572509766

> <b_mmod_Minimization_Converged-OPLS-2005>
0

> <r_mmod_RMS_Derivative-OPLS-2005>
2.49475002288818

$$$$
30
                    3D
 Structure written by MMmdl.
172181  0  0  1  0            999 V2000
  -30.8203  -14.3051   20.7458 C   0  0  0  0  0  0
  -30.4108  -12.2942   19.3795 C   0  0  0  0  0  0
  -29.4749  -12.5374   18.1847 C   0  0  0  0  0  0
  -28.0053  -12.3788   18.6096 C   0  0  0  0  0  0
  -27.6659  -13.2044   19.8770 C   0  0  2  0  0  0
  -28.7039  -12.9603   20.9948 C   0  0  0  0  0  0
  -25.2603  -13.8162   20.5673 C   0  0  0  0  0  0
  -24.1848  -13.0441   20.9164 C   0  0  0  0  0  0
  -24.6397  -11.6906   20.8725 C   0  0  0  0  0  0
  -23.9061  -10.4294   21.0400 C   0  0  0  0  0  0
  -24.3614   -9.4211   21.9181 C   0  0  0  0  0  0
  -23.6290   -8.2246   22.0754 C   0  0  0  0  0  0
  -22.4273   -8.0282   21.3545 C   0  0  0  0  0  0
  -21.9907   -9.0254   20.4646 C   0  0  0  0  0  0
  -22.7234  -10.2134   20.3052 C   0  0  0  0  0  0
  -21.6852   -6.0735   22.5279 C   0  0  0  0  0  0
  -21.4015   -6.5639   23.8212 C   0  0  0  0  0  0
  -21.3658   -5.6792   24.9174 C   0  0  0  0  0  0
  -21.6043   -4.3055   24.7225 C   0  0  0  0  0  0
  -21.8819   -3.8147   23.4347 C   0  0  0  0  0  0
  -21.9192   -4.6964   22.3403 C   0  0  0  0  0  0
  -22.7871  -13.5242   21.1834 C   0  0  0  0  0  0
  -22.1662   -4.2149   21.0980 F   0  0  0  0  0  0
  -21.5628   -3.4539   25.7739 F   0  0  0  0  0  0
  -30.0537  -13.2237   20.4604 N   0  0  0  0  0  0
  -26.3045  -12.9332   20.3372 N   0  0  0  0  0  0
  -25.9323  -11.6490   20.5755 N   0  0  0  0  0  0
  -22.0508  -12.8232   22.0387 N   0  0  0  0  0  0
  -25.4337  -15.1880   20.4089 N   0  0  0  0  0  0
  -31.7606  -14.6814   20.0391 O   0  0  0  0  0  0
  -21.6638   -6.8879   21.4242 O   0  0  0  0  0  0
  -22.3561  -14.5555   20.6693 O   0  0  0  0  0  0
  -24.6097  -31.8709   23.2134 C   0  0  0  0  0  0
  -25.9010  -32.4840   23.8417 C   0  0  1  0  0  0
  -27.2426  -27.4695   20.0978 C   0  0  0  0  0  0
  -25.5888  -33.8638   24.2351 N   0  0  0  0  0  0
  -23.3968  -30.4928   21.5523 C   0  0  2  0  0  0
  -24.8469  -28.9606   20.1193 C   0  0  0  0  0  0
  -22.7385  -29.4665   22.5011 C   0  0  0  0  0  0
  -18.0264  -28.1368   22.8491 C   0  0  0  0  0  0
  -24.1486  -36.7324   23.2636 C   0  0  0  0  0  0
  -25.9206  -30.8461   21.3629 C   0  0  0  0  0  0
  -26.0010  -29.4794   20.7201 C   0  0  0  0  0  0
  -27.2013  -28.7394   20.7153 C   0  0  0  0  0  0
  -26.0802  -26.9648   19.4817 C   0  0  0  0  0  0
  -24.8783  -27.6980   19.5007 C   0  0  0  0  0  0
  -23.6055  -29.8219   20.1675 C   0  0  0  0  0  0
  -25.4105  -36.3124   24.0341 C   0  0  1  0  0  0
  -20.5850  -28.3652   23.1329 C   0  0  2  0  0  0
  -20.6756  -26.9393   22.5420 C   0  0  0  0  0  0
  -19.5742  -26.6383   21.5207 C   0  0  0  0  0  0
  -18.1915  -26.7920   22.1611 C   0  0  0  0  0  0
  -19.1512  -28.8826   23.2907 C   0  0  0  0  0  0
  -18.9445  -30.1433   23.8918 C   0  0  0  0  0  0
  -17.6450  -30.6578   24.0565 C   0  0  0  0  0  0
  -25.9028  -34.9485   23.5141 C   0  0  0  0  0  0
  -16.5340  -29.9084   23.6321 C   0  0  0  0  0  0
  -16.7255  -28.6499   23.0345 C   0  0  0  0  0  0
  -26.4461  -31.6600   25.0721 C   0  0  0  0  0  0
  -25.3743  -31.3693   26.1480 C   0  0  0  0  0  0
  -27.0285  -30.3050   24.6059 C   0  0  0  0  0  0
  -27.6050  -32.4307   25.7475 C   0  0  0  0  0  0
  -27.5584  -37.1814   24.8462 C   0  0  0  0  0  0
  -21.4118  -29.3026   22.3745 N   0  0  0  0  0  0
  -26.4297  -37.3803   23.9408 N   0  0  0  0  0  0
  -24.6600  -31.0839   22.1019 N   0  0  0  0  0  0
  -23.4170  -28.8208   23.3044 O   0  0  0  0  0  0
  -28.3928  -26.7219   20.0228 O   0  0  0  0  0  0
  -26.5586  -34.8927   22.4700 O   0  0  0  0  0  0
  -23.5300  -32.1445   23.7551 O   0  0  0  0  0  0
  -27.8657  -22.8284   21.6320 C   0  0  0  0  0  0
  -29.7750  -23.1781   23.1010 C   0  0  0  0  0  0
  -27.9626  -24.1628   21.1909 C   0  0  0  0  0  0
  -29.8706  -24.5125   22.6577 C   0  0  0  0  0  0
  -28.7684  -22.3257   22.5934 C   0  0  0  0  0  0
  -28.9668  -25.0154   21.6990 C   0  0  0  0  0  0
  -29.8301  -19.9788   22.8045 C   0  0  0  0  0  0
  -28.7099  -19.2431   24.7889 C   0  0  0  0  0  0
  -28.6249  -20.8901   23.0958 C   0  0  1  0  0  0
  -28.3980  -20.7385   24.6056 C   0  0  1  0  0  0
  -29.0775  -26.4677   21.2498 C   0  0  0  0  0  0
  -26.9889  -21.1810   25.0721 C   0  0  0  0  0  0
  -31.1905  -17.1761   22.6772 C   0  0  0  0  0  0
  -31.5489  -15.6769   22.6946 C   0  0  0  0  0  0
  -29.8717  -17.5247   23.4007 C   0  0  0  0  0  0
  -30.6085  -14.8253   21.9627 N   0  0  0  0  0  0
  -29.8245  -18.9370   23.8608 N   0  3  1  0  0  0
  -26.8536  -21.2606   26.5399 N   0  3  0  0  0  0
  -31.4525  -12.3980   19.0692 H   0  0  0  0  0  0
  -30.3114  -11.2680   19.7369 H   0  0  0  0  0  0
  -29.7075  -11.8427   17.3764 H   0  0  0  0  0  0
  -29.6383  -13.5398   17.7855 H   0  0  0  0  0  0
  -27.8225  -11.3198   18.7955 H   0  0  0  0  0  0
  -27.3447  -12.6615   17.7891 H   0  0  0  0  0  0
  -27.7217  -14.2570   19.5984 H   0  0  0  0  0  0
  -28.6540  -11.9270   21.3415 H   0  0  0  0  0  0
  -28.4512  -13.5749   21.8592 H   0  0  0  0  0  0
  -25.2760   -9.5687   22.4753 H   0  0  0  0  0  0
  -24.0000   -7.4639   22.7475 H   0  0  0  0  0  0
  -21.0838   -8.8770   19.8953 H   0  0  0  0  0  0
  -22.3693  -10.9670   19.6158 H   0  0  0  0  0  0
  -21.2008   -7.6147   23.9716 H   0  0  0  0  0  0
  -21.1479   -6.0523   25.9077 H   0  0  0  0  0  0
  -22.0600   -2.7610   23.2848 H   0  0  0  0  0  0
  -22.4110  -11.9879   22.4758 H   0  0  0  0  0  0
  -21.1125  -13.1258   22.2587 H   0  0  0  0  0  0
  -24.6697  -15.8468   20.5129 H   0  0  0  0  0  0
  -26.2934  -15.6235   20.0975 H   0  0  0  0  0  0
  -26.7085  -32.5579   23.1193 H   0  0  0  0  0  0
  -25.0056  -33.9812   25.0508 H   0  0  0  0  0  0
  -22.6831  -31.3073   21.4130 H   0  0  0  0  0  0
  -23.3744  -35.9660   23.3304 H   0  0  0  0  0  0
  -24.3584  -36.8929   22.2049 H   0  0  0  0  0  0
  -23.7239  -37.6533   23.6642 H   0  0  0  0  0  0
  -26.0237  -31.6081   20.5892 H   0  0  0  0  0  0
  -26.8117  -30.9077   21.9754 H   0  0  0  0  0  0
  -28.0936  -29.1519   21.1654 H   0  0  0  0  0  0
  -26.1065  -26.0032   18.9890 H   0  0  0  0  0  0
  -23.9933  -27.2934   19.0288 H   0  0  0  0  0  0
  -23.7094  -30.5949   19.4052 H   0  0  0  0  0  0
  -22.7320  -29.2362   19.8749 H   0  0  0  0  0  0
  -25.1278  -36.2000   25.0835 H   0  0  0  0  0  0
  -20.9936  -28.3216   24.1450 H   0  0  0  0  0  0
  -20.5655  -26.2257   23.3600 H   0  0  0  0  0  0
  -21.6631  -26.7441   22.1218 H   0  0  0  0  0  0
  -19.6908  -25.6300   21.1222 H   0  0  0  0  0  0
  -19.6689  -27.3207   20.6749 H   0  0  0  0  0  0
  -17.4189  -26.6670   21.4008 H   0  0  0  0  0  0
  -18.0315  -26.0052   22.8998 H   0  0  0  0  0  0
  -19.7922  -30.7240   24.2301 H   0  0  0  0  0  0
  -17.5007  -31.6262   24.5159 H   0  0  0  0  0  0
  -15.5344  -30.2998   23.7634 H   0  0  0  0  0  0
  -15.8650  -28.0830   22.7052 H   0  0  0  0  0  0
  -24.5914  -30.7041   25.7819 H   0  0  0  0  0  0
  -24.8935  -32.2844   26.4948 H   0  0  0  0  0  0
  -25.8107  -30.8849   27.0223 H   0  0  0  0  0  0
  -26.2817  -29.6821   24.1120 H   0  0  0  0  0  0
  -27.4082  -29.7271   25.4494 H   0  0  0  0  0  0
  -27.8638  -30.4383   23.9180 H   0  0  0  0  0  0
  -27.2683  -33.3593   26.2093 H   0  0  0  0  0  0
  -28.3836  -32.6884   25.0283 H   0  0  0  0  0  0
  -28.0744  -31.8402   26.5353 H   0  0  0  0  0  0
  -28.2605  -38.0109   24.7514 H   0  0  0  0  0  0
  -28.1077  -36.2642   24.6281 H   0  0  0  0  0  0
  -27.2305  -37.1462   25.8866 H   0  0  0  0  0  0
  -20.9271  -29.8750   21.6975 H   0  0  0  0  0  0
  -26.0190  -38.2884   24.1408 H   0  0  0  0  0  0
  -27.0843  -22.1981   21.2297 H   0  0  0  0  0  0
  -30.4784  -22.8216   23.8407 H   0  0  0  0  0  0
  -27.2548  -24.5256   20.4605 H   0  0  0  0  0  0
  -30.6423  -25.1542   23.0605 H   0  0  0  0  0  0
  -30.7703  -20.5248   22.8898 H   0  0  0  0  0  0
  -29.7835  -19.5723   21.7933 H   0  0  0  0  0  0
  -27.8373  -18.6451   24.5181 H   0  0  0  0  0  0
  -28.9716  -18.9926   25.8177 H   0  0  0  0  0  0
  -27.7665  -20.4440   22.5887 H   0  0  0  0  0  0
  -29.1558  -21.3181   25.1348 H   0  0  0  0  0  0
  -30.1307  -26.7070   21.0985 H   0  0  0  0  0  0
  -28.7346  -27.0976   22.0717 H   0  0  0  0  0  0
  -26.2214  -20.5178   24.6702 H   0  0  0  0  0  0
  -26.7721  -22.1731   24.6726 H   0  0  0  0  0  0
  -31.1672  -17.5418   21.6500 H   0  0  0  0  0  0
  -32.0131  -17.7046   23.1612 H   0  0  0  0  0  0
  -31.5915  -15.3224   23.7255 H   0  0  0  0  0  0
  -32.5613  -15.5453   22.3066 H   0  0  0  0  0  0
  -29.7750  -16.8887   24.2823 H   0  0  0  0  0  0
  -29.0153  -17.2986   22.7634 H   0  0  0  0  0  0
  -29.8553  -14.4067   22.4898 H   0  0  0  0  0  0
  -30.6680  -19.0903   24.3945 H   0  0  0  0  0  0
  -26.9667  -20.3653   26.9797 H   0  0  0  0  0  0
  -25.9357  -21.5974   26.7728 H   0  0  0  0  0  0
  -27.5187  -21.9034   26.9324 H   0  0  0  0  0  0
  1 25  1  0  0  0
  1 30  2  0  0  0
  1 86  1  0  0  0
  2  3  1  0  0  0
  2 25  1  0  0  0
  2 89  1  0  0  0
  2 90  1  0  0  0
  3  4  1  0  0  0
  3 91  1  0  0  0
  3 92  1  0  0  0
  4  5  1  0  0  0
  4 93  1  0  0  0
  4 94  1  0  0  0
  5  6  1  0  0  0
  5 26  1  0  0  0
  5 95  1  0  0  0
  6 25  1  0  0  0
  6 96  1  0  0  0
  6 97  1  0  0  0
  7  8  2  0  0  0
  7 26  1  0  0  0
  7 29  1  0  0  0
  8  9  1  0  0  0
  8 22  1  0  0  0
  9 10  1  0  0  0
  9 27  2  0  0  0
 10 11  2  0  0  0
 10 15  1  0  0  0
 11 12  1  0  0  0
 11 98  1  0  0  0
 12 13  2  0  0  0
 12 99  1  0  0  0
 13 14  1  0  0  0
 13 31  1  0  0  0
 14 15  2  0  0  0
 14100  1  0  0  0
 15101  1  0  0  0
 16 17  2  0  0  0
 16 21  1  0  0  0
 16 31  1  0  0  0
 17 18  1  0  0  0
 17102  1  0  0  0
 18 19  2  0  0  0
 18103  1  0  0  0
 19 20  1  0  0  0
 19 24  1  0  0  0
 20 21  2  0  0  0
 20104  1  0  0  0
 21 23  1  0  0  0
 22 28  1  0  0  0
 22 32  2  0  0  0
 26 27  1  0  0  0
 28105  1  0  0  0
 28106  1  0  0  0
 29107  1  0  0  0
 29108  1  0  0  0
 33 34  1  0  0  0
 33 66  1  0  0  0
 33 70  2  0  0  0
 34 36  1  0  0  0
 34 59  1  0  0  0
 34109  1  0  0  0
 35 44  2  0  0  0
 35 45  1  0  0  0
 35 68  1  0  0  0
 36 56  1  0  0  0
 36110  1  0  0  0
 37 39  1  0  0  0
 37 47  1  0  0  0
 37 66  1  0  0  0
 37111  1  0  0  0
 38 43  2  0  0  0
 38 46  1  0  0  0
 38 47  1  0  0  0
 39 64  1  0  0  0
 39 67  2  0  0  0
 40 52  1  0  0  0
 40 53  2  0  0  0
 40 58  1  0  0  0
 41112  1  0  0  0
 41113  1  0  0  0
 41114  1  0  0  0
 41 48  1  0  0  0
 42 43  1  0  0  0
 42 66  1  0  0  0
 42115  1  0  0  0
 42116  1  0  0  0
 43 44  1  0  0  0
 44117  1  0  0  0
 45 46  2  0  0  0
 45118  1  0  0  0
 46119  1  0  0  0
 47120  1  0  0  0
 47121  1  0  0  0
 48 56  1  0  0  0
 48 65  1  0  0  0
 48122  1  0  0  0
 49 50  1  0  0  0
 49 53  1  0  0  0
 49 64  1  0  0  0
 49123  1  0  0  0
 50 51  1  0  0  0
 50124  1  0  0  0
 50125  1  0  0  0
 51 52  1  0  0  0
 51126  1  0  0  0
 51127  1  0  0  0
 52128  1  0  0  0
 52129  1  0  0  0
 53 54  1  0  0  0
 54 55  2  0  0  0
 54130  1  0  0  0
 55 57  1  0  0  0
 55131  1  0  0  0
 56 69  2  0  0  0
 57 58  2  0  0  0
 57132  1  0  0  0
 58133  1  0  0  0
 59 60  1  0  0  0
 59 61  1  0  0  0
 59 62  1  0  0  0
 60134  1  0  0  0
 60135  1  0  0  0
 60136  1  0  0  0
 61137  1  0  0  0
 61138  1  0  0  0
 61139  1  0  0  0
 62140  1  0  0  0
 62141  1  0  0  0
 62142  1  0  0  0
 63 65  1  0  0  0
 63143  1  0  0  0
 63144  1  0  0  0
 63145  1  0  0  0
 64146  1  0  0  0
 65147  1  0  0  0
 68 81  1  0  0  0
 71 73  2  0  0  0
 71 75  1  0  0  0
 71148  1  0  0  0
 72 74  1  0  0  0
 72 75  2  0  0  0
 72149  1  0  0  0
 73 76  1  0  0  0
 73150  1  0  0  0
 74 76  2  0  0  0
 74151  1  0  0  0
 75 79  1  0  0  0
 76 81  1  0  0  0
 77 79  1  0  0  0
 77 87  1  0  0  0
 77152  1  0  0  0
 77153  1  0  0  0
 78 80  1  0  0  0
 78 87  1  0  0  0
 78154  1  0  0  0
 78155  1  0  0  0
 79 80  1  0  0  0
 79156  1  0  0  0
 80 82  1  0  0  0
 80157  1  0  0  0
 81158  1  0  0  0
 81159  1  0  0  0
 82 88  1  0  0  0
 82160  1  0  0  0
 82161  1  0  0  0
 83 84  1  0  0  0
 83 85  1  0  0  0
 83162  1  0  0  0
 83163  1  0  0  0
 84 86  1  0  0  0
 84164  1  0  0  0
 84165  1  0  0  0
 85166  1  0  0  0
 85167  1  0  0  0
 85 87  1  0  0  0
 86168  1  0  0  0
 87169  1  0  0  0
 88170  1  0  0  0
 88171  1  0  0  0
 88172  1  0  0  0
M  CHG  2  87   1  88   1
M  ISO  4   1 100  68 101  81 101  86 100
M  END
> <chiral flag>
0

> <version>
0

> <s_m_source_file>
/data/baiqing/PycharmProjects/Reinvent-master-3.2/result/LINK_invent/BTK/process_docking_weight1_custom_sum_contain_oxygen_bond_distance_aromatic_linkinvent_7_9_3/rearranged_h_0130.sdf

> <i_m_source_file_index>
31

> <r_mmod_Potential_Energy-OPLS-2005>
-342.339508056641

> <r_mmod_Stretch_Energy-OPLS-2005>
33.0500679016113

> <r_mmod_Bend_Energy-OPLS-2005>
119.456993103027

> <r_mmod_Torsional_Energy-OPLS-2005>
303.726318359375

> <r_mmod_Improper_Torsional_Energy-OPLS-2005>
4.49129056930542

> <r_mmod_Van_der_Waal_Energy-OPLS-2005>
144.937057495117

> <r_mmod_Electrostatic_Energy-OPLS-2005>
87.9466857910156

> <r_mmod_Solvation_Energy-OPLS-2005>
-1043.13610839844

> <b_mmod_Minimization_Converged-OPLS-2005>
0

> <r_mmod_RMS_Derivative-OPLS-2005>
0.374233812093735

$$$$
31
                    3D
 Structure written by MMmdl.
153161  0  0  1  0            999 V2000
  -30.4749  -15.1497   20.3776 C   0  0  0  0  0  0
  -30.4453  -12.7298   19.4978 C   0  0  0  0  0  0
  -29.5267  -12.5465   18.2655 C   0  0  0  0  0  0
  -28.0720  -12.2917   18.7011 C   0  0  0  0  0  0
  -27.6175  -13.2606   19.8218 C   0  0  2  0  0  0
  -28.6607  -13.3883   20.9507 C   0  0  0  0  0  0
  -25.2418  -13.8224   20.5712 C   0  0  0  0  0  0
  -24.1760  -13.0433   20.9251 C   0  0  0  0  0  0
  -24.6398  -11.6924   20.8775 C   0  0  0  0  0  0
  -23.9090  -10.4290   21.0416 C   0  0  0  0  0  0
  -24.3634   -9.4202   21.9192 C   0  0  0  0  0  0
  -23.6301   -8.2241   22.0760 C   0  0  0  0  0  0
  -22.4285   -8.0284   21.3547 C   0  0  0  0  0  0
  -21.9926   -9.0258   20.4650 C   0  0  0  0  0  0
  -22.7262  -10.2132   20.3062 C   0  0  0  0  0  0
  -21.6852   -6.0738   22.5281 C   0  0  0  0  0  0
  -21.4011   -6.5641   23.8214 C   0  0  0  0  0  0
  -21.3659   -5.6794   24.9176 C   0  0  0  0  0  0
  -21.6043   -4.3057   24.7231 C   0  0  0  0  0  0
  -21.8818   -3.8148   23.4351 C   0  0  0  0  0  0
  -21.9190   -4.6965   22.3403 C   0  0  0  0  0  0
  -22.7778  -13.5191   21.1902 C   0  0  0  0  0  0
  -22.1660   -4.2149   21.0982 F   0  0  0  0  0  0
  -21.5630   -3.4542   25.7744 F   0  0  0  0  0  0
  -29.9029  -13.8611   20.3204 N   0  0  0  0  0  0
  -26.2845  -12.9475   20.3214 N   0  0  0  0  0  0
  -25.9334  -11.6595   20.5740 N   0  0  0  0  0  0
  -22.0432  -12.8173   22.0452 N   0  0  0  0  0  0
  -25.4039  -15.1953   20.4093 N   0  0  0  0  0  0
  -31.7001  -15.1777   20.2079 O   0  0  0  0  0  0
  -21.6644   -6.8884   21.4244 O   0  0  0  0  0  0
  -22.3463  -14.5496   20.6743 O   0  0  0  0  0  0
  -24.6548  -31.8316   23.1755 C   0  0  0  0  0  0
  -25.9265  -32.4623   23.8191 C   0  0  1  0  0  0
  -27.2247  -27.0174   20.1750 C   0  0  0  0  0  0
  -25.5968  -33.8438   24.2114 N   0  0  0  0  0  0
  -23.4638  -30.4450   21.5236 C   0  0  2  0  0  0
  -24.9143  -28.8392   20.1186 C   0  0  0  0  0  0
  -22.7621  -29.4491   22.4815 C   0  0  0  0  0  0
  -18.0316  -28.1411   22.8471 C   0  0  0  0  0  0
  -24.1489  -36.7227   23.2642 C   0  0  0  0  0  0
  -26.0260  -30.6689   21.3866 C   0  0  0  0  0  0
  -26.0968  -29.2644   20.7374 C   0  0  0  0  0  0
  -27.2505  -28.3750   20.7359 C   0  0  0  0  0  0
  -26.0098  -26.7119   19.5267 C   0  0  0  0  0  0
  -24.8894  -27.5797   19.4964 C   0  0  0  0  0  0
  -23.6975  -29.7590   20.1500 C   0  0  0  0  0  0
  -25.4120  -36.2984   24.0305 C   0  0  1  0  0  0
  -20.5933  -28.3747   23.1211 C   0  0  2  0  0  0
  -20.6794  -26.9437   22.5409 C   0  0  0  0  0  0
  -19.5771  -26.6386   21.5215 C   0  0  0  0  0  0
  -18.1948  -26.7944   22.1623 C   0  0  0  0  0  0
  -19.1573  -28.8897   23.2829 C   0  0  0  0  0  0
  -18.9489  -30.1487   23.8863 C   0  0  0  0  0  0
  -17.6490  -30.6600   24.0561 C   0  0  0  0  0  0
  -25.9088  -34.9370   23.5029 C   0  0  0  0  0  0
  -16.5377  -29.9095   23.6344 C   0  0  0  0  0  0
  -16.7301  -28.6519   23.0357 C   0  0  0  0  0  0
  -26.4548  -31.6535   25.0683 C   0  0  0  0  0  0
  -25.3699  -31.3758   26.1359 C   0  0  0  0  0  0
  -27.0425  -30.2918   24.6328 C   0  0  0  0  0  0
  -27.6059  -32.4325   25.7480 C   0  0  0  0  0  0
  -27.5570  -37.1752   24.8456 C   0  0  0  0  0  0
  -21.4299  -29.3051   22.3568 N   0  0  0  0  0  0
  -26.4265  -37.3719   23.9424 N   0  0  0  0  0  0
  -24.7359  -31.0067   22.0835 N   0  0  0  0  0  0
  -23.4208  -28.8058   23.3021 O   0  0  0  0  0  0
  -28.2953  -26.0129   20.1685 O   0  0  0  0  0  0
  -26.5692  -34.8895   22.4623 O   0  0  0  0  0  0
  -23.5643  -32.1245   23.6912 O   0  0  0  0  0  0
  -29.6156  -23.5944   20.7102 C   0  0  0  0  0  0
  -27.5652  -23.2654   19.5507 C   0  0  0  0  0  0
  -29.9284  -22.0330   20.2007 C   0  0  0  0  0  0
  -27.5849  -21.6811   20.0572 C   0  0  0  0  0  0
  -28.2379  -24.4170   20.4346 C   0  0  2  0  0  0
  -29.9056  -17.9943   20.6423 C   0  0  0  0  0  0
  -29.0284  -19.3565   19.9591 C   0  0  0  0  0  0
  -29.6846  -16.3788   20.4221 N   0  0  0  0  0  0
  -28.8876  -20.9346   20.4315 N   0  3  1  0  0  0
  -31.4643  -12.9299   19.1639 H   0  0  0  0  0  0
  -30.4998  -11.8118   20.0853 H   0  0  0  0  0  0
  -29.8822  -11.7227   17.6453 H   0  0  0  0  0  0
  -29.5697  -13.4410   17.6420 H   0  0  0  0  0  0
  -28.0160  -11.2646   19.0644 H   0  0  0  0  0  0
  -27.3985  -12.3490   17.8452 H   0  0  0  0  0  0
  -27.5471  -14.2369   19.3410 H   0  0  0  0  0  0
  -28.8057  -12.4407   21.4708 H   0  0  0  0  0  0
  -28.3262  -14.1081   21.6995 H   0  0  0  0  0  0
  -25.2775   -9.5673   22.4775 H   0  0  0  0  0  0
  -24.0001   -7.4634   22.7485 H   0  0  0  0  0  0
  -21.0857   -8.8784   19.8959 H   0  0  0  0  0  0
  -22.3724  -10.9674   19.6177 H   0  0  0  0  0  0
  -21.2003   -7.6150   23.9715 H   0  0  0  0  0  0
  -21.1479   -6.0528   25.9079 H   0  0  0  0  0  0
  -22.0595   -2.7611   23.2854 H   0  0  0  0  0  0
  -22.4055  -11.9833   22.4834 H   0  0  0  0  0  0
  -21.1048  -13.1186   22.2666 H   0  0  0  0  0  0
  -24.6241  -15.8373   20.5036 H   0  0  0  0  0  0
  -26.2295  -15.6327   20.0227 H   0  0  0  0  0  0
  -26.7330  -32.5204   23.0910 H   0  0  0  0  0  0
  -25.0069  -33.9529   25.0232 H   0  0  0  0  0  0
  -22.7722  -31.2735   21.3560 H   0  0  0  0  0  0
  -23.3755  -35.9553   23.3272 H   0  0  0  0  0  0
  -24.3569  -36.8907   22.2063 H   0  0  0  0  0  0
  -23.7250  -37.6412   23.6718 H   0  0  0  0  0  0
  -26.1847  -31.4105   20.6023 H   0  0  0  0  0  0
  -26.8949  -30.7320   22.0302 H   0  0  0  0  0  0
  -28.1573  -28.7065   21.2221 H   0  0  0  0  0  0
  -25.9114  -25.7520   19.0417 H   0  0  0  0  0  0
  -23.9885  -27.2484   18.9982 H   0  0  0  0  0  0
  -23.8479  -30.5271   19.3898 H   0  0  0  0  0  0
  -22.8082  -29.2093   19.8360 H   0  0  0  0  0  0
  -25.1306  -36.1777   25.0791 H   0  0  0  0  0  0
  -21.0019  -28.3353   24.1336 H   0  0  0  0  0  0
  -20.5681  -26.2362   23.3642 H   0  0  0  0  0  0
  -21.6655  -26.7433   22.1206 H   0  0  0  0  0  0
  -19.6933  -25.6290   21.1265 H   0  0  0  0  0  0
  -19.6706  -27.3178   20.6730 H   0  0  0  0  0  0
  -17.4218  -26.6697   21.4023 H   0  0  0  0  0  0
  -18.0342  -26.0091   22.9025 H   0  0  0  0  0  0
  -19.7969  -30.7312   24.2210 H   0  0  0  0  0  0
  -17.5045  -31.6273   24.5180 H   0  0  0  0  0  0
  -15.5376  -30.2990   23.7685 H   0  0  0  0  0  0
  -15.8700  -28.0832   22.7079 H   0  0  0  0  0  0
  -24.5918  -30.7051   25.7691 H   0  0  0  0  0  0
  -24.8828  -32.2938   26.4654 H   0  0  0  0  0  0
  -25.7950  -30.9042   27.0225 H   0  0  0  0  0  0
  -26.3060  -29.6613   24.1328 H   0  0  0  0  0  0
  -27.4003  -29.7249   25.4933 H   0  0  0  0  0  0
  -27.8975  -30.4135   23.9673 H   0  0  0  0  0  0
  -27.2655  -33.3684   26.1927 H   0  0  0  0  0  0
  -28.3933  -32.6792   25.0342 H   0  0  0  0  0  0
  -28.0645  -31.8526   26.5501 H   0  0  0  0  0  0
  -28.2530  -38.0100   24.7551 H   0  0  0  0  0  0
  -28.1120  -36.2632   24.6210 H   0  0  0  0  0  0
  -27.2297  -37.1307   25.8857 H   0  0  0  0  0  0
  -20.9539  -29.8765   21.6724 H   0  0  0  0  0  0
  -26.0111  -38.2765   24.1481 H   0  0  0  0  0  0
  -30.4171  -24.2056   20.2945 H   0  0  0  0  0  0
  -29.7933  -23.6287   21.7851 H   0  0  0  0  0  0
  -26.5209  -23.5375   19.3990 H   0  0  0  0  0  0
  -28.0048  -23.3099   18.5536 H   0  0  0  0  0  0
  -30.8648  -21.7035   20.6512 H   0  0  0  0  0  0
  -30.1272  -22.0618   19.1278 H   0  0  0  0  0  0
  -27.0969  -21.0991   19.2747 H   0  0  0  0  0  0
  -26.9257  -21.5953   20.9208 H   0  0  0  0  0  0
  -27.6837  -24.3766   21.3732 H   0  0  0  0  0  0
  -29.8184  -18.1151   21.7219 H   0  0  0  0  0  0
  -30.9622  -18.1762   20.4408 H   0  0  0  0  0  0
  -27.9956  -19.0113   19.9662 H   0  0  0  0  0  0
  -29.2832  -19.3940   18.8990 H   0  0  0  0  0  0
  -28.7024  -16.1485   20.4243 H   0  0  0  0  0  0
  -28.8359  -20.8574   21.4360 H   0  0  0  0  0  0
  1 25  1  0  0  0
  1 30  2  0  0  0
  1 78  1  0  0  0
  2  3  1  0  0  0
  2 25  1  0  0  0
  2 80  1  0  0  0
  2 81  1  0  0  0
  3  4  1  0  0  0
  3 82  1  0  0  0
  3 83  1  0  0  0
  4  5  1  0  0  0
  4 84  1  0  0  0
  4 85  1  0  0  0
  5  6  1  0  0  0
  5 26  1  0  0  0
  5 86  1  0  0  0
  6 25  1  0  0  0
  6 87  1  0  0  0
  6 88  1  0  0  0
  7  8  2  0  0  0
  7 26  1  0  0  0
  7 29  1  0  0  0
  8  9  1  0  0  0
  8 22  1  0  0  0
  9 10  1  0  0  0
  9 27  2  0  0  0
 10 11  2  0  0  0
 10 15  1  0  0  0
 11 12  1  0  0  0
 11 89  1  0  0  0
 12 13  2  0  0  0
 12 90  1  0  0  0
 13 14  1  0  0  0
 13 31  1  0  0  0
 14 15  2  0  0  0
 14 91  1  0  0  0
 15 92  1  0  0  0
 16 17  2  0  0  0
 16 21  1  0  0  0
 16 31  1  0  0  0
 17 18  1  0  0  0
 17 93  1  0  0  0
 18 19  2  0  0  0
 18 94  1  0  0  0
 19 20  1  0  0  0
 19 24  1  0  0  0
 20 21  2  0  0  0
 20 95  1  0  0  0
 21 23  1  0  0  0
 22 28  1  0  0  0
 22 32  2  0  0  0
 26 27  1  0  0  0
 28 96  1  0  0  0
 28 97  1  0  0  0
 29 98  1  0  0  0
 29 99  1  0  0  0
 33 34  1  0  0  0
 33 66  1  0  0  0
 33 70  2  0  0  0
 34 36  1  0  0  0
 34 59  1  0  0  0
 34100  1  0  0  0
 35 44  2  0  0  0
 35 45  1  0  0  0
 35 68  1  0  0  0
 36 56  1  0  0  0
 36101  1  0  0  0
 37 39  1  0  0  0
 37 47  1  0  0  0
 37 66  1  0  0  0
 37102  1  0  0  0
 38 43  2  0  0  0
 38 46  1  0  0  0
 38 47  1  0  0  0
 39 64  1  0  0  0
 39 67  2  0  0  0
 40 52  1  0  0  0
 40 53  2  0  0  0
 40 58  1  0  0  0
 41103  1  0  0  0
 41104  1  0  0  0
 41105  1  0  0  0
 41 48  1  0  0  0
 42 43  1  0  0  0
 42 66  1  0  0  0
 42106  1  0  0  0
 42107  1  0  0  0
 43 44  1  0  0  0
 44108  1  0  0  0
 45 46  2  0  0  0
 45109  1  0  0  0
 46110  1  0  0  0
 47111  1  0  0  0
 47112  1  0  0  0
 48 56  1  0  0  0
 48 65  1  0  0  0
 48113  1  0  0  0
 49 50  1  0  0  0
 49 53  1  0  0  0
 49 64  1  0  0  0
 49114  1  0  0  0
 50 51  1  0  0  0
 50115  1  0  0  0
 50116  1  0  0  0
 51 52  1  0  0  0
 51117  1  0  0  0
 51118  1  0  0  0
 52119  1  0  0  0
 52120  1  0  0  0
 53 54  1  0  0  0
 54 55  2  0  0  0
 54121  1  0  0  0
 55 57  1  0  0  0
 55122  1  0  0  0
 56 69  2  0  0  0
 57 58  2  0  0  0
 57123  1  0  0  0
 58124  1  0  0  0
 59 60  1  0  0  0
 59 61  1  0  0  0
 59 62  1  0  0  0
 60125  1  0  0  0
 60126  1  0  0  0
 60127  1  0  0  0
 61128  1  0  0  0
 61129  1  0  0  0
 61130  1  0  0  0
 62131  1  0  0  0
 62132  1  0  0  0
 62133  1  0  0  0
 63 65  1  0  0  0
 63134  1  0  0  0
 63135  1  0  0  0
 63136  1  0  0  0
 64137  1  0  0  0
 65138  1  0  0  0
 68 75  1  0  0  0
 71 73  1  0  0  0
 71 75  1  0  0  0
 71139  1  0  0  0
 71140  1  0  0  0
 72 74  1  0  0  0
 72 75  1  0  0  0
 72141  1  0  0  0
 72142  1  0  0  0
 73 79  1  0  0  0
 73143  1  0  0  0
 73144  1  0  0  0
 74 79  1  0  0  0
 74145  1  0  0  0
 74146  1  0  0  0
 75147  1  0  0  0
 76 77  1  0  0  0
 76 78  1  0  0  0
 76148  1  0  0  0
 76149  1  0  0  0
 77150  1  0  0  0
 77151  1  0  0  0
 77 79  1  0  0  0
 78152  1  0  0  0
 79153  1  0  0  0
M  CHG  1  79   1
M  ISO  4   1 100  68 101  75 101  78 100
M  END
> <chiral flag>
0

> <version>
0

> <s_m_source_file>
/data/baiqing/PycharmProjects/Reinvent-master-3.2/result/LINK_invent/BTK/process_docking_weight1_custom_sum_contain_oxygen_bond_distance_aromatic_linkinvent_7_9_3/rearranged_h_0130.sdf

> <i_m_source_file_index>
32

> <r_mmod_Potential_Energy-OPLS-2005>
814.048767089844

> <r_mmod_Stretch_Energy-OPLS-2005>
415.431030273438

> <r_mmod_Bend_Energy-OPLS-2005>
421.409759521484

> <r_mmod_Torsional_Energy-OPLS-2005>
274.68603515625

> <r_mmod_Improper_Torsional_Energy-OPLS-2005>
4.43335485458374

> <r_mmod_Van_der_Waal_Energy-OPLS-2005>
115.63801574707

> <r_mmod_Electrostatic_Energy-OPLS-2005>
-269.489074707031

> <r_mmod_Solvation_Energy-OPLS-2005>
-480.714050292969

> <b_mmod_Minimization_Converged-OPLS-2005>
0

> <r_mmod_RMS_Derivative-OPLS-2005>
1.20768344402313

$$$$
32
                    3D
 Structure written by MMmdl.
163172  0  0  1  0            999 V2000
  -30.7856  -14.3660   20.6889 C   0  0  0  0  0  0
  -30.4102  -12.2988   19.3951 C   0  0  0  0  0  0
  -29.4781  -12.5232   18.1909 C   0  0  0  0  0  0
  -28.0060  -12.3702   18.6130 C   0  0  0  0  0  0
  -27.6619  -13.2049   19.8738 C   0  0  2  0  0  0
  -28.7010  -12.9711   20.9927 C   0  0  0  0  0  0
  -25.2582  -13.8157   20.5666 C   0  0  0  0  0  0
  -24.1837  -13.0443   20.9173 C   0  0  0  0  0  0
  -24.6383  -11.6903   20.8736 C   0  0  0  0  0  0
  -23.9053  -10.4290   21.0407 C   0  0  0  0  0  0
  -24.3609   -9.4205   21.9184 C   0  0  0  0  0  0
  -23.6285   -8.2243   22.0754 C   0  0  0  0  0  0
  -22.4269   -8.0280   21.3542 C   0  0  0  0  0  0
  -21.9904   -9.0254   20.4647 C   0  0  0  0  0  0
  -22.7229  -10.2131   20.3053 C   0  0  0  0  0  0
  -21.6851   -6.0734   22.5274 C   0  0  0  0  0  0
  -21.4015   -6.5638   23.8209 C   0  0  0  0  0  0
  -21.3659   -5.6793   24.9175 C   0  0  0  0  0  0
  -21.6047   -4.3055   24.7226 C   0  0  0  0  0  0
  -21.8818   -3.8144   23.4346 C   0  0  0  0  0  0
  -21.9191   -4.6961   22.3400 C   0  0  0  0  0  0
  -22.7859  -13.5236   21.1842 C   0  0  0  0  0  0
  -22.1661   -4.2148   21.0978 F   0  0  0  0  0  0
  -21.5629   -3.4538   25.7739 F   0  0  0  0  0  0
  -30.0436  -13.2537   20.4509 N   0  0  0  0  0  0
  -26.3022  -12.9329   20.3363 N   0  0  0  0  0  0
  -25.9307  -11.6486   20.5755 N   0  0  0  0  0  0
  -22.0503  -12.8229   22.0397 N   0  0  0  0  0  0
  -25.4330  -15.1879   20.4073 N   0  0  0  0  0  0
  -31.8018  -14.6562   20.0526 O   0  0  0  0  0  0
  -21.6635   -6.8878   21.4236 O   0  0  0  0  0  0
  -22.3549  -14.5553   20.6700 O   0  0  0  0  0  0
  -24.6123  -31.8700   23.2123 C   0  0  0  0  0  0
  -25.9027  -32.4832   23.8407 C   0  0  1  0  0  0
  -27.2361  -27.4679   20.0796 C   0  0  0  0  0  0
  -25.5887  -33.8624   24.2347 N   0  0  0  0  0  0
  -23.3999  -30.4938   21.5521 C   0  0  2  0  0  0
  -24.8464  -28.9598   20.1200 C   0  0  0  0  0  0
  -22.7401  -29.4671   22.5003 C   0  0  0  0  0  0
  -18.0262  -28.1387   22.8495 C   0  0  0  0  0  0
  -24.1487  -36.7323   23.2636 C   0  0  0  0  0  0
  -25.9251  -30.8427   21.3615 C   0  0  0  0  0  0
  -26.0043  -29.4758   20.7173 C   0  0  0  0  0  0
  -27.2038  -28.7319   20.7045 C   0  0  0  0  0  0
  -26.0682  -26.9557   19.4823 C   0  0  0  0  0  0
  -24.8693  -27.6940   19.5074 C   0  0  0  0  0  0
  -23.6067  -29.8245   20.1680 C   0  0  0  0  0  0
  -25.4097  -36.3109   24.0347 C   0  0  1  0  0  0
  -20.5855  -28.3662   23.1328 C   0  0  2  0  0  0
  -20.6763  -26.9403   22.5421 C   0  0  0  0  0  0
  -19.5735  -26.6395   21.5222 C   0  0  0  0  0  0
  -18.1907  -26.7937   22.1631 C   0  0  0  0  0  0
  -19.1514  -28.8841   23.2907 C   0  0  0  0  0  0
  -18.9453  -30.1453   23.8915 C   0  0  0  0  0  0
  -17.6453  -30.6598   24.0566 C   0  0  0  0  0  0
  -25.9023  -34.9474   23.5140 C   0  0  0  0  0  0
  -16.5338  -29.9103   23.6325 C   0  0  0  0  0  0
  -16.7252  -28.6521   23.0342 C   0  0  0  0  0  0
  -26.4465  -31.6595   25.0723 C   0  0  0  0  0  0
  -25.3746  -31.3675   26.1484 C   0  0  0  0  0  0
  -27.0294  -30.3047   24.6069 C   0  0  0  0  0  0
  -27.6067  -32.4291   25.7465 C   0  0  0  0  0  0
  -27.5587  -37.1794   24.8451 C   0  0  0  0  0  0
  -21.4130  -29.3032   22.3739 N   0  0  0  0  0  0
  -26.4279  -37.3795   23.9424 N   0  0  0  0  0  0
  -24.6640  -31.0829   22.1010 N   0  0  0  0  0  0
  -23.4183  -28.8217   23.3037 O   0  0  0  0  0  0
  -28.3913  -26.7362   19.9951 O   0  0  0  0  0  0
  -26.5599  -34.8921   22.4707 O   0  0  0  0  0  0
  -23.5324  -32.1423   23.7547 O   0  0  0  0  0  0
  -30.6563  -22.7553   20.7346 C   0  0  0  0  0  0
  -28.2717  -22.3152   20.5543 C   0  0  0  0  0  0
  -30.3936  -24.1285   20.9153 C   0  0  0  0  0  0
  -28.0088  -23.6891   20.7431 C   0  0  0  0  0  0
  -29.6004  -21.8307   20.5699 C   0  0  0  0  0  0
  -29.0661  -24.6011   20.9420 C   0  0  0  0  0  0
  -28.8685  -19.3829   19.9184 C   0  0  0  0  0  0
  -29.4226  -18.0097   20.3298 C   0  0  0  0  0  0
  -30.3077  -19.6874   21.7877 C   0  0  0  0  0  0
  -29.9362  -20.3400   20.4524 C   0  0  2  0  0  0
  -28.7739  -26.0733   21.1931 C   0  0  0  0  0  0
  -31.2480  -16.0772   22.4280 C   0  0  0  0  0  0
  -31.4282  -17.4463   21.7324 C   0  0  0  0  0  0
  -30.3928  -15.1102   21.7315 N   0  0  0  0  0  0
  -30.1637  -18.2192   21.6006 N   0  3  2  0  0  0
  -31.4537  -12.3927   19.0888 H   0  0  0  0  0  0
  -30.3042  -11.2797   19.7704 H   0  0  0  0  0  0
  -29.7127  -11.8142   17.3957 H   0  0  0  0  0  0
  -29.6420  -13.5181   17.7745 H   0  0  0  0  0  0
  -27.8252  -11.3127   18.8089 H   0  0  0  0  0  0
  -27.3460  -12.6428   17.7887 H   0  0  0  0  0  0
  -27.7132  -14.2553   19.5864 H   0  0  0  0  0  0
  -28.6624  -11.9348   21.3326 H   0  0  0  0  0  0
  -28.4453  -13.5710   21.8664 H   0  0  0  0  0  0
  -25.2754   -9.5682   22.4758 H   0  0  0  0  0  0
  -23.9995   -7.4633   22.7472 H   0  0  0  0  0  0
  -21.0838   -8.8769   19.8953 H   0  0  0  0  0  0
  -22.3688  -10.9671   19.6164 H   0  0  0  0  0  0
  -21.2007   -7.6145   23.9713 H   0  0  0  0  0  0
  -21.1485   -6.0524   25.9081 H   0  0  0  0  0  0
  -22.0598   -2.7606   23.2845 H   0  0  0  0  0  0
  -22.4111  -11.9876   22.4769 H   0  0  0  0  0  0
  -21.1126  -13.1260   22.2621 H   0  0  0  0  0  0
  -24.6681  -15.8465   20.5096 H   0  0  0  0  0  0
  -26.2863  -15.6182   20.0746 H   0  0  0  0  0  0
  -26.7112  -32.5562   23.1182 H   0  0  0  0  0  0
  -25.0020  -33.9769   25.0490 H   0  0  0  0  0  0
  -22.6882  -31.3100   21.4137 H   0  0  0  0  0  0
  -23.3747  -35.9656   23.3281 H   0  0  0  0  0  0
  -24.3602  -36.8951   22.2053 H   0  0  0  0  0  0
  -23.7244  -37.6528   23.6663 H   0  0  0  0  0  0
  -26.0295  -31.6064   20.5893 H   0  0  0  0  0  0
  -26.8153  -30.9004   21.9764 H   0  0  0  0  0  0
  -28.1036  -29.1298   21.1527 H   0  0  0  0  0  0
  -26.0910  -25.9914   18.9940 H   0  0  0  0  0  0
  -23.9786  -27.2909   19.0444 H   0  0  0  0  0  0
  -23.7106  -30.5967   19.4045 H   0  0  0  0  0  0
  -22.7314  -29.2418   19.8762 H   0  0  0  0  0  0
  -25.1269  -36.1974   25.0842 H   0  0  0  0  0  0
  -20.9928  -28.3242   24.1457 H   0  0  0  0  0  0
  -20.5689  -26.2274   23.3612 H   0  0  0  0  0  0
  -21.6635  -26.7473   22.1198 H   0  0  0  0  0  0
  -19.6900  -25.6313   21.1239 H   0  0  0  0  0  0
  -19.6687  -27.3232   20.6772 H   0  0  0  0  0  0
  -17.4183  -26.6689   21.4022 H   0  0  0  0  0  0
  -18.0290  -26.0088   22.9040 H   0  0  0  0  0  0
  -19.7929  -30.7252   24.2310 H   0  0  0  0  0  0
  -17.5011  -31.6277   24.5172 H   0  0  0  0  0  0
  -15.5335  -30.3004   23.7656 H   0  0  0  0  0  0
  -15.8652  -28.0846   22.7039 H   0  0  0  0  0  0
  -24.5922  -30.7011   25.7823 H   0  0  0  0  0  0
  -24.8921  -32.2808   26.4975 H   0  0  0  0  0  0
  -25.8109  -30.8821   27.0222 H   0  0  0  0  0  0
  -26.2812  -29.6793   24.1175 H   0  0  0  0  0  0
  -27.4134  -29.7301   25.4514 H   0  0  0  0  0  0
  -27.8619  -30.4390   23.9154 H   0  0  0  0  0  0
  -27.2733  -33.3598   26.2065 H   0  0  0  0  0  0
  -28.3852  -32.6826   25.0256 H   0  0  0  0  0  0
  -28.0755  -31.8383   26.5345 H   0  0  0  0  0  0
  -28.2561  -38.0134   24.7565 H   0  0  0  0  0  0
  -28.1120  -36.2671   24.6182 H   0  0  0  0  0  0
  -27.2313  -37.1322   25.8849 H   0  0  0  0  0  0
  -20.9301  -29.8742   21.6945 H   0  0  0  0  0  0
  -26.0175  -38.2863   24.1471 H   0  0  0  0  0  0
  -31.6812  -22.4099   20.7366 H   0  0  0  0  0  0
  -27.4342  -21.6480   20.4176 H   0  0  0  0  0  0
  -31.2153  -24.8192   21.0487 H   0  0  0  0  0  0
  -26.9882  -24.0438   20.7474 H   0  0  0  0  0  0
  -27.9121  -19.5304   20.4191 H   0  0  0  0  0  0
  -28.7095  -19.4755   18.8436 H   0  0  0  0  0  0
  -30.0922  -17.6478   19.5485 H   0  0  0  0  0  0
  -28.6356  -17.2641   20.4457 H   0  0  0  0  0  0
  -29.5972  -19.9928   22.5576 H   0  0  0  0  0  0
  -31.2938  -20.0046   22.1275 H   0  0  0  0  0  0
  -30.8015  -20.2619   19.7910 H   0  0  0  0  0  0
  -29.6652  -26.5643   21.5860 H   0  0  0  0  0  0
  -28.0111  -26.1490   21.9716 H   0  0  0  0  0  0
  -30.8494  -16.2251   23.4324 H   0  0  0  0  0  0
  -32.2335  -15.6291   22.5744 H   0  0  0  0  0  0
  -31.9332  -17.3450   20.7709 H   0  0  0  0  0  0
  -32.1266  -18.0055   22.3561 H   0  0  0  0  0  0
  -29.5573  -14.8009   22.2083 H   0  0  0  0  0  0
  -29.5658  -17.9169   22.3551 H   0  0  0  0  0  0
  1 25  1  0  0  0
  1 30  2  0  0  0
  1 84  1  0  0  0
  2  3  1  0  0  0
  2 25  1  0  0  0
  2 86  1  0  0  0
  2 87  1  0  0  0
  3  4  1  0  0  0
  3 88  1  0  0  0
  3 89  1  0  0  0
  4  5  1  0  0  0
  4 90  1  0  0  0
  4 91  1  0  0  0
  5  6  1  0  0  0
  5 26  1  0  0  0
  5 92  1  0  0  0
  6 25  1  0  0  0
  6 93  1  0  0  0
  6 94  1  0  0  0
  7  8  2  0  0  0
  7 26  1  0  0  0
  7 29  1  0  0  0
  8  9  1  0  0  0
  8 22  1  0  0  0
  9 10  1  0  0  0
  9 27  2  0  0  0
 10 11  2  0  0  0
 10 15  1  0  0  0
 11 12  1  0  0  0
 11 95  1  0  0  0
 12 13  2  0  0  0
 12 96  1  0  0  0
 13 14  1  0  0  0
 13 31  1  0  0  0
 14 15  2  0  0  0
 14 97  1  0  0  0
 15 98  1  0  0  0
 16 17  2  0  0  0
 16 21  1  0  0  0
 16 31  1  0  0  0
 17 18  1  0  0  0
 17 99  1  0  0  0
 18 19  2  0  0  0
 18100  1  0  0  0
 19 20  1  0  0  0
 19 24  1  0  0  0
 20 21  2  0  0  0
 20101  1  0  0  0
 21 23  1  0  0  0
 22 28  1  0  0  0
 22 32  2  0  0  0
 26 27  1  0  0  0
 28102  1  0  0  0
 28103  1  0  0  0
 29104  1  0  0  0
 29105  1  0  0  0
 33 34  1  0  0  0
 33 66  1  0  0  0
 33 70  2  0  0  0
 34 36  1  0  0  0
 34 59  1  0  0  0
 34106  1  0  0  0
 35 44  2  0  0  0
 35 45  1  0  0  0
 35 68  1  0  0  0
 36 56  1  0  0  0
 36107  1  0  0  0
 37 39  1  0  0  0
 37 47  1  0  0  0
 37 66  1  0  0  0
 37108  1  0  0  0
 38 43  2  0  0  0
 38 46  1  0  0  0
 38 47  1  0  0  0
 39 64  1  0  0  0
 39 67  2  0  0  0
 40 52  1  0  0  0
 40 53  2  0  0  0
 40 58  1  0  0  0
 41109  1  0  0  0
 41110  1  0  0  0
 41111  1  0  0  0
 41 48  1  0  0  0
 42 43  1  0  0  0
 42 66  1  0  0  0
 42112  1  0  0  0
 42113  1  0  0  0
 43 44  1  0  0  0
 44114  1  0  0  0
 45 46  2  0  0  0
 45115  1  0  0  0
 46116  1  0  0  0
 47117  1  0  0  0
 47118  1  0  0  0
 48 56  1  0  0  0
 48 65  1  0  0  0
 48119  1  0  0  0
 49 50  1  0  0  0
 49 53  1  0  0  0
 49 64  1  0  0  0
 49120  1  0  0  0
 50 51  1  0  0  0
 50121  1  0  0  0
 50122  1  0  0  0
 51 52  1  0  0  0
 51123  1  0  0  0
 51124  1  0  0  0
 52125  1  0  0  0
 52126  1  0  0  0
 53 54  1  0  0  0
 54 55  2  0  0  0
 54127  1  0  0  0
 55 57  1  0  0  0
 55128  1  0  0  0
 56 69  2  0  0  0
 57 58  2  0  0  0
 57129  1  0  0  0
 58130  1  0  0  0
 59 60  1  0  0  0
 59 61  1  0  0  0
 59 62  1  0  0  0
 60131  1  0  0  0
 60132  1  0  0  0
 60133  1  0  0  0
 61134  1  0  0  0
 61135  1  0  0  0
 61136  1  0  0  0
 62137  1  0  0  0
 62138  1  0  0  0
 62139  1  0  0  0
 63 65  1  0  0  0
 63140  1  0  0  0
 63141  1  0  0  0
 63142  1  0  0  0
 64143  1  0  0  0
 65144  1  0  0  0
 68 81  1  0  0  0
 71 73  2  0  0  0
 71 75  1  0  0  0
 71145  1  0  0  0
 72 74  1  0  0  0
 72 75  2  0  0  0
 72146  1  0  0  0
 73 76  1  0  0  0
 73147  1  0  0  0
 74 76  2  0  0  0
 74148  1  0  0  0
 75 80  1  0  0  0
 76 81  1  0  0  0
 77 78  1  0  0  0
 77 80  1  0  0  0
 77149  1  0  0  0
 77150  1  0  0  0
 78 85  1  0  0  0
 78151  1  0  0  0
 78152  1  0  0  0
 79 80  1  0  0  0
 79 85  1  0  0  0
 79153  1  0  0  0
 79154  1  0  0  0
 80155  1  0  0  0
 81156  1  0  0  0
 81157  1  0  0  0
 82 83  1  0  0  0
 82 84  1  0  0  0
 82158  1  0  0  0
 82159  1  0  0  0
 83160  1  0  0  0
 83161  1  0  0  0
 83 85  1  0  0  0
 84162  1  0  0  0
 85163  1  0  0  0
M  CHG  1  85   1
M  ISO  4   1 100  68 101  81 101  84 100
M  END
> <chiral flag>
0

> <version>
0

> <s_m_source_file>
/data/baiqing/PycharmProjects/Reinvent-master-3.2/result/LINK_invent/BTK/process_docking_weight1_custom_sum_contain_oxygen_bond_distance_aromatic_linkinvent_7_9_3/rearranged_h_0130.sdf

> <i_m_source_file_index>
33

> <r_mmod_Potential_Energy-OPLS-2005>
-103.539932250977

> <r_mmod_Stretch_Energy-OPLS-2005>
32.8093681335449

> <r_mmod_Bend_Energy-OPLS-2005>
120.65389251709

> <r_mmod_Torsional_Energy-OPLS-2005>
331.202270507812

> <r_mmod_Improper_Torsional_Energy-OPLS-2005>
2.82846355438232

> <r_mmod_Van_der_Waal_Energy-OPLS-2005>
144.191970825195

> <r_mmod_Electrostatic_Energy-OPLS-2005>
-292.555999755859

> <r_mmod_Solvation_Energy-OPLS-2005>
-449.498107910156

> <b_mmod_Minimization_Converged-OPLS-2005>
0

> <r_mmod_RMS_Derivative-OPLS-2005>
1.63212335109711

$$$$
33
                    3D
 Structure written by MMmdl.
165173  0  0  1  0            999 V2000
  -30.7258  -14.4172   20.6396 C   0  0  0  0  0  0
  -30.4261  -12.3017   19.4031 C   0  0  0  0  0  0
  -29.4951  -12.5135   18.1941 C   0  0  0  0  0  0
  -28.0156  -12.3779   18.6078 C   0  0  0  0  0  0
  -27.6646  -13.2068   19.8719 C   0  0  2  0  0  0
  -28.7011  -12.9541   20.9880 C   0  0  0  0  0  0
  -25.2592  -13.8148   20.5661 C   0  0  0  0  0  0
  -24.1837  -13.0433   20.9165 C   0  0  0  0  0  0
  -24.6387  -11.6904   20.8704 C   0  0  0  0  0  0
  -23.9068  -10.4276   21.0373 C   0  0  0  0  0  0
  -24.3615   -9.4205   21.9159 C   0  0  0  0  0  0
  -23.6287   -8.2240   22.0742 C   0  0  0  0  0  0
  -22.4281   -8.0282   21.3533 C   0  0  0  0  0  0
  -21.9909   -9.0253   20.4651 C   0  0  0  0  0  0
  -22.7240  -10.2117   20.3040 C   0  0  0  0  0  0
  -21.6846   -6.0733   22.5288 C   0  0  0  0  0  0
  -21.4021   -6.5631   23.8231 C   0  0  0  0  0  0
  -21.3657   -5.6781   24.9182 C   0  0  0  0  0  0
  -21.6043   -4.3054   24.7225 C   0  0  0  0  0  0
  -21.8818   -3.8143   23.4350 C   0  0  0  0  0  0
  -21.9186   -4.6961   22.3410 C   0  0  0  0  0  0
  -22.7860  -13.5234   21.1851 C   0  0  0  0  0  0
  -22.1655   -4.2150   21.0984 F   0  0  0  0  0  0
  -21.5624   -3.4546   25.7738 F   0  0  0  0  0  0
  -30.0382  -13.2625   20.4472 N   0  0  0  0  0  0
  -26.3033  -12.9334   20.3323 N   0  0  0  0  0  0
  -25.9311  -11.6488   20.5712 N   0  0  0  0  0  0
  -22.0481  -12.8242   22.0405 N   0  0  0  0  0  0
  -25.4341  -15.1860   20.4091 N   0  0  0  0  0  0
  -31.7970  -14.6705   20.0794 O   0  0  0  0  0  0
  -21.6646   -6.8881   21.4256 O   0  0  0  0  0  0
  -22.3553  -14.5536   20.6676 O   0  0  0  0  0  0
  -24.6134  -31.8708   23.2150 C   0  0  0  0  0  0
  -25.9037  -32.4844   23.8435 C   0  0  1  0  0  0
  -27.2489  -27.4609   20.0963 C   0  0  0  0  0  0
  -25.5900  -33.8642   24.2369 N   0  0  0  0  0  0
  -23.4034  -30.4935   21.5534 C   0  0  2  0  0  0
  -24.8542  -28.9611   20.1231 C   0  0  0  0  0  0
  -22.7419  -29.4666   22.5009 C   0  0  0  0  0  0
  -18.0279  -28.1385   22.8498 C   0  0  0  0  0  0
  -24.1481  -36.7319   23.2637 C   0  0  0  0  0  0
  -25.9291  -30.8412   21.3689 C   0  0  0  0  0  0
  -26.0112  -29.4746   20.7245 C   0  0  0  0  0  0
  -27.2128  -28.7288   20.7222 C   0  0  0  0  0  0
  -26.0765  -26.9589   19.4976 C   0  0  0  0  0  0
  -24.8782  -27.6970   19.5112 C   0  0  0  0  0  0
  -23.6149  -29.8262   20.1681 C   0  0  0  0  0  0
  -25.4105  -36.3133   24.0349 C   0  0  1  0  0  0
  -20.5865  -28.3673   23.1333 C   0  0  2  0  0  0
  -20.6773  -26.9410   22.5429 C   0  0  0  0  0  0
  -19.5746  -26.6391   21.5225 C   0  0  0  0  0  0
  -18.1920  -26.7930   22.1630 C   0  0  0  0  0  0
  -19.1527  -28.8845   23.2905 C   0  0  0  0  0  0
  -18.9448  -30.1455   23.8922 C   0  0  0  0  0  0
  -17.6451  -30.6584   24.0572 C   0  0  0  0  0  0
  -25.9028  -34.9486   23.5153 C   0  0  0  0  0  0
  -16.5341  -29.9088   23.6323 C   0  0  0  0  0  0
  -16.7272  -28.6500   23.0346 C   0  0  0  0  0  0
  -26.4478  -31.6611   25.0741 C   0  0  0  0  0  0
  -25.3758  -31.3694   26.1497 C   0  0  0  0  0  0
  -27.0311  -30.3065   24.6083 C   0  0  0  0  0  0
  -27.6070  -32.4320   25.7487 C   0  0  0  0  0  0
  -27.5585  -37.1814   24.8468 C   0  0  0  0  0  0
  -21.4142  -29.3032   22.3733 N   0  0  0  0  0  0
  -26.4300  -37.3813   23.9411 N   0  0  0  0  0  0
  -24.6661  -31.0830   22.1034 N   0  0  0  0  0  0
  -23.4192  -28.8207   23.3034 O   0  0  0  0  0  0
  -28.3613  -26.6572   19.9944 O   0  0  0  0  0  0
  -26.5578  -34.8934   22.4700 O   0  0  0  0  0  0
  -23.5330  -32.1442   23.7536 O   0  0  0  0  0  0
  -29.7047  -20.8884   20.3897 C   0  0  0  0  0  0
  -32.1787  -21.2087   20.9035 C   0  0  0  0  0  0
  -29.8674  -22.2603   19.6921 C   0  0  0  0  0  0
  -31.6147  -22.5398   21.4554 C   0  0  0  0  0  0
  -31.0756  -20.1809   20.5238 C   0  0  1  0  0  0
  -30.4708  -25.7264   20.5288 C   0  0  0  0  0  0
  -30.7229  -16.5793   21.9031 C   0  0  0  0  0  0
  -29.9554  -24.3683   21.0592 C   0  0  0  0  0  0
  -30.4264  -17.7671   20.9546 C   0  0  0  0  0  0
  -29.5081  -26.9027   20.7931 C   0  0  0  0  0  0
  -30.1468  -15.3046   21.4625 N   0  0  0  0  0  0
  -30.7045  -23.2138   20.4830 N   0  3  2  0  0  0
  -31.0486  -19.0201   21.4567 N   0  3  0  0  0  0
  -31.4695  -12.4148   19.1020 H   0  0  0  0  0  0
  -30.3411  -11.2832   19.7835 H   0  0  0  0  0  0
  -29.7369  -11.7948   17.4090 H   0  0  0  0  0  0
  -29.6704  -13.5042   17.7683 H   0  0  0  0  0  0
  -27.8211  -11.3213   18.7921 H   0  0  0  0  0  0
  -27.3707  -12.6657   17.7769 H   0  0  0  0  0  0
  -27.7223  -14.2606   19.5923 H   0  0  0  0  0  0
  -28.6694  -11.9101   21.3013 H   0  0  0  0  0  0
  -28.4461  -13.5290   21.8782 H   0  0  0  0  0  0
  -25.2751   -9.5682   22.4736 H   0  0  0  0  0  0
  -24.0001   -7.4636   22.7447 H   0  0  0  0  0  0
  -21.0850   -8.8779   19.8946 H   0  0  0  0  0  0
  -22.3718  -10.9653   19.6148 H   0  0  0  0  0  0
  -21.2032   -7.6148   23.9729 H   0  0  0  0  0  0
  -21.1476   -6.0518   25.9084 H   0  0  0  0  0  0
  -22.0594   -2.7614   23.2850 H   0  0  0  0  0  0
  -22.4074  -11.9925   22.4866 H   0  0  0  0  0  0
  -21.1090  -13.1263   22.2539 H   0  0  0  0  0  0
  -24.6763  -15.8505   20.5192 H   0  0  0  0  0  0
  -26.2923  -15.6154   20.0851 H   0  0  0  0  0  0
  -26.7109  -32.5583   23.1211 H   0  0  0  0  0  0
  -25.0098  -33.9817   25.0550 H   0  0  0  0  0  0
  -22.6911  -31.3088   21.4133 H   0  0  0  0  0  0
  -23.3751  -35.9644   23.3318 H   0  0  0  0  0  0
  -24.3583  -36.8908   22.2049 H   0  0  0  0  0  0
  -23.7226  -37.6528   23.6629 H   0  0  0  0  0  0
  -26.0375  -31.6038   20.5970 H   0  0  0  0  0  0
  -26.8193  -30.9022   21.9833 H   0  0  0  0  0  0
  -28.0973  -29.1379   21.1885 H   0  0  0  0  0  0
  -26.0943  -25.9893   19.0208 H   0  0  0  0  0  0
  -23.9907  -27.2921   19.0442 H   0  0  0  0  0  0
  -23.7270  -30.6015   19.4089 H   0  0  0  0  0  0
  -22.7414  -29.2451   19.8680 H   0  0  0  0  0  0
  -25.1273  -36.2011   25.0846 H   0  0  0  0  0  0
  -20.9964  -28.3228   24.1450 H   0  0  0  0  0  0
  -20.5706  -26.2265   23.3609 H   0  0  0  0  0  0
  -21.6640  -26.7467   22.1200 H   0  0  0  0  0  0
  -19.6909  -25.6303   21.1242 H   0  0  0  0  0  0
  -19.6690  -27.3218   20.6765 H   0  0  0  0  0  0
  -17.4201  -26.6709   21.4011 H   0  0  0  0  0  0
  -18.0298  -26.0062   22.9016 H   0  0  0  0  0  0
  -19.7924  -30.7261   24.2295 H   0  0  0  0  0  0
  -17.5007  -31.6267   24.5172 H   0  0  0  0  0  0
  -15.5346  -30.2996   23.7641 H   0  0  0  0  0  0
  -15.8673  -28.0839   22.7046 H   0  0  0  0  0  0
  -24.5926  -30.7050   25.7830 H   0  0  0  0  0  0
  -24.8955  -32.2839   26.4987 H   0  0  0  0  0  0
  -25.8126  -30.8832   27.0231 H   0  0  0  0  0  0
  -26.2840  -29.6821   24.1171 H   0  0  0  0  0  0
  -27.4139  -29.7302   25.4517 H   0  0  0  0  0  0
  -27.8651  -30.4408   23.9194 H   0  0  0  0  0  0
  -27.2712  -33.3612   26.2107 H   0  0  0  0  0  0
  -28.3853  -32.6898   25.0288 H   0  0  0  0  0  0
  -28.0777  -31.8422   26.5364 H   0  0  0  0  0  0
  -28.2613  -38.0101   24.7523 H   0  0  0  0  0  0
  -28.1067  -36.2637   24.6279 H   0  0  0  0  0  0
  -27.2302  -37.1459   25.8871 H   0  0  0  0  0  0
  -20.9311  -29.8751   21.6955 H   0  0  0  0  0  0
  -26.0192  -38.2890   24.1423 H   0  0  0  0  0  0
  -29.0118  -20.2679   19.8233 H   0  0  0  0  0  0
  -29.2431  -21.0384   21.3662 H   0  0  0  0  0  0
  -32.8912  -20.7812   21.6114 H   0  0  0  0  0  0
  -32.7690  -21.4346   20.0145 H   0  0  0  0  0  0
  -28.8970  -22.6821   19.4304 H   0  0  0  0  0  0
  -30.3690  -22.1120   18.7345 H   0  0  0  0  0  0
  -32.4276  -23.2183   21.7145 H   0  0  0  0  0  0
  -31.0819  -22.3351   22.3872 H   0  0  0  0  0  0
  -31.3488  -19.7921   19.5405 H   0  0  0  0  0  0
  -30.6404  -25.6646   19.4520 H   0  0  0  0  0  0
  -31.4384  -25.9440   20.9799 H   0  0  0  0  0  0
  -30.3242  -16.7941   22.8939 H   0  0  0  0  0  0
  -31.8014  -16.4626   22.0273 H   0  0  0  0  0  0
  -28.8917  -24.2802   20.8450 H   0  0  0  0  0  0
  -30.0170  -24.3644   22.1489 H   0  0  0  0  0  0
  -29.3495  -17.9156   20.8590 H   0  0  0  0  0  0
  -30.7996  -17.5389   19.9560 H   0  0  0  0  0  0
  -29.9730  -27.8443   20.4949 H   0  0  0  0  0  0
  -29.2555  -26.9715   21.8531 H   0  0  0  0  0  0
  -29.2616  -15.0338   21.8684 H   0  0  0  0  0  0
  -31.3086  -23.6359   19.7919 H   0  0  0  0  0  0
  -30.6090  -19.2825   22.3248 H   0  0  0  0  0  0
  -32.0055  -18.7874   21.6683 H   0  0  0  0  0  0
  1 25  1  0  0  0
  1 30  2  0  0  0
  1 81  1  0  0  0
  2  3  1  0  0  0
  2 25  1  0  0  0
  2 84  1  0  0  0
  2 85  1  0  0  0
  3  4  1  0  0  0
  3 86  1  0  0  0
  3 87  1  0  0  0
  4  5  1  0  0  0
  4 88  1  0  0  0
  4 89  1  0  0  0
  5  6  1  0  0  0
  5 26  1  0  0  0
  5 90  1  0  0  0
  6 25  1  0  0  0
  6 91  1  0  0  0
  6 92  1  0  0  0
  7  8  2  0  0  0
  7 26  1  0  0  0
  7 29  1  0  0  0
  8  9  1  0  0  0
  8 22  1  0  0  0
  9 10  1  0  0  0
  9 27  2  0  0  0
 10 11  2  0  0  0
 10 15  1  0  0  0
 11 12  1  0  0  0
 11 93  1  0  0  0
 12 13  2  0  0  0
 12 94  1  0  0  0
 13 14  1  0  0  0
 13 31  1  0  0  0
 14 15  2  0  0  0
 14 95  1  0  0  0
 15 96  1  0  0  0
 16 17  2  0  0  0
 16 21  1  0  0  0
 16 31  1  0  0  0
 17 18  1  0  0  0
 17 97  1  0  0  0
 18 19  2  0  0  0
 18 98  1  0  0  0
 19 20  1  0  0  0
 19 24  1  0  0  0
 20 21  2  0  0  0
 20 99  1  0  0  0
 21 23  1  0  0  0
 22 28  1  0  0  0
 22 32  2  0  0  0
 26 27  1  0  0  0
 28100  1  0  0  0
 28101  1  0  0  0
 29102  1  0  0  0
 29103  1  0  0  0
 33 34  1  0  0  0
 33 66  1  0  0  0
 33 70  2  0  0  0
 34 36  1  0  0  0
 34 59  1  0  0  0
 34104  1  0  0  0
 35 44  2  0  0  0
 35 45  1  0  0  0
 35 68  1  0  0  0
 36 56  1  0  0  0
 36105  1  0  0  0
 37 39  1  0  0  0
 37 47  1  0  0  0
 37 66  1  0  0  0
 37106  1  0  0  0
 38 43  2  0  0  0
 38 46  1  0  0  0
 38 47  1  0  0  0
 39 64  1  0  0  0
 39 67  2  0  0  0
 40 52  1  0  0  0
 40 53  2  0  0  0
 40 58  1  0  0  0
 41107  1  0  0  0
 41108  1  0  0  0
 41109  1  0  0  0
 41 48  1  0  0  0
 42 43  1  0  0  0
 42 66  1  0  0  0
 42110  1  0  0  0
 42111  1  0  0  0
 43 44  1  0  0  0
 44112  1  0  0  0
 45 46  2  0  0  0
 45113  1  0  0  0
 46114  1  0  0  0
 47115  1  0  0  0
 47116  1  0  0  0
 48 56  1  0  0  0
 48 65  1  0  0  0
 48117  1  0  0  0
 49 50  1  0  0  0
 49 53  1  0  0  0
 49 64  1  0  0  0
 49118  1  0  0  0
 50 51  1  0  0  0
 50119  1  0  0  0
 50120  1  0  0  0
 51 52  1  0  0  0
 51121  1  0  0  0
 51122  1  0  0  0
 52123  1  0  0  0
 52124  1  0  0  0
 53 54  1  0  0  0
 54 55  2  0  0  0
 54125  1  0  0  0
 55 57  1  0  0  0
 55126  1  0  0  0
 56 69  2  0  0  0
 57 58  2  0  0  0
 57127  1  0  0  0
 58128  1  0  0  0
 59 60  1  0  0  0
 59 61  1  0  0  0
 59 62  1  0  0  0
 60129  1  0  0  0
 60130  1  0  0  0
 60131  1  0  0  0
 61132  1  0  0  0
 61133  1  0  0  0
 61134  1  0  0  0
 62135  1  0  0  0
 62136  1  0  0  0
 62137  1  0  0  0
 63 65  1  0  0  0
 63138  1  0  0  0
 63139  1  0  0  0
 63140  1  0  0  0
 64141  1  0  0  0
 65142  1  0  0  0
 68 80  1  0  0  0
 71 73  1  0  0  0
 71 75  1  0  0  0
 71143  1  0  0  0
 71144  1  0  0  0
 72 74  1  0  0  0
 72 75  1  0  0  0
 72145  1  0  0  0
 72146  1  0  0  0
 73 82  1  0  0  0
 73147  1  0  0  0
 73148  1  0  0  0
 74 82  1  0  0  0
 74149  1  0  0  0
 74150  1  0  0  0
 75 83  1  0  0  0
 75151  1  0  0  0
 76 78  1  0  0  0
 76 80  1  0  0  0
 76152  1  0  0  0
 76153  1  0  0  0
 77 79  1  0  0  0
 77 81  1  0  0  0
 77154  1  0  0  0
 77155  1  0  0  0
 78156  1  0  0  0
 78157  1  0  0  0
 78 82  1  0  0  0
 79 83  1  0  0  0
 79158  1  0  0  0
 79159  1  0  0  0
 80160  1  0  0  0
 80161  1  0  0  0
 81162  1  0  0  0
 82163  1  0  0  0
 83164  1  0  0  0
 83165  1  0  0  0
M  CHG  2  82   1  83   1
M  ISO  4   1 100  68 101  80 101  81 100
M  END
> <chiral flag>
0

> <version>
0

> <s_m_source_file>
/data/baiqing/PycharmProjects/Reinvent-master-3.2/result/LINK_invent/BTK/process_docking_weight1_custom_sum_contain_oxygen_bond_distance_aromatic_linkinvent_7_9_3/rearranged_h_0130.sdf

> <i_m_source_file_index>
34

> <r_mmod_Potential_Energy-OPLS-2005>
-368.514526367188

> <r_mmod_Stretch_Energy-OPLS-2005>
35.3958969116211

> <r_mmod_Bend_Energy-OPLS-2005>
107.712219238281

> <r_mmod_Torsional_Energy-OPLS-2005>
258.367340087891

> <r_mmod_Improper_Torsional_Energy-OPLS-2005>
1.82906150817871

> <r_mmod_Van_der_Waal_Energy-OPLS-2005>
145.741256713867

> <r_mmod_Electrostatic_Energy-OPLS-2005>
56.9897193908691

> <r_mmod_Solvation_Energy-OPLS-2005>
-982.56103515625

> <b_mmod_Minimization_Converged-OPLS-2005>
0

> <r_mmod_RMS_Derivative-OPLS-2005>
3.09636330604553

$$$$
34
                    3D
 Structure written by MMmdl.
172181  0  0  1  0            999 V2000
  -30.8230  -14.2951   20.7421 C   0  0  0  0  0  0
  -30.4115  -12.2882   19.3758 C   0  0  0  0  0  0
  -29.4737  -12.5372   18.1833 C   0  0  0  0  0  0
  -28.0041  -12.3802   18.6091 C   0  0  0  0  0  0
  -27.6672  -13.2029   19.8787 C   0  0  2  0  0  0
  -28.7069  -12.9527   20.9950 C   0  0  0  0  0  0
  -25.2609  -13.8159   20.5674 C   0  0  0  0  0  0
  -24.1855  -13.0442   20.9175 C   0  0  0  0  0  0
  -24.6399  -11.6906   20.8732 C   0  0  0  0  0  0
  -23.9061  -10.4295   21.0403 C   0  0  0  0  0  0
  -24.3613   -9.4210   21.9180 C   0  0  0  0  0  0
  -23.6290   -8.2245   22.0752 C   0  0  0  0  0  0
  -22.4271   -8.0283   21.3544 C   0  0  0  0  0  0
  -21.9906   -9.0256   20.4645 C   0  0  0  0  0  0
  -22.7233  -10.2136   20.3053 C   0  0  0  0  0  0
  -21.6853   -6.0736   22.5278 C   0  0  0  0  0  0
  -21.4012   -6.5638   23.8212 C   0  0  0  0  0  0
  -21.3659   -5.6790   24.9173 C   0  0  0  0  0  0
  -21.6043   -4.3054   24.7223 C   0  0  0  0  0  0
  -21.8820   -3.8146   23.4345 C   0  0  0  0  0  0
  -21.9191   -4.6963   22.3402 C   0  0  0  0  0  0
  -22.7876  -13.5245   21.1836 C   0  0  0  0  0  0
  -22.1662   -4.2148   21.0980 F   0  0  0  0  0  0
  -21.5628   -3.4537   25.7736 F   0  0  0  0  0  0
  -30.0580  -13.2129   20.4612 N   0  0  0  0  0  0
  -26.3052  -12.9327   20.3381 N   0  0  0  0  0  0
  -25.9327  -11.6486   20.5766 N   0  0  0  0  0  0
  -22.0507  -12.8240   22.0389 N   0  0  0  0  0  0
  -25.4339  -15.1873   20.4064 N   0  0  0  0  0  0
  -31.7521  -14.6829   20.0289 O   0  0  0  0  0  0
  -21.6640   -6.8878   21.4240 O   0  0  0  0  0  0
  -22.3567  -14.5556   20.6691 O   0  0  0  0  0  0
  -24.6121  -31.8713   23.2132 C   0  0  0  0  0  0
  -25.9029  -32.4838   23.8417 C   0  0  1  0  0  0
  -27.2327  -27.4691   20.0800 C   0  0  0  0  0  0
  -25.5903  -33.8635   24.2354 N   0  0  0  0  0  0
  -23.3978  -30.4964   21.5538 C   0  0  2  0  0  0
  -24.8436  -28.9698   20.1134 C   0  0  0  0  0  0
  -22.7394  -29.4676   22.5004 C   0  0  0  0  0  0
  -18.0265  -28.1375   22.8494 C   0  0  0  0  0  0
  -24.1491  -36.7314   23.2637 C   0  0  0  0  0  0
  -25.9246  -30.8453   21.3631 C   0  0  0  0  0  0
  -26.0029  -29.4826   20.7103 C   0  0  0  0  0  0
  -27.2016  -28.7370   20.6968 C   0  0  0  0  0  0
  -26.0582  -26.9687   19.4731 C   0  0  0  0  0  0
  -24.8634  -27.7084   19.4952 C   0  0  0  0  0  0
  -23.6039  -29.8320   20.1669 C   0  0  0  0  0  0
  -25.4107  -36.3118   24.0346 C   0  0  1  0  0  0
  -20.5854  -28.3656   23.1324 C   0  0  2  0  0  0
  -20.6755  -26.9398   22.5415 C   0  0  0  0  0  0
  -19.5740  -26.6389   21.5204 C   0  0  0  0  0  0
  -18.1917  -26.7925   22.1617 C   0  0  0  0  0  0
  -19.1515  -28.8831   23.2910 C   0  0  0  0  0  0
  -18.9443  -30.1437   23.8920 C   0  0  0  0  0  0
  -17.6448  -30.6585   24.0564 C   0  0  0  0  0  0
  -25.9031  -34.9483   23.5142 C   0  0  0  0  0  0
  -16.5338  -29.9087   23.6326 C   0  0  0  0  0  0
  -16.7255  -28.6501   23.0353 C   0  0  0  0  0  0
  -26.4470  -31.6599   25.0725 C   0  0  0  0  0  0
  -25.3753  -31.3694   26.1486 C   0  0  0  0  0  0
  -27.0284  -30.3045   24.6068 C   0  0  0  0  0  0
  -27.6062  -32.4303   25.7474 C   0  0  0  0  0  0
  -27.5584  -37.1813   24.8469 C   0  0  0  0  0  0
  -21.4124  -29.3033   22.3739 N   0  0  0  0  0  0
  -26.4297  -37.3797   23.9413 N   0  0  0  0  0  0
  -24.6632  -31.0840   22.1022 N   0  0  0  0  0  0
  -23.4179  -28.8214   23.3033 O   0  0  0  0  0  0
  -28.3900  -26.7251   20.0782 O   0  0  0  0  0  0
  -26.5581  -34.8926   22.4695 O   0  0  0  0  0  0
  -23.5321  -32.1452   23.7546 O   0  0  0  0  0  0
  -27.5431  -23.6726   21.9782 C   0  0  0  0  0  0
  -28.0722  -23.0702   19.6842 C   0  0  0  0  0  0
  -27.8589  -25.0159   21.7000 C   0  0  0  0  0  0
  -28.3896  -24.4140   19.4022 C   0  0  0  0  0  0
  -27.6150  -22.6890   20.9652 C   0  0  0  0  0  0
  -28.2458  -25.3979   20.3994 C   0  0  0  0  0  0
  -25.9604  -20.9627   22.0688 C   0  0  0  0  0  0
  -27.1674  -21.2713   21.2081 C   0  0  2  0  0  0
  -27.3460  -20.5770   22.5397 C   0  0  2  0  0  0
  -27.7527  -19.1186   22.6157 C   0  0  0  0  0  0
  -31.5933  -15.5007   24.1425 C   0  0  0  0  0  0
  -29.2600  -18.9166   22.3937 C   0  0  0  0  0  0
  -32.2850  -14.1610   24.4807 C   0  0  0  0  0  0
  -31.0875  -17.2461   22.3172 C   0  0  0  0  0  0
  -31.4975  -15.7867   22.6240 C   0  0  2  0  0  0
  -30.6122  -14.8192   21.9588 N   0  0  0  0  0  0
  -32.4120  -13.9414   25.9328 N   0  3  0  0  0  0
  -29.6519  -17.5018   22.5584 N   0  3  0  0  0  0
  -31.4525  -12.3925   19.0636 H   0  0  0  0  0  0
  -30.3116  -11.2605   19.7283 H   0  0  0  0  0  0
  -29.7034  -11.8451   17.3720 H   0  0  0  0  0  0
  -29.6381  -13.5405   17.7873 H   0  0  0  0  0  0
  -27.8195  -11.3211   18.7924 H   0  0  0  0  0  0
  -27.3429  -12.6666   17.7902 H   0  0  0  0  0  0
  -27.7245  -14.2559   19.6025 H   0  0  0  0  0  0
  -28.6545  -11.9176   21.3364 H   0  0  0  0  0  0
  -28.4575  -13.5633   21.8631 H   0  0  0  0  0  0
  -25.2761   -9.5683   22.4749 H   0  0  0  0  0  0
  -24.0000   -7.4635   22.7471 H   0  0  0  0  0  0
  -21.0837   -8.8774   19.8952 H   0  0  0  0  0  0
  -22.3693  -10.9672   19.6159 H   0  0  0  0  0  0
  -21.2005   -7.6146   23.9713 H   0  0  0  0  0  0
  -21.1478   -6.0520   25.9074 H   0  0  0  0  0  0
  -22.0598   -2.7608   23.2845 H   0  0  0  0  0  0
  -22.4108  -11.9888   22.4762 H   0  0  0  0  0  0
  -21.1127  -13.1277   22.2591 H   0  0  0  0  0  0
  -24.6634  -15.8405   20.4959 H   0  0  0  0  0  0
  -26.2783  -15.6171   20.0509 H   0  0  0  0  0  0
  -26.7103  -32.5567   23.1190 H   0  0  0  0  0  0
  -25.0091  -33.9806   25.0524 H   0  0  0  0  0  0
  -22.6860  -31.3134   21.4181 H   0  0  0  0  0  0
  -23.3750  -35.9650   23.3310 H   0  0  0  0  0  0
  -24.3592  -36.8905   22.2049 H   0  0  0  0  0  0
  -23.7244  -37.6527   23.6634 H   0  0  0  0  0  0
  -26.0332  -31.6127   20.5955 H   0  0  0  0  0  0
  -26.8146  -30.8988   21.9783 H   0  0  0  0  0  0
  -28.0975  -29.1263   21.1598 H   0  0  0  0  0  0
  -26.0612  -26.0027   18.9882 H   0  0  0  0  0  0
  -23.9726  -27.3075   19.0317 H   0  0  0  0  0  0
  -23.7086  -30.6084   19.4082 H   0  0  0  0  0  0
  -22.7289  -29.2493   19.8725 H   0  0  0  0  0  0
  -25.1281  -36.1993   25.0839 H   0  0  0  0  0  0
  -20.9950  -28.3214   24.1442 H   0  0  0  0  0  0
  -20.5649  -26.2264   23.3594 H   0  0  0  0  0  0
  -21.6630  -26.7442   22.1217 H   0  0  0  0  0  0
  -19.6902  -25.6305   21.1224 H   0  0  0  0  0  0
  -19.6688  -27.3207   20.6741 H   0  0  0  0  0  0
  -17.4191  -26.6678   21.4013 H   0  0  0  0  0  0
  -18.0318  -26.0060   22.9005 H   0  0  0  0  0  0
  -19.7919  -30.7243   24.2308 H   0  0  0  0  0  0
  -17.5007  -31.6270   24.5155 H   0  0  0  0  0  0
  -15.5341  -30.2998   23.7645 H   0  0  0  0  0  0
  -15.8652  -28.0829   22.7061 H   0  0  0  0  0  0
  -24.5936  -30.7023   25.7833 H   0  0  0  0  0  0
  -24.8930  -32.2840   26.4943 H   0  0  0  0  0  0
  -25.8129  -30.8872   27.0237 H   0  0  0  0  0  0
  -26.2805  -29.6818   24.1143 H   0  0  0  0  0  0
  -27.4086  -29.7269   25.4503 H   0  0  0  0  0  0
  -27.8633  -30.4362   23.9180 H   0  0  0  0  0  0
  -27.2701  -33.3598   26.2081 H   0  0  0  0  0  0
  -28.3855  -32.6866   25.0284 H   0  0  0  0  0  0
  -28.0752  -31.8408   26.5363 H   0  0  0  0  0  0
  -28.2615  -38.0098   24.7505 H   0  0  0  0  0  0
  -28.1065  -36.2629   24.6305 H   0  0  0  0  0  0
  -27.2304  -37.1478   25.8873 H   0  0  0  0  0  0
  -20.9276  -29.8763   21.6976 H   0  0  0  0  0  0
  -26.0191  -38.2881   24.1401 H   0  0  0  0  0  0
  -27.2034  -23.4155   22.9712 H   0  0  0  0  0  0
  -28.1432  -22.3371   18.8924 H   0  0  0  0  0  0
  -27.7492  -25.7646   22.4720 H   0  0  0  0  0  0
  -28.6874  -24.6983   18.4027 H   0  0  0  0  0  0
  -25.3018  -20.1604   21.7418 H   0  0  0  0  0  0
  -25.4668  -21.7841   22.5840 H   0  0  0  0  0  0
  -27.2904  -20.6648   20.3122 H   0  0  0  0  0  0
  -27.7579  -21.1792   23.3477 H   0  0  0  0  0  0
  -27.1868  -18.5494   21.8761 H   0  0  0  0  0  0
  -27.4590  -18.7396   23.5955 H   0  0  0  0  0  0
  -32.1591  -16.3055   24.6149 H   0  0  0  0  0  0
  -30.6008  -15.5268   24.5935 H   0  0  0  0  0  0
  -29.8220  -19.5293   23.1004 H   0  0  0  0  0  0
  -29.5337  -19.2573   21.3935 H   0  0  0  0  0  0
  -33.2813  -14.1324   24.0369 H   0  0  0  0  0  0
  -31.7290  -13.3272   24.0502 H   0  0  0  0  0  0
  -31.3059  -17.4707   21.2717 H   0  0  0  0  0  0
  -31.6953  -17.9348   22.9065 H   0  0  0  0  0  0
  -32.5113  -15.6683   22.2330 H   0  0  0  0  0  0
  -29.8779  -14.3834   22.4982 H   0  0  0  0  0  0
  -32.9663  -14.6611   26.3611 H   0  0  0  0  0  0
  -32.8655  -13.0615   26.1053 H   0  0  0  0  0  0
  -31.5122  -13.9166   26.3779 H   0  0  0  0  0  0
  -29.1171  -16.9339   21.9224 H   0  0  0  0  0  0
  -29.4243  -17.2190   23.4974 H   0  0  0  0  0  0
  1 25  1  0  0  0
  1 30  2  0  0  0
  1 86  1  0  0  0
  2  3  1  0  0  0
  2 25  1  0  0  0
  2 89  1  0  0  0
  2 90  1  0  0  0
  3  4  1  0  0  0
  3 91  1  0  0  0
  3 92  1  0  0  0
  4  5  1  0  0  0
  4 93  1  0  0  0
  4 94  1  0  0  0
  5  6  1  0  0  0
  5 26  1  0  0  0
  5 95  1  0  0  0
  6 25  1  0  0  0
  6 96  1  0  0  0
  6 97  1  0  0  0
  7  8  2  0  0  0
  7 26  1  0  0  0
  7 29  1  0  0  0
  8  9  1  0  0  0
  8 22  1  0  0  0
  9 10  1  0  0  0
  9 27  2  0  0  0
 10 11  2  0  0  0
 10 15  1  0  0  0
 11 12  1  0  0  0
 11 98  1  0  0  0
 12 13  2  0  0  0
 12 99  1  0  0  0
 13 14  1  0  0  0
 13 31  1  0  0  0
 14 15  2  0  0  0
 14100  1  0  0  0
 15101  1  0  0  0
 16 17  2  0  0  0
 16 21  1  0  0  0
 16 31  1  0  0  0
 17 18  1  0  0  0
 17102  1  0  0  0
 18 19  2  0  0  0
 18103  1  0  0  0
 19 20  1  0  0  0
 19 24  1  0  0  0
 20 21  2  0  0  0
 20104  1  0  0  0
 21 23  1  0  0  0
 22 28  1  0  0  0
 22 32  2  0  0  0
 26 27  1  0  0  0
 28105  1  0  0  0
 28106  1  0  0  0
 29107  1  0  0  0
 29108  1  0  0  0
 33 34  1  0  0  0
 33 66  1  0  0  0
 33 70  2  0  0  0
 34 36  1  0  0  0
 34 59  1  0  0  0
 34109  1  0  0  0
 35 44  2  0  0  0
 35 45  1  0  0  0
 35 68  1  0  0  0
 36 56  1  0  0  0
 36110  1  0  0  0
 37 39  1  0  0  0
 37 47  1  0  0  0
 37 66  1  0  0  0
 37111  1  0  0  0
 38 43  2  0  0  0
 38 46  1  0  0  0
 38 47  1  0  0  0
 39 64  1  0  0  0
 39 67  2  0  0  0
 40 52  1  0  0  0
 40 53  2  0  0  0
 40 58  1  0  0  0
 41112  1  0  0  0
 41113  1  0  0  0
 41114  1  0  0  0
 41 48  1  0  0  0
 42 43  1  0  0  0
 42 66  1  0  0  0
 42115  1  0  0  0
 42116  1  0  0  0
 43 44  1  0  0  0
 44117  1  0  0  0
 45 46  2  0  0  0
 45118  1  0  0  0
 46119  1  0  0  0
 47120  1  0  0  0
 47121  1  0  0  0
 48 56  1  0  0  0
 48 65  1  0  0  0
 48122  1  0  0  0
 49 50  1  0  0  0
 49 53  1  0  0  0
 49 64  1  0  0  0
 49123  1  0  0  0
 50 51  1  0  0  0
 50124  1  0  0  0
 50125  1  0  0  0
 51 52  1  0  0  0
 51126  1  0  0  0
 51127  1  0  0  0
 52128  1  0  0  0
 52129  1  0  0  0
 53 54  1  0  0  0
 54 55  2  0  0  0
 54130  1  0  0  0
 55 57  1  0  0  0
 55131  1  0  0  0
 56 69  2  0  0  0
 57 58  2  0  0  0
 57132  1  0  0  0
 58133  1  0  0  0
 59 60  1  0  0  0
 59 61  1  0  0  0
 59 62  1  0  0  0
 60134  1  0  0  0
 60135  1  0  0  0
 60136  1  0  0  0
 61137  1  0  0  0
 61138  1  0  0  0
 61139  1  0  0  0
 62140  1  0  0  0
 62141  1  0  0  0
 62142  1  0  0  0
 63 65  1  0  0  0
 63143  1  0  0  0
 63144  1  0  0  0
 63145  1  0  0  0
 64146  1  0  0  0
 65147  1  0  0  0
 68 76  1  0  0  0
 71 73  2  0  0  0
 71 75  1  0  0  0
 71148  1  0  0  0
 72 74  1  0  0  0
 72 75  2  0  0  0
 72149  1  0  0  0
 73 76  1  0  0  0
 73150  1  0  0  0
 74 76  2  0  0  0
 74151  1  0  0  0
 75 78  1  0  0  0
 77 78  1  0  0  0
 77 79  1  0  0  0
 77152  1  0  0  0
 77153  1  0  0  0
 78 79  1  0  0  0
 78154  1  0  0  0
 79 80  1  0  0  0
 79155  1  0  0  0
 80 82  1  0  0  0
 80156  1  0  0  0
 80157  1  0  0  0
 81 83  1  0  0  0
 81158  1  0  0  0
 81159  1  0  0  0
 81 85  1  0  0  0
 82 88  1  0  0  0
 82160  1  0  0  0
 82161  1  0  0  0
 83 87  1  0  0  0
 83162  1  0  0  0
 83163  1  0  0  0
 84 85  1  0  0  0
 84 88  1  0  0  0
 84164  1  0  0  0
 84165  1  0  0  0
 85 86  1  0  0  0
 85166  1  0  0  0
 86167  1  0  0  0
 87168  1  0  0  0
 87169  1  0  0  0
 87170  1  0  0  0
 88171  1  0  0  0
 88172  1  0  0  0
M  CHG  2  87   1  88   1
M  ISO  4   1 100  68 101  76 101  86 100
M  END
> <chiral flag>
0

> <version>
0

> <s_m_source_file>
/data/baiqing/PycharmProjects/Reinvent-master-3.2/result/LINK_invent/BTK/process_docking_weight1_custom_sum_contain_oxygen_bond_distance_aromatic_linkinvent_7_9_3/rearranged_h_0130.sdf

> <i_m_source_file_index>
35

> <r_mmod_Potential_Energy-OPLS-2005>
-448.19189453125

> <r_mmod_Stretch_Energy-OPLS-2005>
32.0575485229492

> <r_mmod_Bend_Energy-OPLS-2005>
82.0307693481445

> <r_mmod_Torsional_Energy-OPLS-2005>
284.868804931641

> <r_mmod_Improper_Torsional_Energy-OPLS-2005>
4.23348426818848

> <r_mmod_Van_der_Waal_Energy-OPLS-2005>
146.728210449219

> <r_mmod_Electrostatic_Energy-OPLS-2005>
13.6885414123535

> <r_mmod_Solvation_Energy-OPLS-2005>
-1020.30364990234

> <b_mmod_Minimization_Converged-OPLS-2005>
0

> <r_mmod_RMS_Derivative-OPLS-2005>
0.565359890460968

$$$$
35
                    3D
 Structure written by MMmdl.
187196  0  0  1  0            999 V2000
  -30.6989  -14.5319   20.4774 C   0  0  0  0  0  0
  -30.4122  -12.3208   19.4515 C   0  0  0  0  0  0
  -29.4952  -12.4814   18.2211 C   0  0  0  0  0  0
  -28.0168  -12.3465   18.6314 C   0  0  0  0  0  0
  -27.6506  -13.2184   19.8628 C   0  0  2  0  0  0
  -28.6948  -13.0800   20.9956 C   0  0  0  0  0  0
  -25.2537  -13.8188   20.5695 C   0  0  0  0  0  0
  -24.1808  -13.0442   20.9189 C   0  0  0  0  0  0
  -24.6381  -11.6916   20.8735 C   0  0  0  0  0  0
  -23.9053  -10.4295   21.0401 C   0  0  0  0  0  0
  -24.3610   -9.4209   21.9177 C   0  0  0  0  0  0
  -23.6292   -8.2238   22.0744 C   0  0  0  0  0  0
  -22.4271   -8.0273   21.3540 C   0  0  0  0  0  0
  -21.9905   -9.0241   20.4635 C   0  0  0  0  0  0
  -22.7228  -10.2126   20.3047 C   0  0  0  0  0  0
  -21.6853   -6.0731   22.5272 C   0  0  0  0  0  0
  -21.4014   -6.5635   23.8204 C   0  0  0  0  0  0
  -21.3657   -5.6791   24.9166 C   0  0  0  0  0  0
  -21.6047   -4.3055   24.7222 C   0  0  0  0  0  0
  -21.8824   -3.8144   23.4345 C   0  0  0  0  0  0
  -21.9192   -4.6958   22.3399 C   0  0  0  0  0  0
  -22.7827  -13.5215   21.1861 C   0  0  0  0  0  0
  -22.1663   -4.2141   21.0977 F   0  0  0  0  0  0
  -21.5630   -3.4541   25.7738 F   0  0  0  0  0  0
  -30.0197  -13.3532   20.4259 N   0  0  0  0  0  0
  -26.2969  -12.9379   20.3335 N   0  0  0  0  0  0
  -25.9311  -11.6533   20.5775 N   0  0  0  0  0  0
  -22.0486  -12.8191   22.0416 N   0  0  0  0  0  0
  -25.4255  -15.1915   20.4126 N   0  0  0  0  0  0
  -31.8885  -14.6142   20.1679 O   0  0  0  0  0  0
  -21.6638   -6.8873   21.4235 O   0  0  0  0  0  0
  -22.3507  -14.5521   20.6718 O   0  0  0  0  0  0
  -24.6161  -31.8653   23.2100 C   0  0  0  0  0  0
  -25.9048  -32.4809   23.8397 C   0  0  1  0  0  0
  -27.2255  -27.4209   20.1051 C   0  0  0  0  0  0
  -25.5904  -33.8612   24.2322 N   0  0  0  0  0  0
  -23.4052  -30.4909   21.5497 C   0  0  2  0  0  0
  -24.8528  -28.9606   20.1085 C   0  0  0  0  0  0
  -22.7424  -29.4640   22.4978 C   0  0  0  0  0  0
  -18.0272  -28.1380   22.8479 C   0  0  0  0  0  0
  -24.1490  -36.7318   23.2638 C   0  0  0  0  0  0
  -25.9363  -30.8293   21.3654 C   0  0  0  0  0  0
  -26.0145  -29.4647   20.7098 C   0  0  0  0  0  0
  -27.2079  -28.7029   20.7034 C   0  0  0  0  0  0
  -26.0545  -26.9439   19.4792 C   0  0  0  0  0  0
  -24.8679  -27.7014   19.4861 C   0  0  0  0  0  0
  -23.6147  -29.8286   20.1622 C   0  0  0  0  0  0
  -25.4107  -36.3102   24.0337 C   0  0  1  0  0  0
  -20.5864  -28.3671   23.1315 C   0  0  2  0  0  0
  -20.6771  -26.9408   22.5421 C   0  0  0  0  0  0
  -19.5765  -26.6385   21.5209 C   0  0  0  0  0  0
  -18.1930  -26.7928   22.1601 C   0  0  0  0  0  0
  -19.1523  -28.8839   23.2889 C   0  0  0  0  0  0
  -18.9452  -30.1438   23.8916 C   0  0  0  0  0  0
  -17.6458  -30.6584   24.0570 C   0  0  0  0  0  0
  -25.9039  -34.9465   23.5124 C   0  0  0  0  0  0
  -16.5346  -29.9089   23.6330 C   0  0  0  0  0  0
  -16.7265  -28.6505   23.0350 C   0  0  0  0  0  0
  -26.4480  -31.6593   25.0726 C   0  0  0  0  0  0
  -25.3752  -31.3661   26.1473 C   0  0  0  0  0  0
  -27.0315  -30.3043   24.6088 C   0  0  0  0  0  0
  -27.6063  -32.4312   25.7483 C   0  0  0  0  0  0
  -27.5578  -37.1801   24.8454 C   0  0  0  0  0  0
  -21.4149  -29.3027   22.3710 N   0  0  0  0  0  0
  -26.4287  -37.3787   23.9408 N   0  0  0  0  0  0
  -24.6706  -31.0756   22.1003 N   0  0  0  0  0  0
  -23.4188  -28.8185   23.3028 O   0  0  0  0  0  0
  -28.3547  -26.6266   20.1404 O   0  0  0  0  0  0
  -26.5597  -34.8915   22.4681 O   0  0  0  0  0  0
  -23.5354  -32.1414   23.7491 O   0  0  0  0  0  0
  -33.7372  -28.1438   18.0289 C   0  0  0  0  0  0
  -34.0553  -26.6532   18.1007 C   0  0  0  0  0  0
  -30.0973  -16.5184   18.2023 C   0  0  0  0  0  0
  -29.5728  -18.2270   20.0190 C   0  0  0  0  0  0
  -32.2818  -28.2001   18.4914 C   0  0  0  0  0  0
  -30.5025  -17.6700   17.2832 C   0  0  0  0  0  0
  -30.3078  -16.8669   19.6946 C   0  0  1  0  0  0
  -32.7375  -25.9734   17.6924 C   0  0  1  0  0  0
  -29.9836  -19.3760   19.0098 C   0  0  2  0  0  0
  -32.5457  -24.5844   18.3494 C   0  0  0  0  0  0
  -28.4854  -22.7853   20.7781 C   0  0  0  0  0  0
  -28.9145  -24.1781   20.2067 C   0  0  0  0  0  0
  -29.3845  -21.5133   20.5561 C   0  0  0  0  0  0
  -31.4548  -23.7188   17.6800 C   0  0  0  0  0  0
  -29.8959  -21.8096   18.0631 C   0  0  0  0  0  0
  -28.1682  -25.3773   20.8468 C   0  0  0  0  0  0
  -29.3456  -20.8262   19.1488 C   0  0  1  0  0  0
  -29.9408  -15.6611   20.4961 N   0  0  0  0  0  0
  -31.6636  -26.9415   18.0321 N   0  3  0  0  0  0
  -29.7353  -18.8780   17.6280 N   0  3  0  0  0  0
  -31.1812  -22.4652   18.4265 N   0  3  0  0  0  0
  -31.4588  -12.3984   19.1529 H   0  0  0  0  0  0
  -30.2994  -11.3283   19.8899 H   0  0  0  0  0  0
  -29.7421  -11.7335   17.4666 H   0  0  0  0  0  0
  -29.6599  -13.4524   17.7533 H   0  0  0  0  0  0
  -27.8346  -11.2952   18.8570 H   0  0  0  0  0  0
  -27.3666  -12.5920   17.7906 H   0  0  0  0  0  0
  -27.6689  -14.2521   19.5188 H   0  0  0  0  0  0
  -28.6735  -12.0750   21.4186 H   0  0  0  0  0  0
  -28.4703  -13.7625   21.8174 H   0  0  0  0  0  0
  -25.2758   -9.5680   22.4743 H   0  0  0  0  0  0
  -23.9999   -7.4631   22.7461 H   0  0  0  0  0  0
  -21.0837   -8.8761   19.8937 H   0  0  0  0  0  0
  -22.3692  -10.9662   19.6146 H   0  0  0  0  0  0
  -21.2006   -7.6142   23.9703 H   0  0  0  0  0  0
  -21.1476   -6.0522   25.9069 H   0  0  0  0  0  0
  -22.0607   -2.7605   23.2850 H   0  0  0  0  0  0
  -22.4135  -11.9854   22.4784 H   0  0  0  0  0  0
  -21.1090  -13.1179   22.2628 H   0  0  0  0  0  0
  -24.6608  -15.8477   20.5294 H   0  0  0  0  0  0
  -26.2814  -15.6325   20.1023 H   0  0  0  0  0  0
  -26.7124  -32.5519   23.1163 H   0  0  0  0  0  0
  -25.0067  -33.9772   25.0475 H   0  0  0  0  0  0
  -22.6955  -31.3088   21.4116 H   0  0  0  0  0  0
  -23.3743  -35.9661   23.3288 H   0  0  0  0  0  0
  -24.3587  -36.8956   22.2055 H   0  0  0  0  0  0
  -23.7249  -37.6517   23.6674 H   0  0  0  0  0  0
  -26.0482  -31.5952   20.5972 H   0  0  0  0  0  0
  -26.8236  -30.8820   21.9845 H   0  0  0  0  0  0
  -28.1016  -29.0781   21.1814 H   0  0  0  0  0  0
  -26.0564  -25.9773   18.9955 H   0  0  0  0  0  0
  -23.9777  -27.3133   19.0106 H   0  0  0  0  0  0
  -23.7236  -30.6065   19.4054 H   0  0  0  0  0  0
  -22.7383  -29.2506   19.8653 H   0  0  0  0  0  0
  -25.1280  -36.1959   25.0829 H   0  0  0  0  0  0
  -20.9954  -28.3255   24.1440 H   0  0  0  0  0  0
  -20.5682  -26.2281   23.3609 H   0  0  0  0  0  0
  -21.6644  -26.7458   22.1217 H   0  0  0  0  0  0
  -19.6937  -25.6296   21.1239 H   0  0  0  0  0  0
  -19.6725  -27.3197   20.6741 H   0  0  0  0  0  0
  -17.4209  -26.6685   21.3985 H   0  0  0  0  0  0
  -18.0312  -26.0061   22.8983 H   0  0  0  0  0  0
  -19.7928  -30.7230   24.2327 H   0  0  0  0  0  0
  -17.5014  -31.6275   24.5151 H   0  0  0  0  0  0
  -15.5350  -30.2998   23.7650 H   0  0  0  0  0  0
  -15.8658  -28.0831   22.7072 H   0  0  0  0  0  0
  -24.6001  -30.6912   25.7818 H   0  0  0  0  0  0
  -24.8842  -32.2779   26.4888 H   0  0  0  0  0  0
  -25.8132  -30.8895   27.0251 H   0  0  0  0  0  0
  -26.2844  -29.6787   24.1193 H   0  0  0  0  0  0
  -27.4141  -29.7294   25.4526 H   0  0  0  0  0  0
  -27.8653  -30.4364   23.9191 H   0  0  0  0  0  0
  -27.2710  -33.3626   26.2060 H   0  0  0  0  0  0
  -28.3881  -32.6846   25.0309 H   0  0  0  0  0  0
  -28.0726  -31.8426   26.5395 H   0  0  0  0  0  0
  -28.2575  -38.0114   24.7534 H   0  0  0  0  0  0
  -28.1095  -36.2648   24.6250 H   0  0  0  0  0  0
  -27.2301  -37.1430   25.8855 H   0  0  0  0  0  0
  -20.9315  -29.8747   21.6927 H   0  0  0  0  0  0
  -26.0173  -38.2859   24.1426 H   0  0  0  0  0  0
  -33.8145  -28.4983   17.0003 H   0  0  0  0  0  0
  -34.3983  -28.7525   18.6465 H   0  0  0  0  0  0
  -34.3218  -26.3871   19.1242 H   0  0  0  0  0  0
  -34.8900  -26.3696   17.4584 H   0  0  0  0  0  0
  -30.6854  -15.6465   17.9172 H   0  0  0  0  0  0
  -29.0539  -16.2541   18.0223 H   0  0  0  0  0  0
  -29.8159  -18.5327   21.0375 H   0  0  0  0  0  0
  -28.4917  -18.0857   19.9938 H   0  0  0  0  0  0
  -31.7515  -29.0766   18.1162 H   0  0  0  0  0  0
  -32.2391  -28.2313   19.5814 H   0  0  0  0  0  0
  -30.3105  -17.4031   16.2433 H   0  0  0  0  0  0
  -31.5724  -17.8699   17.3639 H   0  0  0  0  0  0
  -31.3724  -17.0566   19.8513 H   0  0  0  0  0  0
  -32.7423  -25.8631   16.6064 H   0  0  0  0  0  0
  -31.0627  -19.5040   19.1170 H   0  0  0  0  0  0
  -32.3385  -24.7160   19.4123 H   0  0  0  0  0  0
  -33.4903  -24.0412   18.2981 H   0  0  0  0  0  0
  -27.4701  -22.5669   20.4433 H   0  0  0  0  0  0
  -28.3997  -22.9114   21.8588 H   0  0  0  0  0  0
  -28.7056  -24.2222   19.1408 H   0  0  0  0  0  0
  -29.9844  -24.3351   20.3393 H   0  0  0  0  0  0
  -29.0289  -20.7733   21.2742 H   0  0  0  0  0  0
  -30.4085  -21.7182   20.8703 H   0  0  0  0  0  0
  -31.7371  -23.4745   16.6544 H   0  0  0  0  0  0
  -30.5397  -24.3068   17.6101 H   0  0  0  0  0  0
  -29.1321  -22.5642   17.8895 H   0  0  0  0  0  0
  -30.0113  -21.3431   17.0851 H   0  0  0  0  0  0
  -28.5263  -25.5182   21.8668 H   0  0  0  0  0  0
  -27.1147  -25.1129   20.9495 H   0  0  0  0  0  0
  -28.2853  -20.6884   18.9287 H   0  0  0  0  0  0
  -28.9764  -15.5569   20.7749 H   0  0  0  0  0  0
  -31.1175  -27.1350   17.2065 H   0  0  0  0  0  0
  -31.0414  -26.6053   18.7489 H   0  0  0  0  0  0
  -28.7532  -18.6809   17.5051 H   0  0  0  0  0  0
  -29.9795  -19.5806   16.9488 H   0  0  0  0  0  0
  -31.1491  -22.6788   19.4108 H   0  0  0  0  0  0
  -31.9538  -21.8305   18.2870 H   0  0  0  0  0  0
  1 25  1  0  0  0
  1 30  2  0  0  0
  1 88  1  0  0  0
  2  3  1  0  0  0
  2 25  1  0  0  0
  2 92  1  0  0  0
  2 93  1  0  0  0
  3  4  1  0  0  0
  3 94  1  0  0  0
  3 95  1  0  0  0
  4  5  1  0  0  0
  4 96  1  0  0  0
  4 97  1  0  0  0
  5  6  1  0  0  0
  5 26  1  0  0  0
  5 98  1  0  0  0
  6 25  1  0  0  0
  6 99  1  0  0  0
  6100  1  0  0  0
  7  8  2  0  0  0
  7 26  1  0  0  0
  7 29  1  0  0  0
  8  9  1  0  0  0
  8 22  1  0  0  0
  9 10  1  0  0  0
  9 27  2  0  0  0
 10 11  2  0  0  0
 10 15  1  0  0  0
 11 12  1  0  0  0
 11101  1  0  0  0
 12 13  2  0  0  0
 12102  1  0  0  0
 13 14  1  0  0  0
 13 31  1  0  0  0
 14 15  2  0  0  0
 14103  1  0  0  0
 15104  1  0  0  0
 16 17  2  0  0  0
 16 21  1  0  0  0
 16 31  1  0  0  0
 17 18  1  0  0  0
 17105  1  0  0  0
 18 19  2  0  0  0
 18106  1  0  0  0
 19 20  1  0  0  0
 19 24  1  0  0  0
 20 21  2  0  0  0
 20107  1  0  0  0
 21 23  1  0  0  0
 22 28  1  0  0  0
 22 32  2  0  0  0
 26 27  1  0  0  0
 28108  1  0  0  0
 28109  1  0  0  0
 29110  1  0  0  0
 29111  1  0  0  0
 33 34  1  0  0  0
 33 66  1  0  0  0
 33 70  2  0  0  0
 34 36  1  0  0  0
 34 59  1  0  0  0
 34112  1  0  0  0
 35 44  2  0  0  0
 35 45  1  0  0  0
 35 68  1  0  0  0
 36 56  1  0  0  0
 36113  1  0  0  0
 37 39  1  0  0  0
 37 47  1  0  0  0
 37 66  1  0  0  0
 37114  1  0  0  0
 38 43  2  0  0  0
 38 46  1  0  0  0
 38 47  1  0  0  0
 39 64  1  0  0  0
 39 67  2  0  0  0
 40 52  1  0  0  0
 40 53  2  0  0  0
 40 58  1  0  0  0
 41115  1  0  0  0
 41116  1  0  0  0
 41117  1  0  0  0
 41 48  1  0  0  0
 42 43  1  0  0  0
 42 66  1  0  0  0
 42118  1  0  0  0
 42119  1  0  0  0
 43 44  1  0  0  0
 44120  1  0  0  0
 45 46  2  0  0  0
 45121  1  0  0  0
 46122  1  0  0  0
 47123  1  0  0  0
 47124  1  0  0  0
 48 56  1  0  0  0
 48 65  1  0  0  0
 48125  1  0  0  0
 49 50  1  0  0  0
 49 53  1  0  0  0
 49 64  1  0  0  0
 49126  1  0  0  0
 50 51  1  0  0  0
 50127  1  0  0  0
 50128  1  0  0  0
 51 52  1  0  0  0
 51129  1  0  0  0
 51130  1  0  0  0
 52131  1  0  0  0
 52132  1  0  0  0
 53 54  1  0  0  0
 54 55  2  0  0  0
 54133  1  0  0  0
 55 57  1  0  0  0
 55134  1  0  0  0
 56 69  2  0  0  0
 57 58  2  0  0  0
 57135  1  0  0  0
 58136  1  0  0  0
 59 60  1  0  0  0
 59 61  1  0  0  0
 59 62  1  0  0  0
 60137  1  0  0  0
 60138  1  0  0  0
 60139  1  0  0  0
 61140  1  0  0  0
 61141  1  0  0  0
 61142  1  0  0  0
 62143  1  0  0  0
 62144  1  0  0  0
 62145  1  0  0  0
 63 65  1  0  0  0
 63146  1  0  0  0
 63147  1  0  0  0
 63148  1  0  0  0
 64149  1  0  0  0
 65150  1  0  0  0
 68 86  1  0  0  0
 71 72  1  0  0  0
 71 75  1  0  0  0
 71151  1  0  0  0
 71152  1  0  0  0
 72 78  1  0  0  0
 72153  1  0  0  0
 72154  1  0  0  0
 73 76  1  0  0  0
 73 77  1  0  0  0
 73155  1  0  0  0
 73156  1  0  0  0
 74 77  1  0  0  0
 74157  1  0  0  0
 74158  1  0  0  0
 74 79  1  0  0  0
 75 89  1  0  0  0
 75159  1  0  0  0
 75160  1  0  0  0
 76 90  1  0  0  0
 76161  1  0  0  0
 76162  1  0  0  0
 77 88  1  0  0  0
 77163  1  0  0  0
 78 80  1  0  0  0
 78 89  1  0  0  0
 78164  1  0  0  0
 79 87  1  0  0  0
 79 90  1  0  0  0
 79165  1  0  0  0
 80 84  1  0  0  0
 80166  1  0  0  0
 80167  1  0  0  0
 81 82  1  0  0  0
 81 83  1  0  0  0
 81168  1  0  0  0
 81169  1  0  0  0
 82 86  1  0  0  0
 82170  1  0  0  0
 82171  1  0  0  0
 83172  1  0  0  0
 83173  1  0  0  0
 83 87  1  0  0  0
 84 91  1  0  0  0
 84174  1  0  0  0
 84175  1  0  0  0
 85 87  1  0  0  0
 85 91  1  0  0  0
 85176  1  0  0  0
 85177  1  0  0  0
 86178  1  0  0  0
 86179  1  0  0  0
 87180  1  0  0  0
 88181  1  0  0  0
 89182  1  0  0  0
 89183  1  0  0  0
 90184  1  0  0  0
 90185  1  0  0  0
 91186  1  0  0  0
 91187  1  0  0  0
M  CHG  3  89   1  90   1  91   1
M  ISO  4   1 100  68 101  86 101  88 100
M  END
> <chiral flag>
0

> <version>
0

> <s_m_source_file>
/data/baiqing/PycharmProjects/Reinvent-master-3.2/result/LINK_invent/BTK/process_docking_weight1_custom_sum_contain_oxygen_bond_distance_aromatic_linkinvent_7_9_3/rearranged_h_0130.sdf

> <i_m_source_file_index>
36

> <r_mmod_Potential_Energy-OPLS-2005>
-262.389984130859

> <r_mmod_Stretch_Energy-OPLS-2005>
56.2454986572266

> <r_mmod_Bend_Energy-OPLS-2005>
149.426010131836

> <r_mmod_Torsional_Energy-OPLS-2005>
376.494476318359

> <r_mmod_Improper_Torsional_Energy-OPLS-2005>
11.7258739471436

> <r_mmod_Van_der_Waal_Energy-OPLS-2005>
125.023902893066

> <r_mmod_Electrostatic_Energy-OPLS-2005>
697.312438964844

> <r_mmod_Solvation_Energy-OPLS-2005>
-1704.4873046875

> <b_mmod_Minimization_Converged-OPLS-2005>
0

> <r_mmod_RMS_Derivative-OPLS-2005>
1.60141360759735

$$$$
36
                    3D
 Structure written by MMmdl.
162171  0  0  1  0            999 V2000
  -30.6189  -14.6983   20.4214 C   0  0  0  0  0  0
  -30.4259  -12.4034   19.4891 C   0  0  0  0  0  0
  -29.5152  -12.4670   18.2427 C   0  0  0  0  0  0
  -28.0391  -12.3038   18.6547 C   0  0  0  0  0  0
  -27.6409  -13.2214   19.8421 C   0  0  2  0  0  0
  -28.6788  -13.1519   20.9850 C   0  0  0  0  0  0
  -25.2510  -13.8167   20.5680 C   0  0  0  0  0  0
  -24.1792  -13.0417   20.9189 C   0  0  0  0  0  0
  -24.6357  -11.6886   20.8709 C   0  0  0  0  0  0
  -23.9035  -10.4271   21.0397 C   0  0  0  0  0  0
  -24.3595   -9.4200   21.9178 C   0  0  0  0  0  0
  -23.6284   -8.2225   22.0738 C   0  0  0  0  0  0
  -22.4261   -8.0256   21.3527 C   0  0  0  0  0  0
  -21.9892   -9.0232   20.4638 C   0  0  0  0  0  0
  -22.7202  -10.2117   20.3046 C   0  0  0  0  0  0
  -21.6847   -6.0725   22.5279 C   0  0  0  0  0  0
  -21.4017   -6.5638   23.8215 C   0  0  0  0  0  0
  -21.3659   -5.6792   24.9184 C   0  0  0  0  0  0
  -21.6045   -4.3051   24.7231 C   0  0  0  0  0  0
  -21.8818   -3.8135   23.4351 C   0  0  0  0  0  0
  -21.9194   -4.6958   22.3406 C   0  0  0  0  0  0
  -22.7821  -13.5215   21.1883 C   0  0  0  0  0  0
  -22.1655   -4.2145   21.0977 F   0  0  0  0  0  0
  -21.5636   -3.4534   25.7742 F   0  0  0  0  0  0
  -29.9940  -13.4735   20.4148 N   0  0  0  0  0  0
  -26.2908  -12.9355   20.3191 N   0  0  0  0  0  0
  -25.9281  -11.6503   20.5672 N   0  0  0  0  0  0
  -22.0466  -12.8207   22.0445 N   0  0  0  0  0  0
  -25.4267  -15.1903   20.4197 N   0  0  0  0  0  0
  -31.8072  -14.7840   20.0935 O   0  0  0  0  0  0
  -21.6619   -6.8863   21.4237 O   0  0  0  0  0  0
  -22.3510  -14.5535   20.6759 O   0  0  0  0  0  0
  -24.6318  -31.8563   23.1997 C   0  0  0  0  0  0
  -25.9154  -32.4755   23.8325 C   0  0  1  0  0  0
  -27.2050  -27.2679   20.1254 C   0  0  0  0  0  0
  -25.5958  -33.8552   24.2263 N   0  0  0  0  0  0
  -23.4249  -30.4829   21.5459 C   0  0  2  0  0  0
  -24.8642  -28.9332   20.1135 C   0  0  0  0  0  0
  -22.7501  -29.4616   22.4926 C   0  0  0  0  0  0
  -18.0292  -28.1385   22.8470 C   0  0  0  0  0  0
  -24.1492  -36.7299   23.2636 C   0  0  0  0  0  0
  -25.9696  -30.7723   21.3725 C   0  0  0  0  0  0
  -26.0382  -29.3949   20.7213 C   0  0  0  0  0  0
  -27.2127  -28.5750   20.7186 C   0  0  0  0  0  0
  -26.0025  -26.8791   19.4890 C   0  0  0  0  0  0
  -24.8500  -27.6818   19.4889 C   0  0  0  0  0  0
  -23.6378  -29.8210   20.1609 C   0  0  0  0  0  0
  -25.4114  -36.3069   24.0327 C   0  0  1  0  0  0
  -20.5894  -28.3694   23.1275 C   0  0  2  0  0  0
  -20.6778  -26.9412   22.5410 C   0  0  0  0  0  0
  -19.5761  -26.6383   21.5204 C   0  0  0  0  0  0
  -18.1937  -26.7934   22.1607 C   0  0  0  0  0  0
  -19.1545  -28.8857   23.2867 C   0  0  0  0  0  0
  -18.9465  -30.1460   23.8882 C   0  0  0  0  0  0
  -17.6462  -30.6585   24.0562 C   0  0  0  0  0  0
  -25.9055  -34.9435   23.5094 C   0  0  0  0  0  0
  -16.5353  -29.9080   23.6328 C   0  0  0  0  0  0
  -16.7279  -28.6502   23.0340 C   0  0  0  0  0  0
  -26.4522  -31.6572   25.0706 C   0  0  0  0  0  0
  -25.3768  -31.3749   26.1464 C   0  0  0  0  0  0
  -27.0320  -30.2978   24.6158 C   0  0  0  0  0  0
  -27.6113  -32.4277   25.7453 C   0  0  0  0  0  0
  -27.5586  -37.1792   24.8461 C   0  0  0  0  0  0
  -21.4208  -29.3051   22.3677 N   0  0  0  0  0  0
  -26.4289  -37.3768   23.9418 N   0  0  0  0  0  0
  -24.6960  -31.0546   22.0966 N   0  0  0  0  0  0
  -23.4207  -28.8135   23.3010 O   0  0  0  0  0  0
  -28.3003  -26.3734   20.1708 O   0  0  0  0  0  0
  -26.5617  -34.8920   22.4654 O   0  0  0  0  0  0
  -23.5481  -32.1371   23.7318 O   0  0  0  0  0  0
  -30.1061  -19.5548   18.5280 C   0  0  0  0  0  0
  -30.1921  -17.1347   18.5928 C   0  0  0  0  0  0
  -30.2861  -18.3326   17.8629 C   0  0  0  0  0  0
  -29.7552  -19.5824   19.8888 C   0  0  0  0  0  0
  -29.9305  -17.1464   19.9824 C   0  0  0  0  0  0
  -29.9727  -23.9407   18.8952 C   0  0  0  0  0  0
  -29.2139  -23.1246   17.8392 C   0  0  0  0  0  0
  -29.1468  -23.7618   20.1748 C   0  0  2  0  0  0
  -28.6845  -22.2145   20.0194 C   0  0  2  0  0  0
  -30.5754  -18.3254   16.3753 C   0  0  0  0  0  0
  -29.6310  -21.0108   20.5869 C   0  0  0  0  0  0
  -28.0057  -24.9005   20.2110 C   0  0  0  0  0  0
  -29.6712  -18.3787   20.5890 N   0  0  0  0  0  0
  -29.8504  -15.8290   20.6380 N   0  0  0  0  0  0
  -28.4661  -22.0761   18.5629 N   0  3  0  0  0  0
  -31.4752  -12.4937   19.2046 H   0  0  0  0  0  0
  -30.3334  -11.4308   19.9747 H   0  0  0  0  0  0
  -29.7936  -11.6801   17.5401 H   0  0  0  0  0  0
  -29.6570  -13.4134   17.7178 H   0  0  0  0  0  0
  -27.9020  -11.2606   18.9447 H   0  0  0  0  0  0
  -27.3803  -12.4681   17.8008 H   0  0  0  0  0  0
  -27.6405  -14.2386   19.4496 H   0  0  0  0  0  0
  -28.6910  -12.1577   21.4339 H   0  0  0  0  0  0
  -28.4151  -13.8413   21.7872 H   0  0  0  0  0  0
  -25.2750   -9.5705   22.4736 H   0  0  0  0  0  0
  -24.0019   -7.4619   22.7439 H   0  0  0  0  0  0
  -21.0825   -8.8737   19.8946 H   0  0  0  0  0  0
  -22.3653  -10.9646   19.6150 H   0  0  0  0  0  0
  -21.1997   -7.6147   23.9718 H   0  0  0  0  0  0
  -21.1490   -6.0516   25.9089 H   0  0  0  0  0  0
  -22.0600   -2.7600   23.2839 H   0  0  0  0  0  0
  -22.4077  -11.9883   22.4864 H   0  0  0  0  0  0
  -21.1085  -13.1248   22.2634 H   0  0  0  0  0  0
  -24.6733  -15.8509   20.5699 H   0  0  0  0  0  0
  -26.2824  -15.6317   20.1074 H   0  0  0  0  0  0
  -26.7210  -32.5405   23.1054 H   0  0  0  0  0  0
  -25.0126  -33.9667   25.0426 H   0  0  0  0  0  0
  -22.7211  -31.3057   21.4051 H   0  0  0  0  0  0
  -23.3748  -35.9637   23.3273 H   0  0  0  0  0  0
  -24.3597  -36.8950   22.2058 H   0  0  0  0  0  0
  -23.7242  -37.6495   23.6672 H   0  0  0  0  0  0
  -26.0963  -31.5212   20.5897 H   0  0  0  0  0  0
  -26.8536  -30.8297   21.9953 H   0  0  0  0  0  0
  -28.1077  -28.9210   21.2143 H   0  0  0  0  0  0
  -25.8926  -25.9363   18.9803 H   0  0  0  0  0  0
  -23.9520  -27.3199   19.0065 H   0  0  0  0  0  0
  -23.7625  -30.5963   19.4047 H   0  0  0  0  0  0
  -22.7536  -29.2559   19.8589 H   0  0  0  0  0  0
  -25.1285  -36.1911   25.0815 H   0  0  0  0  0  0
  -20.9980  -28.3270   24.1401 H   0  0  0  0  0  0
  -20.5664  -26.2307   23.3616 H   0  0  0  0  0  0
  -21.6653  -26.7429   22.1225 H   0  0  0  0  0  0
  -19.6929  -25.6290   21.1248 H   0  0  0  0  0  0
  -19.6716  -27.3183   20.6727 H   0  0  0  0  0  0
  -17.4217  -26.6677   21.4003 H   0  0  0  0  0  0
  -18.0339  -26.0076   22.9005 H   0  0  0  0  0  0
  -19.7940  -30.7276   24.2248 H   0  0  0  0  0  0
  -17.5018  -31.6263   24.5168 H   0  0  0  0  0  0
  -15.5353  -30.2974   23.7663 H   0  0  0  0  0  0
  -15.8686  -28.0821   22.7045 H   0  0  0  0  0  0
  -24.5907  -30.7126   25.7827 H   0  0  0  0  0  0
  -24.9008  -32.2934   26.4907 H   0  0  0  0  0  0
  -25.8110  -30.8921   27.0229 H   0  0  0  0  0  0
  -26.2852  -29.6739   24.1238 H   0  0  0  0  0  0
  -27.4062  -29.7239   25.4645 H   0  0  0  0  0  0
  -27.8723  -30.4240   23.9327 H   0  0  0  0  0  0
  -27.2766  -33.3594   26.2026 H   0  0  0  0  0  0
  -28.3924  -32.6799   25.0265 H   0  0  0  0  0  0
  -28.0782  -31.8392   26.5364 H   0  0  0  0  0  0
  -28.2605  -38.0086   24.7494 H   0  0  0  0  0  0
  -28.1073  -36.2617   24.6276 H   0  0  0  0  0  0
  -27.2323  -37.1451   25.8871 H   0  0  0  0  0  0
  -20.9388  -29.8798   21.6904 H   0  0  0  0  0  0
  -26.0169  -38.2844   24.1423 H   0  0  0  0  0  0
  -30.2975  -20.4624   17.9784 H   0  0  0  0  0  0
  -30.3341  -16.1989   18.0685 H   0  0  0  0  0  0
  -30.0960  -24.9841   18.6027 H   0  0  0  0  0  0
  -30.9742  -23.5304   19.0286 H   0  0  0  0  0  0
  -29.8889  -22.6907   17.0996 H   0  0  0  0  0  0
  -28.5021  -23.7504   17.2980 H   0  0  0  0  0  0
  -29.7742  -23.8777   21.0606 H   0  0  0  0  0  0
  -27.7104  -22.0865   20.4942 H   0  0  0  0  0  0
  -31.1286  -19.2189   16.0842 H   0  0  0  0  0  0
  -29.6384  -18.3153   15.8178 H   0  0  0  0  0  0
  -31.1603  -17.4553   16.0793 H   0  0  0  0  0  0
  -30.6516  -21.3902   20.6378 H   0  0  0  0  0  0
  -29.3566  -20.8375   21.6273 H   0  0  0  0  0  0
  -27.3915  -24.7259   21.0961 H   0  0  0  0  0  0
  -27.3719  -24.6465   19.3672 H   0  0  0  0  0  0
  -28.9863  -15.6608   21.1265 H   0  0  0  0  0  0
  -28.7527  -21.1560   18.2593 H   0  0  0  0  0  0
  -27.4845  -22.1705   18.3524 H   0  0  0  0  0  0
  1 25  1  0  0  0
  1 30  2  0  0  0
  1 84  1  0  0  0
  2  3  1  0  0  0
  2 25  1  0  0  0
  2 86  1  0  0  0
  2 87  1  0  0  0
  3  4  1  0  0  0
  3 88  1  0  0  0
  3 89  1  0  0  0
  4  5  1  0  0  0
  4 90  1  0  0  0
  4 91  1  0  0  0
  5  6  1  0  0  0
  5 26  1  0  0  0
  5 92  1  0  0  0
  6 25  1  0  0  0
  6 93  1  0  0  0
  6 94  1  0  0  0
  7  8  2  0  0  0
  7 26  1  0  0  0
  7 29  1  0  0  0
  8  9  1  0  0  0
  8 22  1  0  0  0
  9 10  1  0  0  0
  9 27  2  0  0  0
 10 11  2  0  0  0
 10 15  1  0  0  0
 11 12  1  0  0  0
 11 95  1  0  0  0
 12 13  2  0  0  0
 12 96  1  0  0  0
 13 14  1  0  0  0
 13 31  1  0  0  0
 14 15  2  0  0  0
 14 97  1  0  0  0
 15 98  1  0  0  0
 16 17  2  0  0  0
 16 21  1  0  0  0
 16 31  1  0  0  0
 17 18  1  0  0  0
 17 99  1  0  0  0
 18 19  2  0  0  0
 18100  1  0  0  0
 19 20  1  0  0  0
 19 24  1  0  0  0
 20 21  2  0  0  0
 20101  1  0  0  0
 21 23  1  0  0  0
 22 28  1  0  0  0
 22 32  2  0  0  0
 26 27  1  0  0  0
 28102  1  0  0  0
 28103  1  0  0  0
 29104  1  0  0  0
 29105  1  0  0  0
 33 34  1  0  0  0
 33 66  1  0  0  0
 33 70  2  0  0  0
 34 36  1  0  0  0
 34 59  1  0  0  0
 34106  1  0  0  0
 35 44  2  0  0  0
 35 45  1  0  0  0
 35 68  1  0  0  0
 36 56  1  0  0  0
 36107  1  0  0  0
 37 39  1  0  0  0
 37 47  1  0  0  0
 37 66  1  0  0  0
 37108  1  0  0  0
 38 43  2  0  0  0
 38 46  1  0  0  0
 38 47  1  0  0  0
 39 64  1  0  0  0
 39 67  2  0  0  0
 40 52  1  0  0  0
 40 53  2  0  0  0
 40 58  1  0  0  0
 41109  1  0  0  0
 41110  1  0  0  0
 41111  1  0  0  0
 41 48  1  0  0  0
 42 43  1  0  0  0
 42 66  1  0  0  0
 42112  1  0  0  0
 42113  1  0  0  0
 43 44  1  0  0  0
 44114  1  0  0  0
 45 46  2  0  0  0
 45115  1  0  0  0
 46116  1  0  0  0
 47117  1  0  0  0
 47118  1  0  0  0
 48 56  1  0  0  0
 48 65  1  0  0  0
 48119  1  0  0  0
 49 50  1  0  0  0
 49 53  1  0  0  0
 49 64  1  0  0  0
 49120  1  0  0  0
 50 51  1  0  0  0
 50121  1  0  0  0
 50122  1  0  0  0
 51 52  1  0  0  0
 51123  1  0  0  0
 51124  1  0  0  0
 52125  1  0  0  0
 52126  1  0  0  0
 53 54  1  0  0  0
 54 55  2  0  0  0
 54127  1  0  0  0
 55 57  1  0  0  0
 55128  1  0  0  0
 56 69  2  0  0  0
 57 58  2  0  0  0
 57129  1  0  0  0
 58130  1  0  0  0
 59 60  1  0  0  0
 59 61  1  0  0  0
 59 62  1  0  0  0
 60131  1  0  0  0
 60132  1  0  0  0
 60133  1  0  0  0
 61134  1  0  0  0
 61135  1  0  0  0
 61136  1  0  0  0
 62137  1  0  0  0
 62138  1  0  0  0
 62139  1  0  0  0
 63 65  1  0  0  0
 63140  1  0  0  0
 63141  1  0  0  0
 63142  1  0  0  0
 64143  1  0  0  0
 65144  1  0  0  0
 68 82  1  0  0  0
 71 73  2  0  0  0
 71 74  1  0  0  0
 71145  1  0  0  0
 72 73  1  0  0  0
 72 75  2  0  0  0
 72146  1  0  0  0
 73 80  1  0  0  0
 74 81  1  0  0  0
 74 83  2  0  0  0
 75 83  1  0  0  0
 75 84  1  0  0  0
 76 77  1  0  0  0
 76 78  1  0  0  0
 76147  1  0  0  0
 76148  1  0  0  0
 77 85  1  0  0  0
 77149  1  0  0  0
 77150  1  0  0  0
 78 79  1  0  0  0
 78 82  1  0  0  0
 78151  1  0  0  0
 79 81  1  0  0  0
 79 85  1  0  0  0
 79152  1  0  0  0
 80153  1  0  0  0
 80154  1  0  0  0
 80155  1  0  0  0
 81156  1  0  0  0
 81157  1  0  0  0
 82158  1  0  0  0
 82159  1  0  0  0
 84160  1  0  0  0
 85161  1  0  0  0
 85162  1  0  0  0
M  CHG  1  85   1
M  ISO  4   1 100  68 101  82 101  84 100
M  END
> <chiral flag>
0

> <version>
0

> <s_m_source_file>
/data/baiqing/PycharmProjects/Reinvent-master-3.2/result/LINK_invent/BTK/process_docking_weight1_custom_sum_contain_oxygen_bond_distance_aromatic_linkinvent_7_9_3/rearranged_h_0130.sdf

> <i_m_source_file_index>
37

> <r_mmod_Potential_Energy-OPLS-2005>
-34.3499488830566

> <r_mmod_Stretch_Energy-OPLS-2005>
119.100738525391

> <r_mmod_Bend_Energy-OPLS-2005>
181.913940429688

> <r_mmod_Torsional_Energy-OPLS-2005>
338.767669677734

> <r_mmod_Improper_Torsional_Energy-OPLS-2005>
5.10413885116577

> <r_mmod_Van_der_Waal_Energy-OPLS-2005>
144.066177368164

> <r_mmod_Electrostatic_Energy-OPLS-2005>
-406.459686279297

> <r_mmod_Solvation_Energy-OPLS-2005>
-492.940948486328

> <b_mmod_Minimization_Converged-OPLS-2005>
0

> <r_mmod_RMS_Derivative-OPLS-2005>
2.68631720542908

$$$$
37
                    3D
 Structure written by MMmdl.
146154  0  0  1  0            999 V2000
  -30.4237  -15.2103   20.3779 C   0  0  0  0  0  0
  -30.4492  -12.7664   19.5199 C   0  0  0  0  0  0
  -29.5375  -12.5706   18.2815 C   0  0  0  0  0  0
  -28.0812  -12.3043   18.7053 C   0  0  0  0  0  0
  -27.6186  -13.2659   19.8282 C   0  0  2  0  0  0
  -28.6554  -13.3951   20.9643 C   0  0  0  0  0  0
  -25.2418  -13.8231   20.5726 C   0  0  0  0  0  0
  -24.1761  -13.0434   20.9255 C   0  0  0  0  0  0
  -24.6403  -11.6927   20.8761 C   0  0  0  0  0  0
  -23.9092  -10.4291   21.0408 C   0  0  0  0  0  0
  -24.3635   -9.4204   21.9186 C   0  0  0  0  0  0
  -23.6303   -8.2242   22.0755 C   0  0  0  0  0  0
  -22.4284   -8.0283   21.3545 C   0  0  0  0  0  0
  -21.9926   -9.0259   20.4646 C   0  0  0  0  0  0
  -22.7262  -10.2134   20.3056 C   0  0  0  0  0  0
  -21.6855   -6.0738   22.5279 C   0  0  0  0  0  0
  -21.4016   -6.5641   23.8212 C   0  0  0  0  0  0
  -21.3660   -5.6793   24.9174 C   0  0  0  0  0  0
  -21.6044   -4.3056   24.7224 C   0  0  0  0  0  0
  -21.8819   -3.8148   23.4345 C   0  0  0  0  0  0
  -21.9193   -4.6965   22.3402 C   0  0  0  0  0  0
  -22.7779  -13.5193   21.1901 C   0  0  0  0  0  0
  -22.1662   -4.2151   21.0979 F   0  0  0  0  0  0
  -21.5628   -3.4539   25.7737 F   0  0  0  0  0  0
  -29.8966  -13.8932   20.3497 N   0  0  0  0  0  0
  -26.2844  -12.9489   20.3215 N   0  0  0  0  0  0
  -25.9338  -11.6604   20.5720 N   0  0  0  0  0  0
  -22.0432  -12.8177   22.0454 N   0  0  0  0  0  0
  -25.4044  -15.1964   20.4130 N   0  0  0  0  0  0
  -31.6397  -15.2684   20.1432 O   0  0  0  0  0  0
  -21.6644   -6.8883   21.4242 O   0  0  0  0  0  0
  -22.3460  -14.5495   20.6740 O   0  0  0  0  0  0
  -24.6598  -31.8268   23.1727 C   0  0  0  0  0  0
  -25.9293  -32.4605   23.8182 C   0  0  1  0  0  0
  -27.2219  -26.9630   20.1811 C   0  0  0  0  0  0
  -25.5972  -33.8417   24.2090 N   0  0  0  0  0  0
  -23.4729  -30.4389   21.5215 C   0  0  2  0  0  0
  -24.9265  -28.8306   20.1135 C   0  0  0  0  0  0
  -22.7651  -29.4457   22.4795 C   0  0  0  0  0  0
  -18.0319  -28.1407   22.8468 C   0  0  0  0  0  0
  -24.1493  -36.7215   23.2647 C   0  0  0  0  0  0
  -26.0400  -30.6452   21.3971 C   0  0  0  0  0  0
  -26.1097  -29.2380   20.7422 C   0  0  0  0  0  0
  -27.2540  -28.3255   20.7497 C   0  0  0  0  0  0
  -26.0085  -26.6971   19.5084 C   0  0  0  0  0  0
  -24.8990  -27.5796   19.4768 C   0  0  0  0  0  0
  -23.7109  -29.7546   20.1475 C   0  0  0  0  0  0
  -25.4133  -36.2977   24.0301 C   0  0  1  0  0  0
  -20.5942  -28.3749   23.1196 C   0  0  2  0  0  0
  -20.6797  -26.9433   22.5403 C   0  0  0  0  0  0
  -19.5771  -26.6378   21.5214 C   0  0  0  0  0  0
  -18.1953  -26.7941   22.1622 C   0  0  0  0  0  0
  -19.1580  -28.8898   23.2820 C   0  0  0  0  0  0
  -18.9491  -30.1489   23.8854 C   0  0  0  0  0  0
  -17.6484  -30.6597   24.0556 C   0  0  0  0  0  0
  -25.9096  -34.9359   23.5016 C   0  0  0  0  0  0
  -16.5375  -29.9085   23.6342 C   0  0  0  0  0  0
  -16.7302  -28.6505   23.0361 C   0  0  0  0  0  0
  -26.4555  -31.6539   25.0699 C   0  0  0  0  0  0
  -25.3689  -31.3780   26.1360 C   0  0  0  0  0  0
  -27.0449  -30.2911   24.6409 C   0  0  0  0  0  0
  -27.6049  -32.4345   25.7501 C   0  0  0  0  0  0
  -27.5571  -37.1764   24.8465 C   0  0  0  0  0  0
  -21.4324  -29.3043   22.3547 N   0  0  0  0  0  0
  -26.4280  -37.3710   23.9408 N   0  0  0  0  0  0
  -24.7453  -30.9963   22.0845 N   0  0  0  0  0  0
  -23.4213  -28.8026   23.3026 O   0  0  0  0  0  0
  -28.2364  -25.8815   20.2476 O   0  0  0  0  0  0
  -26.5704  -34.8889   22.4611 O   0  0  0  0  0  0
  -23.5675  -32.1221   23.6842 O   0  0  0  0  0  0
  -28.0982  -20.2732   20.4019 C   0  0  0  0  0  0
  -30.3748  -20.4923   20.2664 C   0  0  0  0  0  0
  -28.2778  -18.7943   20.4465 C   0  0  0  0  0  0
  -30.5592  -19.0153   20.3028 C   0  0  0  0  0  0
  -29.1396  -21.2859   20.3084 C   0  0  0  0  0  0
  -29.5157  -18.0107   20.4023 C   0  0  0  0  0  0
  -29.1286  -23.0064   20.3033 C   0  0  0  0  0  0
  -27.9498  -24.2677   20.1700 C   0  0  0  0  0  0
  -29.5623  -16.4001   20.4809 N   0  0  0  0  0  0
  -30.2603  -23.4914   20.4078 O   0  0  0  0  0  0
  -31.4681  -12.9771   19.1921 H   0  0  0  0  0  0
  -30.5124  -11.8476   20.1054 H   0  0  0  0  0  0
  -29.9053  -11.7506   17.6633 H   0  0  0  0  0  0
  -29.5768  -13.4656   17.6588 H   0  0  0  0  0  0
  -28.0246  -11.2745   19.0601 H   0  0  0  0  0  0
  -27.4141  -12.3687   17.8449 H   0  0  0  0  0  0
  -27.5472  -14.2435   19.3504 H   0  0  0  0  0  0
  -28.8085  -12.4431   21.4747 H   0  0  0  0  0  0
  -28.3064  -14.0991   21.7214 H   0  0  0  0  0  0
  -25.2777   -9.5678   22.4766 H   0  0  0  0  0  0
  -24.0008   -7.4633   22.7476 H   0  0  0  0  0  0
  -21.0857   -8.8783   19.8952 H   0  0  0  0  0  0
  -22.3721  -10.9675   19.6168 H   0  0  0  0  0  0
  -21.2010   -7.6149   23.9716 H   0  0  0  0  0  0
  -21.1482   -6.0523   25.9077 H   0  0  0  0  0  0
  -22.0597   -2.7610   23.2845 H   0  0  0  0  0  0
  -22.4063  -11.9846   22.4846 H   0  0  0  0  0  0
  -21.1044  -13.1185   22.2654 H   0  0  0  0  0  0
  -24.6252  -15.8382   20.5124 H   0  0  0  0  0  0
  -26.2251  -15.6324   20.0152 H   0  0  0  0  0  0
  -26.7362  -32.5155   23.0900 H   0  0  0  0  0  0
  -25.0068  -33.9500   25.0205 H   0  0  0  0  0  0
  -22.7845  -31.2694   21.3522 H   0  0  0  0  0  0
  -23.3767  -35.9533   23.3278 H   0  0  0  0  0  0
  -24.3571  -36.8891   22.2067 H   0  0  0  0  0  0
  -23.7238  -37.6390   23.6721 H   0  0  0  0  0  0
  -26.2151  -31.3884   20.6181 H   0  0  0  0  0  0
  -26.9019  -30.7022   22.0501 H   0  0  0  0  0  0
  -28.1519  -28.6366   21.2650 H   0  0  0  0  0  0
  -25.8859  -25.7413   19.0207 H   0  0  0  0  0  0
  -23.9991  -27.2617   18.9683 H   0  0  0  0  0  0
  -23.8636  -30.5229   19.3888 H   0  0  0  0  0  0
  -22.8215  -29.2066   19.8315 H   0  0  0  0  0  0
  -25.1330  -36.1777   25.0792 H   0  0  0  0  0  0
  -21.0030  -28.3354   24.1319 H   0  0  0  0  0  0
  -20.5678  -26.2367   23.3641 H   0  0  0  0  0  0
  -21.6661  -26.7413   22.1210 H   0  0  0  0  0  0
  -19.6930  -25.6277   21.1273 H   0  0  0  0  0  0
  -19.6710  -27.3163   20.6724 H   0  0  0  0  0  0
  -17.4222  -26.6683   21.4026 H   0  0  0  0  0  0
  -18.0349  -26.0093   22.9029 H   0  0  0  0  0  0
  -19.7966  -30.7317   24.2204 H   0  0  0  0  0  0
  -17.5036  -31.6272   24.5166 H   0  0  0  0  0  0
  -15.5373  -30.2972   23.7692 H   0  0  0  0  0  0
  -15.8703  -28.0809   22.7101 H   0  0  0  0  0  0
  -24.5886  -30.7113   25.7671 H   0  0  0  0  0  0
  -24.8862  -32.2978   26.4671 H   0  0  0  0  0  0
  -25.7928  -30.9025   27.0214 H   0  0  0  0  0  0
  -26.3110  -29.6590   24.1397 H   0  0  0  0  0  0
  -27.3974  -29.7269   25.5054 H   0  0  0  0  0  0
  -27.9052  -30.4101   23.9821 H   0  0  0  0  0  0
  -27.2617  -33.3685   26.1962 H   0  0  0  0  0  0
  -28.3922  -32.6842   25.0376 H   0  0  0  0  0  0
  -28.0649  -31.8549   26.5516 H   0  0  0  0  0  0
  -28.2569  -38.0078   24.7516 H   0  0  0  0  0  0
  -28.1087  -36.2605   24.6288 H   0  0  0  0  0  0
  -27.2288  -37.1401   25.8867 H   0  0  0  0  0  0
  -20.9573  -29.8732   21.6678 H   0  0  0  0  0  0
  -26.0130  -38.2769   24.1418 H   0  0  0  0  0  0
  -27.0813  -20.6361   20.4576 H   0  0  0  0  0  0
  -31.2898  -21.0650   20.2034 H   0  0  0  0  0  0
  -27.3628  -18.2244   20.5268 H   0  0  0  0  0  0
  -31.5773  -18.6537   20.2610 H   0  0  0  0  0  0
  -27.1997  -24.0541   20.9311 H   0  0  0  0  0  0
  -27.4478  -24.0902   19.2195 H   0  0  0  0  0  0
  -28.6297  -16.0464   20.6299 H   0  0  0  0  0  0
  1 25  1  0  0  0
  1 30  2  0  0  0
  1 79  1  0  0  0
  2  3  1  0  0  0
  2 25  1  0  0  0
  2 81  1  0  0  0
  2 82  1  0  0  0
  3  4  1  0  0  0
  3 83  1  0  0  0
  3 84  1  0  0  0
  4  5  1  0  0  0
  4 85  1  0  0  0
  4 86  1  0  0  0
  5  6  1  0  0  0
  5 26  1  0  0  0
  5 87  1  0  0  0
  6 25  1  0  0  0
  6 88  1  0  0  0
  6 89  1  0  0  0
  7  8  2  0  0  0
  7 26  1  0  0  0
  7 29  1  0  0  0
  8  9  1  0  0  0
  8 22  1  0  0  0
  9 10  1  0  0  0
  9 27  2  0  0  0
 10 11  2  0  0  0
 10 15  1  0  0  0
 11 12  1  0  0  0
 11 90  1  0  0  0
 12 13  2  0  0  0
 12 91  1  0  0  0
 13 14  1  0  0  0
 13 31  1  0  0  0
 14 15  2  0  0  0
 14 92  1  0  0  0
 15 93  1  0  0  0
 16 17  2  0  0  0
 16 21  1  0  0  0
 16 31  1  0  0  0
 17 18  1  0  0  0
 17 94  1  0  0  0
 18 19  2  0  0  0
 18 95  1  0  0  0
 19 20  1  0  0  0
 19 24  1  0  0  0
 20 21  2  0  0  0
 20 96  1  0  0  0
 21 23  1  0  0  0
 22 28  1  0  0  0
 22 32  2  0  0  0
 26 27  1  0  0  0
 28 97  1  0  0  0
 28 98  1  0  0  0
 29 99  1  0  0  0
 29100  1  0  0  0
 33 34  1  0  0  0
 33 66  1  0  0  0
 33 70  2  0  0  0
 34 36  1  0  0  0
 34 59  1  0  0  0
 34101  1  0  0  0
 35 44  2  0  0  0
 35 45  1  0  0  0
 35 68  1  0  0  0
 36 56  1  0  0  0
 36102  1  0  0  0
 37 39  1  0  0  0
 37 47  1  0  0  0
 37 66  1  0  0  0
 37103  1  0  0  0
 38 43  2  0  0  0
 38 46  1  0  0  0
 38 47  1  0  0  0
 39 64  1  0  0  0
 39 67  2  0  0  0
 40 52  1  0  0  0
 40 53  2  0  0  0
 40 58  1  0  0  0
 41104  1  0  0  0
 41105  1  0  0  0
 41106  1  0  0  0
 41 48  1  0  0  0
 42 43  1  0  0  0
 42 66  1  0  0  0
 42107  1  0  0  0
 42108  1  0  0  0
 43 44  1  0  0  0
 44109  1  0  0  0
 45 46  2  0  0  0
 45110  1  0  0  0
 46111  1  0  0  0
 47112  1  0  0  0
 47113  1  0  0  0
 48 56  1  0  0  0
 48 65  1  0  0  0
 48114  1  0  0  0
 49 50  1  0  0  0
 49 53  1  0  0  0
 49 64  1  0  0  0
 49115  1  0  0  0
 50 51  1  0  0  0
 50116  1  0  0  0
 50117  1  0  0  0
 51 52  1  0  0  0
 51118  1  0  0  0
 51119  1  0  0  0
 52120  1  0  0  0
 52121  1  0  0  0
 53 54  1  0  0  0
 54 55  2  0  0  0
 54122  1  0  0  0
 55 57  1  0  0  0
 55123  1  0  0  0
 56 69  2  0  0  0
 57 58  2  0  0  0
 57124  1  0  0  0
 58125  1  0  0  0
 59 60  1  0  0  0
 59 61  1  0  0  0
 59 62  1  0  0  0
 60126  1  0  0  0
 60127  1  0  0  0
 60128  1  0  0  0
 61129  1  0  0  0
 61130  1  0  0  0
 61131  1  0  0  0
 62132  1  0  0  0
 62133  1  0  0  0
 62134  1  0  0  0
 63 65  1  0  0  0
 63135  1  0  0  0
 63136  1  0  0  0
 63137  1  0  0  0
 64138  1  0  0  0
 65139  1  0  0  0
 68 78  1  0  0  0
 71 73  2  0  0  0
 71 75  1  0  0  0
 71140  1  0  0  0
 72 74  1  0  0  0
 72 75  2  0  0  0
 72141  1  0  0  0
 73 76  1  0  0  0
 73142  1  0  0  0
 74 76  2  0  0  0
 74143  1  0  0  0
 75 77  1  0  0  0
 76 79  1  0  0  0
 77 78  1  0  0  0
 77 80  2  0  0  0
 78144  1  0  0  0
 78145  1  0  0  0
 79146  1  0  0  0
M  ISO  4   1 100  68 101  78 101  79 100
M  END
> <chiral flag>
0

> <version>
0

> <s_m_source_file>
/data/baiqing/PycharmProjects/Reinvent-master-3.2/result/LINK_invent/BTK/process_docking_weight1_custom_sum_contain_oxygen_bond_distance_aromatic_linkinvent_7_9_3/rearranged_h_0130.sdf

> <i_m_source_file_index>
38

> <r_mmod_Potential_Energy-OPLS-2005>
1120.62219238281

> <r_mmod_Stretch_Energy-OPLS-2005>
477.471282958984

> <r_mmod_Bend_Energy-OPLS-2005>
414.132690429688

> <r_mmod_Torsional_Energy-OPLS-2005>
232.779296875

> <r_mmod_Improper_Torsional_Energy-OPLS-2005>
4.21722650527954

> <r_mmod_Van_der_Waal_Energy-OPLS-2005>
127.317398071289

> <r_mmod_Electrostatic_Energy-OPLS-2005>
-306.6318359375

> <r_mmod_Solvation_Energy-OPLS-2005>
-234.326766967773

> <b_mmod_Minimization_Converged-OPLS-2005>
1

> <r_mmod_RMS_Derivative-OPLS-2005>
0.0303502939641476

$$$$
38
                    3D
 Structure written by MMmdl.
178187  0  0  1  0            999 V2000
  -30.6441  -14.5834   20.5105 C   0  0  0  0  0  0
  -30.4357  -12.3577   19.4426 C   0  0  0  0  0  0
  -29.5040  -12.4922   18.2177 C   0  0  0  0  0  0
  -28.0246  -12.3448   18.6295 C   0  0  0  0  0  0
  -27.6561  -13.2089   19.8650 C   0  0  2  0  0  0
  -28.7015  -13.0435   20.9916 C   0  0  0  0  0  0
  -25.2578  -13.8159   20.5681 C   0  0  0  0  0  0
  -24.1834  -13.0429   20.9193 C   0  0  0  0  0  0
  -24.6390  -11.6902   20.8741 C   0  0  0  0  0  0
  -23.9055  -10.4293   21.0410 C   0  0  0  0  0  0
  -24.3612   -9.4212   21.9182 C   0  0  0  0  0  0
  -23.6293   -8.2246   22.0748 C   0  0  0  0  0  0
  -22.4273   -8.0283   21.3547 C   0  0  0  0  0  0
  -21.9910   -9.0254   20.4646 C   0  0  0  0  0  0
  -22.7230  -10.2137   20.3054 C   0  0  0  0  0  0
  -21.6853   -6.0741   22.5282 C   0  0  0  0  0  0
  -21.4015   -6.5645   23.8218 C   0  0  0  0  0  0
  -21.3657   -5.6794   24.9179 C   0  0  0  0  0  0
  -21.6042   -4.3055   24.7226 C   0  0  0  0  0  0
  -21.8822   -3.8152   23.4346 C   0  0  0  0  0  0
  -21.9194   -4.6971   22.3405 C   0  0  0  0  0  0
  -22.7864  -13.5235   21.1858 C   0  0  0  0  0  0
  -22.1663   -4.2161   21.0979 F   0  0  0  0  0  0
  -21.5629   -3.4534   25.7737 F   0  0  0  0  0  0
  -30.0212  -13.3704   20.4299 N   0  0  0  0  0  0
  -26.3002  -12.9324   20.3330 N   0  0  0  0  0  0
  -25.9318  -11.6487   20.5766 N   0  0  0  0  0  0
  -22.0505  -12.8220   22.0414 N   0  0  0  0  0  0
  -25.4273  -15.1881   20.4087 N   0  0  0  0  0  0
  -31.8067  -14.7492   20.1330 O   0  0  0  0  0  0
  -21.6638   -6.8881   21.4242 O   0  0  0  0  0  0
  -22.3555  -14.5543   20.6711 O   0  0  0  0  0  0
  -24.6222  -31.8623   23.2040 C   0  0  0  0  0  0
  -25.9085  -32.4797   23.8362 C   0  0  1  0  0  0
  -27.2347  -27.3589   20.1180 C   0  0  0  0  0  0
  -25.5911  -33.8593   24.2281 N   0  0  0  0  0  0
  -23.4143  -30.4864   21.5456 C   0  0  2  0  0  0
  -24.8624  -28.9426   20.1128 C   0  0  0  0  0  0
  -22.7459  -29.4639   22.4949 C   0  0  0  0  0  0
  -18.0283  -28.1396   22.8487 C   0  0  0  0  0  0
  -24.1487  -36.7303   23.2643 C   0  0  0  0  0  0
  -25.9508  -30.8078   21.3666 C   0  0  0  0  0  0
  -26.0279  -29.4367   20.7119 C   0  0  0  0  0  0
  -27.2166  -28.6570   20.7032 C   0  0  0  0  0  0
  -26.0463  -26.9037   19.5015 C   0  0  0  0  0  0
  -24.8718  -27.6795   19.4997 C   0  0  0  0  0  0
  -23.6286  -29.8195   20.1605 C   0  0  0  0  0  0
  -25.4109  -36.3092   24.0336 C   0  0  1  0  0  0
  -20.5880  -28.3686   23.1304 C   0  0  2  0  0  0
  -20.6773  -26.9415   22.5418 C   0  0  0  0  0  0
  -19.5746  -26.6388   21.5221 C   0  0  0  0  0  0
  -18.1927  -26.7937   22.1630 C   0  0  0  0  0  0
  -19.1536  -28.8853   23.2890 C   0  0  0  0  0  0
  -18.9465  -30.1460   23.8899 C   0  0  0  0  0  0
  -17.6467  -30.6595   24.0571 C   0  0  0  0  0  0
  -25.9044  -34.9461   23.5104 C   0  0  0  0  0  0
  -16.5357  -29.9100   23.6334 C   0  0  0  0  0  0
  -16.7271  -28.6524   23.0342 C   0  0  0  0  0  0
  -26.4484  -31.6597   25.0715 C   0  0  0  0  0  0
  -25.3730  -31.3731   26.1454 C   0  0  0  0  0  0
  -27.0324  -30.3033   24.6121 C   0  0  0  0  0  0
  -27.6044  -32.4330   25.7480 C   0  0  0  0  0  0
  -27.5578  -37.1805   24.8469 C   0  0  0  0  0  0
  -21.4175  -29.3045   22.3702 N   0  0  0  0  0  0
  -26.4287  -37.3784   23.9412 N   0  0  0  0  0  0
  -24.6814  -31.0677   22.0964 N   0  0  0  0  0  0
  -23.4202  -28.8176   23.3014 O   0  0  0  0  0  0
  -28.3789  -26.5588   20.1630 O   0  0  0  0  0  0
  -26.5621  -34.8924   22.4673 O   0  0  0  0  0  0
  -23.5398  -32.1406   23.7392 O   0  0  0  0  0  0
  -29.0053  -17.2457   16.9507 C   0  0  0  0  0  0
  -29.3000  -16.8406   18.2569 C   0  0  0  0  0  0
  -29.1027  -18.6033   16.6494 C   0  0  0  0  0  0
  -29.4161  -19.5468   17.6299 C   0  0  0  0  0  0
  -29.6309  -17.7584   19.2924 C   0  0  0  0  0  0
  -29.6011  -19.1910   19.0085 C   0  0  0  0  0  0
  -29.5469  -20.8983   16.9494 C   0  0  0  0  0  0
  -29.5186  -20.6057   15.4401 C   0  0  0  0  0  0
  -28.8860  -19.2150   15.2839 C   0  0  1  0  0  0
  -29.9812  -18.1863   11.6407 C   0  0  0  0  0  0
  -27.8486  -19.3292   12.3306 C   0  0  0  0  0  0
  -29.7290  -20.2923   20.1285 C   0  0  0  0  0  0
  -30.0597  -17.1117   20.6455 C   0  0  0  0  0  0
  -29.4506  -18.3888   14.1079 C   0  0  0  0  0  0
  -29.3787  -21.8117   19.7850 C   0  0  0  0  0  0
  -29.4920  -24.2839   20.5700 C   0  0  0  0  0  0
  -28.2070  -25.0997   20.1704 C   0  0  0  0  0  0
  -29.3101  -19.0505   12.7180 C   0  0  0  0  0  0
  -29.8343  -15.6359   20.8083 N   0  0  0  0  0  0
  -29.3399  -22.8095   20.9071 N   0  3  0  0  0  0
  -31.4776  -12.4778   19.1389 H   0  0  0  0  0  0
  -30.3632  -11.3588   19.8759 H   0  0  0  0  0  0
  -29.7575  -11.7400   17.4692 H   0  0  0  0  0  0
  -29.6580  -13.4600   17.7395 H   0  0  0  0  0  0
  -27.8483  -11.2911   18.8497 H   0  0  0  0  0  0
  -27.3726  -12.5903   17.7900 H   0  0  0  0  0  0
  -27.6793  -14.2471   19.5334 H   0  0  0  0  0  0
  -28.7036  -12.0181   21.3645 H   0  0  0  0  0  0
  -28.4580  -13.6702   21.8509 H   0  0  0  0  0  0
  -25.2760   -9.5694   22.4750 H   0  0  0  0  0  0
  -24.0015   -7.4638   22.7458 H   0  0  0  0  0  0
  -21.0846   -8.8757   19.8950 H   0  0  0  0  0  0
  -22.3679  -10.9670   19.6161 H   0  0  0  0  0  0
  -21.2003   -7.6152   23.9726 H   0  0  0  0  0  0
  -21.1477   -6.0521   25.9083 H   0  0  0  0  0  0
  -22.0601   -2.7613   23.2837 H   0  0  0  0  0  0
  -22.4113  -11.9872   22.4790 H   0  0  0  0  0  0
  -21.1121  -13.1248   22.2622 H   0  0  0  0  0  0
  -24.6542  -15.8351   20.5179 H   0  0  0  0  0  0
  -26.2655  -15.6308   20.0540 H   0  0  0  0  0  0
  -26.7155  -32.5484   23.1120 H   0  0  0  0  0  0
  -25.0061  -33.9737   25.0428 H   0  0  0  0  0  0
  -22.7057  -31.3047   21.4027 H   0  0  0  0  0  0
  -23.3748  -35.9638   23.3315 H   0  0  0  0  0  0
  -24.3580  -36.8906   22.2055 H   0  0  0  0  0  0
  -23.7236  -37.6508   23.6653 H   0  0  0  0  0  0
  -26.0710  -31.5710   20.5967 H   0  0  0  0  0  0
  -26.8353  -30.8608   21.9896 H   0  0  0  0  0  0
  -28.1116  -29.0346   21.1775 H   0  0  0  0  0  0
  -26.0013  -25.9395   19.0182 H   0  0  0  0  0  0
  -23.9788  -27.2925   19.0282 H   0  0  0  0  0  0
  -23.7489  -30.5961   19.4049 H   0  0  0  0  0  0
  -22.7490  -29.2493   19.8559 H   0  0  0  0  0  0
  -25.1285  -36.1951   25.0832 H   0  0  0  0  0  0
  -20.9968  -28.3260   24.1424 H   0  0  0  0  0  0
  -20.5688  -26.2295   23.3615 H   0  0  0  0  0  0
  -21.6645  -26.7459   22.1202 H   0  0  0  0  0  0
  -19.6913  -25.6298   21.1248 H   0  0  0  0  0  0
  -19.6687  -27.3205   20.6757 H   0  0  0  0  0  0
  -17.4199  -26.6688   21.4032 H   0  0  0  0  0  0
  -18.0325  -26.0080   22.9027 H   0  0  0  0  0  0
  -19.7944  -30.7279   24.2261 H   0  0  0  0  0  0
  -17.5027  -31.6271   24.5183 H   0  0  0  0  0  0
  -15.5360  -30.3007   23.7653 H   0  0  0  0  0  0
  -15.8673  -28.0854   22.7037 H   0  0  0  0  0  0
  -24.5895  -30.7083   25.7803 H   0  0  0  0  0  0
  -24.8938  -32.2899   26.4897 H   0  0  0  0  0  0
  -25.8073  -30.8906   27.0219 H   0  0  0  0  0  0
  -26.2885  -29.6786   24.1164 H   0  0  0  0  0  0
  -27.4080  -29.7277   25.4592 H   0  0  0  0  0  0
  -27.8721  -30.4353   23.9294 H   0  0  0  0  0  0
  -27.2656  -33.3629   26.2058 H   0  0  0  0  0  0
  -28.3855  -32.6891   25.0309 H   0  0  0  0  0  0
  -28.0711  -31.8455   26.5395 H   0  0  0  0  0  0
  -28.2602  -38.0098   24.7512 H   0  0  0  0  0  0
  -28.1063  -36.2627   24.6297 H   0  0  0  0  0  0
  -27.2298  -37.1463   25.8873 H   0  0  0  0  0  0
  -20.9349  -29.8786   21.6933 H   0  0  0  0  0  0
  -26.0176  -38.2861   24.1413 H   0  0  0  0  0  0
  -28.7583  -16.5158   16.1929 H   0  0  0  0  0  0
  -29.2796  -15.7768   18.4271 H   0  0  0  0  0  0
  -30.4853  -21.3940   17.1963 H   0  0  0  0  0  0
  -28.7019  -21.5393   17.1928 H   0  0  0  0  0  0
  -30.5526  -20.5601   15.0927 H   0  0  0  0  0  0
  -29.0209  -21.3807   14.8569 H   0  0  0  0  0  0
  -27.8062  -19.3246   15.1730 H   0  0  0  0  0  0
  -29.9597  -18.6810   10.6690 H   0  0  0  0  0  0
  -29.4786  -17.2240   11.5334 H   0  0  0  0  0  0
  -31.0260  -17.9901   11.8822 H   0  0  0  0  0  0
  -27.7899  -19.7848   11.3411 H   0  0  0  0  0  0
  -27.3680  -20.0195   13.0236 H   0  0  0  0  0  0
  -27.2591  -18.4115   12.3087 H   0  0  0  0  0  0
  -30.7439  -20.2429   20.5229 H   0  0  0  0  0  0
  -29.0801  -19.9793   20.9468 H   0  0  0  0  0  0
  -31.1178  -17.3239   20.8049 H   0  0  0  0  0  0
  -29.5282  -17.6149   21.4534 H   0  0  0  0  0  0
  -28.9625  -17.4140   14.0839 H   0  0  0  0  0  0
  -30.5071  -18.1927   14.3001 H   0  0  0  0  0  0
  -28.4058  -21.8664   19.2997 H   0  0  0  0  0  0
  -30.1317  -22.1959   19.1038 H   0  0  0  0  0  0
  -29.8878  -24.7512   21.4725 H   0  0  0  0  0  0
  -30.2666  -24.4174   19.8145 H   0  0  0  0  0  0
  -27.4054  -24.8505   20.8676 H   0  0  0  0  0  0
  -27.8857  -24.7685   19.1827 H   0  0  0  0  0  0
  -29.8368  -20.0059   12.7387 H   0  0  0  0  0  0
  -28.9050  -15.3758   21.0988 H   0  0  0  0  0  0
  -30.1191  -22.5849   21.5071 H   0  0  0  0  0  0
  -28.5090  -22.6641   21.4595 H   0  0  0  0  0  0
  1 25  1  0  0  0
  1 30  2  0  0  0
  1 89  1  0  0  0
  2  3  1  0  0  0
  2 25  1  0  0  0
  2 91  1  0  0  0
  2 92  1  0  0  0
  3  4  1  0  0  0
  3 93  1  0  0  0
  3 94  1  0  0  0
  4  5  1  0  0  0
  4 95  1  0  0  0
  4 96  1  0  0  0
  5  6  1  0  0  0
  5 26  1  0  0  0
  5 97  1  0  0  0
  6 25  1  0  0  0
  6 98  1  0  0  0
  6 99  1  0  0  0
  7  8  2  0  0  0
  7 26  1  0  0  0
  7 29  1  0  0  0
  8  9  1  0  0  0
  8 22  1  0  0  0
  9 10  1  0  0  0
  9 27  2  0  0  0
 10 11  2  0  0  0
 10 15  1  0  0  0
 11 12  1  0  0  0
 11100  1  0  0  0
 12 13  2  0  0  0
 12101  1  0  0  0
 13 14  1  0  0  0
 13 31  1  0  0  0
 14 15  2  0  0  0
 14102  1  0  0  0
 15103  1  0  0  0
 16 17  2  0  0  0
 16 21  1  0  0  0
 16 31  1  0  0  0
 17 18  1  0  0  0
 17104  1  0  0  0
 18 19  2  0  0  0
 18105  1  0  0  0
 19 20  1  0  0  0
 19 24  1  0  0  0
 20 21  2  0  0  0
 20106  1  0  0  0
 21 23  1  0  0  0
 22 28  1  0  0  0
 22 32  2  0  0  0
 26 27  1  0  0  0
 28107  1  0  0  0
 28108  1  0  0  0
 29109  1  0  0  0
 29110  1  0  0  0
 33 34  1  0  0  0
 33 66  1  0  0  0
 33 70  2  0  0  0
 34 36  1  0  0  0
 34 59  1  0  0  0
 34111  1  0  0  0
 35 44  2  0  0  0
 35 45  1  0  0  0
 35 68  1  0  0  0
 36 56  1  0  0  0
 36112  1  0  0  0
 37 39  1  0  0  0
 37 47  1  0  0  0
 37 66  1  0  0  0
 37113  1  0  0  0
 38 43  2  0  0  0
 38 46  1  0  0  0
 38 47  1  0  0  0
 39 64  1  0  0  0
 39 67  2  0  0  0
 40 52  1  0  0  0
 40 53  2  0  0  0
 40 58  1  0  0  0
 41114  1  0  0  0
 41115  1  0  0  0
 41116  1  0  0  0
 41 48  1  0  0  0
 42 43  1  0  0  0
 42 66  1  0  0  0
 42117  1  0  0  0
 42118  1  0  0  0
 43 44  1  0  0  0
 44119  1  0  0  0
 45 46  2  0  0  0
 45120  1  0  0  0
 46121  1  0  0  0
 47122  1  0  0  0
 47123  1  0  0  0
 48 56  1  0  0  0
 48 65  1  0  0  0
 48124  1  0  0  0
 49 50  1  0  0  0
 49 53  1  0  0  0
 49 64  1  0  0  0
 49125  1  0  0  0
 50 51  1  0  0  0
 50126  1  0  0  0
 50127  1  0  0  0
 51 52  1  0  0  0
 51128  1  0  0  0
 51129  1  0  0  0
 52130  1  0  0  0
 52131  1  0  0  0
 53 54  1  0  0  0
 54 55  2  0  0  0
 54132  1  0  0  0
 55 57  1  0  0  0
 55133  1  0  0  0
 56 69  2  0  0  0
 57 58  2  0  0  0
 57134  1  0  0  0
 58135  1  0  0  0
 59 60  1  0  0  0
 59 61  1  0  0  0
 59 62  1  0  0  0
 60136  1  0  0  0
 60137  1  0  0  0
 60138  1  0  0  0
 61139  1  0  0  0
 61140  1  0  0  0
 61141  1  0  0  0
 62142  1  0  0  0
 62143  1  0  0  0
 62144  1  0  0  0
 63 65  1  0  0  0
 63145  1  0  0  0
 63146  1  0  0  0
 63147  1  0  0  0
 64148  1  0  0  0
 65149  1  0  0  0
 68 87  1  0  0  0
 71 72  2  0  0  0
 71 73  1  0  0  0
 71150  1  0  0  0
 72 75  1  0  0  0
 72151  1  0  0  0
 73 74  2  0  0  0
 73 79  1  0  0  0
 74 76  1  0  0  0
 74 77  1  0  0  0
 75 76  2  0  0  0
 75 83  1  0  0  0
 76 82  1  0  0  0
 77 78  1  0  0  0
 77152  1  0  0  0
 77153  1  0  0  0
 78 79  1  0  0  0
 78154  1  0  0  0
 78155  1  0  0  0
 79 84  1  0  0  0
 79156  1  0  0  0
 80157  1  0  0  0
 80158  1  0  0  0
 80159  1  0  0  0
 80 88  1  0  0  0
 81 88  1  0  0  0
 81160  1  0  0  0
 81161  1  0  0  0
 81162  1  0  0  0
 82 85  1  0  0  0
 82163  1  0  0  0
 82164  1  0  0  0
 83 89  1  0  0  0
 83165  1  0  0  0
 83166  1  0  0  0
 84 88  1  0  0  0
 84167  1  0  0  0
 84168  1  0  0  0
 85 90  1  0  0  0
 85169  1  0  0  0
 85170  1  0  0  0
 86 87  1  0  0  0
 86 90  1  0  0  0
 86171  1  0  0  0
 86172  1  0  0  0
 87173  1  0  0  0
 87174  1  0  0  0
 88175  1  0  0  0
 89176  1  0  0  0
 90177  1  0  0  0
 90178  1  0  0  0
M  CHG  1  90   1
M  ISO  4   1 100  68 101  87 101  89 100
M  END
> <chiral flag>
0

> <version>
0

> <s_m_source_file>
/data/baiqing/PycharmProjects/Reinvent-master-3.2/result/LINK_invent/BTK/process_docking_weight1_custom_sum_contain_oxygen_bond_distance_aromatic_linkinvent_7_9_3/rearranged_h_0130.sdf

> <i_m_source_file_index>
39

> <r_mmod_Potential_Energy-OPLS-2005>
-93.4208526611328

> <r_mmod_Stretch_Energy-OPLS-2005>
77.5026702880859

> <r_mmod_Bend_Energy-OPLS-2005>
181.412261962891

> <r_mmod_Torsional_Energy-OPLS-2005>
230.559753417969

> <r_mmod_Improper_Torsional_Energy-OPLS-2005>
5.5734338760376

> <r_mmod_Van_der_Waal_Energy-OPLS-2005>
149.66015625

> <r_mmod_Electrostatic_Energy-OPLS-2005>
-305.607269287109

> <r_mmod_Solvation_Energy-OPLS-2005>
-465.203338623047

> <b_mmod_Minimization_Converged-OPLS-2005>
0

> <r_mmod_RMS_Derivative-OPLS-2005>
1.32840657234192

$$$$
39
                    3D
 Structure written by MMmdl.
169178  0  0  1  0            999 V2000
  -30.6790  -14.4245   20.6002 C   0  0  0  0  0  0
  -30.4321  -12.2931   19.4074 C   0  0  0  0  0  0
  -29.4880  -12.5292   18.2069 C   0  0  0  0  0  0
  -28.0066  -12.3848   18.6206 C   0  0  0  0  0  0
  -27.6672  -13.1929   19.8998 C   0  0  2  0  0  0
  -28.7096  -12.9147   21.0095 C   0  0  0  0  0  0
  -25.2549  -13.8089   20.5622 C   0  0  0  0  0  0
  -24.1820  -13.0395   20.9192 C   0  0  0  0  0  0
  -24.6369  -11.6871   20.8775 C   0  0  0  0  0  0
  -23.9014  -10.4273   21.0444 C   0  0  0  0  0  0
  -24.3569   -9.4192   21.9225 C   0  0  0  0  0  0
  -23.6236   -8.2224   22.0729 C   0  0  0  0  0  0
  -22.4207   -8.0283   21.3539 C   0  0  0  0  0  0
  -21.9855   -9.0249   20.4631 C   0  0  0  0  0  0
  -22.7198  -10.2121   20.3072 C   0  0  0  0  0  0
  -21.6852   -6.0734   22.5288 C   0  0  0  0  0  0
  -21.4025   -6.5623   23.8229 C   0  0  0  0  0  0
  -21.3658   -5.6771   24.9180 C   0  0  0  0  0  0
  -21.6047   -4.3038   24.7233 C   0  0  0  0  0  0
  -21.8818   -3.8139   23.4345 C   0  0  0  0  0  0
  -21.9186   -4.6965   22.3407 C   0  0  0  0  0  0
  -22.7848  -13.5231   21.1839 C   0  0  0  0  0  0
  -22.1637   -4.2131   21.0990 F   0  0  0  0  0  0
  -21.5609   -3.4544   25.7762 F   0  0  0  0  0  0
  -30.0484  -13.2295   20.4757 N   0  0  0  0  0  0
  -26.3029  -12.9265   20.3504 N   0  0  0  0  0  0
  -25.9297  -11.6440   20.5858 N   0  0  0  0  0  0
  -22.0496  -12.8246   22.0416 N   0  0  0  0  0  0
  -25.4141  -15.1806   20.3788 N   0  0  0  0  0  0
  -31.7601  -14.6872   20.0654 O   0  0  0  0  0  0
  -21.6592   -6.8887   21.4249 O   0  0  0  0  0  0
  -22.3563  -14.5541   20.6659 O   0  0  0  0  0  0
  -24.6011  -31.8728   23.2136 C   0  0  0  0  0  0
  -25.8939  -32.4858   23.8416 C   0  0  1  0  0  0
  -27.2805  -27.5061   20.1181 C   0  0  0  0  0  0
  -25.5831  -33.8647   24.2368 N   0  0  0  0  0  0
  -23.3881  -30.4882   21.5501 C   0  0  2  0  0  0
  -24.8450  -28.9540   20.1213 C   0  0  0  0  0  0
  -22.7341  -29.4662   22.5036 C   0  0  0  0  0  0
  -18.0252  -28.1369   22.8498 C   0  0  0  0  0  0
  -24.1479  -36.7342   23.2650 C   0  0  0  0  0  0
  -25.8992  -30.8669   21.3476 C   0  0  0  0  0  0
  -25.9868  -29.4983   20.7142 C   0  0  0  0  0  0
  -27.1938  -28.7841   20.7213 C   0  0  0  0  0  0
  -26.1205  -26.9642   19.5206 C   0  0  0  0  0  0
  -24.9021  -27.6785   19.5243 C   0  0  0  0  0  0
  -23.5972  -29.8059   20.1676 C   0  0  0  0  0  0
  -25.4099  -36.3144   24.0359 C   0  0  1  0  0  0
  -20.5836  -28.3639   23.1358 C   0  0  2  0  0  0
  -20.6741  -26.9378   22.5445 C   0  0  0  0  0  0
  -19.5735  -26.6379   21.5220 C   0  0  0  0  0  0
  -18.1904  -26.7923   22.1607 C   0  0  0  0  0  0
  -19.1502  -28.8817   23.2926 C   0  0  0  0  0  0
  -18.9439  -30.1427   23.8929 C   0  0  0  0  0  0
  -17.6445  -30.6583   24.0574 C   0  0  0  0  0  0
  -25.9006  -34.9493   23.5167 C   0  0  0  0  0  0
  -16.5340  -29.9095   23.6322 C   0  0  0  0  0  0
  -16.7242  -28.6513   23.0343 C   0  0  0  0  0  0
  -26.4436  -31.6612   25.0694 C   0  0  0  0  0  0
  -25.3786  -31.3666   26.1508 C   0  0  0  0  0  0
  -27.0266  -30.3088   24.5966 C   0  0  0  0  0  0
  -27.6041  -32.4325   25.7418 C   0  0  0  0  0  0
  -27.5583  -37.1835   24.8480 C   0  0  0  0  0  0
  -21.4084  -29.3012   22.3780 N   0  0  0  0  0  0
  -26.4317  -37.3807   23.9391 N   0  0  0  0  0  0
  -24.6479  -31.0895   22.0991 N   0  0  0  0  0  0
  -23.4158  -28.8228   23.3069 O   0  0  0  0  0  0
  -28.4496  -26.7699   20.0788 O   0  0  0  0  0  0
  -26.5577  -34.8938   22.4727 O   0  0  0  0  0  0
  -23.5232  -32.1431   23.7585 O   0  0  0  0  0  0
  -29.8276  -20.1710   21.6364 C   0  0  0  0  0  0
  -29.3871  -18.8372   21.5521 C   0  0  0  0  0  0
  -31.4134  -18.2490   20.3442 C   0  0  0  0  0  0
  -31.0159  -20.5765   20.9912 C   0  0  0  0  0  0
  -30.1413  -17.8903   20.8292 C   0  0  0  0  0  0
  -31.8699  -19.5832   20.4390 C   0  0  0  0  0  0
  -30.0501  -22.7293   20.0858 C   0  0  0  0  0  0
  -31.5919  -22.8545   22.0599 C   0  0  0  0  0  0
  -30.2852  -24.2175   19.8070 C   0  0  0  0  0  0
  -31.7777  -24.3614   21.7663 C   0  0  0  0  0  0
  -31.2656  -22.0763   20.7767 C   0  0  1  0  0  0
  -33.2559  -19.9025   19.9042 C   0  0  0  0  0  0
  -29.5174  -16.5611   20.4316 C   0  0  0  0  0  0
  -30.8098  -26.4110   20.7873 C   0  0  0  0  0  0
  -29.5250  -27.2396   20.9025 C   0  0  0  0  0  0
  -29.9267  -15.3750   21.1756 N   0  0  0  0  0  0
  -30.6129  -24.9617   21.0539 N   0  3  1  0  0  0
  -31.4737  -12.4181   19.1000 H   0  0  0  0  0  0
  -30.3482  -11.2668   19.7598 H   0  0  0  0  0  0
  -29.7206  -11.8350   17.3990 H   0  0  0  0  0  0
  -29.6597  -13.5278   17.7986 H   0  0  0  0  0  0
  -27.8084  -11.3269   18.7887 H   0  0  0  0  0  0
  -27.3529  -12.6909   17.8021 H   0  0  0  0  0  0
  -27.7242  -14.2502   19.6448 H   0  0  0  0  0  0
  -28.6816  -11.8628   21.2973 H   0  0  0  0  0  0
  -28.4713  -13.4582   21.9267 H   0  0  0  0  0  0
  -25.2714   -9.5630   22.4826 H   0  0  0  0  0  0
  -23.9958   -7.4581   22.7364 H   0  0  0  0  0  0
  -21.0816   -8.8747   19.8886 H   0  0  0  0  0  0
  -22.3687  -10.9640   19.6163 H   0  0  0  0  0  0
  -21.2007   -7.6128   23.9734 H   0  0  0  0  0  0
  -21.1493   -6.0492   25.9083 H   0  0  0  0  0  0
  -22.0595   -2.7590   23.2848 H   0  0  0  0  0  0
  -22.4161  -11.9977   22.4886 H   0  0  0  0  0  0
  -21.1092  -13.1260   22.2583 H   0  0  0  0  0  0
  -24.6072  -15.7949   20.4028 H   0  0  0  0  0  0
  -26.2165  -15.5920   19.9203 H   0  0  0  0  0  0
  -26.7019  -32.5639   23.1208 H   0  0  0  0  0  0
  -24.9980  -33.9836   25.0507 H   0  0  0  0  0  0
  -22.6734  -31.3007   21.4050 H   0  0  0  0  0  0
  -23.3716  -35.9716   23.3407 H   0  0  0  0  0  0
  -24.3554  -36.8840   22.2049 H   0  0  0  0  0  0
  -23.7276  -37.6598   23.6581 H   0  0  0  0  0  0
  -25.9811  -31.6260   20.5685 H   0  0  0  0  0  0
  -26.7954  -30.9484   21.9490 H   0  0  0  0  0  0
  -28.0400  -29.2595   21.1932 H   0  0  0  0  0  0
  -26.1647  -25.9866   19.0611 H   0  0  0  0  0  0
  -24.0237  -27.2437   19.0683 H   0  0  0  0  0  0
  -23.6968  -30.5728   19.3987 H   0  0  0  0  0  0
  -22.7283  -29.2127   19.8772 H   0  0  0  0  0  0
  -25.1277  -36.2050   25.0867 H   0  0  0  0  0  0
  -20.9918  -28.3193   24.1481 H   0  0  0  0  0  0
  -20.5623  -26.2245   23.3627 H   0  0  0  0  0  0
  -21.6622  -26.7423   22.1252 H   0  0  0  0  0  0
  -19.6899  -25.6296   21.1236 H   0  0  0  0  0  0
  -19.6689  -27.3205   20.6765 H   0  0  0  0  0  0
  -17.4187  -26.6695   21.3994 H   0  0  0  0  0  0
  -18.0275  -26.0045   22.8981 H   0  0  0  0  0  0
  -19.7926  -30.7222   24.2320 H   0  0  0  0  0  0
  -17.5019  -31.6263   24.5164 H   0  0  0  0  0  0
  -15.5351  -30.3015   23.7628 H   0  0  0  0  0  0
  -15.8643  -28.0848   22.7043 H   0  0  0  0  0  0
  -24.5889  -30.7088   25.7856 H   0  0  0  0  0  0
  -24.9076  -32.2825   26.5104 H   0  0  0  0  0  0
  -25.8213  -30.8718   27.0170 H   0  0  0  0  0  0
  -26.2744  -29.6799   24.1197 H   0  0  0  0  0  0
  -27.4290  -29.7349   25.4324 H   0  0  0  0  0  0
  -27.8458  -30.4452   23.8901 H   0  0  0  0  0  0
  -27.2651  -33.3568   26.2110 H   0  0  0  0  0  0
  -28.3766  -32.6995   25.0193 H   0  0  0  0  0  0
  -28.0823  -31.8413   26.5236 H   0  0  0  0  0  0
  -28.2667  -38.0061   24.7429 H   0  0  0  0  0  0
  -28.1006  -36.2595   24.6421 H   0  0  0  0  0  0
  -27.2300  -37.1647   25.8887 H   0  0  0  0  0  0
  -20.9241  -29.8733   21.7008 H   0  0  0  0  0  0
  -26.0227  -38.2914   24.1322 H   0  0  0  0  0  0
  -29.1939  -20.9001   22.1234 H   0  0  0  0  0  0
  -28.4229  -18.5754   21.9657 H   0  0  0  0  0  0
  -32.0114  -17.5081   19.8323 H   0  0  0  0  0  0
  -29.8348  -22.2160   19.1476 H   0  0  0  0  0  0
  -29.1555  -22.6304   20.7005 H   0  0  0  0  0  0
  -30.8052  -22.7187   22.8044 H   0  0  0  0  0  0
  -32.5089  -22.4630   22.5043 H   0  0  0  0  0  0
  -29.3928  -24.6311   19.3385 H   0  0  0  0  0  0
  -31.0926  -24.3302   19.0810 H   0  0  0  0  0  0
  -32.6775  -24.5175   21.1679 H   0  0  0  0  0  0
  -31.9411  -24.8868   22.7086 H   0  0  0  0  0  0
  -32.1047  -22.2008   20.0921 H   0  0  0  0  0  0
  -33.9199  -19.0469   20.0261 H   0  0  0  0  0  0
  -33.7196  -20.7238   20.4515 H   0  0  0  0  0  0
  -33.2213  -20.1513   18.8419 H   0  0  0  0  0  0
  -29.6970  -16.4189   19.3640 H   0  0  0  0  0  0
  -28.4329  -16.6387   20.5210 H   0  0  0  0  0  0
  -31.5034  -26.8270   21.5219 H   0  0  0  0  0  0
  -31.2835  -26.5694   19.8182 H   0  0  0  0  0  0
  -29.7999  -28.2551   20.6105 H   0  0  0  0  0  0
  -29.2015  -27.2742   21.9448 H   0  0  0  0  0  0
  -29.1819  -14.9977   21.7416 H   0  0  0  0  0  0
  -29.8185  -24.8850   21.6742 H   0  0  0  0  0  0
  1 25  1  0  0  0
  1 30  2  0  0  0
  1 86  1  0  0  0
  2  3  1  0  0  0
  2 25  1  0  0  0
  2 88  1  0  0  0
  2 89  1  0  0  0
  3  4  1  0  0  0
  3 90  1  0  0  0
  3 91  1  0  0  0
  4  5  1  0  0  0
  4 92  1  0  0  0
  4 93  1  0  0  0
  5  6  1  0  0  0
  5 26  1  0  0  0
  5 94  1  0  0  0
  6 25  1  0  0  0
  6 95  1  0  0  0
  6 96  1  0  0  0
  7  8  2  0  0  0
  7 26  1  0  0  0
  7 29  1  0  0  0
  8  9  1  0  0  0
  8 22  1  0  0  0
  9 10  1  0  0  0
  9 27  2  0  0  0
 10 11  2  0  0  0
 10 15  1  0  0  0
 11 12  1  0  0  0
 11 97  1  0  0  0
 12 13  2  0  0  0
 12 98  1  0  0  0
 13 14  1  0  0  0
 13 31  1  0  0  0
 14 15  2  0  0  0
 14 99  1  0  0  0
 15100  1  0  0  0
 16 17  2  0  0  0
 16 21  1  0  0  0
 16 31  1  0  0  0
 17 18  1  0  0  0
 17101  1  0  0  0
 18 19  2  0  0  0
 18102  1  0  0  0
 19 20  1  0  0  0
 19 24  1  0  0  0
 20 21  2  0  0  0
 20103  1  0  0  0
 21 23  1  0  0  0
 22 28  1  0  0  0
 22 32  2  0  0  0
 26 27  1  0  0  0
 28104  1  0  0  0
 28105  1  0  0  0
 29106  1  0  0  0
 29107  1  0  0  0
 33 34  1  0  0  0
 33 66  1  0  0  0
 33 70  2  0  0  0
 34 36  1  0  0  0
 34 59  1  0  0  0
 34108  1  0  0  0
 35 44  2  0  0  0
 35 45  1  0  0  0
 35 68  1  0  0  0
 36 56  1  0  0  0
 36109  1  0  0  0
 37 39  1  0  0  0
 37 47  1  0  0  0
 37 66  1  0  0  0
 37110  1  0  0  0
 38 43  2  0  0  0
 38 46  1  0  0  0
 38 47  1  0  0  0
 39 64  1  0  0  0
 39 67  2  0  0  0
 40 52  1  0  0  0
 40 53  2  0  0  0
 40 58  1  0  0  0
 41111  1  0  0  0
 41112  1  0  0  0
 41113  1  0  0  0
 41 48  1  0  0  0
 42 43  1  0  0  0
 42 66  1  0  0  0
 42114  1  0  0  0
 42115  1  0  0  0
 43 44  1  0  0  0
 44116  1  0  0  0
 45 46  2  0  0  0
 45117  1  0  0  0
 46118  1  0  0  0
 47119  1  0  0  0
 47120  1  0  0  0
 48 56  1  0  0  0
 48 65  1  0  0  0
 48121  1  0  0  0
 49 50  1  0  0  0
 49 53  1  0  0  0
 49 64  1  0  0  0
 49122  1  0  0  0
 50 51  1  0  0  0
 50123  1  0  0  0
 50124  1  0  0  0
 51 52  1  0  0  0
 51125  1  0  0  0
 51126  1  0  0  0
 52127  1  0  0  0
 52128  1  0  0  0
 53 54  1  0  0  0
 54 55  2  0  0  0
 54129  1  0  0  0
 55 57  1  0  0  0
 55130  1  0  0  0
 56 69  2  0  0  0
 57 58  2  0  0  0
 57131  1  0  0  0
 58132  1  0  0  0
 59 60  1  0  0  0
 59 61  1  0  0  0
 59 62  1  0  0  0
 60133  1  0  0  0
 60134  1  0  0  0
 60135  1  0  0  0
 61136  1  0  0  0
 61137  1  0  0  0
 61138  1  0  0  0
 62139  1  0  0  0
 62140  1  0  0  0
 62141  1  0  0  0
 63 65  1  0  0  0
 63142  1  0  0  0
 63143  1  0  0  0
 63144  1  0  0  0
 64145  1  0  0  0
 65146  1  0  0  0
 68 85  1  0  0  0
 71 72  2  0  0  0
 71 74  1  0  0  0
 71147  1  0  0  0
 72 75  1  0  0  0
 72148  1  0  0  0
 73 75  2  0  0  0
 73 76  1  0  0  0
 73149  1  0  0  0
 74 76  2  0  0  0
 74 81  1  0  0  0
 75 83  1  0  0  0
 76 82  1  0  0  0
 77 79  1  0  0  0
 77 81  1  0  0  0
 77150  1  0  0  0
 77151  1  0  0  0
 78 80  1  0  0  0
 78 81  1  0  0  0
 78152  1  0  0  0
 78153  1  0  0  0
 79 87  1  0  0  0
 79154  1  0  0  0
 79155  1  0  0  0
 80 87  1  0  0  0
 80156  1  0  0  0
 80157  1  0  0  0
 81158  1  0  0  0
 82159  1  0  0  0
 82160  1  0  0  0
 82161  1  0  0  0
 83 86  1  0  0  0
 83162  1  0  0  0
 83163  1  0  0  0
 84 85  1  0  0  0
 84164  1  0  0  0
 84165  1  0  0  0
 84 87  1  0  0  0
 85166  1  0  0  0
 85167  1  0  0  0
 86168  1  0  0  0
 87169  1  0  0  0
M  CHG  1  87   1
M  ISO  4   1 100  68 101  85 101  86 100
M  END
> <chiral flag>
0

> <version>
0

> <s_m_source_file>
/data/baiqing/PycharmProjects/Reinvent-master-3.2/result/LINK_invent/BTK/process_docking_weight1_custom_sum_contain_oxygen_bond_distance_aromatic_linkinvent_7_9_3/rearranged_h_0130.sdf

> <i_m_source_file_index>
40

> <r_mmod_Potential_Energy-OPLS-2005>
-130.756988525391

> <r_mmod_Stretch_Energy-OPLS-2005>
35.6366157531738

> <r_mmod_Bend_Energy-OPLS-2005>
99.2837524414062

> <r_mmod_Torsional_Energy-OPLS-2005>
292.028442382812

> <r_mmod_Improper_Torsional_Energy-OPLS-2005>
11.2467384338379

> <r_mmod_Van_der_Waal_Energy-OPLS-2005>
168.472061157227

> <r_mmod_Electrostatic_Energy-OPLS-2005>
-323.466705322266

> <r_mmod_Solvation_Energy-OPLS-2005>
-422.00830078125

> <b_mmod_Minimization_Converged-OPLS-2005>
0

> <r_mmod_RMS_Derivative-OPLS-2005>
4.30655431747437

$$$$
40
                    3D
 Structure written by MMmdl.
158166  0  0  1  0            999 V2000
  -30.6530  -14.5491   20.5172 C   0  0  0  0  0  0
  -30.4339  -12.3352   19.4547 C   0  0  0  0  0  0
  -29.5116  -12.4825   18.2247 C   0  0  0  0  0  0
  -28.0282  -12.3463   18.6270 C   0  0  0  0  0  0
  -27.6565  -13.2046   19.8664 C   0  0  2  0  0  0
  -28.6953  -13.0285   20.9979 C   0  0  0  0  0  0
  -25.2588  -13.8159   20.5643 C   0  0  0  0  0  0
  -24.1838  -13.0446   20.9165 C   0  0  0  0  0  0
  -24.6387  -11.6906   20.8733 C   0  0  0  0  0  0
  -23.9048  -10.4298   21.0399 C   0  0  0  0  0  0
  -24.3610   -9.4214   21.9170 C   0  0  0  0  0  0
  -23.6289   -8.2250   22.0754 C   0  0  0  0  0  0
  -22.4268   -8.0283   21.3550 C   0  0  0  0  0  0
  -21.9897   -9.0251   20.4651 C   0  0  0  0  0  0
  -22.7220  -10.2132   20.3054 C   0  0  0  0  0  0
  -21.6858   -6.0732   22.5276 C   0  0  0  0  0  0
  -21.4013   -6.5634   23.8204 C   0  0  0  0  0  0
  -21.3661   -5.6787   24.9170 C   0  0  0  0  0  0
  -21.6048   -4.3048   24.7226 C   0  0  0  0  0  0
  -21.8821   -3.8141   23.4341 C   0  0  0  0  0  0
  -21.9198   -4.6962   22.3397 C   0  0  0  0  0  0
  -22.7871  -13.5254   21.1822 C   0  0  0  0  0  0
  -22.1671   -4.2148   21.0975 F   0  0  0  0  0  0
  -21.5633   -3.4527   25.7737 F   0  0  0  0  0  0
  -30.0231  -13.3410   20.4487 N   0  0  0  0  0  0
  -26.2998  -12.9301   20.3301 N   0  0  0  0  0  0
  -25.9307  -11.6473   20.5737 N   0  0  0  0  0  0
  -22.0507  -12.8264   22.0396 N   0  0  0  0  0  0
  -25.4353  -15.1866   20.4005 N   0  0  0  0  0  0
  -31.8099  -14.7083   20.1112 O   0  0  0  0  0  0
  -21.6649   -6.8870   21.4233 O   0  0  0  0  0  0
  -22.3556  -14.5539   20.6631 O   0  0  0  0  0  0
  -24.6149  -31.8633   23.2063 C   0  0  0  0  0  0
  -25.9038  -32.4796   23.8360 C   0  0  1  0  0  0
  -27.2438  -27.3996   20.1099 C   0  0  0  0  0  0
  -25.5865  -33.8600   24.2286 N   0  0  0  0  0  0
  -23.4044  -30.4847   21.5465 C   0  0  2  0  0  0
  -24.8542  -28.9421   20.1110 C   0  0  0  0  0  0
  -22.7413  -29.4629   22.4974 C   0  0  0  0  0  0
  -18.0256  -28.1369   22.8503 C   0  0  0  0  0  0
  -24.1481  -36.7328   23.2641 C   0  0  0  0  0  0
  -25.9341  -30.8194   21.3619 C   0  0  0  0  0  0
  -26.0117  -29.4492   20.7129 C   0  0  0  0  0  0
  -27.2028  -28.6852   20.7089 C   0  0  0  0  0  0
  -26.0653  -26.9087   19.5026 C   0  0  0  0  0  0
  -24.8783  -27.6732   19.5030 C   0  0  0  0  0  0
  -23.6154  -29.8140   20.1605 C   0  0  0  0  0  0
  -25.4103  -36.3112   24.0336 C   0  0  1  0  0  0
  -20.5850  -28.3651   23.1330 C   0  0  2  0  0  0
  -20.6740  -26.9380   22.5441 C   0  0  0  0  0  0
  -19.5717  -26.6371   21.5234 C   0  0  0  0  0  0
  -18.1894  -26.7911   22.1642 C   0  0  0  0  0  0
  -19.1504  -28.8828   23.2904 C   0  0  0  0  0  0
  -18.9443  -30.1443   23.8899 C   0  0  0  0  0  0
  -17.6444  -30.6570   24.0569 C   0  0  0  0  0  0
  -25.9031  -34.9469   23.5121 C   0  0  0  0  0  0
  -16.5338  -29.9082   23.6322 C   0  0  0  0  0  0
  -16.7247  -28.6504   23.0338 C   0  0  0  0  0  0
  -26.4442  -31.6579   25.0701 C   0  0  0  0  0  0
  -25.3729  -31.3709   26.1477 C   0  0  0  0  0  0
  -27.0251  -30.3003   24.6101 C   0  0  0  0  0  0
  -27.5993  -32.4317   25.7470 C   0  0  0  0  0  0
  -27.5580  -37.1819   24.8458 C   0  0  0  0  0  0
  -21.4133  -29.3016   22.3740 N   0  0  0  0  0  0
  -26.4290  -37.3802   23.9414 N   0  0  0  0  0  0
  -24.6696  -31.0717   22.0969 N   0  0  0  0  0  0
  -23.4187  -28.8181   23.3030 O   0  0  0  0  0  0
  -28.4309  -26.6858   20.1712 O   0  0  0  0  0  0
  -26.5628  -34.8931   22.4706 O   0  0  0  0  0  0
  -23.5340  -32.1396   23.7447 O   0  0  0  0  0  0
  -29.0834  -17.6569   17.8955 C   0  0  0  0  0  0
  -29.2856  -16.5727   18.7553 C   0  0  0  0  0  0
  -29.2708  -18.9602   18.3788 C   0  0  0  0  0  0
  -29.5938  -19.1421   19.7473 C   0  0  0  0  0  0
  -29.6809  -16.7832   20.0914 C   0  0  0  0  0  0
  -29.1501  -20.0985   17.3733 C   0  0  0  0  0  0
  -29.8831  -20.5622   20.2990 C   0  0  0  0  0  0
  -28.7082  -21.6072   20.2933 C   0  0  0  0  0  0
  -28.1460  -24.1263   20.3339 C   0  0  0  0  0  0
  -28.6125  -25.3958   19.5398 C   0  0  0  0  0  0
  -29.7805  -18.0635   20.5762 N   0  0  0  0  0  0
  -29.8810  -15.6034   20.8883 N   0  0  0  0  0  0
  -29.1768  -23.0302   20.3986 N   0  3  0  0  0  0
  -31.4779  -12.4475   19.1553 H   0  0  0  0  0  0
  -30.3578  -11.3343   19.8816 H   0  0  0  0  0  0
  -29.7636  -11.7296   17.4768 H   0  0  0  0  0  0
  -29.6848  -13.4466   17.7458 H   0  0  0  0  0  0
  -27.8415  -11.2925   18.8382 H   0  0  0  0  0  0
  -27.3866  -12.6039   17.7842 H   0  0  0  0  0  0
  -27.6817  -14.2429   19.5412 H   0  0  0  0  0  0
  -28.6863  -12.0022   21.3673 H   0  0  0  0  0  0
  -28.4479  -13.6534   21.8574 H   0  0  0  0  0  0
  -25.2766   -9.5687   22.4731 H   0  0  0  0  0  0
  -24.0012   -7.4638   22.7458 H   0  0  0  0  0  0
  -21.0842   -8.8753   19.8953 H   0  0  0  0  0  0
  -22.3676  -10.9663   19.6158 H   0  0  0  0  0  0
  -21.1999   -7.6141   23.9702 H   0  0  0  0  0  0
  -21.1487   -6.0520   25.9067 H   0  0  0  0  0  0
  -22.0602   -2.7606   23.2838 H   0  0  0  0  0  0
  -22.4131  -11.9952   22.4828 H   0  0  0  0  0  0
  -21.1113  -13.1282   22.2549 H   0  0  0  0  0  0
  -24.6660  -15.8429   20.4801 H   0  0  0  0  0  0
  -26.2782  -15.6140   20.0389 H   0  0  0  0  0  0
  -26.7106  -32.5489   23.1111 H   0  0  0  0  0  0
  -24.9961  -33.9749   25.0395 H   0  0  0  0  0  0
  -22.6940  -31.3022   21.4064 H   0  0  0  0  0  0
  -23.3728  -35.9673   23.3299 H   0  0  0  0  0  0
  -24.3572  -36.8959   22.2054 H   0  0  0  0  0  0
  -23.7248  -37.6542   23.6662 H   0  0  0  0  0  0
  -26.0471  -31.5826   20.5901 H   0  0  0  0  0  0
  -26.8224  -30.8756   21.9801 H   0  0  0  0  0  0
  -28.0947  -29.0769   21.1795 H   0  0  0  0  0  0
  -26.0409  -25.9346   19.0377 H   0  0  0  0  0  0
  -23.9885  -27.2734   19.0369 H   0  0  0  0  0  0
  -23.7224  -30.5899   19.4007 H   0  0  0  0  0  0
  -22.7389  -29.2351   19.8657 H   0  0  0  0  0  0
  -25.1275  -36.1970   25.0829 H   0  0  0  0  0  0
  -20.9922  -28.3206   24.1458 H   0  0  0  0  0  0
  -20.5635  -26.2247   23.3631 H   0  0  0  0  0  0
  -21.6608  -26.7414   22.1237 H   0  0  0  0  0  0
  -19.6864  -25.6288   21.1241 H   0  0  0  0  0  0
  -19.6647  -27.3206   20.6785 H   0  0  0  0  0  0
  -17.4171  -26.6674   21.4036 H   0  0  0  0  0  0
  -18.0269  -26.0038   22.9022 H   0  0  0  0  0  0
  -19.7919  -30.7261   24.2249 H   0  0  0  0  0  0
  -17.5003  -31.6248   24.5175 H   0  0  0  0  0  0
  -15.5342  -30.2996   23.7631 H   0  0  0  0  0  0
  -15.8646  -28.0852   22.7019 H   0  0  0  0  0  0
  -24.5896  -30.7035   25.7867 H   0  0  0  0  0  0
  -24.8925  -32.2871   26.4923 H   0  0  0  0  0  0
  -25.8119  -30.8915   27.0237 H   0  0  0  0  0  0
  -26.2795  -29.6798   24.1113 H   0  0  0  0  0  0
  -27.3937  -29.7206   25.4574 H   0  0  0  0  0  0
  -27.8666  -30.4277   23.9288 H   0  0  0  0  0  0
  -27.2561  -33.3584   26.2078 H   0  0  0  0  0  0
  -28.3779  -32.6942   25.0299 H   0  0  0  0  0  0
  -28.0676  -31.8440   26.5374 H   0  0  0  0  0  0
  -28.2601  -38.0110   24.7500 H   0  0  0  0  0  0
  -28.1069  -36.2648   24.6270 H   0  0  0  0  0  0
  -27.2308  -37.1458   25.8864 H   0  0  0  0  0  0
  -20.9288  -29.8752   21.6981 H   0  0  0  0  0  0
  -26.0168  -38.2881   24.1418 H   0  0  0  0  0  0
  -28.8148  -17.4834   16.8630 H   0  0  0  0  0  0
  -29.1557  -15.5800   18.3539 H   0  0  0  0  0  0
  -29.5353  -19.7843   16.4022 H   0  0  0  0  0  0
  -29.7141  -20.9863   17.6531 H   0  0  0  0  0  0
  -28.1051  -20.3753   17.2324 H   0  0  0  0  0  0
  -30.7208  -20.9517   19.7192 H   0  0  0  0  0  0
  -30.2671  -20.4738   21.3155 H   0  0  0  0  0  0
  -28.0124  -21.3771   21.1010 H   0  0  0  0  0  0
  -28.1316  -21.5190   19.3752 H   0  0  0  0  0  0
  -27.2339  -23.7532   19.8666 H   0  0  0  0  0  0
  -27.8764  -24.4007   21.3542 H   0  0  0  0  0  0
  -28.1998  -25.3957   18.5311 H   0  0  0  0  0  0
  -29.6904  -25.3223   19.3909 H   0  0  0  0  0  0
  -29.0717  -15.3366   21.4270 H   0  0  0  0  0  0
  -29.8288  -23.1814   19.6447 H   0  0  0  0  0  0
  -29.6983  -23.1366   21.2565 H   0  0  0  0  0  0
  1 25  1  0  0  0
  1 30  2  0  0  0
  1 82  1  0  0  0
  2  3  1  0  0  0
  2 25  1  0  0  0
  2 84  1  0  0  0
  2 85  1  0  0  0
  3  4  1  0  0  0
  3 86  1  0  0  0
  3 87  1  0  0  0
  4  5  1  0  0  0
  4 88  1  0  0  0
  4 89  1  0  0  0
  5  6  1  0  0  0
  5 26  1  0  0  0
  5 90  1  0  0  0
  6 25  1  0  0  0
  6 91  1  0  0  0
  6 92  1  0  0  0
  7  8  2  0  0  0
  7 26  1  0  0  0
  7 29  1  0  0  0
  8  9  1  0  0  0
  8 22  1  0  0  0
  9 10  1  0  0  0
  9 27  2  0  0  0
 10 11  2  0  0  0
 10 15  1  0  0  0
 11 12  1  0  0  0
 11 93  1  0  0  0
 12 13  2  0  0  0
 12 94  1  0  0  0
 13 14  1  0  0  0
 13 31  1  0  0  0
 14 15  2  0  0  0
 14 95  1  0  0  0
 15 96  1  0  0  0
 16 17  2  0  0  0
 16 21  1  0  0  0
 16 31  1  0  0  0
 17 18  1  0  0  0
 17 97  1  0  0  0
 18 19  2  0  0  0
 18 98  1  0  0  0
 19 20  1  0  0  0
 19 24  1  0  0  0
 20 21  2  0  0  0
 20 99  1  0  0  0
 21 23  1  0  0  0
 22 28  1  0  0  0
 22 32  2  0  0  0
 26 27  1  0  0  0
 28100  1  0  0  0
 28101  1  0  0  0
 29102  1  0  0  0
 29103  1  0  0  0
 33 34  1  0  0  0
 33 66  1  0  0  0
 33 70  2  0  0  0
 34 36  1  0  0  0
 34 59  1  0  0  0
 34104  1  0  0  0
 35 44  2  0  0  0
 35 45  1  0  0  0
 35 68  1  0  0  0
 36 56  1  0  0  0
 36105  1  0  0  0
 37 39  1  0  0  0
 37 47  1  0  0  0
 37 66  1  0  0  0
 37106  1  0  0  0
 38 43  2  0  0  0
 38 46  1  0  0  0
 38 47  1  0  0  0
 39 64  1  0  0  0
 39 67  2  0  0  0
 40 52  1  0  0  0
 40 53  2  0  0  0
 40 58  1  0  0  0
 41107  1  0  0  0
 41108  1  0  0  0
 41109  1  0  0  0
 41 48  1  0  0  0
 42 43  1  0  0  0
 42 66  1  0  0  0
 42110  1  0  0  0
 42111  1  0  0  0
 43 44  1  0  0  0
 44112  1  0  0  0
 45 46  2  0  0  0
 45113  1  0  0  0
 46114  1  0  0  0
 47115  1  0  0  0
 47116  1  0  0  0
 48 56  1  0  0  0
 48 65  1  0  0  0
 48117  1  0  0  0
 49 50  1  0  0  0
 49 53  1  0  0  0
 49 64  1  0  0  0
 49118  1  0  0  0
 50 51  1  0  0  0
 50119  1  0  0  0
 50120  1  0  0  0
 51 52  1  0  0  0
 51121  1  0  0  0
 51122  1  0  0  0
 52123  1  0  0  0
 52124  1  0  0  0
 53 54  1  0  0  0
 54 55  2  0  0  0
 54125  1  0  0  0
 55 57  1  0  0  0
 55126  1  0  0  0
 56 69  2  0  0  0
 57 58  2  0  0  0
 57127  1  0  0  0
 58128  1  0  0  0
 59 60  1  0  0  0
 59 61  1  0  0  0
 59 62  1  0  0  0
 60129  1  0  0  0
 60130  1  0  0  0
 60131  1  0  0  0
 61132  1  0  0  0
 61133  1  0  0  0
 61134  1  0  0  0
 62135  1  0  0  0
 62136  1  0  0  0
 62137  1  0  0  0
 63 65  1  0  0  0
 63138  1  0  0  0
 63139  1  0  0  0
 63140  1  0  0  0
 64141  1  0  0  0
 65142  1  0  0  0
 68 80  1  0  0  0
 71 72  2  0  0  0
 71 73  1  0  0  0
 71143  1  0  0  0
 72 75  1  0  0  0
 72144  1  0  0  0
 73 74  2  0  0  0
 73 76  1  0  0  0
 74 77  1  0  0  0
 74 81  1  0  0  0
 75 81  2  0  0  0
 75 82  1  0  0  0
 76145  1  0  0  0
 76146  1  0  0  0
 76147  1  0  0  0
 77 78  1  0  0  0
 77148  1  0  0  0
 77149  1  0  0  0
 78 83  1  0  0  0
 78150  1  0  0  0
 78151  1  0  0  0
 79 80  1  0  0  0
 79 83  1  0  0  0
 79152  1  0  0  0
 79153  1  0  0  0
 80154  1  0  0  0
 80155  1  0  0  0
 82156  1  0  0  0
 83157  1  0  0  0
 83158  1  0  0  0
M  CHG  1  83   1
M  ISO  4   1 100  68 101  80 101  82 100
M  END
> <chiral flag>
0

> <version>
0

> <s_m_source_file>
/data/baiqing/PycharmProjects/Reinvent-master-3.2/result/LINK_invent/BTK/process_docking_weight1_custom_sum_contain_oxygen_bond_distance_aromatic_linkinvent_7_9_3/rearranged_h_0130.sdf

> <i_m_source_file_index>
41

> <r_mmod_Potential_Energy-OPLS-2005>
-280.769165039062

> <r_mmod_Stretch_Energy-OPLS-2005>
51.5511169433594

> <r_mmod_Bend_Energy-OPLS-2005>
121.307731628418

> <r_mmod_Torsional_Energy-OPLS-2005>
258.633880615234

> <r_mmod_Improper_Torsional_Energy-OPLS-2005>
7.45685911178589

> <r_mmod_Van_der_Waal_Energy-OPLS-2005>
145.970016479492

> <r_mmod_Electrostatic_Energy-OPLS-2005>
-403.176055908203

> <r_mmod_Solvation_Energy-OPLS-2005>
-485.960113525391

> <b_mmod_Minimization_Converged-OPLS-2005>
0

> <r_mmod_RMS_Derivative-OPLS-2005>
2.14409875869751

$$$$
41
                    3D
 Structure written by MMmdl.
161170  0  0  1  0            999 V2000
  -30.5682  -14.8708   20.4342 C   0  0  0  0  0  0
  -30.4365  -12.5333   19.4920 C   0  0  0  0  0  0
  -29.5164  -12.5172   18.2497 C   0  0  0  0  0  0
  -28.0452  -12.3216   18.6642 C   0  0  0  0  0  0
  -27.6331  -13.2420   19.8435 C   0  0  2  0  0  0
  -28.6773  -13.2379   20.9800 C   0  0  0  0  0  0
  -25.2477  -13.8221   20.5702 C   0  0  0  0  0  0
  -24.1787  -13.0454   20.9242 C   0  0  0  0  0  0
  -24.6385  -11.6931   20.8783 C   0  0  0  0  0  0
  -23.9064  -10.4303   21.0436 C   0  0  0  0  0  0
  -24.3622   -9.4222   21.9213 C   0  0  0  0  0  0
  -23.6298   -8.2252   22.0771 C   0  0  0  0  0  0
  -22.4287   -8.0285   21.3553 C   0  0  0  0  0  0
  -21.9919   -9.0264   20.4661 C   0  0  0  0  0  0
  -22.7243  -10.2141   20.3074 C   0  0  0  0  0  0
  -21.6857   -6.0735   22.5275 C   0  0  0  0  0  0
  -21.4014   -6.5641   23.8208 C   0  0  0  0  0  0
  -21.3654   -5.6795   24.9171 C   0  0  0  0  0  0
  -21.6037   -4.3060   24.7229 C   0  0  0  0  0  0
  -21.8815   -3.8146   23.4353 C   0  0  0  0  0  0
  -21.9198   -4.6959   22.3408 C   0  0  0  0  0  0
  -22.7817  -13.5219   21.1911 C   0  0  0  0  0  0
  -22.1675   -4.2141   21.0988 F   0  0  0  0  0  0
  -21.5636   -3.4543   25.7742 F   0  0  0  0  0  0
  -29.9644  -13.6225   20.3860 N   0  0  0  0  0  0
  -26.2890  -12.9440   20.3265 N   0  0  0  0  0  0
  -25.9312  -11.6577   20.5780 N   0  0  0  0  0  0
  -22.0514  -12.8231   22.0530 N   0  0  0  0  0  0
  -25.4139  -15.1942   20.4078 N   0  0  0  0  0  0
  -31.7672  -14.9541   20.1535 O   0  0  0  0  0  0
  -21.6656   -6.8879   21.4236 O   0  0  0  0  0  0
  -22.3475  -14.5502   20.6734 O   0  0  0  0  0  0
  -24.6393  -31.8480   23.1916 C   0  0  0  0  0  0
  -25.9183  -32.4718   23.8291 C   0  0  1  0  0  0
  -27.2231  -27.1860   20.1536 C   0  0  0  0  0  0
  -25.5947  -33.8518   24.2216 N   0  0  0  0  0  0
  -23.4412  -30.4657   21.5362 C   0  0  2  0  0  0
  -24.8934  -28.8968   20.1163 C   0  0  0  0  0  0
  -22.7541  -29.4566   22.4896 C   0  0  0  0  0  0
  -18.0293  -28.1386   22.8472 C   0  0  0  0  0  0
  -24.1498  -36.7262   23.2638 C   0  0  0  0  0  0
  -25.9930  -30.7386   21.3814 C   0  0  0  0  0  0
  -26.0694  -29.3518   20.7280 C   0  0  0  0  0  0
  -27.2411  -28.5125   20.7286 C   0  0  0  0  0  0
  -26.0240  -26.8125   19.5151 C   0  0  0  0  0  0
  -24.8798  -27.6375   19.4960 C   0  0  0  0  0  0
  -23.6660  -29.7913   20.1569 C   0  0  0  0  0  0
  -25.4127  -36.3041   24.0319 C   0  0  1  0  0  0
  -20.5907  -28.3715   23.1247 C   0  0  2  0  0  0
  -20.6779  -26.9421   22.5405 C   0  0  0  0  0  0
  -19.5760  -26.6383   21.5205 C   0  0  0  0  0  0
  -18.1942  -26.7926   22.1617 C   0  0  0  0  0  0
  -19.1548  -28.8868   23.2855 C   0  0  0  0  0  0
  -18.9470  -30.1466   23.8882 C   0  0  0  0  0  0
  -17.6468  -30.6589   24.0558 C   0  0  0  0  0  0
  -25.9075  -34.9414   23.5077 C   0  0  0  0  0  0
  -16.5360  -29.9085   23.6326 C   0  0  0  0  0  0
  -16.7281  -28.6498   23.0356 C   0  0  0  0  0  0
  -26.4522  -31.6562   25.0703 C   0  0  0  0  0  0
  -25.3724  -31.3732   26.1410 C   0  0  0  0  0  0
  -27.0374  -30.2966   24.6229 C   0  0  0  0  0  0
  -27.6069  -32.4306   25.7484 C   0  0  0  0  0  0
  -27.5582  -37.1788   24.8465 C   0  0  0  0  0  0
  -21.4245  -29.3047   22.3629 N   0  0  0  0  0  0
  -26.4297  -37.3748   23.9406 N   0  0  0  0  0  0
  -24.7106  -31.0372   22.0922 N   0  0  0  0  0  0
  -23.4194  -28.8117   23.3039 O   0  0  0  0  0  0
  -28.2760  -26.2189   20.1488 O   0  0  0  0  0  0
  -26.5653  -34.8906   22.4651 O   0  0  0  0  0  0
  -23.5520  -32.1335   23.7159 O   0  0  0  0  0  0
  -29.6205  -22.7366   20.1643 C   0  0  0  0  0  0
  -29.8206  -21.2891   20.0867 C   0  0  0  0  0  0
  -27.4104  -22.3802   20.8958 C   0  0  0  0  0  0
  -28.3893  -23.3658   20.5678 C   0  0  0  0  0  0
  -28.8266  -20.3053   20.4346 C   0  0  0  0  0  0
  -27.6054  -20.9503   20.8440 C   0  0  0  0  0  0
  -26.1545  -19.7561   22.4087 C   0  0  0  0  0  0
  -24.9969  -17.6680   23.3577 C   0  0  0  0  0  0
  -24.1462  -18.8470   23.7606 C   0  0  0  0  0  0
  -24.9358  -18.8918   22.4655 C   0  0  0  0  0  0
  -28.8966  -18.6627   20.2617 C   0  0  0  0  0  0
  -28.0907  -24.9350   20.9556 C   0  0  0  0  0  0
  -30.0947  -17.5655   20.5854 C   0  0  0  0  0  0
  -26.4791  -20.1604   21.1732 N   0  0  0  0  0  0
  -29.7807  -16.0279   20.5957 N   0  0  0  0  0  0
  -26.8135  -20.0569   23.4087 O   0  0  0  0  0  0
  -31.4760  -12.6705   19.1896 H   0  0  0  0  0  0
  -30.4027  -11.5743   20.0105 H   0  0  0  0  0  0
  -29.8206  -11.7237   17.5657 H   0  0  0  0  0  0
  -29.6202  -13.4538   17.6995 H   0  0  0  0  0  0
  -27.9203  -11.2780   18.9529 H   0  0  0  0  0  0
  -27.3851  -12.4801   17.8098 H   0  0  0  0  0  0
  -27.6075  -14.2515   19.4326 H   0  0  0  0  0  0
  -28.7431  -12.2580   21.4532 H   0  0  0  0  0  0
  -28.3909  -13.9397   21.7654 H   0  0  0  0  0  0
  -25.2761   -9.5699   22.4804 H   0  0  0  0  0  0
  -24.0005   -7.4652   22.7506 H   0  0  0  0  0  0
  -21.0851   -8.8770   19.8959 H   0  0  0  0  0  0
  -22.3700  -10.9690   19.6196 H   0  0  0  0  0  0
  -21.2006   -7.6149   23.9711 H   0  0  0  0  0  0
  -21.1497   -6.0534   25.9068 H   0  0  0  0  0  0
  -22.0606   -2.7610   23.2868 H   0  0  0  0  0  0
  -22.4214  -11.9970   22.4986 H   0  0  0  0  0  0
  -21.1169  -13.1299   22.2846 H   0  0  0  0  0  0
  -24.6323  -15.8341   20.4884 H   0  0  0  0  0  0
  -26.2404  -15.6269   20.0174 H   0  0  0  0  0  0
  -26.7241  -32.5341   23.1019 H   0  0  0  0  0  0
  -25.0067  -33.9638   25.0341 H   0  0  0  0  0  0
  -22.7425  -31.2905   21.3817 H   0  0  0  0  0  0
  -23.3764  -35.9592   23.3289 H   0  0  0  0  0  0
  -24.3590  -36.8898   22.2055 H   0  0  0  0  0  0
  -23.7253  -37.6457   23.6677 H   0  0  0  0  0  0
  -26.1367  -31.4943   20.6079 H   0  0  0  0  0  0
  -26.8679  -30.7942   22.0170 H   0  0  0  0  0  0
  -28.1432  -28.8594   21.2125 H   0  0  0  0  0  0
  -25.9634  -25.8405   19.0451 H   0  0  0  0  0  0
  -23.9808  -27.2811   19.0118 H   0  0  0  0  0  0
  -23.7970  -30.5639   19.3984 H   0  0  0  0  0  0
  -22.7831  -29.2274   19.8499 H   0  0  0  0  0  0
  -25.1310  -36.1878   25.0811 H   0  0  0  0  0  0
  -20.9992  -28.3298   24.1375 H   0  0  0  0  0  0
  -20.5666  -26.2328   23.3621 H   0  0  0  0  0  0
  -21.6650  -26.7436   22.1212 H   0  0  0  0  0  0
  -19.6934  -25.6290   21.1248 H   0  0  0  0  0  0
  -19.6697  -27.3182   20.6725 H   0  0  0  0  0  0
  -17.4209  -26.6664   21.4028 H   0  0  0  0  0  0
  -18.0357  -26.0074   22.9020 H   0  0  0  0  0  0
  -19.7950  -30.7277   24.2258 H   0  0  0  0  0  0
  -17.5025  -31.6269   24.5158 H   0  0  0  0  0  0
  -15.5361  -30.2983   23.7661 H   0  0  0  0  0  0
  -15.8682  -28.0809   22.7092 H   0  0  0  0  0  0
  -24.5922  -30.7057   25.7732 H   0  0  0  0  0  0
  -24.8897  -32.2907   26.4782 H   0  0  0  0  0  0
  -25.8031  -30.8945   27.0216 H   0  0  0  0  0  0
  -26.2979  -29.6706   24.1223 H   0  0  0  0  0  0
  -27.4002  -29.7235   25.4773 H   0  0  0  0  0  0
  -27.8878  -30.4214   23.9521 H   0  0  0  0  0  0
  -27.2678  -33.3621   26.2025 H   0  0  0  0  0  0
  -28.3901  -32.6838   25.0325 H   0  0  0  0  0  0
  -28.0711  -31.8449   26.5427 H   0  0  0  0  0  0
  -28.2588  -38.0090   24.7501 H   0  0  0  0  0  0
  -28.1087  -36.2621   24.6306 H   0  0  0  0  0  0
  -27.2297  -37.1444   25.8865 H   0  0  0  0  0  0
  -20.9457  -29.8743   21.6788 H   0  0  0  0  0  0
  -26.0166  -38.2817   24.1405 H   0  0  0  0  0  0
  -30.4588  -23.3776   19.9289 H   0  0  0  0  0  0
  -30.7819  -20.9336   19.7438 H   0  0  0  0  0  0
  -26.4540  -22.7396   21.2486 H   0  0  0  0  0  0
  -24.4994  -16.7712   22.9938 H   0  0  0  0  0  0
  -25.9095  -17.4883   23.9245 H   0  0  0  0  0  0
  -24.4900  -19.4462   24.6022 H   0  0  0  0  0  0
  -23.0659  -18.7527   23.6765 H   0  0  0  0  0  0
  -24.3700  -18.7877   21.5405 H   0  0  0  0  0  0
  -28.6008  -18.4898   19.2267 H   0  0  0  0  0  0
  -28.0619  -18.2686   20.8368 H   0  0  0  0  0  0
  -28.6985  -25.1013   21.8455 H   0  0  0  0  0  0
  -27.0700  -24.9541   21.3400 H   0  0  0  0  0  0
  -30.4904  -17.7938   21.5755 H   0  0  0  0  0  0
  -30.9222  -17.7379   19.8961 H   0  0  0  0  0  0
  -25.8883  -19.8523   20.4129 H   0  0  0  0  0  0
  -28.8106  -15.8133   20.7712 H   0  0  0  0  0  0
  1 25  1  0  0  0
  1 30  2  0  0  0
  1 85  1  0  0  0
  2  3  1  0  0  0
  2 25  1  0  0  0
  2 87  1  0  0  0
  2 88  1  0  0  0
  3  4  1  0  0  0
  3 89  1  0  0  0
  3 90  1  0  0  0
  4  5  1  0  0  0
  4 91  1  0  0  0
  4 92  1  0  0  0
  5  6  1  0  0  0
  5 26  1  0  0  0
  5 93  1  0  0  0
  6 25  1  0  0  0
  6 94  1  0  0  0
  6 95  1  0  0  0
  7  8  2  0  0  0
  7 26  1  0  0  0
  7 29  1  0  0  0
  8  9  1  0  0  0
  8 22  1  0  0  0
  9 10  1  0  0  0
  9 27  2  0  0  0
 10 11  2  0  0  0
 10 15  1  0  0  0
 11 12  1  0  0  0
 11 96  1  0  0  0
 12 13  2  0  0  0
 12 97  1  0  0  0
 13 14  1  0  0  0
 13 31  1  0  0  0
 14 15  2  0  0  0
 14 98  1  0  0  0
 15 99  1  0  0  0
 16 17  2  0  0  0
 16 21  1  0  0  0
 16 31  1  0  0  0
 17 18  1  0  0  0
 17100  1  0  0  0
 18 19  2  0  0  0
 18101  1  0  0  0
 19 20  1  0  0  0
 19 24  1  0  0  0
 20 21  2  0  0  0
 20102  1  0  0  0
 21 23  1  0  0  0
 22 28  1  0  0  0
 22 32  2  0  0  0
 26 27  1  0  0  0
 28103  1  0  0  0
 28104  1  0  0  0
 29105  1  0  0  0
 29106  1  0  0  0
 33 34  1  0  0  0
 33 66  1  0  0  0
 33 70  2  0  0  0
 34 36  1  0  0  0
 34 59  1  0  0  0
 34107  1  0  0  0
 35 44  2  0  0  0
 35 45  1  0  0  0
 35 68  1  0  0  0
 36 56  1  0  0  0
 36108  1  0  0  0
 37 39  1  0  0  0
 37 47  1  0  0  0
 37 66  1  0  0  0
 37109  1  0  0  0
 38 43  2  0  0  0
 38 46  1  0  0  0
 38 47  1  0  0  0
 39 64  1  0  0  0
 39 67  2  0  0  0
 40 52  1  0  0  0
 40 53  2  0  0  0
 40 58  1  0  0  0
 41110  1  0  0  0
 41111  1  0  0  0
 41112  1  0  0  0
 41 48  1  0  0  0
 42 43  1  0  0  0
 42 66  1  0  0  0
 42113  1  0  0  0
 42114  1  0  0  0
 43 44  1  0  0  0
 44115  1  0  0  0
 45 46  2  0  0  0
 45116  1  0  0  0
 46117  1  0  0  0
 47118  1  0  0  0
 47119  1  0  0  0
 48 56  1  0  0  0
 48 65  1  0  0  0
 48120  1  0  0  0
 49 50  1  0  0  0
 49 53  1  0  0  0
 49 64  1  0  0  0
 49121  1  0  0  0
 50 51  1  0  0  0
 50122  1  0  0  0
 50123  1  0  0  0
 51 52  1  0  0  0
 51124  1  0  0  0
 51125  1  0  0  0
 52126  1  0  0  0
 52127  1  0  0  0
 53 54  1  0  0  0
 54 55  2  0  0  0
 54128  1  0  0  0
 55 57  1  0  0  0
 55129  1  0  0  0
 56 69  2  0  0  0
 57 58  2  0  0  0
 57130  1  0  0  0
 58131  1  0  0  0
 59 60  1  0  0  0
 59 61  1  0  0  0
 59 62  1  0  0  0
 60132  1  0  0  0
 60133  1  0  0  0
 60134  1  0  0  0
 61135  1  0  0  0
 61136  1  0  0  0
 61137  1  0  0  0
 62138  1  0  0  0
 62139  1  0  0  0
 62140  1  0  0  0
 63 65  1  0  0  0
 63141  1  0  0  0
 63142  1  0  0  0
 63143  1  0  0  0
 64144  1  0  0  0
 65145  1  0  0  0
 68 82  1  0  0  0
 71 72  2  0  0  0
 71 74  1  0  0  0
 71146  1  0  0  0
 72 75  1  0  0  0
 72147  1  0  0  0
 73 74  2  0  0  0
 73 76  1  0  0  0
 73148  1  0  0  0
 74 82  1  0  0  0
 75 76  2  0  0  0
 75 81  1  0  0  0
 76 84  1  0  0  0
 77 84  1  0  0  0
 77 86  2  0  0  0
 77 80  1  0  0  0
 78 79  1  0  0  0
 78 80  1  0  0  0
 78149  1  0  0  0
 78150  1  0  0  0
 79 80  1  0  0  0
 79151  1  0  0  0
 79152  1  0  0  0
 80153  1  0  0  0
 81 83  1  0  0  0
 81154  1  0  0  0
 81155  1  0  0  0
 82156  1  0  0  0
 82157  1  0  0  0
 83 85  1  0  0  0
 83158  1  0  0  0
 83159  1  0  0  0
 84160  1  0  0  0
 85161  1  0  0  0
M  ISO  4   1 100  68 101  82 101  85 100
M  END
> <chiral flag>
0

> <version>
0

> <s_m_source_file>
/data/baiqing/PycharmProjects/Reinvent-master-3.2/result/LINK_invent/BTK/process_docking_weight1_custom_sum_contain_oxygen_bond_distance_aromatic_linkinvent_7_9_3/rearranged_h_0130.sdf

> <i_m_source_file_index>
42

> <r_mmod_Potential_Energy-OPLS-2005>
370.236572265625

> <r_mmod_Stretch_Energy-OPLS-2005>
195.496231079102

> <r_mmod_Bend_Energy-OPLS-2005>
253.452453613281

> <r_mmod_Torsional_Energy-OPLS-2005>
293.577484130859

> <r_mmod_Improper_Torsional_Energy-OPLS-2005>
7.16183805465698

> <r_mmod_Van_der_Waal_Energy-OPLS-2005>
127.941047668457

> <r_mmod_Electrostatic_Energy-OPLS-2005>
-414.471862792969

> <r_mmod_Solvation_Energy-OPLS-2005>
-239.540176391602

> <b_mmod_Minimization_Converged-OPLS-2005>
0

> <r_mmod_RMS_Derivative-OPLS-2005>
1.58819460868835

$$$$
42
                    3D
 Structure written by MMmdl.
168177  0  0  1  0            999 V2000
  -30.7056  -14.4427   20.5998 C   0  0  0  0  0  0
  -30.4232  -12.2927   19.4178 C   0  0  0  0  0  0
  -29.4933  -12.5132   18.2066 C   0  0  0  0  0  0
  -28.0140  -12.3785   18.6171 C   0  0  0  0  0  0
  -27.6680  -13.2037   19.8858 C   0  0  2  0  0  0
  -28.7080  -12.9529   21.0010 C   0  0  0  0  0  0
  -25.2607  -13.8156   20.5685 C   0  0  0  0  0  0
  -24.1853  -13.0424   20.9158 C   0  0  0  0  0  0
  -24.6415  -11.6896   20.8718 C   0  0  0  0  0  0
  -23.9081  -10.4286   21.0396 C   0  0  0  0  0  0
  -24.3627   -9.4197   21.9176 C   0  0  0  0  0  0
  -23.6298   -8.2237   22.0749 C   0  0  0  0  0  0
  -22.4276   -8.0281   21.3539 C   0  0  0  0  0  0
  -21.9925   -9.0252   20.4626 C   0  0  0  0  0  0
  -22.7252  -10.2136   20.3042 C   0  0  0  0  0  0
  -21.6858   -6.0733   22.5281 C   0  0  0  0  0  0
  -21.4022   -6.5640   23.8211 C   0  0  0  0  0  0
  -21.3655   -5.6795   24.9175 C   0  0  0  0  0  0
  -21.6041   -4.3053   24.7226 C   0  0  0  0  0  0
  -21.8825   -3.8141   23.4352 C   0  0  0  0  0  0
  -21.9190   -4.6957   22.3408 C   0  0  0  0  0  0
  -22.7875  -13.5206   21.1828 C   0  0  0  0  0  0
  -22.1654   -4.2140   21.0985 F   0  0  0  0  0  0
  -21.5631   -3.4534   25.7740 F   0  0  0  0  0  0
  -30.0426  -13.2619   20.4586 N   0  0  0  0  0  0
  -26.3054  -12.9322   20.3405 N   0  0  0  0  0  0
  -25.9343  -11.6480   20.5776 N   0  0  0  0  0  0
  -22.0545  -12.8169   22.0392 N   0  0  0  0  0  0
  -25.4342  -15.1872   20.4111 N   0  0  0  0  0  0
  -31.8101  -14.6445   20.0873 O   0  0  0  0  0  0
  -21.6640   -6.8878   21.4241 O   0  0  0  0  0  0
  -22.3540  -14.5505   20.6684 O   0  0  0  0  0  0
  -24.6123  -31.8671   23.2125 C   0  0  0  0  0  0
  -25.9014  -32.4825   23.8420 C   0  0  1  0  0  0
  -27.2393  -27.4458   20.1056 C   0  0  0  0  0  0
  -25.5870  -33.8630   24.2344 N   0  0  0  0  0  0
  -23.4018  -30.4893   21.5521 C   0  0  2  0  0  0
  -24.8512  -28.9489   20.1263 C   0  0  0  0  0  0
  -22.7400  -29.4648   22.5011 C   0  0  0  0  0  0
  -18.0259  -28.1390   22.8498 C   0  0  0  0  0  0
  -24.1480  -36.7323   23.2642 C   0  0  0  0  0  0
  -25.9276  -30.8374   21.3625 C   0  0  0  0  0  0
  -26.0086  -29.4671   20.7218 C   0  0  0  0  0  0
  -27.2084  -28.7222   20.7102 C   0  0  0  0  0  0
  -26.0696  -26.9343   19.5090 C   0  0  0  0  0  0
  -24.8739  -27.6800   19.5204 C   0  0  0  0  0  0
  -23.6122  -29.8160   20.1693 C   0  0  0  0  0  0
  -25.4103  -36.3118   24.0337 C   0  0  1  0  0  0
  -20.5848  -28.3668   23.1340 C   0  0  2  0  0  0
  -20.6746  -26.9404   22.5435 C   0  0  0  0  0  0
  -19.5729  -26.6391   21.5222 C   0  0  0  0  0  0
  -18.1906  -26.7936   22.1629 C   0  0  0  0  0  0
  -19.1506  -28.8848   23.2915 C   0  0  0  0  0  0
  -18.9435  -30.1451   23.8928 C   0  0  0  0  0  0
  -17.6438  -30.6598   24.0569 C   0  0  0  0  0  0
  -25.9027  -34.9478   23.5140 C   0  0  0  0  0  0
  -16.5331  -29.9101   23.6331 C   0  0  0  0  0  0
  -16.7249  -28.6520   23.0350 C   0  0  0  0  0  0
  -26.4465  -31.6607   25.0740 C   0  0  0  0  0  0
  -25.3734  -31.3663   26.1476 C   0  0  0  0  0  0
  -27.0318  -30.3073   24.6078 C   0  0  0  0  0  0
  -27.6025  -32.4341   25.7515 C   0  0  0  0  0  0
  -27.5582  -37.1818   24.8467 C   0  0  0  0  0  0
  -21.4128  -29.3034   22.3752 N   0  0  0  0  0  0
  -26.4293  -37.3795   23.9410 N   0  0  0  0  0  0
  -24.6657  -31.0784   22.1021 N   0  0  0  0  0  0
  -23.4179  -28.8170   23.3036 O   0  0  0  0  0  0
  -28.4145  -26.7434   20.0045 O   0  0  0  0  0  0
  -26.5607  -34.8918   22.4715 O   0  0  0  0  0  0
  -23.5317  -32.1409   23.7517 O   0  0  0  0  0  0
  -31.0904  -18.9389   20.4501 C   0  0  0  0  0  0
  -29.2513  -18.9759   22.0305 C   0  0  0  0  0  0
  -31.0759  -17.5278   20.4566 C   0  0  0  0  0  0
  -29.2393  -17.5632   22.0417 C   0  0  0  0  0  0
  -30.1779  -19.6821   21.2313 C   0  0  0  0  0  0
  -30.1459  -16.8160   21.2542 C   0  0  0  0  0  0
  -30.3432  -21.9153   22.5440 C   0  0  0  0  0  0
  -29.5720  -23.2324   22.3670 C   0  0  0  0  0  0
  -30.2174  -21.2175   21.1915 C   0  0  2  0  0  0
  -29.0077  -21.9269   20.5447 C   0  0  2  0  0  0
  -29.9179  -22.3864   18.1407 C   0  0  0  0  0  0
  -28.2586  -24.3427   20.6198 C   0  0  0  0  0  0
  -28.6884  -25.7801   21.0246 C   0  0  0  0  0  0
  -28.8750  -21.6586   19.0152 C   0  0  2  0  0  0
  -29.2795  -23.3249   20.9320 N   0  0  0  0  0  0
  -30.0317  -15.3885   21.2880 N   0  0  0  0  0  0
  -27.5011  -21.9211   18.5467 N   0  3  0  0  0  0
  -31.4676  -12.3862   19.1144 H   0  0  0  0  0  0
  -30.3178  -11.2755   19.7989 H   0  0  0  0  0  0
  -29.7250  -11.7993   17.4149 H   0  0  0  0  0  0
  -29.6686  -13.5055   17.7862 H   0  0  0  0  0  0
  -27.8122  -11.3219   18.7962 H   0  0  0  0  0  0
  -27.3657  -12.6737   17.7904 H   0  0  0  0  0  0
  -27.7225  -14.2567   19.6076 H   0  0  0  0  0  0
  -28.6800  -11.9079   21.3125 H   0  0  0  0  0  0
  -28.4646  -13.5209   21.8988 H   0  0  0  0  0  0
  -25.2785   -9.5649   22.4731 H   0  0  0  0  0  0
  -23.9991   -7.4625   22.7484 H   0  0  0  0  0  0
  -21.0850   -8.8766   19.8928 H   0  0  0  0  0  0
  -22.3713  -10.9670   19.6132 H   0  0  0  0  0  0
  -21.2036   -7.6153   23.9698 H   0  0  0  0  0  0
  -21.1467   -6.0540   25.9074 H   0  0  0  0  0  0
  -22.0614   -2.7602   23.2861 H   0  0  0  0  0  0
  -22.4208  -11.9813   22.4717 H   0  0  0  0  0  0
  -21.1152  -13.1130   22.2651 H   0  0  0  0  0  0
  -24.6714  -15.8456   20.5253 H   0  0  0  0  0  0
  -26.2973  -15.6237   20.1104 H   0  0  0  0  0  0
  -26.7093  -32.5560   23.1200 H   0  0  0  0  0  0
  -25.0017  -33.9801   25.0490 H   0  0  0  0  0  0
  -22.6900  -31.3053   21.4105 H   0  0  0  0  0  0
  -23.3737  -35.9660   23.3305 H   0  0  0  0  0  0
  -24.3566  -36.8943   22.2056 H   0  0  0  0  0  0
  -23.7237  -37.6528   23.6666 H   0  0  0  0  0  0
  -26.0291  -31.5972   20.5863 H   0  0  0  0  0  0
  -26.8209  -30.9042   21.9724 H   0  0  0  0  0  0
  -28.1106  -29.1257   21.1478 H   0  0  0  0  0  0
  -26.0867  -25.9699   19.0226 H   0  0  0  0  0  0
  -23.9825  -27.2785   19.0577 H   0  0  0  0  0  0
  -23.7236  -30.5878   19.4067 H   0  0  0  0  0  0
  -22.7386  -29.2322   19.8744 H   0  0  0  0  0  0
  -25.1275  -36.1987   25.0826 H   0  0  0  0  0  0
  -20.9941  -28.3220   24.1460 H   0  0  0  0  0  0
  -20.5649  -26.2264   23.3608 H   0  0  0  0  0  0
  -21.6616  -26.7439   22.1228 H   0  0  0  0  0  0
  -19.6887  -25.6309   21.1237 H   0  0  0  0  0  0
  -19.6675  -27.3205   20.6750 H   0  0  0  0  0  0
  -17.4175  -26.6690   21.4031 H   0  0  0  0  0  0
  -18.0306  -26.0085   22.9028 H   0  0  0  0  0  0
  -19.7901  -30.7258   24.2324 H   0  0  0  0  0  0
  -17.4987  -31.6273   24.5180 H   0  0  0  0  0  0
  -15.5335  -30.3012   23.7640 H   0  0  0  0  0  0
  -15.8646  -28.0846   22.7063 H   0  0  0  0  0  0
  -24.5938  -30.6977   25.7797 H   0  0  0  0  0  0
  -24.8882  -32.2792   26.4939 H   0  0  0  0  0  0
  -25.8094  -30.8834   27.0228 H   0  0  0  0  0  0
  -26.2862  -29.6834   24.1127 H   0  0  0  0  0  0
  -27.4127  -29.7291   25.4508 H   0  0  0  0  0  0
  -27.8668  -30.4439   23.9198 H   0  0  0  0  0  0
  -27.2627  -33.3624   26.2119 H   0  0  0  0  0  0
  -28.3824  -32.6928   25.0343 H   0  0  0  0  0  0
  -28.0711  -31.8459   26.5416 H   0  0  0  0  0  0
  -28.2585  -38.0129   24.7526 H   0  0  0  0  0  0
  -28.1091  -36.2654   24.6286 H   0  0  0  0  0  0
  -27.2296  -37.1465   25.8870 H   0  0  0  0  0  0
  -20.9291  -29.8784   21.6995 H   0  0  0  0  0  0
  -26.0180  -38.2866   24.1431 H   0  0  0  0  0  0
  -31.8138  -19.4495   19.8280 H   0  0  0  0  0  0
  -28.5415  -19.5106   22.6454 H   0  0  0  0  0  0
  -31.7896  -17.0213   19.8251 H   0  0  0  0  0  0
  -28.5148  -17.0550   22.6635 H   0  0  0  0  0  0
  -29.8935  -21.3390   23.3528 H   0  0  0  0  0  0
  -31.3891  -22.0836   22.8040 H   0  0  0  0  0  0
  -30.1463  -24.0875   22.7267 H   0  0  0  0  0  0
  -28.6421  -23.1928   22.9398 H   0  0  0  0  0  0
  -31.1082  -21.4964   20.6260 H   0  0  0  0  0  0
  -28.1045  -21.5827   21.0540 H   0  0  0  0  0  0
  -30.9338  -22.1468   18.4496 H   0  0  0  0  0  0
  -29.8085  -23.4689   18.1880 H   0  0  0  0  0  0
  -29.8261  -22.0917   17.0956 H   0  0  0  0  0  0
  -28.0870  -24.3439   19.5449 H   0  0  0  0  0  0
  -27.3036  -24.0929   21.0850 H   0  0  0  0  0  0
  -29.7689  -25.8183   21.1729 H   0  0  0  0  0  0
  -28.2440  -26.0649   21.9805 H   0  0  0  0  0  0
  -29.0190  -20.5871   18.8627 H   0  0  0  0  0  0
  -29.2126  -15.0333   21.7570 H   0  0  0  0  0  0
  -27.2658  -22.8925   18.6289 H   0  0  0  0  0  0
  -26.8414  -21.3863   19.0856 H   0  0  0  0  0  0
  -27.3995  -21.6494   17.5845 H   0  0  0  0  0  0
  1 25  1  0  0  0
  1 30  2  0  0  0
  1 86  1  0  0  0
  2  3  1  0  0  0
  2 25  1  0  0  0
  2 88  1  0  0  0
  2 89  1  0  0  0
  3  4  1  0  0  0
  3 90  1  0  0  0
  3 91  1  0  0  0
  4  5  1  0  0  0
  4 92  1  0  0  0
  4 93  1  0  0  0
  5  6  1  0  0  0
  5 26  1  0  0  0
  5 94  1  0  0  0
  6 25  1  0  0  0
  6 95  1  0  0  0
  6 96  1  0  0  0
  7  8  2  0  0  0
  7 26  1  0  0  0
  7 29  1  0  0  0
  8  9  1  0  0  0
  8 22  1  0  0  0
  9 10  1  0  0  0
  9 27  2  0  0  0
 10 11  2  0  0  0
 10 15  1  0  0  0
 11 12  1  0  0  0
 11 97  1  0  0  0
 12 13  2  0  0  0
 12 98  1  0  0  0
 13 14  1  0  0  0
 13 31  1  0  0  0
 14 15  2  0  0  0
 14 99  1  0  0  0
 15100  1  0  0  0
 16 17  2  0  0  0
 16 21  1  0  0  0
 16 31  1  0  0  0
 17 18  1  0  0  0
 17101  1  0  0  0
 18 19  2  0  0  0
 18102  1  0  0  0
 19 20  1  0  0  0
 19 24  1  0  0  0
 20 21  2  0  0  0
 20103  1  0  0  0
 21 23  1  0  0  0
 22 28  1  0  0  0
 22 32  2  0  0  0
 26 27  1  0  0  0
 28104  1  0  0  0
 28105  1  0  0  0
 29106  1  0  0  0
 29107  1  0  0  0
 33 34  1  0  0  0
 33 66  1  0  0  0
 33 70  2  0  0  0
 34 36  1  0  0  0
 34 59  1  0  0  0
 34108  1  0  0  0
 35 44  2  0  0  0
 35 45  1  0  0  0
 35 68  1  0  0  0
 36 56  1  0  0  0
 36109  1  0  0  0
 37 39  1  0  0  0
 37 47  1  0  0  0
 37 66  1  0  0  0
 37110  1  0  0  0
 38 43  2  0  0  0
 38 46  1  0  0  0
 38 47  1  0  0  0
 39 64  1  0  0  0
 39 67  2  0  0  0
 40 52  1  0  0  0
 40 53  2  0  0  0
 40 58  1  0  0  0
 41111  1  0  0  0
 41112  1  0  0  0
 41113  1  0  0  0
 41 48  1  0  0  0
 42 43  1  0  0  0
 42 66  1  0  0  0
 42114  1  0  0  0
 42115  1  0  0  0
 43 44  1  0  0  0
 44116  1  0  0  0
 45 46  2  0  0  0
 45117  1  0  0  0
 46118  1  0  0  0
 47119  1  0  0  0
 47120  1  0  0  0
 48 56  1  0  0  0
 48 65  1  0  0  0
 48121  1  0  0  0
 49 50  1  0  0  0
 49 53  1  0  0  0
 49 64  1  0  0  0
 49122  1  0  0  0
 50 51  1  0  0  0
 50123  1  0  0  0
 50124  1  0  0  0
 51 52  1  0  0  0
 51125  1  0  0  0
 51126  1  0  0  0
 52127  1  0  0  0
 52128  1  0  0  0
 53 54  1  0  0  0
 54 55  2  0  0  0
 54129  1  0  0  0
 55 57  1  0  0  0
 55130  1  0  0  0
 56 69  2  0  0  0
 57 58  2  0  0  0
 57131  1  0  0  0
 58132  1  0  0  0
 59 60  1  0  0  0
 59 61  1  0  0  0
 59 62  1  0  0  0
 60133  1  0  0  0
 60134  1  0  0  0
 60135  1  0  0  0
 61136  1  0  0  0
 61137  1  0  0  0
 61138  1  0  0  0
 62139  1  0  0  0
 62140  1  0  0  0
 62141  1  0  0  0
 63 65  1  0  0  0
 63142  1  0  0  0
 63143  1  0  0  0
 63144  1  0  0  0
 64145  1  0  0  0
 65146  1  0  0  0
 68 83  1  0  0  0
 71 73  2  0  0  0
 71 75  1  0  0  0
 71147  1  0  0  0
 72 74  1  0  0  0
 72 75  2  0  0  0
 72148  1  0  0  0
 73 76  1  0  0  0
 73149  1  0  0  0
 74 76  2  0  0  0
 74150  1  0  0  0
 75 79  1  0  0  0
 76 86  1  0  0  0
 77 78  1  0  0  0
 77 79  1  0  0  0
 77151  1  0  0  0
 77152  1  0  0  0
 78 85  1  0  0  0
 78153  1  0  0  0
 78154  1  0  0  0
 79 80  1  0  0  0
 79155  1  0  0  0
 80 84  1  0  0  0
 80 85  1  0  0  0
 80156  1  0  0  0
 81157  1  0  0  0
 81158  1  0  0  0
 81159  1  0  0  0
 81 84  1  0  0  0
 82 83  1  0  0  0
 82 85  1  0  0  0
 82160  1  0  0  0
 82161  1  0  0  0
 83162  1  0  0  0
 83163  1  0  0  0
 84 87  1  0  0  0
 84164  1  0  0  0
 86165  1  0  0  0
 87166  1  0  0  0
 87167  1  0  0  0
 87168  1  0  0  0
M  CHG  1  87   1
M  ISO  4   1 100  68 101  83 101  86 100
M  END
> <chiral flag>
0

> <version>
0

> <s_m_source_file>
/data/baiqing/PycharmProjects/Reinvent-master-3.2/result/LINK_invent/BTK/process_docking_weight1_custom_sum_contain_oxygen_bond_distance_aromatic_linkinvent_7_9_3/rearranged_h_0130.sdf

> <i_m_source_file_index>
43

> <r_mmod_Potential_Energy-OPLS-2005>
-149.870346069336

> <r_mmod_Stretch_Energy-OPLS-2005>
39.9606094360352

> <r_mmod_Bend_Energy-OPLS-2005>
137.676040649414

> <r_mmod_Torsional_Energy-OPLS-2005>
304.265350341797

> <r_mmod_Improper_Torsional_Energy-OPLS-2005>
2.87871718406677

> <r_mmod_Van_der_Waal_Energy-OPLS-2005>
148.614379882812

> <r_mmod_Electrostatic_Energy-OPLS-2005>
-308.475219726562

> <r_mmod_Solvation_Energy-OPLS-2005>
-483.385803222656

> <b_mmod_Minimization_Converged-OPLS-2005>
0

> <r_mmod_RMS_Derivative-OPLS-2005>
2.01413536071777

$$$$
43
                    3D
 Structure written by MMmdl.
163171  0  0  1  0            999 V2000
  -30.6510  -14.7442   20.4804 C   0  0  0  0  0  0
  -30.4322  -12.4564   19.4927 C   0  0  0  0  0  0
  -29.5192  -12.5069   18.2489 C   0  0  0  0  0  0
  -28.0467  -12.3284   18.6611 C   0  0  0  0  0  0
  -27.6476  -13.2364   19.8557 C   0  0  2  0  0  0
  -28.6900  -13.1921   20.9970 C   0  0  0  0  0  0
  -25.2547  -13.8209   20.5697 C   0  0  0  0  0  0
  -24.1837  -13.0454   20.9205 C   0  0  0  0  0  0
  -24.6432  -11.6934   20.8768 C   0  0  0  0  0  0
  -23.9109  -10.4303   21.0421 C   0  0  0  0  0  0
  -24.3644   -9.4209   21.9201 C   0  0  0  0  0  0
  -23.6303   -8.2252   22.0765 C   0  0  0  0  0  0
  -22.4283   -8.0301   21.3557 C   0  0  0  0  0  0
  -21.9937   -9.0280   20.4656 C   0  0  0  0  0  0
  -22.7283  -10.2151   20.3063 C   0  0  0  0  0  0
  -21.6857   -6.0750   22.5280 C   0  0  0  0  0  0
  -21.4018   -6.5647   23.8215 C   0  0  0  0  0  0
  -21.3658   -5.6796   24.9174 C   0  0  0  0  0  0
  -21.6034   -4.3059   24.7221 C   0  0  0  0  0  0
  -21.8823   -3.8158   23.4343 C   0  0  0  0  0  0
  -21.9188   -4.6977   22.3400 C   0  0  0  0  0  0
  -22.7851  -13.5241   21.1846 C   0  0  0  0  0  0
  -22.1661   -4.2162   21.0978 F   0  0  0  0  0  0
  -21.5622   -3.4537   25.7732 F   0  0  0  0  0  0
  -29.9966  -13.5316   20.4198 N   0  0  0  0  0  0
  -26.2982  -12.9427   20.3300 N   0  0  0  0  0  0
  -25.9368  -11.6569   20.5777 N   0  0  0  0  0  0
  -22.0465  -12.8233   22.0381 N   0  0  0  0  0  0
  -25.4226  -15.1932   20.4093 N   0  0  0  0  0  0
  -31.8194  -14.8122   20.0969 O   0  0  0  0  0  0
  -21.6644   -6.8902   21.4248 O   0  0  0  0  0  0
  -22.3547  -14.5542   20.6687 O   0  0  0  0  0  0
  -24.6343  -31.8579   23.2039 C   0  0  0  0  0  0
  -25.9167  -32.4781   23.8373 C   0  0  1  0  0  0
  -27.2056  -27.2341   20.1079 C   0  0  0  0  0  0
  -25.5958  -33.8574   24.2289 N   0  0  0  0  0  0
  -23.4303  -30.4848   21.5531 C   0  0  2  0  0  0
  -24.8724  -28.9416   20.1166 C   0  0  0  0  0  0
  -22.7518  -29.4613   22.4970 C   0  0  0  0  0  0
  -18.0286  -28.1383   22.8473 C   0  0  0  0  0  0
  -24.1482  -36.7283   23.2629 C   0  0  0  0  0  0
  -25.9827  -30.7568   21.3965 C   0  0  0  0  0  0
  -26.0485  -29.3770   20.7395 C   0  0  0  0  0  0
  -27.2117  -28.5315   20.7383 C   0  0  0  0  0  0
  -26.0162  -26.9205   19.4126 C   0  0  0  0  0  0
  -24.8647  -27.7204   19.4428 C   0  0  0  0  0  0
  -23.6471  -29.8316   20.1671 C   0  0  0  0  0  0
  -25.4106  -36.3074   24.0322 C   0  0  1  0  0  0
  -20.5889  -28.3704   23.1251 C   0  0  2  0  0  0
  -20.6767  -26.9424   22.5400 C   0  0  0  0  0  0
  -19.5745  -26.6382   21.5203 C   0  0  0  0  0  0
  -18.1921  -26.7926   22.1608 C   0  0  0  0  0  0
  -19.1534  -28.8864   23.2859 C   0  0  0  0  0  0
  -18.9457  -30.1452   23.8900 C   0  0  0  0  0  0
  -17.6458  -30.6584   24.0560 C   0  0  0  0  0  0
  -25.9063  -34.9443   23.5098 C   0  0  0  0  0  0
  -16.5355  -29.9075   23.6331 C   0  0  0  0  0  0
  -16.7276  -28.6491   23.0361 C   0  0  0  0  0  0
  -26.4526  -31.6583   25.0761 C   0  0  0  0  0  0
  -25.3725  -31.3736   26.1469 C   0  0  0  0  0  0
  -27.0345  -30.2974   24.6254 C   0  0  0  0  0  0
  -27.6095  -32.4303   25.7534 C   0  0  0  0  0  0
  -27.5575  -37.1800   24.8468 C   0  0  0  0  0  0
  -21.4231  -29.3042   22.3666 N   0  0  0  0  0  0
  -26.4284  -37.3768   23.9413 N   0  0  0  0  0  0
  -24.7017  -31.0503   22.1063 N   0  0  0  0  0  0
  -23.4198  -28.8128   23.3070 O   0  0  0  0  0  0
  -28.2954  -26.3148   20.1319 O   0  0  0  0  0  0
  -26.5637  -34.8902   22.4672 O   0  0  0  0  0  0
  -23.5488  -32.1426   23.7320 O   0  0  0  0  0  0
  -27.6586  -22.6878   19.6908 C   0  0  0  0  0  0
  -27.3444  -24.0501   19.4146 C   0  0  0  0  0  0
  -28.7546  -22.6042   20.4995 C   0  0  0  0  0  0
  -28.1953  -24.8929   20.0985 C   0  0  0  0  0  0
  -29.9906  -25.4424   22.5661 C   0  0  0  0  0  0
  -31.3745  -24.9528   20.4865 C   0  0  0  0  0  0
  -31.6280  -17.6943   21.3688 C   0  0  0  0  0  0
  -29.3568  -21.2666   21.1191 C   0  0  0  0  0  0
  -29.2821  -18.5744   20.8585 C   0  0  0  0  0  0
  -30.3110  -24.4227   21.4616 C   0  0  0  0  0  0
  -30.3523  -17.3817   20.5554 C   0  0  2  0  0  0
  -29.1204  -23.9867   20.7259 N   0  0  0  0  0  0
  -29.9438  -15.9073   20.7787 N   0  0  0  0  0  0
  -29.5160  -19.9884   20.2737 N   0  3  0  0  0  0
  -31.4769  -12.5581   19.1953 H   0  0  0  0  0  0
  -30.3608  -11.4841   19.9830 H   0  0  0  0  0  0
  -29.8067  -11.7292   17.5401 H   0  0  0  0  0  0
  -29.6490  -13.4581   17.7311 H   0  0  0  0  0  0
  -27.9112  -11.2811   18.9339 H   0  0  0  0  0  0
  -27.3903  -12.5078   17.8088 H   0  0  0  0  0  0
  -27.6398  -14.2545   19.4667 H   0  0  0  0  0  0
  -28.7229  -12.2056   21.4614 H   0  0  0  0  0  0
  -28.4222  -13.8927   21.7898 H   0  0  0  0  0  0
  -25.2788   -9.5670   22.4784 H   0  0  0  0  0  0
  -23.9995   -7.4643   22.7491 H   0  0  0  0  0  0
  -21.0867   -8.8826   19.8958 H   0  0  0  0  0  0
  -22.3766  -10.9701   19.6172 H   0  0  0  0  0  0
  -21.2025   -7.6156   23.9728 H   0  0  0  0  0  0
  -21.1470   -6.0522   25.9077 H   0  0  0  0  0  0
  -22.0601   -2.7620   23.2837 H   0  0  0  0  0  0
  -22.4056  -11.9890   22.4783 H   0  0  0  0  0  0
  -21.1080  -13.1282   22.2547 H   0  0  0  0  0  0
  -24.6503  -15.8435   20.5105 H   0  0  0  0  0  0
  -26.2594  -15.6279   20.0428 H   0  0  0  0  0  0
  -26.7228  -32.5429   23.1107 H   0  0  0  0  0  0
  -25.0129  -33.9727   25.0451 H   0  0  0  0  0  0
  -22.7282  -31.3099   21.4150 H   0  0  0  0  0  0
  -23.3765  -35.9604   23.3309 H   0  0  0  0  0  0
  -24.3561  -36.8901   22.2042 H   0  0  0  0  0  0
  -23.7204  -37.6475   23.6642 H   0  0  0  0  0  0
  -26.1233  -31.5154   20.6245 H   0  0  0  0  0  0
  -26.8581  -30.8068   22.0311 H   0  0  0  0  0  0
  -28.1083  -28.8587   21.2450 H   0  0  0  0  0  0
  -25.9206  -26.0660   18.7867 H   0  0  0  0  0  0
  -23.9818  -27.3991   18.9071 H   0  0  0  0  0  0
  -23.7755  -30.6159   19.4200 H   0  0  0  0  0  0
  -22.7622  -29.2739   19.8551 H   0  0  0  0  0  0
  -25.1273  -36.1950   25.0813 H   0  0  0  0  0  0
  -20.9961  -28.3305   24.1377 H   0  0  0  0  0  0
  -20.5633  -26.2336   23.3616 H   0  0  0  0  0  0
  -21.6639  -26.7453   22.1205 H   0  0  0  0  0  0
  -19.6918  -25.6298   21.1212 H   0  0  0  0  0  0
  -19.6653  -27.3217   20.6754 H   0  0  0  0  0  0
  -17.4176  -26.6677   21.4019 H   0  0  0  0  0  0
  -18.0349  -26.0081   22.9019 H   0  0  0  0  0  0
  -19.7940  -30.7243   24.2290 H   0  0  0  0  0  0
  -17.5018  -31.6268   24.5153 H   0  0  0  0  0  0
  -15.5349  -30.2966   23.7639 H   0  0  0  0  0  0
  -15.8688  -28.0782   22.7094 H   0  0  0  0  0  0
  -24.5978  -30.6995   25.7796 H   0  0  0  0  0  0
  -24.8822  -32.2890   26.4789 H   0  0  0  0  0  0
  -25.8032  -30.9015   27.0307 H   0  0  0  0  0  0
  -26.2918  -29.6761   24.1232 H   0  0  0  0  0  0
  -27.3946  -29.7198   25.4780 H   0  0  0  0  0  0
  -27.8854  -30.4223   23.9551 H   0  0  0  0  0  0
  -27.2750  -33.3644   26.2054 H   0  0  0  0  0  0
  -28.3942  -32.6782   25.0375 H   0  0  0  0  0  0
  -28.0718  -31.8448   26.5493 H   0  0  0  0  0  0
  -28.2595  -38.0099   24.7511 H   0  0  0  0  0  0
  -28.1057  -36.2622   24.6291 H   0  0  0  0  0  0
  -27.2290  -37.1451   25.8870 H   0  0  0  0  0  0
  -20.9447  -29.8771   21.6861 H   0  0  0  0  0  0
  -26.0194  -38.2847   24.1432 H   0  0  0  0  0  0
  -27.1061  -21.8363   19.3194 H   0  0  0  0  0  0
  -26.5391  -24.2891   18.7480 H   0  0  0  0  0  0
  -30.8673  -25.6208   23.1910 H   0  0  0  0  0  0
  -29.1876  -25.0871   23.2108 H   0  0  0  0  0  0
  -29.6938  -26.4091   22.1640 H   0  0  0  0  0  0
  -32.2866  -25.2394   21.0114 H   0  0  0  0  0  0
  -31.0166  -25.8274   19.9431 H   0  0  0  0  0  0
  -31.6443  -24.1993   19.7456 H   0  0  0  0  0  0
  -31.9570  -18.7235   21.2231 H   0  0  0  0  0  0
  -32.4661  -17.0598   21.0860 H   0  0  0  0  0  0
  -31.4602  -17.5602   22.4383 H   0  0  0  0  0  0
  -28.7216  -21.0043   21.9660 H   0  0  0  0  0  0
  -30.3344  -21.4587   21.5578 H   0  0  0  0  0  0
  -29.1577  -18.6647   21.9381 H   0  0  0  0  0  0
  -28.3061  -18.2546   20.4914 H   0  0  0  0  0  0
  -30.7334  -23.5546   21.9640 H   0  0  0  0  0  0
  -30.6046  -17.4463   19.4952 H   0  0  0  0  0  0
  -28.9929  -15.7540   21.0789 H   0  0  0  0  0  0
  -30.4292  -20.0228   19.8527 H   0  0  0  0  0  0
  -28.8648  -20.0720   19.5126 H   0  0  0  0  0  0
  1 25  1  0  0  0
  1 30  2  0  0  0
  1 83  1  0  0  0
  2  3  1  0  0  0
  2 25  1  0  0  0
  2 85  1  0  0  0
  2 86  1  0  0  0
  3  4  1  0  0  0
  3 87  1  0  0  0
  3 88  1  0  0  0
  4  5  1  0  0  0
  4 89  1  0  0  0
  4 90  1  0  0  0
  5  6  1  0  0  0
  5 26  1  0  0  0
  5 91  1  0  0  0
  6 25  1  0  0  0
  6 92  1  0  0  0
  6 93  1  0  0  0
  7  8  2  0  0  0
  7 26  1  0  0  0
  7 29  1  0  0  0
  8  9  1  0  0  0
  8 22  1  0  0  0
  9 10  1  0  0  0
  9 27  2  0  0  0
 10 11  2  0  0  0
 10 15  1  0  0  0
 11 12  1  0  0  0
 11 94  1  0  0  0
 12 13  2  0  0  0
 12 95  1  0  0  0
 13 14  1  0  0  0
 13 31  1  0  0  0
 14 15  2  0  0  0
 14 96  1  0  0  0
 15 97  1  0  0  0
 16 17  2  0  0  0
 16 21  1  0  0  0
 16 31  1  0  0  0
 17 18  1  0  0  0
 17 98  1  0  0  0
 18 19  2  0  0  0
 18 99  1  0  0  0
 19 20  1  0  0  0
 19 24  1  0  0  0
 20 21  2  0  0  0
 20100  1  0  0  0
 21 23  1  0  0  0
 22 28  1  0  0  0
 22 32  2  0  0  0
 26 27  1  0  0  0
 28101  1  0  0  0
 28102  1  0  0  0
 29103  1  0  0  0
 29104  1  0  0  0
 33 34  1  0  0  0
 33 66  1  0  0  0
 33 70  2  0  0  0
 34 36  1  0  0  0
 34 59  1  0  0  0
 34105  1  0  0  0
 35 44  2  0  0  0
 35 45  1  0  0  0
 35 68  1  0  0  0
 36 56  1  0  0  0
 36106  1  0  0  0
 37 39  1  0  0  0
 37 47  1  0  0  0
 37 66  1  0  0  0
 37107  1  0  0  0
 38 43  2  0  0  0
 38 46  1  0  0  0
 38 47  1  0  0  0
 39 64  1  0  0  0
 39 67  2  0  0  0
 40 52  1  0  0  0
 40 53  2  0  0  0
 40 58  1  0  0  0
 41108  1  0  0  0
 41109  1  0  0  0
 41110  1  0  0  0
 41 48  1  0  0  0
 42 43  1  0  0  0
 42 66  1  0  0  0
 42111  1  0  0  0
 42112  1  0  0  0
 43 44  1  0  0  0
 44113  1  0  0  0
 45 46  2  0  0  0
 45114  1  0  0  0
 46115  1  0  0  0
 47116  1  0  0  0
 47117  1  0  0  0
 48 56  1  0  0  0
 48 65  1  0  0  0
 48118  1  0  0  0
 49 50  1  0  0  0
 49 53  1  0  0  0
 49 64  1  0  0  0
 49119  1  0  0  0
 50 51  1  0  0  0
 50120  1  0  0  0
 50121  1  0  0  0
 51 52  1  0  0  0
 51122  1  0  0  0
 51123  1  0  0  0
 52124  1  0  0  0
 52125  1  0  0  0
 53 54  1  0  0  0
 54 55  2  0  0  0
 54126  1  0  0  0
 55 57  1  0  0  0
 55127  1  0  0  0
 56 69  2  0  0  0
 57 58  2  0  0  0
 57128  1  0  0  0
 58129  1  0  0  0
 59 60  1  0  0  0
 59 61  1  0  0  0
 59 62  1  0  0  0
 60130  1  0  0  0
 60131  1  0  0  0
 60132  1  0  0  0
 61133  1  0  0  0
 61134  1  0  0  0
 61135  1  0  0  0
 62136  1  0  0  0
 62137  1  0  0  0
 62138  1  0  0  0
 63 65  1  0  0  0
 63139  1  0  0  0
 63140  1  0  0  0
 63141  1  0  0  0
 64142  1  0  0  0
 65143  1  0  0  0
 68 74  1  0  0  0
 71 72  1  0  0  0
 71 73  2  0  0  0
 71144  1  0  0  0
 72 74  2  0  0  0
 72145  1  0  0  0
 73 78  1  0  0  0
 73 82  1  0  0  0
 74 82  1  0  0  0
 75146  1  0  0  0
 75147  1  0  0  0
 75148  1  0  0  0
 75 80  1  0  0  0
 76 80  1  0  0  0
 76149  1  0  0  0
 76150  1  0  0  0
 76151  1  0  0  0
 77152  1  0  0  0
 77153  1  0  0  0
 77154  1  0  0  0
 77 81  1  0  0  0
 78 84  1  0  0  0
 78155  1  0  0  0
 78156  1  0  0  0
 79 81  1  0  0  0
 79 84  1  0  0  0
 79157  1  0  0  0
 79158  1  0  0  0
 80 82  1  0  0  0
 80159  1  0  0  0
 81 83  1  0  0  0
 81160  1  0  0  0
 83161  1  0  0  0
 84162  1  0  0  0
 84163  1  0  0  0
M  CHG  1  84   1
M  ISO  4   1 100  68 101  74 101  83 100
M  END
> <chiral flag>
0

> <version>
0

> <s_m_source_file>
/data/baiqing/PycharmProjects/Reinvent-master-3.2/result/LINK_invent/BTK/process_docking_weight1_custom_sum_contain_oxygen_bond_distance_aromatic_linkinvent_7_9_3/rearranged_h_0130.sdf

> <i_m_source_file_index>
44

> <r_mmod_Potential_Energy-OPLS-2005>
-9.20112133026123

> <r_mmod_Stretch_Energy-OPLS-2005>
138.328262329102

> <r_mmod_Bend_Energy-OPLS-2005>
187.005569458008

> <r_mmod_Torsional_Energy-OPLS-2005>
251.221069335938

> <r_mmod_Improper_Torsional_Energy-OPLS-2005>
5.04503393173218

> <r_mmod_Van_der_Waal_Energy-OPLS-2005>
125.51392364502

> <r_mmod_Electrostatic_Energy-OPLS-2005>
-324.030181884766

> <r_mmod_Solvation_Energy-OPLS-2005>
-484.604187011719

> <b_mmod_Minimization_Converged-OPLS-2005>
0

> <r_mmod_RMS_Derivative-OPLS-2005>
2.85296607017517

$$$$
44
                    3D
 Structure written by MMmdl.
165174  0  0  1  0            999 V2000
  -30.6022  -14.7336   20.4832 C   0  0  0  0  0  0
  -30.4262  -12.4508   19.4671 C   0  0  0  0  0  0
  -29.4949  -12.4815   18.2334 C   0  0  0  0  0  0
  -28.0248  -12.3010   18.6565 C   0  0  0  0  0  0
  -27.6292  -13.2149   19.8463 C   0  0  2  0  0  0
  -28.6743  -13.1426   20.9809 C   0  0  0  0  0  0
  -25.2438  -13.8158   20.5689 C   0  0  0  0  0  0
  -24.1736  -13.0425   20.9256 C   0  0  0  0  0  0
  -24.6308  -11.6896   20.8797 C   0  0  0  0  0  0
  -23.9006  -10.4282   21.0441 C   0  0  0  0  0  0
  -24.3576   -9.4199   21.9202 C   0  0  0  0  0  0
  -23.6261   -8.2225   22.0746 C   0  0  0  0  0  0
  -22.4252   -8.0268   21.3527 C   0  0  0  0  0  0
  -21.9887   -9.0243   20.4642 C   0  0  0  0  0  0
  -22.7196  -10.2124   20.3070 C   0  0  0  0  0  0
  -21.6841   -6.0715   22.5276 C   0  0  0  0  0  0
  -21.4007   -6.5622   23.8210 C   0  0  0  0  0  0
  -21.3658   -5.6781   24.9177 C   0  0  0  0  0  0
  -21.6047   -4.3043   24.7233 C   0  0  0  0  0  0
  -21.8816   -3.8131   23.4354 C   0  0  0  0  0  0
  -21.9192   -4.6945   22.3410 C   0  0  0  0  0  0
  -22.7770  -13.5222   21.1934 C   0  0  0  0  0  0
  -22.1658   -4.2130   21.0980 F   0  0  0  0  0  0
  -21.5640   -3.4530   25.7752 F   0  0  0  0  0  0
  -29.9715  -13.5108   20.3973 N   0  0  0  0  0  0
  -26.2827  -12.9318   20.3256 N   0  0  0  0  0  0
  -25.9217  -11.6497   20.5775 N   0  0  0  0  0  0
  -22.0431  -12.8201   22.0484 N   0  0  0  0  0  0
  -25.4144  -15.1879   20.4026 N   0  0  0  0  0  0
  -31.8068  -14.8062   20.1912 O   0  0  0  0  0  0
  -21.6621   -6.8857   21.4227 O   0  0  0  0  0  0
  -22.3479  -14.5536   20.6797 O   0  0  0  0  0  0
  -24.6279  -31.8565   23.1999 C   0  0  0  0  0  0
  -25.9130  -32.4749   23.8322 C   0  0  1  0  0  0
  -27.2189  -27.2752   20.1493 C   0  0  0  0  0  0
  -25.5922  -33.8545   24.2215 N   0  0  0  0  0  0
  -23.4209  -30.4748   21.5470 C   0  0  2  0  0  0
  -24.8695  -28.9180   20.1172 C   0  0  0  0  0  0
  -22.7487  -29.4597   22.5003 C   0  0  0  0  0  0
  -18.0285  -28.1352   22.8483 C   0  0  0  0  0  0
  -24.1511  -36.7277   23.2645 C   0  0  0  0  0  0
  -25.9646  -30.7731   21.3768 C   0  0  0  0  0  0
  -26.0392  -29.3956   20.7225 C   0  0  0  0  0  0
  -27.2197  -28.5859   20.7272 C   0  0  0  0  0  0
  -26.0292  -26.8521   19.5214 C   0  0  0  0  0  0
  -24.8665  -27.6523   19.5042 C   0  0  0  0  0  0
  -23.6358  -29.8006   20.1644 C   0  0  0  0  0  0
  -25.4141  -36.3066   24.0307 C   0  0  1  0  0  0
  -20.5877  -28.3675   23.1299 C   0  0  2  0  0  0
  -20.6811  -26.9397   22.5419 C   0  0  0  0  0  0
  -19.5794  -26.6371   21.5218 C   0  0  0  0  0  0
  -18.1959  -26.7894   22.1613 C   0  0  0  0  0  0
  -19.1536  -28.8833   23.2878 C   0  0  0  0  0  0
  -18.9471  -30.1446   23.8859 C   0  0  0  0  0  0
  -17.6478  -30.6580   24.0534 C   0  0  0  0  0  0
  -25.9058  -34.9434   23.5059 C   0  0  0  0  0  0
  -16.5361  -29.9048   23.6353 C   0  0  0  0  0  0
  -16.7276  -28.6471   23.0358 C   0  0  0  0  0  0
  -26.4504  -31.6568   25.0697 C   0  0  0  0  0  0
  -25.3733  -31.3670   26.1409 C   0  0  0  0  0  0
  -27.0343  -30.2990   24.6159 C   0  0  0  0  0  0
  -27.6045  -32.4324   25.7453 C   0  0  0  0  0  0
  -27.5591  -37.1793   24.8459 C   0  0  0  0  0  0
  -21.4205  -29.2995   22.3710 N   0  0  0  0  0  0
  -26.4312  -37.3755   23.9386 N   0  0  0  0  0  0
  -24.6898  -31.0531   22.0969 N   0  0  0  0  0  0
  -23.4195  -28.8200   23.3148 O   0  0  0  0  0  0
  -28.3199  -26.3962   20.1639 O   0  0  0  0  0  0
  -26.5674  -34.8904   22.4652 O   0  0  0  0  0  0
  -23.5433  -32.1415   23.7321 O   0  0  0  0  0  0
  -29.3670  -18.4634   20.4961 C   0  0  0  0  0  0
  -31.8391  -18.8648   21.5998 C   0  0  0  0  0  0
  -31.0858  -20.0141   21.2542 C   0  0  0  0  0  0
  -29.7800  -19.8504   20.6915 C   0  0  0  0  0  0
  -30.1906  -17.3039   20.8276 C   0  0  0  0  0  0
  -34.0113  -22.2895   20.9315 C   0  0  0  0  0  0
  -34.0754  -21.6146   22.2965 C   0  0  0  0  0  0
  -32.8081  -21.6197   20.2642 C   0  0  0  0  0  0
  -32.6041  -21.5390   22.7115 C   0  0  0  0  0  0
  -31.8000  -21.3661   21.4011 C   0  0  0  0  0  0
  -28.7211  -23.6832   20.1245 C   0  0  0  0  0  0
  -28.6357  -22.2837   20.9435 C   0  0  0  0  0  0
  -28.1455  -25.0438   20.7855 C   0  0  0  0  0  0
  -31.3883  -17.6112   21.3810 N   0  3  0  0  0  0
  -28.9854  -20.9865   20.2332 N   0  0  0  0  0  0
  -29.8180  -15.8727   20.6554 N   0  0  0  0  0  0
  -31.4654  -12.5806   19.1607 H   0  0  0  0  0  0
  -30.3812  -11.4789   19.9614 H   0  0  0  0  0  0
  -29.7790  -11.6962   17.5317 H   0  0  0  0  0  0
  -29.6060  -13.4273   17.7001 H   0  0  0  0  0  0
  -27.8953  -11.2558   18.9410 H   0  0  0  0  0  0
  -27.3578  -12.4657   17.8099 H   0  0  0  0  0  0
  -27.6192  -14.2288   19.4513 H   0  0  0  0  0  0
  -28.7155  -12.1339   21.3967 H   0  0  0  0  0  0
  -28.4010  -13.7953   21.8125 H   0  0  0  0  0  0
  -25.2709   -9.5684   22.4786 H   0  0  0  0  0  0
  -23.9986   -7.4609   22.7449 H   0  0  0  0  0  0
  -21.0824   -8.8743   19.8935 H   0  0  0  0  0  0
  -22.3640  -10.9670   19.6189 H   0  0  0  0  0  0
  -21.1982   -7.6133   23.9708 H   0  0  0  0  0  0
  -21.1484   -6.0514   25.9084 H   0  0  0  0  0  0
  -22.0597   -2.7592   23.2861 H   0  0  0  0  0  0
  -22.4049  -11.9840   22.4834 H   0  0  0  0  0  0
  -21.1043  -13.1210   22.2724 H   0  0  0  0  0  0
  -24.6308  -15.8267   20.4905 H   0  0  0  0  0  0
  -26.2052  -15.6062   19.9333 H   0  0  0  0  0  0
  -26.7174  -32.5417   23.1054 H   0  0  0  0  0  0
  -24.9981  -33.9661   25.0295 H   0  0  0  0  0  0
  -22.7142  -31.2951   21.4033 H   0  0  0  0  0  0
  -23.3768  -35.9618   23.3303 H   0  0  0  0  0  0
  -24.3597  -36.8926   22.2063 H   0  0  0  0  0  0
  -23.7276  -37.6472   23.6689 H   0  0  0  0  0  0
  -26.0996  -31.5397   20.6126 H   0  0  0  0  0  0
  -26.8392  -30.8182   22.0136 H   0  0  0  0  0  0
  -28.1179  -28.9441   21.2091 H   0  0  0  0  0  0
  -25.9908  -25.8754   19.0576 H   0  0  0  0  0  0
  -23.9695  -27.2771   19.0299 H   0  0  0  0  0  0
  -23.7459  -30.5727   19.4009 H   0  0  0  0  0  0
  -22.7573  -29.2213   19.8761 H   0  0  0  0  0  0
  -25.1336  -36.1905   25.0805 H   0  0  0  0  0  0
  -20.9928  -28.3257   24.1437 H   0  0  0  0  0  0
  -20.5776  -26.2256   23.3622 H   0  0  0  0  0  0
  -21.6693  -26.7507   22.1186 H   0  0  0  0  0  0
  -19.6973  -25.6290   21.1253 H   0  0  0  0  0  0
  -19.6734  -27.3201   20.6771 H   0  0  0  0  0  0
  -17.4248  -26.6652   21.3998 H   0  0  0  0  0  0
  -18.0335  -26.0008   22.8978 H   0  0  0  0  0  0
  -19.7958  -30.7268   24.2204 H   0  0  0  0  0  0
  -17.5034  -31.6261   24.5149 H   0  0  0  0  0  0
  -15.5357  -30.2936   23.7719 H   0  0  0  0  0  0
  -15.8675  -28.0792   22.7075 H   0  0  0  0  0  0
  -24.5931  -30.6996   25.7730 H   0  0  0  0  0  0
  -24.8902  -32.2814   26.4869 H   0  0  0  0  0  0
  -25.8086  -30.8837   27.0164 H   0  0  0  0  0  0
  -26.2906  -29.6716   24.1228 H   0  0  0  0  0  0
  -27.4061  -29.7288   25.4683 H   0  0  0  0  0  0
  -27.8772  -30.4246   23.9354 H   0  0  0  0  0  0
  -27.2625  -33.3621   26.2010 H   0  0  0  0  0  0
  -28.3848  -32.6887   25.0271 H   0  0  0  0  0  0
  -28.0691  -31.8451   26.5391 H   0  0  0  0  0  0
  -28.2600  -38.0102   24.7518 H   0  0  0  0  0  0
  -28.1096  -36.2623   24.6278 H   0  0  0  0  0  0
  -27.2278  -37.1423   25.8856 H   0  0  0  0  0  0
  -20.9428  -29.8558   21.6761 H   0  0  0  0  0  0
  -26.0192  -38.2827   24.1404 H   0  0  0  0  0  0
  -28.3983  -18.2802   20.0534 H   0  0  0  0  0  0
  -32.8379  -18.9175   22.0149 H   0  0  0  0  0  0
  -34.9323  -22.1889   20.3570 H   0  0  0  0  0  0
  -33.8167  -23.3555   21.0654 H   0  0  0  0  0  0
  -34.6949  -22.1601   23.0094 H   0  0  0  0  0  0
  -34.4909  -20.6104   22.1966 H   0  0  0  0  0  0
  -33.1331  -20.6759   19.8232 H   0  0  0  0  0  0
  -32.3733  -22.2114   19.4570 H   0  0  0  0  0  0
  -32.3367  -22.4983   23.1556 H   0  0  0  0  0  0
  -32.4064  -20.7829   23.4724 H   0  0  0  0  0  0
  -31.1030  -22.1892   21.3698 H   0  0  0  0  0  0
  -28.1948  -23.5430   19.1813 H   0  0  0  0  0  0
  -29.7622  -23.8549   19.8522 H   0  0  0  0  0  0
  -27.5952  -22.1734   21.2542 H   0  0  0  0  0  0
  -29.1592  -22.3647   21.8961 H   0  0  0  0  0  0
  -28.6112  -25.1387   21.7668 H   0  0  0  0  0  0
  -27.0908  -24.8757   21.0037 H   0  0  0  0  0  0
  -32.0180  -16.8417   21.6365 H   0  0  0  0  0  0
  -28.2841  -20.7299   19.5446 H   0  0  0  0  0  0
  -28.8309  -15.6869   20.6593 H   0  0  0  0  0  0
  1 25  1  0  0  0
  1 30  2  0  0  0
  1 86  1  0  0  0
  2  3  1  0  0  0
  2 25  1  0  0  0
  2 87  1  0  0  0
  2 88  1  0  0  0
  3  4  1  0  0  0
  3 89  1  0  0  0
  3 90  1  0  0  0
  4  5  1  0  0  0
  4 91  1  0  0  0
  4 92  1  0  0  0
  5  6  1  0  0  0
  5 26  1  0  0  0
  5 93  1  0  0  0
  6 25  1  0  0  0
  6 94  1  0  0  0
  6 95  1  0  0  0
  7  8  2  0  0  0
  7 26  1  0  0  0
  7 29  1  0  0  0
  8  9  1  0  0  0
  8 22  1  0  0  0
  9 10  1  0  0  0
  9 27  2  0  0  0
 10 11  2  0  0  0
 10 15  1  0  0  0
 11 12  1  0  0  0
 11 96  1  0  0  0
 12 13  2  0  0  0
 12 97  1  0  0  0
 13 14  1  0  0  0
 13 31  1  0  0  0
 14 15  2  0  0  0
 14 98  1  0  0  0
 15 99  1  0  0  0
 16 17  2  0  0  0
 16 21  1  0  0  0
 16 31  1  0  0  0
 17 18  1  0  0  0
 17100  1  0  0  0
 18 19  2  0  0  0
 18101  1  0  0  0
 19 20  1  0  0  0
 19 24  1  0  0  0
 20 21  2  0  0  0
 20102  1  0  0  0
 21 23  1  0  0  0
 22 28  1  0  0  0
 22 32  2  0  0  0
 26 27  1  0  0  0
 28103  1  0  0  0
 28104  1  0  0  0
 29105  1  0  0  0
 29106  1  0  0  0
 33 34  1  0  0  0
 33 66  1  0  0  0
 33 70  2  0  0  0
 34 36  1  0  0  0
 34 59  1  0  0  0
 34107  1  0  0  0
 35 44  2  0  0  0
 35 45  1  0  0  0
 35 68  1  0  0  0
 36 56  1  0  0  0
 36108  1  0  0  0
 37 39  1  0  0  0
 37 47  1  0  0  0
 37 66  1  0  0  0
 37109  1  0  0  0
 38 43  2  0  0  0
 38 46  1  0  0  0
 38 47  1  0  0  0
 39 64  1  0  0  0
 39 67  2  0  0  0
 40 52  1  0  0  0
 40 53  2  0  0  0
 40 58  1  0  0  0
 41110  1  0  0  0
 41111  1  0  0  0
 41112  1  0  0  0
 41 48  1  0  0  0
 42 43  1  0  0  0
 42 66  1  0  0  0
 42113  1  0  0  0
 42114  1  0  0  0
 43 44  1  0  0  0
 44115  1  0  0  0
 45 46  2  0  0  0
 45116  1  0  0  0
 46117  1  0  0  0
 47118  1  0  0  0
 47119  1  0  0  0
 48 56  1  0  0  0
 48 65  1  0  0  0
 48120  1  0  0  0
 49 50  1  0  0  0
 49 53  1  0  0  0
 49 64  1  0  0  0
 49121  1  0  0  0
 50 51  1  0  0  0
 50122  1  0  0  0
 50123  1  0  0  0
 51 52  1  0  0  0
 51124  1  0  0  0
 51125  1  0  0  0
 52126  1  0  0  0
 52127  1  0  0  0
 53 54  1  0  0  0
 54 55  2  0  0  0
 54128  1  0  0  0
 55 57  1  0  0  0
 55129  1  0  0  0
 56 69  2  0  0  0
 57 58  2  0  0  0
 57130  1  0  0  0
 58131  1  0  0  0
 59 60  1  0  0  0
 59 61  1  0  0  0
 59 62  1  0  0  0
 60132  1  0  0  0
 60133  1  0  0  0
 60134  1  0  0  0
 61135  1  0  0  0
 61136  1  0  0  0
 61137  1  0  0  0
 62138  1  0  0  0
 62139  1  0  0  0
 62140  1  0  0  0
 63 65  1  0  0  0
 63141  1  0  0  0
 63142  1  0  0  0
 63143  1  0  0  0
 64144  1  0  0  0
 65145  1  0  0  0
 68 83  1  0  0  0
 71 74  2  0  0  0
 71 75  1  0  0  0
 71146  1  0  0  0
 72 73  2  0  0  0
 72 84  1  0  0  0
 72147  1  0  0  0
 73 74  1  0  0  0
 73 80  1  0  0  0
 74 85  1  0  0  0
 75 84  2  0  0  0
 75 86  1  0  0  0
 76 77  1  0  0  0
 76 78  1  0  0  0
 76148  1  0  0  0
 76149  1  0  0  0
 77 79  1  0  0  0
 77150  1  0  0  0
 77151  1  0  0  0
 78 80  1  0  0  0
 78152  1  0  0  0
 78153  1  0  0  0
 79 80  1  0  0  0
 79154  1  0  0  0
 79155  1  0  0  0
 80156  1  0  0  0
 81 82  1  0  0  0
 81 83  1  0  0  0
 81157  1  0  0  0
 81158  1  0  0  0
 82 85  1  0  0  0
 82159  1  0  0  0
 82160  1  0  0  0
 83161  1  0  0  0
 83162  1  0  0  0
 84163  1  0  0  0
 85164  1  0  0  0
 86165  1  0  0  0
M  CHG  1  84   1
M  ISO  4   1 100  68 101  83 101  86 100
M  END
> <chiral flag>
0

> <version>
0

> <s_m_source_file>
/data/baiqing/PycharmProjects/Reinvent-master-3.2/result/LINK_invent/BTK/process_docking_weight1_custom_sum_contain_oxygen_bond_distance_aromatic_linkinvent_7_9_3/rearranged_h_0130.sdf

> <i_m_source_file_index>
45

> <r_mmod_Potential_Energy-OPLS-2005>
320.020355224609

> <r_mmod_Stretch_Energy-OPLS-2005>
124.891731262207

> <r_mmod_Bend_Energy-OPLS-2005>
204.495025634766

> <r_mmod_Torsional_Energy-OPLS-2005>
287.495452880859

> <r_mmod_Improper_Torsional_Energy-OPLS-2005>
8.67907047271729

> <r_mmod_Van_der_Waal_Energy-OPLS-2005>
140.846466064453

> <r_mmod_Electrostatic_Energy-OPLS-2005>
-94.6027221679688

> <r_mmod_Solvation_Energy-OPLS-2005>
-430.710327148438

> <b_mmod_Minimization_Converged-OPLS-2005>
0

> <r_mmod_RMS_Derivative-OPLS-2005>
3.55483961105347

$$$$
45
                    3D
 Structure written by MMmdl.
159167  0  0  1  0            999 V2000
  -30.7683  -14.2922   20.7293 C   0  0  0  0  0  0
  -30.4202  -12.2614   19.3774 C   0  0  0  0  0  0
  -29.4848  -12.5408   18.1868 C   0  0  0  0  0  0
  -28.0086  -12.3876   18.5988 C   0  0  0  0  0  0
  -27.6734  -13.1870   19.8835 C   0  0  2  0  0  0
  -28.7040  -12.8825   20.9922 C   0  0  0  0  0  0
  -25.2647  -13.8121   20.5623 C   0  0  0  0  0  0
  -24.1879  -13.0441   20.9165 C   0  0  0  0  0  0
  -24.6386  -11.6888   20.8721 C   0  0  0  0  0  0
  -23.9046  -10.4294   21.0398 C   0  0  0  0  0  0
  -24.3609   -9.4217   21.9181 C   0  0  0  0  0  0
  -23.6290   -8.2254   22.0767 C   0  0  0  0  0  0
  -22.4276   -8.0286   21.3552 C   0  0  0  0  0  0
  -21.9895   -9.0255   20.4659 C   0  0  0  0  0  0
  -22.7218  -10.2135   20.3058 C   0  0  0  0  0  0
  -21.6842   -6.0748   22.5284 C   0  0  0  0  0  0
  -21.4011   -6.5651   23.8218 C   0  0  0  0  0  0
  -21.3658   -5.6806   24.9177 C   0  0  0  0  0  0
  -21.6041   -4.3072   24.7221 C   0  0  0  0  0  0
  -21.8820   -3.8158   23.4346 C   0  0  0  0  0  0
  -21.9197   -4.6975   22.3401 C   0  0  0  0  0  0
  -22.7913  -13.5276   21.1829 C   0  0  0  0  0  0
  -22.1672   -4.2155   21.0974 F   0  0  0  0  0  0
  -21.5610   -3.4550   25.7733 F   0  0  0  0  0  0
  -30.0631  -13.1641   20.4781 N   0  0  0  0  0  0
  -26.3068  -12.9254   20.3355 N   0  0  0  0  0  0
  -25.9304  -11.6427   20.5730 N   0  0  0  0  0  0
  -22.0541  -12.8269   22.0375 N   0  0  0  0  0  0
  -25.4407  -15.1817   20.3906 N   0  0  0  0  0  0
  -31.7119  -14.6958   20.0407 O   0  0  0  0  0  0
  -21.6642   -6.8880   21.4244 O   0  0  0  0  0  0
  -22.3632  -14.5606   20.6694 O   0  0  0  0  0  0
  -24.6101  -31.8736   23.2164 C   0  0  0  0  0  0
  -25.9020  -32.4855   23.8425 C   0  0  1  0  0  0
  -27.2336  -27.4751   20.0607 C   0  0  0  0  0  0
  -25.5902  -33.8651   24.2341 N   0  0  0  0  0  0
  -23.3923  -30.5008   21.5579 C   0  0  2  0  0  0
  -24.8339  -28.9709   20.1202 C   0  0  0  0  0  0
  -22.7375  -29.4702   22.5015 C   0  0  0  0  0  0
  -18.0259  -28.1367   22.8498 C   0  0  0  0  0  0
  -24.1494  -36.7346   23.2634 C   0  0  0  0  0  0
  -25.9202  -30.8454   21.3654 C   0  0  0  0  0  0
  -25.9931  -29.4805   20.7164 C   0  0  0  0  0  0
  -27.1911  -28.7334   20.6976 C   0  0  0  0  0  0
  -26.0442  -26.9609   19.4887 C   0  0  0  0  0  0
  -24.8510  -27.7052   19.5115 C   0  0  0  0  0  0
  -23.5957  -29.8372   20.1714 C   0  0  0  0  0  0
  -25.4115  -36.3138   24.0333 C   0  0  1  0  0  0
  -20.5854  -28.3679   23.1325 C   0  0  2  0  0  0
  -20.6766  -26.9415   22.5433 C   0  0  0  0  0  0
  -19.5754  -26.6406   21.5220 C   0  0  0  0  0  0
  -18.1932  -26.7920   22.1633 C   0  0  0  0  0  0
  -19.1508  -28.8839   23.2910 C   0  0  0  0  0  0
  -18.9435  -30.1448   23.8915 C   0  0  0  0  0  0
  -17.6435  -30.6585   24.0578 C   0  0  0  0  0  0
  -25.9037  -34.9499   23.5128 C   0  0  0  0  0  0
  -16.5327  -29.9084   23.6320 C   0  0  0  0  0  0
  -16.7249  -28.6495   23.0344 C   0  0  0  0  0  0
  -26.4456  -31.6621   25.0728 C   0  0  0  0  0  0
  -25.3730  -31.3723   26.1485 C   0  0  0  0  0  0
  -27.0284  -30.3063   24.6072 C   0  0  0  0  0  0
  -27.6040  -32.4335   25.7479 C   0  0  0  0  0  0
  -27.5583  -37.1828   24.8447 C   0  0  0  0  0  0
  -21.4106  -29.3070   22.3740 N   0  0  0  0  0  0
  -26.4300  -37.3818   23.9382 N   0  0  0  0  0  0
  -24.6595  -31.0877   22.1044 N   0  0  0  0  0  0
  -23.4165  -28.8227   23.3033 O   0  0  0  0  0  0
  -28.4385  -26.8079   20.0143 O   0  0  0  0  0  0
  -26.5594  -34.8931   22.4686 O   0  0  0  0  0  0
  -23.5309  -32.1454   23.7591 O   0  0  0  0  0  0
  -26.9621  -21.1779   22.1185 C   0  0  0  0  0  0
  -26.9699  -22.5228   21.7141 C   0  0  0  0  0  0
  -27.4727  -20.5869   19.8286 C   0  0  0  0  0  0
  -27.2434  -20.1867   21.1590 C   0  0  0  0  0  0
  -27.2908  -22.8242   20.3818 C   0  0  0  0  0  0
  -27.2845  -18.7154   21.5409 C   0  0  0  0  0  0
  -30.3072  -16.3849   21.9672 C   0  0  0  0  0  0
  -28.8359  -16.8174   21.8248 C   0  0  0  0  0  0
  -28.6708  -25.9152   18.9216 C   0  0  0  0  0  0
  -28.6649  -24.4551   19.3858 C   0  0  0  0  0  0
  -27.5205  -21.8794   19.4464 N   0  0  0  0  0  0
  -30.3572  -14.9372   21.8228 N   0  0  0  0  0  0
  -28.6618  -18.2793   21.8612 N   0  3  0  0  0  0
  -27.4142  -24.1300   19.9881 O   0  0  0  0  0  0
  -31.4646  -12.3661   19.0783 H   0  0  0  0  0  0
  -30.3101  -11.2267   19.7066 H   0  0  0  0  0  0
  -29.7150  -11.8696   17.3578 H   0  0  0  0  0  0
  -29.6553  -13.5533   17.8205 H   0  0  0  0  0  0
  -27.8113  -11.3269   18.7589 H   0  0  0  0  0  0
  -27.3579  -12.6996   17.7813 H   0  0  0  0  0  0
  -27.7484  -14.2459   19.6397 H   0  0  0  0  0  0
  -28.6444  -11.8310   21.2746 H   0  0  0  0  0  0
  -28.4376  -13.4241   21.8993 H   0  0  0  0  0  0
  -25.2758   -9.5689   22.4751 H   0  0  0  0  0  0
  -24.0007   -7.4635   22.7482 H   0  0  0  0  0  0
  -21.0832   -8.8772   19.8952 H   0  0  0  0  0  0
  -22.3684  -10.9678   19.6169 H   0  0  0  0  0  0
  -21.2019   -7.6158   23.9719 H   0  0  0  0  0  0
  -21.1470   -6.0537   25.9080 H   0  0  0  0  0  0
  -22.0601   -2.7622   23.2841 H   0  0  0  0  0  0
  -22.4148  -11.9901   22.4721 H   0  0  0  0  0  0
  -21.1167  -13.1296   22.2595 H   0  0  0  0  0  0
  -24.6264  -15.7865   20.3706 H   0  0  0  0  0  0
  -26.2107  -15.5396   19.8412 H   0  0  0  0  0  0
  -26.7105  -32.5544   23.1220 H   0  0  0  0  0  0
  -25.0053  -33.9834   25.0484 H   0  0  0  0  0  0
  -22.6776  -31.3165   21.4277 H   0  0  0  0  0  0
  -23.3750  -35.9686   23.3313 H   0  0  0  0  0  0
  -24.3589  -36.8938   22.2043 H   0  0  0  0  0  0
  -23.7255  -37.6559   23.6639 H   0  0  0  0  0  0
  -26.0268  -31.6094   20.5946 H   0  0  0  0  0  0
  -26.8138  -30.9013   21.9752 H   0  0  0  0  0  0
  -28.0894  -29.1301   21.1479 H   0  0  0  0  0  0
  -26.0191  -25.9906   19.0181 H   0  0  0  0  0  0
  -23.9545  -27.3050   19.0570 H   0  0  0  0  0  0
  -22.7165  -29.2604   19.8748 H   0  0  0  0  0  0
  -23.6996  -30.6142   19.4130 H   0  0  0  0  0  0
  -25.1292  -36.2023   25.0830 H   0  0  0  0  0  0
  -20.9963  -28.3258   24.1447 H   0  0  0  0  0  0
  -20.5692  -26.2288   23.3623 H   0  0  0  0  0  0
  -21.6633  -26.7476   22.1198 H   0  0  0  0  0  0
  -19.6933  -25.6337   21.1210 H   0  0  0  0  0  0
  -19.6689  -27.3267   20.6785 H   0  0  0  0  0  0
  -17.4209  -26.6673   21.4022 H   0  0  0  0  0  0
  -18.0352  -26.0056   22.9024 H   0  0  0  0  0  0
  -19.7904  -30.7263   24.2294 H   0  0  0  0  0  0
  -17.4980  -31.6275   24.5170 H   0  0  0  0  0  0
  -15.5321  -30.2996   23.7627 H   0  0  0  0  0  0
  -15.8650  -28.0825   22.7035 H   0  0  0  0  0  0
  -24.5891  -30.7096   25.7808 H   0  0  0  0  0  0
  -24.8965  -32.2892   26.4955 H   0  0  0  0  0  0
  -25.8089  -30.8858   27.0224 H   0  0  0  0  0  0
  -26.2828  -29.6856   24.1093 H   0  0  0  0  0  0
  -27.4024  -29.7250   25.4513 H   0  0  0  0  0  0
  -27.8674  -30.4388   23.9238 H   0  0  0  0  0  0
  -27.2655  -33.3607   26.2121 H   0  0  0  0  0  0
  -28.3821  -32.6943   25.0292 H   0  0  0  0  0  0
  -28.0759  -31.8434   26.5348 H   0  0  0  0  0  0
  -28.2607  -38.0118   24.7492 H   0  0  0  0  0  0
  -28.1080  -36.2646   24.6302 H   0  0  0  0  0  0
  -27.2285  -37.1507   25.8845 H   0  0  0  0  0  0
  -20.9260  -29.8778   21.6957 H   0  0  0  0  0  0
  -26.0202  -38.2899   24.1386 H   0  0  0  0  0  0
  -26.7641  -20.9185   23.1486 H   0  0  0  0  0  0
  -26.7846  -23.3121   22.4293 H   0  0  0  0  0  0
  -27.6681  -19.8515   19.0599 H   0  0  0  0  0  0
  -26.8804  -18.1410   20.7042 H   0  0  0  0  0  0
  -26.6280  -18.5215   22.3910 H   0  0  0  0  0  0
  -30.7044  -16.6664   22.9449 H   0  0  0  0  0  0
  -30.9271  -16.8798   21.2146 H   0  0  0  0  0  0
  -28.4511  -16.4436   20.8749 H   0  0  0  0  0  0
  -28.2275  -16.3646   22.6097 H   0  0  0  0  0  0
  -27.9908  -26.0574   18.0818 H   0  0  0  0  0  0
  -29.6588  -26.1478   18.5198 H   0  0  0  0  0  0
  -28.8856  -23.8223   18.5249 H   0  0  0  0  0  0
  -29.4634  -24.2912   20.1102 H   0  0  0  0  0  0
  -29.7108  -14.4134   22.3962 H   0  0  0  0  0  0
  -29.2951  -18.6763   21.1881 H   0  0  0  0  0  0
  -28.9222  -18.6206   22.7736 H   0  0  0  0  0  0
  1 25  1  0  0  0
  1 30  2  0  0  0
  1 82  1  0  0  0
  2  3  1  0  0  0
  2 25  1  0  0  0
  2 85  1  0  0  0
  2 86  1  0  0  0
  3  4  1  0  0  0
  3 87  1  0  0  0
  3 88  1  0  0  0
  4  5  1  0  0  0
  4 89  1  0  0  0
  4 90  1  0  0  0
  5  6  1  0  0  0
  5 26  1  0  0  0
  5 91  1  0  0  0
  6 25  1  0  0  0
  6 92  1  0  0  0
  6 93  1  0  0  0
  7  8  2  0  0  0
  7 26  1  0  0  0
  7 29  1  0  0  0
  8  9  1  0  0  0
  8 22  1  0  0  0
  9 10  1  0  0  0
  9 27  2  0  0  0
 10 11  2  0  0  0
 10 15  1  0  0  0
 11 12  1  0  0  0
 11 94  1  0  0  0
 12 13  2  0  0  0
 12 95  1  0  0  0
 13 14  1  0  0  0
 13 31  1  0  0  0
 14 15  2  0  0  0
 14 96  1  0  0  0
 15 97  1  0  0  0
 16 17  2  0  0  0
 16 21  1  0  0  0
 16 31  1  0  0  0
 17 18  1  0  0  0
 17 98  1  0  0  0
 18 19  2  0  0  0
 18 99  1  0  0  0
 19 20  1  0  0  0
 19 24  1  0  0  0
 20 21  2  0  0  0
 20100  1  0  0  0
 21 23  1  0  0  0
 22 28  1  0  0  0
 22 32  2  0  0  0
 26 27  1  0  0  0
 28101  1  0  0  0
 28102  1  0  0  0
 29103  1  0  0  0
 29104  1  0  0  0
 33 34  1  0  0  0
 33 66  1  0  0  0
 33 70  2  0  0  0
 34 36  1  0  0  0
 34 59  1  0  0  0
 34105  1  0  0  0
 35 44  2  0  0  0
 35 45  1  0  0  0
 35 68  1  0  0  0
 36 56  1  0  0  0
 36106  1  0  0  0
 37 39  1  0  0  0
 37 47  1  0  0  0
 37 66  1  0  0  0
 37107  1  0  0  0
 38 43  2  0  0  0
 38 46  1  0  0  0
 38 47  1  0  0  0
 39 64  1  0  0  0
 39 67  2  0  0  0
 40 52  1  0  0  0
 40 53  2  0  0  0
 40 58  1  0  0  0
 41108  1  0  0  0
 41109  1  0  0  0
 41110  1  0  0  0
 41 48  1  0  0  0
 42 43  1  0  0  0
 42 66  1  0  0  0
 42111  1  0  0  0
 42112  1  0  0  0
 43 44  1  0  0  0
 44113  1  0  0  0
 45 46  2  0  0  0
 45114  1  0  0  0
 46115  1  0  0  0
 47116  1  0  0  0
 47117  1  0  0  0
 48 56  1  0  0  0
 48 65  1  0  0  0
 48118  1  0  0  0
 49 50  1  0  0  0
 49 53  1  0  0  0
 49 64  1  0  0  0
 49119  1  0  0  0
 50 51  1  0  0  0
 50120  1  0  0  0
 50121  1  0  0  0
 51 52  1  0  0  0
 51122  1  0  0  0
 51123  1  0  0  0
 52124  1  0  0  0
 52125  1  0  0  0
 53 54  1  0  0  0
 54 55  2  0  0  0
 54126  1  0  0  0
 55 57  1  0  0  0
 55127  1  0  0  0
 56 69  2  0  0  0
 57 58  2  0  0  0
 57128  1  0  0  0
 58129  1  0  0  0
 59 60  1  0  0  0
 59 61  1  0  0  0
 59 62  1  0  0  0
 60130  1  0  0  0
 60131  1  0  0  0
 60132  1  0  0  0
 61133  1  0  0  0
 61134  1  0  0  0
 61135  1  0  0  0
 62136  1  0  0  0
 62137  1  0  0  0
 62138  1  0  0  0
 63 65  1  0  0  0
 63139  1  0  0  0
 63140  1  0  0  0
 63141  1  0  0  0
 64142  1  0  0  0
 65143  1  0  0  0
 68 79  1  0  0  0
 71 72  2  0  0  0
 71 74  1  0  0  0
 71144  1  0  0  0
 72 75  1  0  0  0
 72145  1  0  0  0
 73 74  2  0  0  0
 73 81  1  0  0  0
 73146  1  0  0  0
 74 76  1  0  0  0
 75 81  2  0  0  0
 75 84  1  0  0  0
 76 83  1  0  0  0
 76147  1  0  0  0
 76148  1  0  0  0
 77 78  1  0  0  0
 77 82  1  0  0  0
 77149  1  0  0  0
 77150  1  0  0  0
 78 83  1  0  0  0
 78151  1  0  0  0
 78152  1  0  0  0
 79 80  1  0  0  0
 79153  1  0  0  0
 79154  1  0  0  0
 80 84  1  0  0  0
 80155  1  0  0  0
 80156  1  0  0  0
 82157  1  0  0  0
 83158  1  0  0  0
 83159  1  0  0  0
M  CHG  1  83   1
M  ISO  4   1 100  68 101  79 101  82 100
M  END
> <chiral flag>
0

> <version>
0

> <s_m_source_file>
/data/baiqing/PycharmProjects/Reinvent-master-3.2/result/LINK_invent/BTK/process_docking_weight1_custom_sum_contain_oxygen_bond_distance_aromatic_linkinvent_7_9_3/rearranged_h_0130.sdf

> <i_m_source_file_index>
46

> <r_mmod_Potential_Energy-OPLS-2005>
-472.786407470703

> <r_mmod_Stretch_Energy-OPLS-2005>
30.6197338104248

> <r_mmod_Bend_Energy-OPLS-2005>
86.936279296875

> <r_mmod_Torsional_Energy-OPLS-2005>
218.243606567383

> <r_mmod_Improper_Torsional_Energy-OPLS-2005>
5.80442905426025

> <r_mmod_Van_der_Waal_Energy-OPLS-2005>
158.456237792969

> <r_mmod_Electrostatic_Energy-OPLS-2005>
-475.539733886719

> <r_mmod_Solvation_Energy-OPLS-2005>
-506.927154541016

> <b_mmod_Minimization_Converged-OPLS-2005>
0

> <r_mmod_RMS_Derivative-OPLS-2005>
2.91967701911926

$$$$
46
                    3D
 Structure written by MMmdl.
159168  0  0  1  0            999 V2000
  -30.6887  -14.4846   20.6109 C   0  0  0  0  0  0
  -30.4382  -12.3323   19.4172 C   0  0  0  0  0  0
  -29.5010  -12.5368   18.2056 C   0  0  0  0  0  0
  -28.0169  -12.3990   18.6102 C   0  0  0  0  0  0
  -27.6687  -13.2022   19.8918 C   0  0  2  0  0  0
  -28.7152  -12.9088   20.9890 C   0  0  0  0  0  0
  -25.2610  -13.8142   20.5693 C   0  0  0  0  0  0
  -24.1853  -13.0433   20.9188 C   0  0  0  0  0  0
  -24.6391  -11.6896   20.8756 C   0  0  0  0  0  0
  -23.9053  -10.4293   21.0407 C   0  0  0  0  0  0
  -24.3610   -9.4209   21.9194 C   0  0  0  0  0  0
  -23.6289   -8.2240   22.0751 C   0  0  0  0  0  0
  -22.4267   -8.0283   21.3549 C   0  0  0  0  0  0
  -21.9912   -9.0254   20.4637 C   0  0  0  0  0  0
  -22.7238  -10.2133   20.3048 C   0  0  0  0  0  0
  -21.6838   -6.0745   22.5278 C   0  0  0  0  0  0
  -21.4000   -6.5647   23.8227 C   0  0  0  0  0  0
  -21.3660   -5.6780   24.9171 C   0  0  0  0  0  0
  -21.6043   -4.3047   24.7211 C   0  0  0  0  0  0
  -21.8819   -3.8148   23.4333 C   0  0  0  0  0  0
  -21.9187   -4.6978   22.3395 C   0  0  0  0  0  0
  -22.7874  -13.5249   21.1823 C   0  0  0  0  0  0
  -22.1651   -4.2169   21.0974 F   0  0  0  0  0  0
  -21.5635   -3.4523   25.7724 F   0  0  0  0  0  0
  -30.0334  -13.2932   20.4585 N   0  0  0  0  0  0
  -26.3062  -12.9302   20.3443 N   0  0  0  0  0  0
  -25.9322  -11.6466   20.5791 N   0  0  0  0  0  0
  -22.0486  -12.8267   22.0380 N   0  0  0  0  0  0
  -25.4337  -15.1850   20.4065 N   0  0  0  0  0  0
  -31.8069  -14.6652   20.1128 O   0  0  0  0  0  0
  -21.6621   -6.8888   21.4248 O   0  0  0  0  0  0
  -22.3589  -14.5546   20.6641 O   0  0  0  0  0  0
  -24.6147  -31.8675   23.2091 C   0  0  0  0  0  0
  -25.9042  -32.4823   23.8395 C   0  0  1  0  0  0
  -27.2404  -27.4322   20.0827 C   0  0  0  0  0  0
  -25.5905  -33.8617   24.2333 N   0  0  0  0  0  0
  -23.4016  -30.4906   21.5504 C   0  0  2  0  0  0
  -24.8474  -28.9554   20.1120 C   0  0  0  0  0  0
  -22.7414  -29.4653   22.4993 C   0  0  0  0  0  0
  -18.0274  -28.1369   22.8514 C   0  0  0  0  0  0
  -24.1483  -36.7313   23.2639 C   0  0  0  0  0  0
  -25.9296  -30.8296   21.3624 C   0  0  0  0  0  0
  -26.0055  -29.4625   20.7127 C   0  0  0  0  0  0
  -27.1981  -28.7034   20.7050 C   0  0  0  0  0  0
  -26.0589  -26.9399   19.4798 C   0  0  0  0  0  0
  -24.8688  -27.6924   19.4957 C   0  0  0  0  0  0
  -23.6076  -29.8204   20.1651 C   0  0  0  0  0  0
  -25.4104  -36.3118   24.0349 C   0  0  1  0  0  0
  -20.5870  -28.3656   23.1324 C   0  0  2  0  0  0
  -20.6774  -26.9395   22.5412 C   0  0  0  0  0  0
  -19.5745  -26.6374   21.5223 C   0  0  0  0  0  0
  -18.1921  -26.7926   22.1623 C   0  0  0  0  0  0
  -19.1526  -28.8830   23.2912 C   0  0  0  0  0  0
  -18.9453  -30.1448   23.8903 C   0  0  0  0  0  0
  -17.6455  -30.6582   24.0562 C   0  0  0  0  0  0
  -25.9036  -34.9481   23.5138 C   0  0  0  0  0  0
  -16.5350  -29.9080   23.6321 C   0  0  0  0  0  0
  -16.7266  -28.6490   23.0358 C   0  0  0  0  0  0
  -26.4471  -31.6597   25.0715 C   0  0  0  0  0  0
  -25.3733  -31.3684   26.1456 C   0  0  0  0  0  0
  -27.0299  -30.3053   24.6064 C   0  0  0  0  0  0
  -27.6052  -32.4304   25.7483 C   0  0  0  0  0  0
  -27.5583  -37.1816   24.8469 C   0  0  0  0  0  0
  -21.4145  -29.3017   22.3721 N   0  0  0  0  0  0
  -26.4296  -37.3800   23.9420 N   0  0  0  0  0  0
  -24.6675  -31.0774   22.1001 N   0  0  0  0  0  0
  -23.4187  -28.8214   23.3045 O   0  0  0  0  0  0
  -28.4315  -26.7276   20.1023 O   0  0  0  0  0  0
  -26.5585  -34.8934   22.4693 O   0  0  0  0  0  0
  -23.5336  -32.1436   23.7490 O   0  0  0  0  0  0
  -29.3099  -20.1851   22.1403 C   0  0  0  0  0  0
  -29.1194  -19.9330   19.7375 C   0  0  0  0  0  0
  -29.2596  -21.5886   21.9975 C   0  0  0  0  0  0
  -29.0628  -21.3410   19.5943 C   0  0  0  0  0  0
  -29.2269  -19.3339   21.0137 C   0  0  0  0  0  0
  -29.1178  -22.1870   20.7289 C   0  0  0  0  0  0
  -29.2076  -17.2375   22.5724 C   0  0  0  0  0  0
  -29.2951  -15.7305   22.3128 C   0  0  0  0  0  0
  -30.1335  -16.9127   20.4300 C   0  0  0  0  0  0
  -29.1162  -17.8058   21.1626 C   0  0  2  0  0  0
  -28.1118  -24.2505   19.7539 C   0  0  0  0  0  0
  -28.6245  -25.6134   19.2179 C   0  0  0  0  0  0
  -29.9473  -15.5622   21.0032 N   0  0  0  0  0  0
  -29.0685  -23.5935   20.6518 N   0  0  0  0  0  0
  -31.4795  -12.4532   19.1142 H   0  0  0  0  0  0
  -30.3675  -11.3104   19.7918 H   0  0  0  0  0  0
  -29.7438  -11.8222   17.4184 H   0  0  0  0  0  0
  -29.6703  -13.5282   17.7791 H   0  0  0  0  0  0
  -27.8093  -11.3404   18.7702 H   0  0  0  0  0  0
  -27.3752  -12.7113   17.7866 H   0  0  0  0  0  0
  -27.7295  -14.2608   19.6400 H   0  0  0  0  0  0
  -28.7140  -11.8412   21.2108 H   0  0  0  0  0  0
  -28.4733  -13.3540   21.9461 H   0  0  0  0  0  0
  -25.2747   -9.5689   22.4774 H   0  0  0  0  0  0
  -24.0002   -7.4618   22.7456 H   0  0  0  0  0  0
  -21.0853   -8.8765   19.8936 H   0  0  0  0  0  0
  -22.3702  -10.9672   19.6146 H   0  0  0  0  0  0
  -21.1972   -7.6146   23.9746 H   0  0  0  0  0  0
  -21.1488   -6.0492   25.9083 H   0  0  0  0  0  0
  -22.0602   -2.7614   23.2804 H   0  0  0  0  0  0
  -22.4049  -11.9901   22.4752 H   0  0  0  0  0  0
  -21.1111  -13.1334   22.2552 H   0  0  0  0  0  0
  -24.6623  -15.8379   20.4820 H   0  0  0  0  0  0
  -26.2795  -15.6129   20.0514 H   0  0  0  0  0  0
  -26.7102  -32.5524   23.1146 H   0  0  0  0  0  0
  -25.0095  -33.9783   25.0505 H   0  0  0  0  0  0
  -22.6922  -31.3083   21.4109 H   0  0  0  0  0  0
  -23.3761  -35.9629   23.3296 H   0  0  0  0  0  0
  -24.3577  -36.8931   22.2054 H   0  0  0  0  0  0
  -23.7201  -37.6508   23.6643 H   0  0  0  0  0  0
  -26.0340  -31.5914   20.5885 H   0  0  0  0  0  0
  -26.8218  -30.8887   21.9744 H   0  0  0  0  0  0
  -28.0929  -29.0944   21.1694 H   0  0  0  0  0  0
  -26.0321  -25.9731   18.9986 H   0  0  0  0  0  0
  -23.9786  -27.2970   19.0261 H   0  0  0  0  0  0
  -23.7086  -30.5928   19.4018 H   0  0  0  0  0  0
  -22.7327  -29.2352   19.8750 H   0  0  0  0  0  0
  -25.1272  -36.1997   25.0841 H   0  0  0  0  0  0
  -20.9966  -28.3209   24.1450 H   0  0  0  0  0  0
  -20.5705  -26.2259   23.3591 H   0  0  0  0  0  0
  -21.6637  -26.7453   22.1178 H   0  0  0  0  0  0
  -19.6904  -25.6282   21.1248 H   0  0  0  0  0  0
  -19.6703  -27.3184   20.6757 H   0  0  0  0  0  0
  -17.4211  -26.6724   21.3995 H   0  0  0  0  0  0
  -18.0289  -26.0040   22.8978 H   0  0  0  0  0  0
  -19.7933  -30.7260   24.2272 H   0  0  0  0  0  0
  -17.5008  -31.6270   24.5149 H   0  0  0  0  0  0
  -15.5342  -30.2979   23.7634 H   0  0  0  0  0  0
  -15.8669  -28.0797   22.7071 H   0  0  0  0  0  0
  -24.5890  -30.7064   25.7770 H   0  0  0  0  0  0
  -24.8937  -32.2828   26.4958 H   0  0  0  0  0  0
  -25.8069  -30.8794   27.0188 H   0  0  0  0  0  0
  -26.2828  -29.6806   24.1151 H   0  0  0  0  0  0
  -27.4135  -29.7288   25.4494 H   0  0  0  0  0  0
  -27.8632  -30.4401   23.9162 H   0  0  0  0  0  0
  -27.2690  -33.3598   26.2097 H   0  0  0  0  0  0
  -28.3854  -32.6875   25.0301 H   0  0  0  0  0  0
  -28.0730  -31.8398   26.5373 H   0  0  0  0  0  0
  -28.2602  -38.0115   24.7525 H   0  0  0  0  0  0
  -28.1081  -36.2650   24.6281 H   0  0  0  0  0  0
  -27.2306  -37.1433   25.8873 H   0  0  0  0  0  0
  -20.9308  -29.8720   21.6921 H   0  0  0  0  0  0
  -26.0197  -38.2887   24.1421 H   0  0  0  0  0  0
  -29.3803  -19.7816   23.1395 H   0  0  0  0  0  0
  -29.0535  -19.3111   18.8555 H   0  0  0  0  0  0
  -29.3103  -22.2037   22.8859 H   0  0  0  0  0  0
  -28.9854  -21.7531   18.5984 H   0  0  0  0  0  0
  -30.1191  -17.5814   23.0647 H   0  0  0  0  0  0
  -28.3575  -17.5096   23.2003 H   0  0  0  0  0  0
  -28.2686  -15.3704   22.2649 H   0  0  0  0  0  0
  -29.8172  -15.2041   23.1138 H   0  0  0  0  0  0
  -31.1521  -17.2521   20.6302 H   0  0  0  0  0  0
  -29.9829  -16.9177   19.3494 H   0  0  0  0  0  0
  -28.1264  -17.5511   20.7768 H   0  0  0  0  0  0
  -27.8945  -23.6100   18.8989 H   0  0  0  0  0  0
  -27.1634  -24.3879   20.2753 H   0  0  0  0  0  0
  -28.1747  -25.8336   18.2492 H   0  0  0  0  0  0
  -29.6922  -25.5387   19.0094 H   0  0  0  0  0  0
  -29.1985  -24.0809   21.5355 H   0  0  0  0  0  0
  1 25  1  0  0  0
  1 30  2  0  0  0
  1 83  1  0  0  0
  2  3  1  0  0  0
  2 25  1  0  0  0
  2 85  1  0  0  0
  2 86  1  0  0  0
  3  4  1  0  0  0
  3 87  1  0  0  0
  3 88  1  0  0  0
  4  5  1  0  0  0
  4 89  1  0  0  0
  4 90  1  0  0  0
  5  6  1  0  0  0
  5 26  1  0  0  0
  5 91  1  0  0  0
  6 25  1  0  0  0
  6 92  1  0  0  0
  6 93  1  0  0  0
  7  8  2  0  0  0
  7 26  1  0  0  0
  7 29  1  0  0  0
  8  9  1  0  0  0
  8 22  1  0  0  0
  9 10  1  0  0  0
  9 27  2  0  0  0
 10 11  2  0  0  0
 10 15  1  0  0  0
 11 12  1  0  0  0
 11 94  1  0  0  0
 12 13  2  0  0  0
 12 95  1  0  0  0
 13 14  1  0  0  0
 13 31  1  0  0  0
 14 15  2  0  0  0
 14 96  1  0  0  0
 15 97  1  0  0  0
 16 17  2  0  0  0
 16 21  1  0  0  0
 16 31  1  0  0  0
 17 18  1  0  0  0
 17 98  1  0  0  0
 18 19  2  0  0  0
 18 99  1  0  0  0
 19 20  1  0  0  0
 19 24  1  0  0  0
 20 21  2  0  0  0
 20100  1  0  0  0
 21 23  1  0  0  0
 22 28  1  0  0  0
 22 32  2  0  0  0
 26 27  1  0  0  0
 28101  1  0  0  0
 28102  1  0  0  0
 29103  1  0  0  0
 29104  1  0  0  0
 33 34  1  0  0  0
 33 66  1  0  0  0
 33 70  2  0  0  0
 34 36  1  0  0  0
 34 59  1  0  0  0
 34105  1  0  0  0
 35 44  2  0  0  0
 35 45  1  0  0  0
 35 68  1  0  0  0
 36 56  1  0  0  0
 36106  1  0  0  0
 37 39  1  0  0  0
 37 47  1  0  0  0
 37 66  1  0  0  0
 37107  1  0  0  0
 38 43  2  0  0  0
 38 46  1  0  0  0
 38 47  1  0  0  0
 39 64  1  0  0  0
 39 67  2  0  0  0
 40 52  1  0  0  0
 40 53  2  0  0  0
 40 58  1  0  0  0
 41108  1  0  0  0
 41109  1  0  0  0
 41110  1  0  0  0
 41 48  1  0  0  0
 42 43  1  0  0  0
 42 66  1  0  0  0
 42111  1  0  0  0
 42112  1  0  0  0
 43 44  1  0  0  0
 44113  1  0  0  0
 45 46  2  0  0  0
 45114  1  0  0  0
 46115  1  0  0  0
 47116  1  0  0  0
 47117  1  0  0  0
 48 56  1  0  0  0
 48 65  1  0  0  0
 48118  1  0  0  0
 49 50  1  0  0  0
 49 53  1  0  0  0
 49 64  1  0  0  0
 49119  1  0  0  0
 50 51  1  0  0  0
 50120  1  0  0  0
 50121  1  0  0  0
 51 52  1  0  0  0
 51122  1  0  0  0
 51123  1  0  0  0
 52124  1  0  0  0
 52125  1  0  0  0
 53 54  1  0  0  0
 54 55  2  0  0  0
 54126  1  0  0  0
 55 57  1  0  0  0
 55127  1  0  0  0
 56 69  2  0  0  0
 57 58  2  0  0  0
 57128  1  0  0  0
 58129  1  0  0  0
 59 60  1  0  0  0
 59 61  1  0  0  0
 59 62  1  0  0  0
 60130  1  0  0  0
 60131  1  0  0  0
 60132  1  0  0  0
 61133  1  0  0  0
 61134  1  0  0  0
 61135  1  0  0  0
 62136  1  0  0  0
 62137  1  0  0  0
 62138  1  0  0  0
 63 65  1  0  0  0
 63139  1  0  0  0
 63140  1  0  0  0
 63141  1  0  0  0
 64142  1  0  0  0
 65143  1  0  0  0
 68 82  1  0  0  0
 71 73  2  0  0  0
 71 75  1  0  0  0
 71144  1  0  0  0
 72 74  1  0  0  0
 72 75  2  0  0  0
 72145  1  0  0  0
 73 76  1  0  0  0
 73146  1  0  0  0
 74 76  2  0  0  0
 74147  1  0  0  0
 75 80  1  0  0  0
 76 84  1  0  0  0
 77 78  1  0  0  0
 77 80  1  0  0  0
 77148  1  0  0  0
 77149  1  0  0  0
 78 83  1  0  0  0
 78150  1  0  0  0
 78151  1  0  0  0
 79 80  1  0  0  0
 79 83  1  0  0  0
 79152  1  0  0  0
 79153  1  0  0  0
 80154  1  0  0  0
 81 82  1  0  0  0
 81 84  1  0  0  0
 81155  1  0  0  0
 81156  1  0  0  0
 82157  1  0  0  0
 82158  1  0  0  0
 84159  1  0  0  0
M  ISO  4   1 100  68 101  82 101  83 100
M  END
> <chiral flag>
0

> <version>
0

> <s_m_source_file>
/data/baiqing/PycharmProjects/Reinvent-master-3.2/result/LINK_invent/BTK/process_docking_weight1_custom_sum_contain_oxygen_bond_distance_aromatic_linkinvent_7_9_3/rearranged_h_0130.sdf

> <i_m_source_file_index>
47

> <r_mmod_Potential_Energy-OPLS-2005>
164.149765014648

> <r_mmod_Stretch_Energy-OPLS-2005>
41.7839813232422

> <r_mmod_Bend_Energy-OPLS-2005>
149.422073364258

> <r_mmod_Torsional_Energy-OPLS-2005>
309.790313720703

> <r_mmod_Improper_Torsional_Energy-OPLS-2005>
14.6658716201782

> <r_mmod_Van_der_Waal_Energy-OPLS-2005>
153.322738647461

> <r_mmod_Electrostatic_Energy-OPLS-2005>
-308.225433349609

> <r_mmod_Solvation_Energy-OPLS-2005>
-209.549209594727

> <b_mmod_Minimization_Converged-OPLS-2005>
0

> <r_mmod_RMS_Derivative-OPLS-2005>
2.29331684112549

$$$$
47
                    3D
 Structure written by MMmdl.
169178  0  0  1  0            999 V2000
  -30.6688  -14.5836   20.5872 C   0  0  0  0  0  0
  -30.4332  -12.3869   19.4431 C   0  0  0  0  0  0
  -29.4940  -12.5422   18.2249 C   0  0  0  0  0  0
  -28.0216  -12.3623   18.6338 C   0  0  0  0  0  0
  -27.6541  -13.2149   19.8741 C   0  0  2  0  0  0
  -28.6974  -13.0307   21.0037 C   0  0  0  0  0  0
  -25.2383  -13.8053   20.5426 C   0  0  0  0  0  0
  -24.1733  -13.0343   20.9104 C   0  0  0  0  0  0
  -24.6360  -11.6832   20.8725 C   0  0  0  0  0  0
  -23.9043  -10.4211   21.0389 C   0  0  0  0  0  0
  -24.3582   -9.4135   21.9180 C   0  0  0  0  0  0
  -23.6241   -8.2178   22.0757 C   0  0  0  0  0  0
  -22.4229   -8.0233   21.3537 C   0  0  0  0  0  0
  -21.9868   -9.0202   20.4651 C   0  0  0  0  0  0
  -22.7209  -10.2070   20.3042 C   0  0  0  0  0  0
  -21.6821   -6.0711   22.5267 C   0  0  0  0  0  0
  -21.4016   -6.5629   23.8204 C   0  0  0  0  0  0
  -21.3625   -5.6789   24.9159 C   0  0  0  0  0  0
  -21.6009   -4.3047   24.7215 C   0  0  0  0  0  0
  -21.8827   -3.8149   23.4337 C   0  0  0  0  0  0
  -21.9191   -4.6949   22.3396 C   0  0  0  0  0  0
  -22.7767  -13.5168   21.1802 C   0  0  0  0  0  0
  -22.1667   -4.2152   21.0965 F   0  0  0  0  0  0
  -21.5595   -3.4531   25.7719 F   0  0  0  0  0  0
  -30.0308  -13.3747   20.4675 N   0  0  0  0  0  0
  -26.2950  -12.9330   20.3324 N   0  0  0  0  0  0
  -25.9310  -11.6484   20.5809 N   0  0  0  0  0  0
  -22.0466  -12.8187   22.0416 N   0  0  0  0  0  0
  -25.3736  -15.1706   20.3380 N   0  0  0  0  0  0
  -31.7646  -14.7885   20.0522 O   0  0  0  0  0  0
  -21.6587   -6.8846   21.4234 O   0  0  0  0  0  0
  -22.3448  -14.5497   20.6688 O   0  0  0  0  0  0
  -24.6248  -31.8642   23.2059 C   0  0  0  0  0  0
  -25.9109  -32.4795   23.8382 C   0  0  1  0  0  0
  -27.2209  -27.3502   20.1025 C   0  0  0  0  0  0
  -25.5937  -33.8591   24.2319 N   0  0  0  0  0  0
  -23.4163  -30.4910   21.5464 C   0  0  2  0  0  0
  -24.8615  -28.9580   20.1049 C   0  0  0  0  0  0
  -22.7478  -29.4649   22.4917 C   0  0  0  0  0  0
  -18.0296  -28.1389   22.8483 C   0  0  0  0  0  0
  -24.1494  -36.7291   23.2638 C   0  0  0  0  0  0
  -25.9557  -30.8048   21.3743 C   0  0  0  0  0  0
  -26.0288  -29.4357   20.7136 C   0  0  0  0  0  0
  -27.2099  -28.6411   20.7074 C   0  0  0  0  0  0
  -26.0340  -26.9325   19.4504 C   0  0  0  0  0  0
  -24.8664  -27.7132   19.4626 C   0  0  0  0  0  0
  -23.6298  -29.8346   20.1575 C   0  0  0  0  0  0
  -25.4113  -36.3085   24.0338 C   0  0  1  0  0  0
  -20.5903  -28.3695   23.1284 C   0  0  2  0  0  0
  -20.6776  -26.9418   22.5410 C   0  0  0  0  0  0
  -19.5745  -26.6395   21.5208 C   0  0  0  0  0  0
  -18.1930  -26.7933   22.1625 C   0  0  0  0  0  0
  -19.1551  -28.8853   23.2880 C   0  0  0  0  0  0
  -18.9465  -30.1451   23.8901 C   0  0  0  0  0  0
  -17.6467  -30.6577   24.0577 C   0  0  0  0  0  0
  -25.9047  -34.9459   23.5119 C   0  0  0  0  0  0
  -16.5360  -29.9088   23.6333 C   0  0  0  0  0  0
  -16.7287  -28.6516   23.0342 C   0  0  0  0  0  0
  -26.4509  -31.6573   25.0726 C   0  0  0  0  0  0
  -25.3750  -31.3701   26.1458 C   0  0  0  0  0  0
  -27.0335  -30.3001   24.6138 C   0  0  0  0  0  0
  -27.6110  -32.4279   25.7473 C   0  0  0  0  0  0
  -27.5584  -37.1803   24.8468 C   0  0  0  0  0  0
  -21.4194  -29.3048   22.3676 N   0  0  0  0  0  0
  -26.4293  -37.3779   23.9414 N   0  0  0  0  0  0
  -24.6836  -31.0686   22.0993 N   0  0  0  0  0  0
  -23.4219  -28.8168   23.2963 O   0  0  0  0  0  0
  -28.3421  -26.5122   20.1723 O   0  0  0  0  0  0
  -26.5616  -34.8925   22.4684 O   0  0  0  0  0  0
  -23.5416  -32.1422   23.7416 O   0  0  0  0  0  0
  -27.4331  -17.9144   20.2327 C   0  0  0  0  0  0
  -28.1099  -16.8377   20.8293 C   0  0  0  0  0  0
  -28.1575  -19.0238   19.7607 C   0  0  0  0  0  0
  -29.5457  -19.0649   20.0506 C   0  0  0  0  0  0
  -29.5100  -16.8071   20.8686 C   0  0  0  0  0  0
  -27.4517  -19.9567   18.8042 C   0  0  0  0  0  0
  -30.4020  -20.3131   19.7041 C   0  0  0  0  0  0
  -30.1836  -21.6734   20.4867 C   0  0  0  0  0  0
  -27.7421  -21.9184   20.3090 C   0  0  0  0  0  0
  -24.8822  -21.4615   17.9924 C   0  0  0  0  0  0
  -26.9415  -22.6347   17.0657 C   0  0  0  0  0  0
  -29.1667  -24.0286   20.5120 C   0  0  0  0  0  0
  -28.1490  -25.0779   19.8950 C   0  0  0  0  0  0
  -26.2446  -22.1078   18.3358 C   0  0  0  0  0  0
  -30.2009  -17.9563   20.5613 N   0  0  0  0  0  0
  -27.1384  -21.2362   19.1532 N   0  0  0  0  0  0
  -30.0342  -15.5381   21.3220 N   0  0  0  0  0  0
  -29.0531  -22.5759   20.0453 N   0  3  1  0  0  0
  -27.1298  -19.4696   17.7173 O   0  0  0  0  0  0
  -31.4716  -12.5147   19.1317 H   0  0  0  0  0  0
  -30.3710  -11.3770   19.8492 H   0  0  0  0  0  0
  -29.7629  -11.8319   17.4424 H   0  0  0  0  0  0
  -29.6162  -13.5365   17.7931 H   0  0  0  0  0  0
  -27.8547  -11.3042   18.8381 H   0  0  0  0  0  0
  -27.3659  -12.6196   17.8004 H   0  0  0  0  0  0
  -27.6880  -14.2561   19.5555 H   0  0  0  0  0  0
  -28.6953  -11.9951   21.3472 H   0  0  0  0  0  0
  -28.4251  -13.6236   21.8774 H   0  0  0  0  0  0
  -25.2719   -9.5594   22.4759 H   0  0  0  0  0  0
  -23.9923   -7.4571   22.7495 H   0  0  0  0  0  0
  -21.0785   -8.8720   19.8981 H   0  0  0  0  0  0
  -22.3670  -10.9585   19.6138 H   0  0  0  0  0  0
  -21.2057   -7.6145   23.9697 H   0  0  0  0  0  0
  -21.1420   -6.0522   25.9055 H   0  0  0  0  0  0
  -22.0655   -2.7621   23.2824 H   0  0  0  0  0  0
  -22.4108  -11.9834   22.4756 H   0  0  0  0  0  0
  -21.1102  -13.1238   22.2683 H   0  0  0  0  0  0
  -24.5536  -15.7675   20.3336 H   0  0  0  0  0  0
  -26.1721  -15.5862   19.8788 H   0  0  0  0  0  0
  -26.7179  -32.5508   23.1140 H   0  0  0  0  0  0
  -25.0098  -33.9735   25.0470 H   0  0  0  0  0  0
  -22.7084  -31.3106   21.4077 H   0  0  0  0  0  0
  -23.3754  -35.9624   23.3291 H   0  0  0  0  0  0
  -24.3584  -36.8911   22.2049 H   0  0  0  0  0  0
  -23.7244  -37.6493   23.6659 H   0  0  0  0  0  0
  -26.0873  -31.5723   20.6098 H   0  0  0  0  0  0
  -26.8375  -30.8535   22.0012 H   0  0  0  0  0  0
  -28.1044  -28.9989   21.1989 H   0  0  0  0  0  0
  -25.9706  -25.9951   18.9197 H   0  0  0  0  0  0
  -23.9787  -27.3552   18.9605 H   0  0  0  0  0  0
  -23.7532  -30.6150   19.4051 H   0  0  0  0  0  0
  -22.7492  -29.2660   19.8533 H   0  0  0  0  0  0
  -25.1283  -36.1940   25.0829 H   0  0  0  0  0  0
  -21.0016  -28.3265   24.1397 H   0  0  0  0  0  0
  -20.5667  -26.2300   23.3605 H   0  0  0  0  0  0
  -21.6645  -26.7439   22.1210 H   0  0  0  0  0  0
  -19.6901  -25.6305   21.1235 H   0  0  0  0  0  0
  -19.6671  -27.3210   20.6737 H   0  0  0  0  0  0
  -17.4202  -26.6703   21.4021 H   0  0  0  0  0  0
  -18.0317  -26.0070   22.9017 H   0  0  0  0  0  0
  -19.7936  -30.7273   24.2271 H   0  0  0  0  0  0
  -17.5019  -31.6249   24.5194 H   0  0  0  0  0  0
  -15.5357  -30.2996   23.7624 H   0  0  0  0  0  0
  -15.8698  -28.0838   22.7039 H   0  0  0  0  0  0
  -24.5925  -30.7047   25.7783 H   0  0  0  0  0  0
  -24.8934  -32.2858   26.4896 H   0  0  0  0  0  0
  -25.8075  -30.8867   27.0224 H   0  0  0  0  0  0
  -26.2880  -29.6739   24.1224 H   0  0  0  0  0  0
  -27.4107  -29.7266   25.4609 H   0  0  0  0  0  0
  -27.8729  -30.4277   23.9302 H   0  0  0  0  0  0
  -27.2778  -33.3602   26.2044 H   0  0  0  0  0  0
  -28.3924  -32.6781   25.0284 H   0  0  0  0  0  0
  -28.0780  -31.8391   26.5377 H   0  0  0  0  0  0
  -28.2615  -38.0094   24.7512 H   0  0  0  0  0  0
  -28.1071  -36.2622   24.6292 H   0  0  0  0  0  0
  -27.2312  -37.1462   25.8879 H   0  0  0  0  0  0
  -20.9358  -29.8771   21.6901 H   0  0  0  0  0  0
  -26.0174  -38.2859   24.1397 H   0  0  0  0  0  0
  -26.3626  -17.8612   20.0856 H   0  0  0  0  0  0
  -27.5469  -15.9932   21.1931 H   0  0  0  0  0  0
  -30.3482  -20.4875   18.6295 H   0  0  0  0  0  0
  -31.4385  -20.0210   19.8780 H   0  0  0  0  0  0
  -31.1002  -22.2473   20.3490 H   0  0  0  0  0  0
  -30.1197  -21.4785   21.5589 H   0  0  0  0  0  0
  -27.8356  -21.2247   21.1460 H   0  0  0  0  0  0
  -27.0326  -22.6365   20.7145 H   0  0  0  0  0  0
  -24.1977  -22.2042   17.5801 H   0  0  0  0  0  0
  -24.4004  -21.0394   18.8752 H   0  0  0  0  0  0
  -24.9684  -20.6716   17.2448 H   0  0  0  0  0  0
  -26.2865  -23.3210   16.5271 H   0  0  0  0  0  0
  -27.2038  -21.8330   16.3756 H   0  0  0  0  0  0
  -27.8541  -23.1809   17.2977 H   0  0  0  0  0  0
  -29.0959  -24.0601   21.6002 H   0  0  0  0  0  0
  -30.1684  -24.3819   20.2662 H   0  0  0  0  0  0
  -27.1655  -24.7858   20.2592 H   0  0  0  0  0  0
  -28.1281  -24.9612   18.8118 H   0  0  0  0  0  0
  -25.9818  -22.9907   18.9192 H   0  0  0  0  0  0
  -29.3721  -15.0780   21.9266 H   0  0  0  0  0  0
  -29.1451  -22.6383   19.0414 H   0  0  0  0  0  0
  1 25  1  0  0  0
  1 30  2  0  0  0
  1 87  1  0  0  0
  2  3  1  0  0  0
  2 25  1  0  0  0
  2 90  1  0  0  0
  2 91  1  0  0  0
  3  4  1  0  0  0
  3 92  1  0  0  0
  3 93  1  0  0  0
  4  5  1  0  0  0
  4 94  1  0  0  0
  4 95  1  0  0  0
  5  6  1  0  0  0
  5 26  1  0  0  0
  5 96  1  0  0  0
  6 25  1  0  0  0
  6 97  1  0  0  0
  6 98  1  0  0  0
  7  8  2  0  0  0
  7 26  1  0  0  0
  7 29  1  0  0  0
  8  9  1  0  0  0
  8 22  1  0  0  0
  9 10  1  0  0  0
  9 27  2  0  0  0
 10 11  2  0  0  0
 10 15  1  0  0  0
 11 12  1  0  0  0
 11 99  1  0  0  0
 12 13  2  0  0  0
 12100  1  0  0  0
 13 14  1  0  0  0
 13 31  1  0  0  0
 14 15  2  0  0  0
 14101  1  0  0  0
 15102  1  0  0  0
 16 17  2  0  0  0
 16 21  1  0  0  0
 16 31  1  0  0  0
 17 18  1  0  0  0
 17103  1  0  0  0
 18 19  2  0  0  0
 18104  1  0  0  0
 19 20  1  0  0  0
 19 24  1  0  0  0
 20 21  2  0  0  0
 20105  1  0  0  0
 21 23  1  0  0  0
 22 28  1  0  0  0
 22 32  2  0  0  0
 26 27  1  0  0  0
 28106  1  0  0  0
 28107  1  0  0  0
 29108  1  0  0  0
 29109  1  0  0  0
 33 34  1  0  0  0
 33 66  1  0  0  0
 33 70  2  0  0  0
 34 36  1  0  0  0
 34 59  1  0  0  0
 34110  1  0  0  0
 35 44  2  0  0  0
 35 45  1  0  0  0
 35 68  1  0  0  0
 36 56  1  0  0  0
 36111  1  0  0  0
 37 39  1  0  0  0
 37 47  1  0  0  0
 37 66  1  0  0  0
 37112  1  0  0  0
 38 43  2  0  0  0
 38 46  1  0  0  0
 38 47  1  0  0  0
 39 64  1  0  0  0
 39 67  2  0  0  0
 40 52  1  0  0  0
 40 53  2  0  0  0
 40 58  1  0  0  0
 41113  1  0  0  0
 41114  1  0  0  0
 41115  1  0  0  0
 41 48  1  0  0  0
 42 43  1  0  0  0
 42 66  1  0  0  0
 42116  1  0  0  0
 42117  1  0  0  0
 43 44  1  0  0  0
 44118  1  0  0  0
 45 46  2  0  0  0
 45119  1  0  0  0
 46120  1  0  0  0
 47121  1  0  0  0
 47122  1  0  0  0
 48 56  1  0  0  0
 48 65  1  0  0  0
 48123  1  0  0  0
 49 50  1  0  0  0
 49 53  1  0  0  0
 49 64  1  0  0  0
 49124  1  0  0  0
 50 51  1  0  0  0
 50125  1  0  0  0
 50126  1  0  0  0
 51 52  1  0  0  0
 51127  1  0  0  0
 51128  1  0  0  0
 52129  1  0  0  0
 52130  1  0  0  0
 53 54  1  0  0  0
 54 55  2  0  0  0
 54131  1  0  0  0
 55 57  1  0  0  0
 55132  1  0  0  0
 56 69  2  0  0  0
 57 58  2  0  0  0
 57133  1  0  0  0
 58134  1  0  0  0
 59 60  1  0  0  0
 59 61  1  0  0  0
 59 62  1  0  0  0
 60135  1  0  0  0
 60136  1  0  0  0
 60137  1  0  0  0
 61138  1  0  0  0
 61139  1  0  0  0
 61140  1  0  0  0
 62141  1  0  0  0
 62142  1  0  0  0
 62143  1  0  0  0
 63 65  1  0  0  0
 63144  1  0  0  0
 63145  1  0  0  0
 63146  1  0  0  0
 64147  1  0  0  0
 65148  1  0  0  0
 68 83  1  0  0  0
 71 72  2  0  0  0
 71 73  1  0  0  0
 71149  1  0  0  0
 72 75  1  0  0  0
 72150  1  0  0  0
 73 74  2  0  0  0
 73 76  1  0  0  0
 74 77  1  0  0  0
 74 85  1  0  0  0
 75 85  2  0  0  0
 75 87  1  0  0  0
 76 86  1  0  0  0
 76 89  2  0  0  0
 77 78  1  0  0  0
 77151  1  0  0  0
 77152  1  0  0  0
 78 88  1  0  0  0
 78153  1  0  0  0
 78154  1  0  0  0
 79 86  1  0  0  0
 79 88  1  0  0  0
 79155  1  0  0  0
 79156  1  0  0  0
 80157  1  0  0  0
 80158  1  0  0  0
 80159  1  0  0  0
 80 84  1  0  0  0
 81 84  1  0  0  0
 81160  1  0  0  0
 81161  1  0  0  0
 81162  1  0  0  0
 82 83  1  0  0  0
 82163  1  0  0  0
 82164  1  0  0  0
 82 88  1  0  0  0
 83165  1  0  0  0
 83166  1  0  0  0
 84 86  1  0  0  0
 84167  1  0  0  0
 87168  1  0  0  0
 88169  1  0  0  0
M  CHG  1  88   1
M  ISO  4   1 100  68 101  83 101  87 100
M  END
> <chiral flag>
0

> <version>
0

> <s_m_source_file>
/data/baiqing/PycharmProjects/Reinvent-master-3.2/result/LINK_invent/BTK/process_docking_weight1_custom_sum_contain_oxygen_bond_distance_aromatic_linkinvent_7_9_3/rearranged_h_0130.sdf

> <i_m_source_file_index>
48

> <r_mmod_Potential_Energy-OPLS-2005>
-59.9264678955078

> <r_mmod_Stretch_Energy-OPLS-2005>
78.5728607177734

> <r_mmod_Bend_Energy-OPLS-2005>
159.171936035156

> <r_mmod_Torsional_Energy-OPLS-2005>
329.412017822266

> <r_mmod_Improper_Torsional_Energy-OPLS-2005>
9.18575000762939

> <r_mmod_Van_der_Waal_Energy-OPLS-2005>
154.789855957031

> <r_mmod_Electrostatic_Energy-OPLS-2005>
-341.494537353516

> <r_mmod_Solvation_Energy-OPLS-2005>
-485.280181884766

> <b_mmod_Minimization_Converged-OPLS-2005>
0

> <r_mmod_RMS_Derivative-OPLS-2005>
3.08827304840088

$$$$
48
                    3D
 Structure written by MMmdl.
152160  0  0  1  0            999 V2000
  -30.6098  -14.7648   20.5063 C   0  0  0  0  0  0
  -30.4445  -12.4846   19.4645 C   0  0  0  0  0  0
  -29.5123  -12.5130   18.2328 C   0  0  0  0  0  0
  -28.0364  -12.3364   18.6445 C   0  0  0  0  0  0
  -27.6424  -13.2316   19.8501 C   0  0  2  0  0  0
  -28.6902  -13.1627   20.9821 C   0  0  0  0  0  0
  -25.2520  -13.8179   20.5713 C   0  0  0  0  0  0
  -24.1803  -13.0438   20.9235 C   0  0  0  0  0  0
  -24.6380  -11.6913   20.8763 C   0  0  0  0  0  0
  -23.9058  -10.4292   21.0409 C   0  0  0  0  0  0
  -24.3606   -9.4203   21.9194 C   0  0  0  0  0  0
  -23.6289   -8.2232   22.0753 C   0  0  0  0  0  0
  -22.4277   -8.0276   21.3539 C   0  0  0  0  0  0
  -21.9915   -9.0248   20.4643 C   0  0  0  0  0  0
  -22.7231  -10.2134   20.3054 C   0  0  0  0  0  0
  -21.6865   -6.0736   22.5286 C   0  0  0  0  0  0
  -21.4001   -6.5644   23.8211 C   0  0  0  0  0  0
  -21.3653   -5.6799   24.9184 C   0  0  0  0  0  0
  -21.6046   -4.3058   24.7243 C   0  0  0  0  0  0
  -21.8811   -3.8148   23.4364 C   0  0  0  0  0  0
  -21.9187   -4.6960   22.3422 C   0  0  0  0  0  0
  -22.7820  -13.5216   21.1886 C   0  0  0  0  0  0
  -22.1660   -4.2138   21.1000 F   0  0  0  0  0  0
  -21.5633   -3.4544   25.7761 F   0  0  0  0  0  0
  -29.9830  -13.5401   20.3948 N   0  0  0  0  0  0
  -26.2945  -12.9385   20.3284 N   0  0  0  0  0  0
  -25.9309  -11.6532   20.5751 N   0  0  0  0  0  0
  -22.0435  -12.8220   22.0424 N   0  0  0  0  0  0
  -25.4183  -15.1913   20.4127 N   0  0  0  0  0  0
  -31.8105  -14.8527   20.2240 O   0  0  0  0  0  0
  -21.6638   -6.8875   21.4248 O   0  0  0  0  0  0
  -22.3531  -14.5534   20.6734 O   0  0  0  0  0  0
  -24.6313  -31.8532   23.1895 C   0  0  0  0  0  0
  -25.9118  -32.4757   23.8272 C   0  0  1  0  0  0
  -27.2385  -27.2639   20.1791 C   0  0  0  0  0  0
  -25.5923  -33.8559   24.2214 N   0  0  0  0  0  0
  -23.4299  -30.4759   21.5287 C   0  0  2  0  0  0
  -24.8855  -28.9094   20.1170 C   0  0  0  0  0  0
  -22.7516  -29.4624   22.4825 C   0  0  0  0  0  0
  -18.0321  -28.1410   22.8478 C   0  0  0  0  0  0
  -24.1508  -36.7273   23.2637 C   0  0  0  0  0  0
  -25.9728  -30.7776   21.3610 C   0  0  0  0  0  0
  -26.0517  -29.3936   20.7211 C   0  0  0  0  0  0
  -27.2352  -28.5881   20.7292 C   0  0  0  0  0  0
  -26.0478  -26.8337   19.5554 C   0  0  0  0  0  0
  -24.8857  -27.6373   19.5223 C   0  0  0  0  0  0
  -23.6542  -29.7972   20.1506 C   0  0  0  0  0  0
  -25.4133  -36.3060   24.0324 C   0  0  1  0  0  0
  -20.5942  -28.3696   23.1256 C   0  0  2  0  0  0
  -20.6816  -26.9399   22.5417 C   0  0  0  0  0  0
  -19.5784  -26.6382   21.5226 C   0  0  0  0  0  0
  -18.1957  -26.7963   22.1612 C   0  0  0  0  0  0
  -19.1585  -28.8869   23.2869 C   0  0  0  0  0  0
  -18.9496  -30.1468   23.8891 C   0  0  0  0  0  0
  -17.6488  -30.6596   24.0576 C   0  0  0  0  0  0
  -25.9041  -34.9445   23.5051 C   0  0  0  0  0  0
  -16.5386  -29.9106   23.6347 C   0  0  0  0  0  0
  -16.7316  -28.6533   23.0325 C   0  0  0  0  0  0
  -26.4495  -31.6596   25.0657 C   0  0  0  0  0  0
  -25.3741  -31.3772   26.1383 C   0  0  0  0  0  0
  -27.0318  -30.3031   24.6083 C   0  0  0  0  0  0
  -27.6015  -32.4356   25.7469 C   0  0  0  0  0  0
  -27.5583  -37.1785   24.8458 C   0  0  0  0  0  0
  -21.4220  -29.3045   22.3597 N   0  0  0  0  0  0
  -26.4287  -37.3767   23.9421 N   0  0  0  0  0  0
  -24.6978  -31.0541   22.0856 N   0  0  0  0  0  0
  -23.4223  -28.8149   23.2907 O   0  0  0  0  0  0
  -28.3565  -26.4027   20.1928 O   0  0  0  0  0  0
  -26.5599  -34.8915   22.4626 O   0  0  0  0  0  0
  -23.5454  -32.1300   23.7202 O   0  0  0  0  0  0
  -31.2646  -18.7748   22.6204 C   0  0  0  0  0  0
  -30.6424  -19.9035   22.0585 C   0  0  0  0  0  0
  -31.0186  -17.4914   22.0922 C   0  0  0  0  0  0
  -29.7764  -19.7514   20.9620 C   0  0  0  0  0  0
  -30.1239  -17.3087   21.0184 C   0  0  0  0  0  0
  -29.2929  -21.0717   20.1899 C   0  0  0  0  0  0
  -28.8332  -23.7085   20.1304 C   0  0  0  0  0  0
  -28.2679  -25.0515   20.8507 C   0  0  0  0  0  0
  -29.5196  -18.4568   20.4858 N   0  0  0  0  0  0
  -29.8150  -15.8995   20.6583 N   0  0  0  0  0  0
  -28.9304  -22.3774   20.9287 N   0  3  0  0  0  0
  -31.4771  -12.6387   19.1475 H   0  0  0  0  0  0
  -30.4235  -11.5090   19.9512 H   0  0  0  0  0  0
  -29.7970  -11.7324   17.5256 H   0  0  0  0  0  0
  -29.6350  -13.4619   17.7076 H   0  0  0  0  0  0
  -27.8883  -11.2869   18.8970 H   0  0  0  0  0  0
  -27.3847  -12.5406   17.7954 H   0  0  0  0  0  0
  -27.6334  -14.2546   19.4735 H   0  0  0  0  0  0
  -28.7408  -12.1539   21.3972 H   0  0  0  0  0  0
  -28.4219  -13.8249   21.8085 H   0  0  0  0  0  0
  -25.2736   -9.5705   22.4791 H   0  0  0  0  0  0
  -24.0002   -7.4628   22.7478 H   0  0  0  0  0  0
  -21.0849   -8.8762   19.8956 H   0  0  0  0  0  0
  -22.3672  -10.9677   19.6175 H   0  0  0  0  0  0
  -21.1970   -7.6141   23.9720 H   0  0  0  0  0  0
  -21.1488   -6.0527   25.9084 H   0  0  0  0  0  0
  -22.0586   -2.7603   23.2879 H   0  0  0  0  0  0
  -22.4032  -11.9893   22.4849 H   0  0  0  0  0  0
  -21.1017  -13.1230   22.2532 H   0  0  0  0  0  0
  -24.6482  -15.8397   20.5378 H   0  0  0  0  0  0
  -26.2416  -15.6310   20.0243 H   0  0  0  0  0  0
  -26.7167  -32.5426   23.0996 H   0  0  0  0  0  0
  -25.0212  -33.9741   25.0450 H   0  0  0  0  0  0
  -22.7283  -31.2974   21.3722 H   0  0  0  0  0  0
  -23.3760  -35.9606   23.3300 H   0  0  0  0  0  0
  -24.3605  -36.8872   22.2047 H   0  0  0  0  0  0
  -23.7275  -37.6486   23.6669 H   0  0  0  0  0  0
  -26.0983  -31.5266   20.5790 H   0  0  0  0  0  0
  -26.8570  -30.8432   21.9829 H   0  0  0  0  0  0
  -28.1355  -28.9668   21.1938 H   0  0  0  0  0  0
  -26.0084  -25.8502   19.1121 H   0  0  0  0  0  0
  -23.9891  -27.2564   19.0522 H   0  0  0  0  0  0
  -23.7835  -30.5654   19.3869 H   0  0  0  0  0  0
  -22.7754  -29.2239   19.8467 H   0  0  0  0  0  0
  -25.1322  -36.1846   25.0813 H   0  0  0  0  0  0
  -21.0067  -28.3281   24.1358 H   0  0  0  0  0  0
  -20.5713  -26.2295   23.3630 H   0  0  0  0  0  0
  -21.6680  -26.7416   22.1193 H   0  0  0  0  0  0
  -19.6934  -25.6289   21.1248 H   0  0  0  0  0  0
  -19.6744  -27.3207   20.6779 H   0  0  0  0  0  0
  -17.4242  -26.6722   21.4001 H   0  0  0  0  0  0
  -18.0298  -26.0151   22.9043 H   0  0  0  0  0  0
  -19.7977  -30.7304   24.2214 H   0  0  0  0  0  0
  -17.5061  -31.6269   24.5182 H   0  0  0  0  0  0
  -15.5382  -30.2994   23.7699 H   0  0  0  0  0  0
  -15.8728  -28.0888   22.6983 H   0  0  0  0  0  0
  -24.5930  -30.7088   25.7751 H   0  0  0  0  0  0
  -24.8913  -32.2962   26.4745 H   0  0  0  0  0  0
  -25.8073  -30.9034   27.0194 H   0  0  0  0  0  0
  -26.2859  -29.6810   24.1130 H   0  0  0  0  0  0
  -27.4072  -29.7279   25.4542 H   0  0  0  0  0  0
  -27.8707  -30.4353   23.9258 H   0  0  0  0  0  0
  -27.2582  -33.3671   26.2002 H   0  0  0  0  0  0
  -28.3878  -32.6889   25.0347 H   0  0  0  0  0  0
  -28.0620  -31.8507   26.5427 H   0  0  0  0  0  0
  -28.2546  -38.0130   24.7535 H   0  0  0  0  0  0
  -28.1122  -36.2655   24.6231 H   0  0  0  0  0  0
  -27.2308  -37.1353   25.8858 H   0  0  0  0  0  0
  -20.9362  -29.8807   21.6869 H   0  0  0  0  0  0
  -26.0134  -38.2810   24.1475 H   0  0  0  0  0  0
  -31.9472  -18.8905   23.4512 H   0  0  0  0  0  0
  -30.8811  -20.8819   22.4519 H   0  0  0  0  0  0
  -31.5059  -16.6415   22.5493 H   0  0  0  0  0  0
  -28.4705  -20.8112   19.5272 H   0  0  0  0  0  0
  -30.1262  -21.3228   19.5348 H   0  0  0  0  0  0
  -29.8352  -23.9295   19.7552 H   0  0  0  0  0  0
  -28.2242  -23.5246   19.2456 H   0  0  0  0  0  0
  -28.8214  -25.1779   21.7843 H   0  0  0  0  0  0
  -27.2414  -24.8725   21.1718 H   0  0  0  0  0  0
  -28.8300  -15.7099   20.5752 H   0  0  0  0  0  0
  -29.6057  -22.4968   21.6663 H   0  0  0  0  0  0
  -28.0502  -22.2030   21.3867 H   0  0  0  0  0  0
  1 25  1  0  0  0
  1 30  2  0  0  0
  1 80  1  0  0  0
  2  3  1  0  0  0
  2 25  1  0  0  0
  2 82  1  0  0  0
  2 83  1  0  0  0
  3  4  1  0  0  0
  3 84  1  0  0  0
  3 85  1  0  0  0
  4  5  1  0  0  0
  4 86  1  0  0  0
  4 87  1  0  0  0
  5  6  1  0  0  0
  5 26  1  0  0  0
  5 88  1  0  0  0
  6 25  1  0  0  0
  6 89  1  0  0  0
  6 90  1  0  0  0
  7  8  2  0  0  0
  7 26  1  0  0  0
  7 29  1  0  0  0
  8  9  1  0  0  0
  8 22  1  0  0  0
  9 10  1  0  0  0
  9 27  2  0  0  0
 10 11  2  0  0  0
 10 15  1  0  0  0
 11 12  1  0  0  0
 11 91  1  0  0  0
 12 13  2  0  0  0
 12 92  1  0  0  0
 13 14  1  0  0  0
 13 31  1  0  0  0
 14 15  2  0  0  0
 14 93  1  0  0  0
 15 94  1  0  0  0
 16 17  2  0  0  0
 16 21  1  0  0  0
 16 31  1  0  0  0
 17 18  1  0  0  0
 17 95  1  0  0  0
 18 19  2  0  0  0
 18 96  1  0  0  0
 19 20  1  0  0  0
 19 24  1  0  0  0
 20 21  2  0  0  0
 20 97  1  0  0  0
 21 23  1  0  0  0
 22 28  1  0  0  0
 22 32  2  0  0  0
 26 27  1  0  0  0
 28 98  1  0  0  0
 28 99  1  0  0  0
 29100  1  0  0  0
 29101  1  0  0  0
 33 34  1  0  0  0
 33 66  1  0  0  0
 33 70  2  0  0  0
 34 36  1  0  0  0
 34 59  1  0  0  0
 34102  1  0  0  0
 35 44  2  0  0  0
 35 45  1  0  0  0
 35 68  1  0  0  0
 36 56  1  0  0  0
 36103  1  0  0  0
 37 39  1  0  0  0
 37 47  1  0  0  0
 37 66  1  0  0  0
 37104  1  0  0  0
 38 43  2  0  0  0
 38 46  1  0  0  0
 38 47  1  0  0  0
 39 64  1  0  0  0
 39 67  2  0  0  0
 40 52  1  0  0  0
 40 53  2  0  0  0
 40 58  1  0  0  0
 41105  1  0  0  0
 41106  1  0  0  0
 41107  1  0  0  0
 41 48  1  0  0  0
 42 43  1  0  0  0
 42 66  1  0  0  0
 42108  1  0  0  0
 42109  1  0  0  0
 43 44  1  0  0  0
 44110  1  0  0  0
 45 46  2  0  0  0
 45111  1  0  0  0
 46112  1  0  0  0
 47113  1  0  0  0
 47114  1  0  0  0
 48 56  1  0  0  0
 48 65  1  0  0  0
 48115  1  0  0  0
 49 50  1  0  0  0
 49 53  1  0  0  0
 49 64  1  0  0  0
 49116  1  0  0  0
 50 51  1  0  0  0
 50117  1  0  0  0
 50118  1  0  0  0
 51 52  1  0  0  0
 51119  1  0  0  0
 51120  1  0  0  0
 52121  1  0  0  0
 52122  1  0  0  0
 53 54  1  0  0  0
 54 55  2  0  0  0
 54123  1  0  0  0
 55 57  1  0  0  0
 55124  1  0  0  0
 56 69  2  0  0  0
 57 58  2  0  0  0
 57125  1  0  0  0
 58126  1  0  0  0
 59 60  1  0  0  0
 59 61  1  0  0  0
 59 62  1  0  0  0
 60127  1  0  0  0
 60128  1  0  0  0
 60129  1  0  0  0
 61130  1  0  0  0
 61131  1  0  0  0
 61132  1  0  0  0
 62133  1  0  0  0
 62134  1  0  0  0
 62135  1  0  0  0
 63 65  1  0  0  0
 63136  1  0  0  0
 63137  1  0  0  0
 63138  1  0  0  0
 64139  1  0  0  0
 65140  1  0  0  0
 68 78  1  0  0  0
 71 72  2  0  0  0
 71 73  1  0  0  0
 71141  1  0  0  0
 72 74  1  0  0  0
 72142  1  0  0  0
 73 75  2  0  0  0
 73143  1  0  0  0
 74 76  1  0  0  0
 74 79  2  0  0  0
 75 79  1  0  0  0
 75 80  1  0  0  0
 76 81  1  0  0  0
 76144  1  0  0  0
 76145  1  0  0  0
 77 78  1  0  0  0
 77 81  1  0  0  0
 77146  1  0  0  0
 77147  1  0  0  0
 78148  1  0  0  0
 78149  1  0  0  0
 80150  1  0  0  0
 81151  1  0  0  0
 81152  1  0  0  0
M  CHG  1  81   1
M  ISO  4   1 100  68 101  78 101  80 100
M  END
> <chiral flag>
0

> <version>
0

> <s_m_source_file>
/data/baiqing/PycharmProjects/Reinvent-master-3.2/result/LINK_invent/BTK/process_docking_weight1_custom_sum_contain_oxygen_bond_distance_aromatic_linkinvent_7_9_3/rearranged_h_0130.sdf

> <i_m_source_file_index>
49

> <r_mmod_Potential_Energy-OPLS-2005>
-182.324691772461

> <r_mmod_Stretch_Energy-OPLS-2005>
130.279510498047

> <r_mmod_Bend_Energy-OPLS-2005>
166.360504150391

> <r_mmod_Torsional_Energy-OPLS-2005>
247.600479125977

> <r_mmod_Improper_Torsional_Energy-OPLS-2005>
7.91348218917847

> <r_mmod_Van_der_Waal_Energy-OPLS-2005>
132.678924560547

> <r_mmod_Electrostatic_Energy-OPLS-2005>
-467.700714111328

> <r_mmod_Solvation_Energy-OPLS-2005>
-487.714721679688

> <b_mmod_Minimization_Converged-OPLS-2005>
0

> <r_mmod_RMS_Derivative-OPLS-2005>
4.85548114776611

$$$$
49
                    3D
 Structure written by MMmdl.
168177  0  0  1  0            999 V2000
  -30.7274  -14.6126   20.5088 C   0  0  0  0  0  0
  -30.4085  -12.3876   19.4592 C   0  0  0  0  0  0
  -29.4934  -12.4825   18.2230 C   0  0  0  0  0  0
  -28.0240  -12.3055   18.6430 C   0  0  0  0  0  0
  -27.6390  -13.2068   19.8428 C   0  0  2  0  0  0
  -28.6867  -13.1443   20.9819 C   0  0  0  0  0  0
  -25.2508  -13.8141   20.5666 C   0  0  0  0  0  0
  -24.1798  -13.0420   20.9233 C   0  0  0  0  0  0
  -24.6370  -11.6888   20.8788 C   0  0  0  0  0  0
  -23.9050  -10.4276   21.0437 C   0  0  0  0  0  0
  -24.3603   -9.4179   21.9198 C   0  0  0  0  0  0
  -23.6274   -8.2223   22.0759 C   0  0  0  0  0  0
  -22.4249   -8.0278   21.3553 C   0  0  0  0  0  0
  -21.9884   -9.0256   20.4657 C   0  0  0  0  0  0
  -22.7224  -10.2127   20.3076 C   0  0  0  0  0  0
  -21.6853   -6.0726   22.5284 C   0  0  0  0  0  0
  -21.4014   -6.5634   23.8217 C   0  0  0  0  0  0
  -21.3652   -5.6789   24.9178 C   0  0  0  0  0  0
  -21.6045   -4.3053   24.7228 C   0  0  0  0  0  0
  -21.8819   -3.8138   23.4354 C   0  0  0  0  0  0
  -21.9188   -4.6950   22.3406 C   0  0  0  0  0  0
  -22.7827  -13.5224   21.1877 C   0  0  0  0  0  0
  -22.1658   -4.2137   21.0982 F   0  0  0  0  0  0
  -21.5613   -3.4538   25.7740 F   0  0  0  0  0  0
  -29.9997  -13.4519   20.4035 N   0  0  0  0  0  0
  -26.2914  -12.9302   20.3247 N   0  0  0  0  0  0
  -25.9291  -11.6483   20.5792 N   0  0  0  0  0  0
  -22.0448  -12.8236   22.0434 N   0  0  0  0  0  0
  -25.4148  -15.1856   20.3993 N   0  0  0  0  0  0
  -31.8995  -14.6286   20.1266 O   0  0  0  0  0  0
  -21.6624   -6.8868   21.4247 O   0  0  0  0  0  0
  -22.3520  -14.5519   20.6698 O   0  0  0  0  0  0
  -24.6255  -31.8635   23.2071 C   0  0  0  0  0  0
  -25.9112  -32.4802   23.8387 C   0  0  1  0  0  0
  -27.2139  -27.3369   20.1024 C   0  0  0  0  0  0
  -25.5949  -33.8600   24.2318 N   0  0  0  0  0  0
  -23.4172  -30.4912   21.5505 C   0  0  2  0  0  0
  -24.8606  -28.9608   20.1102 C   0  0  0  0  0  0
  -22.7469  -29.4639   22.4938 C   0  0  0  0  0  0
  -18.0292  -28.1393   22.8473 C   0  0  0  0  0  0
  -24.1490  -36.7294   23.2630 C   0  0  0  0  0  0
  -25.9604  -30.7999   21.3786 C   0  0  0  0  0  0
  -26.0331  -29.4325   20.7140 C   0  0  0  0  0  0
  -27.2146  -28.6330   20.7023 C   0  0  0  0  0  0
  -26.0130  -26.9267   19.4698 C   0  0  0  0  0  0
  -24.8519  -27.7118   19.4801 C   0  0  0  0  0  0
  -23.6302  -29.8382   20.1625 C   0  0  0  0  0  0
  -25.4110  -36.3090   24.0333 C   0  0  1  0  0  0
  -20.5888  -28.3692   23.1278 C   0  0  2  0  0  0
  -20.6782  -26.9416   22.5407 C   0  0  0  0  0  0
  -19.5763  -26.6381   21.5205 C   0  0  0  0  0  0
  -18.1940  -26.7933   22.1610 C   0  0  0  0  0  0
  -19.1540  -28.8858   23.2875 C   0  0  0  0  0  0
  -18.9464  -30.1457   23.8894 C   0  0  0  0  0  0
  -17.6466  -30.6580   24.0565 C   0  0  0  0  0  0
  -25.9051  -34.9465   23.5116 C   0  0  0  0  0  0
  -16.5358  -29.9080   23.6329 C   0  0  0  0  0  0
  -16.7279  -28.6505   23.0335 C   0  0  0  0  0  0
  -26.4503  -31.6599   25.0744 C   0  0  0  0  0  0
  -25.3748  -31.3750   26.1484 C   0  0  0  0  0  0
  -27.0324  -30.3015   24.6191 C   0  0  0  0  0  0
  -27.6082  -32.4320   25.7492 C   0  0  0  0  0  0
  -27.5592  -37.1786   24.8449 C   0  0  0  0  0  0
  -21.4186  -29.3046   22.3675 N   0  0  0  0  0  0
  -26.4285  -37.3788   23.9420 N   0  0  0  0  0  0
  -24.6867  -31.0659   22.1027 N   0  0  0  0  0  0
  -23.4203  -28.8158   23.2992 O   0  0  0  0  0  0
  -28.3185  -26.4696   20.1564 O   0  0  0  0  0  0
  -26.5595  -34.8917   22.4667 O   0  0  0  0  0  0
  -23.5425  -32.1440   23.7407 O   0  0  0  0  0  0
  -28.7392  -22.6305   20.7291 C   0  0  0  0  0  0
  -30.3826  -24.1061   19.7808 C   0  0  0  0  0  0
  -29.0717  -23.9321   20.2390 C   0  0  0  0  0  0
  -29.6979  -21.5664   20.7902 C   0  0  0  0  0  0
  -30.9995  -21.8993   20.3161 C   0  0  0  0  0  0
  -28.9803  -16.4154   20.3440 C   0  0  0  0  0  0
  -31.1155  -16.7752   21.5617 C   0  0  0  0  0  0
  -28.6181  -17.9270   20.6359 C   0  0  0  0  0  0
  -30.5074  -18.1010   22.0806 C   0  0  0  0  0  0
  -33.4380  -21.5021   20.9509 C   0  0  0  0  0  0
  -32.4579  -20.4186   18.8628 C   0  0  0  0  0  0
  -29.2930  -20.2195   21.5107 C   0  0  0  0  0  0
  -27.9929  -25.0348   20.0491 C   0  0  0  0  0  0
  -32.1774  -20.9233   20.2872 C   0  0  0  0  0  0
  -31.3039  -23.1190   19.8048 N   0  0  0  0  0  0
  -30.1689  -15.7869   20.9865 N   0  0  0  0  0  0
  -29.7333  -18.8328   21.0399 N   0  3  0  0  0  0
  -31.4532  -12.4613   19.1520 H   0  0  0  0  0  0
  -30.3127  -11.4087   19.9330 H   0  0  0  0  0  0
  -29.7649  -11.7199   17.4922 H   0  0  0  0  0  0
  -29.6286  -13.4456   17.7279 H   0  0  0  0  0  0
  -27.8827  -11.2562   18.9073 H   0  0  0  0  0  0
  -27.3624  -12.4970   17.7979 H   0  0  0  0  0  0
  -27.6227  -14.2074   19.4232 H   0  0  0  0  0  0
  -28.7023  -12.1526   21.4367 H   0  0  0  0  0  0
  -28.4350  -13.8396   21.7842 H   0  0  0  0  0  0
  -25.2753   -9.5633   22.4771 H   0  0  0  0  0  0
  -23.9972   -7.4608   22.7480 H   0  0  0  0  0  0
  -21.0803   -8.8791   19.8976 H   0  0  0  0  0  0
  -22.3697  -10.9671   19.6187 H   0  0  0  0  0  0
  -21.2025   -7.6147   23.9718 H   0  0  0  0  0  0
  -21.1466   -6.0518   25.9079 H   0  0  0  0  0  0
  -22.0601   -2.7594   23.2870 H   0  0  0  0  0  0
  -22.4038  -11.9901   22.4856 H   0  0  0  0  0  0
  -21.1080  -13.1308   22.2644 H   0  0  0  0  0  0
  -24.6302  -15.8232   20.4881 H   0  0  0  0  0  0
  -26.2290  -15.6168   19.9857 H   0  0  0  0  0  0
  -26.7179  -32.5480   23.1138 H   0  0  0  0  0  0
  -25.0142  -33.9759   25.0495 H   0  0  0  0  0  0
  -22.7114  -31.3133   21.4138 H   0  0  0  0  0  0
  -23.3762  -35.9614   23.3272 H   0  0  0  0  0  0
  -24.3594  -36.8931   22.2048 H   0  0  0  0  0  0
  -23.7229  -37.6485   23.6663 H   0  0  0  0  0  0
  -26.0936  -31.5691   20.6168 H   0  0  0  0  0  0
  -26.8408  -30.8427   22.0082 H   0  0  0  0  0  0
  -28.1125  -28.9880   21.1889 H   0  0  0  0  0  0
  -25.9178  -25.9812   18.9600 H   0  0  0  0  0  0
  -23.9545  -27.3470   18.9994 H   0  0  0  0  0  0
  -23.7504  -30.6208   19.4122 H   0  0  0  0  0  0
  -22.7494  -29.2712   19.8550 H   0  0  0  0  0  0
  -25.1275  -36.1943   25.0822 H   0  0  0  0  0  0
  -20.9982  -28.3278   24.1394 H   0  0  0  0  0  0
  -20.5674  -26.2302   23.3604 H   0  0  0  0  0  0
  -21.6659  -26.7443   22.1216 H   0  0  0  0  0  0
  -19.6925  -25.6290   21.1238 H   0  0  0  0  0  0
  -19.6701  -27.3181   20.6731 H   0  0  0  0  0  0
  -17.4210  -26.6676   21.4019 H   0  0  0  0  0  0
  -18.0341  -26.0083   22.9008 H   0  0  0  0  0  0
  -19.7940  -30.7275   24.2261 H   0  0  0  0  0  0
  -17.5015  -31.6256   24.5177 H   0  0  0  0  0  0
  -15.5360  -30.2976   23.7653 H   0  0  0  0  0  0
  -15.8685  -28.0824   22.7048 H   0  0  0  0  0  0
  -24.5907  -30.7110   25.7830 H   0  0  0  0  0  0
  -24.8962  -32.2928   26.4911 H   0  0  0  0  0  0
  -25.8082  -30.8930   27.0258 H   0  0  0  0  0  0
  -26.2891  -29.6774   24.1222 H   0  0  0  0  0  0
  -27.4025  -29.7259   25.4685 H   0  0  0  0  0  0
  -27.8763  -30.4287   23.9406 H   0  0  0  0  0  0
  -27.2718  -33.3615   26.2097 H   0  0  0  0  0  0
  -28.3869  -32.6898   25.0300 H   0  0  0  0  0  0
  -28.0783  -31.8437   26.5384 H   0  0  0  0  0  0
  -28.2571  -38.0123   24.7561 H   0  0  0  0  0  0
  -28.1129  -36.2664   24.6179 H   0  0  0  0  0  0
  -27.2329  -37.1315   25.8853 H   0  0  0  0  0  0
  -20.9357  -29.8789   21.6905 H   0  0  0  0  0  0
  -26.0167  -38.2847   24.1482 H   0  0  0  0  0  0
  -27.7311  -22.4531   21.0758 H   0  0  0  0  0  0
  -30.6976  -25.0479   19.3552 H   0  0  0  0  0  0
  -29.0654  -16.2834   19.2632 H   0  0  0  0  0  0
  -28.1079  -15.8494   20.6545 H   0  0  0  0  0  0
  -31.6618  -16.3015   22.3804 H   0  0  0  0  0  0
  -31.8672  -17.0313   20.8104 H   0  0  0  0  0  0
  -27.8851  -17.9299   21.4456 H   0  0  0  0  0  0
  -28.0995  -18.3526   19.7756 H   0  0  0  0  0  0
  -31.3122  -18.7232   22.4721 H   0  0  0  0  0  0
  -29.8601  -17.8933   22.9349 H   0  0  0  0  0  0
  -33.2322  -21.8130   21.9753 H   0  0  0  0  0  0
  -33.8175  -22.3685   20.4086 H   0  0  0  0  0  0
  -34.2378  -20.7616   20.9830 H   0  0  0  0  0  0
  -31.5739  -19.9548   18.4250 H   0  0  0  0  0  0
  -33.2569  -19.6765   18.8573 H   0  0  0  0  0  0
  -32.7600  -21.2329   18.2043 H   0  0  0  0  0  0
  -28.2051  -20.2143   21.5899 H   0  0  0  0  0  0
  -29.6158  -20.3495   22.5447 H   0  0  0  0  0  0
  -27.1740  -24.8090   20.7348 H   0  0  0  0  0  0
  -27.6339  -24.8419   19.0385 H   0  0  0  0  0  0
  -31.9358  -20.0591   20.8866 H   0  0  0  0  0  0
  -30.3221  -18.9486   20.2314 H   0  0  0  0  0  0
  1 25  1  0  0  0
  1 30  2  0  0  0
  1 86  1  0  0  0
  2  3  1  0  0  0
  2 25  1  0  0  0
  2 88  1  0  0  0
  2 89  1  0  0  0
  3  4  1  0  0  0
  3 90  1  0  0  0
  3 91  1  0  0  0
  4  5  1  0  0  0
  4 92  1  0  0  0
  4 93  1  0  0  0
  5  6  1  0  0  0
  5 26  1  0  0  0
  5 94  1  0  0  0
  6 25  1  0  0  0
  6 95  1  0  0  0
  6 96  1  0  0  0
  7  8  2  0  0  0
  7 26  1  0  0  0
  7 29  1  0  0  0
  8  9  1  0  0  0
  8 22  1  0  0  0
  9 10  1  0  0  0
  9 27  2  0  0  0
 10 11  2  0  0  0
 10 15  1  0  0  0
 11 12  1  0  0  0
 11 97  1  0  0  0
 12 13  2  0  0  0
 12 98  1  0  0  0
 13 14  1  0  0  0
 13 31  1  0  0  0
 14 15  2  0  0  0
 14 99  1  0  0  0
 15100  1  0  0  0
 16 17  2  0  0  0
 16 21  1  0  0  0
 16 31  1  0  0  0
 17 18  1  0  0  0
 17101  1  0  0  0
 18 19  2  0  0  0
 18102  1  0  0  0
 19 20  1  0  0  0
 19 24  1  0  0  0
 20 21  2  0  0  0
 20103  1  0  0  0
 21 23  1  0  0  0
 22 28  1  0  0  0
 22 32  2  0  0  0
 26 27  1  0  0  0
 28104  1  0  0  0
 28105  1  0  0  0
 29106  1  0  0  0
 29107  1  0  0  0
 33 34  1  0  0  0
 33 66  1  0  0  0
 33 70  2  0  0  0
 34 36  1  0  0  0
 34 59  1  0  0  0
 34108  1  0  0  0
 35 44  2  0  0  0
 35 45  1  0  0  0
 35 68  1  0  0  0
 36 56  1  0  0  0
 36109  1  0  0  0
 37 39  1  0  0  0
 37 47  1  0  0  0
 37 66  1  0  0  0
 37110  1  0  0  0
 38 43  2  0  0  0
 38 46  1  0  0  0
 38 47  1  0  0  0
 39 64  1  0  0  0
 39 67  2  0  0  0
 40 52  1  0  0  0
 40 53  2  0  0  0
 40 58  1  0  0  0
 41111  1  0  0  0
 41112  1  0  0  0
 41113  1  0  0  0
 41 48  1  0  0  0
 42 43  1  0  0  0
 42 66  1  0  0  0
 42114  1  0  0  0
 42115  1  0  0  0
 43 44  1  0  0  0
 44116  1  0  0  0
 45 46  2  0  0  0
 45117  1  0  0  0
 46118  1  0  0  0
 47119  1  0  0  0
 47120  1  0  0  0
 48 56  1  0  0  0
 48 65  1  0  0  0
 48121  1  0  0  0
 49 50  1  0  0  0
 49 53  1  0  0  0
 49 64  1  0  0  0
 49122  1  0  0  0
 50 51  1  0  0  0
 50123  1  0  0  0
 50124  1  0  0  0
 51 52  1  0  0  0
 51125  1  0  0  0
 51126  1  0  0  0
 52127  1  0  0  0
 52128  1  0  0  0
 53 54  1  0  0  0
 54 55  2  0  0  0
 54129  1  0  0  0
 55 57  1  0  0  0
 55130  1  0  0  0
 56 69  2  0  0  0
 57 58  2  0  0  0
 57131  1  0  0  0
 58132  1  0  0  0
 59 60  1  0  0  0
 59 61  1  0  0  0
 59 62  1  0  0  0
 60133  1  0  0  0
 60134  1  0  0  0
 60135  1  0  0  0
 61136  1  0  0  0
 61137  1  0  0  0
 61138  1  0  0  0
 62139  1  0  0  0
 62140  1  0  0  0
 62141  1  0  0  0
 63 65  1  0  0  0
 63142  1  0  0  0
 63143  1  0  0  0
 63144  1  0  0  0
 64145  1  0  0  0
 65146  1  0  0  0
 68 83  1  0  0  0
 71 73  2  0  0  0
 71 74  1  0  0  0
 71147  1  0  0  0
 72 73  1  0  0  0
 72 85  2  0  0  0
 72148  1  0  0  0
 73 83  1  0  0  0
 74 75  2  0  0  0
 74 82  1  0  0  0
 75 84  1  0  0  0
 75 85  1  0  0  0
 76 78  1  0  0  0
 76 86  1  0  0  0
 76149  1  0  0  0
 76150  1  0  0  0
 77 79  1  0  0  0
 77 86  1  0  0  0
 77151  1  0  0  0
 77152  1  0  0  0
 78 87  1  0  0  0
 78153  1  0  0  0
 78154  1  0  0  0
 79 87  1  0  0  0
 79155  1  0  0  0
 79156  1  0  0  0
 80157  1  0  0  0
 80158  1  0  0  0
 80159  1  0  0  0
 80 84  1  0  0  0
 81 84  1  0  0  0
 81160  1  0  0  0
 81161  1  0  0  0
 81162  1  0  0  0
 82163  1  0  0  0
 82164  1  0  0  0
 82 87  1  0  0  0
 83165  1  0  0  0
 83166  1  0  0  0
 84167  1  0  0  0
 87168  1  0  0  0
M  CHG  1  87   1
M  ISO  4   1 100  68 101  83 101  86 100
M  END
> <chiral flag>
0

> <version>
0

> <s_m_source_file>
/data/baiqing/PycharmProjects/Reinvent-master-3.2/result/LINK_invent/BTK/process_docking_weight1_custom_sum_contain_oxygen_bond_distance_aromatic_linkinvent_7_9_3/rearranged_h_0130.sdf

> <i_m_source_file_index>
50

> <r_mmod_Potential_Energy-OPLS-2005>
53.1655158996582

> <r_mmod_Stretch_Energy-OPLS-2005>
78.384880065918

> <r_mmod_Bend_Energy-OPLS-2005>
172.212188720703

> <r_mmod_Torsional_Energy-OPLS-2005>
371.823760986328

> <r_mmod_Improper_Torsional_Energy-OPLS-2005>
6.14255619049072

> <r_mmod_Van_der_Waal_Energy-OPLS-2005>
169.076019287109

> <r_mmod_Electrostatic_Energy-OPLS-2005>
-336.600219726562

> <r_mmod_Solvation_Energy-OPLS-2005>
-457.125030517578

> <b_mmod_Minimization_Converged-OPLS-2005>
0

> <r_mmod_RMS_Derivative-OPLS-2005>
1.79304826259613

$$$$
50
                    3D
 Structure written by MMmdl.
180190  0  0  1  0            999 V2000
  -30.7249  -14.4406   20.6408 C   0  0  0  0  0  0
  -30.4250  -12.3119   19.4234 C   0  0  0  0  0  0
  -29.4939  -12.5062   18.2085 C   0  0  0  0  0  0
  -28.0142  -12.3604   18.6225 C   0  0  0  0  0  0
  -27.6614  -13.2028   19.8766 C   0  0  2  0  0  0
  -28.7015  -12.9734   20.9969 C   0  0  0  0  0  0
  -25.2568  -13.8121   20.5632 C   0  0  0  0  0  0
  -24.1824  -13.0419   20.9180 C   0  0  0  0  0  0
  -24.6383  -11.6873   20.8715 C   0  0  0  0  0  0
  -23.9034  -10.4266   21.0339 C   0  0  0  0  0  0
  -24.3579   -9.4211   21.9148 C   0  0  0  0  0  0
  -23.6289   -8.2233   22.0738 C   0  0  0  0  0  0
  -22.4304   -8.0227   21.3498 C   0  0  0  0  0  0
  -21.9875   -9.0199   20.4628 C   0  0  0  0  0  0
  -22.7180  -10.2103   20.3037 C   0  0  0  0  0  0
  -21.6906   -6.0693   22.5269 C   0  0  0  0  0  0
  -21.4031   -6.5613   23.8189 C   0  0  0  0  0  0
  -21.3654   -5.6795   24.9162 C   0  0  0  0  0  0
  -21.6053   -4.3056   24.7259 C   0  0  0  0  0  0
  -21.8838   -3.8120   23.4396 C   0  0  0  0  0  0
  -21.9195   -4.6901   22.3420 C   0  0  0  0  0  0
  -22.7826  -13.5153   21.1829 C   0  0  0  0  0  0
  -22.1666   -4.2051   21.1009 F   0  0  0  0  0  0
  -21.5645   -3.4564   25.7799 F   0  0  0  0  0  0
  -30.0335  -13.2851   20.4532 N   0  0  0  0  0  0
  -26.3015  -12.9311   20.3359 N   0  0  0  0  0  0
  -25.9321  -11.6466   20.5790 N   0  0  0  0  0  0
  -22.0538  -12.8104   22.0407 N   0  0  0  0  0  0
  -25.4250  -15.1839   20.3933 N   0  0  0  0  0  0
  -31.8120  -14.6738   20.1027 O   0  0  0  0  0  0
  -21.6714   -6.8806   21.4219 O   0  0  0  0  0  0
  -22.3424  -14.5417   20.6660 O   0  0  0  0  0  0
  -24.6156  -31.8653   23.2078 C   0  0  0  0  0  0
  -25.9042  -32.4828   23.8375 C   0  0  1  0  0  0
  -27.2421  -27.4409   20.0801 C   0  0  0  0  0  0
  -25.5891  -33.8627   24.2322 N   0  0  0  0  0  0
  -23.4022  -30.4879   21.5502 C   0  0  2  0  0  0
  -24.8473  -28.9553   20.1157 C   0  0  0  0  0  0
  -22.7406  -29.4653   22.5016 C   0  0  0  0  0  0
  -18.0263  -28.1365   22.8484 C   0  0  0  0  0  0
  -24.1493  -36.7325   23.2637 C   0  0  0  0  0  0
  -25.9307  -30.8384   21.3525 C   0  0  0  0  0  0
  -26.0116  -29.4726   20.6987 C   0  0  0  0  0  0
  -27.2134  -28.7276   20.6655 C   0  0  0  0  0  0
  -26.0537  -26.9320   19.5069 C   0  0  0  0  0  0
  -24.8659  -27.6845   19.5164 C   0  0  0  0  0  0
  -23.6080  -29.8184   20.1658 C   0  0  0  0  0  0
  -25.4104  -36.3113   24.0337 C   0  0  1  0  0  0
  -20.5861  -28.3651   23.1314 C   0  0  2  0  0  0
  -20.6753  -26.9388   22.5416 C   0  0  0  0  0  0
  -19.5745  -26.6380   21.5206 C   0  0  0  0  0  0
  -18.1919  -26.7912   22.1610 C   0  0  0  0  0  0
  -19.1511  -28.8824   23.2904 C   0  0  0  0  0  0
  -18.9446  -30.1435   23.8917 C   0  0  0  0  0  0
  -17.6455  -30.6581   24.0562 C   0  0  0  0  0  0
  -25.9029  -34.9486   23.5120 C   0  0  0  0  0  0
  -16.5346  -29.9088   23.6320 C   0  0  0  0  0  0
  -16.7257  -28.6499   23.0343 C   0  0  0  0  0  0
  -26.4471  -31.6590   25.0700 C   0  0  0  0  0  0
  -25.3744  -31.3690   26.1468 C   0  0  0  0  0  0
  -27.0277  -30.3025   24.6041 C   0  0  0  0  0  0
  -27.6045  -32.4305   25.7467 C   0  0  0  0  0  0
  -27.5591  -37.1796   24.8449 C   0  0  0  0  0  0
  -21.4131  -29.3028   22.3733 N   0  0  0  0  0  0
  -26.4282  -37.3800   23.9428 N   0  0  0  0  0  0
  -24.6685  -31.0776   22.0963 N   0  0  0  0  0  0
  -23.4194  -28.8188   23.3038 O   0  0  0  0  0  0
  -28.4274  -26.7329   20.0636 O   0  0  0  0  0  0
  -26.5603  -34.8927   22.4690 O   0  0  0  0  0  0
  -23.5335  -32.1403   23.7477 O   0  0  0  0  0  0
  -30.8009  -19.0419   19.9738 C   0  0  0  0  0  0
  -29.8445  -21.0809   20.1495 C   0  0  0  0  0  0
  -30.8357  -20.3071   19.4549 C   0  0  0  0  0  0
  -29.1686  -20.2039   20.9739 C   0  0  0  0  0  0
  -29.9403  -19.2535   15.3622 C   0  0  0  0  0  0
  -29.5761  -23.3558   21.3446 C   0  0  0  0  0  0
  -28.4847  -23.0206   19.0744 C   0  0  0  0  0  0
  -29.5361  -24.8821   21.1295 C   0  0  0  0  0  0
  -28.4921  -24.5545   18.8647 C   0  0  0  0  0  0
  -29.9099  -20.0753   16.6456 C   0  0  0  0  0  0
  -31.2186  -18.4072   15.4921 C   0  0  0  0  0  0
  -29.6446  -22.5972   20.0016 C   0  0  2  0  0  0
  -28.3717  -25.3046   20.2123 C   0  0  2  0  0  0
  -31.4053  -20.3064   16.9275 C   0  0  1  0  0  0
  -27.9907  -20.4487   21.8700 C   0  0  0  0  0  0
  -31.7824  -20.7684   18.3588 C   0  0  0  0  0  0
  -29.5432  -17.7664   21.7377 C   0  0  0  0  0  0
  -29.3319  -16.4386   20.9573 C   0  0  0  0  0  0
  -29.7916  -18.9561   20.9080 N   0  0  0  0  0  0
  -30.1767  -15.3449   21.4670 N   0  0  0  0  0  0
  -32.0405  -19.0284   16.5518 N   0  3  0  0  0  0
  -31.4701  -12.4193   19.1200 H   0  0  0  0  0  0
  -30.3352  -11.2969   19.8195 H   0  0  0  0  0  0
  -29.7415  -11.7830   17.4312 H   0  0  0  0  0  0
  -29.6550  -13.4916   17.7660 H   0  0  0  0  0  0
  -27.8222  -11.3060   18.8310 H   0  0  0  0  0  0
  -27.3636  -12.6293   17.7911 H   0  0  0  0  0  0
  -27.7031  -14.2489   19.5763 H   0  0  0  0  0  0
  -28.6806  -11.9345   21.3284 H   0  0  0  0  0  0
  -28.4517  -13.5619   21.8842 H   0  0  0  0  0  0
  -25.2692   -9.5738   22.4743 H   0  0  0  0  0  0
  -24.0002   -7.4649   22.7488 H   0  0  0  0  0  0
  -21.0790   -8.8698   19.8945 H   0  0  0  0  0  0
  -22.3571  -10.9642   19.6190 H   0  0  0  0  0  0
  -21.2062   -7.6134   23.9647 H   0  0  0  0  0  0
  -21.1437   -6.0546   25.9037 H   0  0  0  0  0  0
  -22.0617   -2.7575   23.2970 H   0  0  0  0  0  0
  -22.4247  -11.9784   22.4780 H   0  0  0  0  0  0
  -21.1154  -13.1086   22.2688 H   0  0  0  0  0  0
  -24.6400  -15.8233   20.4521 H   0  0  0  0  0  0
  -26.2492  -15.6044   19.9810 H   0  0  0  0  0  0
  -26.7129  -32.5539   23.1144 H   0  0  0  0  0  0
  -25.0033  -33.9782   25.0467 H   0  0  0  0  0  0
  -22.6912  -31.3045   21.4086 H   0  0  0  0  0  0
  -23.3757  -35.9654   23.3254 H   0  0  0  0  0  0
  -24.3591  -36.8987   22.2062 H   0  0  0  0  0  0
  -23.7230  -37.6508   23.6672 H   0  0  0  0  0  0
  -26.0350  -31.6048   20.5840 H   0  0  0  0  0  0
  -26.8223  -30.8965   21.9662 H   0  0  0  0  0  0
  -28.1195  -29.1367   21.0939 H   0  0  0  0  0  0
  -26.0334  -25.9597   19.0383 H   0  0  0  0  0  0
  -23.9726  -27.2770   19.0631 H   0  0  0  0  0  0
  -23.7128  -30.5904   19.4024 H   0  0  0  0  0  0
  -22.7341  -29.2324   19.8740 H   0  0  0  0  0  0
  -25.1279  -36.1965   25.0822 H   0  0  0  0  0  0
  -20.9944  -28.3219   24.1444 H   0  0  0  0  0  0
  -20.5631  -26.2272   23.3606 H   0  0  0  0  0  0
  -21.6623  -26.7413   22.1237 H   0  0  0  0  0  0
  -19.6892  -25.6295   21.1234 H   0  0  0  0  0  0
  -19.6681  -27.3198   20.6742 H   0  0  0  0  0  0
  -17.4183  -26.6671   21.4012 H   0  0  0  0  0  0
  -18.0306  -26.0057   22.8997 H   0  0  0  0  0  0
  -19.7923  -30.7236   24.2314 H   0  0  0  0  0  0
  -17.5003  -31.6257   24.5163 H   0  0  0  0  0  0
  -15.5339  -30.2998   23.7617 H   0  0  0  0  0  0
  -15.8656  -28.0825   22.7045 H   0  0  0  0  0  0
  -24.5927  -30.7015   25.7812 H   0  0  0  0  0  0
  -24.8935  -32.2849   26.4911 H   0  0  0  0  0  0
  -25.8135  -30.8872   27.0217 H   0  0  0  0  0  0
  -26.2784  -29.6812   24.1117 H   0  0  0  0  0  0
  -27.4073  -29.7240   25.4472 H   0  0  0  0  0  0
  -27.8614  -30.4350   23.9144 H   0  0  0  0  0  0
  -27.2646  -33.3576   26.2099 H   0  0  0  0  0  0
  -28.3828  -32.6916   25.0284 H   0  0  0  0  0  0
  -28.0740  -31.8398   26.5344 H   0  0  0  0  0  0
  -28.2566  -38.0140   24.7568 H   0  0  0  0  0  0
  -28.1139  -36.2674   24.6176 H   0  0  0  0  0  0
  -27.2327  -37.1329   25.8854 H   0  0  0  0  0  0
  -20.9281  -29.8782   21.6985 H   0  0  0  0  0  0
  -26.0174  -38.2871   24.1458 H   0  0  0  0  0  0
  -31.4217  -18.1796   19.7645 H   0  0  0  0  0  0
  -30.0176  -19.9197   14.5028 H   0  0  0  0  0  0
  -29.0443  -18.6458   15.2293 H   0  0  0  0  0  0
  -28.6986  -23.0604   21.9174 H   0  0  0  0  0  0
  -30.4454  -23.0975   21.9511 H   0  0  0  0  0  0
  -28.5755  -22.5257   18.1071 H   0  0  0  0  0  0
  -27.5279  -22.7065   19.4915 H   0  0  0  0  0  0
  -30.4821  -25.2093   20.6928 H   0  0  0  0  0  0
  -29.4484  -25.3841   22.0930 H   0  0  0  0  0  0
  -27.6922  -24.8364   18.1815 H   0  0  0  0  0  0
  -29.4212  -24.8394   18.3703 H   0  0  0  0  0  0
  -29.4372  -19.4773   17.4275 H   0  0  0  0  0  0
  -29.3338  -20.9923   16.5431 H   0  0  0  0  0  0
  -31.7624  -18.3782   14.5472 H   0  0  0  0  0  0
  -30.9883  -17.3784   15.7712 H   0  0  0  0  0  0
  -30.5510  -22.9715   19.5310 H   0  0  0  0  0  0
  -27.4449  -25.0123   20.7088 H   0  0  0  0  0  0
  -31.7821  -21.0442   16.2136 H   0  0  0  0  0  0
  -27.3961  -21.2901   21.5175 H   0  0  0  0  0  0
  -28.3012  -20.6767   22.8911 H   0  0  0  0  0  0
  -27.3152  -19.5929   21.8997 H   0  0  0  0  0  0
  -32.7947  -20.4488   18.6095 H   0  0  0  0  0  0
  -31.8459  -21.8536   18.3532 H   0  0  0  0  0  0
  -30.3895  -17.6773   22.4218 H   0  0  0  0  0  0
  -28.6839  -17.9386   22.3801 H   0  0  0  0  0  0
  -29.4948  -16.5815   19.8878 H   0  0  0  0  0  0
  -28.2886  -16.1388   21.0593 H   0  0  0  0  0  0
  -30.8787  -15.7234   22.0873 H   0  0  0  0  0  0
  -32.9912  -19.1730   16.2461 H   0  0  0  0  0  0
  -32.0560  -18.4128   17.3485 H   0  0  0  0  0  0
  1 25  1  0  0  0
  1 30  2  0  0  0
  1 90  1  0  0  0
  2  3  1  0  0  0
  2 25  1  0  0  0
  2 92  1  0  0  0
  2 93  1  0  0  0
  3  4  1  0  0  0
  3 94  1  0  0  0
  3 95  1  0  0  0
  4  5  1  0  0  0
  4 96  1  0  0  0
  4 97  1  0  0  0
  5  6  1  0  0  0
  5 26  1  0  0  0
  5 98  1  0  0  0
  6 25  1  0  0  0
  6 99  1  0  0  0
  6100  1  0  0  0
  7  8  2  0  0  0
  7 26  1  0  0  0
  7 29  1  0  0  0
  8  9  1  0  0  0
  8 22  1  0  0  0
  9 10  1  0  0  0
  9 27  2  0  0  0
 10 11  2  0  0  0
 10 15  1  0  0  0
 11 12  1  0  0  0
 11101  1  0  0  0
 12 13  2  0  0  0
 12102  1  0  0  0
 13 14  1  0  0  0
 13 31  1  0  0  0
 14 15  2  0  0  0
 14103  1  0  0  0
 15104  1  0  0  0
 16 17  2  0  0  0
 16 21  1  0  0  0
 16 31  1  0  0  0
 17 18  1  0  0  0
 17105  1  0  0  0
 18 19  2  0  0  0
 18106  1  0  0  0
 19 20  1  0  0  0
 19 24  1  0  0  0
 20 21  2  0  0  0
 20107  1  0  0  0
 21 23  1  0  0  0
 22 28  1  0  0  0
 22 32  2  0  0  0
 26 27  1  0  0  0
 28108  1  0  0  0
 28109  1  0  0  0
 29110  1  0  0  0
 29111  1  0  0  0
 33 34  1  0  0  0
 33 66  1  0  0  0
 33 70  2  0  0  0
 34 36  1  0  0  0
 34 59  1  0  0  0
 34112  1  0  0  0
 35 44  2  0  0  0
 35 45  1  0  0  0
 35 68  1  0  0  0
 36 56  1  0  0  0
 36113  1  0  0  0
 37 39  1  0  0  0
 37 47  1  0  0  0
 37 66  1  0  0  0
 37114  1  0  0  0
 38 43  2  0  0  0
 38 46  1  0  0  0
 38 47  1  0  0  0
 39 64  1  0  0  0
 39 67  2  0  0  0
 40 52  1  0  0  0
 40 53  2  0  0  0
 40 58  1  0  0  0
 41115  1  0  0  0
 41116  1  0  0  0
 41117  1  0  0  0
 41 48  1  0  0  0
 42 43  1  0  0  0
 42 66  1  0  0  0
 42118  1  0  0  0
 42119  1  0  0  0
 43 44  1  0  0  0
 44120  1  0  0  0
 45 46  2  0  0  0
 45121  1  0  0  0
 46122  1  0  0  0
 47123  1  0  0  0
 47124  1  0  0  0
 48 56  1  0  0  0
 48 65  1  0  0  0
 48125  1  0  0  0
 49 50  1  0  0  0
 49 53  1  0  0  0
 49 64  1  0  0  0
 49126  1  0  0  0
 50 51  1  0  0  0
 50127  1  0  0  0
 50128  1  0  0  0
 51 52  1  0  0  0
 51129  1  0  0  0
 51130  1  0  0  0
 52131  1  0  0  0
 52132  1  0  0  0
 53 54  1  0  0  0
 54 55  2  0  0  0
 54133  1  0  0  0
 55 57  1  0  0  0
 55134  1  0  0  0
 56 69  2  0  0  0
 57 58  2  0  0  0
 57135  1  0  0  0
 58136  1  0  0  0
 59 60  1  0  0  0
 59 61  1  0  0  0
 59 62  1  0  0  0
 60137  1  0  0  0
 60138  1  0  0  0
 60139  1  0  0  0
 61140  1  0  0  0
 61141  1  0  0  0
 61142  1  0  0  0
 62143  1  0  0  0
 62144  1  0  0  0
 62145  1  0  0  0
 63 65  1  0  0  0
 63146  1  0  0  0
 63147  1  0  0  0
 63148  1  0  0  0
 64149  1  0  0  0
 65150  1  0  0  0
 68 83  1  0  0  0
 71 73  2  0  0  0
 71 89  1  0  0  0
 71151  1  0  0  0
 72 73  1  0  0  0
 72 74  2  0  0  0
 72 82  1  0  0  0
 73 86  1  0  0  0
 74 85  1  0  0  0
 74 89  1  0  0  0
 75 80  1  0  0  0
 75 81  1  0  0  0
 75152  1  0  0  0
 75153  1  0  0  0
 76 78  1  0  0  0
 76 82  1  0  0  0
 76154  1  0  0  0
 76155  1  0  0  0
 77 79  1  0  0  0
 77 82  1  0  0  0
 77156  1  0  0  0
 77157  1  0  0  0
 78 83  1  0  0  0
 78158  1  0  0  0
 78159  1  0  0  0
 79 83  1  0  0  0
 79160  1  0  0  0
 79161  1  0  0  0
 80 84  1  0  0  0
 80162  1  0  0  0
 80163  1  0  0  0
 81 91  1  0  0  0
 81164  1  0  0  0
 81165  1  0  0  0
 82166  1  0  0  0
 83167  1  0  0  0
 84 86  1  0  0  0
 84 91  1  0  0  0
 84168  1  0  0  0
 85169  1  0  0  0
 85170  1  0  0  0
 85171  1  0  0  0
 86172  1  0  0  0
 86173  1  0  0  0
 87 88  1  0  0  0
 87 89  1  0  0  0
 87174  1  0  0  0
 87175  1  0  0  0
 88 90  1  0  0  0
 88176  1  0  0  0
 88177  1  0  0  0
 90178  1  0  0  0
 91179  1  0  0  0
 91180  1  0  0  0
M  CHG  1  91   1
M  ISO  4   1 100  68 101  83 101  90 100
M  END
> <chiral flag>
0

> <version>
0

> <s_m_source_file>
/data/baiqing/PycharmProjects/Reinvent-master-3.2/result/LINK_invent/BTK/process_docking_weight1_custom_sum_contain_oxygen_bond_distance_aromatic_linkinvent_7_9_3/rearranged_h_0130.sdf

> <i_m_source_file_index>
51

> <r_mmod_Potential_Energy-OPLS-2005>
-97.6408920288086

> <r_mmod_Stretch_Energy-OPLS-2005>
39.5196990966797

> <r_mmod_Bend_Energy-OPLS-2005>
141.711624145508

> <r_mmod_Torsional_Energy-OPLS-2005>
387.606506347656

> <r_mmod_Improper_Torsional_Energy-OPLS-2005>
7.67597103118896

> <r_mmod_Van_der_Waal_Energy-OPLS-2005>
123.400894165039

> <r_mmod_Electrostatic_Energy-OPLS-2005>
-366.860595703125

> <r_mmod_Solvation_Energy-OPLS-2005>
-441.048553466797

> <b_mmod_Minimization_Converged-OPLS-2005>
0

> <r_mmod_RMS_Derivative-OPLS-2005>
4.8275465965271

$$$$
51
                    3D
 Structure written by MMmdl.
167175  0  0  1  0            999 V2000
  -30.6028  -14.7233   20.4824 C   0  0  0  0  0  0
  -30.4624  -12.4444   19.4715 C   0  0  0  0  0  0
  -29.5406  -12.5135   18.2352 C   0  0  0  0  0  0
  -28.0642  -12.3226   18.6409 C   0  0  0  0  0  0
  -27.6560  -13.2156   19.8466 C   0  0  2  0  0  0
  -28.6967  -13.1395   20.9849 C   0  0  0  0  0  0
  -25.2615  -13.8146   20.5610 C   0  0  0  0  0  0
  -24.1848  -13.0443   20.9190 C   0  0  0  0  0  0
  -24.6389  -11.6907   20.8738 C   0  0  0  0  0  0
  -23.9026  -10.4302   21.0393 C   0  0  0  0  0  0
  -24.3580   -9.4238   21.9188 C   0  0  0  0  0  0
  -23.6258   -8.2260   22.0761 C   0  0  0  0  0  0
  -22.4253   -8.0289   21.3550 C   0  0  0  0  0  0
  -21.9880   -9.0256   20.4658 C   0  0  0  0  0  0
  -22.7190  -10.2134   20.3057 C   0  0  0  0  0  0
  -21.6855   -6.0716   22.5269 C   0  0  0  0  0  0
  -21.4028   -6.5614   23.8206 C   0  0  0  0  0  0
  -21.3659   -5.6767   24.9165 C   0  0  0  0  0  0
  -21.6030   -4.3031   24.7222 C   0  0  0  0  0  0
  -21.8815   -3.8121   23.4344 C   0  0  0  0  0  0
  -21.9203   -4.6942   22.3401 C   0  0  0  0  0  0
  -22.7866  -13.5285   21.1812 C   0  0  0  0  0  0
  -22.1663   -4.2131   21.0979 F   0  0  0  0  0  0
  -21.5641   -3.4511   25.7726 F   0  0  0  0  0  0
  -29.9993  -13.4914   20.4064 N   0  0  0  0  0  0
  -26.3013  -12.9312   20.3184 N   0  0  0  0  0  0
  -25.9322  -11.6487   20.5700 N   0  0  0  0  0  0
  -22.0424  -12.8344   22.0367 N   0  0  0  0  0  0
  -25.4281  -15.1849   20.3975 N   0  0  0  0  0  0
  -31.7983  -14.8484   20.2019 O   0  0  0  0  0  0
  -21.6653   -6.8867   21.4227 O   0  0  0  0  0  0
  -22.3597  -14.5583   20.6628 O   0  0  0  0  0  0
  -24.6293  -31.8547   23.1995 C   0  0  0  0  0  0
  -25.9167  -32.4720   23.8315 C   0  0  1  0  0  0
  -27.2323  -27.2870   20.1053 C   0  0  0  0  0  0
  -25.6011  -33.8516   24.2264 N   0  0  0  0  0  0
  -23.4188  -30.4798   21.5457 C   0  0  2  0  0  0
  -24.8633  -28.9237   20.1190 C   0  0  0  0  0  0
  -22.7500  -29.4624   22.4979 C   0  0  0  0  0  0
  -18.0289  -28.1320   22.8419 C   0  0  0  0  0  0
  -24.1496  -36.7258   23.2631 C   0  0  0  0  0  0
  -25.9652  -30.7693   21.3810 C   0  0  0  0  0  0
  -26.0355  -29.3963   20.7213 C   0  0  0  0  0  0
  -27.2162  -28.5909   20.7046 C   0  0  0  0  0  0
  -26.0255  -26.8681   19.5004 C   0  0  0  0  0  0
  -24.8622  -27.6612   19.5084 C   0  0  0  0  0  0
  -23.6344  -29.8102   20.1638 C   0  0  0  0  0  0
  -25.4118  -36.3027   24.0320 C   0  0  1  0  0  0
  -20.5893  -28.3687   23.1237 C   0  0  2  0  0  0
  -20.6841  -26.9429   22.5357 C   0  0  0  0  0  0
  -19.5823  -26.6343   21.5187 C   0  0  0  0  0  0
  -18.1947  -26.7895   22.1496 C   0  0  0  0  0  0
  -19.1532  -28.8815   23.2810 C   0  0  0  0  0  0
  -18.9425  -30.1409   23.8869 C   0  0  0  0  0  0
  -17.6416  -30.6508   24.0570 C   0  0  0  0  0  0
  -25.9093  -34.9402   23.5088 C   0  0  0  0  0  0
  -16.5316  -29.8999   23.6309 C   0  0  0  0  0  0
  -16.7288  -28.6431   23.0315 C   0  0  0  0  0  0
  -26.4543  -31.6547   25.0711 C   0  0  0  0  0  0
  -25.3793  -31.3733   26.1475 C   0  0  0  0  0  0
  -27.0427  -30.2942   24.6231 C   0  0  0  0  0  0
  -27.6062  -32.4316   25.7501 C   0  0  0  0  0  0
  -27.5565  -37.1780   24.8455 C   0  0  0  0  0  0
  -21.4209  -29.3047   22.3706 N   0  0  0  0  0  0
  -26.4278  -37.3743   23.9415 N   0  0  0  0  0  0
  -24.6895  -31.0553   22.0952 N   0  0  0  0  0  0
  -23.4241  -28.8175   23.3049 O   0  0  0  0  0  0
  -28.3787  -26.4596   20.1428 O   0  0  0  0  0  0
  -26.5632  -34.8869   22.4642 O   0  0  0  0  0  0
  -23.5477  -32.1410   23.7314 O   0  0  0  0  0  0
  -27.6386  -19.5855   19.6294 C   0  0  0  0  0  0
  -28.9269  -19.7676   20.4658 C   0  0  1  0  0  0
  -28.3554  -22.2806   20.5451 C   0  0  2  0  0  0
  -27.0029  -22.0012   19.8072 C   0  0  2  0  0  0
  -24.6434  -22.9175   19.2799 C   0  0  0  0  0  0
  -25.3160  -22.5635   21.7014 C   0  0  0  0  0  0
  -29.9332  -18.5304   20.1319 C   0  0  0  0  0  0
  -28.8156  -23.8481   20.6456 C   0  0  0  0  0  0
  -30.1251  -17.2540   21.1170 C   0  0  0  0  0  0
  -28.4244  -25.0467   19.6377 C   0  0  0  0  0  0
  -25.8148  -22.8972   20.2817 C   0  0  0  0  0  0
  -29.3746  -21.2005   20.2120 N   0  0  0  0  0  0
  -29.7954  -15.8233   20.7043 N   0  0  0  0  0  0
  -26.6089  -20.5804   19.9959 N   0  3  0  0  0  0
  -31.5046  -12.5883   19.1768 H   0  0  0  0  0  0
  -30.4261  -11.4597   19.9452 H   0  0  0  0  0  0
  -29.8380  -11.7670   17.4960 H   0  0  0  0  0  0
  -29.6661  -13.4855   17.7558 H   0  0  0  0  0  0
  -27.9267  -11.2717   18.8963 H   0  0  0  0  0  0
  -27.4187  -12.5172   17.7836 H   0  0  0  0  0  0
  -27.6598  -14.2371   19.4640 H   0  0  0  0  0  0
  -28.7364  -12.1451   21.4277 H   0  0  0  0  0  0
  -28.4319  -13.8159   21.7973 H   0  0  0  0  0  0
  -25.2720   -9.5713   22.4773 H   0  0  0  0  0  0
  -23.9946   -7.4676   22.7521 H   0  0  0  0  0  0
  -21.0782   -8.8781   19.8995 H   0  0  0  0  0  0
  -22.3640  -10.9672   19.6180 H   0  0  0  0  0  0
  -21.2012   -7.6125   23.9699 H   0  0  0  0  0  0
  -21.1494   -6.0505   25.9071 H   0  0  0  0  0  0
  -22.0597   -2.7581   23.2858 H   0  0  0  0  0  0
  -22.3934  -12.0007   22.4816 H   0  0  0  0  0  0
  -21.1059  -13.1516   22.2490 H   0  0  0  0  0  0
  -24.6370  -15.8170   20.4582 H   0  0  0  0  0  0
  -26.2496  -15.6174   19.9962 H   0  0  0  0  0  0
  -26.7210  -32.5349   23.1033 H   0  0  0  0  0  0
  -25.0247  -33.9660   25.0461 H   0  0  0  0  0  0
  -22.7135  -31.3006   21.4023 H   0  0  0  0  0  0
  -23.3751  -35.9609   23.3290 H   0  0  0  0  0  0
  -24.3595  -36.8888   22.2053 H   0  0  0  0  0  0
  -23.7266  -37.6455   23.6670 H   0  0  0  0  0  0
  -26.1232  -31.5365   20.6214 H   0  0  0  0  0  0
  -26.8362  -30.8025   22.0249 H   0  0  0  0  0  0
  -28.1123  -28.9640   21.1811 H   0  0  0  0  0  0
  -25.9301  -25.9158   19.0106 H   0  0  0  0  0  0
  -23.9643  -27.2840   19.0396 H   0  0  0  0  0  0
  -23.7563  -30.5881   19.4091 H   0  0  0  0  0  0
  -22.7520  -29.2427   19.8571 H   0  0  0  0  0  0
  -25.1285  -36.1881   25.0814 H   0  0  0  0  0  0
  -20.9920  -28.3265   24.1371 H   0  0  0  0  0  0
  -20.5888  -26.2296   23.3532 H   0  0  0  0  0  0
  -21.6695  -26.7574   22.1072 H   0  0  0  0  0  0
  -19.7071  -25.6260   21.1217 H   0  0  0  0  0  0
  -19.6794  -27.3145   20.6706 H   0  0  0  0  0  0
  -17.4324  -26.6769   21.3766 H   0  0  0  0  0  0
  -18.0193  -25.9925   22.8737 H   0  0  0  0  0  0
  -19.7914  -30.7212   24.2257 H   0  0  0  0  0  0
  -17.4978  -31.6216   24.5136 H   0  0  0  0  0  0
  -15.5306  -30.2895   23.7559 H   0  0  0  0  0  0
  -15.8733  -28.0718   22.6999 H   0  0  0  0  0  0
  -24.5938  -30.7077   25.7863 H   0  0  0  0  0  0
  -24.9041  -32.2938   26.4869 H   0  0  0  0  0  0
  -25.8164  -30.8962   27.0265 H   0  0  0  0  0  0
  -26.3050  -29.6639   24.1237 H   0  0  0  0  0  0
  -27.4100  -29.7209   25.4762 H   0  0  0  0  0  0
  -27.8932  -30.4176   23.9510 H   0  0  0  0  0  0
  -27.2604  -33.3599   26.2053 H   0  0  0  0  0  0
  -28.3897  -32.6911   25.0369 H   0  0  0  0  0  0
  -28.0719  -31.8485   26.5454 H   0  0  0  0  0  0
  -28.2563  -38.0080   24.7490 H   0  0  0  0  0  0
  -28.1062  -36.2609   24.6292 H   0  0  0  0  0  0
  -27.2287  -37.1449   25.8851 H   0  0  0  0  0  0
  -20.9397  -29.8818   21.6962 H   0  0  0  0  0  0
  -26.0140  -38.2812   24.1415 H   0  0  0  0  0  0
  -27.2259  -18.5872   19.7908 H   0  0  0  0  0  0
  -27.8620  -19.6641   18.5633 H   0  0  0  0  0  0
  -28.6796  -19.7001   21.5263 H   0  0  0  0  0  0
  -28.1533  -22.0479   21.5892 H   0  0  0  0  0  0
  -27.1679  -22.1763   18.7421 H   0  0  0  0  0  0
  -24.9576  -23.2583   18.2914 H   0  0  0  0  0  0
  -23.8609  -23.5975   19.6179 H   0  0  0  0  0  0
  -24.1818  -21.9369   19.1580 H   0  0  0  0  0  0
  -26.1275  -22.5788   22.4285 H   0  0  0  0  0  0
  -24.8286  -21.5896   21.7537 H   0  0  0  0  0  0
  -24.5833  -23.2981   22.0331 H   0  0  0  0  0  0
  -30.9275  -18.9623   20.0192 H   0  0  0  0  0  0
  -29.7130  -18.1465   19.1345 H   0  0  0  0  0  0
  -29.8953  -23.8827   20.7901 H   0  0  0  0  0  0
  -28.4187  -24.1823   21.6040 H   0  0  0  0  0  0
  -29.5787  -17.4471   22.0414 H   0  0  0  0  0  0
  -31.1701  -17.2369   21.4393 H   0  0  0  0  0  0
  -27.5773  -24.7747   19.0224 H   0  0  0  0  0  0
  -29.2259  -25.0687   18.8984 H   0  0  0  0  0  0
  -26.1469  -23.9275   20.3412 H   0  0  0  0  0  0
  -29.6531  -21.3051   19.2388 H   0  0  0  0  0  0
  -28.8165  -15.5861   20.7986 H   0  0  0  0  0  0
  -26.3768  -20.4474   20.9651 H   0  0  0  0  0  0
  -25.7830  -20.3931   19.4568 H   0  0  0  0  0  0
  1 25  1  0  0  0
  1 30  2  0  0  0
  1 83  1  0  0  0
  2  3  1  0  0  0
  2 25  1  0  0  0
  2 85  1  0  0  0
  2 86  1  0  0  0
  3  4  1  0  0  0
  3 87  1  0  0  0
  3 88  1  0  0  0
  4  5  1  0  0  0
  4 89  1  0  0  0
  4 90  1  0  0  0
  5  6  1  0  0  0
  5 26  1  0  0  0
  5 91  1  0  0  0
  6 25  1  0  0  0
  6 92  1  0  0  0
  6 93  1  0  0  0
  7  8  2  0  0  0
  7 26  1  0  0  0
  7 29  1  0  0  0
  8  9  1  0  0  0
  8 22  1  0  0  0
  9 10  1  0  0  0
  9 27  2  0  0  0
 10 11  2  0  0  0
 10 15  1  0  0  0
 11 12  1  0  0  0
 11 94  1  0  0  0
 12 13  2  0  0  0
 12 95  1  0  0  0
 13 14  1  0  0  0
 13 31  1  0  0  0
 14 15  2  0  0  0
 14 96  1  0  0  0
 15 97  1  0  0  0
 16 17  2  0  0  0
 16 21  1  0  0  0
 16 31  1  0  0  0
 17 18  1  0  0  0
 17 98  1  0  0  0
 18 19  2  0  0  0
 18 99  1  0  0  0
 19 20  1  0  0  0
 19 24  1  0  0  0
 20 21  2  0  0  0
 20100  1  0  0  0
 21 23  1  0  0  0
 22 28  1  0  0  0
 22 32  2  0  0  0
 26 27  1  0  0  0
 28101  1  0  0  0
 28102  1  0  0  0
 29103  1  0  0  0
 29104  1  0  0  0
 33 34  1  0  0  0
 33 66  1  0  0  0
 33 70  2  0  0  0
 34 36  1  0  0  0
 34 59  1  0  0  0
 34105  1  0  0  0
 35 44  2  0  0  0
 35 45  1  0  0  0
 35 68  1  0  0  0
 36 56  1  0  0  0
 36106  1  0  0  0
 37 39  1  0  0  0
 37 47  1  0  0  0
 37 66  1  0  0  0
 37107  1  0  0  0
 38 43  2  0  0  0
 38 46  1  0  0  0
 38 47  1  0  0  0
 39 64  1  0  0  0
 39 67  2  0  0  0
 40 52  1  0  0  0
 40 53  2  0  0  0
 40 58  1  0  0  0
 41108  1  0  0  0
 41109  1  0  0  0
 41110  1  0  0  0
 41 48  1  0  0  0
 42 43  1  0  0  0
 42 66  1  0  0  0
 42111  1  0  0  0
 42112  1  0  0  0
 43 44  1  0  0  0
 44113  1  0  0  0
 45 46  2  0  0  0
 45114  1  0  0  0
 46115  1  0  0  0
 47116  1  0  0  0
 47117  1  0  0  0
 48 56  1  0  0  0
 48 65  1  0  0  0
 48118  1  0  0  0
 49 50  1  0  0  0
 49 53  1  0  0  0
 49 64  1  0  0  0
 49119  1  0  0  0
 50 51  1  0  0  0
 50120  1  0  0  0
 50121  1  0  0  0
 51 52  1  0  0  0
 51122  1  0  0  0
 51123  1  0  0  0
 52124  1  0  0  0
 52125  1  0  0  0
 53 54  1  0  0  0
 54 55  2  0  0  0
 54126  1  0  0  0
 55 57  1  0  0  0
 55127  1  0  0  0
 56 69  2  0  0  0
 57 58  2  0  0  0
 57128  1  0  0  0
 58129  1  0  0  0
 59 60  1  0  0  0
 59 61  1  0  0  0
 59 62  1  0  0  0
 60130  1  0  0  0
 60131  1  0  0  0
 60132  1  0  0  0
 61133  1  0  0  0
 61134  1  0  0  0
 61135  1  0  0  0
 62136  1  0  0  0
 62137  1  0  0  0
 62138  1  0  0  0
 63 65  1  0  0  0
 63139  1  0  0  0
 63140  1  0  0  0
 63141  1  0  0  0
 64142  1  0  0  0
 65143  1  0  0  0
 68 80  1  0  0  0
 71 72  1  0  0  0
 71 84  1  0  0  0
 71144  1  0  0  0
 71145  1  0  0  0
 72 77  1  0  0  0
 72 82  1  0  0  0
 72146  1  0  0  0
 73 74  1  0  0  0
 73 78  1  0  0  0
 73 82  1  0  0  0
 73147  1  0  0  0
 74 81  1  0  0  0
 74 84  1  0  0  0
 74148  1  0  0  0
 75149  1  0  0  0
 75150  1  0  0  0
 75151  1  0  0  0
 75 81  1  0  0  0
 76 81  1  0  0  0
 76152  1  0  0  0
 76153  1  0  0  0
 76154  1  0  0  0
 77 79  1  0  0  0
 77155  1  0  0  0
 77156  1  0  0  0
 78 80  1  0  0  0
 78157  1  0  0  0
 78158  1  0  0  0
 79 83  1  0  0  0
 79159  1  0  0  0
 79160  1  0  0  0
 80161  1  0  0  0
 80162  1  0  0  0
 81163  1  0  0  0
 82164  1  0  0  0
 83165  1  0  0  0
 84166  1  0  0  0
 84167  1  0  0  0
M  CHG  1  84   1
M  ISO  4   1 100  68 101  80 101  83 100
M  END
> <chiral flag>
0

> <version>
0

> <s_m_source_file>
/data/baiqing/PycharmProjects/Reinvent-master-3.2/result/LINK_invent/BTK/process_docking_weight1_custom_sum_contain_oxygen_bond_distance_aromatic_linkinvent_7_9_3/rearranged_h_0130.sdf

> <i_m_source_file_index>
52

> <r_mmod_Potential_Energy-OPLS-2005>
126.583763122559

> <r_mmod_Stretch_Energy-OPLS-2005>
129.361206054688

> <r_mmod_Bend_Energy-OPLS-2005>
216.126525878906

> <r_mmod_Torsional_Energy-OPLS-2005>
276.386657714844

> <r_mmod_Improper_Torsional_Energy-OPLS-2005>
4.74919557571411

> <r_mmod_Van_der_Waal_Energy-OPLS-2005>
126.721702575684

> <r_mmod_Electrostatic_Energy-OPLS-2005>
-216.247207641602

> <r_mmod_Solvation_Energy-OPLS-2005>
-482.355987548828

> <b_mmod_Minimization_Converged-OPLS-2005>
0

> <r_mmod_RMS_Derivative-OPLS-2005>
5.8457179069519

$$$$
52
                    3D
 Structure written by MMmdl.
163172  0  0  1  0            999 V2000
  -30.5501  -14.7885   20.4583 C   0  0  0  0  0  0
  -30.4347  -12.4824   19.4898 C   0  0  0  0  0  0
  -29.5174  -12.5372   18.2459 C   0  0  0  0  0  0
  -28.0441  -12.3414   18.6501 C   0  0  0  0  0  0
  -27.6403  -13.2286   19.8574 C   0  0  2  0  0  0
  -28.6758  -13.1571   21.0010 C   0  0  0  0  0  0
  -25.2517  -13.8194   20.5677 C   0  0  0  0  0  0
  -24.1801  -13.0432   20.9177 C   0  0  0  0  0  0
  -24.6395  -11.6912   20.8739 C   0  0  0  0  0  0
  -23.9064  -10.4287   21.0405 C   0  0  0  0  0  0
  -24.3615   -9.4216   21.9193 C   0  0  0  0  0  0
  -23.6282   -8.2250   22.0751 C   0  0  0  0  0  0
  -22.4261   -8.0276   21.3553 C   0  0  0  0  0  0
  -21.9913   -9.0237   20.4636 C   0  0  0  0  0  0
  -22.7235  -10.2127   20.3053 C   0  0  0  0  0  0
  -21.6858   -6.0718   22.5279 C   0  0  0  0  0  0
  -21.4006   -6.5626   23.8214 C   0  0  0  0  0  0
  -21.3663   -5.6794   24.9178 C   0  0  0  0  0  0
  -21.6046   -4.3047   24.7239 C   0  0  0  0  0  0
  -21.8825   -3.8134   23.4366 C   0  0  0  0  0  0
  -21.9199   -4.6944   22.3416 C   0  0  0  0  0  0
  -22.7837  -13.5218   21.1888 C   0  0  0  0  0  0
  -22.1682   -4.2126   21.0988 F   0  0  0  0  0  0
  -21.5628   -3.4546   25.7758 F   0  0  0  0  0  0
  -29.9791  -13.5315   20.4369 N   0  0  0  0  0  0
  -26.2908  -12.9378   20.3257 N   0  0  0  0  0  0
  -25.9317  -11.6525   20.5731 N   0  0  0  0  0  0
  -22.0537  -12.8144   22.0429 N   0  0  0  0  0  0
  -25.4267  -15.1913   20.4110 N   0  0  0  0  0  0
  -31.7147  -14.9275   20.0706 O   0  0  0  0  0  0
  -21.6634   -6.8862   21.4245 O   0  0  0  0  0  0
  -22.3524  -14.5548   20.6792 O   0  0  0  0  0  0
  -24.6340  -31.8506   23.1938 C   0  0  0  0  0  0
  -25.9147  -32.4729   23.8293 C   0  0  1  0  0  0
  -27.2219  -27.2273   20.1414 C   0  0  0  0  0  0
  -25.5927  -33.8528   24.2225 N   0  0  0  0  0  0
  -23.4325  -30.4712   21.5377 C   0  0  2  0  0  0
  -24.8814  -28.9080   20.1105 C   0  0  0  0  0  0
  -22.7507  -29.4587   22.4899 C   0  0  0  0  0  0
  -18.0288  -28.1395   22.8496 C   0  0  0  0  0  0
  -24.1493  -36.7265   23.2644 C   0  0  0  0  0  0
  -25.9800  -30.7542   21.3763 C   0  0  0  0  0  0
  -26.0531  -29.3728   20.7199 C   0  0  0  0  0  0
  -27.2262  -28.5467   20.7185 C   0  0  0  0  0  0
  -26.0282  -26.8375   19.4965 C   0  0  0  0  0  0
  -24.8753  -27.6502   19.4857 C   0  0  0  0  0  0
  -23.6520  -29.7974   20.1563 C   0  0  0  0  0  0
  -25.4124  -36.3051   24.0325 C   0  0  1  0  0  0
  -20.5890  -28.3705   23.1266 C   0  0  2  0  0  0
  -20.6770  -26.9419   22.5411 C   0  0  0  0  0  0
  -19.5745  -26.6390   21.5215 C   0  0  0  0  0  0
  -18.1925  -26.7935   22.1625 C   0  0  0  0  0  0
  -19.1545  -28.8872   23.2870 C   0  0  0  0  0  0
  -18.9467  -30.1467   23.8890 C   0  0  0  0  0  0
  -17.6462  -30.6593   24.0564 C   0  0  0  0  0  0
  -25.9071  -34.9423   23.5088 C   0  0  0  0  0  0
  -16.5356  -29.9094   23.6338 C   0  0  0  0  0  0
  -16.7274  -28.6506   23.0370 C   0  0  0  0  0  0
  -26.4499  -31.6565   25.0695 C   0  0  0  0  0  0
  -25.3716  -31.3708   26.1407 C   0  0  0  0  0  0
  -27.0366  -30.2981   24.6213 C   0  0  0  0  0  0
  -27.6056  -32.4300   25.7477 C   0  0  0  0  0  0
  -27.5582  -37.1787   24.8469 C   0  0  0  0  0  0
  -21.4212  -29.3048   22.3650 N   0  0  0  0  0  0
  -26.4293  -37.3758   23.9413 N   0  0  0  0  0  0
  -24.7015  -31.0443   22.0925 N   0  0  0  0  0  0
  -23.4190  -28.8139   23.3019 O   0  0  0  0  0  0
  -28.3188  -26.3257   20.2032 O   0  0  0  0  0  0
  -26.5664  -34.8909   22.4667 O   0  0  0  0  0  0
  -23.5479  -32.1338   23.7212 O   0  0  0  0  0  0
  -28.3611  -22.4402   19.0147 C   0  0  0  0  0  0
  -28.7556  -22.4518   21.4265 C   0  0  0  0  0  0
  -28.5174  -24.0245   18.9570 C   0  0  0  0  0  0
  -28.9404  -24.0413   21.3564 C   0  0  0  0  0  0
  -30.3596  -17.4181   18.7369 C   0  0  0  0  0  0
  -31.5349  -18.3059   19.1789 C   0  0  0  0  0  0
  -29.1239  -21.6290   20.1372 C   0  0  1  0  0  0
  -29.5027  -17.2598   19.9951 C   0  0  2  0  0  0
  -28.1276  -24.8153   20.2507 C   0  0  1  0  0  0
  -29.7002  -18.7383   20.6707 C   0  0  2  0  0  0
  -28.8216  -20.0001   20.0669 C   0  0  0  0  0  0
  -29.7209  -15.8883   20.7018 N   0  0  0  0  0  0
  -31.1301  -18.9843   20.4291 N   0  3  0  0  0  0
  -31.4756  -12.6197   19.1907 H   0  0  0  0  0  0
  -30.3862  -11.4986   19.9573 H   0  0  0  0  0  0
  -29.8085  -11.7767   17.5205 H   0  0  0  0  0  0
  -29.6331  -13.4986   17.7449 H   0  0  0  0  0  0
  -27.9111  -11.2887   18.9019 H   0  0  0  0  0  0
  -27.3862  -12.5356   17.8029 H   0  0  0  0  0  0
  -27.6353  -14.2506   19.4810 H   0  0  0  0  0  0
  -28.7151  -12.1544   21.4315 H   0  0  0  0  0  0
  -28.3897  -13.8209   21.8176 H   0  0  0  0  0  0
  -25.2784   -9.5670   22.4731 H   0  0  0  0  0  0
  -24.0005   -7.4633   22.7453 H   0  0  0  0  0  0
  -21.0865   -8.8723   19.8913 H   0  0  0  0  0  0
  -22.3708  -10.9633   19.6121 H   0  0  0  0  0  0
  -21.1980   -7.6140   23.9697 H   0  0  0  0  0  0
  -21.1490   -6.0533   25.9077 H   0  0  0  0  0  0
  -22.0602   -2.7596   23.2875 H   0  0  0  0  0  0
  -22.4230  -11.9769   22.4676 H   0  0  0  0  0  0
  -21.1163  -13.1095   22.2733 H   0  0  0  0  0  0
  -24.6564  -15.8470   20.4920 H   0  0  0  0  0  0
  -26.2756  -15.6203   20.0681 H   0  0  0  0  0  0
  -26.7218  -32.5368   23.1031 H   0  0  0  0  0  0
  -25.0009  -33.9653   25.0327 H   0  0  0  0  0  0
  -22.7303  -31.2931   21.3863 H   0  0  0  0  0  0
  -23.3769  -35.9584   23.3292 H   0  0  0  0  0  0
  -24.3574  -36.8907   22.2061 H   0  0  0  0  0  0
  -23.7230  -37.6452   23.6683 H   0  0  0  0  0  0
  -26.1198  -31.5114   20.6049 H   0  0  0  0  0  0
  -26.8573  -30.8064   22.0101 H   0  0  0  0  0  0
  -28.1231  -28.8975   21.2090 H   0  0  0  0  0  0
  -25.9667  -25.8747   19.0088 H   0  0  0  0  0  0
  -23.9781  -27.2892   19.0008 H   0  0  0  0  0  0
  -23.7738  -30.5690   19.3956 H   0  0  0  0  0  0
  -22.7704  -29.2269   19.8563 H   0  0  0  0  0  0
  -25.1305  -36.1894   25.0818 H   0  0  0  0  0  0
  -20.9978  -28.3291   24.1386 H   0  0  0  0  0  0
  -20.5659  -26.2320   23.3620 H   0  0  0  0  0  0
  -21.6640  -26.7422   22.1217 H   0  0  0  0  0  0
  -19.6905  -25.6299   21.1248 H   0  0  0  0  0  0
  -19.6678  -27.3197   20.6743 H   0  0  0  0  0  0
  -17.4187  -26.6681   21.4036 H   0  0  0  0  0  0
  -18.0327  -26.0078   22.9027 H   0  0  0  0  0  0
  -19.7940  -30.7292   24.2251 H   0  0  0  0  0  0
  -17.5017  -31.6277   24.5166 H   0  0  0  0  0  0
  -15.5356  -30.2996   23.7661 H   0  0  0  0  0  0
  -15.8672  -28.0817   22.7099 H   0  0  0  0  0  0
  -24.5905  -30.7049   25.7709 H   0  0  0  0  0  0
  -24.8890  -32.2871   26.4812 H   0  0  0  0  0  0
  -25.8020  -30.8881   27.0189 H   0  0  0  0  0  0
  -26.2963  -29.6707   24.1234 H   0  0  0  0  0  0
  -27.4035  -29.7259   25.4746 H   0  0  0  0  0  0
  -27.8837  -30.4244   23.9469 H   0  0  0  0  0  0
  -27.2673  -33.3603   26.2046 H   0  0  0  0  0  0
  -28.3876  -32.6845   25.0312 H   0  0  0  0  0  0
  -28.0720  -31.8422   26.5401 H   0  0  0  0  0  0
  -28.2593  -38.0093   24.7536 H   0  0  0  0  0  0
  -28.1088  -36.2624   24.6280 H   0  0  0  0  0  0
  -27.2295  -37.1411   25.8870 H   0  0  0  0  0  0
  -20.9407  -29.8755   21.6831 H   0  0  0  0  0  0
  -26.0170  -38.2827   24.1428 H   0  0  0  0  0  0
  -28.6589  -22.0424   18.0437 H   0  0  0  0  0  0
  -27.2975  -22.2181   19.0983 H   0  0  0  0  0  0
  -27.7176  -22.2431   21.6895 H   0  0  0  0  0  0
  -29.3466  -22.0721   22.2599 H   0  0  0  0  0  0
  -27.9199  -24.4027   18.1266 H   0  0  0  0  0  0
  -29.5501  -24.2611   18.7021 H   0  0  0  0  0  0
  -29.9994  -24.2583   21.2227 H   0  0  0  0  0  0
  -28.6804  -24.4626   22.3278 H   0  0  0  0  0  0
  -30.6726  -16.4866   18.2675 H   0  0  0  0  0  0
  -29.7756  -17.9513   17.9873 H   0  0  0  0  0  0
  -31.7927  -19.0248   18.3998 H   0  0  0  0  0  0
  -32.4186  -17.7013   19.3832 H   0  0  0  0  0  0
  -30.1903  -21.7697   19.9546 H   0  0  0  0  0  0
  -28.4569  -17.2024   19.6895 H   0  0  0  0  0  0
  -27.0794  -24.6130   20.4669 H   0  0  0  0  0  0
  -29.5231  -18.6875   21.7458 H   0  0  0  0  0  0
  -28.7585  -19.7932   18.9993 H   0  0  0  0  0  0
  -27.7979  -19.8527   20.4109 H   0  0  0  0  0  0
  -28.8866  -15.5946   21.1907 H   0  0  0  0  0  0
  -31.3517  -19.9656   20.4208 H   0  0  0  0  0  0
  -31.6363  -18.5569   21.1884 H   0  0  0  0  0  0
  1 25  1  0  0  0
  1 30  2  0  0  0
  1 82  1  0  0  0
  2  3  1  0  0  0
  2 25  1  0  0  0
  2 84  1  0  0  0
  2 85  1  0  0  0
  3  4  1  0  0  0
  3 86  1  0  0  0
  3 87  1  0  0  0
  4  5  1  0  0  0
  4 88  1  0  0  0
  4 89  1  0  0  0
  5  6  1  0  0  0
  5 26  1  0  0  0
  5 90  1  0  0  0
  6 25  1  0  0  0
  6 91  1  0  0  0
  6 92  1  0  0  0
  7  8  2  0  0  0
  7 26  1  0  0  0
  7 29  1  0  0  0
  8  9  1  0  0  0
  8 22  1  0  0  0
  9 10  1  0  0  0
  9 27  2  0  0  0
 10 11  2  0  0  0
 10 15  1  0  0  0
 11 12  1  0  0  0
 11 93  1  0  0  0
 12 13  2  0  0  0
 12 94  1  0  0  0
 13 14  1  0  0  0
 13 31  1  0  0  0
 14 15  2  0  0  0
 14 95  1  0  0  0
 15 96  1  0  0  0
 16 17  2  0  0  0
 16 21  1  0  0  0
 16 31  1  0  0  0
 17 18  1  0  0  0
 17 97  1  0  0  0
 18 19  2  0  0  0
 18 98  1  0  0  0
 19 20  1  0  0  0
 19 24  1  0  0  0
 20 21  2  0  0  0
 20 99  1  0  0  0
 21 23  1  0  0  0
 22 28  1  0  0  0
 22 32  2  0  0  0
 26 27  1  0  0  0
 28100  1  0  0  0
 28101  1  0  0  0
 29102  1  0  0  0
 29103  1  0  0  0
 33 34  1  0  0  0
 33 66  1  0  0  0
 33 70  2  0  0  0
 34 36  1  0  0  0
 34 59  1  0  0  0
 34104  1  0  0  0
 35 44  2  0  0  0
 35 45  1  0  0  0
 35 68  1  0  0  0
 36 56  1  0  0  0
 36105  1  0  0  0
 37 39  1  0  0  0
 37 47  1  0  0  0
 37 66  1  0  0  0
 37106  1  0  0  0
 38 43  2  0  0  0
 38 46  1  0  0  0
 38 47  1  0  0  0
 39 64  1  0  0  0
 39 67  2  0  0  0
 40 52  1  0  0  0
 40 53  2  0  0  0
 40 58  1  0  0  0
 41107  1  0  0  0
 41108  1  0  0  0
 41109  1  0  0  0
 41 48  1  0  0  0
 42 43  1  0  0  0
 42 66  1  0  0  0
 42110  1  0  0  0
 42111  1  0  0  0
 43 44  1  0  0  0
 44112  1  0  0  0
 45 46  2  0  0  0
 45113  1  0  0  0
 46114  1  0  0  0
 47115  1  0  0  0
 47116  1  0  0  0
 48 56  1  0  0  0
 48 65  1  0  0  0
 48117  1  0  0  0
 49 50  1  0  0  0
 49 53  1  0  0  0
 49 64  1  0  0  0
 49118  1  0  0  0
 50 51  1  0  0  0
 50119  1  0  0  0
 50120  1  0  0  0
 51 52  1  0  0  0
 51121  1  0  0  0
 51122  1  0  0  0
 52123  1  0  0  0
 52124  1  0  0  0
 53 54  1  0  0  0
 54 55  2  0  0  0
 54125  1  0  0  0
 55 57  1  0  0  0
 55126  1  0  0  0
 56 69  2  0  0  0
 57 58  2  0  0  0
 57127  1  0  0  0
 58128  1  0  0  0
 59 60  1  0  0  0
 59 61  1  0  0  0
 59 62  1  0  0  0
 60129  1  0  0  0
 60130  1  0  0  0
 60131  1  0  0  0
 61132  1  0  0  0
 61133  1  0  0  0
 61134  1  0  0  0
 62135  1  0  0  0
 62136  1  0  0  0
 62137  1  0  0  0
 63 65  1  0  0  0
 63138  1  0  0  0
 63139  1  0  0  0
 63140  1  0  0  0
 64141  1  0  0  0
 65142  1  0  0  0
 68 79  1  0  0  0
 71 73  1  0  0  0
 71 77  1  0  0  0
 71143  1  0  0  0
 71144  1  0  0  0
 72 74  1  0  0  0
 72 77  1  0  0  0
 72145  1  0  0  0
 72146  1  0  0  0
 73 79  1  0  0  0
 73147  1  0  0  0
 73148  1  0  0  0
 74 79  1  0  0  0
 74149  1  0  0  0
 74150  1  0  0  0
 75 76  1  0  0  0
 75 78  1  0  0  0
 75151  1  0  0  0
 75152  1  0  0  0
 76 83  1  0  0  0
 76153  1  0  0  0
 76154  1  0  0  0
 77 81  1  0  0  0
 77155  1  0  0  0
 78 80  1  0  0  0
 78 82  1  0  0  0
 78156  1  0  0  0
 79157  1  0  0  0
 80 81  1  0  0  0
 80 83  1  0  0  0
 80158  1  0  0  0
 81159  1  0  0  0
 81160  1  0  0  0
 82161  1  0  0  0
 83162  1  0  0  0
 83163  1  0  0  0
M  CHG  1  83   1
M  ISO  4   1 100  68 101  79 101  82 100
M  END
> <chiral flag>
0

> <version>
0

> <s_m_source_file>
/data/baiqing/PycharmProjects/Reinvent-master-3.2/result/LINK_invent/BTK/process_docking_weight1_custom_sum_contain_oxygen_bond_distance_aromatic_linkinvent_7_9_3/rearranged_h_0130.sdf

> <i_m_source_file_index>
53

> <r_mmod_Potential_Energy-OPLS-2005>
207.500015258789

> <r_mmod_Stretch_Energy-OPLS-2005>
157.557067871094

> <r_mmod_Bend_Energy-OPLS-2005>
248.580612182617

> <r_mmod_Torsional_Energy-OPLS-2005>
356.513977050781

> <r_mmod_Improper_Torsional_Energy-OPLS-2005>
7.12367105484009

> <r_mmod_Van_der_Waal_Energy-OPLS-2005>
113.358947753906

> <r_mmod_Electrostatic_Energy-OPLS-2005>
-323.272979736328

> <r_mmod_Solvation_Energy-OPLS-2005>
-457.677581787109

> <b_mmod_Minimization_Converged-OPLS-2005>
0

> <r_mmod_RMS_Derivative-OPLS-2005>
3.02027344703674

$$$$
53
                    3D
 Structure written by MMmdl.
157166  0  0  1  0            999 V2000
  -30.5034  -15.0801   20.4012 C   0  0  0  0  0  0
  -30.4397  -12.6755   19.5183 C   0  0  0  0  0  0
  -29.5317  -12.5509   18.2710 C   0  0  0  0  0  0
  -28.0674  -12.3164   18.6855 C   0  0  0  0  0  0
  -27.6228  -13.2620   19.8315 C   0  0  2  0  0  0
  -28.6601  -13.3512   20.9712 C   0  0  0  0  0  0
  -25.2437  -13.8232   20.5713 C   0  0  0  0  0  0
  -24.1770  -13.0442   20.9225 C   0  0  0  0  0  0
  -24.6405  -11.6933   20.8744 C   0  0  0  0  0  0
  -23.9096  -10.4296   21.0402 C   0  0  0  0  0  0
  -24.3644   -9.4210   21.9181 C   0  0  0  0  0  0
  -23.6303   -8.2253   22.0763 C   0  0  0  0  0  0
  -22.4285   -8.0291   21.3550 C   0  0  0  0  0  0
  -21.9924   -9.0271   20.4657 C   0  0  0  0  0  0
  -22.7267  -10.2139   20.3054 C   0  0  0  0  0  0
  -21.6858   -6.0741   22.5278 C   0  0  0  0  0  0
  -21.4024   -6.5644   23.8212 C   0  0  0  0  0  0
  -21.3657   -5.6795   24.9174 C   0  0  0  0  0  0
  -21.6037   -4.3057   24.7222 C   0  0  0  0  0  0
  -21.8819   -3.8151   23.4344 C   0  0  0  0  0  0
  -21.9197   -4.6969   22.3402 C   0  0  0  0  0  0
  -22.7788  -13.5214   21.1875 C   0  0  0  0  0  0
  -22.1661   -4.2158   21.0977 F   0  0  0  0  0  0
  -21.5623   -3.4538   25.7733 F   0  0  0  0  0  0
  -29.9214  -13.7996   20.3651 N   0  0  0  0  0  0
  -26.2861  -12.9484   20.3210 N   0  0  0  0  0  0
  -25.9340  -11.6602   20.5711 N   0  0  0  0  0  0
  -22.0434  -12.8209   22.0428 N   0  0  0  0  0  0
  -25.4076  -15.1968   20.4156 N   0  0  0  0  0  0
  -31.7111  -15.1172   20.1373 O   0  0  0  0  0  0
  -21.6645   -6.8889   21.4241 O   0  0  0  0  0  0
  -22.3474  -14.5512   20.6711 O   0  0  0  0  0  0
  -24.6524  -31.8354   23.1819 C   0  0  0  0  0  0
  -25.9257  -32.4649   23.8240 C   0  0  1  0  0  0
  -27.2118  -27.0296   20.1792 C   0  0  0  0  0  0
  -25.5972  -33.8461   24.2150 N   0  0  0  0  0  0
  -23.4622  -30.4517   21.5284 C   0  0  2  0  0  0
  -24.9158  -28.8619   20.1122 C   0  0  0  0  0  0
  -22.7619  -29.4502   22.4817 C   0  0  0  0  0  0
  -18.0320  -28.1398   22.8467 C   0  0  0  0  0  0
  -24.1494  -36.7232   23.2643 C   0  0  0  0  0  0
  -26.0253  -30.6724   21.4021 C   0  0  0  0  0  0
  -26.0939  -29.2717   20.7507 C   0  0  0  0  0  0
  -27.2395  -28.3720   20.7707 C   0  0  0  0  0  0
  -26.0184  -26.7656   19.4684 C   0  0  0  0  0  0
  -24.8964  -27.6241   19.4539 C   0  0  0  0  0  0
  -23.6975  -29.7764   20.1506 C   0  0  0  0  0  0
  -25.4129  -36.3004   24.0309 C   0  0  1  0  0  0
  -20.5937  -28.3746   23.1201 C   0  0  2  0  0  0
  -20.6803  -26.9433   22.5405 C   0  0  0  0  0  0
  -19.5778  -26.6363   21.5218 C   0  0  0  0  0  0
  -18.1958  -26.7930   22.1623 C   0  0  0  0  0  0
  -19.1576  -28.8887   23.2824 C   0  0  0  0  0  0
  -18.9488  -30.1481   23.8858 C   0  0  0  0  0  0
  -17.6481  -30.6591   24.0550 C   0  0  0  0  0  0
  -25.9087  -34.9383   23.5043 C   0  0  0  0  0  0
  -16.5373  -29.9078   23.6334 C   0  0  0  0  0  0
  -16.7302  -28.6496   23.0358 C   0  0  0  0  0  0
  -26.4544  -31.6551   25.0724 C   0  0  0  0  0  0
  -25.3695  -31.3777   26.1400 C   0  0  0  0  0  0
  -27.0422  -30.2927   24.6390 C   0  0  0  0  0  0
  -27.6061  -32.4339   25.7513 C   0  0  0  0  0  0
  -27.5574  -37.1772   24.8465 C   0  0  0  0  0  0
  -21.4302  -29.3051   22.3561 N   0  0  0  0  0  0
  -26.4285  -37.3724   23.9407 N   0  0  0  0  0  0
  -24.7332  -31.0113   22.0913 N   0  0  0  0  0  0
  -23.4212  -28.8062   23.3014 O   0  0  0  0  0  0
  -28.2275  -25.9632   20.2017 O   0  0  0  0  0  0
  -26.5679  -34.8894   22.4627 O   0  0  0  0  0  0
  -23.5617  -32.1288   23.6968 O   0  0  0  0  0  0
  -26.4534  -23.1707   21.6006 C   0  0  0  0  0  0
  -27.1719  -21.9757   21.3596 C   0  0  0  0  0  0
  -28.3952  -22.0543   20.6400 C   0  0  0  0  0  0
  -27.9386  -24.5578   20.5308 C   0  0  0  0  0  0
  -23.9704  -20.6952   21.8415 C   0  0  0  0  0  0
  -24.3700  -19.5321   22.7124 C   0  0  0  0  0  0
  -25.2645  -20.7476   22.6229 C   0  0  0  0  0  0
  -26.6037  -20.6618   21.9067 C   0  0  0  0  0  0
  -28.9801  -19.2238   20.6217 C   0  0  0  0  0  0
  -30.0430  -17.8852   20.3240 C   0  0  0  0  0  0
  -26.8211  -24.4005   21.2134 N   0  0  0  0  0  0
  -28.7378  -23.4054   20.2512 N   0  0  0  0  0  0
  -29.2108  -20.7969   20.3628 N   0  0  0  0  0  0
  -29.7360  -16.3041   20.5278 N   0  0  0  0  0  0
  -31.4722  -12.8428   19.2076 H   0  0  0  0  0  0
  -30.4512  -11.7412   20.0823 H   0  0  0  0  0  0
  -29.8765  -11.7398   17.6278 H   0  0  0  0  0  0
  -29.6031  -13.4632   17.6768 H   0  0  0  0  0  0
  -27.9787  -11.2784   19.0090 H   0  0  0  0  0  0
  -27.4078  -12.4248   17.8239 H   0  0  0  0  0  0
  -27.5667  -14.2522   19.3789 H   0  0  0  0  0  0
  -28.7769  -12.3925   21.4788 H   0  0  0  0  0  0
  -28.3338  -14.0664   21.7286 H   0  0  0  0  0  0
  -25.2789   -9.5679   22.4761 H   0  0  0  0  0  0
  -24.0005   -7.4645   22.7489 H   0  0  0  0  0  0
  -21.0853   -8.8805   19.8966 H   0  0  0  0  0  0
  -22.3734  -10.9684   19.6168 H   0  0  0  0  0  0
  -21.2024   -7.6154   23.9721 H   0  0  0  0  0  0
  -21.1471   -6.0521   25.9077 H   0  0  0  0  0  0
  -22.0599   -2.7614   23.2841 H   0  0  0  0  0  0
  -22.4060  -11.9890   22.4841 H   0  0  0  0  0  0
  -21.1049  -13.1238   22.2621 H   0  0  0  0  0  0
  -24.6326  -15.8410   20.5262 H   0  0  0  0  0  0
  -26.2429  -15.6412   20.0584 H   0  0  0  0  0  0
  -26.7325  -32.5219   23.0961 H   0  0  0  0  0  0
  -25.0082  -33.9555   25.0275 H   0  0  0  0  0  0
  -22.7692  -31.2798   21.3660 H   0  0  0  0  0  0
  -23.3760  -35.9557   23.3285 H   0  0  0  0  0  0
  -24.3575  -36.8891   22.2061 H   0  0  0  0  0  0
  -23.7246  -37.6419   23.6700 H   0  0  0  0  0  0
  -26.1943  -31.4165   20.6226 H   0  0  0  0  0  0
  -26.8907  -30.7271   22.0507 H   0  0  0  0  0  0
  -28.1331  -28.6806   21.2952 H   0  0  0  0  0  0
  -25.9218  -25.8209   18.9528 H   0  0  0  0  0  0
  -24.0044  -27.3071   18.9315 H   0  0  0  0  0  0
  -23.8444  -30.5486   19.3947 H   0  0  0  0  0  0
  -22.8102  -29.2250   19.8346 H   0  0  0  0  0  0
  -25.1320  -36.1819   25.0799 H   0  0  0  0  0  0
  -21.0023  -28.3352   24.1325 H   0  0  0  0  0  0
  -20.5692  -26.2368   23.3649 H   0  0  0  0  0  0
  -21.6672  -26.7426   22.1209 H   0  0  0  0  0  0
  -19.6942  -25.6255   21.1295 H   0  0  0  0  0  0
  -19.6723  -27.3130   20.6714 H   0  0  0  0  0  0
  -17.4233  -26.6669   21.4024 H   0  0  0  0  0  0
  -18.0354  -26.0086   22.9033 H   0  0  0  0  0  0
  -19.7967  -30.7305   24.2211 H   0  0  0  0  0  0
  -17.5028  -31.6269   24.5152 H   0  0  0  0  0  0
  -15.5370  -30.2965   23.7664 H   0  0  0  0  0  0
  -15.8705  -28.0799   22.7099 H   0  0  0  0  0  0
  -24.5889  -30.7114   25.7709 H   0  0  0  0  0  0
  -24.8868  -32.2967   26.4733 H   0  0  0  0  0  0
  -25.7944  -30.9009   27.0241 H   0  0  0  0  0  0
  -26.3068  -29.6628   24.1372 H   0  0  0  0  0  0
  -27.3953  -29.7268   25.5019 H   0  0  0  0  0  0
  -27.9013  -30.4126   23.9787 H   0  0  0  0  0  0
  -27.2647  -33.3670   26.2011 H   0  0  0  0  0  0
  -28.3906  -32.6853   25.0362 H   0  0  0  0  0  0
  -28.0688  -31.8521   26.5496 H   0  0  0  0  0  0
  -28.2579  -38.0079   24.7507 H   0  0  0  0  0  0
  -28.1084  -36.2607   24.6296 H   0  0  0  0  0  0
  -27.2290  -37.1423   25.8868 H   0  0  0  0  0  0
  -20.9544  -29.8739   21.6699 H   0  0  0  0  0  0
  -26.0144  -38.2788   24.1410 H   0  0  0  0  0  0
  -25.5225  -23.1733   22.1454 H   0  0  0  0  0  0
  -23.1514  -21.3255   22.1831 H   0  0  0  0  0  0
  -24.0290  -20.5539   20.7636 H   0  0  0  0  0  0
  -24.6958  -18.6195   22.2166 H   0  0  0  0  0  0
  -23.8208  -19.3844   23.6407 H   0  0  0  0  0  0
  -25.2764  -21.3628   23.5215 H   0  0  0  0  0  0
  -27.3110  -20.2531   22.6258 H   0  0  0  0  0  0
  -26.4875  -19.9588   21.0849 H   0  0  0  0  0  0
  -28.7440  -19.1258   21.6779 H   0  0  0  0  0  0
  -28.0663  -18.9790   20.0824 H   0  0  0  0  0  0
  -30.9524  -18.0749   20.8951 H   0  0  0  0  0  0
  -30.3566  -17.9711   19.2831 H   0  0  0  0  0  0
  -30.0763  -20.9929   19.8701 H   0  0  0  0  0  0
  -28.7643  -16.1172   20.7265 H   0  0  0  0  0  0
  1 25  1  0  0  0
  1 30  2  0  0  0
  1 84  1  0  0  0
  2  3  1  0  0  0
  2 25  1  0  0  0
  2 85  1  0  0  0
  2 86  1  0  0  0
  3  4  1  0  0  0
  3 87  1  0  0  0
  3 88  1  0  0  0
  4  5  1  0  0  0
  4 89  1  0  0  0
  4 90  1  0  0  0
  5  6  1  0  0  0
  5 26  1  0  0  0
  5 91  1  0  0  0
  6 25  1  0  0  0
  6 92  1  0  0  0
  6 93  1  0  0  0
  7  8  2  0  0  0
  7 26  1  0  0  0
  7 29  1  0  0  0
  8  9  1  0  0  0
  8 22  1  0  0  0
  9 10  1  0  0  0
  9 27  2  0  0  0
 10 11  2  0  0  0
 10 15  1  0  0  0
 11 12  1  0  0  0
 11 94  1  0  0  0
 12 13  2  0  0  0
 12 95  1  0  0  0
 13 14  1  0  0  0
 13 31  1  0  0  0
 14 15  2  0  0  0
 14 96  1  0  0  0
 15 97  1  0  0  0
 16 17  2  0  0  0
 16 21  1  0  0  0
 16 31  1  0  0  0
 17 18  1  0  0  0
 17 98  1  0  0  0
 18 19  2  0  0  0
 18 99  1  0  0  0
 19 20  1  0  0  0
 19 24  1  0  0  0
 20 21  2  0  0  0
 20100  1  0  0  0
 21 23  1  0  0  0
 22 28  1  0  0  0
 22 32  2  0  0  0
 26 27  1  0  0  0
 28101  1  0  0  0
 28102  1  0  0  0
 29103  1  0  0  0
 29104  1  0  0  0
 33 34  1  0  0  0
 33 66  1  0  0  0
 33 70  2  0  0  0
 34 36  1  0  0  0
 34 59  1  0  0  0
 34105  1  0  0  0
 35 44  2  0  0  0
 35 45  1  0  0  0
 35 68  1  0  0  0
 36 56  1  0  0  0
 36106  1  0  0  0
 37 39  1  0  0  0
 37 47  1  0  0  0
 37 66  1  0  0  0
 37107  1  0  0  0
 38 43  2  0  0  0
 38 46  1  0  0  0
 38 47  1  0  0  0
 39 64  1  0  0  0
 39 67  2  0  0  0
 40 52  1  0  0  0
 40 53  2  0  0  0
 40 58  1  0  0  0
 41108  1  0  0  0
 41109  1  0  0  0
 41110  1  0  0  0
 41 48  1  0  0  0
 42 43  1  0  0  0
 42 66  1  0  0  0
 42111  1  0  0  0
 42112  1  0  0  0
 43 44  1  0  0  0
 44113  1  0  0  0
 45 46  2  0  0  0
 45114  1  0  0  0
 46115  1  0  0  0
 47116  1  0  0  0
 47117  1  0  0  0
 48 56  1  0  0  0
 48 65  1  0  0  0
 48118  1  0  0  0
 49 50  1  0  0  0
 49 53  1  0  0  0
 49 64  1  0  0  0
 49119  1  0  0  0
 50 51  1  0  0  0
 50120  1  0  0  0
 50121  1  0  0  0
 51 52  1  0  0  0
 51122  1  0  0  0
 51123  1  0  0  0
 52124  1  0  0  0
 52125  1  0  0  0
 53 54  1  0  0  0
 54 55  2  0  0  0
 54126  1  0  0  0
 55 57  1  0  0  0
 55127  1  0  0  0
 56 69  2  0  0  0
 57 58  2  0  0  0
 57128  1  0  0  0
 58129  1  0  0  0
 59 60  1  0  0  0
 59 61  1  0  0  0
 59 62  1  0  0  0
 60130  1  0  0  0
 60131  1  0  0  0
 60132  1  0  0  0
 61133  1  0  0  0
 61134  1  0  0  0
 61135  1  0  0  0
 62136  1  0  0  0
 62137  1  0  0  0
 62138  1  0  0  0
 63 65  1  0  0  0
 63139  1  0  0  0
 63140  1  0  0  0
 63141  1  0  0  0
 64142  1  0  0  0
 65143  1  0  0  0
 68 74  1  0  0  0
 71 72  2  0  0  0
 71 81  1  0  0  0
 71144  1  0  0  0
 72 73  1  0  0  0
 72 78  1  0  0  0
 73 82  2  0  0  0
 73 83  1  0  0  0
 74 81  2  0  0  0
 74 82  1  0  0  0
 75 76  1  0  0  0
 75 77  1  0  0  0
 75145  1  0  0  0
 75146  1  0  0  0
 76 77  1  0  0  0
 76147  1  0  0  0
 76148  1  0  0  0
 77 78  1  0  0  0
 77149  1  0  0  0
 78150  1  0  0  0
 78151  1  0  0  0
 79 80  1  0  0  0
 79 83  1  0  0  0
 79152  1  0  0  0
 79153  1  0  0  0
 80 84  1  0  0  0
 80154  1  0  0  0
 80155  1  0  0  0
 83156  1  0  0  0
 84157  1  0  0  0
M  ISO  4   1 100  68 101  74 101  84 100
M  END
> <chiral flag>
0

> <version>
0

> <s_m_source_file>
/data/baiqing/PycharmProjects/Reinvent-master-3.2/result/LINK_invent/BTK/process_docking_weight1_custom_sum_contain_oxygen_bond_distance_aromatic_linkinvent_7_9_3/rearranged_h_0130.sdf

> <i_m_source_file_index>
54

> <r_mmod_Potential_Energy-OPLS-2005>
254.955581665039

> <r_mmod_Stretch_Energy-OPLS-2005>
364.670227050781

> <r_mmod_Bend_Energy-OPLS-2005>
325.572052001953

> <r_mmod_Torsional_Energy-OPLS-2005>
230.581085205078

> <r_mmod_Improper_Torsional_Energy-OPLS-2005>
4.32426166534424

> <r_mmod_Van_der_Waal_Energy-OPLS-2005>
148.886840820312

> <r_mmod_Electrostatic_Energy-OPLS-2005>
-875.716979980469

> <r_mmod_Solvation_Energy-OPLS-2005>
-242.560150146484

> <b_mmod_Minimization_Converged-OPLS-2005>
0

> <r_mmod_RMS_Derivative-OPLS-2005>
1.04565382003784

$$$$
54
                    3D
 Structure written by MMmdl.
159167  0  0  1  0            999 V2000
  -30.5570  -14.8096   20.4680 C   0  0  0  0  0  0
  -30.4474  -12.5006   19.4857 C   0  0  0  0  0  0
  -29.5247  -12.5411   18.2457 C   0  0  0  0  0  0
  -28.0521  -12.3400   18.6504 C   0  0  0  0  0  0
  -27.6457  -13.2330   19.8524 C   0  0  2  0  0  0
  -28.6856  -13.1680   20.9935 C   0  0  0  0  0  0
  -25.2530  -13.8187   20.5670 C   0  0  0  0  0  0
  -24.1824  -13.0431   20.9185 C   0  0  0  0  0  0
  -24.6405  -11.6899   20.8711 C   0  0  0  0  0  0
  -23.9071  -10.4285   21.0382 C   0  0  0  0  0  0
  -24.3630   -9.4202   21.9155 C   0  0  0  0  0  0
  -23.6301   -8.2246   22.0739 C   0  0  0  0  0  0
  -22.4283   -8.0280   21.3535 C   0  0  0  0  0  0
  -21.9913   -9.0247   20.4626 C   0  0  0  0  0  0
  -22.7250  -10.2121   20.3030 C   0  0  0  0  0  0
  -21.6863   -6.0730   22.5276 C   0  0  0  0  0  0
  -21.4021   -6.5629   23.8211 C   0  0  0  0  0  0
  -21.3664   -5.6782   24.9167 C   0  0  0  0  0  0
  -21.6052   -4.3049   24.7218 C   0  0  0  0  0  0
  -21.8824   -3.8139   23.4339 C   0  0  0  0  0  0
  -21.9201   -4.6957   22.3397 C   0  0  0  0  0  0
  -22.7841  -13.5208   21.1846 C   0  0  0  0  0  0
  -22.1665   -4.2142   21.0972 F   0  0  0  0  0  0
  -21.5635   -3.4523   25.7728 F   0  0  0  0  0  0
  -29.9882  -13.5507   20.4312 N   0  0  0  0  0  0
  -26.2954  -12.9392   20.3242 N   0  0  0  0  0  0
  -25.9338  -11.6523   20.5686 N   0  0  0  0  0  0
  -22.0496  -12.8200   22.0411 N   0  0  0  0  0  0
  -25.4205  -15.1914   20.4075 N   0  0  0  0  0  0
  -31.7132  -14.9636   20.0643 O   0  0  0  0  0  0
  -21.6657   -6.8872   21.4231 O   0  0  0  0  0  0
  -22.3519  -14.5503   20.6684 O   0  0  0  0  0  0
  -24.6348  -31.8519   23.1942 C   0  0  0  0  0  0
  -25.9156  -32.4746   23.8294 C   0  0  1  0  0  0
  -27.2102  -27.2076   20.1405 C   0  0  0  0  0  0
  -25.5915  -33.8544   24.2212 N   0  0  0  0  0  0
  -23.4358  -30.4763   21.5371 C   0  0  2  0  0  0
  -24.8861  -28.9224   20.1030 C   0  0  0  0  0  0
  -22.7532  -29.4585   22.4848 C   0  0  0  0  0  0
  -18.0301  -28.1393   22.8475 C   0  0  0  0  0  0
  -24.1490  -36.7285   23.2642 C   0  0  0  0  0  0
  -25.9870  -30.7504   21.3828 C   0  0  0  0  0  0
  -26.0598  -29.3679   20.7256 C   0  0  0  0  0  0
  -27.2234  -28.5230   20.7362 C   0  0  0  0  0  0
  -26.0274  -26.8713   19.4425 C   0  0  0  0  0  0
  -24.8783  -27.6841   19.4491 C   0  0  0  0  0  0
  -23.6605  -29.8164   20.1516 C   0  0  0  0  0  0
  -25.4117  -36.3065   24.0320 C   0  0  1  0  0  0
  -20.5912  -28.3716   23.1243 C   0  0  2  0  0  0
  -20.6792  -26.9427   22.5409 C   0  0  0  0  0  0
  -19.5765  -26.6385   21.5215 C   0  0  0  0  0  0
  -18.1943  -26.7938   22.1630 C   0  0  0  0  0  0
  -19.1559  -28.8871   23.2861 C   0  0  0  0  0  0
  -18.9481  -30.1467   23.8894 C   0  0  0  0  0  0
  -17.6477  -30.6595   24.0566 C   0  0  0  0  0  0
  -25.9063  -34.9439   23.5082 C   0  0  0  0  0  0
  -16.5362  -29.9100   23.6326 C   0  0  0  0  0  0
  -16.7285  -28.6518   23.0339 C   0  0  0  0  0  0
  -26.4487  -31.6567   25.0685 C   0  0  0  0  0  0
  -25.3675  -31.3750   26.1381 C   0  0  0  0  0  0
  -27.0324  -30.2963   24.6205 C   0  0  0  0  0  0
  -27.6029  -32.4299   25.7477 C   0  0  0  0  0  0
  -27.5580  -37.1804   24.8465 C   0  0  0  0  0  0
  -21.4231  -29.3051   22.3610 N   0  0  0  0  0  0
  -26.4290  -37.3767   23.9412 N   0  0  0  0  0  0
  -24.7051  -31.0447   22.0939 N   0  0  0  0  0  0
  -23.4222  -28.8109   23.2950 O   0  0  0  0  0  0
  -28.2507  -26.2303   20.2584 O   0  0  0  0  0  0
  -26.5656  -34.8918   22.4667 O   0  0  0  0  0  0
  -23.5490  -32.1353   23.7206 O   0  0  0  0  0  0
  -28.3424  -18.0841   21.0037 C   0  0  0  0  0  0
  -30.6795  -18.4752   20.5962 C   0  0  0  0  0  0
  -27.9873  -19.5480   20.4929 C   0  0  0  0  0  0
  -30.3250  -19.9609   20.0620 C   0  0  0  0  0  0
  -29.5779  -17.3784   20.3480 C   0  0  1  0  0  0
  -26.8421  -24.4950   21.3573 C   0  0  0  0  0  0
  -28.9866  -23.4885   20.4612 C   0  0  0  0  0  0
  -28.5865  -21.9691   19.9520 C   0  0  0  0  0  0
  -27.9116  -24.7287   20.2599 C   0  0  2  0  0  0
  -29.7275  -15.8900   20.7806 N   0  0  0  0  0  0
  -29.0595  -20.6112   20.5893 N   0  3  1  0  0  0
  -31.4853  -12.6537   19.1838 H   0  0  0  0  0  0
  -30.4154  -11.5191   19.9611 H   0  0  0  0  0  0
  -29.8244  -11.7803   17.5246 H   0  0  0  0  0  0
  -29.6372  -13.5016   17.7397 H   0  0  0  0  0  0
  -27.9210  -11.2874   18.9056 H   0  0  0  0  0  0
  -27.3986  -12.5315   17.7976 H   0  0  0  0  0  0
  -27.6378  -14.2553   19.4721 H   0  0  0  0  0  0
  -28.7337  -12.1649   21.4180 H   0  0  0  0  0  0
  -28.3976  -13.8305   21.8110 H   0  0  0  0  0  0
  -25.2780   -9.5694   22.4704 H   0  0  0  0  0  0
  -24.0022   -7.4650   22.7470 H   0  0  0  0  0  0
  -21.0842   -8.8757   19.8937 H   0  0  0  0  0  0
  -22.3706  -10.9643   19.6131 H   0  0  0  0  0  0
  -21.2007   -7.6135   23.9704 H   0  0  0  0  0  0
  -21.1486   -6.0511   25.9073 H   0  0  0  0  0  0
  -22.0601   -2.7592   23.2842 H   0  0  0  0  0  0
  -22.4119  -11.9887   22.4833 H   0  0  0  0  0  0
  -21.1085  -13.1181   22.2555 H   0  0  0  0  0  0
  -24.6431  -15.8364   20.4992 H   0  0  0  0  0  0
  -26.2541  -15.6256   20.0337 H   0  0  0  0  0  0
  -26.7213  -32.5381   23.1020 H   0  0  0  0  0  0
  -24.9980  -33.9655   25.0304 H   0  0  0  0  0  0
  -22.7347  -31.3013   21.3894 H   0  0  0  0  0  0
  -23.3743  -35.9624   23.3284 H   0  0  0  0  0  0
  -24.3591  -36.8936   22.2066 H   0  0  0  0  0  0
  -23.7244  -37.6483   23.6672 H   0  0  0  0  0  0
  -26.1286  -31.5066   20.6095 H   0  0  0  0  0  0
  -26.8640  -30.8045   22.0151 H   0  0  0  0  0  0
  -28.1101  -28.8519   21.2605 H   0  0  0  0  0  0
  -25.9442  -25.9310   18.9192 H   0  0  0  0  0  0
  -23.9847  -27.3436   18.9438 H   0  0  0  0  0  0
  -23.8000  -30.5980   19.4039 H   0  0  0  0  0  0
  -22.7762  -29.2630   19.8328 H   0  0  0  0  0  0
  -25.1306  -36.1904   25.0808 H   0  0  0  0  0  0
  -21.0019  -28.3300   24.1352 H   0  0  0  0  0  0
  -20.5698  -26.2325   23.3617 H   0  0  0  0  0  0
  -21.6657  -26.7440   22.1198 H   0  0  0  0  0  0
  -19.6935  -25.6291   21.1255 H   0  0  0  0  0  0
  -19.6703  -27.3191   20.6738 H   0  0  0  0  0  0
  -17.4213  -26.6658   21.4030 H   0  0  0  0  0  0
  -18.0349  -26.0078   22.9030 H   0  0  0  0  0  0
  -19.7947  -30.7281   24.2261 H   0  0  0  0  0  0
  -17.5030  -31.6278   24.5160 H   0  0  0  0  0  0
  -15.5368  -30.3019   23.7638 H   0  0  0  0  0  0
  -15.8674  -28.0856   22.7042 H   0  0  0  0  0  0
  -24.5856  -30.7097   25.7684 H   0  0  0  0  0  0
  -24.8851  -32.2943   26.4718 H   0  0  0  0  0  0
  -25.7951  -30.8970   27.0202 H   0  0  0  0  0  0
  -26.2906  -29.6706   24.1218 H   0  0  0  0  0  0
  -27.3967  -29.7229   25.4738 H   0  0  0  0  0  0
  -27.8802  -30.4196   23.9462 H   0  0  0  0  0  0
  -27.2622  -33.3602   26.2027 H   0  0  0  0  0  0
  -28.3862  -32.6854   25.0327 H   0  0  0  0  0  0
  -28.0649  -31.8430   26.5423 H   0  0  0  0  0  0
  -28.2586  -38.0114   24.7515 H   0  0  0  0  0  0
  -28.1088  -36.2642   24.6277 H   0  0  0  0  0  0
  -27.2303  -37.1447   25.8871 H   0  0  0  0  0  0
  -20.9398  -29.8787   21.6832 H   0  0  0  0  0  0
  -26.0158  -38.2835   24.1416 H   0  0  0  0  0  0
  -27.4618  -17.4597   20.8469 H   0  0  0  0  0  0
  -28.4793  -18.1169   22.0857 H   0  0  0  0  0  0
  -30.9003  -18.5286   21.6622 H   0  0  0  0  0  0
  -31.6076  -18.1508   20.1241 H   0  0  0  0  0  0
  -27.1098  -19.8956   21.0402 H   0  0  0  0  0  0
  -27.6744  -19.4726   19.4504 H   0  0  0  0  0  0
  -30.2442  -19.9145   18.9745 H   0  0  0  0  0  0
  -31.1621  -20.6288   20.2669 H   0  0  0  0  0  0
  -29.3990  -17.3423   19.2721 H   0  0  0  0  0  0
  -26.5351  -23.4505   21.4068 H   0  0  0  0  0  0
  -25.9244  -25.0615   21.2190 H   0  0  0  0  0  0
  -27.2356  -24.7609   22.3385 H   0  0  0  0  0  0
  -29.9175  -23.7641   19.9645 H   0  0  0  0  0  0
  -29.2455  -23.4398   21.5192 H   0  0  0  0  0  0
  -28.7718  -21.9126   18.8781 H   0  0  0  0  0  0
  -27.5004  -21.9444   20.0181 H   0  0  0  0  0  0
  -27.4724  -24.5282   19.2829 H   0  0  0  0  0  0
  -28.8722  -15.5421   21.1898 H   0  0  0  0  0  0
  -29.1952  -20.7849   21.5743 H   0  0  0  0  0  0
  1 25  1  0  0  0
  1 30  2  0  0  0
  1 80  1  0  0  0
  2  3  1  0  0  0
  2 25  1  0  0  0
  2 82  1  0  0  0
  2 83  1  0  0  0
  3  4  1  0  0  0
  3 84  1  0  0  0
  3 85  1  0  0  0
  4  5  1  0  0  0
  4 86  1  0  0  0
  4 87  1  0  0  0
  5  6  1  0  0  0
  5 26  1  0  0  0
  5 88  1  0  0  0
  6 25  1  0  0  0
  6 89  1  0  0  0
  6 90  1  0  0  0
  7  8  2  0  0  0
  7 26  1  0  0  0
  7 29  1  0  0  0
  8  9  1  0  0  0
  8 22  1  0  0  0
  9 10  1  0  0  0
  9 27  2  0  0  0
 10 11  2  0  0  0
 10 15  1  0  0  0
 11 12  1  0  0  0
 11 91  1  0  0  0
 12 13  2  0  0  0
 12 92  1  0  0  0
 13 14  1  0  0  0
 13 31  1  0  0  0
 14 15  2  0  0  0
 14 93  1  0  0  0
 15 94  1  0  0  0
 16 17  2  0  0  0
 16 21  1  0  0  0
 16 31  1  0  0  0
 17 18  1  0  0  0
 17 95  1  0  0  0
 18 19  2  0  0  0
 18 96  1  0  0  0
 19 20  1  0  0  0
 19 24  1  0  0  0
 20 21  2  0  0  0
 20 97  1  0  0  0
 21 23  1  0  0  0
 22 28  1  0  0  0
 22 32  2  0  0  0
 26 27  1  0  0  0
 28 98  1  0  0  0
 28 99  1  0  0  0
 29100  1  0  0  0
 29101  1  0  0  0
 33 34  1  0  0  0
 33 66  1  0  0  0
 33 70  2  0  0  0
 34 36  1  0  0  0
 34 59  1  0  0  0
 34102  1  0  0  0
 35 44  2  0  0  0
 35 45  1  0  0  0
 35 68  1  0  0  0
 36 56  1  0  0  0
 36103  1  0  0  0
 37 39  1  0  0  0
 37 47  1  0  0  0
 37 66  1  0  0  0
 37104  1  0  0  0
 38 43  2  0  0  0
 38 46  1  0  0  0
 38 47  1  0  0  0
 39 64  1  0  0  0
 39 67  2  0  0  0
 40 52  1  0  0  0
 40 53  2  0  0  0
 40 58  1  0  0  0
 41105  1  0  0  0
 41106  1  0  0  0
 41107  1  0  0  0
 41 48  1  0  0  0
 42 43  1  0  0  0
 42 66  1  0  0  0
 42108  1  0  0  0
 42109  1  0  0  0
 43 44  1  0  0  0
 44110  1  0  0  0
 45 46  2  0  0  0
 45111  1  0  0  0
 46112  1  0  0  0
 47113  1  0  0  0
 47114  1  0  0  0
 48 56  1  0  0  0
 48 65  1  0  0  0
 48115  1  0  0  0
 49 50  1  0  0  0
 49 53  1  0  0  0
 49 64  1  0  0  0
 49116  1  0  0  0
 50 51  1  0  0  0
 50117  1  0  0  0
 50118  1  0  0  0
 51 52  1  0  0  0
 51119  1  0  0  0
 51120  1  0  0  0
 52121  1  0  0  0
 52122  1  0  0  0
 53 54  1  0  0  0
 54 55  2  0  0  0
 54123  1  0  0  0
 55 57  1  0  0  0
 55124  1  0  0  0
 56 69  2  0  0  0
 57 58  2  0  0  0
 57125  1  0  0  0
 58126  1  0  0  0
 59 60  1  0  0  0
 59 61  1  0  0  0
 59 62  1  0  0  0
 60127  1  0  0  0
 60128  1  0  0  0
 60129  1  0  0  0
 61130  1  0  0  0
 61131  1  0  0  0
 61132  1  0  0  0
 62133  1  0  0  0
 62134  1  0  0  0
 62135  1  0  0  0
 63 65  1  0  0  0
 63136  1  0  0  0
 63137  1  0  0  0
 63138  1  0  0  0
 64139  1  0  0  0
 65140  1  0  0  0
 68 79  1  0  0  0
 71 73  1  0  0  0
 71 75  1  0  0  0
 71141  1  0  0  0
 71142  1  0  0  0
 72 74  1  0  0  0
 72 75  1  0  0  0
 72143  1  0  0  0
 72144  1  0  0  0
 73 81  1  0  0  0
 73145  1  0  0  0
 73146  1  0  0  0
 74 81  1  0  0  0
 74147  1  0  0  0
 74148  1  0  0  0
 75 80  1  0  0  0
 75149  1  0  0  0
 76150  1  0  0  0
 76151  1  0  0  0
 76152  1  0  0  0
 76 79  1  0  0  0
 77 78  1  0  0  0
 77 79  1  0  0  0
 77153  1  0  0  0
 77154  1  0  0  0
 78155  1  0  0  0
 78156  1  0  0  0
 78 81  1  0  0  0
 79157  1  0  0  0
 80158  1  0  0  0
 81159  1  0  0  0
M  CHG  1  81   1
M  ISO  4   1 100  68 101  79 101  80 100
M  END
> <chiral flag>
0

> <version>
0

> <s_m_source_file>
/data/baiqing/PycharmProjects/Reinvent-master-3.2/result/LINK_invent/BTK/process_docking_weight1_custom_sum_contain_oxygen_bond_distance_aromatic_linkinvent_7_9_3/rearranged_h_0130.sdf

> <i_m_source_file_index>
55

> <r_mmod_Potential_Energy-OPLS-2005>
235.135162353516

> <r_mmod_Stretch_Energy-OPLS-2005>
171.486709594727

> <r_mmod_Bend_Energy-OPLS-2005>
234.74885559082

> <r_mmod_Torsional_Energy-OPLS-2005>
254.519836425781

> <r_mmod_Improper_Torsional_Energy-OPLS-2005>
5.81223297119141

> <r_mmod_Van_der_Waal_Energy-OPLS-2005>
127.31901550293

> <r_mmod_Electrostatic_Energy-OPLS-2005>
-224.118545532227

> <r_mmod_Solvation_Energy-OPLS-2005>
-461.411834716797

> <b_mmod_Minimization_Converged-OPLS-2005>
0

> <r_mmod_RMS_Derivative-OPLS-2005>
2.40217065811157

$$$$
55
                    3D
 Structure written by MMmdl.
162171  0  0  1  0            999 V2000
  -30.6273  -14.5757   20.6262 C   0  0  0  0  0  0
  -30.4477  -12.3838   19.4440 C   0  0  0  0  0  0
  -29.5076  -12.5266   18.2205 C   0  0  0  0  0  0
  -28.0272  -12.3459   18.6341 C   0  0  0  0  0  0
  -27.6509  -13.2053   19.8730 C   0  0  2  0  0  0
  -28.6966  -12.9911   20.9874 C   0  0  0  0  0  0
  -25.2492  -13.8148   20.5679 C   0  0  0  0  0  0
  -24.1731  -13.0372   20.9166 C   0  0  0  0  0  0
  -24.6287  -11.6839   20.8742 C   0  0  0  0  0  0
  -23.8954  -10.4196   21.0373 C   0  0  0  0  0  0
  -24.3508   -9.4177   21.9190 C   0  0  0  0  0  0
  -23.6216   -8.2206   22.0751 C   0  0  0  0  0  0
  -22.4215   -8.0211   21.3541 C   0  0  0  0  0  0
  -21.9821   -9.0162   20.4646 C   0  0  0  0  0  0
  -22.7099  -10.2067   20.3063 C   0  0  0  0  0  0
  -21.6803   -6.0681   22.5283 C   0  0  0  0  0  0
  -21.3977   -6.5600   23.8216 C   0  0  0  0  0  0
  -21.3698   -5.6776   24.9188 C   0  0  0  0  0  0
  -21.6031   -4.3033   24.7236 C   0  0  0  0  0  0
  -21.8818   -3.8106   23.4359 C   0  0  0  0  0  0
  -21.9172   -4.6912   22.3408 C   0  0  0  0  0  0
  -22.7769  -13.5225   21.1816 C   0  0  0  0  0  0
  -22.1639   -4.2084   21.0992 F   0  0  0  0  0  0
  -21.5672   -3.4528   25.7773 F   0  0  0  0  0  0
  -30.0035  -13.3739   20.4438 N   0  0  0  0  0  0
  -26.2909  -12.9264   20.3321 N   0  0  0  0  0  0
  -25.9226  -11.6406   20.5759 N   0  0  0  0  0  0
  -22.0345  -12.8279   22.0392 N   0  0  0  0  0  0
  -25.4157  -15.1820   20.4025 N   0  0  0  0  0  0
  -31.7902  -14.7565   20.2596 O   0  0  0  0  0  0
  -21.6597   -6.8801   21.4233 O   0  0  0  0  0  0
  -22.3520  -14.5489   20.6616 O   0  0  0  0  0  0
  -24.6246  -31.8663   23.2157 C   0  0  0  0  0  0
  -25.9027  -32.4889   23.8456 C   0  0  1  0  0  0
  -27.2307  -27.4128   20.1282 C   0  0  0  0  0  0
  -25.5824  -33.8674   24.2363 N   0  0  0  0  0  0
  -23.4204  -30.4975   21.5508 C   0  0  2  0  0  0
  -24.8742  -28.9899   20.0702 C   0  0  0  0  0  0
  -22.7521  -29.4634   22.4852 C   0  0  0  0  0  0
  -18.0340  -28.1191   22.8383 C   0  0  0  0  0  0
  -24.1441  -36.7402   23.2643 C   0  0  0  0  0  0
  -25.9435  -30.8296   21.3764 C   0  0  0  0  0  0
  -26.0236  -29.4642   20.7216 C   0  0  0  0  0  0
  -27.2043  -28.6735   20.7706 C   0  0  0  0  0  0
  -26.1490  -27.0766   19.2833 C   0  0  0  0  0  0
  -24.9452  -27.8022   19.3261 C   0  0  0  0  0  0
  -23.6323  -29.8553   20.1512 C   0  0  0  0  0  0
  -25.4041  -36.3185   24.0387 C   0  0  1  0  0  0
  -20.5864  -28.3746   23.1227 C   0  0  2  0  0  0
  -20.6845  -26.9563   22.5238 C   0  0  0  0  0  0
  -19.5885  -26.6349   21.5136 C   0  0  0  0  0  0
  -18.2093  -26.7801   22.1438 C   0  0  0  0  0  0
  -19.1469  -28.8753   23.2850 C   0  0  0  0  0  0
  -18.9281  -30.1272   23.9007 C   0  0  0  0  0  0
  -17.6191  -30.6202   24.0572 C   0  0  0  0  0  0
  -25.8976  -34.9563   23.5183 C   0  0  0  0  0  0
  -16.5182  -29.8761   23.6083 C   0  0  0  0  0  0
  -16.7263  -28.6204   23.0122 C   0  0  0  0  0  0
  -26.4434  -31.6700   25.0805 C   0  0  0  0  0  0
  -25.3663  -31.3831   26.1539 C   0  0  0  0  0  0
  -27.0218  -30.3169   24.6138 C   0  0  0  0  0  0
  -27.6025  -32.4421   25.7529 C   0  0  0  0  0  0
  -27.5574  -37.1863   24.8471 C   0  0  0  0  0  0
  -21.4164  -29.3321   22.3756 N   0  0  0  0  0  0
  -26.4269  -37.3868   23.9452 N   0  0  0  0  0  0
  -24.6832  -31.0722   22.1117 N   0  0  0  0  0  0
  -23.4234  -28.8059   23.2871 O   0  0  0  0  0  0
  -28.1907  -26.4528   20.4358 O   0  0  0  0  0  0
  -26.5558  -34.9008   22.4742 O   0  0  0  0  0  0
  -23.5381  -32.1410   23.7434 O   0  0  0  0  0  0
  -29.8566  -19.3965   20.8311 C   0  0  0  0  0  0
  -31.0350  -18.7024   22.8206 C   0  0  0  0  0  0
  -29.6447  -18.0348   20.4892 C   0  0  0  0  0  0
  -30.8573  -17.3430   22.4653 C   0  0  0  0  0  0
  -30.5213  -19.7560   22.0284 C   0  0  0  0  0  0
  -30.1519  -16.9786   21.3013 C   0  0  0  0  0  0
  -28.8685  -22.7996   23.5750 C   0  0  0  0  0  0
  -29.4225  -22.1273   22.3025 C   0  0  2  0  0  0
  -28.3219  -24.0123   21.6773 C   0  0  1  0  0  0
  -26.1714  -25.0709   21.2641 C   0  0  0  0  0  0
  -30.6709  -21.2196   22.5122 C   0  0  0  0  0  0
  -27.6455  -25.0907   20.7205 C   0  0  1  0  0  0
  -28.1915  -24.0423   23.1434 N   0  0  0  0  0  0
  -29.8263  -15.5945   21.0480 N   0  0  0  0  0  0
  -29.5793  -23.2947   21.3979 N   0  3  0  0  0  0
  -31.4904  -12.5241   19.1697 H   0  0  0  0  0  0
  -30.3807  -11.3832   19.8644 H   0  0  0  0  0  0
  -29.7673  -11.7970   17.4553 H   0  0  0  0  0  0
  -29.6420  -13.5138   17.7650 H   0  0  0  0  0  0
  -27.8906  -11.2920   18.8840 H   0  0  0  0  0  0
  -27.3604  -12.5534   17.7981 H   0  0  0  0  0  0
  -27.6791  -14.2461   19.5536 H   0  0  0  0  0  0
  -28.7086  -11.9352   21.2500 H   0  0  0  0  0  0
  -28.4535  -13.5149   21.9113 H   0  0  0  0  0  0
  -25.2596   -9.5691   22.4825 H   0  0  0  0  0  0
  -23.9895   -7.4603   22.7484 H   0  0  0  0  0  0
  -21.0748   -8.8607   19.8977 H   0  0  0  0  0  0
  -22.3438  -10.9591   19.6221 H   0  0  0  0  0  0
  -21.1927   -7.6095   23.9680 H   0  0  0  0  0  0
  -21.1563   -6.0520   25.9093 H   0  0  0  0  0  0
  -22.0561   -2.7550   23.2878 H   0  0  0  0  0  0
  -22.3837  -11.9938   22.4903 H   0  0  0  0  0  0
  -21.1013  -13.1452   22.2552 H   0  0  0  0  0  0
  -24.6409  -15.8278   20.4720 H   0  0  0  0  0  0
  -26.2567  -15.6042   20.0337 H   0  0  0  0  0  0
  -26.7115  -32.5671   23.1254 H   0  0  0  0  0  0
  -25.0005  -33.9840   25.0559 H   0  0  0  0  0  0
  -22.7126  -31.3164   21.4222 H   0  0  0  0  0  0
  -23.3712  -35.9753   23.3305 H   0  0  0  0  0  0
  -24.3592  -36.8997   22.2062 H   0  0  0  0  0  0
  -23.7148  -37.6614   23.6631 H   0  0  0  0  0  0
  -26.0173  -31.5861   20.5904 H   0  0  0  0  0  0
  -26.8496  -30.9179   21.9669 H   0  0  0  0  0  0
  -28.0605  -29.0013   21.3535 H   0  0  0  0  0  0
  -26.2080  -26.1978   18.6609 H   0  0  0  0  0  0
  -24.1048  -27.4755   18.7293 H   0  0  0  0  0  0
  -23.7345  -30.6684   19.4212 H   0  0  0  0  0  0
  -22.7594  -29.2765   19.8448 H   0  0  0  0  0  0
  -25.1171  -36.2115   25.0902 H   0  0  0  0  0  0
  -21.0026  -28.3270   24.1360 H   0  0  0  0  0  0
  -20.6004  -26.2243   23.3305 H   0  0  0  0  0  0
  -21.6498  -26.7751   22.0617 H   0  0  0  0  0  0
  -19.7205  -25.6179   21.1432 H   0  0  0  0  0  0
  -19.6851  -27.2760   20.6351 H   0  0  0  0  0  0
  -17.4506  -26.6520   21.3757 H   0  0  0  0  0  0
  -18.0570  -25.9703   22.8609 H   0  0  0  0  0  0
  -19.7610  -30.7143   24.2698 H   0  0  0  0  0  0
  -17.4529  -31.5838   24.5111 H   0  0  0  0  0  0
  -15.5186  -30.2607   23.7231 H   0  0  0  0  0  0
  -15.8748  -28.0451   22.6731 H   0  0  0  0  0  0
  -24.5881  -30.7073   25.7916 H   0  0  0  0  0  0
  -24.8792  -32.2995   26.4935 H   0  0  0  0  0  0
  -25.8043  -30.9112   27.0337 H   0  0  0  0  0  0
  -26.2714  -29.6976   24.1202 H   0  0  0  0  0  0
  -27.3947  -29.7364   25.4565 H   0  0  0  0  0  0
  -27.8567  -30.4502   23.9252 H   0  0  0  0  0  0
  -27.2680  -33.3766   26.2089 H   0  0  0  0  0  0
  -28.3874  -32.6921   25.0348 H   0  0  0  0  0  0
  -28.0675  -31.8546   26.5475 H   0  0  0  0  0  0
  -28.2571  -38.0161   24.7495 H   0  0  0  0  0  0
  -28.1044  -36.2684   24.6262 H   0  0  0  0  0  0
  -27.2336  -37.1511   25.8886 H   0  0  0  0  0  0
  -20.9306  -29.9324   21.7242 H   0  0  0  0  0  0
  -26.0174  -38.2993   24.1421 H   0  0  0  0  0  0
  -29.4601  -20.1606   20.1681 H   0  0  0  0  0  0
  -31.5525  -18.9246   23.7419 H   0  0  0  0  0  0
  -29.0801  -17.8116   19.5974 H   0  0  0  0  0  0
  -31.2246  -16.5744   23.1243 H   0  0  0  0  0  0
  -29.6835  -23.0186   24.2601 H   0  0  0  0  0  0
  -28.1908  -22.1195   24.1036 H   0  0  0  0  0  0
  -28.6216  -21.4798   21.9250 H   0  0  0  0  0  0
  -27.6423  -23.2122   21.4011 H   0  0  0  0  0  0
  -25.9074  -24.1403   21.7558 H   0  0  0  0  0  0
  -25.4236  -25.0760   20.4788 H   0  0  0  0  0  0
  -25.9658  -25.8844   21.9584 H   0  0  0  0  0  0
  -31.5879  -21.6864   22.1404 H   0  0  0  0  0  0
  -30.8230  -21.1505   23.5941 H   0  0  0  0  0  0
  -27.6659  -24.6216   19.7430 H   0  0  0  0  0  0
  -27.1986  -24.0014   23.4112 H   0  0  0  0  0  0
  -28.8591  -15.3474   21.1597 H   0  0  0  0  0  0
  -29.6799  -23.0094   20.4349 H   0  0  0  0  0  0
  -30.3746  -23.8392   21.6826 H   0  0  0  0  0  0
  1 25  1  0  0  0
  1 30  2  0  0  0
  1 84  1  0  0  0
  2  3  1  0  0  0
  2 25  1  0  0  0
  2 86  1  0  0  0
  2 87  1  0  0  0
  3  4  1  0  0  0
  3 88  1  0  0  0
  3 89  1  0  0  0
  4  5  1  0  0  0
  4 90  1  0  0  0
  4 91  1  0  0  0
  5  6  1  0  0  0
  5 26  1  0  0  0
  5 92  1  0  0  0
  6 25  1  0  0  0
  6 93  1  0  0  0
  6 94  1  0  0  0
  7  8  2  0  0  0
  7 26  1  0  0  0
  7 29  1  0  0  0
  8  9  1  0  0  0
  8 22  1  0  0  0
  9 10  1  0  0  0
  9 27  2  0  0  0
 10 11  2  0  0  0
 10 15  1  0  0  0
 11 12  1  0  0  0
 11 95  1  0  0  0
 12 13  2  0  0  0
 12 96  1  0  0  0
 13 14  1  0  0  0
 13 31  1  0  0  0
 14 15  2  0  0  0
 14 97  1  0  0  0
 15 98  1  0  0  0
 16 17  2  0  0  0
 16 21  1  0  0  0
 16 31  1  0  0  0
 17 18  1  0  0  0
 17 99  1  0  0  0
 18 19  2  0  0  0
 18100  1  0  0  0
 19 20  1  0  0  0
 19 24  1  0  0  0
 20 21  2  0  0  0
 20101  1  0  0  0
 21 23  1  0  0  0
 22 28  1  0  0  0
 22 32  2  0  0  0
 26 27  1  0  0  0
 28102  1  0  0  0
 28103  1  0  0  0
 29104  1  0  0  0
 29105  1  0  0  0
 33 34  1  0  0  0
 33 66  1  0  0  0
 33 70  2  0  0  0
 34 36  1  0  0  0
 34 59  1  0  0  0
 34106  1  0  0  0
 35 44  2  0  0  0
 35 45  1  0  0  0
 35 68  1  0  0  0
 36 56  1  0  0  0
 36107  1  0  0  0
 37 39  1  0  0  0
 37 47  1  0  0  0
 37 66  1  0  0  0
 37108  1  0  0  0
 38 43  2  0  0  0
 38 46  1  0  0  0
 38 47  1  0  0  0
 39 64  1  0  0  0
 39 67  2  0  0  0
 40 52  1  0  0  0
 40 53  2  0  0  0
 40 58  1  0  0  0
 41109  1  0  0  0
 41110  1  0  0  0
 41111  1  0  0  0
 41 48  1  0  0  0
 42 43  1  0  0  0
 42 66  1  0  0  0
 42112  1  0  0  0
 42113  1  0  0  0
 43 44  1  0  0  0
 44114  1  0  0  0
 45 46  2  0  0  0
 45115  1  0  0  0
 46116  1  0  0  0
 47117  1  0  0  0
 47118  1  0  0  0
 48 56  1  0  0  0
 48 65  1  0  0  0
 48119  1  0  0  0
 49 50  1  0  0  0
 49 53  1  0  0  0
 49 64  1  0  0  0
 49120  1  0  0  0
 50 51  1  0  0  0
 50121  1  0  0  0
 50122  1  0  0  0
 51 52  1  0  0  0
 51123  1  0  0  0
 51124  1  0  0  0
 52125  1  0  0  0
 52126  1  0  0  0
 53 54  1  0  0  0
 54 55  2  0  0  0
 54127  1  0  0  0
 55 57  1  0  0  0
 55128  1  0  0  0
 56 69  2  0  0  0
 57 58  2  0  0  0
 57129  1  0  0  0
 58130  1  0  0  0
 59 60  1  0  0  0
 59 61  1  0  0  0
 59 62  1  0  0  0
 60131  1  0  0  0
 60132  1  0  0  0
 60133  1  0  0  0
 61134  1  0  0  0
 61135  1  0  0  0
 61136  1  0  0  0
 62137  1  0  0  0
 62138  1  0  0  0
 62139  1  0  0  0
 63 65  1  0  0  0
 63140  1  0  0  0
 63141  1  0  0  0
 63142  1  0  0  0
 64143  1  0  0  0
 65144  1  0  0  0
 68 82  1  0  0  0
 71 73  2  0  0  0
 71 75  1  0  0  0
 71145  1  0  0  0
 72 74  1  0  0  0
 72 75  2  0  0  0
 72146  1  0  0  0
 73 76  1  0  0  0
 73147  1  0  0  0
 74 76  2  0  0  0
 74148  1  0  0  0
 75 81  1  0  0  0
 76 84  1  0  0  0
 77 78  1  0  0  0
 77 83  1  0  0  0
 77149  1  0  0  0
 77150  1  0  0  0
 78 81  1  0  0  0
 78 85  1  0  0  0
 78151  1  0  0  0
 79 82  1  0  0  0
 79 83  1  0  0  0
 79 85  1  0  0  0
 79152  1  0  0  0
 80153  1  0  0  0
 80154  1  0  0  0
 80155  1  0  0  0
 80 82  1  0  0  0
 81156  1  0  0  0
 81157  1  0  0  0
 82158  1  0  0  0
 83159  1  0  0  0
 84160  1  0  0  0
 85161  1  0  0  0
 85162  1  0  0  0
M  CHG  1  85   1
M  ISO  4   1 100  68 101  82 101  84 100
M  END
> <chiral flag>
0

> <version>
0

> <s_m_source_file>
/data/baiqing/PycharmProjects/Reinvent-master-3.2/result/LINK_invent/BTK/process_docking_weight1_custom_sum_contain_oxygen_bond_distance_aromatic_linkinvent_7_9_3/rearranged_h_0130.sdf

> <i_m_source_file_index>
56

> <r_mmod_Potential_Energy-OPLS-2005>
221.011962890625

> <r_mmod_Stretch_Energy-OPLS-2005>
62.5908126831055

> <r_mmod_Bend_Energy-OPLS-2005>
224.020172119141

> <r_mmod_Torsional_Energy-OPLS-2005>
355.497131347656

> <r_mmod_Improper_Torsional_Energy-OPLS-2005>
5.89262247085571

> <r_mmod_Van_der_Waal_Energy-OPLS-2005>
186.04460144043

> <r_mmod_Electrostatic_Energy-OPLS-2005>
-230.744583129883

> <r_mmod_Solvation_Energy-OPLS-2005>
-452.253051757812

> <b_mmod_Minimization_Converged-OPLS-2005>
0

> <r_mmod_RMS_Derivative-OPLS-2005>
16.6728839874268

$$$$
56
                    3D
 Structure written by MMmdl.
163172  0  0  1  0            999 V2000
  -30.7251  -14.4330   20.6477 C   0  0  0  0  0  0
  -30.4169  -12.3085   19.4258 C   0  0  0  0  0  0
  -29.4892  -12.5270   18.2106 C   0  0  0  0  0  0
  -28.0096  -12.3856   18.6154 C   0  0  0  0  0  0
  -27.6613  -13.2053   19.8855 C   0  0  2  0  0  0
  -28.6978  -12.9687   21.0085 C   0  0  0  0  0  0
  -25.2555  -13.8120   20.5693 C   0  0  0  0  0  0
  -24.1789  -13.0409   20.9153 C   0  0  0  0  0  0
  -24.6336  -11.6876   20.8641 C   0  0  0  0  0  0
  -23.8958  -10.4286   21.0321 C   0  0  0  0  0  0
  -24.3542   -9.4229   21.9108 C   0  0  0  0  0  0
  -23.6273   -8.2256   22.0741 C   0  0  0  0  0  0
  -22.4253   -8.0248   21.3548 C   0  0  0  0  0  0
  -21.9832   -9.0173   20.4646 C   0  0  0  0  0  0
  -22.7108  -10.2083   20.3004 C   0  0  0  0  0  0
  -21.6863   -6.0731   22.5326 C   0  0  0  0  0  0
  -21.4018   -6.5639   23.8269 C   0  0  0  0  0  0
  -21.3676   -5.6787   24.9236 C   0  0  0  0  0  0
  -21.6032   -4.3041   24.7259 C   0  0  0  0  0  0
  -21.8814   -3.8137   23.4379 C   0  0  0  0  0  0
  -21.9205   -4.6961   22.3436 C   0  0  0  0  0  0
  -22.7827  -13.5223   21.1850 C   0  0  0  0  0  0
  -22.1663   -4.2157   21.1012 F   0  0  0  0  0  0
  -21.5615   -3.4504   25.7756 F   0  0  0  0  0  0
  -30.0390  -13.2708   20.4705 N   0  0  0  0  0  0
  -26.3004  -12.9299   20.3385 N   0  0  0  0  0  0
  -25.9276  -11.6444   20.5695 N   0  0  0  0  0  0
  -22.0471  -12.8220   22.0392 N   0  0  0  0  0  0
  -25.4247  -15.1858   20.4200 N   0  0  0  0  0  0
  -31.7826  -14.6912   20.0659 O   0  0  0  0  0  0
  -21.6632   -6.8844   21.4278 O   0  0  0  0  0  0
  -22.3534  -14.5557   20.6738 O   0  0  0  0  0  0
  -24.6134  -31.8699   23.2113 C   0  0  0  0  0  0
  -25.9030  -32.4840   23.8408 C   0  0  1  0  0  0
  -27.2257  -27.4512   20.0961 C   0  0  0  0  0  0
  -25.5902  -33.8630   24.2344 N   0  0  0  0  0  0
  -23.3993  -30.4929   21.5519 C   0  0  2  0  0  0
  -24.8472  -28.9686   20.1032 C   0  0  0  0  0  0
  -22.7399  -29.4675   22.5001 C   0  0  0  0  0  0
  -18.0274  -28.1368   22.8546 C   0  0  0  0  0  0
  -24.1482  -36.7292   23.2644 C   0  0  0  0  0  0
  -25.9254  -30.8443   21.3584 C   0  0  0  0  0  0
  -26.0060  -29.4831   20.6984 C   0  0  0  0  0  0
  -27.2049  -28.7340   20.6861 C   0  0  0  0  0  0
  -26.0571  -26.9490   19.4910 C   0  0  0  0  0  0
  -24.8671  -27.7017   19.4906 C   0  0  0  0  0  0
  -23.6039  -29.8282   20.1638 C   0  0  0  0  0  0
  -25.4113  -36.3113   24.0356 C   0  0  1  0  0  0
  -20.5874  -28.3664   23.1355 C   0  0  2  0  0  0
  -20.6769  -26.9400   22.5431 C   0  0  0  0  0  0
  -19.5741  -26.6384   21.5237 C   0  0  0  0  0  0
  -18.1926  -26.7920   22.1646 C   0  0  0  0  0  0
  -19.1530  -28.8821   23.2947 C   0  0  0  0  0  0
  -18.9441  -30.1443   23.8943 C   0  0  0  0  0  0
  -17.6448  -30.6577   24.0585 C   0  0  0  0  0  0
  -25.9033  -34.9483   23.5132 C   0  0  0  0  0  0
  -16.5339  -29.9092   23.6347 C   0  0  0  0  0  0
  -16.7267  -28.6495   23.0391 C   0  0  0  0  0  0
  -26.4459  -31.6601   25.0716 C   0  0  0  0  0  0
  -25.3725  -31.3710   26.1461 C   0  0  0  0  0  0
  -27.0275  -30.3049   24.6037 C   0  0  0  0  0  0
  -27.6036  -32.4297   25.7486 C   0  0  0  0  0  0
  -27.5582  -37.1809   24.8472 C   0  0  0  0  0  0
  -21.4124  -29.3038   22.3741 N   0  0  0  0  0  0
  -26.4292  -37.3808   23.9413 N   0  0  0  0  0  0
  -24.6643  -31.0824   22.1003 N   0  0  0  0  0  0
  -23.4190  -28.8236   23.3036 O   0  0  0  0  0  0
  -28.3310  -26.6341   20.1815 O   0  0  0  0  0  0
  -26.5565  -34.8932   22.4678 O   0  0  0  0  0  0
  -23.5325  -32.1446   23.7528 O   0  0  0  0  0  0
  -28.6675  -23.7517   19.7197 C   0  0  0  0  0  0
  -28.7928  -22.3580   19.5187 C   0  0  0  0  0  0
  -28.6035  -21.9777   21.9163 C   0  0  0  0  0  0
  -28.4932  -24.2614   21.0211 C   0  0  0  0  0  0
  -28.5105  -23.3729   22.1210 C   0  0  0  0  0  0
  -28.7283  -21.4548   20.6091 C   0  0  0  0  0  0
  -28.3722  -23.9337   23.5282 C   0  0  0  0  0  0
  -29.0337  -25.3229   23.7186 C   0  0  0  0  0  0
  -29.1417  -26.2071   22.4509 C   0  0  0  0  0  0
  -28.2334  -25.7393   21.3088 C   0  0  1  0  0  0
  -28.6634  -19.9437   20.3522 C   0  0  0  0  0  0
  -30.4650  -16.7504   21.6152 C   0  0  0  0  0  0
  -29.4112  -17.6544   20.9242 C   0  0  0  0  0  0
  -30.1307  -15.3253   21.4575 N   0  0  0  0  0  0
  -29.6440  -19.1146   21.0934 N   0  3  0  0  0  0
  -31.4663  -12.4009   19.1360 H   0  0  0  0  0  0
  -30.2998  -11.2968   19.8192 H   0  0  0  0  0  0
  -29.7267  -11.8137   17.4216 H   0  0  0  0  0  0
  -29.6541  -13.5168   17.7841 H   0  0  0  0  0  0
  -27.8104  -11.3259   18.7832 H   0  0  0  0  0  0
  -27.3595  -12.6859   17.7905 H   0  0  0  0  0  0
  -27.7112  -14.2576   19.6039 H   0  0  0  0  0  0
  -28.6676  -11.9301   21.3444 H   0  0  0  0  0  0
  -28.4384  -13.5556   21.8897 H   0  0  0  0  0  0
  -25.2717   -9.5759   22.4620 H   0  0  0  0  0  0
  -24.0065   -7.4650   22.7423 H   0  0  0  0  0  0
  -21.0769   -8.8593   19.8974 H   0  0  0  0  0  0
  -22.3480  -10.9571   19.6103 H   0  0  0  0  0  0
  -21.1981   -7.6135   23.9787 H   0  0  0  0  0  0
  -21.1493   -6.0490   25.9149 H   0  0  0  0  0  0
  -22.0547   -2.7593   23.2864 H   0  0  0  0  0  0
  -22.4041  -11.9825   22.4694 H   0  0  0  0  0  0
  -21.1073  -13.1234   22.2604 H   0  0  0  0  0  0
  -24.6347  -15.8165   20.5105 H   0  0  0  0  0  0
  -26.2614  -15.6361   20.0697 H   0  0  0  0  0  0
  -26.7119  -32.5566   23.1194 H   0  0  0  0  0  0
  -25.0100  -33.9788   25.0524 H   0  0  0  0  0  0
  -22.6880  -31.3102   21.4203 H   0  0  0  0  0  0
  -23.3746  -35.9618   23.3313 H   0  0  0  0  0  0
  -24.3565  -36.8876   22.2046 H   0  0  0  0  0  0
  -23.7202  -37.6503   23.6623 H   0  0  0  0  0  0
  -26.0292  -31.6175   20.5962 H   0  0  0  0  0  0
  -26.8172  -30.8972   21.9720 H   0  0  0  0  0  0
  -28.0970  -29.1214   21.1557 H   0  0  0  0  0  0
  -26.0579  -25.9614   19.0513 H   0  0  0  0  0  0
  -23.9741  -27.2997   19.0352 H   0  0  0  0  0  0
  -23.7031  -30.6054   19.4068 H   0  0  0  0  0  0
  -22.7278  -29.2446   19.8733 H   0  0  0  0  0  0
  -25.1281  -36.1993   25.0852 H   0  0  0  0  0  0
  -21.0000  -28.3196   24.1460 H   0  0  0  0  0  0
  -20.5696  -26.2242   23.3595 H   0  0  0  0  0  0
  -21.6635  -26.7460   22.1210 H   0  0  0  0  0  0
  -19.6887  -25.6299   21.1244 H   0  0  0  0  0  0
  -19.6668  -27.3211   20.6779 H   0  0  0  0  0  0
  -17.4204  -26.6734   21.4025 H   0  0  0  0  0  0
  -18.0307  -26.0011   22.8985 H   0  0  0  0  0  0
  -19.7907  -30.7277   24.2303 H   0  0  0  0  0  0
  -17.4991  -31.6275   24.5146 H   0  0  0  0  0  0
  -15.5344  -30.3012   23.7613 H   0  0  0  0  0  0
  -15.8672  -28.0817   22.7113 H   0  0  0  0  0  0
  -24.5928  -30.7019   25.7814 H   0  0  0  0  0  0
  -24.8886  -32.2860   26.4869 H   0  0  0  0  0  0
  -25.8089  -30.8926   27.0236 H   0  0  0  0  0  0
  -26.2818  -29.6854   24.1043 H   0  0  0  0  0  0
  -27.4011  -29.7238   25.4481 H   0  0  0  0  0  0
  -27.8662  -30.4379   23.9206 H   0  0  0  0  0  0
  -27.2663  -33.3600   26.2065 H   0  0  0  0  0  0
  -28.3856  -32.6835   25.0322 H   0  0  0  0  0  0
  -28.0670  -31.8399   26.5402 H   0  0  0  0  0  0
  -28.2627  -38.0089   24.7532 H   0  0  0  0  0  0
  -28.1063  -36.2618   24.6307 H   0  0  0  0  0  0
  -27.2290  -37.1466   25.8879 H   0  0  0  0  0  0
  -20.9243  -29.8680   21.6926 H   0  0  0  0  0  0
  -26.0181  -38.2886   24.1441 H   0  0  0  0  0  0
  -28.6763  -24.4249   18.8716 H   0  0  0  0  0  0
  -28.8807  -21.9832   18.5078 H   0  0  0  0  0  0
  -28.5385  -21.3147   22.7684 H   0  0  0  0  0  0
  -28.7733  -23.2315   24.2611 H   0  0  0  0  0  0
  -27.3049  -24.0070   23.7393 H   0  0  0  0  0  0
  -30.0444  -25.1797   24.1024 H   0  0  0  0  0  0
  -28.4999  -25.8594   24.5022 H   0  0  0  0  0  0
  -30.1706  -26.1819   22.0924 H   0  0  0  0  0  0
  -28.9315  -27.2464   22.7037 H   0  0  0  0  0  0
  -27.2131  -25.7458   21.6995 H   0  0  0  0  0  0
  -28.7873  -19.7579   19.2857 H   0  0  0  0  0  0
  -27.6546  -19.6157   20.6069 H   0  0  0  0  0  0
  -30.5105  -16.9646   22.6847 H   0  0  0  0  0  0
  -31.4584  -16.9636   21.2146 H   0  0  0  0  0  0
  -28.4185  -17.4183   21.3169 H   0  0  0  0  0  0
  -29.3783  -17.4194   19.8604 H   0  0  0  0  0  0
  -29.3172  -14.9905   21.9520 H   0  0  0  0  0  0
  -29.5926  -19.3455   22.0723 H   0  0  0  0  0  0
  -30.5649  -19.3547   20.7668 H   0  0  0  0  0  0
  1 25  1  0  0  0
  1 30  2  0  0  0
  1 84  1  0  0  0
  2  3  1  0  0  0
  2 25  1  0  0  0
  2 86  1  0  0  0
  2 87  1  0  0  0
  3  4  1  0  0  0
  3 88  1  0  0  0
  3 89  1  0  0  0
  4  5  1  0  0  0
  4 90  1  0  0  0
  4 91  1  0  0  0
  5  6  1  0  0  0
  5 26  1  0  0  0
  5 92  1  0  0  0
  6 25  1  0  0  0
  6 93  1  0  0  0
  6 94  1  0  0  0
  7  8  2  0  0  0
  7 26  1  0  0  0
  7 29  1  0  0  0
  8  9  1  0  0  0
  8 22  1  0  0  0
  9 10  1  0  0  0
  9 27  2  0  0  0
 10 11  2  0  0  0
 10 15  1  0  0  0
 11 12  1  0  0  0
 11 95  1  0  0  0
 12 13  2  0  0  0
 12 96  1  0  0  0
 13 14  1  0  0  0
 13 31  1  0  0  0
 14 15  2  0  0  0
 14 97  1  0  0  0
 15 98  1  0  0  0
 16 17  2  0  0  0
 16 21  1  0  0  0
 16 31  1  0  0  0
 17 18  1  0  0  0
 17 99  1  0  0  0
 18 19  2  0  0  0
 18100  1  0  0  0
 19 20  1  0  0  0
 19 24  1  0  0  0
 20 21  2  0  0  0
 20101  1  0  0  0
 21 23  1  0  0  0
 22 28  1  0  0  0
 22 32  2  0  0  0
 26 27  1  0  0  0
 28102  1  0  0  0
 28103  1  0  0  0
 29104  1  0  0  0
 29105  1  0  0  0
 33 34  1  0  0  0
 33 66  1  0  0  0
 33 70  2  0  0  0
 34 36  1  0  0  0
 34 59  1  0  0  0
 34106  1  0  0  0
 35 44  2  0  0  0
 35 45  1  0  0  0
 35 68  1  0  0  0
 36 56  1  0  0  0
 36107  1  0  0  0
 37 39  1  0  0  0
 37 47  1  0  0  0
 37 66  1  0  0  0
 37108  1  0  0  0
 38 43  2  0  0  0
 38 46  1  0  0  0
 38 47  1  0  0  0
 39 64  1  0  0  0
 39 67  2  0  0  0
 40 52  1  0  0  0
 40 53  2  0  0  0
 40 58  1  0  0  0
 41109  1  0  0  0
 41110  1  0  0  0
 41111  1  0  0  0
 41 48  1  0  0  0
 42 43  1  0  0  0
 42 66  1  0  0  0
 42112  1  0  0  0
 42113  1  0  0  0
 43 44  1  0  0  0
 44114  1  0  0  0
 45 46  2  0  0  0
 45115  1  0  0  0
 46116  1  0  0  0
 47117  1  0  0  0
 47118  1  0  0  0
 48 56  1  0  0  0
 48 65  1  0  0  0
 48119  1  0  0  0
 49 50  1  0  0  0
 49 53  1  0  0  0
 49 64  1  0  0  0
 49120  1  0  0  0
 50 51  1  0  0  0
 50121  1  0  0  0
 50122  1  0  0  0
 51 52  1  0  0  0
 51123  1  0  0  0
 51124  1  0  0  0
 52125  1  0  0  0
 52126  1  0  0  0
 53 54  1  0  0  0
 54 55  2  0  0  0
 54127  1  0  0  0
 55 57  1  0  0  0
 55128  1  0  0  0
 56 69  2  0  0  0
 57 58  2  0  0  0
 57129  1  0  0  0
 58130  1  0  0  0
 59 60  1  0  0  0
 59 61  1  0  0  0
 59 62  1  0  0  0
 60131  1  0  0  0
 60132  1  0  0  0
 60133  1  0  0  0
 61134  1  0  0  0
 61135  1  0  0  0
 61136  1  0  0  0
 62137  1  0  0  0
 62138  1  0  0  0
 62139  1  0  0  0
 63 65  1  0  0  0
 63140  1  0  0  0
 63141  1  0  0  0
 63142  1  0  0  0
 64143  1  0  0  0
 65144  1  0  0  0
 68 80  1  0  0  0
 71 72  2  0  0  0
 71 74  1  0  0  0
 71145  1  0  0  0
 72 76  1  0  0  0
 72146  1  0  0  0
 73 75  1  0  0  0
 73 76  2  0  0  0
 73147  1  0  0  0
 74 75  2  0  0  0
 74 80  1  0  0  0
 75 77  1  0  0  0
 76 81  1  0  0  0
 77 78  1  0  0  0
 77148  1  0  0  0
 77149  1  0  0  0
 78 79  1  0  0  0
 78150  1  0  0  0
 78151  1  0  0  0
 79 80  1  0  0  0
 79152  1  0  0  0
 79153  1  0  0  0
 80154  1  0  0  0
 81 85  1  0  0  0
 81155  1  0  0  0
 81156  1  0  0  0
 82 83  1  0  0  0
 82 84  1  0  0  0
 82157  1  0  0  0
 82158  1  0  0  0
 83 85  1  0  0  0
 83159  1  0  0  0
 83160  1  0  0  0
 84161  1  0  0  0
 85162  1  0  0  0
 85163  1  0  0  0
M  CHG  1  85   1
M  ISO  4   1 100  68 101  80 101  84 100
M  END
> <chiral flag>
0

> <version>
0

> <s_m_source_file>
/data/baiqing/PycharmProjects/Reinvent-master-3.2/result/LINK_invent/BTK/process_docking_weight1_custom_sum_contain_oxygen_bond_distance_aromatic_linkinvent_7_9_3/rearranged_h_0130.sdf

> <i_m_source_file_index>
57

> <r_mmod_Potential_Energy-OPLS-2005>
-268.243377685547

> <r_mmod_Stretch_Energy-OPLS-2005>
37.6837501525879

> <r_mmod_Bend_Energy-OPLS-2005>
94.2185287475586

> <r_mmod_Torsional_Energy-OPLS-2005>
247.342346191406

> <r_mmod_Improper_Torsional_Energy-OPLS-2005>
3.15134906768799

> <r_mmod_Van_der_Waal_Energy-OPLS-2005>
151.630325317383

> <r_mmod_Electrostatic_Energy-OPLS-2005>
-330.011901855469

> <r_mmod_Solvation_Energy-OPLS-2005>
-485.121246337891

> <b_mmod_Minimization_Converged-OPLS-2005>
0

> <r_mmod_RMS_Derivative-OPLS-2005>
4.3980655670166

$$$$
57
                    3D
 Structure written by MMmdl.
165174  0  0  1  0            999 V2000
  -30.7293  -14.6391   20.4864 C   0  0  0  0  0  0
  -30.4144  -12.4067   19.4413 C   0  0  0  0  0  0
  -29.4826  -12.4583   18.2155 C   0  0  0  0  0  0
  -28.0246  -12.2327   18.6558 C   0  0  0  0  0  0
  -27.6226  -13.1600   19.8238 C   0  0  2  0  0  0
  -28.6835  -13.1653   20.9579 C   0  0  0  0  0  0
  -25.2555  -13.7997   20.5705 C   0  0  0  0  0  0
  -24.1782  -13.0351   20.9243 C   0  0  0  0  0  0
  -24.6295  -11.6801   20.8833 C   0  0  0  0  0  0
  -23.8967  -10.4227   21.0482 C   0  0  0  0  0  0
  -24.3552   -9.4141   21.9226 C   0  0  0  0  0  0
  -23.6247   -8.2172   22.0765 C   0  0  0  0  0  0
  -22.4233   -8.0228   21.3547 C   0  0  0  0  0  0
  -21.9854   -9.0204   20.4656 C   0  0  0  0  0  0
  -22.7170  -10.2089   20.3090 C   0  0  0  0  0  0
  -21.6821   -6.0701   22.5276 C   0  0  0  0  0  0
  -21.3993   -6.5616   23.8208 C   0  0  0  0  0  0
  -21.3656   -5.6782   24.9178 C   0  0  0  0  0  0
  -21.6048   -4.3041   24.7234 C   0  0  0  0  0  0
  -21.8822   -3.8123   23.4358 C   0  0  0  0  0  0
  -21.9188   -4.6938   22.3410 C   0  0  0  0  0  0
  -22.7829  -13.5215   21.1901 C   0  0  0  0  0  0
  -22.1656   -4.2120   21.0988 F   0  0  0  0  0  0
  -21.5642   -3.4529   25.7753 F   0  0  0  0  0  0
  -29.9948  -13.4809   20.3691 N   0  0  0  0  0  0
  -26.2843  -12.9024   20.3235 N   0  0  0  0  0  0
  -25.9177  -11.6268   20.5809 N   0  0  0  0  0  0
  -22.0440  -12.8224   22.0449 N   0  0  0  0  0  0
  -25.4358  -15.1711   20.4063 N   0  0  0  0  0  0
  -31.9157  -14.6440   20.1526 O   0  0  0  0  0  0
  -21.6597   -6.8830   21.4234 O   0  0  0  0  0  0
  -22.3552  -14.5530   20.6735 O   0  0  0  0  0  0
  -24.6187  -31.8637   23.2032 C   0  0  0  0  0  0
  -25.9053  -32.4819   23.8334 C   0  0  1  0  0  0
  -27.2339  -27.3803   20.1088 C   0  0  0  0  0  0
  -25.5882  -33.8598   24.2278 N   0  0  0  0  0  0
  -23.4089  -30.4903   21.5450 C   0  0  2  0  0  0
  -24.8576  -28.9531   20.1065 C   0  0  0  0  0  0
  -22.7441  -29.4639   22.4933 C   0  0  0  0  0  0
  -18.0303  -28.1372   22.8493 C   0  0  0  0  0  0
  -24.1498  -36.7293   23.2636 C   0  0  0  0  0  0
  -25.9434  -30.8155   21.3619 C   0  0  0  0  0  0
  -26.0200  -29.4459   20.7118 C   0  0  0  0  0  0
  -27.2081  -28.6668   20.7123 C   0  0  0  0  0  0
  -26.0507  -26.9336   19.4697 C   0  0  0  0  0  0
  -24.8711  -27.7004   19.4775 C   0  0  0  0  0  0
  -23.6186  -29.8217   20.1602 C   0  0  0  0  0  0
  -25.4114  -36.3089   24.0340 C   0  0  1  0  0  0
  -20.5889  -28.3637   23.1311 C   0  0  2  0  0  0
  -20.6800  -26.9374   22.5418 C   0  0  0  0  0  0
  -19.5785  -26.6361   21.5219 C   0  0  0  0  0  0
  -18.1955  -26.7927   22.1607 C   0  0  0  0  0  0
  -19.1552  -28.8822   23.2904 C   0  0  0  0  0  0
  -18.9480  -30.1436   23.8887 C   0  0  0  0  0  0
  -17.6468  -30.6568   24.0575 C   0  0  0  0  0  0
  -25.9023  -34.9469   23.5108 C   0  0  0  0  0  0
  -16.5364  -29.9085   23.6335 C   0  0  0  0  0  0
  -16.7284  -28.6507   23.0338 C   0  0  0  0  0  0
  -26.4445  -31.6592   25.0670 C   0  0  0  0  0  0
  -25.3694  -31.3746   26.1406 C   0  0  0  0  0  0
  -27.0252  -30.3023   24.6035 C   0  0  0  0  0  0
  -27.6033  -32.4265   25.7446 C   0  0  0  0  0  0
  -27.5590  -37.1793   24.8460 C   0  0  0  0  0  0
  -21.4170  -29.2993   22.3687 N   0  0  0  0  0  0
  -26.4298  -37.3774   23.9426 N   0  0  0  0  0  0
  -24.6769  -31.0722   22.0949 N   0  0  0  0  0  0
  -23.4232  -28.8183   23.2960 O   0  0  0  0  0  0
  -28.3782  -26.5795   20.1719 O   0  0  0  0  0  0
  -26.5603  -34.8941   22.4672 O   0  0  0  0  0  0
  -23.5363  -32.1364   23.7416 O   0  0  0  0  0  0
  -29.7483  -21.5156   22.2468 C   0  0  0  0  0  0
  -30.9400  -18.2851   20.8556 C   0  0  0  0  0  0
  -28.6937  -17.7847   20.0245 C   0  0  0  0  0  0
  -28.2869  -21.9017   22.4882 C   0  0  0  0  0  0
  -30.9735  -16.8919   21.5619 C   0  0  0  0  0  0
  -28.8116  -16.3259   20.5548 C   0  0  0  0  0  0
  -29.5077  -18.8494   20.7802 C   0  0  0  0  0  0
  -29.8695  -21.4771   20.7255 C   0  0  2  0  0  0
  -28.8893  -22.6293   20.3166 C   0  0  2  0  0  0
  -29.2757  -24.1484   20.5333 C   0  0  0  0  0  0
  -28.1985  -25.1449   19.9693 C   0  0  0  0  0  0
  -27.7567  -22.2754   21.1748 N   0  0  0  0  0  0
  -30.1606  -15.8293   20.9095 N   0  0  0  0  0  0
  -29.3676  -20.1964   20.1142 N   0  3  0  0  0  0
  -31.4514  -12.5017   19.1153 H   0  0  0  0  0  0
  -30.3488  -11.4350   19.9338 H   0  0  0  0  0  0
  -29.7708  -11.6965   17.4908 H   0  0  0  0  0  0
  -29.5779  -13.4209   17.7089 H   0  0  0  0  0  0
  -27.9282  -11.1901   18.9628 H   0  0  0  0  0  0
  -27.3450  -12.3617   17.8106 H   0  0  0  0  0  0
  -27.5461  -14.1103   19.3255 H   0  0  0  0  0  0
  -28.7225  -12.1897   21.4441 H   0  0  0  0  0  0
  -28.4159  -13.8762   21.7391 H   0  0  0  0  0  0
  -25.2701   -9.5602   22.4796 H   0  0  0  0  0  0
  -23.9959   -7.4539   22.7449 H   0  0  0  0  0  0
  -21.0792   -8.8710   19.8948 H   0  0  0  0  0  0
  -22.3640  -10.9633   19.6193 H   0  0  0  0  0  0
  -21.1964   -7.6124   23.9703 H   0  0  0  0  0  0
  -21.1485   -6.0512   25.9082 H   0  0  0  0  0  0
  -22.0612   -2.7582   23.2866 H   0  0  0  0  0  0
  -22.4025  -11.9866   22.4819 H   0  0  0  0  0  0
  -21.1062  -13.1269   22.2657 H   0  0  0  0  0  0
  -24.6758  -15.8325   20.5196 H   0  0  0  0  0  0
  -26.2918  -15.5998   20.0834 H   0  0  0  0  0  0
  -26.7133  -32.5498   23.1097 H   0  0  0  0  0  0
  -25.0085  -33.9760   25.0466 H   0  0  0  0  0  0
  -22.6987  -31.3073   21.4025 H   0  0  0  0  0  0
  -23.3761  -35.9614   23.3258 H   0  0  0  0  0  0
  -24.3626  -36.8928   22.2059 H   0  0  0  0  0  0
  -23.7247  -37.6494   23.6653 H   0  0  0  0  0  0
  -26.0594  -31.5770   20.5885 H   0  0  0  0  0  0
  -26.8340  -30.8725   21.9753 H   0  0  0  0  0  0
  -28.0964  -29.0393   21.2011 H   0  0  0  0  0  0
  -26.0081  -25.9819   18.9617 H   0  0  0  0  0  0
  -23.9836  -27.3179   18.9904 H   0  0  0  0  0  0
  -23.7202  -30.5939   19.3977 H   0  0  0  0  0  0
  -22.7455  -29.2346   19.8698 H   0  0  0  0  0  0
  -25.1302  -36.1924   25.0833 H   0  0  0  0  0  0
  -21.0012  -28.3200   24.1418 H   0  0  0  0  0  0
  -20.5716  -26.2247   23.3610 H   0  0  0  0  0  0
  -21.6681  -26.7430   22.1205 H   0  0  0  0  0  0
  -19.6980  -25.6283   21.1240 H   0  0  0  0  0  0
  -19.6762  -27.3199   20.6788 H   0  0  0  0  0  0
  -17.4259  -26.6680   21.3981 H   0  0  0  0  0  0
  -18.0316  -26.0072   22.8991 H   0  0  0  0  0  0
  -19.7950  -30.7269   24.2231 H   0  0  0  0  0  0
  -17.5032  -31.6266   24.5152 H   0  0  0  0  0  0
  -15.5363  -30.2988   23.7656 H   0  0  0  0  0  0
  -15.8689  -28.0854   22.7007 H   0  0  0  0  0  0
  -24.5941  -30.6997   25.7759 H   0  0  0  0  0  0
  -24.8806  -32.2921   26.4667 H   0  0  0  0  0  0
  -25.8025  -30.9082   27.0256 H   0  0  0  0  0  0
  -26.2794  -29.6814   24.1055 H   0  0  0  0  0  0
  -27.4011  -29.7201   25.4452 H   0  0  0  0  0  0
  -27.8619  -30.4343   23.9178 H   0  0  0  0  0  0
  -27.2706  -33.3609   26.1956 H   0  0  0  0  0  0
  -28.3886  -32.6716   25.0291 H   0  0  0  0  0  0
  -28.0615  -31.8401   26.5417 H   0  0  0  0  0  0
  -28.2564  -38.0128   24.7532 H   0  0  0  0  0  0
  -28.1125  -36.2663   24.6220 H   0  0  0  0  0  0
  -27.2331  -37.1344   25.8866 H   0  0  0  0  0  0
  -20.9304  -29.8696   21.6909 H   0  0  0  0  0  0
  -26.0169  -38.2831   24.1446 H   0  0  0  0  0  0
  -30.0602  -20.6057   22.7577 H   0  0  0  0  0  0
  -30.3966  -22.3011   22.6357 H   0  0  0  0  0  0
  -31.3642  -18.1984   19.8536 H   0  0  0  0  0  0
  -31.5795  -18.9835   21.3959 H   0  0  0  0  0  0
  -27.6384  -18.0646   20.0258 H   0  0  0  0  0  0
  -28.9933  -17.7960   18.9751 H   0  0  0  0  0  0
  -28.2178  -22.7335   23.1918 H   0  0  0  0  0  0
  -27.7124  -21.0676   22.8953 H   0  0  0  0  0  0
  -30.5952  -17.0037   22.5789 H   0  0  0  0  0  0
  -32.0145  -16.5886   21.6836 H   0  0  0  0  0  0
  -28.4611  -15.7626   19.7110 H   0  0  0  0  0  0
  -28.1335  -16.1633   21.3916 H   0  0  0  0  0  0
  -29.0891  -18.9105   21.7850 H   0  0  0  0  0  0
  -30.8953  -21.6580   20.4011 H   0  0  0  0  0  0
  -28.6124  -22.5196   19.2669 H   0  0  0  0  0  0
  -30.2296  -24.3474   20.0411 H   0  0  0  0  0  0
  -29.4406  -24.3565   21.5900 H   0  0  0  0  0  0
  -27.2575  -24.8487   20.4356 H   0  0  0  0  0  0
  -28.0965  -24.9653   18.8979 H   0  0  0  0  0  0
  -27.0825  -23.0337   21.2570 H   0  0  0  0  0  0
  -28.3738  -20.3872   20.0868 H   0  0  0  0  0  0
  -29.6798  -20.1466   19.1578 H   0  0  0  0  0  0
  1 25  1  0  0  0
  1 30  2  0  0  0
  1 83  1  0  0  0
  2  3  1  0  0  0
  2 25  1  0  0  0
  2 85  1  0  0  0
  2 86  1  0  0  0
  3  4  1  0  0  0
  3 87  1  0  0  0
  3 88  1  0  0  0
  4  5  1  0  0  0
  4 89  1  0  0  0
  4 90  1  0  0  0
  5  6  1  0  0  0
  5 26  1  0  0  0
  5 91  1  0  0  0
  6 25  1  0  0  0
  6 92  1  0  0  0
  6 93  1  0  0  0
  7  8  2  0  0  0
  7 26  1  0  0  0
  7 29  1  0  0  0
  8  9  1  0  0  0
  8 22  1  0  0  0
  9 10  1  0  0  0
  9 27  2  0  0  0
 10 11  2  0  0  0
 10 15  1  0  0  0
 11 12  1  0  0  0
 11 94  1  0  0  0
 12 13  2  0  0  0
 12 95  1  0  0  0
 13 14  1  0  0  0
 13 31  1  0  0  0
 14 15  2  0  0  0
 14 96  1  0  0  0
 15 97  1  0  0  0
 16 17  2  0  0  0
 16 21  1  0  0  0
 16 31  1  0  0  0
 17 18  1  0  0  0
 17 98  1  0  0  0
 18 19  2  0  0  0
 18 99  1  0  0  0
 19 20  1  0  0  0
 19 24  1  0  0  0
 20 21  2  0  0  0
 20100  1  0  0  0
 21 23  1  0  0  0
 22 28  1  0  0  0
 22 32  2  0  0  0
 26 27  1  0  0  0
 28101  1  0  0  0
 28102  1  0  0  0
 29103  1  0  0  0
 29104  1  0  0  0
 33 34  1  0  0  0
 33 66  1  0  0  0
 33 70  2  0  0  0
 34 36  1  0  0  0
 34 59  1  0  0  0
 34105  1  0  0  0
 35 44  2  0  0  0
 35 45  1  0  0  0
 35 68  1  0  0  0
 36 56  1  0  0  0
 36106  1  0  0  0
 37 39  1  0  0  0
 37 47  1  0  0  0
 37 66  1  0  0  0
 37107  1  0  0  0
 38 43  2  0  0  0
 38 46  1  0  0  0
 38 47  1  0  0  0
 39 64  1  0  0  0
 39 67  2  0  0  0
 40 52  1  0  0  0
 40 53  2  0  0  0
 40 58  1  0  0  0
 41108  1  0  0  0
 41109  1  0  0  0
 41110  1  0  0  0
 41 48  1  0  0  0
 42 43  1  0  0  0
 42 66  1  0  0  0
 42111  1  0  0  0
 42112  1  0  0  0
 43 44  1  0  0  0
 44113  1  0  0  0
 45 46  2  0  0  0
 45114  1  0  0  0
 46115  1  0  0  0
 47116  1  0  0  0
 47117  1  0  0  0
 48 56  1  0  0  0
 48 65  1  0  0  0
 48118  1  0  0  0
 49 50  1  0  0  0
 49 53  1  0  0  0
 49 64  1  0  0  0
 49119  1  0  0  0
 50 51  1  0  0  0
 50120  1  0  0  0
 50121  1  0  0  0
 51 52  1  0  0  0
 51122  1  0  0  0
 51123  1  0  0  0
 52124  1  0  0  0
 52125  1  0  0  0
 53 54  1  0  0  0
 54 55  2  0  0  0
 54126  1  0  0  0
 55 57  1  0  0  0
 55127  1  0  0  0
 56 69  2  0  0  0
 57 58  2  0  0  0
 57128  1  0  0  0
 58129  1  0  0  0
 59 60  1  0  0  0
 59 61  1  0  0  0
 59 62  1  0  0  0
 60130  1  0  0  0
 60131  1  0  0  0
 60132  1  0  0  0
 61133  1  0  0  0
 61134  1  0  0  0
 61135  1  0  0  0
 62136  1  0  0  0
 62137  1  0  0  0
 62138  1  0  0  0
 63 65  1  0  0  0
 63139  1  0  0  0
 63140  1  0  0  0
 63141  1  0  0  0
 64142  1  0  0  0
 65143  1  0  0  0
 68 81  1  0  0  0
 71 74  1  0  0  0
 71 78  1  0  0  0
 71144  1  0  0  0
 71145  1  0  0  0
 72 75  1  0  0  0
 72 77  1  0  0  0
 72146  1  0  0  0
 72147  1  0  0  0
 73 76  1  0  0  0
 73 77  1  0  0  0
 73148  1  0  0  0
 73149  1  0  0  0
 74 82  1  0  0  0
 74150  1  0  0  0
 74151  1  0  0  0
 75 83  1  0  0  0
 75152  1  0  0  0
 75153  1  0  0  0
 76 83  1  0  0  0
 76154  1  0  0  0
 76155  1  0  0  0
 77 84  1  0  0  0
 77156  1  0  0  0
 78 79  1  0  0  0
 78 84  1  0  0  0
 78157  1  0  0  0
 79 80  1  0  0  0
 79 82  1  0  0  0
 79158  1  0  0  0
 80 81  1  0  0  0
 80159  1  0  0  0
 80160  1  0  0  0
 81161  1  0  0  0
 81162  1  0  0  0
 82163  1  0  0  0
 84164  1  0  0  0
 84165  1  0  0  0
M  CHG  1  84   1
M  ISO  4   1 100  68 101  81 101  83 100
M  END
> <chiral flag>
0

> <version>
0

> <s_m_source_file>
/data/baiqing/PycharmProjects/Reinvent-master-3.2/result/LINK_invent/BTK/process_docking_weight1_custom_sum_contain_oxygen_bond_distance_aromatic_linkinvent_7_9_3/rearranged_h_0130.sdf

> <i_m_source_file_index>
58

> <r_mmod_Potential_Energy-OPLS-2005>
179.82893371582

> <r_mmod_Stretch_Energy-OPLS-2005>
61.7575912475586

> <r_mmod_Bend_Energy-OPLS-2005>
185.209381103516

> <r_mmod_Torsional_Energy-OPLS-2005>
378.062744140625

> <r_mmod_Improper_Torsional_Energy-OPLS-2005>
2.04811263084412

> <r_mmod_Van_der_Waal_Energy-OPLS-2005>
149.950454711914

> <r_mmod_Electrostatic_Energy-OPLS-2005>
-205.471099853516

> <r_mmod_Solvation_Energy-OPLS-2005>
-441.748565673828

> <b_mmod_Minimization_Converged-OPLS-2005>
0

> <r_mmod_RMS_Derivative-OPLS-2005>
3.22619795799255

$$$$
58
                    3D
 Structure written by MMmdl.
165173  0  0  1  0            999 V2000
  -30.7683  -14.3353   20.6627 C   0  0  0  0  0  0
  -30.4144  -12.2550   19.3968 C   0  0  0  0  0  0
  -29.4846  -12.5096   18.1937 C   0  0  0  0  0  0
  -28.0106  -12.3747   18.6184 C   0  0  0  0  0  0
  -27.6769  -13.1925   19.8940 C   0  0  2  0  0  0
  -28.7115  -12.9161   21.0067 C   0  0  0  0  0  0
  -25.2681  -13.8102   20.5671 C   0  0  0  0  0  0
  -24.1876  -13.0436   20.9118 C   0  0  0  0  0  0
  -24.6372  -11.6891   20.8697 C   0  0  0  0  0  0
  -23.8997  -10.4288   21.0377 C   0  0  0  0  0  0
  -24.3562   -9.4215   21.9168 C   0  0  0  0  0  0
  -23.6253   -8.2243   22.0751 C   0  0  0  0  0  0
  -22.4255   -8.0254   21.3524 C   0  0  0  0  0  0
  -21.9856   -9.0229   20.4636 C   0  0  0  0  0  0
  -22.7160  -10.2117   20.3042 C   0  0  0  0  0  0
  -21.6834   -6.0699   22.5267 C   0  0  0  0  0  0
  -21.4023   -6.5625   23.8202 C   0  0  0  0  0  0
  -21.3672   -5.6788   24.9166 C   0  0  0  0  0  0
  -21.6029   -4.3041   24.7221 C   0  0  0  0  0  0
  -21.8829   -3.8127   23.4353 C   0  0  0  0  0  0
  -21.9207   -4.6929   22.3402 C   0  0  0  0  0  0
  -22.7914  -13.5268   21.1819 C   0  0  0  0  0  0
  -22.1665   -4.2113   21.0969 F   0  0  0  0  0  0
  -21.5629   -3.4545   25.7740 F   0  0  0  0  0  0
  -30.0568  -13.1970   20.4665 N   0  0  0  0  0  0
  -26.3114  -12.9249   20.3457 N   0  0  0  0  0  0
  -25.9308  -11.6421   20.5752 N   0  0  0  0  0  0
  -22.0538  -12.8276   22.0355 N   0  0  0  0  0  0
  -25.4524  -15.1795   20.4108 N   0  0  0  0  0  0
  -31.7891  -14.6226   20.0306 O   0  0  0  0  0  0
  -21.6637   -6.8837   21.4226 O   0  0  0  0  0  0
  -22.3621  -14.5587   20.6646 O   0  0  0  0  0  0
  -24.6073  -31.8698   23.2100 C   0  0  0  0  0  0
  -25.8986  -32.4832   23.8375 C   0  0  1  0  0  0
  -27.2521  -27.4832   20.1007 C   0  0  0  0  0  0
  -25.5864  -33.8632   24.2328 N   0  0  0  0  0  0
  -23.3931  -30.4890   21.5509 C   0  0  2  0  0  0
  -24.8412  -28.9457   20.1220 C   0  0  0  0  0  0
  -22.7358  -29.4667   22.5037 C   0  0  0  0  0  0
  -18.0257  -28.1370   22.8502 C   0  0  0  0  0  0
  -24.1480  -36.7328   23.2639 C   0  0  0  0  0  0
  -25.9099  -30.8528   21.3473 C   0  0  0  0  0  0
  -25.9921  -29.4858   20.7060 C   0  0  0  0  0  0
  -27.1962  -28.7626   20.6856 C   0  0  0  0  0  0
  -26.0874  -26.9295   19.5244 C   0  0  0  0  0  0
  -24.8804  -27.6647   19.5331 C   0  0  0  0  0  0
  -23.6000  -29.8086   20.1683 C   0  0  0  0  0  0
  -25.4104  -36.3124   24.0340 C   0  0  1  0  0  0
  -20.5832  -28.3650   23.1345 C   0  0  2  0  0  0
  -20.6739  -26.9399   22.5421 C   0  0  0  0  0  0
  -19.5734  -26.6399   21.5204 C   0  0  0  0  0  0
  -18.1913  -26.7922   22.1618 C   0  0  0  0  0  0
  -19.1497  -28.8835   23.2916 C   0  0  0  0  0  0
  -18.9430  -30.1445   23.8933 C   0  0  0  0  0  0
  -17.6438  -30.6584   24.0571 C   0  0  0  0  0  0
  -25.9030  -34.9492   23.5143 C   0  0  0  0  0  0
  -16.5338  -29.9105   23.6320 C   0  0  0  0  0  0
  -16.7236  -28.6516   23.0342 C   0  0  0  0  0  0
  -26.4462  -31.6588   25.0672 C   0  0  0  0  0  0
  -25.3755  -31.3670   26.1443 C   0  0  0  0  0  0
  -27.0277  -30.3044   24.5972 C   0  0  0  0  0  0
  -27.6033  -32.4310   25.7425 C   0  0  0  0  0  0
  -27.5584  -37.1809   24.8469 C   0  0  0  0  0  0
  -21.4098  -29.3032   22.3773 N   0  0  0  0  0  0
  -26.4293  -37.3801   23.9418 N   0  0  0  0  0  0
  -24.6554  -31.0830   22.0974 N   0  0  0  0  0  0
  -23.4153  -28.8248   23.3083 O   0  0  0  0  0  0
  -28.4893  -26.8953   20.0766 O   0  0  0  0  0  0
  -26.5606  -34.8934   22.4708 O   0  0  0  0  0  0
  -23.5289  -32.1436   23.7546 O   0  0  0  0  0  0
  -29.8478  -20.0708   17.2687 C   0  0  0  0  0  0
  -29.6167  -19.3033   18.4257 C   0  0  0  0  0  0
  -30.8099  -21.0971   17.2855 C   0  0  0  0  0  0
  -31.2538  -20.6407   19.6374 C   0  0  0  0  0  0
  -30.3279  -19.5792   19.6139 C   0  0  0  0  0  0
  -31.5223  -21.3954   18.4654 C   0  0  0  0  0  0
  -30.0446  -17.3772   20.5590 C   0  0  0  0  0  0
  -30.6316  -16.5640   21.7228 C   0  0  0  0  0  0
  -30.1955  -25.4089   20.2883 C   0  0  0  0  0  0
  -32.3238  -24.2057   20.0377 C   0  0  0  0  0  0
  -28.6714  -25.4904   20.0410 C   0  0  0  0  0  0
  -33.0540  -22.9414   19.5610 C   0  0  0  0  0  0
  -30.1559  -18.8096   20.7717 N   0  0  0  0  0  0
  -30.2570  -15.1664   21.5735 N   0  0  0  0  0  0
  -30.8395  -24.1129   19.9730 N   0  3  0  0  0  0
  -32.4397  -22.4236   18.3763 O   0  0  0  0  0  0
  -31.4597  -12.3394   19.0980 H   0  0  0  0  0  0
  -30.2906  -11.2297   19.7503 H   0  0  0  0  0  0
  -29.7063  -11.7989   17.3975 H   0  0  0  0  0  0
  -29.6665  -13.5026   17.7781 H   0  0  0  0  0  0
  -27.8208  -11.3168   18.8012 H   0  0  0  0  0  0
  -27.3506  -12.6643   17.8007 H   0  0  0  0  0  0
  -27.7464  -14.2490   19.6331 H   0  0  0  0  0  0
  -28.6595  -11.8713   21.3169 H   0  0  0  0  0  0
  -28.4676  -13.4877   21.9018 H   0  0  0  0  0  0
  -25.2703   -9.5716   22.4747 H   0  0  0  0  0  0
  -23.9955   -7.4655   22.7505 H   0  0  0  0  0  0
  -21.0774   -8.8737   19.8958 H   0  0  0  0  0  0
  -22.3588  -10.9660   19.6169 H   0  0  0  0  0  0
  -21.2012   -7.6144   23.9678 H   0  0  0  0  0  0
  -21.1483   -6.0528   25.9057 H   0  0  0  0  0  0
  -22.0593   -2.7593   23.2869 H   0  0  0  0  0  0
  -22.4125  -11.9919   22.4730 H   0  0  0  0  0  0
  -21.1178  -13.1339   22.2587 H   0  0  0  0  0  0
  -24.7040  -15.8511   20.5314 H   0  0  0  0  0  0
  -26.3229  -15.6031   20.1176 H   0  0  0  0  0  0
  -26.7061  -32.5582   23.1146 H   0  0  0  0  0  0
  -24.9970  -33.9787   25.0446 H   0  0  0  0  0  0
  -22.6796  -31.3040   21.4097 H   0  0  0  0  0  0
  -23.3735  -35.9663   23.3318 H   0  0  0  0  0  0
  -24.3583  -36.8928   22.2051 H   0  0  0  0  0  0
  -23.7238  -37.6538   23.6651 H   0  0  0  0  0  0
  -25.9961  -31.6124   20.5710 H   0  0  0  0  0  0
  -26.8074  -30.9245   21.9478 H   0  0  0  0  0  0
  -28.0959  -29.1920   21.1052 H   0  0  0  0  0  0
  -26.1112  -25.9609   19.0457 H   0  0  0  0  0  0
  -23.9930  -27.2424   19.0806 H   0  0  0  0  0  0
  -23.7083  -30.5798   19.4063 H   0  0  0  0  0  0
  -22.7238  -29.2273   19.8771 H   0  0  0  0  0  0
  -25.1278  -36.1989   25.0830 H   0  0  0  0  0  0
  -20.9906  -28.3216   24.1470 H   0  0  0  0  0  0
  -20.5641  -26.2274   23.3601 H   0  0  0  0  0  0
  -21.6620  -26.7464   22.1227 H   0  0  0  0  0  0
  -19.6907  -25.6324   21.1222 H   0  0  0  0  0  0
  -19.6664  -27.3222   20.6748 H   0  0  0  0  0  0
  -17.4173  -26.6652   21.4023 H   0  0  0  0  0  0
  -18.0324  -26.0049   22.9007 H   0  0  0  0  0  0
  -19.7912  -30.7229   24.2316 H   0  0  0  0  0  0
  -17.5006  -31.6267   24.5177 H   0  0  0  0  0  0
  -15.5342  -30.3020   23.7623 H   0  0  0  0  0  0
  -15.8629  -28.0849   22.7036 H   0  0  0  0  0  0
  -24.5879  -30.7080   25.7786 H   0  0  0  0  0  0
  -24.8998  -32.2815   26.4984 H   0  0  0  0  0  0
  -25.8115  -30.8758   27.0144 H   0  0  0  0  0  0
  -26.2768  -29.6790   24.1126 H   0  0  0  0  0  0
  -27.4199  -29.7296   25.4375 H   0  0  0  0  0  0
  -27.8538  -30.4405   23.8984 H   0  0  0  0  0  0
  -27.2630  -33.3566   26.2080 H   0  0  0  0  0  0
  -28.3782  -32.6948   25.0219 H   0  0  0  0  0  0
  -28.0767  -31.8393   26.5269 H   0  0  0  0  0  0
  -28.2609  -38.0094   24.7523 H   0  0  0  0  0  0
  -28.1068  -36.2641   24.6288 H   0  0  0  0  0  0
  -27.2313  -37.1449   25.8868 H   0  0  0  0  0  0
  -20.9257  -29.8739   21.6979 H   0  0  0  0  0  0
  -26.0196  -38.2881   24.1406 H   0  0  0  0  0  0
  -29.2884  -19.8609   16.3679 H   0  0  0  0  0  0
  -28.8862  -18.5075   18.3843 H   0  0  0  0  0  0
  -30.9986  -21.6662   16.3868 H   0  0  0  0  0  0
  -31.7563  -20.8278   20.5725 H   0  0  0  0  0  0
  -28.9905  -17.1305   20.4179 H   0  0  0  0  0  0
  -30.5633  -17.0969   19.6410 H   0  0  0  0  0  0
  -30.2398  -16.9165   22.6785 H   0  0  0  0  0  0
  -31.7194  -16.6643   21.7629 H   0  0  0  0  0  0
  -30.4107  -25.6882   21.3219 H   0  0  0  0  0  0
  -30.6842  -26.1672   19.6737 H   0  0  0  0  0  0
  -32.6558  -25.0368   19.4128 H   0  0  0  0  0  0
  -32.6452  -24.4418   21.0522 H   0  0  0  0  0  0
  -28.1076  -24.9924   20.8327 H   0  0  0  0  0  0
  -28.3870  -25.0760   19.0729 H   0  0  0  0  0  0
  -33.1862  -22.2267   20.3678 H   0  0  0  0  0  0
  -34.0739  -23.2165   19.2899 H   0  0  0  0  0  0
  -30.6719  -19.0981   21.5988 H   0  0  0  0  0  0
  -29.4495  -14.8454   22.0878 H   0  0  0  0  0  0
  -30.5975  -23.8443   19.0284 H   0  0  0  0  0  0
  -30.4994  -23.3971   20.5989 H   0  0  0  0  0  0
  1 25  1  0  0  0
  1 30  2  0  0  0
  1 84  1  0  0  0
  2  3  1  0  0  0
  2 25  1  0  0  0
  2 87  1  0  0  0
  2 88  1  0  0  0
  3  4  1  0  0  0
  3 89  1  0  0  0
  3 90  1  0  0  0
  4  5  1  0  0  0
  4 91  1  0  0  0
  4 92  1  0  0  0
  5  6  1  0  0  0
  5 26  1  0  0  0
  5 93  1  0  0  0
  6 25  1  0  0  0
  6 94  1  0  0  0
  6 95  1  0  0  0
  7  8  2  0  0  0
  7 26  1  0  0  0
  7 29  1  0  0  0
  8  9  1  0  0  0
  8 22  1  0  0  0
  9 10  1  0  0  0
  9 27  2  0  0  0
 10 11  2  0  0  0
 10 15  1  0  0  0
 11 12  1  0  0  0
 11 96  1  0  0  0
 12 13  2  0  0  0
 12 97  1  0  0  0
 13 14  1  0  0  0
 13 31  1  0  0  0
 14 15  2  0  0  0
 14 98  1  0  0  0
 15 99  1  0  0  0
 16 17  2  0  0  0
 16 21  1  0  0  0
 16 31  1  0  0  0
 17 18  1  0  0  0
 17100  1  0  0  0
 18 19  2  0  0  0
 18101  1  0  0  0
 19 20  1  0  0  0
 19 24  1  0  0  0
 20 21  2  0  0  0
 20102  1  0  0  0
 21 23  1  0  0  0
 22 28  1  0  0  0
 22 32  2  0  0  0
 26 27  1  0  0  0
 28103  1  0  0  0
 28104  1  0  0  0
 29105  1  0  0  0
 29106  1  0  0  0
 33 34  1  0  0  0
 33 66  1  0  0  0
 33 70  2  0  0  0
 34 36  1  0  0  0
 34 59  1  0  0  0
 34107  1  0  0  0
 35 44  2  0  0  0
 35 45  1  0  0  0
 35 68  1  0  0  0
 36 56  1  0  0  0
 36108  1  0  0  0
 37 39  1  0  0  0
 37 47  1  0  0  0
 37 66  1  0  0  0
 37109  1  0  0  0
 38 43  2  0  0  0
 38 46  1  0  0  0
 38 47  1  0  0  0
 39 64  1  0  0  0
 39 67  2  0  0  0
 40 52  1  0  0  0
 40 53  2  0  0  0
 40 58  1  0  0  0
 41110  1  0  0  0
 41111  1  0  0  0
 41112  1  0  0  0
 41 48  1  0  0  0
 42 43  1  0  0  0
 42 66  1  0  0  0
 42113  1  0  0  0
 42114  1  0  0  0
 43 44  1  0  0  0
 44115  1  0  0  0
 45 46  2  0  0  0
 45116  1  0  0  0
 46117  1  0  0  0
 47118  1  0  0  0
 47119  1  0  0  0
 48 56  1  0  0  0
 48 65  1  0  0  0
 48120  1  0  0  0
 49 50  1  0  0  0
 49 53  1  0  0  0
 49 64  1  0  0  0
 49121  1  0  0  0
 50 51  1  0  0  0
 50122  1  0  0  0
 50123  1  0  0  0
 51 52  1  0  0  0
 51124  1  0  0  0
 51125  1  0  0  0
 52126  1  0  0  0
 52127  1  0  0  0
 53 54  1  0  0  0
 54 55  2  0  0  0
 54128  1  0  0  0
 55 57  1  0  0  0
 55129  1  0  0  0
 56 69  2  0  0  0
 57 58  2  0  0  0
 57130  1  0  0  0
 58131  1  0  0  0
 59 60  1  0  0  0
 59 61  1  0  0  0
 59 62  1  0  0  0
 60132  1  0  0  0
 60133  1  0  0  0
 60134  1  0  0  0
 61135  1  0  0  0
 61136  1  0  0  0
 61137  1  0  0  0
 62138  1  0  0  0
 62139  1  0  0  0
 62140  1  0  0  0
 63 65  1  0  0  0
 63141  1  0  0  0
 63142  1  0  0  0
 63143  1  0  0  0
 64144  1  0  0  0
 65145  1  0  0  0
 68 81  1  0  0  0
 71 72  2  0  0  0
 71 73  1  0  0  0
 71146  1  0  0  0
 72 75  1  0  0  0
 72147  1  0  0  0
 73 76  2  0  0  0
 73148  1  0  0  0
 74 75  2  0  0  0
 74 76  1  0  0  0
 74149  1  0  0  0
 75 83  1  0  0  0
 76 86  1  0  0  0
 77 78  1  0  0  0
 77 83  1  0  0  0
 77150  1  0  0  0
 77151  1  0  0  0
 78 84  1  0  0  0
 78152  1  0  0  0
 78153  1  0  0  0
 79 81  1  0  0  0
 79 85  1  0  0  0
 79154  1  0  0  0
 79155  1  0  0  0
 80 82  1  0  0  0
 80 85  1  0  0  0
 80156  1  0  0  0
 80157  1  0  0  0
 81158  1  0  0  0
 81159  1  0  0  0
 82 86  1  0  0  0
 82160  1  0  0  0
 82161  1  0  0  0
 83162  1  0  0  0
 84163  1  0  0  0
 85164  1  0  0  0
 85165  1  0  0  0
M  CHG  1  85   1
M  ISO  4   1 100  68 101  81 101  84 100
M  END
> <chiral flag>
0

> <version>
0

> <s_m_source_file>
/data/baiqing/PycharmProjects/Reinvent-master-3.2/result/LINK_invent/BTK/process_docking_weight1_custom_sum_contain_oxygen_bond_distance_aromatic_linkinvent_7_9_3/rearranged_h_0130.sdf

> <i_m_source_file_index>
59

> <r_mmod_Potential_Energy-OPLS-2005>
-207.384796142578

> <r_mmod_Stretch_Energy-OPLS-2005>
32.6954917907715

> <r_mmod_Bend_Energy-OPLS-2005>
125.516670227051

> <r_mmod_Torsional_Energy-OPLS-2005>
206.225570678711

> <r_mmod_Improper_Torsional_Energy-OPLS-2005>
5.4139232635498

> <r_mmod_Van_der_Waal_Energy-OPLS-2005>
163.48779296875

> <r_mmod_Electrostatic_Energy-OPLS-2005>
-301.871734619141

> <r_mmod_Solvation_Energy-OPLS-2005>
-449.143463134766

> <b_mmod_Minimization_Converged-OPLS-2005>
0

> <r_mmod_RMS_Derivative-OPLS-2005>
5.15314054489136

$$$$
59
                    3D
 Structure written by MMmdl.
164173  0  0  1  0            999 V2000
  -30.0263  -16.3727   20.4491 C   0  0  0  0  0  0
  -30.3964  -13.5913   19.6050 C   0  0  0  0  0  0
  -29.5998  -12.9010   18.4171 C   0  0  0  0  0  0
  -28.2307  -12.3670   18.8466 C   0  0  0  0  0  0
  -27.6080  -13.3848   19.8072 C   0  0  2  0  0  0
  -28.5721  -13.9000   20.9246 C   0  0  0  0  0  0
  -25.2350  -13.8361   20.5786 C   0  0  0  0  0  0
  -24.1787  -13.0440   20.9199 C   0  0  0  0  0  0
  -24.6588  -11.6989   20.8657 C   0  0  0  0  0  0
  -23.9286  -10.4297   21.0323 C   0  0  0  0  0  0
  -24.3748   -9.4231   21.9161 C   0  0  0  0  0  0
  -23.6366   -8.2282   22.0763 C   0  0  0  0  0  0
  -22.4338   -8.0327   21.3554 C   0  0  0  0  0  0
  -22.0013   -9.0317   20.4650 C   0  0  0  0  0  0
  -22.7415  -10.2158   20.3038 C   0  0  0  0  0  0
  -21.6884   -6.0776   22.5264 C   0  0  0  0  0  0
  -21.4037   -6.5680   23.8199 C   0  0  0  0  0  0
  -21.3664   -5.6830   24.9160 C   0  0  0  0  0  0
  -21.6051   -4.3093   24.7212 C   0  0  0  0  0  0
  -21.8812   -3.8183   23.4336 C   0  0  0  0  0  0
  -21.9201   -4.6997   22.3390 C   0  0  0  0  0  0
  -22.7786  -13.5124   21.1843 C   0  0  0  0  0  0
  -22.1676   -4.2209   21.0967 F   0  0  0  0  0  0
  -21.5613   -3.4556   25.7709 F   0  0  0  0  0  0
  -29.6957  -14.7981   20.3847 N   0  0  0  0  0  0
  -26.2922  -12.9877   20.3145 N   0  0  0  0  0  0
  -25.9589  -11.6881   20.5498 N   0  0  0  0  0  0
  -22.0481  -12.8106   22.0422 N   0  0  0  0  0  0
  -25.3786  -15.2111   20.4329 N   0  0  0  0  0  0
  -31.0509  -16.1753   19.6983 O   0  0  0  0  0  0
  -21.6685   -6.8942   21.4244 O   0  0  0  0  0  0
  -22.3429  -14.5426   20.6701 O   0  0  0  0  0  0
  -24.7285  -31.7457   23.1122 C   0  0  0  0  0  0
  -25.9648  -32.4205   23.7829 C   0  0  1  0  0  0
  -27.2570  -26.2224   20.2993 C   0  0  0  0  0  0
  -25.5999  -33.8054   24.1647 N   0  0  0  0  0  0
  -23.5765  -30.3238   21.4784 C   0  0  2  0  0  0
  -25.0395  -28.5598   20.1440 C   0  0  0  0  0  0
  -22.7967  -29.4020   22.4590 C   0  0  0  0  0  0
  -18.0373  -28.1444   22.8446 C   0  0  0  0  0  0
  -24.1497  -36.7047   23.2658 C   0  0  0  0  0  0
  -26.1717  -30.3163   21.4522 C   0  0  0  0  0  0
  -26.2343  -28.8261   20.8210 C   0  0  0  0  0  0
  -27.3060  -27.7099   20.8426 C   0  0  0  0  0  0
  -26.0217  -26.2832   19.5568 C   0  0  0  0  0  0
  -25.0018  -27.3148   19.4847 C   0  0  0  0  0  0
  -23.8602  -29.5752   20.1378 C   0  0  0  0  0  0
  -25.4173  -36.2734   24.0223 C   0  0  1  0  0  0
  -20.6040  -28.3829   23.1058 C   0  0  2  0  0  0
  -20.6812  -26.9439   22.5404 C   0  0  0  0  0  0
  -19.5794  -26.6348   21.5236 C   0  0  0  0  0  0
  -18.1986  -26.7966   22.1624 C   0  0  0  0  0  0
  -19.1652  -28.8984   23.2710 C   0  0  0  0  0  0
  -18.9542  -30.1562   23.8778 C   0  0  0  0  0  0
  -17.6516  -30.6616   24.0566 C   0  0  0  0  0  0
  -25.9189  -34.9141   23.4817 C   0  0  0  0  0  0
  -16.5408  -29.9089   23.6350 C   0  0  0  0  0  0
  -16.7344  -28.6504   23.0384 C   0  0  0  0  0  0
  -26.4658  -31.6467   25.0666 C   0  0  0  0  0  0
  -25.3552  -31.3941   26.1152 C   0  0  0  0  0  0
  -27.0645  -30.2751   24.6909 C   0  0  0  0  0  0
  -27.6017  -32.4428   25.7495 C   0  0  0  0  0  0
  -27.5552  -37.1670   24.8448 C   0  0  0  0  0  0
  -21.4585  -29.2976   22.3322 N   0  0  0  0  0  0
  -26.4259  -37.3550   23.9394 N   0  0  0  0  0  0
  -24.8541  -30.8426   22.0628 N   0  0  0  0  0  0
  -23.4170  -28.7698   23.3156 O   0  0  0  0  0  0
  -28.2058  -24.8167   20.2796 O   0  0  0  0  0  0
  -26.5896  -34.8826   22.4483 O   0  0  0  0  0  0
  -23.6198  -32.0756   23.5759 O   0  0  0  0  0  0
  -29.3802  -16.1560   22.6114 C   0  0  0  0  0  0
  -31.2549  -18.2653   21.0936 C   0  0  0  0  0  0
  -31.3221  -16.8207   22.2953 C   0  0  0  0  0  0
  -28.2261  -17.3138   21.5832 C   0  0  0  0  0  0
  -27.7079  -17.6795   24.0424 C   0  0  0  0  0  0
  -27.5690  -19.5202   22.5760 C   0  0  0  0  0  0
  -29.2525  -18.0568   24.1878 C   0  0  0  0  0  0
  -29.1228  -19.7117   22.8735 C   0  0  0  0  0  0
  -27.2491  -17.9955   22.5626 C   0  0  0  0  0  0
  -32.6017  -16.2967   22.8946 C   0  0  0  0  0  0
  -30.1136  -21.0367   19.1455 C   0  0  0  0  0  0
  -28.3676  -22.8266   20.6014 C   0  0  0  0  0  0
  -28.9282  -20.7161   20.0630 C   0  0  1  0  0  0
  -29.3778  -18.7589   20.5875 N   0  0  0  0  0  0
  -29.7795  -18.3032   22.7130 N   0  0  0  0  0  0
  -31.3350  -13.9237   19.1636 H   0  0  0  0  0  0
  -30.7128  -12.8340   20.3186 H   0  0  0  0  0  0
  -30.1870  -12.0920   17.9803 H   0  0  0  0  0  0
  -29.4537  -13.6297   17.6141 H   0  0  0  0  0  0
  -28.3658  -11.4035   19.3425 H   0  0  0  0  0  0
  -27.5874  -12.1807   17.9861 H   0  0  0  0  0  0
  -27.4093  -14.2470   19.1666 H   0  0  0  0  0  0
  -28.9390  -13.0790   21.5404 H   0  0  0  0  0  0
  -27.9391  -14.4796   21.5885 H   0  0  0  0  0  0
  -25.2896   -9.5703   22.4741 H   0  0  0  0  0  0
  -24.0079   -7.4694   22.7501 H   0  0  0  0  0  0
  -21.0940   -8.8893   19.8944 H   0  0  0  0  0  0
  -22.3909  -10.9716   19.6137 H   0  0  0  0  0  0
  -21.2052   -7.6197   23.9732 H   0  0  0  0  0  0
  -21.1480   -6.0552   25.9074 H   0  0  0  0  0  0
  -22.0578   -2.7658   23.2805 H   0  0  0  0  0  0
  -22.4186  -11.9873   22.4901 H   0  0  0  0  0  0
  -21.1070  -13.1046   22.2552 H   0  0  0  0  0  0
  -24.6005  -15.8420   20.5840 H   0  0  0  0  0  0
  -26.2438  -15.6848   20.1993 H   0  0  0  0  0  0
  -26.7782  -32.4583   23.0560 H   0  0  0  0  0  0
  -24.9951  -33.9022   24.9671 H   0  0  0  0  0  0
  -22.9295  -31.1715   21.2482 H   0  0  0  0  0  0
  -23.3788  -35.9345   23.3201 H   0  0  0  0  0  0
  -24.3553  -36.8875   22.2104 H   0  0  0  0  0  0
  -23.7257  -37.6157   23.6880 H   0  0  0  0  0  0
  -26.4330  -31.0072   20.6510 H   0  0  0  0  0  0
  -27.0020  -30.3996   22.1371 H   0  0  0  0  0  0
  -28.2057  -27.9593   21.3891 H   0  0  0  0  0  0
  -25.7848  -25.3804   19.0100 H   0  0  0  0  0  0
  -24.1190  -27.0899   18.9019 H   0  0  0  0  0  0
  -24.0751  -30.3139   19.3644 H   0  0  0  0  0  0
  -22.9549  -29.0685   19.8050 H   0  0  0  0  0  0
  -25.1421  -36.1396   25.0710 H   0  0  0  0  0  0
  -21.0121  -28.3497   24.1202 H   0  0  0  0  0  0
  -20.5677  -26.2468   23.3719 H   0  0  0  0  0  0
  -21.6672  -26.7335   22.1259 H   0  0  0  0  0  0
  -19.6943  -25.6232   21.1365 H   0  0  0  0  0  0
  -19.6760  -27.3091   20.6731 H   0  0  0  0  0  0
  -17.4255  -26.6729   21.4026 H   0  0  0  0  0  0
  -18.0335  -26.0149   22.9051 H   0  0  0  0  0  0
  -19.8020  -30.7417   24.2091 H   0  0  0  0  0  0
  -17.5062  -31.6310   24.5166 H   0  0  0  0  0  0
  -15.5403  -30.2954   23.7766 H   0  0  0  0  0  0
  -15.8745  -28.0804   22.7145 H   0  0  0  0  0  0
  -24.5731  -30.7357   25.7341 H   0  0  0  0  0  0
  -24.8791  -32.3252   26.4244 H   0  0  0  0  0  0
  -25.7555  -30.9224   27.0141 H   0  0  0  0  0  0
  -26.3437  -29.6195   24.2021 H   0  0  0  0  0  0
  -27.3997  -29.7420   25.5811 H   0  0  0  0  0  0
  -27.9458  -30.3741   24.0575 H   0  0  0  0  0  0
  -27.2518  -33.3868   26.1665 H   0  0  0  0  0  0
  -28.4038  -32.6750   25.0481 H   0  0  0  0  0  0
  -28.0452  -31.8836   26.5733 H   0  0  0  0  0  0
  -28.2460  -38.0046   24.7526 H   0  0  0  0  0  0
  -28.1142  -36.2573   24.6241 H   0  0  0  0  0  0
  -27.2264  -37.1256   25.8836 H   0  0  0  0  0  0
  -20.9968  -29.8536   21.6273 H   0  0  0  0  0  0
  -26.0017  -38.2559   24.1431 H   0  0  0  0  0  0
  -29.0649  -15.4126   23.3315 H   0  0  0  0  0  0
  -32.0591  -18.9230   20.7872 H   0  0  0  0  0  0
  -27.1241  -18.2437   24.7670 H   0  0  0  0  0  0
  -27.5187  -16.6341   24.3096 H   0  0  0  0  0  0
  -27.2194  -19.9663   21.6514 H   0  0  0  0  0  0
  -26.9927  -20.0300   23.3485 H   0  0  0  0  0  0
  -29.7992  -17.2393   24.6650 H   0  0  0  0  0  0
  -29.4306  -18.7912   24.9787 H   0  0  0  0  0  0
  -29.2480  -20.3016   23.7844 H   0  0  0  0  0  0
  -29.6412  -20.4529   22.2745 H   0  0  0  0  0  0
  -26.1988  -17.7728   22.3690 H   0  0  0  0  0  0
  -33.1722  -17.1051   23.3528 H   0  0  0  0  0  0
  -33.2246  -15.8589   22.1117 H   0  0  0  0  0  0
  -32.3951  -15.5415   23.6487 H   0  0  0  0  0  0
  -29.8807  -21.8731   18.4851 H   0  0  0  0  0  0
  -30.3892  -20.1814   18.5299 H   0  0  0  0  0  0
  -30.9880  -21.3159   19.7377 H   0  0  0  0  0  0
  -29.1748  -22.9659   21.3253 H   0  0  0  0  0  0
  -27.4852  -22.6637   21.2203 H   0  0  0  0  0  0
  -28.0756  -20.5159   19.4131 H   0  0  0  0  0  0
  1 25  1  0  0  0
  1 30  2  0  0  0
  1 85  1  0  0  0
  2  3  1  0  0  0
  2 25  1  0  0  0
  2 86  1  0  0  0
  2 87  1  0  0  0
  3  4  1  0  0  0
  3 88  1  0  0  0
  3 89  1  0  0  0
  4  5  1  0  0  0
  4 90  1  0  0  0
  4 91  1  0  0  0
  5  6  1  0  0  0
  5 26  1  0  0  0
  5 92  1  0  0  0
  6 25  1  0  0  0
  6 93  1  0  0  0
  6 94  1  0  0  0
  7  8  2  0  0  0
  7 26  1  0  0  0
  7 29  1  0  0  0
  8  9  1  0  0  0
  8 22  1  0  0  0
  9 10  1  0  0  0
  9 27  2  0  0  0
 10 11  2  0  0  0
 10 15  1  0  0  0
 11 12  1  0  0  0
 11 95  1  0  0  0
 12 13  2  0  0  0
 12 96  1  0  0  0
 13 14  1  0  0  0
 13 31  1  0  0  0
 14 15  2  0  0  0
 14 97  1  0  0  0
 15 98  1  0  0  0
 16 17  2  0  0  0
 16 21  1  0  0  0
 16 31  1  0  0  0
 17 18  1  0  0  0
 17 99  1  0  0  0
 18 19  2  0  0  0
 18100  1  0  0  0
 19 20  1  0  0  0
 19 24  1  0  0  0
 20 21  2  0  0  0
 20101  1  0  0  0
 21 23  1  0  0  0
 22 28  1  0  0  0
 22 32  2  0  0  0
 26 27  1  0  0  0
 28102  1  0  0  0
 28103  1  0  0  0
 29104  1  0  0  0
 29105  1  0  0  0
 33 34  1  0  0  0
 33 66  1  0  0  0
 33 70  2  0  0  0
 34 36  1  0  0  0
 34 59  1  0  0  0
 34106  1  0  0  0
 35 44  2  0  0  0
 35 45  1  0  0  0
 35 68  1  0  0  0
 36 56  1  0  0  0
 36107  1  0  0  0
 37 39  1  0  0  0
 37 47  1  0  0  0
 37 66  1  0  0  0
 37108  1  0  0  0
 38 43  2  0  0  0
 38 46  1  0  0  0
 38 47  1  0  0  0
 39 64  1  0  0  0
 39 67  2  0  0  0
 40 52  1  0  0  0
 40 53  2  0  0  0
 40 58  1  0  0  0
 41109  1  0  0  0
 41110  1  0  0  0
 41111  1  0  0  0
 41 48  1  0  0  0
 42 43  1  0  0  0
 42 66  1  0  0  0
 42112  1  0  0  0
 42113  1  0  0  0
 43 44  1  0  0  0
 44114  1  0  0  0
 45 46  2  0  0  0
 45115  1  0  0  0
 46116  1  0  0  0
 47117  1  0  0  0
 47118  1  0  0  0
 48 56  1  0  0  0
 48 65  1  0  0  0
 48119  1  0  0  0
 49 50  1  0  0  0
 49 53  1  0  0  0
 49 64  1  0  0  0
 49120  1  0  0  0
 50 51  1  0  0  0
 50121  1  0  0  0
 50122  1  0  0  0
 51 52  1  0  0  0
 51123  1  0  0  0
 51124  1  0  0  0
 52125  1  0  0  0
 52126  1  0  0  0
 53 54  1  0  0  0
 54 55  2  0  0  0
 54127  1  0  0  0
 55 57  1  0  0  0
 55128  1  0  0  0
 56 69  2  0  0  0
 57 58  2  0  0  0
 57129  1  0  0  0
 58130  1  0  0  0
 59 60  1  0  0  0
 59 61  1  0  0  0
 59 62  1  0  0  0
 60131  1  0  0  0
 60132  1  0  0  0
 60133  1  0  0  0
 61134  1  0  0  0
 61135  1  0  0  0
 61136  1  0  0  0
 62137  1  0  0  0
 62138  1  0  0  0
 62139  1  0  0  0
 63 65  1  0  0  0
 63140  1  0  0  0
 63141  1  0  0  0
 63142  1  0  0  0
 64143  1  0  0  0
 65144  1  0  0  0
 68 82  1  0  0  0
 71 73  1  0  0  0
 71 74  2  0  0  0
 71145  1  0  0  0
 72 73  2  0  0  0
 72 84  1  0  0  0
 72146  1  0  0  0
 73 80  1  0  0  0
 74 84  1  0  0  0
 74 79  1  0  0  0
 75 77  1  0  0  0
 75 79  1  0  0  0
 75147  1  0  0  0
 75148  1  0  0  0
 76 78  1  0  0  0
 76 79  1  0  0  0
 76149  1  0  0  0
 76150  1  0  0  0
 77 85  1  0  0  0
 77151  1  0  0  0
 77152  1  0  0  0
 78 85  1  0  0  0
 78153  1  0  0  0
 78154  1  0  0  0
 79155  1  0  0  0
 80156  1  0  0  0
 80157  1  0  0  0
 80158  1  0  0  0
 81159  1  0  0  0
 81160  1  0  0  0
 81161  1  0  0  0
 81 83  1  0  0  0
 82 83  1  0  0  0
 82162  1  0  0  0
 82163  1  0  0  0
 83 84  1  0  0  0
 83164  1  0  0  0
M  ISO  4   1 100  68 101  82 101  85 100
M  END
> <chiral flag>
0

> <version>
0

> <s_m_source_file>
/data/baiqing/PycharmProjects/Reinvent-master-3.2/result/LINK_invent/BTK/process_docking_weight1_custom_sum_contain_oxygen_bond_distance_aromatic_linkinvent_7_9_3/rearranged_h_0130.sdf

> <i_m_source_file_index>
60

> <r_mmod_Potential_Energy-OPLS-2005>
18619.625

> <r_mmod_Stretch_Energy-OPLS-2005>
11650.2216796875

> <r_mmod_Bend_Energy-OPLS-2005>
1154.63500976562

> <r_mmod_Torsional_Energy-OPLS-2005>
490.053497314453

> <r_mmod_Improper_Torsional_Energy-OPLS-2005>
95.8517684936523

> <r_mmod_Van_der_Waal_Energy-OPLS-2005>
3528.12377929688

> <r_mmod_Electrostatic_Energy-OPLS-2005>
-325.397308349609

> <r_mmod_Solvation_Energy-OPLS-2005>
-197.649444580078

> <b_mmod_Minimization_Converged-OPLS-2005>
0

> <r_mmod_RMS_Derivative-OPLS-2005>
10.7907485961914

$$$$
60
                    3D
 Structure written by MMmdl.
169178  0  0  1  0            999 V2000
  -30.7245  -14.4560   20.5362 C   0  0  0  0  0  0
  -30.4055  -12.2849   19.4379 C   0  0  0  0  0  0
  -29.4917  -12.4913   18.2138 C   0  0  0  0  0  0
  -28.0127  -12.3607   18.6231 C   0  0  0  0  0  0
  -27.6567  -13.2132   19.8716 C   0  0  2  0  0  0
  -28.6962  -13.0272   21.0010 C   0  0  0  0  0  0
  -25.2562  -13.8183   20.5696 C   0  0  0  0  0  0
  -24.1821  -13.0452   20.9185 C   0  0  0  0  0  0
  -24.6377  -11.6912   20.8736 C   0  0  0  0  0  0
  -23.9053  -10.4290   21.0402 C   0  0  0  0  0  0
  -24.3601   -9.4210   21.9190 C   0  0  0  0  0  0
  -23.6273   -8.2251   22.0765 C   0  0  0  0  0  0
  -22.4270   -8.0281   21.3544 C   0  0  0  0  0  0
  -21.9899   -9.0254   20.4653 C   0  0  0  0  0  0
  -22.7220  -10.2137   20.3062 C   0  0  0  0  0  0
  -21.6853   -6.0734   22.5274 C   0  0  0  0  0  0
  -21.4016   -6.5637   23.8208 C   0  0  0  0  0  0
  -21.3663   -5.6793   24.9171 C   0  0  0  0  0  0
  -21.6042   -4.3054   24.7224 C   0  0  0  0  0  0
  -21.8819   -3.8145   23.4343 C   0  0  0  0  0  0
  -21.9189   -4.6960   22.3398 C   0  0  0  0  0  0
  -22.7849  -13.5247   21.1844 C   0  0  0  0  0  0
  -22.1661   -4.2140   21.0977 F   0  0  0  0  0  0
  -21.5628   -3.4542   25.7739 F   0  0  0  0  0  0
  -30.0290  -13.2934   20.4418 N   0  0  0  0  0  0
  -26.2992  -12.9362   20.3356 N   0  0  0  0  0  0
  -25.9304  -11.6518   20.5767 N   0  0  0  0  0  0
  -22.0487  -12.8242   22.0390 N   0  0  0  0  0  0
  -25.4293  -15.1906   20.4106 N   0  0  0  0  0  0
  -31.8821  -14.5663   20.1242 O   0  0  0  0  0  0
  -21.6641   -6.8879   21.4239 O   0  0  0  0  0  0
  -22.3537  -14.5565   20.6696 O   0  0  0  0  0  0
  -24.6125  -31.8707   23.2117 C   0  0  0  0  0  0
  -25.9021  -32.4834   23.8422 C   0  0  1  0  0  0
  -27.2251  -27.4437   20.1159 C   0  0  0  0  0  0
  -25.5879  -33.8640   24.2334 N   0  0  0  0  0  0
  -23.4012  -30.4926   21.5524 C   0  0  2  0  0  0
  -24.8488  -28.9615   20.1166 C   0  0  0  0  0  0
  -22.7406  -29.4665   22.5007 C   0  0  0  0  0  0
  -18.0266  -28.1399   22.8507 C   0  0  0  0  0  0
  -24.1478  -36.7336   23.2643 C   0  0  0  0  0  0
  -25.9280  -30.8378   21.3664 C   0  0  0  0  0  0
  -26.0060  -29.4708   20.7219 C   0  0  0  0  0  0
  -27.2008  -28.7171   20.7248 C   0  0  0  0  0  0
  -26.0646  -26.9554   19.4837 C   0  0  0  0  0  0
  -24.8718  -27.7010   19.4947 C   0  0  0  0  0  0
  -23.6100  -29.8269   20.1664 C   0  0  0  0  0  0
  -25.4102  -36.3123   24.0338 C   0  0  1  0  0  0
  -20.5856  -28.3683   23.1334 C   0  0  2  0  0  0
  -20.6761  -26.9426   22.5427 C   0  0  0  0  0  0
  -19.5730  -26.6403   21.5231 C   0  0  0  0  0  0
  -18.1905  -26.7943   22.1637 C   0  0  0  0  0  0
  -19.1515  -28.8859   23.2914 C   0  0  0  0  0  0
  -18.9431  -30.1460   23.8937 C   0  0  0  0  0  0
  -17.6434  -30.6603   24.0575 C   0  0  0  0  0  0
  -25.9034  -34.9488   23.5135 C   0  0  0  0  0  0
  -16.5331  -29.9106   23.6335 C   0  0  0  0  0  0
  -16.7254  -28.6521   23.0362 C   0  0  0  0  0  0
  -26.4461  -31.6608   25.0747 C   0  0  0  0  0  0
  -25.3732  -31.3686   26.1493 C   0  0  0  0  0  0
  -27.0307  -30.3059   24.6116 C   0  0  0  0  0  0
  -27.6040  -32.4339   25.7492 C   0  0  0  0  0  0
  -27.5584  -37.1807   24.8460 C   0  0  0  0  0  0
  -21.4138  -29.3039   22.3743 N   0  0  0  0  0  0
  -26.4285  -37.3808   23.9428 N   0  0  0  0  0  0
  -24.6652  -31.0826   22.1013 N   0  0  0  0  0  0
  -23.4180  -28.8210   23.3046 O   0  0  0  0  0  0
  -28.3627  -26.6736   20.0967 O   0  0  0  0  0  0
  -26.5609  -34.8933   22.4704 O   0  0  0  0  0  0
  -23.5322  -32.1447   23.7515 O   0  0  0  0  0  0
  -30.7670  -18.9343   21.9695 C   0  0  0  0  0  0
  -30.2885  -20.1106   22.5747 C   0  0  0  0  0  0
  -28.5059  -18.3584   21.2968 C   0  0  0  0  0  0
  -29.8853  -18.0613   21.3001 C   0  0  0  0  0  0
  -28.9184  -20.4483   22.5217 C   0  0  0  0  0  0
  -28.0155  -19.5446   21.8941 C   0  0  0  0  0  0
  -27.2287  -25.1506   21.8107 C   0  0  0  0  0  0
  -29.2627  -24.4879   20.5279 C   0  0  0  0  0  0
  -27.5318  -24.0245   22.8230 C   0  0  0  0  0  0
  -29.5186  -23.3538   21.5488 C   0  0  0  0  0  0
  -28.5194  -25.6898   21.1420 C   0  0  1  0  0  0
  -26.5223  -19.8250   21.8080 C   0  0  0  0  0  0
  -30.1722  -17.1558   18.9782 C   0  0  0  0  0  0
  -28.4674  -21.7673   23.1662 C   0  0  0  0  0  0
  -30.4559  -16.9091   20.4737 C   0  0  2  0  0  0
  -30.0154  -15.5566   20.8580 N   0  0  0  0  0  0
  -28.2645  -22.8866   22.2018 N   0  3  1  0  0  0
  -31.4540  -12.3502   19.1412 H   0  0  0  0  0  0
  -30.2753  -11.2820   19.8487 H   0  0  0  0  0  0
  -29.7287  -11.7626   17.4381 H   0  0  0  0  0  0
  -29.6686  -13.4755   17.7773 H   0  0  0  0  0  0
  -27.8190  -11.3068   18.8280 H   0  0  0  0  0  0
  -27.3643  -12.6300   17.7882 H   0  0  0  0  0  0
  -27.6922  -14.2565   19.5559 H   0  0  0  0  0  0
  -28.6584  -12.0093   21.3912 H   0  0  0  0  0  0
  -28.4737  -13.6796   21.8465 H   0  0  0  0  0  0
  -25.2750   -9.5693   22.4756 H   0  0  0  0  0  0
  -23.9983   -7.4658   22.7496 H   0  0  0  0  0  0
  -21.0833   -8.8764   19.8958 H   0  0  0  0  0  0
  -22.3673  -10.9672   19.6171 H   0  0  0  0  0  0
  -21.2018   -7.6150   23.9701 H   0  0  0  0  0  0
  -21.1488   -6.0532   25.9070 H   0  0  0  0  0  0
  -22.0595   -2.7604   23.2848 H   0  0  0  0  0  0
  -22.4087  -11.9883   22.4756 H   0  0  0  0  0  0
  -21.1114  -13.1278   22.2613 H   0  0  0  0  0  0
  -24.6638  -15.8470   20.5188 H   0  0  0  0  0  0
  -26.2798  -15.6220   20.0729 H   0  0  0  0  0  0
  -26.7101  -32.5557   23.1204 H   0  0  0  0  0  0
  -24.9988  -33.9815   25.0443 H   0  0  0  0  0  0
  -22.6877  -31.3076   21.4151 H   0  0  0  0  0  0
  -23.3738  -35.9664   23.3296 H   0  0  0  0  0  0
  -24.3576  -36.8973   22.2057 H   0  0  0  0  0  0
  -23.7220  -37.6533   23.6681 H   0  0  0  0  0  0
  -26.0330  -31.5961   20.5901 H   0  0  0  0  0  0
  -26.8190  -30.8976   21.9792 H   0  0  0  0  0  0
  -28.0961  -29.1046   21.1923 H   0  0  0  0  0  0
  -26.0830  -25.9902   18.9983 H   0  0  0  0  0  0
  -23.9855  -27.3078   19.0165 H   0  0  0  0  0  0
  -23.7138  -30.6035   19.4071 H   0  0  0  0  0  0
  -22.7346  -29.2442   19.8743 H   0  0  0  0  0  0
  -25.1258  -36.1990   25.0823 H   0  0  0  0  0  0
  -20.9929  -28.3263   24.1459 H   0  0  0  0  0  0
  -20.5684  -26.2303   23.3616 H   0  0  0  0  0  0
  -21.6631  -26.7484   22.1206 H   0  0  0  0  0  0
  -19.6896  -25.6315   21.1254 H   0  0  0  0  0  0
  -19.6663  -27.3227   20.6771 H   0  0  0  0  0  0
  -17.4178  -26.6710   21.4035 H   0  0  0  0  0  0
  -18.0290  -26.0080   22.9020 H   0  0  0  0  0  0
  -19.7908  -30.7267   24.2328 H   0  0  0  0  0  0
  -17.4995  -31.6284   24.5172 H   0  0  0  0  0  0
  -15.5336  -30.3014   23.7660 H   0  0  0  0  0  0
  -15.8652  -28.0859   22.7057 H   0  0  0  0  0  0
  -24.5902  -30.7046   25.7822 H   0  0  0  0  0  0
  -24.8923  -32.2822   26.4997 H   0  0  0  0  0  0
  -25.8086  -30.8813   27.0224 H   0  0  0  0  0  0
  -26.2851  -29.6804   24.1194 H   0  0  0  0  0  0
  -27.4113  -29.7311   25.4572 H   0  0  0  0  0  0
  -27.8667  -30.4406   23.9247 H   0  0  0  0  0  0
  -27.2675  -33.3644   26.2079 H   0  0  0  0  0  0
  -28.3824  -32.6895   25.0290 H   0  0  0  0  0  0
  -28.0738  -31.8464   26.5386 H   0  0  0  0  0  0
  -28.2566  -38.0141   24.7568 H   0  0  0  0  0  0
  -28.1110  -36.2675   24.6198 H   0  0  0  0  0  0
  -27.2327  -37.1360   25.8867 H   0  0  0  0  0  0
  -20.9311  -29.8755   21.6957 H   0  0  0  0  0  0
  -26.0173  -38.2880   24.1454 H   0  0  0  0  0  0
  -31.8288  -18.7285   21.9908 H   0  0  0  0  0  0
  -30.9949  -20.7692   23.0629 H   0  0  0  0  0  0
  -27.8241  -17.6948   20.7822 H   0  0  0  0  0  0
  -26.7053  -25.9564   22.3275 H   0  0  0  0  0  0
  -26.5398  -24.7663   21.0595 H   0  0  0  0  0  0
  -28.6895  -24.0967   19.6866 H   0  0  0  0  0  0
  -30.2162  -24.8186   20.1159 H   0  0  0  0  0  0
  -26.5949  -23.6685   23.2530 H   0  0  0  0  0  0
  -28.1176  -24.4222   23.6535 H   0  0  0  0  0  0
  -30.2168  -23.7011   22.3113 H   0  0  0  0  0  0
  -30.0037  -22.5213   21.0386 H   0  0  0  0  0  0
  -29.1496  -26.1428   21.9091 H   0  0  0  0  0  0
  -25.9687  -18.9104   21.5925 H   0  0  0  0  0  0
  -26.3111  -20.5322   21.0053 H   0  0  0  0  0  0
  -26.1173  -20.2207   22.7386 H   0  0  0  0  0  0
  -30.5497  -18.1312   18.6685 H   0  0  0  0  0  0
  -29.1047  -17.1309   18.7593 H   0  0  0  0  0  0
  -30.6551  -16.4118   18.3442 H   0  0  0  0  0  0
  -29.1967  -22.0742   23.9184 H   0  0  0  0  0  0
  -27.5517  -21.5833   23.7271 H   0  0  0  0  0  0
  -31.5396  -16.9580   20.6035 H   0  0  0  0  0  0
  -29.0700  -15.4356   21.1852 H   0  0  0  0  0  0
  -27.6716  -22.5097   21.4780 H   0  0  0  0  0  0
  1 25  1  0  0  0
  1 30  2  0  0  0
  1 86  1  0  0  0
  2  3  1  0  0  0
  2 25  1  0  0  0
  2 88  1  0  0  0
  2 89  1  0  0  0
  3  4  1  0  0  0
  3 90  1  0  0  0
  3 91  1  0  0  0
  4  5  1  0  0  0
  4 92  1  0  0  0
  4 93  1  0  0  0
  5  6  1  0  0  0
  5 26  1  0  0  0
  5 94  1  0  0  0
  6 25  1  0  0  0
  6 95  1  0  0  0
  6 96  1  0  0  0
  7  8  2  0  0  0
  7 26  1  0  0  0
  7 29  1  0  0  0
  8  9  1  0  0  0
  8 22  1  0  0  0
  9 10  1  0  0  0
  9 27  2  0  0  0
 10 11  2  0  0  0
 10 15  1  0  0  0
 11 12  1  0  0  0
 11 97  1  0  0  0
 12 13  2  0  0  0
 12 98  1  0  0  0
 13 14  1  0  0  0
 13 31  1  0  0  0
 14 15  2  0  0  0
 14 99  1  0  0  0
 15100  1  0  0  0
 16 17  2  0  0  0
 16 21  1  0  0  0
 16 31  1  0  0  0
 17 18  1  0  0  0
 17101  1  0  0  0
 18 19  2  0  0  0
 18102  1  0  0  0
 19 20  1  0  0  0
 19 24  1  0  0  0
 20 21  2  0  0  0
 20103  1  0  0  0
 21 23  1  0  0  0
 22 28  1  0  0  0
 22 32  2  0  0  0
 26 27  1  0  0  0
 28104  1  0  0  0
 28105  1  0  0  0
 29106  1  0  0  0
 29107  1  0  0  0
 33 34  1  0  0  0
 33 66  1  0  0  0
 33 70  2  0  0  0
 34 36  1  0  0  0
 34 59  1  0  0  0
 34108  1  0  0  0
 35 44  2  0  0  0
 35 45  1  0  0  0
 35 68  1  0  0  0
 36 56  1  0  0  0
 36109  1  0  0  0
 37 39  1  0  0  0
 37 47  1  0  0  0
 37 66  1  0  0  0
 37110  1  0  0  0
 38 43  2  0  0  0
 38 46  1  0  0  0
 38 47  1  0  0  0
 39 64  1  0  0  0
 39 67  2  0  0  0
 40 52  1  0  0  0
 40 53  2  0  0  0
 40 58  1  0  0  0
 41111  1  0  0  0
 41112  1  0  0  0
 41113  1  0  0  0
 41 48  1  0  0  0
 42 43  1  0  0  0
 42 66  1  0  0  0
 42114  1  0  0  0
 42115  1  0  0  0
 43 44  1  0  0  0
 44116  1  0  0  0
 45 46  2  0  0  0
 45117  1  0  0  0
 46118  1  0  0  0
 47119  1  0  0  0
 47120  1  0  0  0
 48 56  1  0  0  0
 48 65  1  0  0  0
 48121  1  0  0  0
 49 50  1  0  0  0
 49 53  1  0  0  0
 49 64  1  0  0  0
 49122  1  0  0  0
 50 51  1  0  0  0
 50123  1  0  0  0
 50124  1  0  0  0
 51 52  1  0  0  0
 51125  1  0  0  0
 51126  1  0  0  0
 52127  1  0  0  0
 52128  1  0  0  0
 53 54  1  0  0  0
 54 55  2  0  0  0
 54129  1  0  0  0
 55 57  1  0  0  0
 55130  1  0  0  0
 56 69  2  0  0  0
 57 58  2  0  0  0
 57131  1  0  0  0
 58132  1  0  0  0
 59 60  1  0  0  0
 59 61  1  0  0  0
 59 62  1  0  0  0
 60133  1  0  0  0
 60134  1  0  0  0
 60135  1  0  0  0
 61136  1  0  0  0
 61137  1  0  0  0
 61138  1  0  0  0
 62139  1  0  0  0
 62140  1  0  0  0
 62141  1  0  0  0
 63 65  1  0  0  0
 63142  1  0  0  0
 63143  1  0  0  0
 63144  1  0  0  0
 64145  1  0  0  0
 65146  1  0  0  0
 68 81  1  0  0  0
 71 72  2  0  0  0
 71 74  1  0  0  0
 71147  1  0  0  0
 72 75  1  0  0  0
 72148  1  0  0  0
 73 74  2  0  0  0
 73 76  1  0  0  0
 73149  1  0  0  0
 74 85  1  0  0  0
 75 76  2  0  0  0
 75 84  1  0  0  0
 76 82  1  0  0  0
 77 79  1  0  0  0
 77 81  1  0  0  0
 77150  1  0  0  0
 77151  1  0  0  0
 78 80  1  0  0  0
 78 81  1  0  0  0
 78152  1  0  0  0
 78153  1  0  0  0
 79 87  1  0  0  0
 79154  1  0  0  0
 79155  1  0  0  0
 80 87  1  0  0  0
 80156  1  0  0  0
 80157  1  0  0  0
 81158  1  0  0  0
 82159  1  0  0  0
 82160  1  0  0  0
 82161  1  0  0  0
 83162  1  0  0  0
 83163  1  0  0  0
 83164  1  0  0  0
 83 85  1  0  0  0
 84165  1  0  0  0
 84166  1  0  0  0
 84 87  1  0  0  0
 85 86  1  0  0  0
 85167  1  0  0  0
 86168  1  0  0  0
 87169  1  0  0  0
M  CHG  1  87   1
M  ISO  4   1 100  68 101  81 101  86 100
M  END
> <chiral flag>
0

> <version>
0

> <s_m_source_file>
/data/baiqing/PycharmProjects/Reinvent-master-3.2/result/LINK_invent/BTK/process_docking_weight1_custom_sum_contain_oxygen_bond_distance_aromatic_linkinvent_7_9_3/rearranged_h_0130.sdf

> <i_m_source_file_index>
61

> <r_mmod_Potential_Energy-OPLS-2005>
-196.424957275391

> <r_mmod_Stretch_Energy-OPLS-2005>
37.9583358764648

> <r_mmod_Bend_Energy-OPLS-2005>
101.336837768555

> <r_mmod_Torsional_Energy-OPLS-2005>
254.340042114258

> <r_mmod_Improper_Torsional_Energy-OPLS-2005>
6.99567413330078

> <r_mmod_Van_der_Waal_Energy-OPLS-2005>
153.506240844727

> <r_mmod_Electrostatic_Energy-OPLS-2005>
-334.617248535156

> <r_mmod_Solvation_Energy-OPLS-2005>
-431.030151367188

> <b_mmod_Minimization_Converged-OPLS-2005>
0

> <r_mmod_RMS_Derivative-OPLS-2005>
1.84639048576355

$$$$
61
                    3D
 Structure written by MMmdl.
161170  0  0  1  0            999 V2000
  -30.6209  -14.8242   20.4465 C   0  0  0  0  0  0
  -30.4392  -12.5081   19.4958 C   0  0  0  0  0  0
  -29.5173  -12.5033   18.2586 C   0  0  0  0  0  0
  -28.0441  -12.3247   18.6710 C   0  0  0  0  0  0
  -27.6371  -13.2320   19.8636 C   0  0  2  0  0  0
  -28.6896  -13.2256   20.9945 C   0  0  0  0  0  0
  -25.2341  -13.7741   20.5817 C   0  0  0  0  0  0
  -24.1671  -13.0078   20.9314 C   0  0  0  0  0  0
  -24.6363  -11.6635   20.8804 C   0  0  0  0  0  0
  -23.9061  -10.4057   21.0456 C   0  0  0  0  0  0
  -24.3588   -9.3997   21.9243 C   0  0  0  0  0  0
  -23.6207   -8.2074   22.0791 C   0  0  0  0  0  0
  -22.4202   -8.0169   21.3569 C   0  0  0  0  0  0
  -21.9869   -9.0143   20.4646 C   0  0  0  0  0  0
  -22.7244  -10.1968   20.3080 C   0  0  0  0  0  0
  -21.6788   -6.0667   22.5302 C   0  0  0  0  0  0
  -21.3954   -6.5584   23.8234 C   0  0  0  0  0  0
  -21.3653   -5.6743   24.9214 C   0  0  0  0  0  0
  -21.6046   -4.3025   24.7247 C   0  0  0  0  0  0
  -21.8809   -3.8082   23.4373 C   0  0  0  0  0  0
  -21.9155   -4.6890   22.3426 C   0  0  0  0  0  0
  -22.7706  -13.4981   21.1879 C   0  0  0  0  0  0
  -22.1615   -4.2085   21.0992 F   0  0  0  0  0  0
  -21.5697   -3.4518   25.7766 F   0  0  0  0  0  0
  -29.9818  -13.5964   20.3986 N   0  0  0  0  0  0
  -26.2921  -12.9185   20.3456 N   0  0  0  0  0  0
  -25.9336  -11.6313   20.5814 N   0  0  0  0  0  0
  -22.0273  -12.8164   22.0522 N   0  0  0  0  0  0
  -25.3699  -15.1283   20.4162 N   0  0  0  0  0  0
  -31.8100  -14.8812   20.1194 O   0  0  0  0  0  0
  -21.6552   -6.8806   21.4269 O   0  0  0  0  0  0
  -22.3467  -14.5290   20.6624 O   0  0  0  0  0  0
  -24.6276  -31.8579   23.2013 C   0  0  0  0  0  0
  -25.9127  -32.4761   23.8359 C   0  0  1  0  0  0
  -27.2481  -27.2785   20.1296 C   0  0  0  0  0  0
  -25.5965  -33.8568   24.2291 N   0  0  0  0  0  0
  -23.4247  -30.4768   21.5413 C   0  0  2  0  0  0
  -24.8842  -28.9242   20.1107 C   0  0  0  0  0  0
  -22.7516  -29.4579   22.4919 C   0  0  0  0  0  0
  -18.0306  -28.1376   22.8525 C   0  0  0  0  0  0
  -24.1494  -36.7256   23.2635 C   0  0  0  0  0  0
  -25.9691  -30.7730   21.3839 C   0  0  0  0  0  0
  -26.0481  -29.3955   20.7263 C   0  0  0  0  0  0
  -27.2260  -28.5813   20.7311 C   0  0  0  0  0  0
  -26.0590  -26.8758   19.4746 C   0  0  0  0  0  0
  -24.8953  -27.6746   19.4738 C   0  0  0  0  0  0
  -23.6469  -29.8058   20.1588 C   0  0  0  0  0  0
  -25.4127  -36.3073   24.0331 C   0  0  1  0  0  0
  -20.5917  -28.3672   23.1323 C   0  0  2  0  0  0
  -20.6779  -26.9397   22.5420 C   0  0  0  0  0  0
  -19.5734  -26.6394   21.5244 C   0  0  0  0  0  0
  -18.1922  -26.7930   22.1649 C   0  0  0  0  0  0
  -19.1553  -28.8852   23.2912 C   0  0  0  0  0  0
  -18.9461  -30.1460   23.8891 C   0  0  0  0  0  0
  -17.6447  -30.6575   24.0572 C   0  0  0  0  0  0
  -25.9062  -34.9438   23.5097 C   0  0  0  0  0  0
  -16.5357  -29.9047   23.6346 C   0  0  0  0  0  0
  -16.7289  -28.6482   23.0366 C   0  0  0  0  0  0
  -26.4514  -31.6570   25.0709 C   0  0  0  0  0  0
  -25.3762  -31.3689   26.1441 C   0  0  0  0  0  0
  -27.0351  -30.2999   24.6142 C   0  0  0  0  0  0
  -27.6087  -32.4298   25.7458 C   0  0  0  0  0  0
  -27.5587  -37.1786   24.8478 C   0  0  0  0  0  0
  -21.4224  -29.3026   22.3714 N   0  0  0  0  0  0
  -26.4294  -37.3777   23.9415 N   0  0  0  0  0  0
  -24.6906  -31.0543   22.0981 N   0  0  0  0  0  0
  -23.4246  -28.8133   23.3019 O   0  0  0  0  0  0
  -28.3898  -26.4421   20.2106 O   0  0  0  0  0  0
  -26.5596  -34.8924   22.4629 O   0  0  0  0  0  0
  -23.5445  -32.1405   23.7327 O   0  0  0  0  0  0
  -27.7810  -19.8707   22.0767 C   0  0  0  0  0  0
  -28.3062  -21.1358   21.7930 C   0  0  0  0  0  0
  -28.2365  -18.7492   21.3547 C   0  0  0  0  0  0
  -29.4969  -18.8069   20.7188 C   0  0  0  0  0  0
  -29.3093  -21.2501   20.8245 C   0  0  0  0  0  0
  -25.7357  -18.2765   19.4281 C   0  0  0  0  0  0
  -27.0728  -17.5241   19.4123 C   0  0  0  0  0  0
  -25.7047  -18.1461   20.9483 C   0  0  0  0  0  0
  -27.2001  -17.7187   20.9499 C   0  0  0  0  0  0
  -30.3189  -17.4675   20.3199 C   0  0  0  0  0  0
  -29.1333  -23.9136   20.7897 C   0  0  0  0  0  0
  -28.4182  -24.9932   19.8152 C   0  0  0  0  0  0
  -29.9659  -20.0910   20.3987 N   0  0  0  0  0  0
  -29.5817  -22.5528   20.2599 N   0  0  0  0  0  0
  -29.8976  -16.0042   20.6401 N   0  0  0  0  0  0
  -31.4723  -12.6479   19.1743 H   0  0  0  0  0  0
  -30.4177  -11.5451   20.0110 H   0  0  0  0  0  0
  -29.7998  -11.7061   17.5731 H   0  0  0  0  0  0
  -29.6439  -13.4365   17.7087 H   0  0  0  0  0  0
  -27.9200  -11.2764   18.9398 H   0  0  0  0  0  0
  -27.3812  -12.5004   17.8242 H   0  0  0  0  0  0
  -27.6058  -14.2394   19.4543 H   0  0  0  0  0  0
  -28.7544  -12.2483   21.4709 H   0  0  0  0  0  0
  -28.4151  -13.9365   21.7766 H   0  0  0  0  0  0
  -25.2700   -9.5404   22.4900 H   0  0  0  0  0  0
  -23.9877   -7.4416   22.7468 H   0  0  0  0  0  0
  -21.0850   -8.8678   19.8856 H   0  0  0  0  0  0
  -22.3773  -10.9538   19.6204 H   0  0  0  0  0  0
  -21.1916   -7.6083   23.9756 H   0  0  0  0  0  0
  -21.1539   -6.0469   25.9141 H   0  0  0  0  0  0
  -22.0608   -2.7540   23.2897 H   0  0  0  0  0  0
  -22.3840  -11.9973   22.5193 H   0  0  0  0  0  0
  -21.0927  -13.1344   22.2686 H   0  0  0  0  0  0
  -24.5957  -15.7648   20.5670 H   0  0  0  0  0  0
  -26.2234  -15.5990   20.1521 H   0  0  0  0  0  0
  -26.7158  -32.5444   23.1085 H   0  0  0  0  0  0
  -25.0208  -33.9712   25.0509 H   0  0  0  0  0  0
  -22.7172  -31.2950   21.3944 H   0  0  0  0  0  0
  -23.3782  -35.9561   23.3290 H   0  0  0  0  0  0
  -24.3603  -36.8871   22.2058 H   0  0  0  0  0  0
  -23.7229  -37.6445   23.6649 H   0  0  0  0  0  0
  -26.1063  -31.5364   20.6172 H   0  0  0  0  0  0
  -26.8469  -30.8287   22.0134 H   0  0  0  0  0  0
  -28.1157  -28.9319   21.2343 H   0  0  0  0  0  0
  -25.9860  -25.9316   18.9574 H   0  0  0  0  0  0
  -24.0078  -27.3144   18.9722 H   0  0  0  0  0  0
  -23.7637  -30.5802   19.4011 H   0  0  0  0  0  0
  -22.7668  -29.2344   19.8560 H   0  0  0  0  0  0
  -25.1307  -36.1905   25.0825 H   0  0  0  0  0  0
  -21.0029  -28.3217   24.1426 H   0  0  0  0  0  0
  -20.5751  -26.2244   23.3594 H   0  0  0  0  0  0
  -21.6631  -26.7430   22.1157 H   0  0  0  0  0  0
  -19.6877  -25.6316   21.1210 H   0  0  0  0  0  0
  -19.6664  -27.3249   20.6809 H   0  0  0  0  0  0
  -17.4203  -26.6772   21.4027 H   0  0  0  0  0  0
  -18.0266  -26.0040   22.9007 H   0  0  0  0  0  0
  -19.7933  -30.7328   24.2223 H   0  0  0  0  0  0
  -17.4983  -31.6256   24.5177 H   0  0  0  0  0  0
  -15.5341  -30.2931   23.7665 H   0  0  0  0  0  0
  -15.8703  -28.0791   22.7043 H   0  0  0  0  0  0
  -24.5970  -30.6980   25.7776 H   0  0  0  0  0  0
  -24.8914  -32.2853   26.4832 H   0  0  0  0  0  0
  -25.8128  -30.8913   27.0228 H   0  0  0  0  0  0
  -26.2914  -29.6738   24.1198 H   0  0  0  0  0  0
  -27.4098  -29.7243   25.4612 H   0  0  0  0  0  0
  -27.8765  -30.4257   23.9325 H   0  0  0  0  0  0
  -27.2707  -33.3616   26.2004 H   0  0  0  0  0  0
  -28.3907  -32.6833   25.0278 H   0  0  0  0  0  0
  -28.0741  -31.8442   26.5397 H   0  0  0  0  0  0
  -28.2595  -38.0091   24.7525 H   0  0  0  0  0  0
  -28.1078  -36.2618   24.6288 H   0  0  0  0  0  0
  -27.2289  -37.1418   25.8874 H   0  0  0  0  0  0
  -20.9399  -29.8730   21.6901 H   0  0  0  0  0  0
  -26.0167  -38.2831   24.1447 H   0  0  0  0  0  0
  -26.9005  -19.8204   22.6961 H   0  0  0  0  0  0
  -27.8031  -21.9855   22.2342 H   0  0  0  0  0  0
  -24.9131  -17.7760   18.9125 H   0  0  0  0  0  0
  -25.8311  -19.3199   19.1150 H   0  0  0  0  0  0
  -27.8302  -18.0317   18.8120 H   0  0  0  0  0  0
  -26.9817  -16.4943   19.0667 H   0  0  0  0  0  0
  -25.0239  -17.3820   21.3133 H   0  0  0  0  0  0
  -25.4394  -19.0889   21.4263 H   0  0  0  0  0  0
  -27.3392  -16.7920   21.5059 H   0  0  0  0  0  0
  -31.3085  -17.5986   20.7609 H   0  0  0  0  0  0
  -30.4925  -17.5159   19.2448 H   0  0  0  0  0  0
  -28.5009  -23.8076   21.6697 H   0  0  0  0  0  0
  -30.0371  -24.3856   21.1785 H   0  0  0  0  0  0
  -27.4166  -24.6097   19.6283 H   0  0  0  0  0  0
  -28.9182  -24.9651   18.8451 H   0  0  0  0  0  0
  -30.3363  -22.5885   19.5822 H   0  0  0  0  0  0
  -28.9412  -15.8878   20.9296 H   0  0  0  0  0  0
  1 25  1  0  0  0
  1 30  2  0  0  0
  1 85  1  0  0  0
  2  3  1  0  0  0
  2 25  1  0  0  0
  2 86  1  0  0  0
  2 87  1  0  0  0
  3  4  1  0  0  0
  3 88  1  0  0  0
  3 89  1  0  0  0
  4  5  1  0  0  0
  4 90  1  0  0  0
  4 91  1  0  0  0
  5  6  1  0  0  0
  5 26  1  0  0  0
  5 92  1  0  0  0
  6 25  1  0  0  0
  6 93  1  0  0  0
  6 94  1  0  0  0
  7  8  2  0  0  0
  7 26  1  0  0  0
  7 29  1  0  0  0
  8  9  1  0  0  0
  8 22  1  0  0  0
  9 10  1  0  0  0
  9 27  2  0  0  0
 10 11  2  0  0  0
 10 15  1  0  0  0
 11 12  1  0  0  0
 11 95  1  0  0  0
 12 13  2  0  0  0
 12 96  1  0  0  0
 13 14  1  0  0  0
 13 31  1  0  0  0
 14 15  2  0  0  0
 14 97  1  0  0  0
 15 98  1  0  0  0
 16 17  2  0  0  0
 16 21  1  0  0  0
 16 31  1  0  0  0
 17 18  1  0  0  0
 17 99  1  0  0  0
 18 19  2  0  0  0
 18100  1  0  0  0
 19 20  1  0  0  0
 19 24  1  0  0  0
 20 21  2  0  0  0
 20101  1  0  0  0
 21 23  1  0  0  0
 22 28  1  0  0  0
 22 32  2  0  0  0
 26 27  1  0  0  0
 28102  1  0  0  0
 28103  1  0  0  0
 29104  1  0  0  0
 29105  1  0  0  0
 33 34  1  0  0  0
 33 66  1  0  0  0
 33 70  2  0  0  0
 34 36  1  0  0  0
 34 59  1  0  0  0
 34106  1  0  0  0
 35 44  2  0  0  0
 35 45  1  0  0  0
 35 68  1  0  0  0
 36 56  1  0  0  0
 36107  1  0  0  0
 37 39  1  0  0  0
 37 47  1  0  0  0
 37 66  1  0  0  0
 37108  1  0  0  0
 38 43  2  0  0  0
 38 46  1  0  0  0
 38 47  1  0  0  0
 39 64  1  0  0  0
 39 67  2  0  0  0
 40 52  1  0  0  0
 40 53  2  0  0  0
 40 58  1  0  0  0
 41109  1  0  0  0
 41110  1  0  0  0
 41111  1  0  0  0
 41 48  1  0  0  0
 42 43  1  0  0  0
 42 66  1  0  0  0
 42112  1  0  0  0
 42113  1  0  0  0
 43 44  1  0  0  0
 44114  1  0  0  0
 45 46  2  0  0  0
 45115  1  0  0  0
 46116  1  0  0  0
 47117  1  0  0  0
 47118  1  0  0  0
 48 56  1  0  0  0
 48 65  1  0  0  0
 48119  1  0  0  0
 49 50  1  0  0  0
 49 53  1  0  0  0
 49 64  1  0  0  0
 49120  1  0  0  0
 50 51  1  0  0  0
 50121  1  0  0  0
 50122  1  0  0  0
 51 52  1  0  0  0
 51123  1  0  0  0
 51124  1  0  0  0
 52125  1  0  0  0
 52126  1  0  0  0
 53 54  1  0  0  0
 54 55  2  0  0  0
 54127  1  0  0  0
 55 57  1  0  0  0
 55128  1  0  0  0
 56 69  2  0  0  0
 57 58  2  0  0  0
 57129  1  0  0  0
 58130  1  0  0  0
 59 60  1  0  0  0
 59 61  1  0  0  0
 59 62  1  0  0  0
 60131  1  0  0  0
 60132  1  0  0  0
 60133  1  0  0  0
 61134  1  0  0  0
 61135  1  0  0  0
 61136  1  0  0  0
 62137  1  0  0  0
 62138  1  0  0  0
 62139  1  0  0  0
 63 65  1  0  0  0
 63140  1  0  0  0
 63141  1  0  0  0
 63142  1  0  0  0
 64143  1  0  0  0
 65144  1  0  0  0
 68 82  1  0  0  0
 71 72  2  0  0  0
 71 73  1  0  0  0
 71145  1  0  0  0
 72 75  1  0  0  0
 72146  1  0  0  0
 73 74  2  0  0  0
 73 79  1  0  0  0
 74 80  1  0  0  0
 74 83  1  0  0  0
 75 83  2  0  0  0
 75 84  1  0  0  0
 76 77  1  0  0  0
 76 78  1  0  0  0
 76147  1  0  0  0
 76148  1  0  0  0
 77 79  1  0  0  0
 77149  1  0  0  0
 77150  1  0  0  0
 78 79  1  0  0  0
 78151  1  0  0  0
 78152  1  0  0  0
 79153  1  0  0  0
 80 85  1  0  0  0
 80154  1  0  0  0
 80155  1  0  0  0
 81 82  1  0  0  0
 81 84  1  0  0  0
 81156  1  0  0  0
 81157  1  0  0  0
 82158  1  0  0  0
 82159  1  0  0  0
 84160  1  0  0  0
 85161  1  0  0  0
M  ISO  4   1 100  68 101  82 101  85 100
M  END
> <chiral flag>
0

> <version>
0

> <s_m_source_file>
/data/baiqing/PycharmProjects/Reinvent-master-3.2/result/LINK_invent/BTK/process_docking_weight1_custom_sum_contain_oxygen_bond_distance_aromatic_linkinvent_7_9_3/rearranged_h_0130.sdf

> <i_m_source_file_index>
62

> <r_mmod_Potential_Energy-OPLS-2005>
5.06341123580933

> <r_mmod_Stretch_Energy-OPLS-2005>
140.80387878418

> <r_mmod_Bend_Energy-OPLS-2005>
214.271820068359

> <r_mmod_Torsional_Energy-OPLS-2005>
303.276794433594

> <r_mmod_Improper_Torsional_Energy-OPLS-2005>
9.63780784606934

> <r_mmod_Van_der_Waal_Energy-OPLS-2005>
156.201522827148

> <r_mmod_Electrostatic_Energy-OPLS-2005>
-688.339111328125

> <r_mmod_Solvation_Energy-OPLS-2005>
-231.354125976562

> <b_mmod_Minimization_Converged-OPLS-2005>
0

> <r_mmod_RMS_Derivative-OPLS-2005>
5.54532909393311

$$$$
62
                    3D
 Structure written by MMmdl.
180189  0  0  1  0            999 V2000
  -30.5234  -14.8782   20.4494 C   0  0  0  0  0  0
  -30.4509  -12.5391   19.4872 C   0  0  0  0  0  0
  -29.5226  -12.5289   18.2493 C   0  0  0  0  0  0
  -28.0509  -12.3271   18.6613 C   0  0  0  0  0  0
  -27.6411  -13.2341   19.8511 C   0  0  2  0  0  0
  -28.6845  -13.1917   20.9883 C   0  0  0  0  0  0
  -25.2522  -13.8195   20.5711 C   0  0  0  0  0  0
  -24.1828  -13.0440   20.9238 C   0  0  0  0  0  0
  -24.6419  -11.6919   20.8779 C   0  0  0  0  0  0
  -23.9094  -10.4296   21.0435 C   0  0  0  0  0  0
  -24.3641   -9.4202   21.9202 C   0  0  0  0  0  0
  -23.6312   -8.2242   22.0766 C   0  0  0  0  0  0
  -22.4294   -8.0287   21.3552 C   0  0  0  0  0  0
  -21.9936   -9.0262   20.4647 C   0  0  0  0  0  0
  -22.7271  -10.2141   20.3070 C   0  0  0  0  0  0
  -21.6850   -6.0751   22.5285 C   0  0  0  0  0  0
  -21.4011   -6.5656   23.8217 C   0  0  0  0  0  0
  -21.3657   -5.6808   24.9182 C   0  0  0  0  0  0
  -21.6045   -4.3071   24.7228 C   0  0  0  0  0  0
  -21.8821   -3.8161   23.4350 C   0  0  0  0  0  0
  -21.9191   -4.6982   22.3406 C   0  0  0  0  0  0
  -22.7850  -13.5222   21.1882 C   0  0  0  0  0  0
  -22.1661   -4.2171   21.0984 F   0  0  0  0  0  0
  -21.5623   -3.4546   25.7736 F   0  0  0  0  0  0
  -29.9717  -13.6031   20.4099 N   0  0  0  0  0  0
  -26.2941  -12.9401   20.3270 N   0  0  0  0  0  0
  -25.9345  -11.6547   20.5760 N   0  0  0  0  0  0
  -22.0491  -12.8194   22.0411 N   0  0  0  0  0  0
  -25.4180  -15.1926   20.4093 N   0  0  0  0  0  0
  -31.7096  -15.0089   20.1211 O   0  0  0  0  0  0
  -21.6643   -6.8897   21.4252 O   0  0  0  0  0  0
  -22.3547  -14.5532   20.6723 O   0  0  0  0  0  0
  -24.6385  -31.8484   23.1889 C   0  0  0  0  0  0
  -25.9178  -32.4712   23.8271 C   0  0  1  0  0  0
  -27.2254  -27.1869   20.1506 C   0  0  0  0  0  0
  -25.5956  -33.8514   24.2198 N   0  0  0  0  0  0
  -23.4402  -30.4663   21.5350 C   0  0  2  0  0  0
  -24.8899  -28.8917   20.1170 C   0  0  0  0  0  0
  -22.7540  -29.4567   22.4883 C   0  0  0  0  0  0
  -18.0298  -28.1404   22.8476 C   0  0  0  0  0  0
  -24.1490  -36.7252   23.2640 C   0  0  0  0  0  0
  -25.9906  -30.7384   21.3776 C   0  0  0  0  0  0
  -26.0654  -29.3513   20.7248 C   0  0  0  0  0  0
  -27.2390  -28.5167   20.7184 C   0  0  0  0  0  0
  -26.0236  -26.8042   19.5220 C   0  0  0  0  0  0
  -24.8777  -27.6295   19.5018 C   0  0  0  0  0  0
  -23.6637  -29.7899   20.1563 C   0  0  0  0  0  0
  -25.4120  -36.3034   24.0316 C   0  0  1  0  0  0
  -20.5906  -28.3721   23.1246 C   0  0  2  0  0  0
  -20.6783  -26.9433   22.5405 C   0  0  0  0  0  0
  -19.5757  -26.6391   21.5209 C   0  0  0  0  0  0
  -18.1939  -26.7946   22.1620 C   0  0  0  0  0  0
  -19.1553  -28.8882   23.2853 C   0  0  0  0  0  0
  -18.9472  -30.1486   23.8872 C   0  0  0  0  0  0
  -17.6467  -30.6602   24.0566 C   0  0  0  0  0  0
  -25.9074  -34.9412   23.5062 C   0  0  0  0  0  0
  -16.5360  -29.9096   23.6344 C   0  0  0  0  0  0
  -16.7282  -28.6518   23.0358 C   0  0  0  0  0  0
  -26.4531  -31.6560   25.0690 C   0  0  0  0  0  0
  -25.3735  -31.3733   26.1400 C   0  0  0  0  0  0
  -27.0402  -30.2967   24.6227 C   0  0  0  0  0  0
  -27.6054  -32.4328   25.7491 C   0  0  0  0  0  0
  -27.5574  -37.1781   24.8465 C   0  0  0  0  0  0
  -21.4237  -29.3050   22.3624 N   0  0  0  0  0  0
  -26.4282  -37.3745   23.9416 N   0  0  0  0  0  0
  -24.7094  -31.0377   22.0898 N   0  0  0  0  0  0
  -23.4204  -28.8127   23.3026 O   0  0  0  0  0  0
  -28.3130  -26.2600   20.1333 O   0  0  0  0  0  0
  -26.5647  -34.8906   22.4633 O   0  0  0  0  0  0
  -23.5518  -32.1338   23.7147 O   0  0  0  0  0  0
  -28.3937  -18.0969   21.0713 C   0  0  0  0  0  0
  -28.1558  -19.5246   21.0795 C   0  0  0  0  0  0
  -29.1600  -20.4638   20.6543 C   0  0  0  0  0  0
  -30.3347  -19.7611   20.1975 C   0  0  0  0  0  0
  -29.5994  -17.4717   20.6328 C   0  0  0  0  0  0
  -24.5022  -19.5424   22.0543 C   0  0  0  0  0  0
  -25.5794  -19.3646   20.9895 C   0  0  0  0  0  0
  -25.2659  -19.4754   23.3836 C   0  0  0  0  0  0
  -26.8130  -20.0137   21.6342 C   0  0  1  0  0  0
  -31.5288  -20.5591   19.7125 C   0  0  0  0  0  0
  -29.0942  -22.0894   20.9546 C   0  0  0  0  0  0
  -28.6375  -23.3772   20.0090 C   0  0  0  0  0  0
  -27.3836  -20.4117   25.4489 C   0  0  0  0  0  0
  -28.1501  -21.4613   26.2762 C   0  0  0  0  0  0
  -27.3313  -20.7849   23.9529 C   0  0  0  0  0  0
  -28.2340  -21.1090   27.7735 C   0  0  0  0  0  0
  -28.1762  -24.8344   20.6893 C   0  0  0  0  0  0
  -30.5317  -18.3772   20.1853 N   0  0  0  0  0  0
  -29.6520  -15.9552   20.7132 N   0  0  0  0  0  0
  -26.6950  -19.7541   23.0903 N   0  3  1  0  0  0
  -28.9908  -22.1136   28.5400 N   0  3  0  0  0  0
  -31.4839  -12.7057   19.1764 H   0  0  0  0  0  0
  -30.4404  -11.5687   19.9854 H   0  0  0  0  0  0
  -29.8252  -11.7450   17.5538 H   0  0  0  0  0  0
  -29.6242  -13.4710   17.7075 H   0  0  0  0  0  0
  -27.9249  -11.2791   18.9365 H   0  0  0  0  0  0
  -27.3925  -12.4969   17.8091 H   0  0  0  0  0  0
  -27.6227  -14.2498   19.4561 H   0  0  0  0  0  0
  -28.7547  -12.1898   21.4144 H   0  0  0  0  0  0
  -28.3932  -13.8481   21.8093 H   0  0  0  0  0  0
  -25.2792   -9.5666   22.4769 H   0  0  0  0  0  0
  -24.0013   -7.4634   22.7489 H   0  0  0  0  0  0
  -21.0871   -8.8796   19.8944 H   0  0  0  0  0  0
  -22.3746  -10.9692   19.6180 H   0  0  0  0  0  0
  -21.2005   -7.6164   23.9724 H   0  0  0  0  0  0
  -21.1474   -6.0541   25.9086 H   0  0  0  0  0  0
  -22.0600   -2.7623   23.2845 H   0  0  0  0  0  0
  -22.4106  -11.9843   22.4773 H   0  0  0  0  0  0
  -21.1097  -13.1200   22.2604 H   0  0  0  0  0  0
  -24.6151  -15.8099   20.4556 H   0  0  0  0  0  0
  -26.2067  -15.6071   19.9309 H   0  0  0  0  0  0
  -26.7241  -32.5349   23.1000 H   0  0  0  0  0  0
  -25.0103  -33.9642   25.0351 H   0  0  0  0  0  0
  -22.7392  -31.2894   21.3803 H   0  0  0  0  0  0
  -23.3761  -35.9573   23.3278 H   0  0  0  0  0  0
  -24.3567  -36.8913   22.2056 H   0  0  0  0  0  0
  -23.7234  -37.6437   23.6695 H   0  0  0  0  0  0
  -26.1341  -31.4937   20.6041 H   0  0  0  0  0  0
  -26.8644  -30.7928   22.0152 H   0  0  0  0  0  0
  -28.1437  -28.8721   21.1908 H   0  0  0  0  0  0
  -25.9643  -25.8347   19.0485 H   0  0  0  0  0  0
  -23.9783  -27.2723   19.0190 H   0  0  0  0  0  0
  -23.7926  -30.5618   19.3967 H   0  0  0  0  0  0
  -22.7799  -29.2266   19.8508 H   0  0  0  0  0  0
  -25.1303  -36.1855   25.0807 H   0  0  0  0  0  0
  -20.9988  -28.3312   24.1368 H   0  0  0  0  0  0
  -20.5677  -26.2339   23.3616 H   0  0  0  0  0  0
  -21.6650  -26.7447   22.1204 H   0  0  0  0  0  0
  -19.6921  -25.6296   21.1253 H   0  0  0  0  0  0
  -19.6695  -27.3186   20.6727 H   0  0  0  0  0  0
  -17.4207  -26.6690   21.4027 H   0  0  0  0  0  0
  -18.0339  -26.0099   22.9025 H   0  0  0  0  0  0
  -19.7951  -30.7313   24.2220 H   0  0  0  0  0  0
  -17.5028  -31.6279   24.5176 H   0  0  0  0  0  0
  -15.5364  -30.2990   23.7691 H   0  0  0  0  0  0
  -15.8685  -28.0839   22.7070 H   0  0  0  0  0  0
  -24.5913  -30.7077   25.7728 H   0  0  0  0  0  0
  -24.8926  -32.2915   26.4780 H   0  0  0  0  0  0
  -25.8038  -30.8941   27.0203 H   0  0  0  0  0  0
  -26.3009  -29.6684   24.1239 H   0  0  0  0  0  0
  -27.4059  -29.7254   25.4771 H   0  0  0  0  0  0
  -27.8892  -30.4218   23.9500 H   0  0  0  0  0  0
  -27.2627  -33.3640   26.2008 H   0  0  0  0  0  0
  -28.3902  -32.6868   25.0357 H   0  0  0  0  0  0
  -28.0678  -31.8497   26.5466 H   0  0  0  0  0  0
  -28.2570  -38.0102   24.7533 H   0  0  0  0  0  0
  -28.1103  -36.2628   24.6273 H   0  0  0  0  0  0
  -27.2297  -37.1396   25.8873 H   0  0  0  0  0  0
  -20.9446  -29.8754   21.6795 H   0  0  0  0  0  0
  -26.0149  -38.2813   24.1436 H   0  0  0  0  0  0
  -27.6168  -17.4407   21.4366 H   0  0  0  0  0  0
  -23.7142  -18.7907   21.9856 H   0  0  0  0  0  0
  -24.0344  -20.5222   21.9463 H   0  0  0  0  0  0
  -25.3189  -19.8171   20.0328 H   0  0  0  0  0  0
  -25.7189  -18.2994   20.8141 H   0  0  0  0  0  0
  -25.1885  -18.4802   23.8230 H   0  0  0  0  0  0
  -24.8370  -20.1778   24.0993 H   0  0  0  0  0  0
  -26.6962  -21.0832   21.4614 H   0  0  0  0  0  0
  -31.2032  -21.3796   19.0719 H   0  0  0  0  0  0
  -32.2213  -19.9407   19.1393 H   0  0  0  0  0  0
  -32.0714  -20.9805   20.5584 H   0  0  0  0  0  0
  -30.0962  -22.3416   21.3046 H   0  0  0  0  0  0
  -28.5098  -22.2123   21.8597 H   0  0  0  0  0  0
  -27.8089  -23.0556   19.3782 H   0  0  0  0  0  0
  -29.4552  -23.5700   19.3145 H   0  0  0  0  0  0
  -26.3755  -20.3072   25.8515 H   0  0  0  0  0  0
  -27.8672  -19.4405   25.5651 H   0  0  0  0  0  0
  -27.6704  -22.4345   26.1598 H   0  0  0  0  0  0
  -29.1586  -21.5666   25.8731 H   0  0  0  0  0  0
  -28.3597  -20.9192   23.6188 H   0  0  0  0  0  0
  -26.8263  -21.7437   23.8185 H   0  0  0  0  0  0
  -28.7100  -20.1363   27.9053 H   0  0  0  0  0  0
  -27.2320  -21.0277   28.1969 H   0  0  0  0  0  0
  -28.7340  -24.8956   21.6243 H   0  0  0  0  0  0
  -27.1450  -24.7123   21.0200 H   0  0  0  0  0  0
  -28.7646  -15.5772   21.0007 H   0  0  0  0  0  0
  -27.1978  -18.8920   23.2401 H   0  0  0  0  0  0
  -29.9385  -22.1786   28.2139 H   0  0  0  0  0  0
  -29.0149  -21.8560   29.5108 H   0  0  0  0  0  0
  -28.5616  -23.0186   28.4704 H   0  0  0  0  0  0
  1 25  1  0  0  0
  1 30  2  0  0  0
  1 89  1  0  0  0
  2  3  1  0  0  0
  2 25  1  0  0  0
  2 92  1  0  0  0
  2 93  1  0  0  0
  3  4  1  0  0  0
  3 94  1  0  0  0
  3 95  1  0  0  0
  4  5  1  0  0  0
  4 96  1  0  0  0
  4 97  1  0  0  0
  5  6  1  0  0  0
  5 26  1  0  0  0
  5 98  1  0  0  0
  6 25  1  0  0  0
  6 99  1  0  0  0
  6100  1  0  0  0
  7  8  2  0  0  0
  7 26  1  0  0  0
  7 29  1  0  0  0
  8  9  1  0  0  0
  8 22  1  0  0  0
  9 10  1  0  0  0
  9 27  2  0  0  0
 10 11  2  0  0  0
 10 15  1  0  0  0
 11 12  1  0  0  0
 11101  1  0  0  0
 12 13  2  0  0  0
 12102  1  0  0  0
 13 14  1  0  0  0
 13 31  1  0  0  0
 14 15  2  0  0  0
 14103  1  0  0  0
 15104  1  0  0  0
 16 17  2  0  0  0
 16 21  1  0  0  0
 16 31  1  0  0  0
 17 18  1  0  0  0
 17105  1  0  0  0
 18 19  2  0  0  0
 18106  1  0  0  0
 19 20  1  0  0  0
 19 24  1  0  0  0
 20 21  2  0  0  0
 20107  1  0  0  0
 21 23  1  0  0  0
 22 28  1  0  0  0
 22 32  2  0  0  0
 26 27  1  0  0  0
 28108  1  0  0  0
 28109  1  0  0  0
 29110  1  0  0  0
 29111  1  0  0  0
 33 34  1  0  0  0
 33 66  1  0  0  0
 33 70  2  0  0  0
 34 36  1  0  0  0
 34 59  1  0  0  0
 34112  1  0  0  0
 35 44  2  0  0  0
 35 45  1  0  0  0
 35 68  1  0  0  0
 36 56  1  0  0  0
 36113  1  0  0  0
 37 39  1  0  0  0
 37 47  1  0  0  0
 37 66  1  0  0  0
 37114  1  0  0  0
 38 43  2  0  0  0
 38 46  1  0  0  0
 38 47  1  0  0  0
 39 64  1  0  0  0
 39 67  2  0  0  0
 40 52  1  0  0  0
 40 53  2  0  0  0
 40 58  1  0  0  0
 41115  1  0  0  0
 41116  1  0  0  0
 41117  1  0  0  0
 41 48  1  0  0  0
 42 43  1  0  0  0
 42 66  1  0  0  0
 42118  1  0  0  0
 42119  1  0  0  0
 43 44  1  0  0  0
 44120  1  0  0  0
 45 46  2  0  0  0
 45121  1  0  0  0
 46122  1  0  0  0
 47123  1  0  0  0
 47124  1  0  0  0
 48 56  1  0  0  0
 48 65  1  0  0  0
 48125  1  0  0  0
 49 50  1  0  0  0
 49 53  1  0  0  0
 49 64  1  0  0  0
 49126  1  0  0  0
 50 51  1  0  0  0
 50127  1  0  0  0
 50128  1  0  0  0
 51 52  1  0  0  0
 51129  1  0  0  0
 51130  1  0  0  0
 52131  1  0  0  0
 52132  1  0  0  0
 53 54  1  0  0  0
 54 55  2  0  0  0
 54133  1  0  0  0
 55 57  1  0  0  0
 55134  1  0  0  0
 56 69  2  0  0  0
 57 58  2  0  0  0
 57135  1  0  0  0
 58136  1  0  0  0
 59 60  1  0  0  0
 59 61  1  0  0  0
 59 62  1  0  0  0
 60137  1  0  0  0
 60138  1  0  0  0
 60139  1  0  0  0
 61140  1  0  0  0
 61141  1  0  0  0
 61142  1  0  0  0
 62143  1  0  0  0
 62144  1  0  0  0
 62145  1  0  0  0
 63 65  1  0  0  0
 63146  1  0  0  0
 63147  1  0  0  0
 63148  1  0  0  0
 64149  1  0  0  0
 65150  1  0  0  0
 68 87  1  0  0  0
 71 72  2  0  0  0
 71 75  1  0  0  0
 71151  1  0  0  0
 72 73  1  0  0  0
 72 79  1  0  0  0
 73 74  2  0  0  0
 73 81  1  0  0  0
 74 80  1  0  0  0
 74 88  1  0  0  0
 75 88  2  0  0  0
 75 89  1  0  0  0
 76 77  1  0  0  0
 76 78  1  0  0  0
 76152  1  0  0  0
 76153  1  0  0  0
 77 79  1  0  0  0
 77154  1  0  0  0
 77155  1  0  0  0
 78 90  1  0  0  0
 78156  1  0  0  0
 78157  1  0  0  0
 79 90  1  0  0  0
 79158  1  0  0  0
 80159  1  0  0  0
 80160  1  0  0  0
 80161  1  0  0  0
 81 82  1  0  0  0
 81162  1  0  0  0
 81163  1  0  0  0
 82 87  1  0  0  0
 82164  1  0  0  0
 82165  1  0  0  0
 83 84  1  0  0  0
 83 85  1  0  0  0
 83166  1  0  0  0
 83167  1  0  0  0
 84 86  1  0  0  0
 84168  1  0  0  0
 84169  1  0  0  0
 85170  1  0  0  0
 85171  1  0  0  0
 85 90  1  0  0  0
 86 91  1  0  0  0
 86172  1  0  0  0
 86173  1  0  0  0
 87174  1  0  0  0
 87175  1  0  0  0
 89176  1  0  0  0
 90177  1  0  0  0
 91178  1  0  0  0
 91179  1  0  0  0
 91180  1  0  0  0
M  CHG  2  90   1  91   1
M  ISO  4   1 100  68 101  87 101  89 100
M  END
> <chiral flag>
0

> <version>
0

> <s_m_source_file>
/data/baiqing/PycharmProjects/Reinvent-master-3.2/result/LINK_invent/BTK/process_docking_weight1_custom_sum_contain_oxygen_bond_distance_aromatic_linkinvent_7_9_3/rearranged_h_0130.sdf

> <i_m_source_file_index>
63

> <r_mmod_Potential_Energy-OPLS-2005>
-89.9173889160156

> <r_mmod_Stretch_Energy-OPLS-2005>
201.694137573242

> <r_mmod_Bend_Energy-OPLS-2005>
287.140930175781

> <r_mmod_Torsional_Energy-OPLS-2005>
294.492401123047

> <r_mmod_Improper_Torsional_Energy-OPLS-2005>
6.65317153930664

> <r_mmod_Van_der_Waal_Energy-OPLS-2005>
122.465942382812

> <r_mmod_Electrostatic_Energy-OPLS-2005>
-139.861434936523

> <r_mmod_Solvation_Energy-OPLS-2005>
-1004.80627441406

> <b_mmod_Minimization_Converged-OPLS-2005>
0

> <r_mmod_RMS_Derivative-OPLS-2005>
1.41780996322632

$$$$
63
                    3D
 Structure written by MMmdl.
167176  0  0  1  0            999 V2000
  -30.6682  -14.6109   20.5082 C   0  0  0  0  0  0
  -30.4235  -12.3805   19.4485 C   0  0  0  0  0  0
  -29.4999  -12.4985   18.2185 C   0  0  0  0  0  0
  -28.0239  -12.3427   18.6334 C   0  0  0  0  0  0
  -27.6485  -13.2215   19.8570 C   0  0  2  0  0  0
  -28.6933  -13.0982   20.9876 C   0  0  0  0  0  0
  -25.2540  -13.8186   20.5683 C   0  0  0  0  0  0
  -24.1816  -13.0444   20.9191 C   0  0  0  0  0  0
  -24.6389  -11.6917   20.8737 C   0  0  0  0  0  0
  -23.9061  -10.4295   21.0401 C   0  0  0  0  0  0
  -24.3615   -9.4210   21.9178 C   0  0  0  0  0  0
  -23.6292   -8.2245   22.0751 C   0  0  0  0  0  0
  -22.4274   -8.0280   21.3542 C   0  0  0  0  0  0
  -21.9906   -9.0253   20.4642 C   0  0  0  0  0  0
  -22.7234  -10.2134   20.3051 C   0  0  0  0  0  0
  -21.6856   -6.0732   22.5277 C   0  0  0  0  0  0
  -21.4015   -6.5637   23.8209 C   0  0  0  0  0  0
  -21.3658   -5.6790   24.9172 C   0  0  0  0  0  0
  -21.6045   -4.3053   24.7225 C   0  0  0  0  0  0
  -21.8821   -3.8145   23.4346 C   0  0  0  0  0  0
  -21.9195   -4.6960   22.3401 C   0  0  0  0  0  0
  -22.7838  -13.5231   21.1856 C   0  0  0  0  0  0
  -22.1663   -4.2144   21.0980 F   0  0  0  0  0  0
  -21.5629   -3.4537   25.7737 F   0  0  0  0  0  0
  -30.0059  -13.4178   20.4117 N   0  0  0  0  0  0
  -26.2968  -12.9375   20.3301 N   0  0  0  0  0  0
  -25.9317  -11.6526   20.5749 N   0  0  0  0  0  0
  -22.0484  -12.8220   22.0410 N   0  0  0  0  0  0
  -25.4251  -15.1905   20.4090 N   0  0  0  0  0  0
  -31.8419  -14.7174   20.1453 O   0  0  0  0  0  0
  -21.6643   -6.8874   21.4237 O   0  0  0  0  0  0
  -22.3523  -14.5537   20.6702 O   0  0  0  0  0  0
  -24.6238  -31.8615   23.2041 C   0  0  0  0  0  0
  -25.9092  -32.4789   23.8362 C   0  0  1  0  0  0
  -27.2205  -27.3492   20.1127 C   0  0  0  0  0  0
  -25.5920  -33.8588   24.2289 N   0  0  0  0  0  0
  -23.4171  -30.4854   21.5446 C   0  0  2  0  0  0
  -24.8655  -28.9455   20.1066 C   0  0  0  0  0  0
  -22.7467  -29.4635   22.4929 C   0  0  0  0  0  0
  -18.0288  -28.1398   22.8492 C   0  0  0  0  0  0
  -24.1486  -36.7296   23.2638 C   0  0  0  0  0  0
  -25.9560  -30.8014   21.3715 C   0  0  0  0  0  0
  -26.0331  -29.4315   20.7124 C   0  0  0  0  0  0
  -27.2188  -28.6424   20.7101 C   0  0  0  0  0  0
  -26.0401  -26.9096   19.4792 C   0  0  0  0  0  0
  -24.8687  -27.6882   19.4811 C   0  0  0  0  0  0
  -23.6316  -29.8210   20.1588 C   0  0  0  0  0  0
  -25.4111  -36.3088   24.0330 C   0  0  1  0  0  0
  -20.5890  -28.3693   23.1289 C   0  0  2  0  0  0
  -20.6777  -26.9415   22.5420 C   0  0  0  0  0  0
  -19.5757  -26.6392   21.5222 C   0  0  0  0  0  0
  -18.1932  -26.7942   22.1628 C   0  0  0  0  0  0
  -19.1543  -28.8860   23.2888 C   0  0  0  0  0  0
  -18.9465  -30.1464   23.8902 C   0  0  0  0  0  0
  -17.6466  -30.6599   24.0571 C   0  0  0  0  0  0
  -25.9049  -34.9460   23.5110 C   0  0  0  0  0  0
  -16.5355  -29.9101   23.6337 C   0  0  0  0  0  0
  -16.7277  -28.6522   23.0351 C   0  0  0  0  0  0
  -26.4488  -31.6592   25.0720 C   0  0  0  0  0  0
  -25.3726  -31.3737   26.1453 C   0  0  0  0  0  0
  -27.0310  -30.3011   24.6150 C   0  0  0  0  0  0
  -27.6051  -32.4318   25.7488 C   0  0  0  0  0  0
  -27.5580  -37.1803   24.8463 C   0  0  0  0  0  0
  -21.4183  -29.3048   22.3677 N   0  0  0  0  0  0
  -26.4291  -37.3780   23.9409 N   0  0  0  0  0  0
  -24.6841  -31.0651   22.0975 N   0  0  0  0  0  0
  -23.4200  -28.8171   23.3000 O   0  0  0  0  0  0
  -28.2914  -26.4586   20.1666 O   0  0  0  0  0  0
  -26.5612  -34.8925   22.4671 O   0  0  0  0  0  0
  -23.5404  -32.1396   23.7389 O   0  0  0  0  0  0
  -28.3449  -21.4551   21.3682 C   0  0  0  0  0  0
  -27.8392  -22.7839   21.3750 C   0  0  0  0  0  0
  -29.7193  -23.5400   20.0834 C   0  0  0  0  0  0
  -29.5836  -21.1336   20.7642 C   0  0  0  0  0  0
  -28.5312  -23.8700   20.7768 C   0  0  0  0  0  0
  -30.2376  -22.2052   20.0679 C   0  0  0  0  0  0
  -31.6632  -18.5135   22.8545 C   0  0  0  0  0  0
  -30.9498  -17.1920   22.5516 C   0  0  0  0  0  0
  -29.5846  -18.3726   20.7525 C   0  0  0  0  0  0
  -30.2939  -19.7600   21.0924 C   0  0  2  0  0  0
  -30.7622  -19.7403   22.5836 C   0  0  2  0  0  0
  -30.4959  -17.1048   21.0850 C   0  0  2  0  0  0
  -31.5605  -21.9772   19.3538 C   0  0  0  0  0  0
  -28.0365  -25.3289   21.0707 C   0  0  0  0  0  0
  -31.4654  -21.0469   23.0366 C   0  0  0  0  0  0
  -29.9478  -15.7219   20.8586 N   0  0  0  0  0  0
  -31.7768  -21.0117   24.4197 O   0  0  0  0  0  0
  -31.4671  -12.4850   19.1457 H   0  0  0  0  0  0
  -30.3423  -11.3900   19.8994 H   0  0  0  0  0  0
  -29.7610  -11.7431   17.4761 H   0  0  0  0  0  0
  -29.6479  -13.4662   17.7366 H   0  0  0  0  0  0
  -27.8588  -11.2908   18.8693 H   0  0  0  0  0  0
  -27.3696  -12.5699   17.7911 H   0  0  0  0  0  0
  -27.6624  -14.2537   19.5069 H   0  0  0  0  0  0
  -28.6997  -12.0881   21.3995 H   0  0  0  0  0  0
  -28.4467  -13.7619   21.8178 H   0  0  0  0  0  0
  -25.2762   -9.5691   22.4750 H   0  0  0  0  0  0
  -24.0003   -7.4638   22.7472 H   0  0  0  0  0  0
  -21.0838   -8.8767   19.8952 H   0  0  0  0  0  0
  -22.3686  -10.9669   19.6159 H   0  0  0  0  0  0
  -21.2006   -7.6145   23.9711 H   0  0  0  0  0  0
  -21.1480   -6.0521   25.9075 H   0  0  0  0  0  0
  -22.0600   -2.7607   23.2848 H   0  0  0  0  0  0
  -22.4106  -11.9883   22.4796 H   0  0  0  0  0  0
  -21.1103  -13.1245   22.2619 H   0  0  0  0  0  0
  -24.6573  -15.8448   20.5145 H   0  0  0  0  0  0
  -26.2741  -15.6293   20.0760 H   0  0  0  0  0  0
  -26.7157  -32.5467   23.1116 H   0  0  0  0  0  0
  -25.0071  -33.9737   25.0432 H   0  0  0  0  0  0
  -22.7102  -31.3052   21.4025 H   0  0  0  0  0  0
  -23.3749  -35.9628   23.3305 H   0  0  0  0  0  0
  -24.3581  -36.8908   22.2052 H   0  0  0  0  0  0
  -23.7243  -37.6502   23.6651 H   0  0  0  0  0  0
  -26.0838  -31.5660   20.6039 H   0  0  0  0  0  0
  -26.8385  -30.8509   21.9980 H   0  0  0  0  0  0
  -28.1125  -29.0014   21.2017 H   0  0  0  0  0  0
  -26.0177  -25.9359   19.0093 H   0  0  0  0  0  0
  -23.9733  -27.3105   19.0065 H   0  0  0  0  0  0
  -23.7473  -30.5982   19.4025 H   0  0  0  0  0  0
  -22.7522  -29.2481   19.8582 H   0  0  0  0  0  0
  -25.1296  -36.1942   25.0823 H   0  0  0  0  0  0
  -20.9989  -28.3271   24.1408 H   0  0  0  0  0  0
  -20.5685  -26.2300   23.3619 H   0  0  0  0  0  0
  -21.6645  -26.7456   22.1205 H   0  0  0  0  0  0
  -19.6914  -25.6306   21.1249 H   0  0  0  0  0  0
  -19.6700  -27.3204   20.6754 H   0  0  0  0  0  0
  -17.4207  -26.6699   21.4023 H   0  0  0  0  0  0
  -18.0326  -26.0093   22.9030 H   0  0  0  0  0  0
  -19.7936  -30.7285   24.2267 H   0  0  0  0  0  0
  -17.5020  -31.6277   24.5180 H   0  0  0  0  0  0
  -15.5354  -30.3006   23.7660 H   0  0  0  0  0  0
  -15.8677  -28.0850   22.7048 H   0  0  0  0  0  0
  -24.5905  -30.7076   25.7797 H   0  0  0  0  0  0
  -24.8912  -32.2907   26.4859 H   0  0  0  0  0  0
  -25.8064  -30.8943   27.0237 H   0  0  0  0  0  0
  -26.2871  -29.6785   24.1165 H   0  0  0  0  0  0
  -27.3999  -29.7250   25.4646 H   0  0  0  0  0  0
  -27.8749  -30.4299   23.9367 H   0  0  0  0  0  0
  -27.2665  -33.3616   26.2071 H   0  0  0  0  0  0
  -28.3860  -32.6883   25.0315 H   0  0  0  0  0  0
  -28.0714  -31.8434   26.5401 H   0  0  0  0  0  0
  -28.2601  -38.0096   24.7507 H   0  0  0  0  0  0
  -28.1072  -36.2630   24.6291 H   0  0  0  0  0  0
  -27.2303  -37.1453   25.8866 H   0  0  0  0  0  0
  -20.9352  -29.8768   21.6891 H   0  0  0  0  0  0
  -26.0175  -38.2854   24.1417 H   0  0  0  0  0  0
  -27.8122  -20.6927   21.9196 H   0  0  0  0  0  0
  -26.9273  -22.9788   21.9225 H   0  0  0  0  0  0
  -30.2761  -24.3385   19.6115 H   0  0  0  0  0  0
  -32.5779  -18.5855   22.2647 H   0  0  0  0  0  0
  -31.9753  -18.4891   23.8988 H   0  0  0  0  0  0
  -30.0914  -17.0803   23.2162 H   0  0  0  0  0  0
  -31.6260  -16.3684   22.7866 H   0  0  0  0  0  0
  -29.3202  -18.3578   19.6949 H   0  0  0  0  0  0
  -28.6457  -18.3037   21.3026 H   0  0  0  0  0  0
  -31.2045  -19.7383   20.4978 H   0  0  0  0  0  0
  -29.8654  -19.6413   23.1976 H   0  0  0  0  0  0
  -31.3848  -17.2019   20.4583 H   0  0  0  0  0  0
  -31.8650  -22.8561   18.7851 H   0  0  0  0  0  0
  -31.4827  -21.1467   18.6512 H   0  0  0  0  0  0
  -32.3553  -21.7581   20.0667 H   0  0  0  0  0  0
  -28.4902  -25.6071   22.0225 H   0  0  0  0  0  0
  -26.9712  -25.2488   21.2943 H   0  0  0  0  0  0
  -30.8308  -21.9194   22.8807 H   0  0  0  0  0  0
  -32.3777  -21.2121   22.4617 H   0  0  0  0  0  0
  -28.9727  -15.5719   21.0711 H   0  0  0  0  0  0
  -32.3857  -20.2936   24.5619 H   0  0  0  0  0  0
  1 25  1  0  0  0
  1 30  2  0  0  0
  1 86  1  0  0  0
  2  3  1  0  0  0
  2 25  1  0  0  0
  2 88  1  0  0  0
  2 89  1  0  0  0
  3  4  1  0  0  0
  3 90  1  0  0  0
  3 91  1  0  0  0
  4  5  1  0  0  0
  4 92  1  0  0  0
  4 93  1  0  0  0
  5  6  1  0  0  0
  5 26  1  0  0  0
  5 94  1  0  0  0
  6 25  1  0  0  0
  6 95  1  0  0  0
  6 96  1  0  0  0
  7  8  2  0  0  0
  7 26  1  0  0  0
  7 29  1  0  0  0
  8  9  1  0  0  0
  8 22  1  0  0  0
  9 10  1  0  0  0
  9 27  2  0  0  0
 10 11  2  0  0  0
 10 15  1  0  0  0
 11 12  1  0  0  0
 11 97  1  0  0  0
 12 13  2  0  0  0
 12 98  1  0  0  0
 13 14  1  0  0  0
 13 31  1  0  0  0
 14 15  2  0  0  0
 14 99  1  0  0  0
 15100  1  0  0  0
 16 17  2  0  0  0
 16 21  1  0  0  0
 16 31  1  0  0  0
 17 18  1  0  0  0
 17101  1  0  0  0
 18 19  2  0  0  0
 18102  1  0  0  0
 19 20  1  0  0  0
 19 24  1  0  0  0
 20 21  2  0  0  0
 20103  1  0  0  0
 21 23  1  0  0  0
 22 28  1  0  0  0
 22 32  2  0  0  0
 26 27  1  0  0  0
 28104  1  0  0  0
 28105  1  0  0  0
 29106  1  0  0  0
 29107  1  0  0  0
 33 34  1  0  0  0
 33 66  1  0  0  0
 33 70  2  0  0  0
 34 36  1  0  0  0
 34 59  1  0  0  0
 34108  1  0  0  0
 35 44  2  0  0  0
 35 45  1  0  0  0
 35 68  1  0  0  0
 36 56  1  0  0  0
 36109  1  0  0  0
 37 39  1  0  0  0
 37 47  1  0  0  0
 37 66  1  0  0  0
 37110  1  0  0  0
 38 43  2  0  0  0
 38 46  1  0  0  0
 38 47  1  0  0  0
 39 64  1  0  0  0
 39 67  2  0  0  0
 40 52  1  0  0  0
 40 53  2  0  0  0
 40 58  1  0  0  0
 41111  1  0  0  0
 41112  1  0  0  0
 41113  1  0  0  0
 41 48  1  0  0  0
 42 43  1  0  0  0
 42 66  1  0  0  0
 42114  1  0  0  0
 42115  1  0  0  0
 43 44  1  0  0  0
 44116  1  0  0  0
 45 46  2  0  0  0
 45117  1  0  0  0
 46118  1  0  0  0
 47119  1  0  0  0
 47120  1  0  0  0
 48 56  1  0  0  0
 48 65  1  0  0  0
 48121  1  0  0  0
 49 50  1  0  0  0
 49 53  1  0  0  0
 49 64  1  0  0  0
 49122  1  0  0  0
 50 51  1  0  0  0
 50123  1  0  0  0
 50124  1  0  0  0
 51 52  1  0  0  0
 51125  1  0  0  0
 51126  1  0  0  0
 52127  1  0  0  0
 52128  1  0  0  0
 53 54  1  0  0  0
 54 55  2  0  0  0
 54129  1  0  0  0
 55 57  1  0  0  0
 55130  1  0  0  0
 56 69  2  0  0  0
 57 58  2  0  0  0
 57131  1  0  0  0
 58132  1  0  0  0
 59 60  1  0  0  0
 59 61  1  0  0  0
 59 62  1  0  0  0
 60133  1  0  0  0
 60134  1  0  0  0
 60135  1  0  0  0
 61136  1  0  0  0
 61137  1  0  0  0
 61138  1  0  0  0
 62139  1  0  0  0
 62140  1  0  0  0
 62141  1  0  0  0
 63 65  1  0  0  0
 63142  1  0  0  0
 63143  1  0  0  0
 63144  1  0  0  0
 64145  1  0  0  0
 65146  1  0  0  0
 68 84  1  0  0  0
 71 72  2  0  0  0
 71 74  1  0  0  0
 71147  1  0  0  0
 72 75  1  0  0  0
 72148  1  0  0  0
 73 75  2  0  0  0
 73 76  1  0  0  0
 73149  1  0  0  0
 74 76  2  0  0  0
 74 80  1  0  0  0
 75 84  1  0  0  0
 76 83  1  0  0  0
 77 78  1  0  0  0
 77 81  1  0  0  0
 77150  1  0  0  0
 77151  1  0  0  0
 78 82  1  0  0  0
 78152  1  0  0  0
 78153  1  0  0  0
 79 80  1  0  0  0
 79 82  1  0  0  0
 79154  1  0  0  0
 79155  1  0  0  0
 80 81  1  0  0  0
 80156  1  0  0  0
 81 85  1  0  0  0
 81157  1  0  0  0
 82 86  1  0  0  0
 82158  1  0  0  0
 83159  1  0  0  0
 83160  1  0  0  0
 83161  1  0  0  0
 84162  1  0  0  0
 84163  1  0  0  0
 85 87  1  0  0  0
 85164  1  0  0  0
 85165  1  0  0  0
 86166  1  0  0  0
 87167  1  0  0  0
M  ISO  4   1 100  68 101  84 101  86 100
M  END
> <chiral flag>
0

> <version>
0

> <s_m_source_file>
/data/baiqing/PycharmProjects/Reinvent-master-3.2/result/LINK_invent/BTK/process_docking_weight1_custom_sum_contain_oxygen_bond_distance_aromatic_linkinvent_7_9_3/rearranged_h_0130.sdf

> <i_m_source_file_index>
64

> <r_mmod_Potential_Energy-OPLS-2005>
103.109085083008

> <r_mmod_Stretch_Energy-OPLS-2005>
76.4465103149414

> <r_mmod_Bend_Energy-OPLS-2005>
137.022354125977

> <r_mmod_Torsional_Energy-OPLS-2005>
265.201232910156

> <r_mmod_Improper_Torsional_Energy-OPLS-2005>
6.04675006866455

> <r_mmod_Van_der_Waal_Energy-OPLS-2005>
148.503067016602

> <r_mmod_Electrostatic_Energy-OPLS-2005>
-357.215423583984

> <r_mmod_Solvation_Energy-OPLS-2005>
-217.557174682617

> <b_mmod_Minimization_Converged-OPLS-2005>
0

> <r_mmod_RMS_Derivative-OPLS-2005>
0.923135697841644

$$$$
64
                    3D
 Structure written by MMmdl.
163171  0  0  1  0            999 V2000
  -30.7758  -14.2969   20.7548 C   0  0  0  0  0  0
  -30.4255  -12.2861   19.3638 C   0  0  0  0  0  0
  -29.4822  -12.5516   18.1782 C   0  0  0  0  0  0
  -28.0072  -12.3910   18.5951 C   0  0  0  0  0  0
  -27.6714  -13.1890   19.8800 C   0  0  2  0  0  0
  -28.7072  -12.8814   20.9816 C   0  0  0  0  0  0
  -25.2658  -13.8122   20.5693 C   0  0  0  0  0  0
  -24.1865  -13.0426   20.9164 C   0  0  0  0  0  0
  -24.6378  -11.6884   20.8694 C   0  0  0  0  0  0
  -23.9015  -10.4285   21.0380 C   0  0  0  0  0  0
  -24.3585   -9.4202   21.9145 C   0  0  0  0  0  0
  -23.6237   -8.2265   22.0774 C   0  0  0  0  0  0
  -22.4218   -8.0283   21.3575 C   0  0  0  0  0  0
  -21.9818   -9.0259   20.4691 C   0  0  0  0  0  0
  -22.7159  -10.2127   20.3071 C   0  0  0  0  0  0
  -21.6840   -6.0720   22.5280 C   0  0  0  0  0  0
  -21.4007   -6.5649   23.8200 C   0  0  0  0  0  0
  -21.3668   -5.6831   24.9187 C   0  0  0  0  0  0
  -21.6049   -4.3088   24.7258 C   0  0  0  0  0  0
  -21.8812   -3.8154   23.4385 C   0  0  0  0  0  0
  -21.9180   -4.6943   22.3428 C   0  0  0  0  0  0
  -22.7902  -13.5255   21.1816 C   0  0  0  0  0  0
  -22.1632   -4.2104   21.1006 F   0  0  0  0  0  0
  -21.5613   -3.4587   25.7777 F   0  0  0  0  0  0
  -30.0599  -13.1838   20.4637 N   0  0  0  0  0  0
  -26.3062  -12.9254   20.3361 N   0  0  0  0  0  0
  -25.9303  -11.6429   20.5728 N   0  0  0  0  0  0
  -22.0526  -12.8333   22.0424 N   0  0  0  0  0  0
  -25.4487  -15.1836   20.4142 N   0  0  0  0  0  0
  -31.7140  -14.7239   20.0742 O   0  0  0  0  0  0
  -21.6638   -6.8847   21.4239 O   0  0  0  0  0  0
  -22.3600  -14.5546   20.6636 O   0  0  0  0  0  0
  -24.6139  -31.8708   23.2126 C   0  0  0  0  0  0
  -25.9025  -32.4849   23.8425 C   0  0  1  0  0  0
  -27.2297  -27.4564   20.0698 C   0  0  0  0  0  0
  -25.5868  -33.8645   24.2351 N   0  0  0  0  0  0
  -23.3997  -30.4973   21.5560 C   0  0  2  0  0  0
  -24.8405  -28.9701   20.1148 C   0  0  0  0  0  0
  -22.7422  -29.4664   22.5020 C   0  0  0  0  0  0
  -18.0259  -28.1376   22.8483 C   0  0  0  0  0  0
  -24.1479  -36.7343   23.2637 C   0  0  0  0  0  0
  -25.9280  -30.8439   21.3580 C   0  0  0  0  0  0
  -26.0031  -29.4789   20.7076 C   0  0  0  0  0  0
  -27.1978  -28.7283   20.6841 C   0  0  0  0  0  0
  -26.0409  -26.9583   19.4815 C   0  0  0  0  0  0
  -24.8532  -27.7077   19.5026 C   0  0  0  0  0  0
  -23.6042  -29.8353   20.1689 C   0  0  0  0  0  0
  -25.4094  -36.3141   24.0350 C   0  0  1  0  0  0
  -20.5852  -28.3651   23.1326 C   0  0  2  0  0  0
  -20.6750  -26.9391   22.5419 C   0  0  0  0  0  0
  -19.5731  -26.6380   21.5215 C   0  0  0  0  0  0
  -18.1911  -26.7918   22.1630 C   0  0  0  0  0  0
  -19.1508  -28.8828   23.2899 C   0  0  0  0  0  0
  -18.9435  -30.1428   23.8924 C   0  0  0  0  0  0
  -17.6440  -30.6578   24.0558 C   0  0  0  0  0  0
  -25.9023  -34.9494   23.5150 C   0  0  0  0  0  0
  -16.5333  -29.9092   23.6302 C   0  0  0  0  0  0
  -16.7252  -28.6507   23.0331 C   0  0  0  0  0  0
  -26.4432  -31.6622   25.0747 C   0  0  0  0  0  0
  -25.3700  -31.3739   26.1503 C   0  0  0  0  0  0
  -27.0229  -30.3071   24.6078 C   0  0  0  0  0  0
  -27.6032  -32.4324   25.7494 C   0  0  0  0  0  0
  -27.5587  -37.1826   24.8464 C   0  0  0  0  0  0
  -21.4148  -29.3031   22.3763 N   0  0  0  0  0  0
  -26.4295  -37.3819   23.9413 N   0  0  0  0  0  0
  -24.6670  -31.0827   22.1021 N   0  0  0  0  0  0
  -23.4218  -28.8169   23.3011 O   0  0  0  0  0  0
  -28.4231  -26.7645   20.0619 O   0  0  0  0  0  0
  -26.5602  -34.8937   22.4725 O   0  0  0  0  0  0
  -23.5330  -32.1426   23.7528 O   0  0  0  0  0  0
  -27.4056  -22.3013   22.5708 C   0  0  0  0  0  0
  -28.1932  -19.8829   21.5664 C   0  0  0  0  0  0
  -27.6052  -21.2415   23.4776 C   0  0  0  0  0  0
  -28.0454  -19.9953   22.9668 C   0  0  0  0  0  0
  -27.6716  -22.1029   21.2029 C   0  0  0  0  0  0
  -27.3574  -21.4763   24.9593 C   0  0  0  0  0  0
  -28.3187  -18.7928   23.8794 C   0  0  0  0  0  0
  -30.7505  -16.1454   22.4757 C   0  0  0  0  0  0
  -27.7971  -24.4981   20.7220 C   0  0  0  0  0  0
  -29.4308  -16.8108   22.9064 C   0  0  0  0  0  0
  -28.4312  -25.3981   19.6451 C   0  0  0  0  0  0
  -28.0354  -20.9119   20.7082 N   0  0  0  0  0  0
  -27.6088  -23.1277   20.2619 N   0  0  0  0  0  0
  -30.4184  -14.8416   21.9202 N   0  0  0  0  0  0
  -29.6007  -18.1006   23.6074 N   0  3  0  0  0  0
  -31.4653  -12.4156   19.0570 H   0  0  0  0  0  0
  -30.3360  -11.2497   19.6934 H   0  0  0  0  0  0
  -29.7151  -11.8764   17.3534 H   0  0  0  0  0  0
  -29.6491  -13.5624   17.8032 H   0  0  0  0  0  0
  -27.8128  -11.3287   18.7520 H   0  0  0  0  0  0
  -27.3496  -12.7003   17.7814 H   0  0  0  0  0  0
  -27.7435  -14.2491   19.6352 H   0  0  0  0  0  0
  -28.6642  -11.8232   21.2446 H   0  0  0  0  0  0
  -28.4381  -13.4094   21.8954 H   0  0  0  0  0  0
  -25.2767   -9.5647   22.4665 H   0  0  0  0  0  0
  -23.9933   -7.4679   22.7514 H   0  0  0  0  0  0
  -21.0730   -8.8769   19.9022 H   0  0  0  0  0  0
  -22.3596  -10.9645   19.6175 H   0  0  0  0  0  0
  -21.1997   -7.6164   23.9658 H   0  0  0  0  0  0
  -21.1502   -6.0601   25.9077 H   0  0  0  0  0  0
  -22.0581   -2.7607   23.2918 H   0  0  0  0  0  0
  -22.4153  -12.0099   22.4970 H   0  0  0  0  0  0
  -21.1175  -13.1433   22.2642 H   0  0  0  0  0  0
  -24.7008  -15.8570   20.5341 H   0  0  0  0  0  0
  -26.3030  -15.5981   20.0632 H   0  0  0  0  0  0
  -26.7116  -32.5567   23.1218 H   0  0  0  0  0  0
  -24.9996  -33.9818   25.0479 H   0  0  0  0  0  0
  -22.6866  -31.3142   21.4220 H   0  0  0  0  0  0
  -23.3739  -35.9684   23.3309 H   0  0  0  0  0  0
  -24.3578  -36.8944   22.2053 H   0  0  0  0  0  0
  -23.7230  -37.6551   23.6637 H   0  0  0  0  0  0
  -26.0265  -31.6038   20.5808 H   0  0  0  0  0  0
  -26.8252  -30.9075   21.9631 H   0  0  0  0  0  0
  -28.0982  -29.1225   21.1349 H   0  0  0  0  0  0
  -25.9958  -25.9951   18.9972 H   0  0  0  0  0  0
  -23.9593  -27.3088   19.0424 H   0  0  0  0  0  0
  -23.7137  -30.6134   19.4139 H   0  0  0  0  0  0
  -22.7280  -29.2566   19.8700 H   0  0  0  0  0  0
  -25.1260  -36.2030   25.0847 H   0  0  0  0  0  0
  -20.9922  -28.3201   24.1453 H   0  0  0  0  0  0
  -20.5621  -26.2270   23.3606 H   0  0  0  0  0  0
  -21.6626  -26.7416   22.1228 H   0  0  0  0  0  0
  -19.6884  -25.6295   21.1229 H   0  0  0  0  0  0
  -19.6664  -27.3207   20.6760 H   0  0  0  0  0  0
  -17.4171  -26.6636   21.4047 H   0  0  0  0  0  0
  -18.0318  -26.0077   22.9045 H   0  0  0  0  0  0
  -19.7909  -30.7220   24.2347 H   0  0  0  0  0  0
  -17.4992  -31.6258   24.5152 H   0  0  0  0  0  0
  -15.5332  -30.2999   23.7601 H   0  0  0  0  0  0
  -15.8654  -28.0829   22.7035 H   0  0  0  0  0  0
  -24.5867  -30.7081   25.7853 H   0  0  0  0  0  0
  -24.8884  -32.2901   26.4939 H   0  0  0  0  0  0
  -25.8042  -30.8921   27.0276 H   0  0  0  0  0  0
  -26.2764  -29.6903   24.1058 H   0  0  0  0  0  0
  -27.3936  -29.7221   25.4503 H   0  0  0  0  0  0
  -27.8626  -30.4408   23.9256 H   0  0  0  0  0  0
  -27.2674  -33.3619   26.2107 H   0  0  0  0  0  0
  -28.3813  -32.6898   25.0298 H   0  0  0  0  0  0
  -28.0737  -31.8428   26.5372 H   0  0  0  0  0  0
  -28.2605  -38.0120   24.7509 H   0  0  0  0  0  0
  -28.1073  -36.2651   24.6276 H   0  0  0  0  0  0
  -27.2317  -37.1477   25.8871 H   0  0  0  0  0  0
  -20.9308  -29.8825   21.7046 H   0  0  0  0  0  0
  -26.0190  -38.2909   24.1384 H   0  0  0  0  0  0
  -27.0666  -23.2593   22.9383 H   0  0  0  0  0  0
  -28.4968  -18.9538   21.1101 H   0  0  0  0  0  0
  -26.9059  -22.4523   25.1388 H   0  0  0  0  0  0
  -28.2966  -21.4422   25.5126 H   0  0  0  0  0  0
  -26.6817  -20.7237   25.3668 H   0  0  0  0  0  0
  -27.4739  -18.1034   23.8299 H   0  0  0  0  0  0
  -28.3731  -19.1089   24.9194 H   0  0  0  0  0  0
  -31.4230  -16.0043   23.3228 H   0  0  0  0  0  0
  -31.2706  -16.7657   21.7451 H   0  0  0  0  0  0
  -26.8249  -24.8824   21.0332 H   0  0  0  0  0  0
  -28.4375  -24.5211   21.6049 H   0  0  0  0  0  0
  -28.8775  -16.1405   23.5666 H   0  0  0  0  0  0
  -28.8039  -16.9532   22.0252 H   0  0  0  0  0  0
  -27.9634  -25.2760   18.6681 H   0  0  0  0  0  0
  -29.4694  -25.0989   19.4991 H   0  0  0  0  0  0
  -27.9338  -22.8983   19.3291 H   0  0  0  0  0  0
  -29.7213  -14.3106   22.4231 H   0  0  0  0  0  0
  -30.2325  -18.7117   23.1178 H   0  0  0  0  0  0
  -30.0253  -17.9008   24.4998 H   0  0  0  0  0  0
  1 25  1  0  0  0
  1 30  2  0  0  0
  1 84  1  0  0  0
  2  3  1  0  0  0
  2 25  1  0  0  0
  2 86  1  0  0  0
  2 87  1  0  0  0
  3  4  1  0  0  0
  3 88  1  0  0  0
  3 89  1  0  0  0
  4  5  1  0  0  0
  4 90  1  0  0  0
  4 91  1  0  0  0
  5  6  1  0  0  0
  5 26  1  0  0  0
  5 92  1  0  0  0
  6 25  1  0  0  0
  6 93  1  0  0  0
  6 94  1  0  0  0
  7  8  2  0  0  0
  7 26  1  0  0  0
  7 29  1  0  0  0
  8  9  1  0  0  0
  8 22  1  0  0  0
  9 10  1  0  0  0
  9 27  2  0  0  0
 10 11  2  0  0  0
 10 15  1  0  0  0
 11 12  1  0  0  0
 11 95  1  0  0  0
 12 13  2  0  0  0
 12 96  1  0  0  0
 13 14  1  0  0  0
 13 31  1  0  0  0
 14 15  2  0  0  0
 14 97  1  0  0  0
 15 98  1  0  0  0
 16 17  2  0  0  0
 16 21  1  0  0  0
 16 31  1  0  0  0
 17 18  1  0  0  0
 17 99  1  0  0  0
 18 19  2  0  0  0
 18100  1  0  0  0
 19 20  1  0  0  0
 19 24  1  0  0  0
 20 21  2  0  0  0
 20101  1  0  0  0
 21 23  1  0  0  0
 22 28  1  0  0  0
 22 32  2  0  0  0
 26 27  1  0  0  0
 28102  1  0  0  0
 28103  1  0  0  0
 29104  1  0  0  0
 29105  1  0  0  0
 33 34  1  0  0  0
 33 66  1  0  0  0
 33 70  2  0  0  0
 34 36  1  0  0  0
 34 59  1  0  0  0
 34106  1  0  0  0
 35 44  2  0  0  0
 35 45  1  0  0  0
 35 68  1  0  0  0
 36 56  1  0  0  0
 36107  1  0  0  0
 37 39  1  0  0  0
 37 47  1  0  0  0
 37 66  1  0  0  0
 37108  1  0  0  0
 38 43  2  0  0  0
 38 46  1  0  0  0
 38 47  1  0  0  0
 39 64  1  0  0  0
 39 67  2  0  0  0
 40 52  1  0  0  0
 40 53  2  0  0  0
 40 58  1  0  0  0
 41109  1  0  0  0
 41110  1  0  0  0
 41111  1  0  0  0
 41 48  1  0  0  0
 42 43  1  0  0  0
 42 66  1  0  0  0
 42112  1  0  0  0
 42113  1  0  0  0
 43 44  1  0  0  0
 44114  1  0  0  0
 45 46  2  0  0  0
 45115  1  0  0  0
 46116  1  0  0  0
 47117  1  0  0  0
 47118  1  0  0  0
 48 56  1  0  0  0
 48 65  1  0  0  0
 48119  1  0  0  0
 49 50  1  0  0  0
 49 53  1  0  0  0
 49 64  1  0  0  0
 49120  1  0  0  0
 50 51  1  0  0  0
 50121  1  0  0  0
 50122  1  0  0  0
 51 52  1  0  0  0
 51123  1  0  0  0
 51124  1  0  0  0
 52125  1  0  0  0
 52126  1  0  0  0
 53 54  1  0  0  0
 54 55  2  0  0  0
 54127  1  0  0  0
 55 57  1  0  0  0
 55128  1  0  0  0
 56 69  2  0  0  0
 57 58  2  0  0  0
 57129  1  0  0  0
 58130  1  0  0  0
 59 60  1  0  0  0
 59 61  1  0  0  0
 59 62  1  0  0  0
 60131  1  0  0  0
 60132  1  0  0  0
 60133  1  0  0  0
 61134  1  0  0  0
 61135  1  0  0  0
 61136  1  0  0  0
 62137  1  0  0  0
 62138  1  0  0  0
 62139  1  0  0  0
 63 65  1  0  0  0
 63140  1  0  0  0
 63141  1  0  0  0
 63142  1  0  0  0
 64143  1  0  0  0
 65144  1  0  0  0
 68 81  1  0  0  0
 71 73  2  0  0  0
 71 75  1  0  0  0
 71145  1  0  0  0
 72 74  2  0  0  0
 72 82  1  0  0  0
 72146  1  0  0  0
 73 74  1  0  0  0
 73 76  1  0  0  0
 74 77  1  0  0  0
 75 82  2  0  0  0
 75 83  1  0  0  0
 76147  1  0  0  0
 76148  1  0  0  0
 76149  1  0  0  0
 77 85  1  0  0  0
 77150  1  0  0  0
 77151  1  0  0  0
 78 80  1  0  0  0
 78 84  1  0  0  0
 78152  1  0  0  0
 78153  1  0  0  0
 79 81  1  0  0  0
 79 83  1  0  0  0
 79154  1  0  0  0
 79155  1  0  0  0
 80 85  1  0  0  0
 80156  1  0  0  0
 80157  1  0  0  0
 81158  1  0  0  0
 81159  1  0  0  0
 83160  1  0  0  0
 84161  1  0  0  0
 85162  1  0  0  0
 85163  1  0  0  0
M  CHG  1  85   1
M  ISO  4   1 100  68 101  81 101  84 100
M  END
> <chiral flag>
0

> <version>
0

> <s_m_source_file>
/data/baiqing/PycharmProjects/Reinvent-master-3.2/result/LINK_invent/BTK/process_docking_weight1_custom_sum_contain_oxygen_bond_distance_aromatic_linkinvent_7_9_3/rearranged_h_0130.sdf

> <i_m_source_file_index>
65

> <r_mmod_Potential_Energy-OPLS-2005>
-509.424224853516

> <r_mmod_Stretch_Energy-OPLS-2005>
32.277042388916

> <r_mmod_Bend_Energy-OPLS-2005>
105.484504699707

> <r_mmod_Torsional_Energy-OPLS-2005>
186.36328125

> <r_mmod_Improper_Torsional_Energy-OPLS-2005>
4.89569759368896

> <r_mmod_Van_der_Waal_Energy-OPLS-2005>
166.756408691406

> <r_mmod_Electrostatic_Energy-OPLS-2005>
-500.732849121094

> <r_mmod_Solvation_Energy-OPLS-2005>
-515.153503417969

> <b_mmod_Minimization_Converged-OPLS-2005>
0

> <r_mmod_RMS_Derivative-OPLS-2005>
2.48162031173706

$$$$
65
                    3D
 Structure written by MMmdl.
163172  0  0  1  0            999 V2000
  -30.6040  -14.8567   20.4288 C   0  0  0  0  0  0
  -30.4405  -12.5284   19.4956 C   0  0  0  0  0  0
  -29.5242  -12.5021   18.2531 C   0  0  0  0  0  0
  -28.0553  -12.3057   18.6736 C   0  0  0  0  0  0
  -27.6383  -13.2395   19.8421 C   0  0  2  0  0  0
  -28.6809  -13.2516   20.9808 C   0  0  0  0  0  0
  -25.2515  -13.8208   20.5722 C   0  0  0  0  0  0
  -24.1796  -13.0449   20.9187 C   0  0  0  0  0  0
  -24.6394  -11.6926   20.8727 C   0  0  0  0  0  0
  -23.9075  -10.4305   21.0407 C   0  0  0  0  0  0
  -24.3625   -9.4222   21.9186 C   0  0  0  0  0  0
  -23.6303   -8.2248   22.0753 C   0  0  0  0  0  0
  -22.4282   -8.0287   21.3535 C   0  0  0  0  0  0
  -21.9913   -9.0262   20.4647 C   0  0  0  0  0  0
  -22.7244  -10.2144   20.3056 C   0  0  0  0  0  0
  -21.6861   -6.0725   22.5275 C   0  0  0  0  0  0
  -21.4026   -6.5622   23.8207 C   0  0  0  0  0  0
  -21.3661   -5.6771   24.9168 C   0  0  0  0  0  0
  -21.6049   -4.3034   24.7218 C   0  0  0  0  0  0
  -21.8822   -3.8133   23.4340 C   0  0  0  0  0  0
  -21.9199   -4.6953   22.3397 C   0  0  0  0  0  0
  -22.7818  -13.5248   21.1832 C   0  0  0  0  0  0
  -22.1671   -4.2130   21.0976 F   0  0  0  0  0  0
  -21.5633   -3.4524   25.7732 F   0  0  0  0  0  0
  -29.9667  -13.6243   20.3782 N   0  0  0  0  0  0
  -26.2936  -12.9428   20.3267 N   0  0  0  0  0  0
  -25.9335  -11.6562   20.5733 N   0  0  0  0  0  0
  -22.0447  -12.8255   22.0381 N   0  0  0  0  0  0
  -25.4197  -15.1943   20.4224 N   0  0  0  0  0  0
  -31.8072  -14.8977   20.1488 O   0  0  0  0  0  0
  -21.6645   -6.8882   21.4241 O   0  0  0  0  0  0
  -22.3514  -14.5567   20.6693 O   0  0  0  0  0  0
  -24.6359  -31.8511   23.1953 C   0  0  0  0  0  0
  -25.9172  -32.4724   23.8311 C   0  0  1  0  0  0
  -27.2127  -27.2201   20.1230 C   0  0  0  0  0  0
  -25.5959  -33.8529   24.2240 N   0  0  0  0  0  0
  -23.4337  -30.4764   21.5376 C   0  0  2  0  0  0
  -24.8794  -28.9182   20.1058 C   0  0  0  0  0  0
  -22.7520  -29.4599   22.4864 C   0  0  0  0  0  0
  -18.0295  -28.1390   22.8457 C   0  0  0  0  0  0
  -24.1494  -36.7289   23.2639 C   0  0  0  0  0  0
  -25.9837  -30.7486   21.3811 C   0  0  0  0  0  0
  -26.0536  -29.3682   20.7230 C   0  0  0  0  0  0
  -27.2215  -28.5316   20.7223 C   0  0  0  0  0  0
  -26.0154  -26.8559   19.4649 C   0  0  0  0  0  0
  -24.8683  -27.6722   19.4635 C   0  0  0  0  0  0
  -23.6550  -29.8129   20.1532 C   0  0  0  0  0  0
  -25.4117  -36.3059   24.0323 C   0  0  1  0  0  0
  -20.5901  -28.3731   23.1230 C   0  0  2  0  0  0
  -20.6783  -26.9439   22.5394 C   0  0  0  0  0  0
  -19.5774  -26.6385   21.5185 C   0  0  0  0  0  0
  -18.1954  -26.7934   22.1595 C   0  0  0  0  0  0
  -19.1548  -28.8873   23.2845 C   0  0  0  0  0  0
  -18.9478  -30.1456   23.8884 C   0  0  0  0  0  0
  -17.6480  -30.6596   24.0561 C   0  0  0  0  0  0
  -25.9061  -34.9426   23.5086 C   0  0  0  0  0  0
  -16.5370  -29.9098   23.6322 C   0  0  0  0  0  0
  -16.7277  -28.6514   23.0347 C   0  0  0  0  0  0
  -26.4525  -31.6560   25.0713 C   0  0  0  0  0  0
  -25.3748  -31.3721   26.1438 C   0  0  0  0  0  0
  -27.0381  -30.2976   24.6208 C   0  0  0  0  0  0
  -27.6071  -32.4306   25.7492 C   0  0  0  0  0  0
  -27.5582  -37.1799   24.8463 C   0  0  0  0  0  0
  -21.4219  -29.3079   22.3610 N   0  0  0  0  0  0
  -26.4289  -37.3762   23.9411 N   0  0  0  0  0  0
  -24.7039  -31.0444   22.0939 N   0  0  0  0  0  0
  -23.4204  -28.8123   23.2974 O   0  0  0  0  0  0
  -28.2858  -26.2838   20.1935 O   0  0  0  0  0  0
  -26.5626  -34.8910   22.4653 O   0  0  0  0  0  0
  -23.5502  -32.1353   23.7225 O   0  0  0  0  0  0
  -30.6795  -21.7201   18.2889 C   0  0  0  0  0  0
  -29.1691  -22.0042   18.3200 C   0  0  0  0  0  0
  -29.9343  -18.5023   21.5355 C   0  0  0  0  0  0
  -29.8449  -18.4308   19.1376 C   0  0  0  0  0  0
  -29.5912  -16.9362   21.6157 C   0  0  0  0  0  0
  -29.5471  -16.8538   19.1879 C   0  0  0  0  0  0
  -31.0282  -21.1842   19.6921 C   0  0  0  0  0  0
  -29.3559  -19.3453   20.3351 C   0  0  0  0  0  0
  -28.8121  -22.0121   19.8122 C   0  0  2  0  0  0
  -29.0117  -23.5672   20.3624 C   0  0  0  0  0  0
  -28.0297  -24.8074   19.9172 C   0  0  0  0  0  0
  -29.8578  -16.0595   20.4279 N   0  0  0  0  0  0
  -29.7368  -20.8830   20.3549 N   0  3  2  0  0  0
  -31.4783  -12.6666   19.1916 H   0  0  0  0  0  0
  -30.4067  -11.5745   20.0250 H   0  0  0  0  0  0
  -29.8356  -11.6989   17.5816 H   0  0  0  0  0  0
  -29.6263  -13.4345   17.6946 H   0  0  0  0  0  0
  -27.9489  -11.2658   18.9829 H   0  0  0  0  0  0
  -27.3915  -12.4353   17.8184 H   0  0  0  0  0  0
  -27.6122  -14.2457   19.4227 H   0  0  0  0  0  0
  -28.7443  -12.2827   21.4791 H   0  0  0  0  0  0
  -28.3912  -13.9708   21.7487 H   0  0  0  0  0  0
  -25.2774   -9.5719   22.4760 H   0  0  0  0  0  0
  -24.0011   -7.4657   22.7483 H   0  0  0  0  0  0
  -21.0833   -8.8819   19.8959 H   0  0  0  0  0  0
  -22.3722  -10.9694   19.6177 H   0  0  0  0  0  0
  -21.2024   -7.6129   23.9708 H   0  0  0  0  0  0
  -21.1478   -6.0494   25.9067 H   0  0  0  0  0  0
  -22.0601   -2.7595   23.2834 H   0  0  0  0  0  0
  -22.4065  -11.9966   22.4860 H   0  0  0  0  0  0
  -21.1069  -13.1320   22.2543 H   0  0  0  0  0  0
  -24.6545  -15.8460   20.5569 H   0  0  0  0  0  0
  -26.2771  -15.6435   20.1305 H   0  0  0  0  0  0
  -26.7225  -32.5356   23.1034 H   0  0  0  0  0  0
  -25.0153  -33.9654   25.0417 H   0  0  0  0  0  0
  -22.7330  -31.3008   21.3898 H   0  0  0  0  0  0
  -23.3752  -35.9625   23.3280 H   0  0  0  0  0  0
  -24.3595  -36.8938   22.2060 H   0  0  0  0  0  0
  -23.7245  -37.6481   23.6678 H   0  0  0  0  0  0
  -26.1262  -31.5008   20.6043 H   0  0  0  0  0  0
  -26.8611  -30.7998   22.0146 H   0  0  0  0  0  0
  -28.1156  -28.8681   21.2284 H   0  0  0  0  0  0
  -25.9274  -25.9099   18.9536 H   0  0  0  0  0  0
  -23.9746  -27.3239   18.9644 H   0  0  0  0  0  0
  -23.7913  -30.5906   19.4001 H   0  0  0  0  0  0
  -22.7704  -29.2553   19.8401 H   0  0  0  0  0  0
  -25.1293  -36.1902   25.0812 H   0  0  0  0  0  0
  -20.9988  -28.3327   24.1350 H   0  0  0  0  0  0
  -20.5658  -26.2355   23.3615 H   0  0  0  0  0  0
  -21.6662  -26.7449   22.1215 H   0  0  0  0  0  0
  -19.6954  -25.6285   21.1253 H   0  0  0  0  0  0
  -19.6720  -27.3163   20.6689 H   0  0  0  0  0  0
  -17.4216  -26.6647   21.4001 H   0  0  0  0  0  0
  -18.0380  -26.0079   22.9002 H   0  0  0  0  0  0
  -19.7960  -30.7255   24.2272 H   0  0  0  0  0  0
  -17.5051  -31.6265   24.5179 H   0  0  0  0  0  0
  -15.5379  -30.3019   23.7643 H   0  0  0  0  0  0
  -15.8673  -28.0833   22.7084 H   0  0  0  0  0  0
  -24.5922  -30.7057   25.7781 H   0  0  0  0  0  0
  -24.8941  -32.2895   26.4851 H   0  0  0  0  0  0
  -25.8082  -30.8917   27.0224 H   0  0  0  0  0  0
  -26.2961  -29.6701   24.1250 H   0  0  0  0  0  0
  -27.4089  -29.7254   25.4725 H   0  0  0  0  0  0
  -27.8834  -30.4252   23.9439 H   0  0  0  0  0  0
  -27.2674  -33.3626   26.2028 H   0  0  0  0  0  0
  -28.3913  -32.6832   25.0338 H   0  0  0  0  0  0
  -28.0704  -31.8452   26.5448 H   0  0  0  0  0  0
  -28.2583  -38.0111   24.7509 H   0  0  0  0  0  0
  -28.1091  -36.2638   24.6278 H   0  0  0  0  0  0
  -27.2310  -37.1440   25.8870 H   0  0  0  0  0  0
  -20.9404  -29.8837   21.6841 H   0  0  0  0  0  0
  -26.0165  -38.2834   24.1411 H   0  0  0  0  0  0
  -31.2481  -22.6272   18.0735 H   0  0  0  0  0  0
  -30.9201  -20.9956   17.5092 H   0  0  0  0  0  0
  -28.6321  -21.1973   17.8206 H   0  0  0  0  0  0
  -28.9080  -22.9270   17.7995 H   0  0  0  0  0  0
  -31.0195  -18.6065   21.5354 H   0  0  0  0  0  0
  -29.6100  -18.9648   22.4683 H   0  0  0  0  0  0
  -29.4368  -18.8313   18.2085 H   0  0  0  0  0  0
  -30.9255  -18.5113   19.0291 H   0  0  0  0  0  0
  -28.5251  -16.8425   21.8292 H   0  0  0  0  0  0
  -30.0917  -16.5110   22.4882 H   0  0  0  0  0  0
  -30.0545  -16.3832   18.3440 H   0  0  0  0  0  0
  -28.4855  -16.7042   18.9854 H   0  0  0  0  0  0
  -31.5074  -21.9821   20.2610 H   0  0  0  0  0  0
  -31.7500  -20.3694   19.6874 H   0  0  0  0  0  0
  -28.2673  -19.2955   20.3973 H   0  0  0  0  0  0
  -27.7689  -21.7260   19.9610 H   0  0  0  0  0  0
  -30.0283  -23.8789   20.1191 H   0  0  0  0  0  0
  -28.9921  -23.5358   21.4505 H   0  0  0  0  0  0
  -27.0631  -24.5677   20.3630 H   0  0  0  0  0  0
  -27.8809  -24.7317   18.8402 H   0  0  0  0  0  0
  -29.8449  -21.0888   21.3370 H   0  0  0  0  0  0
  1 25  1  0  0  0
  1 30  2  0  0  0
  1 82  1  0  0  0
  2  3  1  0  0  0
  2 25  1  0  0  0
  2 84  1  0  0  0
  2 85  1  0  0  0
  3  4  1  0  0  0
  3 86  1  0  0  0
  3 87  1  0  0  0
  4  5  1  0  0  0
  4 88  1  0  0  0
  4 89  1  0  0  0
  5  6  1  0  0  0
  5 26  1  0  0  0
  5 90  1  0  0  0
  6 25  1  0  0  0
  6 91  1  0  0  0
  6 92  1  0  0  0
  7  8  2  0  0  0
  7 26  1  0  0  0
  7 29  1  0  0  0
  8  9  1  0  0  0
  8 22  1  0  0  0
  9 10  1  0  0  0
  9 27  2  0  0  0
 10 11  2  0  0  0
 10 15  1  0  0  0
 11 12  1  0  0  0
 11 93  1  0  0  0
 12 13  2  0  0  0
 12 94  1  0  0  0
 13 14  1  0  0  0
 13 31  1  0  0  0
 14 15  2  0  0  0
 14 95  1  0  0  0
 15 96  1  0  0  0
 16 17  2  0  0  0
 16 21  1  0  0  0
 16 31  1  0  0  0
 17 18  1  0  0  0
 17 97  1  0  0  0
 18 19  2  0  0  0
 18 98  1  0  0  0
 19 20  1  0  0  0
 19 24  1  0  0  0
 20 21  2  0  0  0
 20 99  1  0  0  0
 21 23  1  0  0  0
 22 28  1  0  0  0
 22 32  2  0  0  0
 26 27  1  0  0  0
 28100  1  0  0  0
 28101  1  0  0  0
 29102  1  0  0  0
 29103  1  0  0  0
 33 34  1  0  0  0
 33 66  1  0  0  0
 33 70  2  0  0  0
 34 36  1  0  0  0
 34 59  1  0  0  0
 34104  1  0  0  0
 35 44  2  0  0  0
 35 45  1  0  0  0
 35 68  1  0  0  0
 36 56  1  0  0  0
 36105  1  0  0  0
 37 39  1  0  0  0
 37 47  1  0  0  0
 37 66  1  0  0  0
 37106  1  0  0  0
 38 43  2  0  0  0
 38 46  1  0  0  0
 38 47  1  0  0  0
 39 64  1  0  0  0
 39 67  2  0  0  0
 40 52  1  0  0  0
 40 53  2  0  0  0
 40 58  1  0  0  0
 41107  1  0  0  0
 41108  1  0  0  0
 41109  1  0  0  0
 41 48  1  0  0  0
 42 43  1  0  0  0
 42 66  1  0  0  0
 42110  1  0  0  0
 42111  1  0  0  0
 43 44  1  0  0  0
 44112  1  0  0  0
 45 46  2  0  0  0
 45113  1  0  0  0
 46114  1  0  0  0
 47115  1  0  0  0
 47116  1  0  0  0
 48 56  1  0  0  0
 48 65  1  0  0  0
 48117  1  0  0  0
 49 50  1  0  0  0
 49 53  1  0  0  0
 49 64  1  0  0  0
 49118  1  0  0  0
 50 51  1  0  0  0
 50119  1  0  0  0
 50120  1  0  0  0
 51 52  1  0  0  0
 51121  1  0  0  0
 51122  1  0  0  0
 52123  1  0  0  0
 52124  1  0  0  0
 53 54  1  0  0  0
 54 55  2  0  0  0
 54125  1  0  0  0
 55 57  1  0  0  0
 55126  1  0  0  0
 56 69  2  0  0  0
 57 58  2  0  0  0
 57127  1  0  0  0
 58128  1  0  0  0
 59 60  1  0  0  0
 59 61  1  0  0  0
 59 62  1  0  0  0
 60129  1  0  0  0
 60130  1  0  0  0
 60131  1  0  0  0
 61132  1  0  0  0
 61133  1  0  0  0
 61134  1  0  0  0
 62135  1  0  0  0
 62136  1  0  0  0
 62137  1  0  0  0
 63 65  1  0  0  0
 63138  1  0  0  0
 63139  1  0  0  0
 63140  1  0  0  0
 64141  1  0  0  0
 65142  1  0  0  0
 68 81  1  0  0  0
 71 72  1  0  0  0
 71 77  1  0  0  0
 71143  1  0  0  0
 71144  1  0  0  0
 72 79  1  0  0  0
 72145  1  0  0  0
 72146  1  0  0  0
 73 75  1  0  0  0
 73147  1  0  0  0
 73148  1  0  0  0
 73 78  1  0  0  0
 74 76  1  0  0  0
 74 78  1  0  0  0
 74149  1  0  0  0
 74150  1  0  0  0
 75 82  1  0  0  0
 75151  1  0  0  0
 75152  1  0  0  0
 76 82  1  0  0  0
 76153  1  0  0  0
 76154  1  0  0  0
 77155  1  0  0  0
 77156  1  0  0  0
 77 83  1  0  0  0
 78 83  1  0  0  0
 78157  1  0  0  0
 79 80  1  0  0  0
 79 83  1  0  0  0
 79158  1  0  0  0
 80 81  1  0  0  0
 80159  1  0  0  0
 80160  1  0  0  0
 81161  1  0  0  0
 81162  1  0  0  0
 83163  1  0  0  0
M  CHG  1  83   1
M  ISO  4   1 100  68 101  81 101  82 100
M  END
> <chiral flag>
0

> <version>
0

> <s_m_source_file>
/data/baiqing/PycharmProjects/Reinvent-master-3.2/result/LINK_invent/BTK/process_docking_weight1_custom_sum_contain_oxygen_bond_distance_aromatic_linkinvent_7_9_3/rearranged_h_0130.sdf

> <i_m_source_file_index>
66

> <r_mmod_Potential_Energy-OPLS-2005>
550.1337890625

> <r_mmod_Stretch_Energy-OPLS-2005>
173.712615966797

> <r_mmod_Bend_Energy-OPLS-2005>
255.651184082031

> <r_mmod_Torsional_Energy-OPLS-2005>
422.105041503906

> <r_mmod_Improper_Torsional_Energy-OPLS-2005>
10.1588726043701

> <r_mmod_Van_der_Waal_Energy-OPLS-2005>
115.94930267334

> <r_mmod_Electrostatic_Energy-OPLS-2005>
-128.191421508789

> <r_mmod_Solvation_Energy-OPLS-2005>
-430.839416503906

> <b_mmod_Minimization_Converged-OPLS-2005>
0

> <r_mmod_RMS_Derivative-OPLS-2005>
3.02525353431702

$$$$
66
                    3D
 Structure written by MMmdl.
157165  0  0  1  0            999 V2000
  -30.4834  -14.9947   20.4625 C   0  0  0  0  0  0
  -30.4322  -12.6298   19.5089 C   0  0  0  0  0  0
  -29.5124  -12.5389   18.2625 C   0  0  0  0  0  0
  -28.0499  -12.3083   18.6803 C   0  0  0  0  0  0
  -27.6272  -13.2393   19.8474 C   0  0  2  0  0  0
  -28.6594  -13.2543   20.9940 C   0  0  0  0  0  0
  -25.2457  -13.8188   20.5705 C   0  0  0  0  0  0
  -24.1763  -13.0429   20.9192 C   0  0  0  0  0  0
  -24.6361  -11.6920   20.8754 C   0  0  0  0  0  0
  -23.9084  -10.4275   21.0430 C   0  0  0  0  0  0
  -24.3646   -9.4204   21.9202 C   0  0  0  0  0  0
  -23.6310   -8.2252   22.0786 C   0  0  0  0  0  0
  -22.4294   -8.0284   21.3564 C   0  0  0  0  0  0
  -21.9932   -9.0263   20.4678 C   0  0  0  0  0  0
  -22.7262  -10.2131   20.3083 C   0  0  0  0  0  0
  -21.6863   -6.0770   22.5283 C   0  0  0  0  0  0
  -21.4008   -6.5675   23.8213 C   0  0  0  0  0  0
  -21.3638   -5.6818   24.9172 C   0  0  0  0  0  0
  -21.6032   -4.3085   24.7223 C   0  0  0  0  0  0
  -21.8824   -3.8180   23.4350 C   0  0  0  0  0  0
  -21.9186   -4.6987   22.3407 C   0  0  0  0  0  0
  -22.7793  -13.5208   21.1870 C   0  0  0  0  0  0
  -22.1657   -4.2185   21.0977 F   0  0  0  0  0  0
  -21.5617   -3.4567   25.7733 F   0  0  0  0  0  0
  -29.9232  -13.7124   20.4106 N   0  0  0  0  0  0
  -26.2868  -12.9400   20.3271 N   0  0  0  0  0  0
  -25.9283  -11.6545   20.5765 N   0  0  0  0  0  0
  -22.0470  -12.8175   22.0436 N   0  0  0  0  0  0
  -25.4201  -15.1904   20.4105 N   0  0  0  0  0  0
  -31.6671  -15.0856   20.1143 O   0  0  0  0  0  0
  -21.6648   -6.8897   21.4260 O   0  0  0  0  0  0
  -22.3465  -14.5529   20.6728 O   0  0  0  0  0  0
  -24.6502  -31.8413   23.1843 C   0  0  0  0  0  0
  -25.9212  -32.4644   23.8254 C   0  0  1  0  0  0
  -27.2024  -27.0679   20.2091 C   0  0  0  0  0  0
  -25.5919  -33.8441   24.2098 N   0  0  0  0  0  0
  -23.4598  -30.4576   21.5247 C   0  0  2  0  0  0
  -24.9151  -28.8847   20.1030 C   0  0  0  0  0  0
  -22.7617  -29.4529   22.4736 C   0  0  0  0  0  0
  -18.0348  -28.1441   22.8430 C   0  0  0  0  0  0
  -24.1498  -36.7219   23.2671 C   0  0  0  0  0  0
  -26.0253  -30.6924   21.4014 C   0  0  0  0  0  0
  -26.0873  -29.3006   20.7419 C   0  0  0  0  0  0
  -27.2324  -28.4126   20.7752 C   0  0  0  0  0  0
  -26.0100  -26.7709   19.5128 C   0  0  0  0  0  0
  -24.8929  -27.6367   19.4589 C   0  0  0  0  0  0
  -23.6970  -29.7968   20.1404 C   0  0  0  0  0  0
  -25.4128  -36.2941   24.0300 C   0  0  1  0  0  0
  -20.5989  -28.3736   23.1230 C   0  0  2  0  0  0
  -20.6841  -26.9408   22.5433 C   0  0  0  0  0  0
  -19.5781  -26.6382   21.5270 C   0  0  0  0  0  0
  -18.1944  -26.7964   22.1631 C   0  0  0  0  0  0
  -19.1616  -28.8874   23.2817 C   0  0  0  0  0  0
  -18.9552  -30.1493   23.8811 C   0  0  0  0  0  0
  -17.6540  -30.6578   24.0547 C   0  0  0  0  0  0
  -25.9116  -34.9363   23.4996 C   0  0  0  0  0  0
  -16.5424  -29.9075   23.6347 C   0  0  0  0  0  0
  -16.7353  -28.6549   23.0278 C   0  0  0  0  0  0
  -26.4518  -31.6611   25.0760 C   0  0  0  0  0  0
  -25.3681  -31.3869   26.1430 C   0  0  0  0  0  0
  -27.0468  -30.3018   24.6455 C   0  0  0  0  0  0
  -27.6001  -32.4485   25.7519 C   0  0  0  0  0  0
  -27.5520  -37.1701   24.8451 C   0  0  0  0  0  0
  -21.4307  -29.3050   22.3548 N   0  0  0  0  0  0
  -26.4235  -37.3695   23.9441 N   0  0  0  0  0  0
  -24.7314  -31.0187   22.0912 N   0  0  0  0  0  0
  -23.4230  -28.8063   23.2904 O   0  0  0  0  0  0
  -28.2034  -26.0204   20.2887 O   0  0  0  0  0  0
  -26.5750  -34.8886   22.4609 O   0  0  0  0  0  0
  -23.5598  -32.1376   23.6958 O   0  0  0  0  0  0
  -29.4582  -21.2541   19.3860 C   0  0  0  0  0  0
  -29.1774  -22.6782   19.3409 C   0  0  0  0  0  0
  -29.0516  -20.6729   20.5663 C   0  0  0  0  0  0
  -28.5494  -23.1233   20.4824 C   0  0  0  0  0  0
  -26.5720  -22.0097   22.8359 C   0  0  0  0  0  0
  -28.9837  -22.6550   23.6041 C   0  0  0  0  0  0
  -29.0436  -19.0634   21.0443 C   0  0  0  0  0  0
  -27.7971  -24.5862   20.8163 C   0  0  0  0  0  0
  -29.8888  -17.7265   20.3757 C   0  0  0  0  0  0
  -28.0942  -21.7909   22.6768 C   0  0  0  0  0  0
  -28.5471  -21.8701   21.2711 N   0  0  0  0  0  0
  -29.6881  -16.1687   20.7081 N   0  0  0  0  0  0
  -31.4591  -12.8093   19.1907 H   0  0  0  0  0  0
  -30.4491  -11.6732   20.0302 H   0  0  0  0  0  0
  -29.8411  -11.7264   17.6105 H   0  0  0  0  0  0
  -29.5824  -13.4531   17.6669 H   0  0  0  0  0  0
  -27.9559  -11.2671   18.9885 H   0  0  0  0  0  0
  -27.3770  -12.4283   17.8312 H   0  0  0  0  0  0
  -27.5959  -14.2453   19.4272 H   0  0  0  0  0  0
  -28.7622  -12.2620   21.4342 H   0  0  0  0  0  0
  -28.3329  -13.9084   21.8042 H   0  0  0  0  0  0
  -25.2817   -9.5658   22.4776 H   0  0  0  0  0  0
  -24.0015   -7.4644   22.7514 H   0  0  0  0  0  0
  -21.0867   -8.8781   19.8983 H   0  0  0  0  0  0
  -22.3737  -10.9683   19.6189 H   0  0  0  0  0  0
  -21.2021   -7.6185   23.9716 H   0  0  0  0  0  0
  -21.1437   -6.0564   25.9065 H   0  0  0  0  0  0
  -22.0619   -2.7659   23.2833 H   0  0  0  0  0  0
  -22.4141  -11.9790   22.4725 H   0  0  0  0  0  0
  -21.1113  -13.1181   22.2774 H   0  0  0  0  0  0
  -24.6588  -15.8502   20.5273 H   0  0  0  0  0  0
  -26.2712  -15.6227   20.0769 H   0  0  0  0  0  0
  -26.7252  -32.5243   23.0982 H   0  0  0  0  0  0
  -24.9940  -33.9568   25.0137 H   0  0  0  0  0  0
  -22.7694  -31.2890   21.3663 H   0  0  0  0  0  0
  -23.3724  -35.9576   23.3351 H   0  0  0  0  0  0
  -24.3633  -36.8898   22.2099 H   0  0  0  0  0  0
  -23.7326  -37.6417   23.6800 H   0  0  0  0  0  0
  -26.2062  -31.4440   20.6315 H   0  0  0  0  0  0
  -26.8901  -30.7347   22.0547 H   0  0  0  0  0  0
  -28.1158  -28.7200   21.3157 H   0  0  0  0  0  0
  -25.9129  -25.8084   19.0270 H   0  0  0  0  0  0
  -24.0064  -27.3220   18.9259 H   0  0  0  0  0  0
  -23.8562  -30.5835   19.4047 H   0  0  0  0  0  0
  -22.8095  -29.2575   19.8040 H   0  0  0  0  0  0
  -25.1319  -36.1686   25.0777 H   0  0  0  0  0  0
  -21.0075  -28.3333   24.1356 H   0  0  0  0  0  0
  -20.5824  -26.2275   23.3642 H   0  0  0  0  0  0
  -21.6658  -26.7451   22.1102 H   0  0  0  0  0  0
  -19.6959  -25.6300   21.1288 H   0  0  0  0  0  0
  -19.6752  -27.3169   20.6780 H   0  0  0  0  0  0
  -17.4236  -26.6751   21.4010 H   0  0  0  0  0  0
  -18.0219  -26.0203   22.9080 H   0  0  0  0  0  0
  -19.8034  -30.7328   24.2060 H   0  0  0  0  0  0
  -17.5125  -31.6261   24.5148 H   0  0  0  0  0  0
  -15.5394  -30.2939   23.7768 H   0  0  0  0  0  0
  -15.8765  -28.0917   22.6900 H   0  0  0  0  0  0
  -24.5833  -30.7250   25.7752 H   0  0  0  0  0  0
  -24.8882  -32.3075   26.4786 H   0  0  0  0  0  0
  -25.7899  -30.9099   27.0280 H   0  0  0  0  0  0
  -26.3115  -29.6657   24.1496 H   0  0  0  0  0  0
  -27.4109  -29.7402   25.5068 H   0  0  0  0  0  0
  -27.9016  -30.4268   23.9796 H   0  0  0  0  0  0
  -27.2525  -33.3869   26.1871 H   0  0  0  0  0  0
  -28.3851  -32.6958   25.0341 H   0  0  0  0  0  0
  -28.0653  -31.8835   26.5606 H   0  0  0  0  0  0
  -28.2406  -38.0105   24.7512 H   0  0  0  0  0  0
  -28.1102  -36.2589   24.6192 H   0  0  0  0  0  0
  -27.2288  -37.1287   25.8872 H   0  0  0  0  0  0
  -20.9477  -29.8819   21.6782 H   0  0  0  0  0  0
  -26.0048  -38.2701   24.1585 H   0  0  0  0  0  0
  -29.9052  -20.6976   18.5679 H   0  0  0  0  0  0
  -29.3816  -23.3108   18.4842 H   0  0  0  0  0  0
  -26.1780  -22.7971   22.1953 H   0  0  0  0  0  0
  -26.2912  -22.2400   23.8658 H   0  0  0  0  0  0
  -26.0361  -21.0942   22.5703 H   0  0  0  0  0  0
  -28.6868  -22.5883   24.6532 H   0  0  0  0  0  0
  -28.9827  -23.7090   23.3335 H   0  0  0  0  0  0
  -30.0257  -22.3225   23.5566 H   0  0  0  0  0  0
  -27.9928  -18.7689   21.0446 H   0  0  0  0  0  0
  -29.2869  -19.0433   22.1060 H   0  0  0  0  0  0
  -27.7195  -24.7099   21.8936 H   0  0  0  0  0  0
  -26.7641  -24.4312   20.5188 H   0  0  0  0  0  0
  -30.9574  -17.9125   20.4966 H   0  0  0  0  0  0
  -29.7164  -17.7860   19.3001 H   0  0  0  0  0  0
  -28.2705  -20.7753   23.0312 H   0  0  0  0  0  0
  -28.7649  -15.9500   21.0547 H   0  0  0  0  0  0
  1 25  1  0  0  0
  1 30  2  0  0  0
  1 82  1  0  0  0
  2  3  1  0  0  0
  2 25  1  0  0  0
  2 83  1  0  0  0
  2 84  1  0  0  0
  3  4  1  0  0  0
  3 85  1  0  0  0
  3 86  1  0  0  0
  4  5  1  0  0  0
  4 87  1  0  0  0
  4 88  1  0  0  0
  5  6  1  0  0  0
  5 26  1  0  0  0
  5 89  1  0  0  0
  6 25  1  0  0  0
  6 90  1  0  0  0
  6 91  1  0  0  0
  7  8  2  0  0  0
  7 26  1  0  0  0
  7 29  1  0  0  0
  8  9  1  0  0  0
  8 22  1  0  0  0
  9 10  1  0  0  0
  9 27  2  0  0  0
 10 11  2  0  0  0
 10 15  1  0  0  0
 11 12  1  0  0  0
 11 92  1  0  0  0
 12 13  2  0  0  0
 12 93  1  0  0  0
 13 14  1  0  0  0
 13 31  1  0  0  0
 14 15  2  0  0  0
 14 94  1  0  0  0
 15 95  1  0  0  0
 16 17  2  0  0  0
 16 21  1  0  0  0
 16 31  1  0  0  0
 17 18  1  0  0  0
 17 96  1  0  0  0
 18 19  2  0  0  0
 18 97  1  0  0  0
 19 20  1  0  0  0
 19 24  1  0  0  0
 20 21  2  0  0  0
 20 98  1  0  0  0
 21 23  1  0  0  0
 22 28  1  0  0  0
 22 32  2  0  0  0
 26 27  1  0  0  0
 28 99  1  0  0  0
 28100  1  0  0  0
 29101  1  0  0  0
 29102  1  0  0  0
 33 34  1  0  0  0
 33 66  1  0  0  0
 33 70  2  0  0  0
 34 36  1  0  0  0
 34 59  1  0  0  0
 34103  1  0  0  0
 35 44  2  0  0  0
 35 45  1  0  0  0
 35 68  1  0  0  0
 36 56  1  0  0  0
 36104  1  0  0  0
 37 39  1  0  0  0
 37 47  1  0  0  0
 37 66  1  0  0  0
 37105  1  0  0  0
 38 43  2  0  0  0
 38 46  1  0  0  0
 38 47  1  0  0  0
 39 64  1  0  0  0
 39 67  2  0  0  0
 40 52  1  0  0  0
 40 53  2  0  0  0
 40 58  1  0  0  0
 41106  1  0  0  0
 41107  1  0  0  0
 41108  1  0  0  0
 41 48  1  0  0  0
 42 43  1  0  0  0
 42 66  1  0  0  0
 42109  1  0  0  0
 42110  1  0  0  0
 43 44  1  0  0  0
 44111  1  0  0  0
 45 46  2  0  0  0
 45112  1  0  0  0
 46113  1  0  0  0
 47114  1  0  0  0
 47115  1  0  0  0
 48 56  1  0  0  0
 48 65  1  0  0  0
 48116  1  0  0  0
 49 50  1  0  0  0
 49 53  1  0  0  0
 49 64  1  0  0  0
 49117  1  0  0  0
 50 51  1  0  0  0
 50118  1  0  0  0
 50119  1  0  0  0
 51 52  1  0  0  0
 51120  1  0  0  0
 51121  1  0  0  0
 52122  1  0  0  0
 52123  1  0  0  0
 53 54  1  0  0  0
 54 55  2  0  0  0
 54124  1  0  0  0
 55 57  1  0  0  0
 55125  1  0  0  0
 56 69  2  0  0  0
 57 58  2  0  0  0
 57126  1  0  0  0
 58127  1  0  0  0
 59 60  1  0  0  0
 59 61  1  0  0  0
 59 62  1  0  0  0
 60128  1  0  0  0
 60129  1  0  0  0
 60130  1  0  0  0
 61131  1  0  0  0
 61132  1  0  0  0
 61133  1  0  0  0
 62134  1  0  0  0
 62135  1  0  0  0
 62136  1  0  0  0
 63 65  1  0  0  0
 63137  1  0  0  0
 63138  1  0  0  0
 63139  1  0  0  0
 64140  1  0  0  0
 65141  1  0  0  0
 68 78  1  0  0  0
 71 72  1  0  0  0
 71 73  2  0  0  0
 71142  1  0  0  0
 72 74  2  0  0  0
 72143  1  0  0  0
 73 77  1  0  0  0
 73 81  1  0  0  0
 74 78  1  0  0  0
 74 81  1  0  0  0
 75144  1  0  0  0
 75145  1  0  0  0
 75146  1  0  0  0
 75 80  1  0  0  0
 76 80  1  0  0  0
 76147  1  0  0  0
 76148  1  0  0  0
 76149  1  0  0  0
 77 79  1  0  0  0
 77150  1  0  0  0
 77151  1  0  0  0
 78152  1  0  0  0
 78153  1  0  0  0
 79 82  1  0  0  0
 79154  1  0  0  0
 79155  1  0  0  0
 80 81  1  0  0  0
 80156  1  0  0  0
 82157  1  0  0  0
M  ISO  4   1 100  68 101  78 101  82 100
M  END
> <chiral flag>
0

> <version>
0

> <s_m_source_file>
/data/baiqing/PycharmProjects/Reinvent-master-3.2/result/LINK_invent/BTK/process_docking_weight1_custom_sum_contain_oxygen_bond_distance_aromatic_linkinvent_7_9_3/rearranged_h_0130.sdf

> <i_m_source_file_index>
67

> <r_mmod_Potential_Energy-OPLS-2005>
653.374084472656

> <r_mmod_Stretch_Energy-OPLS-2005>
332.665283203125

> <r_mmod_Bend_Energy-OPLS-2005>
286.287841796875

> <r_mmod_Torsional_Energy-OPLS-2005>
264.323150634766

> <r_mmod_Improper_Torsional_Energy-OPLS-2005>
5.05200529098511

> <r_mmod_Van_der_Waal_Energy-OPLS-2005>
109.933921813965

> <r_mmod_Electrostatic_Energy-OPLS-2005>
-378.984985351562

> <r_mmod_Solvation_Energy-OPLS-2005>
-215.168014526367

> <b_mmod_Minimization_Converged-OPLS-2005>
0

> <r_mmod_RMS_Derivative-OPLS-2005>
7.83805894851685

$$$$
67
                    3D
 Structure written by MMmdl.
160169  0  0  1  0            999 V2000
  -30.6345  -14.5661   20.5471 C   0  0  0  0  0  0
  -30.4429  -12.3596   19.4277 C   0  0  0  0  0  0
  -29.5027  -12.5066   18.2105 C   0  0  0  0  0  0
  -28.0248  -12.3486   18.6255 C   0  0  0  0  0  0
  -27.6588  -13.2022   19.8685 C   0  0  2  0  0  0
  -28.7042  -13.0057   20.9899 C   0  0  0  0  0  0
  -25.2587  -13.8136   20.5670 C   0  0  0  0  0  0
  -24.1838  -13.0424   20.9182 C   0  0  0  0  0  0
  -24.6387  -11.6889   20.8736 C   0  0  0  0  0  0
  -23.9050  -10.4282   21.0408 C   0  0  0  0  0  0
  -24.3605   -9.4201   21.9187 C   0  0  0  0  0  0
  -23.6283   -8.2236   22.0756 C   0  0  0  0  0  0
  -22.4266   -8.0274   21.3546 C   0  0  0  0  0  0
  -21.9898   -9.0247   20.4649 C   0  0  0  0  0  0
  -22.7223  -10.2127   20.3058 C   0  0  0  0  0  0
  -21.6849   -6.0731   22.5280 C   0  0  0  0  0  0
  -21.4012   -6.5637   23.8213 C   0  0  0  0  0  0
  -21.3658   -5.6791   24.9175 C   0  0  0  0  0  0
  -21.6044   -4.3054   24.7228 C   0  0  0  0  0  0
  -21.8818   -3.8144   23.4350 C   0  0  0  0  0  0
  -21.9191   -4.6959   22.3405 C   0  0  0  0  0  0
  -22.7865  -13.5233   21.1850 C   0  0  0  0  0  0
  -22.1661   -4.2144   21.0983 F   0  0  0  0  0  0
  -21.5629   -3.4539   25.7742 F   0  0  0  0  0  0
  -30.0252  -13.3496   20.4342 N   0  0  0  0  0  0
  -26.3010  -12.9293   20.3332 N   0  0  0  0  0  0
  -25.9312  -11.6462   20.5756 N   0  0  0  0  0  0
  -22.0500  -12.8227   22.0405 N   0  0  0  0  0  0
  -25.4313  -15.1853   20.4063 N   0  0  0  0  0  0
  -31.7777  -14.7836   20.1373 O   0  0  0  0  0  0
  -21.6634   -6.8870   21.4241 O   0  0  0  0  0  0
  -22.3558  -14.5544   20.6701 O   0  0  0  0  0  0
  -24.6200  -31.8639   23.2056 C   0  0  0  0  0  0
  -25.9070  -32.4801   23.8370 C   0  0  1  0  0  0
  -27.2333  -27.3832   20.1102 C   0  0  0  0  0  0
  -25.5909  -33.8600   24.2303 N   0  0  0  0  0  0
  -23.4110  -30.4861   21.5474 C   0  0  2  0  0  0
  -24.8589  -28.9427   20.1184 C   0  0  0  0  0  0
  -22.7439  -29.4641   22.4972 C   0  0  0  0  0  0
  -18.0278  -28.1380   22.8489 C   0  0  0  0  0  0
  -24.1488  -36.7306   23.2636 C   0  0  0  0  0  0
  -25.9449  -30.8152   21.3651 C   0  0  0  0  0  0
  -26.0239  -29.4447   20.7134 C   0  0  0  0  0  0
  -27.2178  -28.6759   20.6990 C   0  0  0  0  0  0
  -26.0479  -26.9053   19.5150 C   0  0  0  0  0  0
  -24.8685  -27.6741   19.5143 C   0  0  0  0  0  0
  -23.6230  -29.8156   20.1641 C   0  0  0  0  0  0
  -25.4108  -36.3098   24.0335 C   0  0  1  0  0  0
  -20.5873  -28.3676   23.1306 C   0  0  2  0  0  0
  -20.6770  -26.9408   22.5416 C   0  0  0  0  0  0
  -19.5747  -26.6385   21.5215 C   0  0  0  0  0  0
  -18.1924  -26.7925   22.1623 C   0  0  0  0  0  0
  -19.1528  -28.8844   23.2894 C   0  0  0  0  0  0
  -18.9455  -30.1448   23.8908 C   0  0  0  0  0  0
  -17.6457  -30.6586   24.0563 C   0  0  0  0  0  0
  -25.9043  -34.9464   23.5117 C   0  0  0  0  0  0
  -16.5348  -29.9087   23.6329 C   0  0  0  0  0  0
  -16.7267  -28.6504   23.0351 C   0  0  0  0  0  0
  -26.4483  -31.6591   25.0714 C   0  0  0  0  0  0
  -25.3740  -31.3705   26.1458 C   0  0  0  0  0  0
  -27.0312  -30.3027   24.6108 C   0  0  0  0  0  0
  -27.6053  -32.4316   25.7480 C   0  0  0  0  0  0
  -27.5585  -37.1796   24.8458 C   0  0  0  0  0  0
  -21.4160  -29.3038   22.3710 N   0  0  0  0  0  0
  -26.4286  -37.3792   23.9420 N   0  0  0  0  0  0
  -24.6772  -31.0701   22.0975 N   0  0  0  0  0  0
  -23.4186  -28.8187   23.3036 O   0  0  0  0  0  0
  -28.3731  -26.5921   20.0776 O   0  0  0  0  0  0
  -26.5606  -34.8923   22.4680 O   0  0  0  0  0  0
  -23.5380  -32.1407   23.7423 O   0  0  0  0  0  0
  -29.1672  -22.9316   20.9605 C   0  0  0  0  0  0
  -28.0748  -23.7678   18.9384 C   0  0  0  0  0  0
  -29.2319  -21.6377   20.3690 C   0  0  0  0  0  0
  -28.6939  -21.4161   19.1125 C   0  0  0  0  0  0
  -28.5700  -24.0189   20.2432 C   0  0  0  0  0  0
  -28.1205  -22.4699   18.3659 C   0  0  0  0  0  0
  -29.7783  -20.3123   20.9223 C   0  0  0  0  0  0
  -28.7906  -19.9428   18.7576 C   0  0  0  0  0  0
  -27.5400  -22.2231   16.9863 C   0  0  0  0  0  0
  -28.3579  -25.4026   20.9170 C   0  0  0  0  0  0
  -29.9947  -17.0309   21.1519 C   0  0  0  0  0  0
  -29.7639  -17.9016   19.8666 C   0  0  0  0  0  0
  -29.8195  -15.5594   20.9810 N   0  0  0  0  0  0
  -29.1449  -19.2708   20.0449 N   0  3  1  0  0  0
  -31.4819  -12.4971   19.1230 H   0  0  0  0  0  0
  -30.3827  -11.3524   19.8430 H   0  0  0  0  0  0
  -29.7566  -11.7688   17.4482 H   0  0  0  0  0  0
  -29.6493  -13.4845   17.7488 H   0  0  0  0  0  0
  -27.8534  -11.2931   18.8407 H   0  0  0  0  0  0
  -27.3692  -12.5976   17.7902 H   0  0  0  0  0  0
  -27.6920  -14.2444   19.5515 H   0  0  0  0  0  0
  -28.7055  -11.9692   21.3306 H   0  0  0  0  0  0
  -28.4545  -13.5992   21.8708 H   0  0  0  0  0  0
  -25.2750   -9.5677   22.4759 H   0  0  0  0  0  0
  -23.9993   -7.4627   22.7474 H   0  0  0  0  0  0
  -21.0828   -8.8762   19.8957 H   0  0  0  0  0  0
  -22.3681  -10.9664   19.6166 H   0  0  0  0  0  0
  -21.2003   -7.6145   23.9714 H   0  0  0  0  0  0
  -21.1481   -6.0523   25.9078 H   0  0  0  0  0  0
  -22.0599   -2.7606   23.2853 H   0  0  0  0  0  0
  -22.4104  -11.9879   22.4784 H   0  0  0  0  0  0
  -21.1124  -13.1265   22.2619 H   0  0  0  0  0  0
  -24.6597  -15.8364   20.5038 H   0  0  0  0  0  0
  -26.2718  -15.6195   20.0488 H   0  0  0  0  0  0
  -26.7138  -32.5497   23.1128 H   0  0  0  0  0  0
  -25.0065  -33.9757   25.0452 H   0  0  0  0  0  0
  -22.7027  -31.3044   21.4042 H   0  0  0  0  0  0
  -23.3753  -35.9634   23.3289 H   0  0  0  0  0  0
  -24.3585  -36.8935   22.2053 H   0  0  0  0  0  0
  -23.7235  -37.6504   23.6660 H   0  0  0  0  0  0
  -26.0616  -31.5780   20.5939 H   0  0  0  0  0  0
  -26.8309  -30.8700   21.9860 H   0  0  0  0  0  0
  -28.1192  -29.0623   21.1539 H   0  0  0  0  0  0
  -26.0282  -25.9307   19.0520 H   0  0  0  0  0  0
  -23.9730  -27.2806   19.0531 H   0  0  0  0  0  0
  -23.7351  -30.5887   19.4029 H   0  0  0  0  0  0
  -22.7457  -29.2381   19.8671 H   0  0  0  0  0  0
  -25.1282  -36.1952   25.0827 H   0  0  0  0  0  0
  -20.9962  -28.3240   24.1428 H   0  0  0  0  0  0
  -20.5679  -26.2282   23.3606 H   0  0  0  0  0  0
  -21.6638  -26.7450   22.1204 H   0  0  0  0  0  0
  -19.6913  -25.6300   21.1236 H   0  0  0  0  0  0
  -19.6687  -27.3203   20.6751 H   0  0  0  0  0  0
  -17.4198  -26.6678   21.4021 H   0  0  0  0  0  0
  -18.0323  -26.0063   22.9017 H   0  0  0  0  0  0
  -19.7933  -30.7258   24.2284 H   0  0  0  0  0  0
  -17.5014  -31.6268   24.5160 H   0  0  0  0  0  0
  -15.5350  -30.2993   23.7649 H   0  0  0  0  0  0
  -15.8666  -28.0826   22.7066 H   0  0  0  0  0  0
  -24.5916  -30.7047   25.7798 H   0  0  0  0  0  0
  -24.8925  -32.2861   26.4903 H   0  0  0  0  0  0
  -25.8088  -30.8880   27.0221 H   0  0  0  0  0  0
  -26.2858  -29.6791   24.1159 H   0  0  0  0  0  0
  -27.4073  -29.7264   25.4573 H   0  0  0  0  0  0
  -27.8700  -30.4341   23.9266 H   0  0  0  0  0  0
  -27.2666  -33.3610   26.2072 H   0  0  0  0  0  0
  -28.3853  -32.6890   25.0301 H   0  0  0  0  0  0
  -28.0729  -31.8430   26.5384 H   0  0  0  0  0  0
  -28.2578  -38.0119   24.7548 H   0  0  0  0  0  0
  -28.1106  -36.2654   24.6225 H   0  0  0  0  0  0
  -27.2309  -37.1374   25.8860 H   0  0  0  0  0  0
  -20.9331  -29.8760   21.6926 H   0  0  0  0  0  0
  -26.0171  -38.2863   24.1448 H   0  0  0  0  0  0
  -29.5446  -23.0859   21.9621 H   0  0  0  0  0  0
  -27.6258  -24.5769   18.3813 H   0  0  0  0  0  0
  -29.5154  -20.1660   21.9702 H   0  0  0  0  0  0
  -30.8644  -20.2956   20.8260 H   0  0  0  0  0  0
  -29.5749  -19.8060   18.0118 H   0  0  0  0  0  0
  -27.8533  -19.5585   18.3540 H   0  0  0  0  0  0
  -27.2152  -23.1531   16.5182 H   0  0  0  0  0  0
  -26.6763  -21.5603   17.0472 H   0  0  0  0  0  0
  -28.2817  -21.7627   16.3332 H   0  0  0  0  0  0
  -29.1449  -25.5352   21.6598 H   0  0  0  0  0  0
  -27.4293  -25.3468   21.4883 H   0  0  0  0  0  0
  -29.2841  -17.3333   21.9217 H   0  0  0  0  0  0
  -30.9836  -17.2354   21.5651 H   0  0  0  0  0  0
  -29.1026  -17.3496   19.1973 H   0  0  0  0  0  0
  -30.7077  -18.0022   19.3290 H   0  0  0  0  0  0
  -28.9102  -15.2176   21.2557 H   0  0  0  0  0  0
  -28.2491  -19.1103   20.4787 H   0  0  0  0  0  0
  1 25  1  0  0  0
  1 30  2  0  0  0
  1 83  1  0  0  0
  2  3  1  0  0  0
  2 25  1  0  0  0
  2 85  1  0  0  0
  2 86  1  0  0  0
  3  4  1  0  0  0
  3 87  1  0  0  0
  3 88  1  0  0  0
  4  5  1  0  0  0
  4 89  1  0  0  0
  4 90  1  0  0  0
  5  6  1  0  0  0
  5 26  1  0  0  0
  5 91  1  0  0  0
  6 25  1  0  0  0
  6 92  1  0  0  0
  6 93  1  0  0  0
  7  8  2  0  0  0
  7 26  1  0  0  0
  7 29  1  0  0  0
  8  9  1  0  0  0
  8 22  1  0  0  0
  9 10  1  0  0  0
  9 27  2  0  0  0
 10 11  2  0  0  0
 10 15  1  0  0  0
 11 12  1  0  0  0
 11 94  1  0  0  0
 12 13  2  0  0  0
 12 95  1  0  0  0
 13 14  1  0  0  0
 13 31  1  0  0  0
 14 15  2  0  0  0
 14 96  1  0  0  0
 15 97  1  0  0  0
 16 17  2  0  0  0
 16 21  1  0  0  0
 16 31  1  0  0  0
 17 18  1  0  0  0
 17 98  1  0  0  0
 18 19  2  0  0  0
 18 99  1  0  0  0
 19 20  1  0  0  0
 19 24  1  0  0  0
 20 21  2  0  0  0
 20100  1  0  0  0
 21 23  1  0  0  0
 22 28  1  0  0  0
 22 32  2  0  0  0
 26 27  1  0  0  0
 28101  1  0  0  0
 28102  1  0  0  0
 29103  1  0  0  0
 29104  1  0  0  0
 33 34  1  0  0  0
 33 66  1  0  0  0
 33 70  2  0  0  0
 34 36  1  0  0  0
 34 59  1  0  0  0
 34105  1  0  0  0
 35 44  2  0  0  0
 35 45  1  0  0  0
 35 68  1  0  0  0
 36 56  1  0  0  0
 36106  1  0  0  0
 37 39  1  0  0  0
 37 47  1  0  0  0
 37 66  1  0  0  0
 37107  1  0  0  0
 38 43  2  0  0  0
 38 46  1  0  0  0
 38 47  1  0  0  0
 39 64  1  0  0  0
 39 67  2  0  0  0
 40 52  1  0  0  0
 40 53  2  0  0  0
 40 58  1  0  0  0
 41108  1  0  0  0
 41109  1  0  0  0
 41110  1  0  0  0
 41 48  1  0  0  0
 42 43  1  0  0  0
 42 66  1  0  0  0
 42111  1  0  0  0
 42112  1  0  0  0
 43 44  1  0  0  0
 44113  1  0  0  0
 45 46  2  0  0  0
 45114  1  0  0  0
 46115  1  0  0  0
 47116  1  0  0  0
 47117  1  0  0  0
 48 56  1  0  0  0
 48 65  1  0  0  0
 48118  1  0  0  0
 49 50  1  0  0  0
 49 53  1  0  0  0
 49 64  1  0  0  0
 49119  1  0  0  0
 50 51  1  0  0  0
 50120  1  0  0  0
 50121  1  0  0  0
 51 52  1  0  0  0
 51122  1  0  0  0
 51123  1  0  0  0
 52124  1  0  0  0
 52125  1  0  0  0
 53 54  1  0  0  0
 54 55  2  0  0  0
 54126  1  0  0  0
 55 57  1  0  0  0
 55127  1  0  0  0
 56 69  2  0  0  0
 57 58  2  0  0  0
 57128  1  0  0  0
 58129  1  0  0  0
 59 60  1  0  0  0
 59 61  1  0  0  0
 59 62  1  0  0  0
 60130  1  0  0  0
 60131  1  0  0  0
 60132  1  0  0  0
 61133  1  0  0  0
 61134  1  0  0  0
 61135  1  0  0  0
 62136  1  0  0  0
 62137  1  0  0  0
 62138  1  0  0  0
 63 65  1  0  0  0
 63139  1  0  0  0
 63140  1  0  0  0
 63141  1  0  0  0
 64142  1  0  0  0
 65143  1  0  0  0
 68 80  1  0  0  0
 71 73  2  0  0  0
 71 75  1  0  0  0
 71144  1  0  0  0
 72 75  2  0  0  0
 72 76  1  0  0  0
 72145  1  0  0  0
 73 74  1  0  0  0
 73 77  1  0  0  0
 74 76  2  0  0  0
 74 78  1  0  0  0
 75 80  1  0  0  0
 76 79  1  0  0  0
 77 84  1  0  0  0
 77146  1  0  0  0
 77147  1  0  0  0
 78 84  1  0  0  0
 78148  1  0  0  0
 78149  1  0  0  0
 79150  1  0  0  0
 79151  1  0  0  0
 79152  1  0  0  0
 80153  1  0  0  0
 80154  1  0  0  0
 81 82  1  0  0  0
 81 83  1  0  0  0
 81155  1  0  0  0
 81156  1  0  0  0
 82157  1  0  0  0
 82158  1  0  0  0
 82 84  1  0  0  0
 83159  1  0  0  0
 84160  1  0  0  0
M  CHG  1  84   1
M  ISO  4   1 100  68 101  80 101  83 100
M  END
> <chiral flag>
0

> <version>
0

> <s_m_source_file>
/data/baiqing/PycharmProjects/Reinvent-master-3.2/result/LINK_invent/BTK/process_docking_weight1_custom_sum_contain_oxygen_bond_distance_aromatic_linkinvent_7_9_3/rearranged_h_0130.sdf

> <i_m_source_file_index>
68

> <r_mmod_Potential_Energy-OPLS-2005>
-135.275451660156

> <r_mmod_Stretch_Energy-OPLS-2005>
54.5087623596191

> <r_mmod_Bend_Energy-OPLS-2005>
166.638778686523

> <r_mmod_Torsional_Energy-OPLS-2005>
254.980178833008

> <r_mmod_Improper_Torsional_Energy-OPLS-2005>
4.42022275924683

> <r_mmod_Van_der_Waal_Energy-OPLS-2005>
132.138946533203

> <r_mmod_Electrostatic_Energy-OPLS-2005>
-306.058868408203

> <r_mmod_Solvation_Energy-OPLS-2005>
-467.821655273438

> <b_mmod_Minimization_Converged-OPLS-2005>
0

> <r_mmod_RMS_Derivative-OPLS-2005>
0.450336784124374

$$$$
68
                    3D
 Structure written by MMmdl.
178187  0  0  1  0            999 V2000
  -30.6959  -14.4630   20.5346 C   0  0  0  0  0  0
  -30.4267  -12.2976   19.3676 C   0  0  0  0  0  0
  -29.4747  -12.4276   18.1611 C   0  0  0  0  0  0
  -27.9908  -12.3273   18.5777 C   0  0  0  0  0  0
  -27.6470  -13.1872   19.8290 C   0  0  2  0  0  0
  -28.7052  -12.9918   20.9330 C   0  0  0  0  0  0
  -25.2561  -13.8070   20.5666 C   0  0  0  0  0  0
  -24.1806  -13.0359   20.9177 C   0  0  0  0  0  0
  -24.6316  -11.6849   20.8700 C   0  0  0  0  0  0
  -23.8983  -10.4248   21.0374 C   0  0  0  0  0  0
  -24.3616   -9.4169   21.9111 C   0  0  0  0  0  0
  -23.6311   -8.2196   22.0726 C   0  0  0  0  0  0
  -22.4254   -8.0263   21.3579 C   0  0  0  0  0  0
  -21.9818   -9.0233   20.4721 C   0  0  0  0  0  0
  -22.7094  -10.2122   20.3102 C   0  0  0  0  0  0
  -21.6835   -6.0797   22.5335 C   0  0  0  0  0  0
  -21.4016   -6.5685   23.8288 C   0  0  0  0  0  0
  -21.3644   -5.6791   24.9213 C   0  0  0  0  0  0
  -21.6006   -4.3062   24.7210 C   0  0  0  0  0  0
  -21.8795   -3.8198   23.4325 C   0  0  0  0  0  0
  -21.9201   -4.7031   22.3415 C   0  0  0  0  0  0
  -22.7846  -13.5229   21.1837 C   0  0  0  0  0  0
  -22.1704   -4.2268   21.0973 F   0  0  0  0  0  0
  -21.5584   -3.4505   25.7691 F   0  0  0  0  0  0
  -30.0192  -13.3052   20.3496 N   0  0  0  0  0  0
  -26.2933  -12.9206   20.3185 N   0  0  0  0  0  0
  -25.9223  -11.6401   20.5638 N   0  0  0  0  0  0
  -22.0347  -12.8278   22.0339 N   0  0  0  0  0  0
  -25.4281  -15.1750   20.4174 N   0  0  0  0  0  0
  -31.9032  -14.6006   20.2946 O   0  0  0  0  0  0
  -21.6572   -6.8920   21.4311 O   0  0  0  0  0  0
  -22.3599  -14.5550   20.6637 O   0  0  0  0  0  0
  -24.6066  -31.8714   23.2084 C   0  0  0  0  0  0
  -25.8986  -32.4897   23.8388 C   0  0  1  0  0  0
  -27.2203  -27.4576   20.0953 C   0  0  0  0  0  0
  -25.5863  -33.8708   24.2317 N   0  0  0  0  0  0
  -23.3959  -30.4887   21.5421 C   0  0  2  0  0  0
  -24.8376  -28.9658   20.1096 C   0  0  0  0  0  0
  -22.7455  -29.4590   22.4969 C   0  0  0  0  0  0
  -18.0288  -28.1525   22.8541 C   0  0  0  0  0  0
  -24.1461  -36.7338   23.2641 C   0  0  0  0  0  0
  -25.9214  -30.8476   21.3561 C   0  0  0  0  0  0
  -25.9987  -29.4843   20.6974 C   0  0  0  0  0  0
  -27.2014  -28.7535   20.6617 C   0  0  0  0  0  0
  -26.0443  -26.9571   19.4919 C   0  0  0  0  0  0
  -24.8550  -27.6994   19.4907 C   0  0  0  0  0  0
  -23.6039  -29.8290   20.1535 C   0  0  0  0  0  0
  -25.4116  -36.3206   24.0346 C   0  0  1  0  0  0
  -20.5907  -28.3601   23.1536 C   0  0  2  0  0  0
  -20.6563  -26.9330   22.5650 C   0  0  0  0  0  0
  -19.5804  -26.6782   21.5075 C   0  0  0  0  0  0
  -18.1883  -26.8255   22.1276 C   0  0  0  0  0  0
  -19.1586  -28.8858   23.3079 C   0  0  0  0  0  0
  -18.9562  -30.1437   23.9176 C   0  0  0  0  0  0
  -17.6573  -30.6600   24.0891 C   0  0  0  0  0  0
  -25.8998  -34.9584   23.5086 C   0  0  0  0  0  0
  -16.5426  -29.9180   23.6623 C   0  0  0  0  0  0
  -16.7304  -28.6715   23.0404 C   0  0  0  0  0  0
  -26.4447  -31.6713   25.0760 C   0  0  0  0  0  0
  -25.3798  -31.3744   26.1562 C   0  0  0  0  0  0
  -27.0294  -30.3189   24.6119 C   0  0  0  0  0  0
  -27.5966  -32.4456   25.7625 C   0  0  0  0  0  0
  -27.5572  -37.1872   24.8465 C   0  0  0  0  0  0
  -21.4161  -29.2859   22.3794 N   0  0  0  0  0  0
  -26.4291  -37.3922   23.9410 N   0  0  0  0  0  0
  -24.6584  -31.0856   22.0903 N   0  0  0  0  0  0
  -23.4307  -28.8236   23.3015 O   0  0  0  0  0  0
  -28.3629  -26.6999   20.1621 O   0  0  0  0  0  0
  -26.5492  -34.9020   22.4627 O   0  0  0  0  0  0
  -23.5271  -32.1386   23.7482 O   0  0  0  0  0  0
  -28.1706  -17.9957   22.6093 C   0  0  0  0  0  0
  -27.8664  -20.1055   21.4263 C   0  0  0  0  0  0
  -29.6966  -18.6253   20.8046 C   0  0  0  0  0  0
  -27.4750  -19.2122   22.4457 C   0  0  0  0  0  0
  -29.2918  -17.6983   21.7954 C   0  0  0  0  0  0
  -28.9772  -19.8247   20.5918 C   0  0  0  0  0  0
  -28.4641  -23.9599   22.8435 C   0  0  0  0  0  0
  -29.4736  -23.0833   22.1069 C   0  0  0  0  0  0
  -29.2337  -24.4578   20.0369 C   0  0  0  0  0  0
  -28.3760  -25.4074   22.3084 C   0  0  1  0  0  0
  -29.1488  -23.0252   20.6063 C   0  0  1  0  0  0
  -28.2086  -25.3922   20.7434 C   0  0  1  0  0  0
  -26.2898  -19.5481   23.3411 C   0  0  0  0  0  0
  -25.8868  -25.5861   23.1428 C   0  0  0  0  0  0
  -27.7440  -26.4754   24.5888 C   0  0  0  0  0  0
  -30.0303  -16.3676   21.9400 C   0  0  0  0  0  0
  -29.3658  -20.7913   19.4584 C   0  0  0  0  0  0
  -27.3016  -26.2012   23.1371 C   0  0  0  0  0  0
  -29.9154  -15.5281   20.7385 N   0  0  0  0  0  0
  -30.0272  -22.0363   19.9365 N   0  3  0  0  0  0
  -31.4613  -12.4213   19.0336 H   0  0  0  0  0  0
  -30.3681  -11.3049   19.8152 H   0  0  0  0  0  0
  -29.7181  -11.6560   17.4312 H   0  0  0  0  0  0
  -29.6371  -13.3787   17.6522 H   0  0  0  0  0  0
  -27.7681  -11.2740   18.7666 H   0  0  0  0  0  0
  -27.3535  -12.6222   17.7430 H   0  0  0  0  0  0
  -27.6762  -14.2251   19.5030 H   0  0  0  0  0  0
  -28.6930  -11.9560   21.2713 H   0  0  0  0  0  0
  -28.4820  -13.6028   21.8065 H   0  0  0  0  0  0
  -25.2845   -9.5626   22.4583 H   0  0  0  0  0  0
  -24.0127   -7.4533   22.7324 H   0  0  0  0  0  0
  -21.0756   -8.8634   19.9064 H   0  0  0  0  0  0
  -22.3430  -10.9669   19.6270 H   0  0  0  0  0  0
  -21.2006   -7.6192   23.9818 H   0  0  0  0  0  0
  -21.1502   -6.0520   25.9134 H   0  0  0  0  0  0
  -22.0578   -2.7670   23.2720 H   0  0  0  0  0  0
  -22.3866  -11.9909   22.4758 H   0  0  0  0  0  0
  -21.0950  -13.1302   22.2337 H   0  0  0  0  0  0
  -24.6635  -15.8263   20.5611 H   0  0  0  0  0  0
  -26.2815  -15.6232   20.1024 H   0  0  0  0  0  0
  -26.7073  -32.5590   23.1172 H   0  0  0  0  0  0
  -25.0317  -33.9916   25.0650 H   0  0  0  0  0  0
  -22.6763  -31.2958   21.4011 H   0  0  0  0  0  0
  -23.3784  -35.9594   23.3321 H   0  0  0  0  0  0
  -24.3488  -36.8900   22.2027 H   0  0  0  0  0  0
  -23.7152  -37.6535   23.6621 H   0  0  0  0  0  0
  -26.0270  -31.6141   20.5874 H   0  0  0  0  0  0
  -26.8091  -30.8929   21.9749 H   0  0  0  0  0  0
  -28.1035  -29.1564   21.0969 H   0  0  0  0  0  0
  -26.0492  -25.9881   19.0108 H   0  0  0  0  0  0
  -23.9682  -27.3149   19.0077 H   0  0  0  0  0  0
  -23.7320  -30.6093   19.4030 H   0  0  0  0  0  0
  -22.7266  -29.2589   19.8372 H   0  0  0  0  0  0
  -25.1326  -36.2064   25.0846 H   0  0  0  0  0  0
  -21.0107  -28.3124   24.1627 H   0  0  0  0  0  0
  -20.4685  -26.2283   23.3758 H   0  0  0  0  0  0
  -21.6549  -26.6926   22.1982 H   0  0  0  0  0  0
  -19.6813  -25.6842   21.0738 H   0  0  0  0  0  0
  -19.7015  -27.3934   20.6918 H   0  0  0  0  0  0
  -17.4370  -26.7577   21.3373 H   0  0  0  0  0  0
  -17.9894  -26.0016   22.8164 H   0  0  0  0  0  0
  -19.8014  -30.7201   24.2713 H   0  0  0  0  0  0
  -17.5168  -31.6218   24.5632 H   0  0  0  0  0  0
  -15.5443  -30.3059   23.8229 H   0  0  0  0  0  0
  -15.8643  -28.1211   22.6919 H   0  0  0  0  0  0
  -24.5992  -30.7033   25.7975 H   0  0  0  0  0  0
  -24.9006  -32.2847   26.5159 H   0  0  0  0  0  0
  -25.8298  -30.8920   27.0243 H   0  0  0  0  0  0
  -26.2871  -29.7096   24.0954 H   0  0  0  0  0  0
  -27.3800  -29.7326   25.4600 H   0  0  0  0  0  0
  -27.8827  -30.4519   23.9474 H   0  0  0  0  0  0
  -27.2518  -33.3760   26.2149 H   0  0  0  0  0  0
  -28.3925  -32.6970   25.0617 H   0  0  0  0  0  0
  -28.0474  -31.8634   26.5652 H   0  0  0  0  0  0
  -28.2693  -38.0096   24.7598 H   0  0  0  0  0  0
  -28.0989  -36.2670   24.6267 H   0  0  0  0  0  0
  -27.2254  -37.1473   25.8849 H   0  0  0  0  0  0
  -20.9194  -29.8392   21.6962 H   0  0  0  0  0  0
  -26.0185  -38.2996   24.1472 H   0  0  0  0  0  0
  -27.8414  -17.2861   23.3582 H   0  0  0  0  0  0
  -27.2973  -21.0091   21.2859 H   0  0  0  0  0  0
  -30.5575  -18.3878   20.1930 H   0  0  0  0  0  0
  -28.6941  -23.9541   23.9107 H   0  0  0  0  0  0
  -27.4946  -23.4812   22.7453 H   0  0  0  0  0  0
  -29.4349  -22.0869   22.5524 H   0  0  0  0  0  0
  -30.4919  -23.4476   22.2628 H   0  0  0  0  0  0
  -29.0319  -24.4372   18.9627 H   0  0  0  0  0  0
  -30.2485  -24.8430   20.1587 H   0  0  0  0  0  0
  -29.3408  -25.8830   22.4935 H   0  0  0  0  0  0
  -28.1152  -22.7252   20.4481 H   0  0  0  0  0  0
  -27.2247  -24.9720   20.5376 H   0  0  0  0  0  0
  -25.6254  -18.6879   23.4487 H   0  0  0  0  0  0
  -25.7071  -20.3758   22.9386 H   0  0  0  0  0  0
  -26.6166  -19.8417   24.3409 H   0  0  0  0  0  0
  -25.4676  -25.5282   22.1367 H   0  0  0  0  0  0
  -25.2045  -26.1896   23.7436 H   0  0  0  0  0  0
  -25.8576  -24.5873   23.5791 H   0  0  0  0  0  0
  -28.7568  -26.8729   24.6330 H   0  0  0  0  0  0
  -27.7072  -25.5795   25.2088 H   0  0  0  0  0  0
  -27.0875  -27.2097   25.0565 H   0  0  0  0  0  0
  -29.6157  -15.8136   22.7925 H   0  0  0  0  0  0
  -31.0787  -16.5468   22.2073 H   0  0  0  0  0  0
  -28.4876  -21.0419   18.8613 H   0  0  0  0  0  0
  -30.0416  -20.2822   18.7672 H   0  0  0  0  0  0
  -27.1919  -27.1886   22.7034 H   0  0  0  0  0  0
  -28.9990  -15.4858   20.2989 H   0  0  0  0  0  0
  -30.7284  -21.7485   20.5973 H   0  0  0  0  0  0
  -30.5019  -22.4775   19.1616 H   0  0  0  0  0  0
  1 25  1  0  0  0
  1 30  2  0  0  0
  1 89  1  0  0  0
  2  3  1  0  0  0
  2 25  1  0  0  0
  2 91  1  0  0  0
  2 92  1  0  0  0
  3  4  1  0  0  0
  3 93  1  0  0  0
  3 94  1  0  0  0
  4  5  1  0  0  0
  4 95  1  0  0  0
  4 96  1  0  0  0
  5  6  1  0  0  0
  5 26  1  0  0  0
  5 97  1  0  0  0
  6 25  1  0  0  0
  6 98  1  0  0  0
  6 99  1  0  0  0
  7  8  2  0  0  0
  7 26  1  0  0  0
  7 29  1  0  0  0
  8  9  1  0  0  0
  8 22  1  0  0  0
  9 10  1  0  0  0
  9 27  2  0  0  0
 10 11  2  0  0  0
 10 15  1  0  0  0
 11 12  1  0  0  0
 11100  1  0  0  0
 12 13  2  0  0  0
 12101  1  0  0  0
 13 14  1  0  0  0
 13 31  1  0  0  0
 14 15  2  0  0  0
 14102  1  0  0  0
 15103  1  0  0  0
 16 17  2  0  0  0
 16 21  1  0  0  0
 16 31  1  0  0  0
 17 18  1  0  0  0
 17104  1  0  0  0
 18 19  2  0  0  0
 18105  1  0  0  0
 19 20  1  0  0  0
 19 24  1  0  0  0
 20 21  2  0  0  0
 20106  1  0  0  0
 21 23  1  0  0  0
 22 28  1  0  0  0
 22 32  2  0  0  0
 26 27  1  0  0  0
 28107  1  0  0  0
 28108  1  0  0  0
 29109  1  0  0  0
 29110  1  0  0  0
 33 34  1  0  0  0
 33 66  1  0  0  0
 33 70  2  0  0  0
 34 36  1  0  0  0
 34 59  1  0  0  0
 34111  1  0  0  0
 35 44  2  0  0  0
 35 45  1  0  0  0
 35 68  1  0  0  0
 36 56  1  0  0  0
 36112  1  0  0  0
 37 39  1  0  0  0
 37 47  1  0  0  0
 37 66  1  0  0  0
 37113  1  0  0  0
 38 43  2  0  0  0
 38 46  1  0  0  0
 38 47  1  0  0  0
 39 64  1  0  0  0
 39 67  2  0  0  0
 40 52  1  0  0  0
 40 53  2  0  0  0
 40 58  1  0  0  0
 41114  1  0  0  0
 41115  1  0  0  0
 41116  1  0  0  0
 41 48  1  0  0  0
 42 43  1  0  0  0
 42 66  1  0  0  0
 42117  1  0  0  0
 42118  1  0  0  0
 43 44  1  0  0  0
 44119  1  0  0  0
 45 46  2  0  0  0
 45120  1  0  0  0
 46121  1  0  0  0
 47122  1  0  0  0
 47123  1  0  0  0
 48 56  1  0  0  0
 48 65  1  0  0  0
 48124  1  0  0  0
 49 50  1  0  0  0
 49 53  1  0  0  0
 49 64  1  0  0  0
 49125  1  0  0  0
 50 51  1  0  0  0
 50126  1  0  0  0
 50127  1  0  0  0
 51 52  1  0  0  0
 51128  1  0  0  0
 51129  1  0  0  0
 52130  1  0  0  0
 52131  1  0  0  0
 53 54  1  0  0  0
 54 55  2  0  0  0
 54132  1  0  0  0
 55 57  1  0  0  0
 55133  1  0  0  0
 56 69  2  0  0  0
 57 58  2  0  0  0
 57134  1  0  0  0
 58135  1  0  0  0
 59 60  1  0  0  0
 59 61  1  0  0  0
 59 62  1  0  0  0
 60136  1  0  0  0
 60137  1  0  0  0
 60138  1  0  0  0
 61139  1  0  0  0
 61140  1  0  0  0
 61141  1  0  0  0
 62142  1  0  0  0
 62143  1  0  0  0
 62144  1  0  0  0
 63 65  1  0  0  0
 63145  1  0  0  0
 63146  1  0  0  0
 63147  1  0  0  0
 64148  1  0  0  0
 65149  1  0  0  0
 68 82  1  0  0  0
 71 74  2  0  0  0
 71 75  1  0  0  0
 71150  1  0  0  0
 72 74  1  0  0  0
 72 76  2  0  0  0
 72151  1  0  0  0
 73 75  2  0  0  0
 73 76  1  0  0  0
 73152  1  0  0  0
 74 83  1  0  0  0
 75 86  1  0  0  0
 76 87  1  0  0  0
 77 78  1  0  0  0
 77153  1  0  0  0
 77154  1  0  0  0
 77 80  1  0  0  0
 78 81  1  0  0  0
 78155  1  0  0  0
 78156  1  0  0  0
 79 81  1  0  0  0
 79 82  1  0  0  0
 79157  1  0  0  0
 79158  1  0  0  0
 80 82  1  0  0  0
 80 88  1  0  0  0
 80159  1  0  0  0
 81 90  1  0  0  0
 81160  1  0  0  0
 82161  1  0  0  0
 83162  1  0  0  0
 83163  1  0  0  0
 83164  1  0  0  0
 84165  1  0  0  0
 84166  1  0  0  0
 84167  1  0  0  0
 84 88  1  0  0  0
 85 88  1  0  0  0
 85168  1  0  0  0
 85169  1  0  0  0
 85170  1  0  0  0
 86 89  1  0  0  0
 86171  1  0  0  0
 86172  1  0  0  0
 87 90  1  0  0  0
 87173  1  0  0  0
 87174  1  0  0  0
 88175  1  0  0  0
 89176  1  0  0  0
 90177  1  0  0  0
 90178  1  0  0  0
M  CHG  1  90   1
M  ISO  4   1 100  68 101  82 101  89 100
M  END
> <chiral flag>
0

> <version>
0

> <s_m_source_file>
/data/baiqing/PycharmProjects/Reinvent-master-3.2/result/LINK_invent/BTK/process_docking_weight1_custom_sum_contain_oxygen_bond_distance_aromatic_linkinvent_7_9_3/rearranged_h_0130.sdf

> <i_m_source_file_index>
69

> <r_mmod_Potential_Energy-OPLS-2005>
-175.582077026367

> <r_mmod_Stretch_Energy-OPLS-2005>
43.5063056945801

> <r_mmod_Bend_Energy-OPLS-2005>
106.113632202148

> <r_mmod_Torsional_Energy-OPLS-2005>
303.942352294922

> <r_mmod_Improper_Torsional_Energy-OPLS-2005>
7.42611169815063

> <r_mmod_Van_der_Waal_Energy-OPLS-2005>
136.711441040039

> <r_mmod_Electrostatic_Energy-OPLS-2005>
-354.211547851562

> <r_mmod_Solvation_Energy-OPLS-2005>
-446.791442871094

> <b_mmod_Minimization_Converged-OPLS-2005>
0

> <r_mmod_RMS_Derivative-OPLS-2005>
11.2255373001099

$$$$
69
                    3D
 Structure written by MMmdl.
168177  0  0  1  0            999 V2000
  -29.0525  -17.9014   20.4083 C   0  0  0  0  0  0
  -29.9087  -14.8255   19.5652 C   0  0  0  0  0  0
  -29.4800  -13.5486   18.5824 C   0  0  0  0  0  0
  -28.3401  -12.6710   19.0885 C   0  0  0  0  0  0
  -27.4986  -13.6612   19.8818 C   0  0  2  0  0  0
  -28.2313  -14.7641   20.8567 C   0  0  0  0  0  0
  -25.1469  -13.8833   20.6014 C   0  0  0  0  0  0
  -24.1331  -13.0478   20.9368 C   0  0  0  0  0  0
  -24.6605  -11.7191   20.8742 C   0  0  0  0  0  0
  -23.9400  -10.4354   21.0282 C   0  0  0  0  0  0
  -24.3815   -9.4251   21.9132 C   0  0  0  0  0  0
  -23.6412   -8.2303   22.0739 C   0  0  0  0  0  0
  -22.4387   -8.0337   21.3533 C   0  0  0  0  0  0
  -22.0103   -9.0303   20.4595 C   0  0  0  0  0  0
  -22.7516  -10.2145   20.2969 C   0  0  0  0  0  0
  -21.6897   -6.0788   22.5274 C   0  0  0  0  0  0
  -21.4062   -6.5676   23.8214 C   0  0  0  0  0  0
  -21.3676   -5.6808   24.9164 C   0  0  0  0  0  0
  -21.6038   -4.3068   24.7202 C   0  0  0  0  0  0
  -21.8808   -3.8182   23.4317 C   0  0  0  0  0  0
  -21.9194   -4.7010   22.3384 C   0  0  0  0  0  0
  -22.7266  -13.4899   21.1971 C   0  0  0  0  0  0
  -22.1652   -4.2200   21.0959 F   0  0  0  0  0  0
  -21.5613   -3.4543   25.7705 F   0  0  0  0  0  0
  -28.9141  -16.0961   20.1977 N   0  0  0  0  0  0
  -26.2481  -13.1007   20.3897 N   0  0  0  0  0  0
  -25.9702  -11.7674   20.5710 N   0  0  0  0  0  0
  -22.0102  -12.7773   22.0567 N   0  0  0  0  0  0
  -25.2316  -15.2588   20.4172 N   0  0  0  0  0  0
  -30.3242  -17.5182   20.3665 O   0  0  0  0  0  0
  -21.6699   -6.8955   21.4247 O   0  0  0  0  0  0
  -22.2783  -14.5155   20.6829 O   0  0  0  0  0  0
  -24.7949  -31.5498   23.0665 C   0  0  0  0  0  0
  -25.9804  -32.3300   23.7357 C   0  0  1  0  0  0
  -27.8907  -26.3797   19.3352 C   0  0  0  0  0  0
  -25.5625  -33.7224   24.0910 N   0  0  0  0  0  0
  -23.7091  -29.7791   21.7014 C   0  0  2  0  0  0
  -24.9783  -26.9517   20.9095 C   0  0  0  0  0  0
  -22.7591  -29.3011   22.7556 C   0  0  0  0  0  0
  -17.9815  -28.1570   22.8538 C   0  0  0  0  0  0
  -24.1465  -36.6640   23.2764 C   0  0  0  0  0  0
  -26.1736  -29.6445   21.6306 C   0  0  0  0  0  0
  -26.2733  -27.9190   21.3023 C   0  0  0  0  0  0
  -27.6289  -27.4221   20.6187 C   0  0  0  0  0  0
  -26.8293  -25.6342   18.4262 C   0  0  0  0  0  0
  -25.3300  -25.4578   18.9765 C   0  0  0  0  0  0
  -23.9483  -28.4467   20.8649 C   0  0  0  0  0  0
  -25.4189  -36.2213   24.0214 C   0  0  1  0  0  0
  -20.5246  -28.3582   23.1497 C   0  0  2  0  0  0
  -20.6170  -26.9782   22.4536 C   0  0  0  0  0  0
  -19.4791  -26.6934   21.4748 C   0  0  0  0  0  0
  -18.1324  -26.8264   22.1735 C   0  0  0  0  0  0
  -19.1064  -28.9023   23.2988 C   0  0  0  0  0  0
  -18.8960  -30.1564   23.9174 C   0  0  0  0  0  0
  -17.5846  -30.6615   24.0631 C   0  0  0  0  0  0
  -25.9224  -34.8605   23.4663 C   0  0  0  0  0  0
  -16.4830  -29.9116   23.6232 C   0  0  0  0  0  0
  -16.6761  -28.6515   23.0464 C   0  0  0  0  0  0
  -26.4941  -31.6182   25.0484 C   0  0  0  0  0  0
  -25.3940  -31.3362   26.1039 C   0  0  0  0  0  0
  -27.1312  -30.2566   24.7209 C   0  0  0  0  0  0
  -27.6019  -32.4750   25.7096 C   0  0  0  0  0  0
  -27.5470  -37.1352   24.8461 C   0  0  0  0  0  0
  -21.4375  -29.2877   22.4896 N   0  0  0  0  0  0
  -26.4194  -37.3108   23.9370 N   0  0  0  0  0  0
  -24.9464  -30.4273   22.1904 N   0  0  0  0  0  0
  -23.2595  -28.7834   23.7473 O   0  0  0  0  0  0
  -28.5967  -25.1440   19.3271 O   0  0  0  0  0  0
  -26.6332  -34.8509   22.4592 O   0  0  0  0  0  0
  -23.6767  -31.9728   23.4249 O   0  0  0  0  0  0
  -25.8050  -27.5233   19.0343 C   0  0  0  0  0  0
  -24.0426  -27.3433   18.6415 C   0  0  0  0  0  0
  -24.9415  -24.5322   21.1794 C   0  0  0  0  0  0
  -26.4486  -25.0500   20.7389 C   0  0  0  0  0  0
  -23.0944  -26.0317   19.3303 C   0  0  0  0  0  0
  -23.4807  -25.0108   20.5932 C   0  0  0  0  0  0
  -23.5406  -22.3476   18.7558 C   0  0  0  0  0  0
  -25.1801  -23.3837   17.2771 C   0  0  0  0  0  0
  -24.6453  -21.2039   18.7069 C   0  0  0  0  0  0
  -26.4218  -22.9927   18.3164 C   0  0  2  0  0  0
  -22.3046  -24.3493   21.3414 C   0  0  0  0  0  0
  -22.7972  -24.8172   18.2124 C   0  0  0  0  0  0
  -27.6060  -22.4743   20.8397 C   0  0  0  0  0  0
  -28.0956  -23.7101   18.5001 C   0  0  0  0  0  0
  -23.7556  -23.5424   17.9163 N   0  0  0  0  0  0
  -28.2165  -19.8940   20.5373 N   0  0  0  0  0  0
  -26.1181  -21.5604   18.6174 N   0  3  0  0  0  0
  -30.6129  -15.3627   18.9348 H   0  0  0  0  0  0
  -30.5658  -14.4411   20.3489 H   0  0  0  0  0  0
  -30.3437  -12.9197   18.3615 H   0  0  0  0  0  0
  -29.1663  -13.9544   17.6197 H   0  0  0  0  0  0
  -28.7126  -11.8772   19.7336 H   0  0  0  0  0  0
  -27.7898  -12.1914   18.2777 H   0  0  0  0  0  0
  -27.1420  -14.2860   19.0608 H   0  0  0  0  0  0
  -28.8556  -14.2585   21.5991 H   0  0  0  0  0  0
  -27.4775  -15.1782   21.5179 H   0  0  0  0  0  0
  -25.2907   -9.5699   22.4800 H   0  0  0  0  0  0
  -24.0063   -7.4700   22.7505 H   0  0  0  0  0  0
  -21.1038   -8.8849   19.8887 H   0  0  0  0  0  0
  -22.3971  -10.9667   19.6077 H   0  0  0  0  0  0
  -21.2101   -7.6193   23.9747 H   0  0  0  0  0  0
  -21.1508   -6.0534   25.9075 H   0  0  0  0  0  0
  -22.0574   -2.7648   23.2789 H   0  0  0  0  0  0
  -22.3923  -11.9484   22.4887 H   0  0  0  0  0  0
  -21.0684  -13.0621   22.2909 H   0  0  0  0  0  0
  -24.4586  -15.9040   20.5388 H   0  0  0  0  0  0
  -26.0929  -15.7026   20.1253 H   0  0  0  0  0  0
  -26.7895  -32.3653   23.0065 H   0  0  0  0  0  0
  -24.8729  -33.7967   24.8252 H   0  0  0  0  0  0
  -23.1943  -30.5249   21.0845 H   0  0  0  0  0  0
  -23.3755  -35.8898   23.3267 H   0  0  0  0  0  0
  -24.3459  -36.8561   22.2185 H   0  0  0  0  0  0
  -23.7216  -37.5701   23.7125 H   0  0  0  0  0  0
  -26.3684  -30.1288   20.6708 H   0  0  0  0  0  0
  -27.0699  -29.9167   22.1658 H   0  0  0  0  0  0
  -28.5507  -27.8962   20.9444 H   0  0  0  0  0  0
  -27.0321  -25.4701   17.3708 H   0  0  0  0  0  0
  -24.9101  -25.4646   17.9991 H   0  0  0  0  0  0
  -24.2810  -29.0886   20.0513 H   0  0  0  0  0  0
  -22.9340  -28.1324   20.6225 H   0  0  0  0  0  0
  -25.1501  -36.0767   25.0689 H   0  0  0  0  0  0
  -20.8811  -28.2227   24.1773 H   0  0  0  0  0  0
  -20.6019  -26.2214   23.2368 H   0  0  0  0  0  0
  -21.5870  -26.8717   21.9800 H   0  0  0  0  0  0
  -19.5543  -25.7120   21.0079 H   0  0  0  0  0  0
  -19.5112  -27.3990   20.6518 H   0  0  0  0  0  0
  -17.3197  -26.6995   21.4618 H   0  0  0  0  0  0
  -17.9824  -26.0645   22.9363 H   0  0  0  0  0  0
  -19.7236  -30.7384   24.3015 H   0  0  0  0  0  0
  -17.4169  -31.6234   24.5341 H   0  0  0  0  0  0
  -15.4844  -30.2914   23.7517 H   0  0  0  0  0  0
  -15.8239  -28.0721   22.7322 H   0  0  0  0  0  0
  -24.6262  -30.6601   25.7212 H   0  0  0  0  0  0
  -24.9011  -32.2424   26.4497 H   0  0  0  0  0  0
  -25.8164  -30.8450   26.9842 H   0  0  0  0  0  0
  -26.4077  -29.5476   24.3189 H   0  0  0  0  0  0
  -27.5248  -29.7793   25.6193 H   0  0  0  0  0  0
  -27.9796  -30.3498   24.0436 H   0  0  0  0  0  0
  -27.2121  -33.4227   26.0912 H   0  0  0  0  0  0
  -28.3888  -32.7161   24.9898 H   0  0  0  0  0  0
  -28.0744  -31.9635   26.5512 H   0  0  0  0  0  0
  -28.2404  -37.9718   24.7529 H   0  0  0  0  0  0
  -28.1083  -36.2224   24.6362 H   0  0  0  0  0  0
  -27.2150  -37.0957   25.8850 H   0  0  0  0  0  0
  -21.1298  -29.6909   21.6141 H   0  0  0  0  0  0
  -25.9945  -38.2122   24.1273 H   0  0  0  0  0  0
  -26.4518  -28.1083   18.3842 H   0  0  0  0  0  0
  -23.6390  -27.9292   17.8344 H   0  0  0  0  0  0
  -24.9162  -23.7239   21.9058 H   0  0  0  0  0  0
  -23.2758  -22.6170   19.7643 H   0  0  0  0  0  0
  -22.6097  -21.8838   18.4043 H   0  0  0  0  0  0
  -25.1321  -22.5541   16.5473 H   0  0  0  0  0  0
  -25.4631  -24.2002   16.6102 H   0  0  0  0  0  0
  -24.4323  -20.5844   17.8443 H   0  0  0  0  0  0
  -24.4489  -20.5456   19.5587 H   0  0  0  0  0  0
  -25.9669  -23.2466   19.2489 H   0  0  0  0  0  0
  -21.3667  -24.5533   20.8425 H   0  0  0  0  0  0
  -22.1970  -24.7003   22.3708 H   0  0  0  0  0  0
  -22.3733  -23.2721   21.4299 H   0  0  0  0  0  0
  -22.5329  -25.3209   17.2757 H   0  0  0  0  0  0
  -21.8571  -24.3757   18.5410 H   0  0  0  0  0  0
  -28.6439  -22.8087   20.9609 H   0  0  0  0  0  0
  -27.2774  -22.3301   21.8676 H   0  0  0  0  0  0
  -28.4973  -23.8428   17.4918 H   0  0  0  0  0  0
  -28.7478  -22.8955   18.7705 H   0  0  0  0  0  0
  -29.1912  -20.1688   20.4674 H   0  0  0  0  0  0
  -26.4709  -20.9811   17.8746 H   0  0  0  0  0  0
  -26.5646  -21.2570   19.4723 H   0  0  0  0  0  0
  1 25  1  0  0  0
  1 30  2  0  0  0
  1 86  1  0  0  0
  2  3  1  0  0  0
  2 25  1  0  0  0
  2 88  1  0  0  0
  2 89  1  0  0  0
  3  4  1  0  0  0
  3 90  1  0  0  0
  3 91  1  0  0  0
  4  5  1  0  0  0
  4 92  1  0  0  0
  4 93  1  0  0  0
  5  6  1  0  0  0
  5 26  1  0  0  0
  5 94  1  0  0  0
  6 25  1  0  0  0
  6 95  1  0  0  0
  6 96  1  0  0  0
  7  8  2  0  0  0
  7 26  1  0  0  0
  7 29  1  0  0  0
  8  9  1  0  0  0
  8 22  1  0  0  0
  9 10  1  0  0  0
  9 27  2  0  0  0
 10 11  2  0  0  0
 10 15  1  0  0  0
 11 12  1  0  0  0
 11 97  1  0  0  0
 12 13  2  0  0  0
 12 98  1  0  0  0
 13 14  1  0  0  0
 13 31  1  0  0  0
 14 15  2  0  0  0
 14 99  1  0  0  0
 15100  1  0  0  0
 16 17  2  0  0  0
 16 21  1  0  0  0
 16 31  1  0  0  0
 17 18  1  0  0  0
 17101  1  0  0  0
 18 19  2  0  0  0
 18102  1  0  0  0
 19 20  1  0  0  0
 19 24  1  0  0  0
 20 21  2  0  0  0
 20103  1  0  0  0
 21 23  1  0  0  0
 22 28  1  0  0  0
 22 32  2  0  0  0
 26 27  1  0  0  0
 28104  1  0  0  0
 28105  1  0  0  0
 29106  1  0  0  0
 29107  1  0  0  0
 33 34  1  0  0  0
 33 66  1  0  0  0
 33 70  2  0  0  0
 34 36  1  0  0  0
 34 59  1  0  0  0
 34108  1  0  0  0
 35 44  2  0  0  0
 35 45  1  0  0  0
 35 68  1  0  0  0
 36 56  1  0  0  0
 36109  1  0  0  0
 37 39  1  0  0  0
 37 47  1  0  0  0
 37 66  1  0  0  0
 37110  1  0  0  0
 38 43  2  0  0  0
 38 46  1  0  0  0
 38 47  1  0  0  0
 39 64  1  0  0  0
 39 67  2  0  0  0
 40 52  1  0  0  0
 40 53  2  0  0  0
 40 58  1  0  0  0
 41111  1  0  0  0
 41112  1  0  0  0
 41113  1  0  0  0
 41 48  1  0  0  0
 42 43  1  0  0  0
 42 66  1  0  0  0
 42114  1  0  0  0
 42115  1  0  0  0
 43 44  1  0  0  0
 44116  1  0  0  0
 45 46  2  0  0  0
 45117  1  0  0  0
 46118  1  0  0  0
 47119  1  0  0  0
 47120  1  0  0  0
 48 56  1  0  0  0
 48 65  1  0  0  0
 48121  1  0  0  0
 49 50  1  0  0  0
 49 53  1  0  0  0
 49 64  1  0  0  0
 49122  1  0  0  0
 50 51  1  0  0  0
 50123  1  0  0  0
 50124  1  0  0  0
 51 52  1  0  0  0
 51125  1  0  0  0
 51126  1  0  0  0
 52127  1  0  0  0
 52128  1  0  0  0
 53 54  1  0  0  0
 54 55  2  0  0  0
 54129  1  0  0  0
 55 57  1  0  0  0
 55130  1  0  0  0
 56 69  2  0  0  0
 57 58  2  0  0  0
 57131  1  0  0  0
 58132  1  0  0  0
 59 60  1  0  0  0
 59 61  1  0  0  0
 59 62  1  0  0  0
 60133  1  0  0  0
 60134  1  0  0  0
 60135  1  0  0  0
 61136  1  0  0  0
 61137  1  0  0  0
 61138  1  0  0  0
 62139  1  0  0  0
 62140  1  0  0  0
 62141  1  0  0  0
 63 65  1  0  0  0
 63142  1  0  0  0
 63143  1  0  0  0
 63144  1  0  0  0
 64145  1  0  0  0
 65146  1  0  0  0
 68 84  1  0  0  0
 71 72  2  0  0  0
 71 74  1  0  0  0
 71147  1  0  0  0
 72 75  1  0  0  0
 72148  1  0  0  0
 73 74  2  0  0  0
 73 76  1  0  0  0
 73149  1  0  0  0
 74 83  1  0  0  0
 75 76  2  0  0  0
 75 82  1  0  0  0
 76 81  1  0  0  0
 77 79  1  0  0  0
 77 85  1  0  0  0
 77150  1  0  0  0
 77151  1  0  0  0
 78 80  1  0  0  0
 78 85  1  0  0  0
 78152  1  0  0  0
 78153  1  0  0  0
 79 87  1  0  0  0
 79154  1  0  0  0
 79155  1  0  0  0
 80 84  1  0  0  0
 80 87  1  0  0  0
 80156  1  0  0  0
 81157  1  0  0  0
 81158  1  0  0  0
 81159  1  0  0  0
 82 85  1  0  0  0
 82160  1  0  0  0
 82161  1  0  0  0
 83 86  1  0  0  0
 83162  1  0  0  0
 83163  1  0  0  0
 84164  1  0  0  0
 84165  1  0  0  0
 86166  1  0  0  0
 87167  1  0  0  0
 87168  1  0  0  0
M  CHG  1  87   1
M  ISO  4   1 100  68 101  84 101  86 100
M  END
> <chiral flag>
0

> <version>
0

> <s_m_source_file>
/data/baiqing/PycharmProjects/Reinvent-master-3.2/result/LINK_invent/BTK/process_docking_weight1_custom_sum_contain_oxygen_bond_distance_aromatic_linkinvent_7_9_3/rearranged_h_0130.sdf

> <i_m_source_file_index>
70

> <r_mmod_Potential_Energy-OPLS-2005>
30651.365234375

> <r_mmod_Stretch_Energy-OPLS-2005>
16391.23828125

> <r_mmod_Bend_Energy-OPLS-2005>
2213.69995117188

> <r_mmod_Torsional_Energy-OPLS-2005>
750.841918945312

> <r_mmod_Improper_Torsional_Energy-OPLS-2005>
109.928703308105

> <r_mmod_Van_der_Waal_Energy-OPLS-2005>
4085.19604492188

> <r_mmod_Electrostatic_Energy-OPLS-2005>
-210.915313720703

> <r_mmod_Solvation_Energy-OPLS-2005>
-503.215362548828

> <b_mmod_Minimization_Converged-OPLS-2005>
0

> <r_mmod_RMS_Derivative-OPLS-2005>
51.1731338500977

$$$$
70
                    3D
 Structure written by MMmdl.
170178  0  0  1  0            999 V2000
  -30.5838  -14.7355   20.4604 C   0  0  0  0  0  0
  -30.4281  -12.4484   19.4915 C   0  0  0  0  0  0
  -29.5110  -12.5247   18.2491 C   0  0  0  0  0  0
  -28.0363  -12.3431   18.6560 C   0  0  0  0  0  0
  -27.6407  -13.2337   19.8631 C   0  0  2  0  0  0
  -28.6766  -13.1529   21.0065 C   0  0  0  0  0  0
  -25.2470  -13.8216   20.5693 C   0  0  0  0  0  0
  -24.1745  -13.0431   20.9195 C   0  0  0  0  0  0
  -24.6358  -11.6919   20.8731 C   0  0  0  0  0  0
  -23.9021  -10.4287   21.0406 C   0  0  0  0  0  0
  -24.3589   -9.4210   21.9186 C   0  0  0  0  0  0
  -23.6283   -8.2231   22.0754 C   0  0  0  0  0  0
  -22.4280   -8.0254   21.3524 C   0  0  0  0  0  0
  -21.9877   -9.0217   20.4643 C   0  0  0  0  0  0
  -22.7189  -10.2113   20.3060 C   0  0  0  0  0  0
  -21.6867   -6.0708   22.5265 C   0  0  0  0  0  0
  -21.4018   -6.5613   23.8192 C   0  0  0  0  0  0
  -21.3668   -5.6787   24.9159 C   0  0  0  0  0  0
  -21.6042   -4.3042   24.7239 C   0  0  0  0  0  0
  -21.8821   -3.8124   23.4363 C   0  0  0  0  0  0
  -21.9188   -4.6929   22.3413 C   0  0  0  0  0  0
  -22.7773  -13.5196   21.1887 C   0  0  0  0  0  0
  -22.1648   -4.2095   21.1001 F   0  0  0  0  0  0
  -21.5647   -3.4542   25.7763 F   0  0  0  0  0  0
  -29.9874  -13.4954   20.4410 N   0  0  0  0  0  0
  -26.2910  -12.9411   20.3348 N   0  0  0  0  0  0
  -25.9294  -11.6544   20.5769 N   0  0  0  0  0  0
  -22.0428  -12.8158   22.0467 N   0  0  0  0  0  0
  -25.4159  -15.1928   20.4066 N   0  0  0  0  0  0
  -31.7488  -14.8715   20.0762 O   0  0  0  0  0  0
  -21.6648   -6.8843   21.4230 O   0  0  0  0  0  0
  -22.3432  -14.5488   20.6749 O   0  0  0  0  0  0
  -24.6241  -31.8570   23.2034 C   0  0  0  0  0  0
  -25.9070  -32.4759   23.8354 C   0  0  1  0  0  0
  -27.2211  -27.2879   20.1281 C   0  0  0  0  0  0
  -25.5894  -33.8570   24.2272 N   0  0  0  0  0  0
  -23.4199  -30.4793   21.5440 C   0  0  2  0  0  0
  -24.8667  -28.9257   20.1091 C   0  0  0  0  0  0
  -22.7473  -29.4588   22.4929 C   0  0  0  0  0  0
  -18.0296  -28.1352   22.8478 C   0  0  0  0  0  0
  -24.1496  -36.7304   23.2654 C   0  0  0  0  0  0
  -25.9608  -30.7733   21.3804 C   0  0  0  0  0  0
  -26.0317  -29.3982   20.7232 C   0  0  0  0  0  0
  -27.2041  -28.5853   20.7329 C   0  0  0  0  0  0
  -26.0298  -26.8636   19.4951 C   0  0  0  0  0  0
  -24.8685  -27.6635   19.4903 C   0  0  0  0  0  0
  -23.6367  -29.8130   20.1596 C   0  0  0  0  0  0
  -25.4118  -36.3085   24.0331 C   0  0  1  0  0  0
  -20.5898  -28.3659   23.1288 C   0  0  2  0  0  0
  -20.6790  -26.9379   22.5430 C   0  0  0  0  0  0
  -19.5769  -26.6363   21.5225 C   0  0  0  0  0  0
  -18.1934  -26.7890   22.1620 C   0  0  0  0  0  0
  -19.1547  -28.8816   23.2872 C   0  0  0  0  0  0
  -18.9477  -30.1430   23.8864 C   0  0  0  0  0  0
  -17.6475  -30.6558   24.0548 C   0  0  0  0  0  0
  -25.9052  -34.9445   23.5107 C   0  0  0  0  0  0
  -16.5365  -29.9051   23.6336 C   0  0  0  0  0  0
  -16.7279  -28.6484   23.0321 C   0  0  0  0  0  0
  -26.4465  -31.6583   25.0735 C   0  0  0  0  0  0
  -25.3722  -31.3697   26.1496 C   0  0  0  0  0  0
  -27.0318  -30.3015   24.6177 C   0  0  0  0  0  0
  -27.6023  -32.4351   25.7477 C   0  0  0  0  0  0
  -27.5570  -37.1806   24.8459 C   0  0  0  0  0  0
  -21.4188  -29.3009   22.3665 N   0  0  0  0  0  0
  -26.4294  -37.3781   23.9404 N   0  0  0  0  0  0
  -24.6868  -31.0542   22.0990 N   0  0  0  0  0  0
  -23.4203  -28.8132   23.3002 O   0  0  0  0  0  0
  -28.3513  -26.4551   20.2211 O   0  0  0  0  0  0
  -26.5642  -34.8898   22.4689 O   0  0  0  0  0  0
  -23.5410  -32.1381   23.7356 O   0  0  0  0  0  0
  -30.0725  -20.1582   18.8429 C   0  0  0  0  0  0
  -29.6507  -21.3949   18.0201 C   0  0  0  0  0  0
  -30.6830  -22.7860   19.7132 C   0  0  0  0  0  0
  -29.2040  -19.9610   20.1132 C   0  0  1  0  0  0
  -29.3998  -22.6724   20.5731 C   0  0  1  0  0  0
  -32.5776  -23.8679   17.8359 C   0  0  0  0  0  0
  -31.4927  -22.5393   15.9845 C   0  0  0  0  0  0
  -29.5533  -18.5712   20.8839 C   0  0  0  0  0  0
  -28.2006  -23.6893   20.1772 C   0  0  0  0  0  0
  -29.8410  -17.2232   20.0412 C   0  0  0  0  0  0
  -28.4799  -25.1464   19.5248 C   0  0  0  0  0  0
  -31.7484  -22.6073   17.5071 C   0  0  0  0  0  0
  -30.4789  -22.5871   18.2667 N   0  0  0  0  0  0
  -29.7742  -15.8370   20.6814 N   0  0  0  0  0  0
  -29.1000  -21.2170   21.0025 N   0  3  0  0  0  0
  -31.4681  -12.5805   19.1910 H   0  0  0  0  0  0
  -30.3704  -11.4648   19.9624 H   0  0  0  0  0  0
  -29.7958  -11.7644   17.5207 H   0  0  0  0  0  0
  -29.6414  -13.4880   17.7527 H   0  0  0  0  0  0
  -27.8964  -11.2931   18.9187 H   0  0  0  0  0  0
  -27.3788  -12.5386   17.8074 H   0  0  0  0  0  0
  -27.6353  -14.2597   19.4953 H   0  0  0  0  0  0
  -28.6977  -12.1557   21.4471 H   0  0  0  0  0  0
  -28.4051  -13.8377   21.8140 H   0  0  0  0  0  0
  -25.2725   -9.5685   22.4765 H   0  0  0  0  0  0
  -23.9978   -7.4629   22.7477 H   0  0  0  0  0  0
  -21.0796   -8.8721   19.8960 H   0  0  0  0  0  0
  -22.3623  -10.9639   19.6170 H   0  0  0  0  0  0
  -21.2005   -7.6124   23.9656 H   0  0  0  0  0  0
  -21.1501   -6.0543   25.9050 H   0  0  0  0  0  0
  -22.0602   -2.7580   23.2900 H   0  0  0  0  0  0
  -22.4054  -11.9800   22.4818 H   0  0  0  0  0  0
  -21.1065  -13.1183   22.2743 H   0  0  0  0  0  0
  -24.6480  -15.8523   20.4863 H   0  0  0  0  0  0
  -26.2701  -15.6183   20.0706 H   0  0  0  0  0  0
  -26.7114  -32.5420   23.1073 H   0  0  0  0  0  0
  -25.0002  -33.9737   25.0392 H   0  0  0  0  0  0
  -22.7126  -31.2999   21.4024 H   0  0  0  0  0  0
  -23.3750  -35.9646   23.3318 H   0  0  0  0  0  0
  -24.3596  -36.8928   22.2072 H   0  0  0  0  0  0
  -23.7251  -37.6506   23.6678 H   0  0  0  0  0  0
  -26.0971  -31.5301   20.6086 H   0  0  0  0  0  0
  -26.8418  -30.8263   22.0077 H   0  0  0  0  0  0
  -28.0858  -28.9353   21.2501 H   0  0  0  0  0  0
  -25.9566  -25.8879   19.0365 H   0  0  0  0  0  0
  -23.9696  -27.2897   19.0212 H   0  0  0  0  0  0
  -23.7608  -30.5939   19.4098 H   0  0  0  0  0  0
  -22.7535  -29.2492   19.8552 H   0  0  0  0  0  0
  -25.1292  -36.1945   25.0820 H   0  0  0  0  0  0
  -20.9980  -28.3242   24.1416 H   0  0  0  0  0  0
  -20.5721  -26.2251   23.3635 H   0  0  0  0  0  0
  -21.6644  -26.7418   22.1193 H   0  0  0  0  0  0
  -19.6942  -25.6292   21.1218 H   0  0  0  0  0  0
  -19.6699  -27.3206   20.6783 H   0  0  0  0  0  0
  -17.4228  -26.6661   21.4005 H   0  0  0  0  0  0
  -18.0293  -26.0012   22.8990 H   0  0  0  0  0  0
  -19.7959  -30.7250   24.2194 H   0  0  0  0  0  0
  -17.5036  -31.6234   24.5162 H   0  0  0  0  0  0
  -15.5361  -30.2929   23.7682 H   0  0  0  0  0  0
  -15.8685  -28.0814   22.6991 H   0  0  0  0  0  0
  -24.5887  -30.7038   25.7856 H   0  0  0  0  0  0
  -24.8931  -32.2849   26.4983 H   0  0  0  0  0  0
  -25.8099  -30.8858   27.0238 H   0  0  0  0  0  0
  -26.2883  -29.6755   24.1226 H   0  0  0  0  0  0
  -27.4051  -29.7274   25.4667 H   0  0  0  0  0  0
  -27.8725  -30.4326   23.9362 H   0  0  0  0  0  0
  -27.2614  -33.3653   26.2035 H   0  0  0  0  0  0
  -28.3802  -32.6923   25.0273 H   0  0  0  0  0  0
  -28.0704  -31.8495   26.5400 H   0  0  0  0  0  0
  -28.2591  -38.0103   24.7501 H   0  0  0  0  0  0
  -28.1058  -36.2631   24.6276 H   0  0  0  0  0  0
  -27.2288  -37.1437   25.8864 H   0  0  0  0  0  0
  -20.9364  -29.8719   21.6867 H   0  0  0  0  0  0
  -26.0166  -38.2853   24.1411 H   0  0  0  0  0  0
  -31.1409  -20.1416   19.0571 H   0  0  0  0  0  0
  -29.9127  -19.2898   18.2039 H   0  0  0  0  0  0
  -28.6172  -21.6305   18.2695 H   0  0  0  0  0  0
  -29.5878  -21.1608   16.9598 H   0  0  0  0  0  0
  -31.4382  -22.0932   20.0906 H   0  0  0  0  0  0
  -31.1000  -23.7758   19.8933 H   0  0  0  0  0  0
  -28.1856  -19.8249   19.7426 H   0  0  0  0  0  0
  -29.7210  -23.0810   21.5339 H   0  0  0  0  0  0
  -33.4316  -23.9673   17.1664 H   0  0  0  0  0  0
  -33.0002  -23.8277   18.8406 H   0  0  0  0  0  0
  -31.9890  -24.7813   17.7414 H   0  0  0  0  0  0
  -32.3974  -22.7694   15.4198 H   0  0  0  0  0  0
  -30.7267  -23.2481   15.6658 H   0  0  0  0  0  0
  -31.1962  -21.5418   15.6549 H   0  0  0  0  0  0
  -28.7340  -18.3739   21.5763 H   0  0  0  0  0  0
  -30.4241  -18.7357   21.5190 H   0  0  0  0  0  0
  -27.5272  -23.8054   21.0266 H   0  0  0  0  0  0
  -27.5941  -23.1629   19.4396 H   0  0  0  0  0  0
  -29.0986  -17.1951   19.2415 H   0  0  0  0  0  0
  -30.8052  -17.3355   19.5419 H   0  0  0  0  0  0
  -27.9227  -25.2030   18.5886 H   0  0  0  0  0  0
  -29.5059  -25.1439   19.1657 H   0  0  0  0  0  0
  -32.3568  -21.7466   17.7826 H   0  0  0  0  0  0
  -28.8743  -15.6005   21.0746 H   0  0  0  0  0  0
  -29.7722  -21.0509   21.7354 H   0  0  0  0  0  0
  -28.2069  -21.2047   21.4702 H   0  0  0  0  0  0
  1 25  1  0  0  0
  1 30  2  0  0  0
  1 84  1  0  0  0
  2  3  1  0  0  0
  2 25  1  0  0  0
  2 86  1  0  0  0
  2 87  1  0  0  0
  3  4  1  0  0  0
  3 88  1  0  0  0
  3 89  1  0  0  0
  4  5  1  0  0  0
  4 90  1  0  0  0
  4 91  1  0  0  0
  5  6  1  0  0  0
  5 26  1  0  0  0
  5 92  1  0  0  0
  6 25  1  0  0  0
  6 93  1  0  0  0
  6 94  1  0  0  0
  7  8  2  0  0  0
  7 26  1  0  0  0
  7 29  1  0  0  0
  8  9  1  0  0  0
  8 22  1  0  0  0
  9 10  1  0  0  0
  9 27  2  0  0  0
 10 11  2  0  0  0
 10 15  1  0  0  0
 11 12  1  0  0  0
 11 95  1  0  0  0
 12 13  2  0  0  0
 12 96  1  0  0  0
 13 14  1  0  0  0
 13 31  1  0  0  0
 14 15  2  0  0  0
 14 97  1  0  0  0
 15 98  1  0  0  0
 16 17  2  0  0  0
 16 21  1  0  0  0
 16 31  1  0  0  0
 17 18  1  0  0  0
 17 99  1  0  0  0
 18 19  2  0  0  0
 18100  1  0  0  0
 19 20  1  0  0  0
 19 24  1  0  0  0
 20 21  2  0  0  0
 20101  1  0  0  0
 21 23  1  0  0  0
 22 28  1  0  0  0
 22 32  2  0  0  0
 26 27  1  0  0  0
 28102  1  0  0  0
 28103  1  0  0  0
 29104  1  0  0  0
 29105  1  0  0  0
 33 34  1  0  0  0
 33 66  1  0  0  0
 33 70  2  0  0  0
 34 36  1  0  0  0
 34 59  1  0  0  0
 34106  1  0  0  0
 35 44  2  0  0  0
 35 45  1  0  0  0
 35 68  1  0  0  0
 36 56  1  0  0  0
 36107  1  0  0  0
 37 39  1  0  0  0
 37 47  1  0  0  0
 37 66  1  0  0  0
 37108  1  0  0  0
 38 43  2  0  0  0
 38 46  1  0  0  0
 38 47  1  0  0  0
 39 64  1  0  0  0
 39 67  2  0  0  0
 40 52  1  0  0  0
 40 53  2  0  0  0
 40 58  1  0  0  0
 41109  1  0  0  0
 41110  1  0  0  0
 41111  1  0  0  0
 41 48  1  0  0  0
 42 43  1  0  0  0
 42 66  1  0  0  0
 42112  1  0  0  0
 42113  1  0  0  0
 43 44  1  0  0  0
 44114  1  0  0  0
 45 46  2  0  0  0
 45115  1  0  0  0
 46116  1  0  0  0
 47117  1  0  0  0
 47118  1  0  0  0
 48 56  1  0  0  0
 48 65  1  0  0  0
 48119  1  0  0  0
 49 50  1  0  0  0
 49 53  1  0  0  0
 49 64  1  0  0  0
 49120  1  0  0  0
 50 51  1  0  0  0
 50121  1  0  0  0
 50122  1  0  0  0
 51 52  1  0  0  0
 51123  1  0  0  0
 51124  1  0  0  0
 52125  1  0  0  0
 52126  1  0  0  0
 53 54  1  0  0  0
 54 55  2  0  0  0
 54127  1  0  0  0
 55 57  1  0  0  0
 55128  1  0  0  0
 56 69  2  0  0  0
 57 58  2  0  0  0
 57129  1  0  0  0
 58130  1  0  0  0
 59 60  1  0  0  0
 59 61  1  0  0  0
 59 62  1  0  0  0
 60131  1  0  0  0
 60132  1  0  0  0
 60133  1  0  0  0
 61134  1  0  0  0
 61135  1  0  0  0
 61136  1  0  0  0
 62137  1  0  0  0
 62138  1  0  0  0
 62139  1  0  0  0
 63 65  1  0  0  0
 63140  1  0  0  0
 63141  1  0  0  0
 63142  1  0  0  0
 64143  1  0  0  0
 65144  1  0  0  0
 68 81  1  0  0  0
 71 72  1  0  0  0
 71 74  1  0  0  0
 71145  1  0  0  0
 71146  1  0  0  0
 72 83  1  0  0  0
 72147  1  0  0  0
 72148  1  0  0  0
 73 75  1  0  0  0
 73 83  1  0  0  0
 73149  1  0  0  0
 73150  1  0  0  0
 74 78  1  0  0  0
 74 85  1  0  0  0
 74151  1  0  0  0
 75 79  1  0  0  0
 75 85  1  0  0  0
 75152  1  0  0  0
 76153  1  0  0  0
 76154  1  0  0  0
 76155  1  0  0  0
 76 82  1  0  0  0
 77 82  1  0  0  0
 77156  1  0  0  0
 77157  1  0  0  0
 77158  1  0  0  0
 78 80  1  0  0  0
 78159  1  0  0  0
 78160  1  0  0  0
 79 81  1  0  0  0
 79161  1  0  0  0
 79162  1  0  0  0
 80 84  1  0  0  0
 80163  1  0  0  0
 80164  1  0  0  0
 81165  1  0  0  0
 81166  1  0  0  0
 82 83  1  0  0  0
 82167  1  0  0  0
 84168  1  0  0  0
 85169  1  0  0  0
 85170  1  0  0  0
M  CHG  1  85   1
M  ISO  4   1 100  68 101  81 101  84 100
M  END
> <chiral flag>
0

> <version>
0

> <s_m_source_file>
/data/baiqing/PycharmProjects/Reinvent-master-3.2/result/LINK_invent/BTK/process_docking_weight1_custom_sum_contain_oxygen_bond_distance_aromatic_linkinvent_7_9_3/rearranged_h_0130.sdf

> <i_m_source_file_index>
71

> <r_mmod_Potential_Energy-OPLS-2005>
99.1360244750977

> <r_mmod_Stretch_Energy-OPLS-2005>
121.873458862305

> <r_mmod_Bend_Energy-OPLS-2005>
225.964584350586

> <r_mmod_Torsional_Energy-OPLS-2005>
279.3798828125

> <r_mmod_Improper_Torsional_Energy-OPLS-2005>
7.04819679260254

> <r_mmod_Van_der_Waal_Energy-OPLS-2005>
143.776092529297

> <r_mmod_Electrostatic_Energy-OPLS-2005>
-277.312561035156

> <r_mmod_Solvation_Energy-OPLS-2005>
-477.931579589844

> <b_mmod_Minimization_Converged-OPLS-2005>
0

> <r_mmod_RMS_Derivative-OPLS-2005>
4.43306827545166

$$$$
71
                    3D
 Structure written by MMmdl.
177186  0  0  1  0            999 V2000
  -30.7630  -14.4642   20.6103 C   0  0  0  0  0  0
  -30.4131  -12.3206   19.4378 C   0  0  0  0  0  0
  -29.4941  -12.5188   18.2167 C   0  0  0  0  0  0
  -28.0209  -12.3587   18.6332 C   0  0  0  0  0  0
  -27.6603  -13.2132   19.8761 C   0  0  2  0  0  0
  -28.7020  -13.0434   21.0082 C   0  0  0  0  0  0
  -25.2565  -13.8170   20.5680 C   0  0  0  0  0  0
  -24.1815  -13.0461   20.9175 C   0  0  0  0  0  0
  -24.6373  -11.6923   20.8716 C   0  0  0  0  0  0
  -23.9037  -10.4314   21.0385 C   0  0  0  0  0  0
  -24.3592   -9.4237   21.9169 C   0  0  0  0  0  0
  -23.6276   -8.2269   22.0746 C   0  0  0  0  0  0
  -22.4257   -8.0293   21.3544 C   0  0  0  0  0  0
  -21.9882   -9.0264   20.4641 C   0  0  0  0  0  0
  -22.7202  -10.2151   20.3043 C   0  0  0  0  0  0
  -21.6866   -6.0732   22.5273 C   0  0  0  0  0  0
  -21.4018   -6.5622   23.8207 C   0  0  0  0  0  0
  -21.3655   -5.6772   24.9159 C   0  0  0  0  0  0
  -21.6043   -4.3037   24.7208 C   0  0  0  0  0  0
  -21.8811   -3.8136   23.4328 C   0  0  0  0  0  0
  -21.9202   -4.6962   22.3392 C   0  0  0  0  0  0
  -22.7837  -13.5281   21.1836 C   0  0  0  0  0  0
  -22.1667   -4.2145   21.0971 F   0  0  0  0  0  0
  -21.5645   -3.4518   25.7726 F   0  0  0  0  0  0
  -30.0361  -13.3194   20.4552 N   0  0  0  0  0  0
  -26.3014  -12.9353   20.3385 N   0  0  0  0  0  0
  -25.9307  -11.6507   20.5760 N   0  0  0  0  0  0
  -22.0458  -12.8299   22.0391 N   0  0  0  0  0  0
  -25.4243  -15.1897   20.4096 N   0  0  0  0  0  0
  -31.8624  -14.6153   20.0762 O   0  0  0  0  0  0
  -21.6631   -6.8881   21.4246 O   0  0  0  0  0  0
  -22.3541  -14.5595   20.6704 O   0  0  0  0  0  0
  -24.6186  -31.8663   23.2080 C   0  0  0  0  0  0
  -25.9073  -32.4807   23.8379 C   0  0  1  0  0  0
  -27.2468  -27.4178   20.0962 C   0  0  0  0  0  0
  -25.5920  -33.8596   24.2316 N   0  0  0  0  0  0
  -23.4076  -30.4887   21.5511 C   0  0  2  0  0  0
  -24.8548  -28.9472   20.1192 C   0  0  0  0  0  0
  -22.7442  -29.4668   22.5010 C   0  0  0  0  0  0
  -18.0285  -28.1391   22.8507 C   0  0  0  0  0  0
  -24.1484  -36.7304   23.2637 C   0  0  0  0  0  0
  -25.9374  -30.8270   21.3617 C   0  0  0  0  0  0
  -26.0153  -29.4581   20.7126 C   0  0  0  0  0  0
  -27.2143  -28.7049   20.6893 C   0  0  0  0  0  0
  -26.0654  -26.9264   19.4974 C   0  0  0  0  0  0
  -24.8752  -27.6817   19.5077 C   0  0  0  0  0  0
  -23.6159  -29.8155   20.1670 C   0  0  0  0  0  0
  -25.4104  -36.3093   24.0335 C   0  0  1  0  0  0
  -20.5878  -28.3679   23.1326 C   0  0  2  0  0  0
  -20.6765  -26.9418   22.5416 C   0  0  0  0  0  0
  -19.5732  -26.6401   21.5228 C   0  0  0  0  0  0
  -18.1918  -26.7935   22.1638 C   0  0  0  0  0  0
  -19.1527  -28.8850   23.2904 C   0  0  0  0  0  0
  -18.9448  -30.1469   23.8911 C   0  0  0  0  0  0
  -17.6451  -30.6589   24.0587 C   0  0  0  0  0  0
  -25.9037  -34.9462   23.5111 C   0  0  0  0  0  0
  -16.5341  -29.9087   23.6335 C   0  0  0  0  0  0
  -16.7266  -28.6516   23.0351 C   0  0  0  0  0  0
  -26.4485  -31.6589   25.0713 C   0  0  0  0  0  0
  -25.3750  -31.3719   26.1465 C   0  0  0  0  0  0
  -27.0306  -30.3026   24.6100 C   0  0  0  0  0  0
  -27.6059  -32.4317   25.7474 C   0  0  0  0  0  0
  -27.5585  -37.1796   24.8467 C   0  0  0  0  0  0
  -21.4158  -29.3035   22.3735 N   0  0  0  0  0  0
  -26.4281  -37.3792   23.9431 N   0  0  0  0  0  0
  -24.6736  -31.0755   22.0985 N   0  0  0  0  0  0
  -23.4203  -28.8219   23.3068 O   0  0  0  0  0  0
  -28.4344  -26.7029   20.0601 O   0  0  0  0  0  0
  -26.5606  -34.8924   22.4679 O   0  0  0  0  0  0
  -23.5365  -32.1420   23.7455 O   0  0  0  0  0  0
  -31.1396  -24.1913   16.2824 C   0  0  0  0  0  0
  -30.8983  -23.6372   17.6864 C   0  0  0  0  0  0
  -29.2152  -20.8304   20.5567 C   0  0  0  0  0  0
  -31.2033  -21.7169   21.7969 C   0  0  0  0  0  0
  -28.7410  -22.2975   20.4050 C   0  0  0  0  0  0
  -30.6337  -23.1412   21.6120 C   0  0  0  0  0  0
  -30.6220  -25.6350   16.3341 C   0  0  0  0  0  0
  -30.1218  -20.6091   21.7925 C   0  0  0  0  0  0
  -29.7453  -24.4894   18.2525 C   0  0  1  0  0  0
  -29.0113  -17.8320   22.9069 C   0  0  0  0  0  0
  -30.8861  -16.7821   21.5100 C   0  0  0  0  0  0
  -28.4039  -25.2840   20.3380 C   0  0  0  0  0  0
  -29.6845  -24.5587   19.8089 C   0  0  1  0  0  0
  -29.9541  -18.0193   21.7007 C   0  0  2  0  0  0
  -29.9050  -23.1906   20.3431 N   0  0  0  0  0  0
  -30.2093  -15.4779   21.3079 N   0  0  0  0  0  0
  -29.9640  -25.8132   17.6435 N   0  3  0  0  0  0
  -30.7793  -19.2614   21.8270 N   0  3  0  0  0  0
  -31.4587  -12.3996   19.1358 H   0  0  0  0  0  0
  -30.3062  -11.3149   19.8449 H   0  0  0  0  0  0
  -29.7389  -11.8017   17.4322 H   0  0  0  0  0  0
  -29.6578  -13.5089   17.7889 H   0  0  0  0  0  0
  -27.8518  -11.3034   18.8525 H   0  0  0  0  0  0
  -27.3607  -12.6056   17.8012 H   0  0  0  0  0  0
  -27.6934  -14.2529   19.5520 H   0  0  0  0  0  0
  -28.6776  -12.0282   21.4058 H   0  0  0  0  0  0
  -28.4575  -13.6945   21.8490 H   0  0  0  0  0  0
  -25.2728   -9.5720   22.4744 H   0  0  0  0  0  0
  -23.9989   -7.4659   22.7459 H   0  0  0  0  0  0
  -21.0816   -8.8769   19.8941 H   0  0  0  0  0  0
  -22.3640  -10.9689   19.6147 H   0  0  0  0  0  0
  -21.2000   -7.6120   23.9706 H   0  0  0  0  0  0
  -21.1479   -6.0488   25.9063 H   0  0  0  0  0  0
  -22.0596   -2.7599   23.2812 H   0  0  0  0  0  0
  -22.4037  -11.9973   22.4808 H   0  0  0  0  0  0
  -21.1076  -13.1336   22.2580 H   0  0  0  0  0  0
  -24.6517  -15.8383   20.5092 H   0  0  0  0  0  0
  -26.2801  -15.6364   20.1064 H   0  0  0  0  0  0
  -26.7158  -32.5512   23.1148 H   0  0  0  0  0  0
  -25.0099  -33.9755   25.0483 H   0  0  0  0  0  0
  -22.6972  -31.3062   21.4103 H   0  0  0  0  0  0
  -23.3735  -35.9649   23.3300 H   0  0  0  0  0  0
  -24.3594  -36.8911   22.2054 H   0  0  0  0  0  0
  -23.7226  -37.6505   23.6647 H   0  0  0  0  0  0
  -26.0526  -31.5908   20.5909 H   0  0  0  0  0  0
  -26.8240  -30.8824   21.9811 H   0  0  0  0  0  0
  -28.1136  -29.1080   21.1324 H   0  0  0  0  0  0
  -26.0488  -25.9738   18.9905 H   0  0  0  0  0  0
  -23.9872  -27.2882   19.0313 H   0  0  0  0  0  0
  -23.7270  -30.5874   19.4054 H   0  0  0  0  0  0
  -22.7396  -29.2346   19.8729 H   0  0  0  0  0  0
  -25.1274  -36.1965   25.0826 H   0  0  0  0  0  0
  -20.9963  -28.3236   24.1452 H   0  0  0  0  0  0
  -20.5696  -26.2291   23.3598 H   0  0  0  0  0  0
  -21.6634  -26.7477   22.1206 H   0  0  0  0  0  0
  -19.6888  -25.6321   21.1243 H   0  0  0  0  0  0
  -19.6652  -27.3226   20.6770 H   0  0  0  0  0  0
  -17.4194  -26.6715   21.4033 H   0  0  0  0  0  0
  -18.0297  -26.0070   22.9021 H   0  0  0  0  0  0
  -19.7923  -30.7297   24.2262 H   0  0  0  0  0  0
  -17.4999  -31.6266   24.5191 H   0  0  0  0  0  0
  -15.5342  -30.2996   23.7642 H   0  0  0  0  0  0
  -15.8674  -28.0841   22.7038 H   0  0  0  0  0  0
  -24.5905  -30.7085   25.7816 H   0  0  0  0  0  0
  -24.8963  -32.2878   26.4936 H   0  0  0  0  0  0
  -25.8093  -30.8876   27.0217 H   0  0  0  0  0  0
  -26.2841  -29.6787   24.1164 H   0  0  0  0  0  0
  -27.4081  -29.7270   25.4564 H   0  0  0  0  0  0
  -27.8685  -30.4342   23.9246 H   0  0  0  0  0  0
  -27.2681  -33.3610   26.2080 H   0  0  0  0  0  0
  -28.3842  -32.6888   25.0277 H   0  0  0  0  0  0
  -28.0757  -31.8430   26.5361 H   0  0  0  0  0  0
  -28.2588  -38.0106   24.7546 H   0  0  0  0  0  0
  -28.1079  -36.2638   24.6238 H   0  0  0  0  0  0
  -27.2322  -37.1407   25.8872 H   0  0  0  0  0  0
  -20.9339  -29.8737   21.6928 H   0  0  0  0  0  0
  -26.0160  -38.2869   24.1431 H   0  0  0  0  0  0
  -30.5682  -23.6194   15.5504 H   0  0  0  0  0  0
  -32.1901  -24.1375   15.9906 H   0  0  0  0  0  0
  -31.7990  -23.7637   18.2884 H   0  0  0  0  0  0
  -30.6647  -22.5718   17.6724 H   0  0  0  0  0  0
  -29.7428  -20.5332   19.6501 H   0  0  0  0  0  0
  -28.3344  -20.1901   20.6252 H   0  0  0  0  0  0
  -31.7754  -21.6790   22.7245 H   0  0  0  0  0  0
  -31.9156  -21.5282   20.9922 H   0  0  0  0  0  0
  -28.0956  -22.5793   21.2407 H   0  0  0  0  0  0
  -28.1424  -22.3829   19.4962 H   0  0  0  0  0  0
  -31.4672  -23.8472   21.5935 H   0  0  0  0  0  0
  -29.9930  -23.4294   22.4478 H   0  0  0  0  0  0
  -29.9049  -25.8102   15.5316 H   0  0  0  0  0  0
  -31.4288  -26.3606   16.2217 H   0  0  0  0  0  0
  -29.5148  -20.7293   22.6923 H   0  0  0  0  0  0
  -28.8083  -24.0883   17.8617 H   0  0  0  0  0  0
  -28.3529  -16.9746   22.7662 H   0  0  0  0  0  0
  -28.3678  -18.6996   23.0549 H   0  0  0  0  0  0
  -29.5705  -17.6682   23.8287 H   0  0  0  0  0  0
  -31.5455  -16.6804   22.3733 H   0  0  0  0  0  0
  -31.5464  -16.9853   20.6637 H   0  0  0  0  0  0
  -28.3450  -25.1716   21.4210 H   0  0  0  0  0  0
  -27.5254  -24.7859   19.9300 H   0  0  0  0  0  0
  -30.5458  -25.1521   20.1241 H   0  0  0  0  0  0
  -29.3447  -18.1098   20.7993 H   0  0  0  0  0  0
  -29.3094  -15.3284   21.7393 H   0  0  0  0  0  0
  -29.1009  -26.3259   17.5569 H   0  0  0  0  0  0
  -30.5824  -26.3442   18.2346 H   0  0  0  0  0  0
  -31.3194  -19.1956   22.6763 H   0  0  0  0  0  0
  -31.4471  -19.2507   21.0713 H   0  0  0  0  0  0
  1 25  1  0  0  0
  1 30  2  0  0  0
  1 86  1  0  0  0
  2  3  1  0  0  0
  2 25  1  0  0  0
  2 89  1  0  0  0
  2 90  1  0  0  0
  3  4  1  0  0  0
  3 91  1  0  0  0
  3 92  1  0  0  0
  4  5  1  0  0  0
  4 93  1  0  0  0
  4 94  1  0  0  0
  5  6  1  0  0  0
  5 26  1  0  0  0
  5 95  1  0  0  0
  6 25  1  0  0  0
  6 96  1  0  0  0
  6 97  1  0  0  0
  7  8  2  0  0  0
  7 26  1  0  0  0
  7 29  1  0  0  0
  8  9  1  0  0  0
  8 22  1  0  0  0
  9 10  1  0  0  0
  9 27  2  0  0  0
 10 11  2  0  0  0
 10 15  1  0  0  0
 11 12  1  0  0  0
 11 98  1  0  0  0
 12 13  2  0  0  0
 12 99  1  0  0  0
 13 14  1  0  0  0
 13 31  1  0  0  0
 14 15  2  0  0  0
 14100  1  0  0  0
 15101  1  0  0  0
 16 17  2  0  0  0
 16 21  1  0  0  0
 16 31  1  0  0  0
 17 18  1  0  0  0
 17102  1  0  0  0
 18 19  2  0  0  0
 18103  1  0  0  0
 19 20  1  0  0  0
 19 24  1  0  0  0
 20 21  2  0  0  0
 20104  1  0  0  0
 21 23  1  0  0  0
 22 28  1  0  0  0
 22 32  2  0  0  0
 26 27  1  0  0  0
 28105  1  0  0  0
 28106  1  0  0  0
 29107  1  0  0  0
 29108  1  0  0  0
 33 34  1  0  0  0
 33 66  1  0  0  0
 33 70  2  0  0  0
 34 36  1  0  0  0
 34 59  1  0  0  0
 34109  1  0  0  0
 35 44  2  0  0  0
 35 45  1  0  0  0
 35 68  1  0  0  0
 36 56  1  0  0  0
 36110  1  0  0  0
 37 39  1  0  0  0
 37 47  1  0  0  0
 37 66  1  0  0  0
 37111  1  0  0  0
 38 43  2  0  0  0
 38 46  1  0  0  0
 38 47  1  0  0  0
 39 64  1  0  0  0
 39 67  2  0  0  0
 40 52  1  0  0  0
 40 53  2  0  0  0
 40 58  1  0  0  0
 41112  1  0  0  0
 41113  1  0  0  0
 41114  1  0  0  0
 41 48  1  0  0  0
 42 43  1  0  0  0
 42 66  1  0  0  0
 42115  1  0  0  0
 42116  1  0  0  0
 43 44  1  0  0  0
 44117  1  0  0  0
 45 46  2  0  0  0
 45118  1  0  0  0
 46119  1  0  0  0
 47120  1  0  0  0
 47121  1  0  0  0
 48 56  1  0  0  0
 48 65  1  0  0  0
 48122  1  0  0  0
 49 50  1  0  0  0
 49 53  1  0  0  0
 49 64  1  0  0  0
 49123  1  0  0  0
 50 51  1  0  0  0
 50124  1  0  0  0
 50125  1  0  0  0
 51 52  1  0  0  0
 51126  1  0  0  0
 51127  1  0  0  0
 52128  1  0  0  0
 52129  1  0  0  0
 53 54  1  0  0  0
 54 55  2  0  0  0
 54130  1  0  0  0
 55 57  1  0  0  0
 55131  1  0  0  0
 56 69  2  0  0  0
 57 58  2  0  0  0
 57132  1  0  0  0
 58133  1  0  0  0
 59 60  1  0  0  0
 59 61  1  0  0  0
 59 62  1  0  0  0
 60134  1  0  0  0
 60135  1  0  0  0
 60136  1  0  0  0
 61137  1  0  0  0
 61138  1  0  0  0
 61139  1  0  0  0
 62140  1  0  0  0
 62141  1  0  0  0
 62142  1  0  0  0
 63 65  1  0  0  0
 63143  1  0  0  0
 63144  1  0  0  0
 63145  1  0  0  0
 64146  1  0  0  0
 65147  1  0  0  0
 68 82  1  0  0  0
 71 72  1  0  0  0
 71 77  1  0  0  0
 71148  1  0  0  0
 71149  1  0  0  0
 72150  1  0  0  0
 72151  1  0  0  0
 72 79  1  0  0  0
 73 75  1  0  0  0
 73 78  1  0  0  0
 73152  1  0  0  0
 73153  1  0  0  0
 74 76  1  0  0  0
 74 78  1  0  0  0
 74154  1  0  0  0
 74155  1  0  0  0
 75 85  1  0  0  0
 75156  1  0  0  0
 75157  1  0  0  0
 76 85  1  0  0  0
 76158  1  0  0  0
 76159  1  0  0  0
 77 87  1  0  0  0
 77160  1  0  0  0
 77161  1  0  0  0
 78 88  1  0  0  0
 78162  1  0  0  0
 79 83  1  0  0  0
 79 87  1  0  0  0
 79163  1  0  0  0
 80164  1  0  0  0
 80165  1  0  0  0
 80166  1  0  0  0
 80 84  1  0  0  0
 81 84  1  0  0  0
 81 86  1  0  0  0
 81167  1  0  0  0
 81168  1  0  0  0
 82169  1  0  0  0
 82170  1  0  0  0
 82 83  1  0  0  0
 83 85  1  0  0  0
 83171  1  0  0  0
 84 88  1  0  0  0
 84172  1  0  0  0
 86173  1  0  0  0
 87174  1  0  0  0
 87175  1  0  0  0
 88176  1  0  0  0
 88177  1  0  0  0
M  CHG  2  87   1  88   1
M  ISO  4   1 100  68 101  82 101  86 100
M  END
> <chiral flag>
0

> <version>
0

> <s_m_source_file>
/data/baiqing/PycharmProjects/Reinvent-master-3.2/result/LINK_invent/BTK/process_docking_weight1_custom_sum_contain_oxygen_bond_distance_aromatic_linkinvent_7_9_3/rearranged_h_0130.sdf

> <i_m_source_file_index>
72

> <r_mmod_Potential_Energy-OPLS-2005>
-255.261703491211

> <r_mmod_Stretch_Energy-OPLS-2005>
46.2234687805176

> <r_mmod_Bend_Energy-OPLS-2005>
140.913101196289

> <r_mmod_Torsional_Energy-OPLS-2005>
341.675384521484

> <r_mmod_Improper_Torsional_Energy-OPLS-2005>
2.19747424125671

> <r_mmod_Van_der_Waal_Energy-OPLS-2005>
136.214721679688

> <r_mmod_Electrostatic_Energy-OPLS-2005>
-68.6513137817383

> <r_mmod_Solvation_Energy-OPLS-2005>
-867.640930175781

> <b_mmod_Minimization_Converged-OPLS-2005>
0

> <r_mmod_RMS_Derivative-OPLS-2005>
3.30139422416687

$$$$
72
                    3D
 Structure written by MMmdl.
160169  0  0  1  0            999 V2000
  -30.5891  -14.8839   20.4040 C   0  0  0  0  0  0
  -30.4370  -12.5443   19.4818 C   0  0  0  0  0  0
  -29.5189  -12.5186   18.2408 C   0  0  0  0  0  0
  -28.0453  -12.3205   18.6535 C   0  0  0  0  0  0
  -27.6279  -13.2378   19.8354 C   0  0  2  0  0  0
  -28.6797  -13.2652   20.9632 C   0  0  0  0  0  0
  -25.2473  -13.8192   20.5711 C   0  0  0  0  0  0
  -24.1774  -13.0439   20.9223 C   0  0  0  0  0  0
  -24.6375  -11.6920   20.8761 C   0  0  0  0  0  0
  -23.9059  -10.4295   21.0401 C   0  0  0  0  0  0
  -24.3627   -9.4222   21.9183 C   0  0  0  0  0  0
  -23.6312   -8.2242   22.0743 C   0  0  0  0  0  0
  -22.4300   -8.0276   21.3534 C   0  0  0  0  0  0
  -21.9924   -9.0242   20.4636 C   0  0  0  0  0  0
  -22.7234  -10.2131   20.3046 C   0  0  0  0  0  0
  -21.6842   -6.0749   22.5285 C   0  0  0  0  0  0
  -21.4006   -6.5651   23.8225 C   0  0  0  0  0  0
  -21.3663   -5.6792   24.9178 C   0  0  0  0  0  0
  -21.6049   -4.3061   24.7215 C   0  0  0  0  0  0
  -21.8824   -3.8155   23.4340 C   0  0  0  0  0  0
  -21.9190   -4.6975   22.3401 C   0  0  0  0  0  0
  -22.7800  -13.5225   21.1870 C   0  0  0  0  0  0
  -22.1658   -4.2172   21.0975 F   0  0  0  0  0  0
  -21.5636   -3.4538   25.7723 F   0  0  0  0  0  0
  -29.9584  -13.6473   20.3520 N   0  0  0  0  0  0
  -26.2883  -12.9384   20.3259 N   0  0  0  0  0  0
  -25.9312  -11.6540   20.5746 N   0  0  0  0  0  0
  -22.0426  -12.8246   22.0429 N   0  0  0  0  0  0
  -25.4187  -15.1908   20.4124 N   0  0  0  0  0  0
  -31.8141  -14.9090   20.2485 O   0  0  0  0  0  0
  -21.6657   -6.8890   21.4246 O   0  0  0  0  0  0
  -22.3508  -14.5530   20.6684 O   0  0  0  0  0  0
  -24.6412  -31.8474   23.1948 C   0  0  0  0  0  0
  -25.9206  -32.4708   23.8305 C   0  0  1  0  0  0
  -27.2081  -27.1607   20.1306 C   0  0  0  0  0  0
  -25.5967  -33.8514   24.2210 N   0  0  0  0  0  0
  -23.4418  -30.4727   21.5414 C   0  0  2  0  0  0
  -24.8897  -28.9162   20.1068 C   0  0  0  0  0  0
  -22.7552  -29.4563   22.4888 C   0  0  0  0  0  0
  -18.0302  -28.1392   22.8494 C   0  0  0  0  0  0
  -24.1488  -36.7235   23.2628 C   0  0  0  0  0  0
  -25.9993  -30.7259   21.3968 C   0  0  0  0  0  0
  -26.0681  -29.3431   20.7311 C   0  0  0  0  0  0
  -27.2271  -28.4795   20.7351 C   0  0  0  0  0  0
  -26.0073  -26.8529   19.4446 C   0  0  0  0  0  0
  -24.8712  -27.6827   19.4488 C   0  0  0  0  0  0
  -23.6644  -29.8117   20.1569 C   0  0  0  0  0  0
  -25.4114  -36.3027   24.0314 C   0  0  1  0  0  0
  -20.5910  -28.3707   23.1256 C   0  0  2  0  0  0
  -20.6791  -26.9411   22.5419 C   0  0  0  0  0  0
  -19.5758  -26.6382   21.5228 C   0  0  0  0  0  0
  -18.1935  -26.7940   22.1633 C   0  0  0  0  0  0
  -19.1563  -28.8872   23.2867 C   0  0  0  0  0  0
  -18.9471  -30.1474   23.8883 C   0  0  0  0  0  0
  -17.6468  -30.6597   24.0558 C   0  0  0  0  0  0
  -25.9086  -34.9414   23.5068 C   0  0  0  0  0  0
  -16.5359  -29.9083   23.6349 C   0  0  0  0  0  0
  -16.7282  -28.6502   23.0374 C   0  0  0  0  0  0
  -26.4538  -31.6563   25.0735 C   0  0  0  0  0  0
  -25.3723  -31.3735   26.1425 C   0  0  0  0  0  0
  -27.0383  -30.2951   24.6312 C   0  0  0  0  0  0
  -27.6071  -32.4319   25.7505 C   0  0  0  0  0  0
  -27.5605  -37.1714   24.8420 C   0  0  0  0  0  0
  -21.4248  -29.3031   22.3621 N   0  0  0  0  0  0
  -26.4245  -37.3777   23.9475 N   0  0  0  0  0  0
  -24.7135  -31.0357   22.0982 N   0  0  0  0  0  0
  -23.4208  -28.8112   23.3032 O   0  0  0  0  0  0
  -28.2337  -26.1468   20.2190 O   0  0  0  0  0  0
  -26.5677  -34.8903   22.4651 O   0  0  0  0  0  0
  -23.5540  -32.1350   23.7185 O   0  0  0  0  0  0
  -28.1436  -20.7348   20.5996 C   0  0  0  0  0  0
  -27.7277  -22.1218   20.5977 C   0  0  0  0  0  0
  -29.8635  -22.8045   19.8731 C   0  0  0  0  0  0
  -29.4434  -20.2893   20.2112 C   0  0  0  0  0  0
  -28.5399  -23.2388   20.1976 C   0  0  0  0  0  0
  -30.3047  -21.4139   19.9087 C   0  0  0  0  0  0
  -29.0001  -17.9919   18.8961 C   0  0  0  0  0  0
  -29.4310  -16.4933   18.9327 C   0  0  0  0  0  0
  -29.8451  -18.7115   19.9411 C   0  0  2  0  0  0
  -29.9426  -17.4777   20.9907 C   0  0  2  0  0  0
  -31.7646  -21.1522   19.5757 C   0  0  0  0  0  0
  -31.1624  -17.6061   21.9160 C   0  0  0  0  0  0
  -27.8377  -24.6916   19.8827 C   0  0  0  0  0  0
  -29.8361  -16.0881   20.2986 N   0  0  0  0  0  0
  -31.4758  -12.6862   19.1773 H   0  0  0  0  0  0
  -30.4051  -11.5903   20.0100 H   0  0  0  0  0  0
  -29.8314  -11.7309   17.5536 H   0  0  0  0  0  0
  -29.6237  -13.4555   17.6912 H   0  0  0  0  0  0
  -27.9210  -11.2753   18.9351 H   0  0  0  0  0  0
  -27.3891  -12.4809   17.7979 H   0  0  0  0  0  0
  -27.5768  -14.2391   19.4191 H   0  0  0  0  0  0
  -28.7568  -12.2947   21.4537 H   0  0  0  0  0  0
  -28.3978  -13.9874   21.7315 H   0  0  0  0  0  0
  -25.2767   -9.5717   22.4764 H   0  0  0  0  0  0
  -24.0025   -7.4648   22.7466 H   0  0  0  0  0  0
  -21.0852   -8.8759   19.8949 H   0  0  0  0  0  0
  -22.3684  -10.9674   19.6158 H   0  0  0  0  0  0
  -21.1991   -7.6160   23.9747 H   0  0  0  0  0  0
  -21.1481   -6.0511   25.9091 H   0  0  0  0  0  0
  -22.0597   -2.7618   23.2823 H   0  0  0  0  0  0
  -22.4008  -11.9926   22.4882 H   0  0  0  0  0  0
  -21.1036  -13.1273   22.2563 H   0  0  0  0  0  0
  -24.6554  -15.8488   20.5249 H   0  0  0  0  0  0
  -26.2838  -15.6322   20.1238 H   0  0  0  0  0  0
  -26.7256  -32.5318   23.1018 H   0  0  0  0  0  0
  -25.0044  -33.9633   25.0308 H   0  0  0  0  0  0
  -22.7420  -31.2974   21.3948 H   0  0  0  0  0  0
  -23.3818  -35.9483   23.3124 H   0  0  0  0  0  0
  -24.3623  -36.9048   22.2083 H   0  0  0  0  0  0
  -23.7119  -37.6323   23.6777 H   0  0  0  0  0  0
  -26.1632  -31.4865   20.6326 H   0  0  0  0  0  0
  -26.8662  -30.7660   22.0437 H   0  0  0  0  0  0
  -28.1178  -28.7980   21.2584 H   0  0  0  0  0  0
  -25.8862  -25.9279   18.9038 H   0  0  0  0  0  0
  -23.9772  -27.3568   18.9348 H   0  0  0  0  0  0
  -23.7890  -30.5899   19.4033 H   0  0  0  0  0  0
  -22.7806  -29.2485   19.8524 H   0  0  0  0  0  0
  -25.1280  -36.1819   25.0796 H   0  0  0  0  0  0
  -21.0005  -28.3293   24.1378 H   0  0  0  0  0  0
  -20.5704  -26.2310   23.3634 H   0  0  0  0  0  0
  -21.6649  -26.7441   22.1185 H   0  0  0  0  0  0
  -19.6910  -25.6287   21.1268 H   0  0  0  0  0  0
  -19.6700  -27.3188   20.6759 H   0  0  0  0  0  0
  -17.4208  -26.6701   21.4027 H   0  0  0  0  0  0
  -18.0313  -26.0078   22.9027 H   0  0  0  0  0  0
  -19.7945  -30.7301   24.2236 H   0  0  0  0  0  0
  -17.5017  -31.6292   24.5145 H   0  0  0  0  0  0
  -15.5355  -30.2978   23.7692 H   0  0  0  0  0  0
  -15.8678  -28.0813   22.7108 H   0  0  0  0  0  0
  -24.5882  -30.7131   25.7717 H   0  0  0  0  0  0
  -24.8953  -32.2919   26.4857 H   0  0  0  0  0  0
  -25.8004  -30.8867   27.0199 H   0  0  0  0  0  0
  -26.2994  -29.6672   24.1331 H   0  0  0  0  0  0
  -27.3991  -29.7257   25.4891 H   0  0  0  0  0  0
  -27.8917  -30.4168   23.9636 H   0  0  0  0  0  0
  -27.2669  -33.3627   26.2056 H   0  0  0  0  0  0
  -28.3893  -32.6869   25.0342 H   0  0  0  0  0  0
  -28.0726  -31.8462   26.5445 H   0  0  0  0  0  0
  -28.2429  -38.0201   24.7775 H   0  0  0  0  0  0
  -28.1292  -36.2768   24.5845 H   0  0  0  0  0  0
  -27.2390  -37.0857   25.8815 H   0  0  0  0  0  0
  -20.9452  -29.8699   21.6769 H   0  0  0  0  0  0
  -26.0092  -38.2783   24.1696 H   0  0  0  0  0  0
  -27.4080  -19.9849   20.8567 H   0  0  0  0  0  0
  -26.6949  -22.3182   20.8480 H   0  0  0  0  0  0
  -30.5589  -23.5580   19.5308 H   0  0  0  0  0  0
  -27.9441  -18.0749   19.1563 H   0  0  0  0  0  0
  -29.1244  -18.4250   17.9017 H   0  0  0  0  0  0
  -30.2910  -16.3607   18.2719 H   0  0  0  0  0  0
  -28.6417  -15.8635   18.5311 H   0  0  0  0  0  0
  -30.8352  -18.7511   19.4924 H   0  0  0  0  0  0
  -29.0516  -17.5387   21.6183 H   0  0  0  0  0  0
  -32.3642  -22.0581   19.6723 H   0  0  0  0  0  0
  -31.8733  -20.7775   18.5579 H   0  0  0  0  0  0
  -32.1863  -20.4186   20.2644 H   0  0  0  0  0  0
  -32.0952  -17.5080   21.3593 H   0  0  0  0  0  0
  -31.1536  -16.8522   22.7047 H   0  0  0  0  0  0
  -31.1764  -18.5832   22.3996 H   0  0  0  0  0  0
  -26.8445  -24.5609   20.3141 H   0  0  0  0  0  0
  -27.6978  -24.6746   18.8002 H   0  0  0  0  0  0
  1 25  1  0  0  0
  1 30  2  0  0  0
  1 84  1  0  0  0
  2  3  1  0  0  0
  2 25  1  0  0  0
  2 85  1  0  0  0
  2 86  1  0  0  0
  3  4  1  0  0  0
  3 87  1  0  0  0
  3 88  1  0  0  0
  4  5  1  0  0  0
  4 89  1  0  0  0
  4 90  1  0  0  0
  5  6  1  0  0  0
  5 26  1  0  0  0
  5 91  1  0  0  0
  6 25  1  0  0  0
  6 92  1  0  0  0
  6 93  1  0  0  0
  7  8  2  0  0  0
  7 26  1  0  0  0
  7 29  1  0  0  0
  8  9  1  0  0  0
  8 22  1  0  0  0
  9 10  1  0  0  0
  9 27  2  0  0  0
 10 11  2  0  0  0
 10 15  1  0  0  0
 11 12  1  0  0  0
 11 94  1  0  0  0
 12 13  2  0  0  0
 12 95  1  0  0  0
 13 14  1  0  0  0
 13 31  1  0  0  0
 14 15  2  0  0  0
 14 96  1  0  0  0
 15 97  1  0  0  0
 16 17  2  0  0  0
 16 21  1  0  0  0
 16 31  1  0  0  0
 17 18  1  0  0  0
 17 98  1  0  0  0
 18 19  2  0  0  0
 18 99  1  0  0  0
 19 20  1  0  0  0
 19 24  1  0  0  0
 20 21  2  0  0  0
 20100  1  0  0  0
 21 23  1  0  0  0
 22 28  1  0  0  0
 22 32  2  0  0  0
 26 27  1  0  0  0
 28101  1  0  0  0
 28102  1  0  0  0
 29103  1  0  0  0
 29104  1  0  0  0
 33 34  1  0  0  0
 33 66  1  0  0  0
 33 70  2  0  0  0
 34 36  1  0  0  0
 34 59  1  0  0  0
 34105  1  0  0  0
 35 44  2  0  0  0
 35 45  1  0  0  0
 35 68  1  0  0  0
 36 56  1  0  0  0
 36106  1  0  0  0
 37 39  1  0  0  0
 37 47  1  0  0  0
 37 66  1  0  0  0
 37107  1  0  0  0
 38 43  2  0  0  0
 38 46  1  0  0  0
 38 47  1  0  0  0
 39 64  1  0  0  0
 39 67  2  0  0  0
 40 52  1  0  0  0
 40 53  2  0  0  0
 40 58  1  0  0  0
 41108  1  0  0  0
 41109  1  0  0  0
 41110  1  0  0  0
 41 48  1  0  0  0
 42 43  1  0  0  0
 42 66  1  0  0  0
 42111  1  0  0  0
 42112  1  0  0  0
 43 44  1  0  0  0
 44113  1  0  0  0
 45 46  2  0  0  0
 45114  1  0  0  0
 46115  1  0  0  0
 47116  1  0  0  0
 47117  1  0  0  0
 48 56  1  0  0  0
 48 65  1  0  0  0
 48118  1  0  0  0
 49 50  1  0  0  0
 49 53  1  0  0  0
 49 64  1  0  0  0
 49119  1  0  0  0
 50 51  1  0  0  0
 50120  1  0  0  0
 50121  1  0  0  0
 51 52  1  0  0  0
 51122  1  0  0  0
 51123  1  0  0  0
 52124  1  0  0  0
 52125  1  0  0  0
 53 54  1  0  0  0
 54 55  2  0  0  0
 54126  1  0  0  0
 55 57  1  0  0  0
 55127  1  0  0  0
 56 69  2  0  0  0
 57 58  2  0  0  0
 57128  1  0  0  0
 58129  1  0  0  0
 59 60  1  0  0  0
 59 61  1  0  0  0
 59 62  1  0  0  0
 60130  1  0  0  0
 60131  1  0  0  0
 60132  1  0  0  0
 61133  1  0  0  0
 61134  1  0  0  0
 61135  1  0  0  0
 62136  1  0  0  0
 62137  1  0  0  0
 62138  1  0  0  0
 63 65  1  0  0  0
 63139  1  0  0  0
 63140  1  0  0  0
 63141  1  0  0  0
 64142  1  0  0  0
 65143  1  0  0  0
 68 83  1  0  0  0
 71 72  2  0  0  0
 71 74  1  0  0  0
 71144  1  0  0  0
 72 75  1  0  0  0
 72145  1  0  0  0
 73 75  2  0  0  0
 73 76  1  0  0  0
 73146  1  0  0  0
 74 76  2  0  0  0
 74 79  1  0  0  0
 75 83  1  0  0  0
 76 81  1  0  0  0
 77 78  1  0  0  0
 77 79  1  0  0  0
 77147  1  0  0  0
 77148  1  0  0  0
 78 84  1  0  0  0
 78149  1  0  0  0
 78150  1  0  0  0
 79 80  1  0  0  0
 79151  1  0  0  0
 80 82  1  0  0  0
 80 84  1  0  0  0
 80152  1  0  0  0
 81153  1  0  0  0
 81154  1  0  0  0
 81155  1  0  0  0
 82156  1  0  0  0
 82157  1  0  0  0
 82158  1  0  0  0
 83159  1  0  0  0
 83160  1  0  0  0
M  ISO  4   1 100  68 101  83 101  84 100
M  END
> <chiral flag>
0

> <version>
0

> <s_m_source_file>
/data/baiqing/PycharmProjects/Reinvent-master-3.2/result/LINK_invent/BTK/process_docking_weight1_custom_sum_contain_oxygen_bond_distance_aromatic_linkinvent_7_9_3/rearranged_h_0130.sdf

> <i_m_source_file_index>
73

> <r_mmod_Potential_Energy-OPLS-2005>
704.426696777344

> <r_mmod_Stretch_Energy-OPLS-2005>
200.434997558594

> <r_mmod_Bend_Energy-OPLS-2005>
284.618103027344

> <r_mmod_Torsional_Energy-OPLS-2005>
359.849548339844

> <r_mmod_Improper_Torsional_Energy-OPLS-2005>
14.6660251617432

> <r_mmod_Van_der_Waal_Energy-OPLS-2005>
134.929504394531

> <r_mmod_Electrostatic_Energy-OPLS-2005>
-268.983215332031

> <r_mmod_Solvation_Energy-OPLS-2005>
-190.859664916992

> <b_mmod_Minimization_Converged-OPLS-2005>
0

> <r_mmod_RMS_Derivative-OPLS-2005>
2.62711548805237

$$$$
73
                    3D
 Structure written by MMmdl.
164172  0  0  1  0            999 V2000
  -30.6435  -14.5068   20.5482 C   0  0  0  0  0  0
  -30.4455  -12.3338   19.4084 C   0  0  0  0  0  0
  -29.4939  -12.5019   18.2012 C   0  0  0  0  0  0
  -28.0158  -12.3574   18.6203 C   0  0  0  0  0  0
  -27.6652  -13.1908   19.8802 C   0  0  2  0  0  0
  -28.7129  -12.9603   20.9967 C   0  0  0  0  0  0
  -25.2652  -13.8119   20.5729 C   0  0  0  0  0  0
  -24.1876  -13.0423   20.9225 C   0  0  0  0  0  0
  -24.6393  -11.6888   20.8773 C   0  0  0  0  0  0
  -23.9054  -10.4292   21.0426 C   0  0  0  0  0  0
  -24.3606   -9.4218   21.9208 C   0  0  0  0  0  0
  -23.6297   -8.2244   22.0757 C   0  0  0  0  0  0
  -22.4286   -8.0288   21.3532 C   0  0  0  0  0  0
  -21.9910   -9.0267   20.4642 C   0  0  0  0  0  0
  -22.7228  -10.2155   20.3071 C   0  0  0  0  0  0
  -21.6860   -6.0754   22.5280 C   0  0  0  0  0  0
  -21.4015   -6.5656   23.8213 C   0  0  0  0  0  0
  -21.3649   -5.6797   24.9177 C   0  0  0  0  0  0
  -21.6037   -4.3059   24.7219 C   0  0  0  0  0  0
  -21.8828   -3.8163   23.4339 C   0  0  0  0  0  0
  -21.9198   -4.6986   22.3398 C   0  0  0  0  0  0
  -22.7908  -13.5273   21.1843 C   0  0  0  0  0  0
  -22.1674   -4.2176   21.0975 F   0  0  0  0  0  0
  -21.5617   -3.4539   25.7726 F   0  0  0  0  0  0
  -30.0349  -13.2960   20.4382 N   0  0  0  0  0  0
  -26.3054  -12.9244   20.3414 N   0  0  0  0  0  0
  -25.9314  -11.6425   20.5799 N   0  0  0  0  0  0
  -22.0507  -12.8290   22.0391 N   0  0  0  0  0  0
  -25.4392  -15.1829   20.4136 N   0  0  0  0  0  0
  -31.7725  -14.7435   20.1123 O   0  0  0  0  0  0
  -21.6644   -6.8896   21.4237 O   0  0  0  0  0  0
  -22.3633  -14.5573   20.6677 O   0  0  0  0  0  0
  -24.6196  -31.8679   23.2101 C   0  0  0  0  0  0
  -25.9065  -32.4831   23.8384 C   0  0  1  0  0  0
  -27.2151  -27.4046   20.0854 C   0  0  0  0  0  0
  -25.5896  -33.8614   24.2320 N   0  0  0  0  0  0
  -23.4050  -30.4944   21.5540 C   0  0  2  0  0  0
  -24.8422  -28.9550   20.1111 C   0  0  0  0  0  0
  -22.7391  -29.4689   22.4999 C   0  0  0  0  0  0
  -18.0318  -28.1318   22.8440 C   0  0  0  0  0  0
  -24.1463  -36.7309   23.2640 C   0  0  0  0  0  0
  -25.9390  -30.8217   21.3625 C   0  0  0  0  0  0
  -26.0104  -29.4563   20.7015 C   0  0  0  0  0  0
  -27.2047  -28.6947   20.6723 C   0  0  0  0  0  0
  -26.0279  -26.9235   19.4917 C   0  0  0  0  0  0
  -24.8482  -27.6898   19.5007 C   0  0  0  0  0  0
  -23.6079  -29.8268   20.1681 C   0  0  0  0  0  0
  -25.4097  -36.3132   24.0353 C   0  0  1  0  0  0
  -20.5852  -28.3681   23.1269 C   0  0  2  0  0  0
  -20.6820  -26.9476   22.5213 C   0  0  0  0  0  0
  -19.5787  -26.6397   21.5077 C   0  0  0  0  0  0
  -18.1994  -26.7866   22.1567 C   0  0  0  0  0  0
  -19.1514  -28.8809   23.2870 C   0  0  0  0  0  0
  -18.9394  -30.1426   23.8879 C   0  0  0  0  0  0
  -17.6377  -30.6529   24.0514 C   0  0  0  0  0  0
  -25.9023  -34.9486   23.5149 C   0  0  0  0  0  0
  -16.5319  -29.8978   23.6256 C   0  0  0  0  0  0
  -16.7292  -28.6383   23.0324 C   0  0  0  0  0  0
  -26.4460  -31.6617   25.0722 C   0  0  0  0  0  0
  -25.3735  -31.3702   26.1477 C   0  0  0  0  0  0
  -27.0296  -30.3069   24.6106 C   0  0  0  0  0  0
  -27.6028  -32.4332   25.7496 C   0  0  0  0  0  0
  -27.5572  -37.1832   24.8477 C   0  0  0  0  0  0
  -21.4100  -29.3165   22.3792 N   0  0  0  0  0  0
  -26.4285  -37.3824   23.9420 N   0  0  0  0  0  0
  -24.6738  -31.0741   22.1016 N   0  0  0  0  0  0
  -23.4145  -28.8131   23.2955 O   0  0  0  0  0  0
  -28.3588  -26.6265   20.0919 O   0  0  0  0  0  0
  -26.5602  -34.8935   22.4720 O   0  0  0  0  0  0
  -23.5377  -32.1469   23.7451 O   0  0  0  0  0  0
  -29.5870  -21.5216   20.8026 C   0  0  0  0  0  0
  -27.3401  -21.1158   21.5184 C   0  0  0  0  0  0
  -29.6504  -20.0971   20.1716 C   0  0  0  0  0  0
  -27.3669  -19.7087   20.8672 C   0  0  0  0  0  0
  -26.2346  -22.8931   19.5046 C   0  0  0  0  0  0
  -28.4202  -24.1883   19.4086 C   0  0  0  0  0  0
  -30.0217  -16.9352   21.0435 C   0  0  0  0  0  0
  -28.8160  -17.7250   20.4454 C   0  0  0  0  0  0
  -28.1878  -25.2516   20.5193 C   0  0  0  0  0  0
  -27.7714  -22.7751   19.6221 C   0  0  1  0  0  0
  -28.2287  -22.0987   20.8635 N   0  0  0  0  0  0
  -29.8267  -15.4755   21.0017 N   0  0  0  0  0  0
  -28.7454  -19.1545   20.8820 N   0  3  0  0  0  0
  -31.4813  -12.4809   19.0912 H   0  0  0  0  0  0
  -30.3933  -11.3222   19.8084 H   0  0  0  0  0  0
  -29.7361  -11.7620   17.4380 H   0  0  0  0  0  0
  -29.6459  -13.4777   17.7362 H   0  0  0  0  0  0
  -27.8207  -11.2994   18.8055 H   0  0  0  0  0  0
  -27.3640  -12.6391   17.7942 H   0  0  0  0  0  0
  -27.7066  -14.2382   19.5838 H   0  0  0  0  0  0
  -28.7125  -11.9193   21.3214 H   0  0  0  0  0  0
  -28.4734  -13.5394   21.8906 H   0  0  0  0  0  0
  -25.2755   -9.5716   22.4785 H   0  0  0  0  0  0
  -24.0014   -7.4646   22.7478 H   0  0  0  0  0  0
  -21.0850   -8.8809   19.8949 H   0  0  0  0  0  0
  -22.3697  -10.9716   19.6192 H   0  0  0  0  0  0
  -21.2008   -7.6160   23.9731 H   0  0  0  0  0  0
  -21.1451   -6.0519   25.9073 H   0  0  0  0  0  0
  -22.0609   -2.7631   23.2827 H   0  0  0  0  0  0
  -22.4090  -11.9950   22.4807 H   0  0  0  0  0  0
  -21.1109  -13.1343   22.2519 H   0  0  0  0  0  0
  -24.6629  -15.8286   20.5144 H   0  0  0  0  0  0
  -26.2641  -15.6139   20.0197 H   0  0  0  0  0  0
  -26.7116  -32.5503   23.1130 H   0  0  0  0  0  0
  -25.0046  -33.9753   25.0459 H   0  0  0  0  0  0
  -22.6935  -31.3120   21.4208 H   0  0  0  0  0  0
  -23.3741  -35.9622   23.3342 H   0  0  0  0  0  0
  -24.3538  -36.8893   22.2041 H   0  0  0  0  0  0
  -23.7192  -37.6522   23.6613 H   0  0  0  0  0  0
  -26.0541  -31.5905   20.5947 H   0  0  0  0  0  0
  -26.8271  -30.8675   21.9826 H   0  0  0  0  0  0
  -28.1092  -29.0799   21.1165 H   0  0  0  0  0  0
  -26.0058  -25.9502   19.0195 H   0  0  0  0  0  0
  -23.9495  -27.3015   19.0365 H   0  0  0  0  0  0
  -23.7048  -30.6061   19.4098 H   0  0  0  0  0  0
  -22.7310  -29.2465   19.8790 H   0  0  0  0  0  0
  -25.1270  -36.2018   25.0849 H   0  0  0  0  0  0
  -20.9924  -28.3121   24.1389 H   0  0  0  0  0  0
  -21.6662  -26.7676   22.0840 H   0  0  0  0  0  0
  -20.5841  -26.2220   23.3314 H   0  0  0  0  0  0
  -19.7038  -25.6291   21.1193 H   0  0  0  0  0  0
  -19.6611  -27.3155   20.6546 H   0  0  0  0  0  0
  -17.4255  -26.6581   21.3975 H   0  0  0  0  0  0
  -18.0479  -26.0003   22.8977 H   0  0  0  0  0  0
  -19.7825  -30.7299   24.2263 H   0  0  0  0  0  0
  -17.4871  -31.6230   24.5040 H   0  0  0  0  0  0
  -15.5291  -30.2810   23.7481 H   0  0  0  0  0  0
  -15.8759  -28.0634   22.7014 H   0  0  0  0  0  0
  -24.5907  -30.7055   25.7811 H   0  0  0  0  0  0
  -24.8930  -32.2844   26.4966 H   0  0  0  0  0  0
  -25.8113  -30.8848   27.0213 H   0  0  0  0  0  0
  -26.2837  -29.6856   24.1142 H   0  0  0  0  0  0
  -27.4045  -29.7287   25.4558 H   0  0  0  0  0  0
  -27.8667  -30.4411   23.9259 H   0  0  0  0  0  0
  -27.2641  -33.3622   26.2096 H   0  0  0  0  0  0
  -28.3821  -32.6940   25.0318 H   0  0  0  0  0  0
  -28.0709  -31.8458   26.5411 H   0  0  0  0  0  0
  -28.2647  -38.0082   24.7518 H   0  0  0  0  0  0
  -28.1031  -36.2634   24.6331 H   0  0  0  0  0  0
  -27.2283  -37.1504   25.8881 H   0  0  0  0  0  0
  -20.9240  -29.9139   21.7242 H   0  0  0  0  0  0
  -26.0196  -38.2898   24.1468 H   0  0  0  0  0  0
  -30.2602  -22.1929   20.2700 H   0  0  0  0  0  0
  -29.9793  -21.4619   21.8202 H   0  0  0  0  0  0
  -27.6639  -21.0183   22.5566 H   0  0  0  0  0  0
  -26.3152  -21.4819   21.5914 H   0  0  0  0  0  0
  -30.6762  -19.7327   20.2367 H   0  0  0  0  0  0
  -29.4002  -20.1373   19.1126 H   0  0  0  0  0  0
  -26.9626  -19.7222   19.8528 H   0  0  0  0  0  0
  -26.7175  -19.0509   21.4456 H   0  0  0  0  0  0
  -25.9492  -23.4053   18.5856 H   0  0  0  0  0  0
  -25.7984  -23.4530   20.3313 H   0  0  0  0  0  0
  -25.7428  -21.9231   19.4602 H   0  0  0  0  0  0
  -29.4917  -24.0946   19.2314 H   0  0  0  0  0  0
  -28.0262  -24.5878   18.4734 H   0  0  0  0  0  0
  -30.9471  -17.2079   20.5342 H   0  0  0  0  0  0
  -30.1427  -17.2041   22.0898 H   0  0  0  0  0  0
  -27.8960  -17.2302   20.7566 H   0  0  0  0  0  0
  -28.8153  -17.6692   19.3558 H   0  0  0  0  0  0
  -28.9146  -25.0742   21.3137 H   0  0  0  0  0  0
  -27.2158  -25.1022   20.9920 H   0  0  0  0  0  0
  -28.0804  -22.1461   18.7863 H   0  0  0  0  0  0
  -28.9373  -15.1366   21.3381 H   0  0  0  0  0  0
  -29.0269  -19.1527   21.8495 H   0  0  0  0  0  0
  1 25  1  0  0  0
  1 30  2  0  0  0
  1 82  1  0  0  0
  2  3  1  0  0  0
  2 25  1  0  0  0
  2 84  1  0  0  0
  2 85  1  0  0  0
  3  4  1  0  0  0
  3 86  1  0  0  0
  3 87  1  0  0  0
  4  5  1  0  0  0
  4 88  1  0  0  0
  4 89  1  0  0  0
  5  6  1  0  0  0
  5 26  1  0  0  0
  5 90  1  0  0  0
  6 25  1  0  0  0
  6 91  1  0  0  0
  6 92  1  0  0  0
  7  8  2  0  0  0
  7 26  1  0  0  0
  7 29  1  0  0  0
  8  9  1  0  0  0
  8 22  1  0  0  0
  9 10  1  0  0  0
  9 27  2  0  0  0
 10 11  2  0  0  0
 10 15  1  0  0  0
 11 12  1  0  0  0
 11 93  1  0  0  0
 12 13  2  0  0  0
 12 94  1  0  0  0
 13 14  1  0  0  0
 13 31  1  0  0  0
 14 15  2  0  0  0
 14 95  1  0  0  0
 15 96  1  0  0  0
 16 17  2  0  0  0
 16 21  1  0  0  0
 16 31  1  0  0  0
 17 18  1  0  0  0
 17 97  1  0  0  0
 18 19  2  0  0  0
 18 98  1  0  0  0
 19 20  1  0  0  0
 19 24  1  0  0  0
 20 21  2  0  0  0
 20 99  1  0  0  0
 21 23  1  0  0  0
 22 28  1  0  0  0
 22 32  2  0  0  0
 26 27  1  0  0  0
 28100  1  0  0  0
 28101  1  0  0  0
 29102  1  0  0  0
 29103  1  0  0  0
 33 34  1  0  0  0
 33 66  1  0  0  0
 33 70  2  0  0  0
 34 36  1  0  0  0
 34 59  1  0  0  0
 34104  1  0  0  0
 35 44  2  0  0  0
 35 45  1  0  0  0
 35 68  1  0  0  0
 36 56  1  0  0  0
 36105  1  0  0  0
 37 39  1  0  0  0
 37 47  1  0  0  0
 37 66  1  0  0  0
 37106  1  0  0  0
 38 43  2  0  0  0
 38 46  1  0  0  0
 38 47  1  0  0  0
 39 64  1  0  0  0
 39 67  2  0  0  0
 40 52  1  0  0  0
 40 53  2  0  0  0
 40 58  1  0  0  0
 41107  1  0  0  0
 41108  1  0  0  0
 41109  1  0  0  0
 41 48  1  0  0  0
 42 43  1  0  0  0
 42 66  1  0  0  0
 42110  1  0  0  0
 42111  1  0  0  0
 43 44  1  0  0  0
 44112  1  0  0  0
 45 46  2  0  0  0
 45113  1  0  0  0
 46114  1  0  0  0
 47115  1  0  0  0
 47116  1  0  0  0
 48 56  1  0  0  0
 48 65  1  0  0  0
 48117  1  0  0  0
 49 50  1  0  0  0
 49 53  1  0  0  0
 49 64  1  0  0  0
 49118  1  0  0  0
 50 51  1  0  0  0
 50119  1  0  0  0
 50120  1  0  0  0
 51 52  1  0  0  0
 51121  1  0  0  0
 51122  1  0  0  0
 52123  1  0  0  0
 52124  1  0  0  0
 53 54  1  0  0  0
 54 55  2  0  0  0
 54125  1  0  0  0
 55 57  1  0  0  0
 55126  1  0  0  0
 56 69  2  0  0  0
 57 58  2  0  0  0
 57127  1  0  0  0
 58128  1  0  0  0
 59 60  1  0  0  0
 59 61  1  0  0  0
 59 62  1  0  0  0
 60129  1  0  0  0
 60130  1  0  0  0
 60131  1  0  0  0
 61132  1  0  0  0
 61133  1  0  0  0
 61134  1  0  0  0
 62135  1  0  0  0
 62136  1  0  0  0
 62137  1  0  0  0
 63 65  1  0  0  0
 63138  1  0  0  0
 63139  1  0  0  0
 63140  1  0  0  0
 64141  1  0  0  0
 65142  1  0  0  0
 68 79  1  0  0  0
 71 73  1  0  0  0
 71 81  1  0  0  0
 71143  1  0  0  0
 71144  1  0  0  0
 72 74  1  0  0  0
 72 81  1  0  0  0
 72145  1  0  0  0
 72146  1  0  0  0
 73 83  1  0  0  0
 73147  1  0  0  0
 73148  1  0  0  0
 74 83  1  0  0  0
 74149  1  0  0  0
 74150  1  0  0  0
 75151  1  0  0  0
 75152  1  0  0  0
 75153  1  0  0  0
 75 80  1  0  0  0
 76 79  1  0  0  0
 76 80  1  0  0  0
 76154  1  0  0  0
 76155  1  0  0  0
 77 78  1  0  0  0
 77 82  1  0  0  0
 77156  1  0  0  0
 77157  1  0  0  0
 78158  1  0  0  0
 78159  1  0  0  0
 78 83  1  0  0  0
 79160  1  0  0  0
 79161  1  0  0  0
 80 81  1  0  0  0
 80162  1  0  0  0
 82163  1  0  0  0
 83164  1  0  0  0
M  CHG  1  83   1
M  ISO  4   1 100  68 101  79 101  82 100
M  END
> <chiral flag>
0

> <version>
0

> <s_m_source_file>
/data/baiqing/PycharmProjects/Reinvent-master-3.2/result/LINK_invent/BTK/process_docking_weight1_custom_sum_contain_oxygen_bond_distance_aromatic_linkinvent_7_9_3/rearranged_h_0130.sdf

> <i_m_source_file_index>
74

> <r_mmod_Potential_Energy-OPLS-2005>
-123.76033782959

> <r_mmod_Stretch_Energy-OPLS-2005>
45.7234039306641

> <r_mmod_Bend_Energy-OPLS-2005>
120.699226379395

> <r_mmod_Torsional_Energy-OPLS-2005>
255.704620361328

> <r_mmod_Improper_Torsional_Energy-OPLS-2005>
4.60764932632446

> <r_mmod_Van_der_Waal_Energy-OPLS-2005>
140.324172973633

> <r_mmod_Electrostatic_Energy-OPLS-2005>
-238.702301025391

> <r_mmod_Solvation_Energy-OPLS-2005>
-471.152618408203

> <b_mmod_Minimization_Converged-OPLS-2005>
0

> <r_mmod_RMS_Derivative-OPLS-2005>
4.62861728668213

$$$$
74
                    3D
 Structure written by MMmdl.
161169  0  0  1  0            999 V2000
  -30.7375  -14.4334   20.6530 C   0  0  0  0  0  0
  -30.4132  -12.3225   19.4057 C   0  0  0  0  0  0
  -29.4797  -12.5219   18.1951 C   0  0  0  0  0  0
  -28.0075  -12.3620   18.6167 C   0  0  0  0  0  0
  -27.6564  -13.2016   19.8705 C   0  0  2  0  0  0
  -28.6954  -12.9845   20.9936 C   0  0  0  0  0  0
  -25.2563  -13.8155   20.5687 C   0  0  0  0  0  0
  -24.1820  -13.0448   20.9185 C   0  0  0  0  0  0
  -24.6362  -11.6912   20.8735 C   0  0  0  0  0  0
  -23.9023  -10.4309   21.0408 C   0  0  0  0  0  0
  -24.3589   -9.4223   21.9182 C   0  0  0  0  0  0
  -23.6271   -8.2255   22.0746 C   0  0  0  0  0  0
  -22.4254   -8.0281   21.3540 C   0  0  0  0  0  0
  -21.9880   -9.0248   20.4637 C   0  0  0  0  0  0
  -22.7196  -10.2136   20.3047 C   0  0  0  0  0  0
  -21.6858   -6.0726   22.5275 C   0  0  0  0  0  0
  -21.4029   -6.5634   23.8207 C   0  0  0  0  0  0
  -21.3649   -5.6786   24.9169 C   0  0  0  0  0  0
  -21.6036   -4.3047   24.7225 C   0  0  0  0  0  0
  -21.8810   -3.8138   23.4344 C   0  0  0  0  0  0
  -21.9204   -4.6954   22.3401 C   0  0  0  0  0  0
  -22.7846  -13.5238   21.1865 C   0  0  0  0  0  0
  -22.1665   -4.2143   21.0976 F   0  0  0  0  0  0
  -21.5636   -3.4522   25.7734 F   0  0  0  0  0  0
  -30.0291  -13.2889   20.4509 N   0  0  0  0  0  0
  -26.2981  -12.9321   20.3331 N   0  0  0  0  0  0
  -25.9280  -11.6489   20.5739 N   0  0  0  0  0  0
  -22.0486  -12.8227   22.0412 N   0  0  0  0  0  0
  -25.4321  -15.1873   20.4083 N   0  0  0  0  0  0
  -31.7955  -14.6790   20.0737 O   0  0  0  0  0  0
  -21.6629   -6.8871   21.4236 O   0  0  0  0  0  0
  -22.3533  -14.5564   20.6738 O   0  0  0  0  0  0
  -24.6139  -31.8672   23.2096 C   0  0  0  0  0  0
  -25.9042  -32.4794   23.8380 C   0  0  1  0  0  0
  -27.2295  -27.4214   20.0946 C   0  0  0  0  0  0
  -25.5919  -33.8597   24.2323 N   0  0  0  0  0  0
  -23.3985  -30.4935   21.5503 C   0  0  2  0  0  0
  -24.8437  -28.9557   20.1132 C   0  0  0  0  0  0
  -22.7386  -29.4672   22.4995 C   0  0  0  0  0  0
  -18.0279  -28.1354   22.8510 C   0  0  0  0  0  0
  -24.1500  -36.7307   23.2638 C   0  0  0  0  0  0
  -25.9292  -30.8282   21.3651 C   0  0  0  0  0  0
  -26.0031  -29.4613   20.7135 C   0  0  0  0  0  0
  -27.1952  -28.6994   20.7046 C   0  0  0  0  0  0
  -26.0556  -26.9440   19.4689 C   0  0  0  0  0  0
  -24.8660  -27.6973   19.4890 C   0  0  0  0  0  0
  -23.6052  -29.8239   20.1644 C   0  0  0  0  0  0
  -25.4115  -36.3097   24.0335 C   0  0  1  0  0  0
  -20.5865  -28.3674   23.1336 C   0  0  2  0  0  0
  -20.6796  -26.9411   22.5442 C   0  0  0  0  0  0
  -19.5791  -26.6397   21.5234 C   0  0  0  0  0  0
  -18.1955  -26.7896   22.1639 C   0  0  0  0  0  0
  -19.1519  -28.8828   23.2910 C   0  0  0  0  0  0
  -18.9445  -30.1443   23.8908 C   0  0  0  0  0  0
  -17.6443  -30.6580   24.0536 C   0  0  0  0  0  0
  -25.9047  -34.9458   23.5126 C   0  0  0  0  0  0
  -16.5340  -29.9068   23.6306 C   0  0  0  0  0  0
  -16.7265  -28.6474   23.0346 C   0  0  0  0  0  0
  -26.4491  -31.6571   25.0699 C   0  0  0  0  0  0
  -25.3763  -31.3689   26.1448 C   0  0  0  0  0  0
  -27.0324  -30.3009   24.6085 C   0  0  0  0  0  0
  -27.6066  -32.4288   25.7463 C   0  0  0  0  0  0
  -27.5578  -37.1802   24.8463 C   0  0  0  0  0  0
  -21.4118  -29.3043   22.3731 N   0  0  0  0  0  0
  -26.4297  -37.3783   23.9411 N   0  0  0  0  0  0
  -24.6650  -31.0790   22.0985 N   0  0  0  0  0  0
  -23.4161  -28.8210   23.3025 O   0  0  0  0  0  0
  -28.4099  -26.7020   20.1411 O   0  0  0  0  0  0
  -26.5612  -34.8911   22.4690 O   0  0  0  0  0  0
  -23.5348  -32.1451   23.7501 O   0  0  0  0  0  0
  -26.5101  -23.7354   20.3097 C   0  0  0  0  0  0
  -26.4428  -22.4026   21.0395 C   0  0  0  0  0  0
  -28.7097  -22.9650   20.8866 C   0  0  0  0  0  0
  -27.8838  -24.2695   20.6974 C   0  0  1  0  0  0
  -28.4795  -25.3264   19.7133 C   0  0  0  0  0  0
  -27.9973  -20.7964   21.8891 C   0  0  0  0  0  0
  -29.3131  -16.3314   21.4582 C   0  0  0  0  0  0
  -29.1964  -19.8386   21.6570 C   0  0  0  0  0  0
  -29.8574  -17.5948   20.7295 C   0  0  0  0  0  0
  -27.7729  -21.8211   20.8527 N   0  0  0  0  0  0
  -30.3115  -15.2575   21.6243 N   0  0  0  0  0  0
  -28.8955  -18.7334   20.7096 N   0  3  0  0  0  0
  -31.4552  -12.4284   19.0978 H   0  0  0  0  0  0
  -30.3238  -11.3042   19.7862 H   0  0  0  0  0  0
  -29.7208  -11.8077   17.4058 H   0  0  0  0  0  0
  -29.6318  -13.5141   17.7674 H   0  0  0  0  0  0
  -27.8347  -11.3056   18.8208 H   0  0  0  0  0  0
  -27.3451  -12.6221   17.7906 H   0  0  0  0  0  0
  -27.6990  -14.2455   19.5639 H   0  0  0  0  0  0
  -28.6764  -11.9496   21.3381 H   0  0  0  0  0  0
  -28.4407  -13.5814   21.8697 H   0  0  0  0  0  0
  -25.2741   -9.5698   22.4751 H   0  0  0  0  0  0
  -23.9990   -7.4650   22.7457 H   0  0  0  0  0  0
  -21.0810   -8.8732   19.8954 H   0  0  0  0  0  0
  -22.3634  -10.9663   19.6149 H   0  0  0  0  0  0
  -21.2024   -7.6145   23.9698 H   0  0  0  0  0  0
  -21.1476   -6.0531   25.9067 H   0  0  0  0  0  0
  -22.0600   -2.7598   23.2850 H   0  0  0  0  0  0
  -22.4108  -11.9891   22.4808 H   0  0  0  0  0  0
  -21.1107  -13.1265   22.2627 H   0  0  0  0  0  0
  -24.6605  -15.8392   20.4995 H   0  0  0  0  0  0
  -26.2632  -15.6067   20.0149 H   0  0  0  0  0  0
  -26.7087  -32.5522   23.1126 H   0  0  0  0  0  0
  -25.0065  -33.9778   25.0458 H   0  0  0  0  0  0
  -22.6863  -31.3109   21.4141 H   0  0  0  0  0  0
  -23.3752  -35.9652   23.3312 H   0  0  0  0  0  0
  -24.3591  -36.8909   22.2050 H   0  0  0  0  0  0
  -23.7271  -37.6519   23.6651 H   0  0  0  0  0  0
  -26.0490  -31.5938   20.5968 H   0  0  0  0  0  0
  -26.8128  -30.8777   21.9894 H   0  0  0  0  0  0
  -28.0885  -29.0851   21.1773 H   0  0  0  0  0  0
  -26.0325  -25.9942   18.9584 H   0  0  0  0  0  0
  -23.9765  -27.3069   19.0153 H   0  0  0  0  0  0
  -23.7093  -30.5992   19.4045 H   0  0  0  0  0  0
  -22.7271  -29.2461   19.8696 H   0  0  0  0  0  0
  -25.1288  -36.1955   25.0826 H   0  0  0  0  0  0
  -20.9960  -28.3263   24.1457 H   0  0  0  0  0  0
  -20.5735  -26.2276   23.3627 H   0  0  0  0  0  0
  -21.6665  -26.7488   22.1220 H   0  0  0  0  0  0
  -19.6994  -25.6328   21.1218 H   0  0  0  0  0  0
  -19.6732  -27.3239   20.6788 H   0  0  0  0  0  0
  -17.4235  -26.6630   21.4028 H   0  0  0  0  0  0
  -18.0384  -26.0016   22.9027 H   0  0  0  0  0  0
  -19.7917  -30.7263   24.2264 H   0  0  0  0  0  0
  -17.4990  -31.6271   24.5095 H   0  0  0  0  0  0
  -15.5338  -30.2971   23.7609 H   0  0  0  0  0  0
  -15.8674  -28.0786   22.7056 H   0  0  0  0  0  0
  -24.5948  -30.7018   25.7803 H   0  0  0  0  0  0
  -24.8952  -32.2851   26.4874 H   0  0  0  0  0  0
  -25.8124  -30.8886   27.0213 H   0  0  0  0  0  0
  -26.2871  -29.6757   24.1160 H   0  0  0  0  0  0
  -27.4115  -29.7250   25.4537 H   0  0  0  0  0  0
  -27.8699  -30.4313   23.9227 H   0  0  0  0  0  0
  -27.2678  -33.3580   26.2058 H   0  0  0  0  0  0
  -28.3873  -32.6847   25.0284 H   0  0  0  0  0  0
  -28.0734  -31.8395   26.5368 H   0  0  0  0  0  0
  -28.2593  -38.0097   24.7480 H   0  0  0  0  0  0
  -28.1069  -36.2619   24.6315 H   0  0  0  0  0  0
  -27.2291  -37.1469   25.8865 H   0  0  0  0  0  0
  -20.9289  -29.8766   21.6948 H   0  0  0  0  0  0
  -26.0181  -38.2867   24.1391 H   0  0  0  0  0  0
  -25.6992  -24.4016   20.6080 H   0  0  0  0  0  0
  -26.4432  -23.5754   19.2325 H   0  0  0  0  0  0
  -25.6539  -21.7528   20.6541 H   0  0  0  0  0  0
  -26.2378  -22.5888   22.0965 H   0  0  0  0  0  0
  -29.2579  -23.0174   21.8293 H   0  0  0  0  0  0
  -29.4514  -22.8432   20.0945 H   0  0  0  0  0  0
  -27.7997  -24.7306   21.6829 H   0  0  0  0  0  0
  -28.0948  -25.2034   18.7009 H   0  0  0  0  0  0
  -29.5482  -25.1298   19.6242 H   0  0  0  0  0  0
  -28.1273  -21.2952   22.8521 H   0  0  0  0  0  0
  -27.0946  -20.1928   22.0034 H   0  0  0  0  0  0
  -28.4323  -15.9520   20.9421 H   0  0  0  0  0  0
  -28.9785  -16.6081   22.4588 H   0  0  0  0  0  0
  -29.4451  -19.3881   22.6185 H   0  0  0  0  0  0
  -30.0860  -20.3857   21.3435 H   0  0  0  0  0  0
  -30.0812  -17.3352   19.6938 H   0  0  0  0  0  0
  -30.8042  -17.9120   21.1693 H   0  0  0  0  0  0
  -31.1033  -15.6047   22.1471 H   0  0  0  0  0  0
  -28.8928  -19.1334   19.7840 H   0  0  0  0  0  0
  -27.9662  -18.3901   20.8832 H   0  0  0  0  0  0
  1 25  1  0  0  0
  1 30  2  0  0  0
  1 81  1  0  0  0
  2  3  1  0  0  0
  2 25  1  0  0  0
  2 83  1  0  0  0
  2 84  1  0  0  0
  3  4  1  0  0  0
  3 85  1  0  0  0
  3 86  1  0  0  0
  4  5  1  0  0  0
  4 87  1  0  0  0
  4 88  1  0  0  0
  5  6  1  0  0  0
  5 26  1  0  0  0
  5 89  1  0  0  0
  6 25  1  0  0  0
  6 90  1  0  0  0
  6 91  1  0  0  0
  7  8  2  0  0  0
  7 26  1  0  0  0
  7 29  1  0  0  0
  8  9  1  0  0  0
  8 22  1  0  0  0
  9 10  1  0  0  0
  9 27  2  0  0  0
 10 11  2  0  0  0
 10 15  1  0  0  0
 11 12  1  0  0  0
 11 92  1  0  0  0
 12 13  2  0  0  0
 12 93  1  0  0  0
 13 14  1  0  0  0
 13 31  1  0  0  0
 14 15  2  0  0  0
 14 94  1  0  0  0
 15 95  1  0  0  0
 16 17  2  0  0  0
 16 21  1  0  0  0
 16 31  1  0  0  0
 17 18  1  0  0  0
 17 96  1  0  0  0
 18 19  2  0  0  0
 18 97  1  0  0  0
 19 20  1  0  0  0
 19 24  1  0  0  0
 20 21  2  0  0  0
 20 98  1  0  0  0
 21 23  1  0  0  0
 22 28  1  0  0  0
 22 32  2  0  0  0
 26 27  1  0  0  0
 28 99  1  0  0  0
 28100  1  0  0  0
 29101  1  0  0  0
 29102  1  0  0  0
 33 34  1  0  0  0
 33 66  1  0  0  0
 33 70  2  0  0  0
 34 36  1  0  0  0
 34 59  1  0  0  0
 34103  1  0  0  0
 35 44  2  0  0  0
 35 45  1  0  0  0
 35 68  1  0  0  0
 36 56  1  0  0  0
 36104  1  0  0  0
 37 39  1  0  0  0
 37 47  1  0  0  0
 37 66  1  0  0  0
 37105  1  0  0  0
 38 43  2  0  0  0
 38 46  1  0  0  0
 38 47  1  0  0  0
 39 64  1  0  0  0
 39 67  2  0  0  0
 40 52  1  0  0  0
 40 53  2  0  0  0
 40 58  1  0  0  0
 41106  1  0  0  0
 41107  1  0  0  0
 41108  1  0  0  0
 41 48  1  0  0  0
 42 43  1  0  0  0
 42 66  1  0  0  0
 42109  1  0  0  0
 42110  1  0  0  0
 43 44  1  0  0  0
 44111  1  0  0  0
 45 46  2  0  0  0
 45112  1  0  0  0
 46113  1  0  0  0
 47114  1  0  0  0
 47115  1  0  0  0
 48 56  1  0  0  0
 48 65  1  0  0  0
 48116  1  0  0  0
 49 50  1  0  0  0
 49 53  1  0  0  0
 49 64  1  0  0  0
 49117  1  0  0  0
 50 51  1  0  0  0
 50118  1  0  0  0
 50119  1  0  0  0
 51 52  1  0  0  0
 51120  1  0  0  0
 51121  1  0  0  0
 52122  1  0  0  0
 52123  1  0  0  0
 53 54  1  0  0  0
 54 55  2  0  0  0
 54124  1  0  0  0
 55 57  1  0  0  0
 55125  1  0  0  0
 56 69  2  0  0  0
 57 58  2  0  0  0
 57126  1  0  0  0
 58127  1  0  0  0
 59 60  1  0  0  0
 59 61  1  0  0  0
 59 62  1  0  0  0
 60128  1  0  0  0
 60129  1  0  0  0
 60130  1  0  0  0
 61131  1  0  0  0
 61132  1  0  0  0
 61133  1  0  0  0
 62134  1  0  0  0
 62135  1  0  0  0
 62136  1  0  0  0
 63 65  1  0  0  0
 63137  1  0  0  0
 63138  1  0  0  0
 63139  1  0  0  0
 64140  1  0  0  0
 65141  1  0  0  0
 68 75  1  0  0  0
 71 72  1  0  0  0
 71 74  1  0  0  0
 71142  1  0  0  0
 71143  1  0  0  0
 72 80  1  0  0  0
 72144  1  0  0  0
 72145  1  0  0  0
 73 74  1  0  0  0
 73 80  1  0  0  0
 73146  1  0  0  0
 73147  1  0  0  0
 74 75  1  0  0  0
 74148  1  0  0  0
 75149  1  0  0  0
 75150  1  0  0  0
 76 78  1  0  0  0
 76 80  1  0  0  0
 76151  1  0  0  0
 76152  1  0  0  0
 77 79  1  0  0  0
 77 81  1  0  0  0
 77153  1  0  0  0
 77154  1  0  0  0
 78 82  1  0  0  0
 78155  1  0  0  0
 78156  1  0  0  0
 79 82  1  0  0  0
 79157  1  0  0  0
 79158  1  0  0  0
 81159  1  0  0  0
 82160  1  0  0  0
 82161  1  0  0  0
M  CHG  1  82   1
M  ISO  4   1 100  68 101  75 101  81 100
M  END
> <chiral flag>
0

> <version>
0

> <s_m_source_file>
/data/baiqing/PycharmProjects/Reinvent-master-3.2/result/LINK_invent/BTK/process_docking_weight1_custom_sum_contain_oxygen_bond_distance_aromatic_linkinvent_7_9_3/rearranged_h_0130.sdf

> <i_m_source_file_index>
75

> <r_mmod_Potential_Energy-OPLS-2005>
-138.288848876953

> <r_mmod_Stretch_Energy-OPLS-2005>
40.0793914794922

> <r_mmod_Bend_Energy-OPLS-2005>
140.11262512207

> <r_mmod_Torsional_Energy-OPLS-2005>
320.061859130859

> <r_mmod_Improper_Torsional_Energy-OPLS-2005>
7.34561252593994

> <r_mmod_Van_der_Waal_Energy-OPLS-2005>
125.302764892578

> <r_mmod_Electrostatic_Energy-OPLS-2005>
-301.7138671875

> <r_mmod_Solvation_Energy-OPLS-2005>
-481.184753417969

> <b_mmod_Minimization_Converged-OPLS-2005>
0

> <r_mmod_RMS_Derivative-OPLS-2005>
2.50203585624695

$$$$
75
                    3D
 Structure written by MMmdl.
162171  0  0  1  0            999 V2000
  -30.5896  -14.6678   20.5033 C   0  0  0  0  0  0
  -30.4486  -12.4079   19.4590 C   0  0  0  0  0  0
  -29.5159  -12.5105   18.2301 C   0  0  0  0  0  0
  -28.0366  -12.3493   18.6379 C   0  0  0  0  0  0
  -27.6566  -13.2148   19.8683 C   0  0  2  0  0  0
  -28.6990  -13.0595   20.9981 C   0  0  0  0  0  0
  -25.2592  -13.8174   20.5693 C   0  0  0  0  0  0
  -24.1850  -13.0440   20.9185 C   0  0  0  0  0  0
  -24.6418  -11.6905   20.8753 C   0  0  0  0  0  0
  -23.9087  -10.4289   21.0423 C   0  0  0  0  0  0
  -24.3633   -9.4203   21.9210 C   0  0  0  0  0  0
  -23.6299   -8.2245   22.0773 C   0  0  0  0  0  0
  -22.4281   -8.0300   21.3551 C   0  0  0  0  0  0
  -21.9922   -9.0279   20.4658 C   0  0  0  0  0  0
  -22.7263  -10.2154   20.3072 C   0  0  0  0  0  0
  -21.6850   -6.0751   22.5288 C   0  0  0  0  0  0
  -21.4010   -6.5648   23.8222 C   0  0  0  0  0  0
  -21.3652   -5.6801   24.9187 C   0  0  0  0  0  0
  -21.6040   -4.3064   24.7235 C   0  0  0  0  0  0
  -21.8816   -3.8157   23.4351 C   0  0  0  0  0  0
  -21.9190   -4.6977   22.3410 C   0  0  0  0  0  0
  -22.7875  -13.5253   21.1827 C   0  0  0  0  0  0
  -22.1662   -4.2169   21.0987 F   0  0  0  0  0  0
  -21.5622   -3.4542   25.7738 F   0  0  0  0  0  0
  -30.0126  -13.4222   20.4419 N   0  0  0  0  0  0
  -26.3015  -12.9340   20.3333 N   0  0  0  0  0  0
  -25.9341  -11.6493   20.5766 N   0  0  0  0  0  0
  -22.0494  -12.8265   22.0389 N   0  0  0  0  0  0
  -25.4316  -15.1898   20.4138 N   0  0  0  0  0  0
  -31.7358  -14.8541   20.0779 O   0  0  0  0  0  0
  -21.6637   -6.8902   21.4250 O   0  0  0  0  0  0
  -22.3576  -14.5564   20.6680 O   0  0  0  0  0  0
  -24.6261  -31.8572   23.1997 C   0  0  0  0  0  0
  -25.9105  -32.4759   23.8329 C   0  0  1  0  0  0
  -27.2344  -27.2996   20.1186 C   0  0  0  0  0  0
  -25.5896  -33.8558   24.2247 N   0  0  0  0  0  0
  -23.4210  -30.4774   21.5429 C   0  0  2  0  0  0
  -24.8705  -28.9202   20.1123 C   0  0  0  0  0  0
  -22.7467  -29.4610   22.4959 C   0  0  0  0  0  0
  -18.0273  -28.1381   22.8493 C   0  0  0  0  0  0
  -24.1487  -36.7279   23.2640 C   0  0  0  0  0  0
  -25.9620  -30.7791   21.3730 C   0  0  0  0  0  0
  -26.0364  -29.4037   20.7166 C   0  0  0  0  0  0
  -27.2161  -28.6022   20.7112 C   0  0  0  0  0  0
  -26.0434  -26.8626   19.4982 C   0  0  0  0  0  0
  -24.8763  -27.6553   19.4979 C   0  0  0  0  0  0
  -23.6372  -29.8018   20.1613 C   0  0  0  0  0  0
  -25.4112  -36.3067   24.0327 C   0  0  1  0  0  0
  -20.5869  -28.3680   23.1290 C   0  0  2  0  0  0
  -20.6760  -26.9397   22.5425 C   0  0  0  0  0  0
  -19.5740  -26.6385   21.5211 C   0  0  0  0  0  0
  -18.1921  -26.7930   22.1621 C   0  0  0  0  0  0
  -19.1529  -28.8849   23.2889 C   0  0  0  0  0  0
  -18.9453  -30.1453   23.8904 C   0  0  0  0  0  0
  -17.6458  -30.6594   24.0556 C   0  0  0  0  0  0
  -25.9041  -34.9436   23.5093 C   0  0  0  0  0  0
  -16.5348  -29.9090   23.6330 C   0  0  0  0  0  0
  -16.7264  -28.6496   23.0363 C   0  0  0  0  0  0
  -26.4480  -31.6582   25.0718 C   0  0  0  0  0  0
  -25.3692  -31.3739   26.1427 C   0  0  0  0  0  0
  -27.0331  -30.3010   24.6187 C   0  0  0  0  0  0
  -27.6046  -32.4317   25.7481 C   0  0  0  0  0  0
  -27.5575  -37.1791   24.8463 C   0  0  0  0  0  0
  -21.4175  -29.3036   22.3683 N   0  0  0  0  0  0
  -26.4290  -37.3769   23.9404 N   0  0  0  0  0  0
  -24.6885  -31.0568   22.0950 N   0  0  0  0  0  0
  -23.4190  -28.8147   23.3042 O   0  0  0  0  0  0
  -28.3814  -26.4916   20.1850 O   0  0  0  0  0  0
  -26.5638  -34.8918   22.4673 O   0  0  0  0  0  0
  -23.5426  -32.1363   23.7319 O   0  0  0  0  0  0
  -28.4098  -19.1550   21.4097 C   0  0  0  0  0  0
  -28.7557  -17.7912   21.6138 C   0  0  0  0  0  0
  -28.9394  -19.8975   20.3252 C   0  0  0  0  0  0
  -29.8745  -19.1579   19.5335 C   0  0  0  0  0  0
  -29.6546  -17.1094   20.7593 C   0  0  0  0  0  0
  -29.9335  -24.6947   19.5072 C   0  0  0  0  0  0
  -29.9358  -23.1547   19.3913 C   0  0  0  0  0  0
  -28.4629  -25.0924   19.6788 C   0  0  2  0  0  0
  -27.9484  -23.8381   20.5113 C   0  0  2  0  0  0
  -30.5385  -19.7657   18.3125 C   0  0  0  0  0  0
  -27.8303  -24.1602   22.0092 C   0  0  0  0  0  0
  -28.2880  -21.3020   19.9422 C   0  0  0  0  0  0
  -30.2167  -17.8411   19.7551 N   0  0  0  0  0  0
  -29.7841  -15.6685   20.9901 N   0  0  0  0  0  0
  -28.8951  -22.6535   20.3187 N   0  3  1  0  0  0
  -31.4878  -12.5505   19.1537 H   0  0  0  0  0  0
  -30.4024  -11.4116   19.9007 H   0  0  0  0  0  0
  -29.7837  -11.7561   17.4889 H   0  0  0  0  0  0
  -29.6611  -13.4776   17.7467 H   0  0  0  0  0  0
  -27.8654  -11.2965   18.8642 H   0  0  0  0  0  0
  -27.3889  -12.5884   17.7936 H   0  0  0  0  0  0
  -27.6788  -14.2513   19.5343 H   0  0  0  0  0  0
  -28.7175  -12.0324   21.3633 H   0  0  0  0  0  0
  -28.4360  -13.6717   21.8624 H   0  0  0  0  0  0
  -25.2782   -9.5673   22.4792 H   0  0  0  0  0  0
  -23.9995   -7.4632   22.7492 H   0  0  0  0  0  0
  -21.0846   -8.8820   19.8968 H   0  0  0  0  0  0
  -22.3738  -10.9702   19.6188 H   0  0  0  0  0  0
  -21.2001   -7.6160   23.9738 H   0  0  0  0  0  0
  -21.1472   -6.0528   25.9091 H   0  0  0  0  0  0
  -22.0596   -2.7621   23.2852 H   0  0  0  0  0  0
  -22.4060  -11.9912   22.4786 H   0  0  0  0  0  0
  -21.1130  -13.1341   22.2579 H   0  0  0  0  0  0
  -24.6652  -15.8446   20.5247 H   0  0  0  0  0  0
  -26.2793  -15.6283   20.0777 H   0  0  0  0  0  0
  -26.7166  -32.5438   23.1066 H   0  0  0  0  0  0
  -25.0004  -33.9693   25.0363 H   0  0  0  0  0  0
  -22.7140  -31.2969   21.3935 H   0  0  0  0  0  0
  -23.3756  -35.9608   23.3312 H   0  0  0  0  0  0
  -24.3560  -36.8903   22.2053 H   0  0  0  0  0  0
  -23.7243  -37.6480   23.6662 H   0  0  0  0  0  0
  -26.0908  -31.5409   20.6032 H   0  0  0  0  0  0
  -26.8415  -30.8303   22.0037 H   0  0  0  0  0  0
  -28.1120  -28.9663   21.1930 H   0  0  0  0  0  0
  -25.9843  -25.8931   19.0270 H   0  0  0  0  0  0
  -23.9766  -27.2746   19.0347 H   0  0  0  0  0  0
  -23.7539  -30.5710   19.3980 H   0  0  0  0  0  0
  -22.7569  -29.2282   19.8665 H   0  0  0  0  0  0
  -25.1300  -36.1908   25.0826 H   0  0  0  0  0  0
  -20.9949  -28.3263   24.1411 H   0  0  0  0  0  0
  -20.5622  -26.2293   23.3625 H   0  0  0  0  0  0
  -21.6634  -26.7423   22.1223 H   0  0  0  0  0  0
  -19.6895  -25.6291   21.1240 H   0  0  0  0  0  0
  -19.6679  -27.3199   20.6739 H   0  0  0  0  0  0
  -17.4180  -26.6674   21.4037 H   0  0  0  0  0  0
  -18.0327  -26.0076   22.9019 H   0  0  0  0  0  0
  -19.7933  -30.7266   24.2286 H   0  0  0  0  0  0
  -17.5012  -31.6275   24.5151 H   0  0  0  0  0  0
  -15.5347  -30.2991   23.7660 H   0  0  0  0  0  0
  -15.8654  -28.0813   22.7093 H   0  0  0  0  0  0
  -24.5861  -30.7099   25.7738 H   0  0  0  0  0  0
  -24.8883  -32.2920   26.4826 H   0  0  0  0  0  0
  -25.7988  -30.8916   27.0215 H   0  0  0  0  0  0
  -26.2927  -29.6764   24.1180 H   0  0  0  0  0  0
  -27.3989  -29.7267   25.4707 H   0  0  0  0  0  0
  -27.8804  -30.4299   23.9444 H   0  0  0  0  0  0
  -27.2658  -33.3612   26.2063 H   0  0  0  0  0  0
  -28.3844  -32.6883   25.0298 H   0  0  0  0  0  0
  -28.0710  -31.8431   26.5386 H   0  0  0  0  0  0
  -28.2595  -38.0087   24.7501 H   0  0  0  0  0  0
  -28.1070  -36.2617   24.6299 H   0  0  0  0  0  0
  -27.2283  -37.1452   25.8863 H   0  0  0  0  0  0
  -20.9350  -29.8747   21.6872 H   0  0  0  0  0  0
  -26.0172  -38.2847   24.1414 H   0  0  0  0  0  0
  -27.6669  -19.5993   22.0559 H   0  0  0  0  0  0
  -28.2752  -17.2574   22.4211 H   0  0  0  0  0  0
  -30.3957  -25.1763   18.6444 H   0  0  0  0  0  0
  -30.4982  -24.9952   20.3909 H   0  0  0  0  0  0
  -30.9086  -22.7178   19.6199 H   0  0  0  0  0  0
  -29.6857  -22.8786   18.3661 H   0  0  0  0  0  0
  -28.0204  -25.0529   18.6827 H   0  0  0  0  0  0
  -26.9564  -23.5745   20.1409 H   0  0  0  0  0  0
  -31.4428  -20.3001   18.6016 H   0  0  0  0  0  0
  -29.8838  -20.4596   17.7886 H   0  0  0  0  0  0
  -30.8208  -18.9881   17.6009 H   0  0  0  0  0  0
  -27.1239  -24.9745   22.1761 H   0  0  0  0  0  0
  -28.7886  -24.4673   22.4310 H   0  0  0  0  0  0
  -27.4774  -23.2955   22.5739 H   0  0  0  0  0  0
  -27.3018  -21.2851   20.4099 H   0  0  0  0  0  0
  -28.0546  -21.3002   18.8781 H   0  0  0  0  0  0
  -28.9935  -15.2844   21.4816 H   0  0  0  0  0  0
  -29.3452  -22.5202   21.2124 H   0  0  0  0  0  0
  1 25  1  0  0  0
  1 30  2  0  0  0
  1 84  1  0  0  0
  2  3  1  0  0  0
  2 25  1  0  0  0
  2 86  1  0  0  0
  2 87  1  0  0  0
  3  4  1  0  0  0
  3 88  1  0  0  0
  3 89  1  0  0  0
  4  5  1  0  0  0
  4 90  1  0  0  0
  4 91  1  0  0  0
  5  6  1  0  0  0
  5 26  1  0  0  0
  5 92  1  0  0  0
  6 25  1  0  0  0
  6 93  1  0  0  0
  6 94  1  0  0  0
  7  8  2  0  0  0
  7 26  1  0  0  0
  7 29  1  0  0  0
  8  9  1  0  0  0
  8 22  1  0  0  0
  9 10  1  0  0  0
  9 27  2  0  0  0
 10 11  2  0  0  0
 10 15  1  0  0  0
 11 12  1  0  0  0
 11 95  1  0  0  0
 12 13  2  0  0  0
 12 96  1  0  0  0
 13 14  1  0  0  0
 13 31  1  0  0  0
 14 15  2  0  0  0
 14 97  1  0  0  0
 15 98  1  0  0  0
 16 17  2  0  0  0
 16 21  1  0  0  0
 16 31  1  0  0  0
 17 18  1  0  0  0
 17 99  1  0  0  0
 18 19  2  0  0  0
 18100  1  0  0  0
 19 20  1  0  0  0
 19 24  1  0  0  0
 20 21  2  0  0  0
 20101  1  0  0  0
 21 23  1  0  0  0
 22 28  1  0  0  0
 22 32  2  0  0  0
 26 27  1  0  0  0
 28102  1  0  0  0
 28103  1  0  0  0
 29104  1  0  0  0
 29105  1  0  0  0
 33 34  1  0  0  0
 33 66  1  0  0  0
 33 70  2  0  0  0
 34 36  1  0  0  0
 34 59  1  0  0  0
 34106  1  0  0  0
 35 44  2  0  0  0
 35 45  1  0  0  0
 35 68  1  0  0  0
 36 56  1  0  0  0
 36107  1  0  0  0
 37 39  1  0  0  0
 37 47  1  0  0  0
 37 66  1  0  0  0
 37108  1  0  0  0
 38 43  2  0  0  0
 38 46  1  0  0  0
 38 47  1  0  0  0
 39 64  1  0  0  0
 39 67  2  0  0  0
 40 52  1  0  0  0
 40 53  2  0  0  0
 40 58  1  0  0  0
 41109  1  0  0  0
 41110  1  0  0  0
 41111  1  0  0  0
 41 48  1  0  0  0
 42 43  1  0  0  0
 42 66  1  0  0  0
 42112  1  0  0  0
 42113  1  0  0  0
 43 44  1  0  0  0
 44114  1  0  0  0
 45 46  2  0  0  0
 45115  1  0  0  0
 46116  1  0  0  0
 47117  1  0  0  0
 47118  1  0  0  0
 48 56  1  0  0  0
 48 65  1  0  0  0
 48119  1  0  0  0
 49 50  1  0  0  0
 49 53  1  0  0  0
 49 64  1  0  0  0
 49120  1  0  0  0
 50 51  1  0  0  0
 50121  1  0  0  0
 50122  1  0  0  0
 51 52  1  0  0  0
 51123  1  0  0  0
 51124  1  0  0  0
 52125  1  0  0  0
 52126  1  0  0  0
 53 54  1  0  0  0
 54 55  2  0  0  0
 54127  1  0  0  0
 55 57  1  0  0  0
 55128  1  0  0  0
 56 69  2  0  0  0
 57 58  2  0  0  0
 57129  1  0  0  0
 58130  1  0  0  0
 59 60  1  0  0  0
 59 61  1  0  0  0
 59 62  1  0  0  0
 60131  1  0  0  0
 60132  1  0  0  0
 60133  1  0  0  0
 61134  1  0  0  0
 61135  1  0  0  0
 61136  1  0  0  0
 62137  1  0  0  0
 62138  1  0  0  0
 62139  1  0  0  0
 63 65  1  0  0  0
 63140  1  0  0  0
 63141  1  0  0  0
 63142  1  0  0  0
 64143  1  0  0  0
 65144  1  0  0  0
 68 78  1  0  0  0
 71 72  2  0  0  0
 71 73  1  0  0  0
 71145  1  0  0  0
 72 75  1  0  0  0
 72146  1  0  0  0
 73 74  2  0  0  0
 73 82  1  0  0  0
 74 80  1  0  0  0
 74 83  1  0  0  0
 75 83  2  0  0  0
 75 84  1  0  0  0
 76 77  1  0  0  0
 76 78  1  0  0  0
 76147  1  0  0  0
 76148  1  0  0  0
 77 85  1  0  0  0
 77149  1  0  0  0
 77150  1  0  0  0
 78 79  1  0  0  0
 78151  1  0  0  0
 79 81  1  0  0  0
 79 85  1  0  0  0
 79152  1  0  0  0
 80153  1  0  0  0
 80154  1  0  0  0
 80155  1  0  0  0
 81156  1  0  0  0
 81157  1  0  0  0
 81158  1  0  0  0
 82159  1  0  0  0
 82160  1  0  0  0
 82 85  1  0  0  0
 84161  1  0  0  0
 85162  1  0  0  0
M  CHG  1  85   1
M  ISO  4   1 100  68 101  78 101  84 100
M  END
> <chiral flag>
0

> <version>
0

> <s_m_source_file>
/data/baiqing/PycharmProjects/Reinvent-master-3.2/result/LINK_invent/BTK/process_docking_weight1_custom_sum_contain_oxygen_bond_distance_aromatic_linkinvent_7_9_3/rearranged_h_0130.sdf

> <i_m_source_file_index>
76

> <r_mmod_Potential_Energy-OPLS-2005>
-80.4681549072266

> <r_mmod_Stretch_Energy-OPLS-2005>
89.3035354614258

> <r_mmod_Bend_Energy-OPLS-2005>
199.955108642578

> <r_mmod_Torsional_Energy-OPLS-2005>
265.106170654297

> <r_mmod_Improper_Torsional_Energy-OPLS-2005>
5.04826879501343

> <r_mmod_Van_der_Waal_Energy-OPLS-2005>
130.079116821289

> <r_mmod_Electrostatic_Energy-OPLS-2005>
-370.168609619141

> <r_mmod_Solvation_Energy-OPLS-2005>
-454.8837890625

> <b_mmod_Minimization_Converged-OPLS-2005>
0

> <r_mmod_RMS_Derivative-OPLS-2005>
2.16106247901917

$$$$
76
                    3D
 Structure written by MMmdl.
164173  0  0  1  0            999 V2000
  -30.7114  -14.5836   20.3332 C   0  0  0  0  0  0
  -30.4202  -12.3362   19.4124 C   0  0  0  0  0  0
  -29.4728  -12.4355   18.1956 C   0  0  0  0  0  0
  -28.0005  -12.3236   18.6291 C   0  0  0  0  0  0
  -27.6475  -13.2208   19.8411 C   0  0  2  0  0  0
  -28.7203  -13.1309   20.9537 C   0  0  0  0  0  0
  -25.2544  -13.8066   20.5859 C   0  0  0  0  0  0
  -24.1859  -13.0351   20.9380 C   0  0  0  0  0  0
  -24.6423  -11.6793   20.8828 C   0  0  0  0  0  0
  -23.9051  -10.4129   21.0369 C   0  0  0  0  0  0
  -24.3666   -9.4019   21.9044 C   0  0  0  0  0  0
  -23.6304   -8.2095   22.0736 C   0  0  0  0  0  0
  -22.4178   -8.0175   21.3635 C   0  0  0  0  0  0
  -21.9793   -9.0135   20.4765 C   0  0  0  0  0  0
  -22.7165  -10.1987   20.3079 C   0  0  0  0  0  0
  -21.6771   -6.0644   22.5302 C   0  0  0  0  0  0
  -21.3924   -6.5618   23.8199 C   0  0  0  0  0  0
  -21.3733   -5.6820   24.9207 C   0  0  0  0  0  0
  -21.6138   -4.3069   24.7353 C   0  0  0  0  0  0
  -21.8786   -3.8128   23.4455 C   0  0  0  0  0  0
  -21.9116   -4.6896   22.3494 C   0  0  0  0  0  0
  -22.7894  -13.5098   21.2118 C   0  0  0  0  0  0
  -22.1510   -4.2024   21.1038 F   0  0  0  0  0  0
  -21.5846   -3.4588   25.7900 F   0  0  0  0  0  0
  -30.0410  -13.3970   20.3557 N   0  0  0  0  0  0
  -26.2989  -12.9372   20.3424 N   0  0  0  0  0  0
  -25.9362  -11.6509   20.5881 N   0  0  0  0  0  0
  -22.0685  -12.8018   22.0744 N   0  0  0  0  0  0
  -25.4202  -15.1765   20.4176 N   0  0  0  0  0  0
  -31.9074  -14.6640   20.0565 O   0  0  0  0  0  0
  -21.6579   -6.8774   21.4284 O   0  0  0  0  0  0
  -22.3569  -14.5440   20.7012 O   0  0  0  0  0  0
  -24.6258  -31.8564   23.1985 C   0  0  0  0  0  0
  -25.9125  -32.4769   23.8333 C   0  0  1  0  0  0
  -27.2653  -27.3654   20.1305 C   0  0  0  0  0  0
  -25.5929  -33.8568   24.2270 N   0  0  0  0  0  0
  -23.4233  -30.4720   21.5380 C   0  0  2  0  0  0
  -24.8753  -28.9165   20.1184 C   0  0  0  0  0  0
  -22.7497  -29.4573   22.4935 C   0  0  0  0  0  0
  -18.0272  -28.1380   22.8483 C   0  0  0  0  0  0
  -24.1483  -36.7298   23.2635 C   0  0  0  0  0  0
  -25.9559  -30.7963   21.3681 C   0  0  0  0  0  0
  -26.0309  -29.4211   20.7229 C   0  0  0  0  0  0
  -27.2245  -28.6546   20.7244 C   0  0  0  0  0  0
  -26.0892  -26.8967   19.4989 C   0  0  0  0  0  0
  -24.9017  -27.6572   19.4951 C   0  0  0  0  0  0
  -23.6432  -29.7984   20.1564 C   0  0  0  0  0  0
  -25.4102  -36.3057   24.0327 C   0  0  1  0  0  0
  -20.5873  -28.3683   23.1284 C   0  0  2  0  0  0
  -20.6764  -26.9415   22.5406 C   0  0  0  0  0  0
  -19.5745  -26.6389   21.5198 C   0  0  0  0  0  0
  -18.1912  -26.7929   22.1620 C   0  0  0  0  0  0
  -19.1529  -28.8841   23.2874 C   0  0  0  0  0  0
  -18.9467  -30.1435   23.8902 C   0  0  0  0  0  0
  -17.6471  -30.6579   24.0559 C   0  0  0  0  0  0
  -25.9054  -34.9444   23.5089 C   0  0  0  0  0  0
  -16.5352  -29.9097   23.6322 C   0  0  0  0  0  0
  -16.7261  -28.6510   23.0347 C   0  0  0  0  0  0
  -26.4505  -31.6566   25.0707 C   0  0  0  0  0  0
  -25.3791  -31.3699   26.1473 C   0  0  0  0  0  0
  -27.0355  -30.3001   24.6147 C   0  0  0  0  0  0
  -27.6063  -32.4296   25.7509 C   0  0  0  0  0  0
  -27.5578  -37.1798   24.8468 C   0  0  0  0  0  0
  -21.4213  -29.3020   22.3717 N   0  0  0  0  0  0
  -26.4277  -37.3765   23.9416 N   0  0  0  0  0  0
  -24.6856  -31.0611   22.0913 N   0  0  0  0  0  0
  -23.4222  -28.8130   23.3017 O   0  0  0  0  0  0
  -28.4368  -26.6075   20.1927 O   0  0  0  0  0  0
  -26.5631  -34.8908   22.4665 O   0  0  0  0  0  0
  -23.5427  -32.1342   23.7325 O   0  0  0  0  0  0
  -28.3633  -21.7073   21.2113 C   0  0  0  0  0  0
  -27.9012  -20.4578   21.6822 C   0  0  0  0  0  0
  -28.4502  -19.2739   21.0927 C   0  0  0  0  0  0
  -29.5945  -19.4136   20.2574 C   0  0  0  0  0  0
  -29.3855  -21.7783   20.2638 C   0  0  0  0  0  0
  -26.9838  -19.5415   24.0002 C   0  0  0  0  0  0
  -25.7390  -19.6881   23.1552 C   0  0  0  0  0  0
  -26.9467  -20.5435   22.8700 C   0  0  0  0  0  0
  -27.8617  -17.8872   21.3732 C   0  0  0  0  0  0
  -30.6064  -18.2387   19.9961 C   0  0  0  0  0  0
  -30.1717  -16.8789   19.3245 C   0  0  0  0  0  0
  -29.5851  -24.3218   20.4542 C   0  0  0  0  0  0
  -28.3877  -25.1775   19.9026 C   0  0  0  0  0  0
  -30.0085  -20.6504   19.8264 N   0  0  0  0  0  0
  -29.8191  -23.0214   19.7673 N   0  0  0  0  0  0
  -29.9418  -15.6866   20.2167 N   0  0  0  0  0  0
  -31.4575  -12.4272   19.0827 H   0  0  0  0  0  0
  -30.3360  -11.3640   19.8962 H   0  0  0  0  0  0
  -29.6908  -11.6386   17.4841 H   0  0  0  0  0  0
  -29.6323  -13.3763   17.6637 H   0  0  0  0  0  0
  -27.8059  -11.2813   18.8725 H   0  0  0  0  0  0
  -27.3349  -12.5520   17.7945 H   0  0  0  0  0  0
  -27.6371  -14.2424   19.4615 H   0  0  0  0  0  0
  -28.7132  -12.1382   21.3953 H   0  0  0  0  0  0
  -28.5171  -13.8282   21.7669 H   0  0  0  0  0  0
  -25.2895   -9.5323   22.4450 H   0  0  0  0  0  0
  -23.9960   -7.4363   22.7337 H   0  0  0  0  0  0
  -21.0673   -8.8627   19.9132 H   0  0  0  0  0  0
  -22.3554  -10.9482   19.6176 H   0  0  0  0  0  0
  -21.1770   -7.6074   23.9619 H   0  0  0  0  0  0
  -21.1620   -6.0614   25.9104 H   0  0  0  0  0  0
  -22.0483   -2.7568   23.3025 H   0  0  0  0  0  0
  -22.4469  -11.9540   22.4730 H   0  0  0  0  0  0
  -21.1275  -13.0771   22.3159 H   0  0  0  0  0  0
  -24.6290  -15.8056   20.4225 H   0  0  0  0  0  0
  -26.2302  -15.5635   19.9582 H   0  0  0  0  0  0
  -26.7225  -32.5426   23.1113 H   0  0  0  0  0  0
  -25.0129  -33.9660   25.0454 H   0  0  0  0  0  0
  -22.7154  -31.2868   21.3868 H   0  0  0  0  0  0
  -23.3721  -35.9656   23.3287 H   0  0  0  0  0  0
  -24.3585  -36.8938   22.2052 H   0  0  0  0  0  0
  -23.7259  -37.6514   23.6665 H   0  0  0  0  0  0
  -26.0924  -31.5406   20.5825 H   0  0  0  0  0  0
  -26.8394  -30.8461   21.9959 H   0  0  0  0  0  0
  -28.1132  -29.0370   21.2062 H   0  0  0  0  0  0
  -26.0713  -25.9352   19.0126 H   0  0  0  0  0  0
  -24.0234  -27.2604   19.0054 H   0  0  0  0  0  0
  -23.7850  -30.5709   19.3969 H   0  0  0  0  0  0
  -22.7651  -29.2285   19.8445 H   0  0  0  0  0  0
  -25.1265  -36.1906   25.0819 H   0  0  0  0  0  0
  -20.9943  -28.3228   24.1407 H   0  0  0  0  0  0
  -20.5618  -26.2299   23.3591 H   0  0  0  0  0  0
  -21.6631  -26.7413   22.1209 H   0  0  0  0  0  0
  -19.6899  -25.6293   21.1211 H   0  0  0  0  0  0
  -19.6663  -27.3202   20.6712 H   0  0  0  0  0  0
  -17.4181  -26.6649   21.4020 H   0  0  0  0  0  0
  -18.0334  -26.0053   22.9005 H   0  0  0  0  0  0
  -19.7932  -30.7233   24.2301 H   0  0  0  0  0  0
  -17.5021  -31.6255   24.5174 H   0  0  0  0  0  0
  -15.5360  -30.3010   23.7604 H   0  0  0  0  0  0
  -15.8661  -28.0815   22.7080 H   0  0  0  0  0  0
  -24.5962  -30.7024   25.7870 H   0  0  0  0  0  0
  -24.8976  -32.2838   26.4919 H   0  0  0  0  0  0
  -25.8145  -30.8915   27.0238 H   0  0  0  0  0  0
  -26.2913  -29.6768   24.1179 H   0  0  0  0  0  0
  -27.4090  -29.7221   25.4595 H   0  0  0  0  0  0
  -27.8744  -30.4304   23.9332 H   0  0  0  0  0  0
  -27.2669  -33.3588   26.2073 H   0  0  0  0  0  0
  -28.3890  -32.6861   25.0378 H   0  0  0  0  0  0
  -28.0709  -31.8448   26.5438 H   0  0  0  0  0  0
  -28.2579  -38.0118   24.7512 H   0  0  0  0  0  0
  -28.1082  -36.2630   24.6260 H   0  0  0  0  0  0
  -27.2304  -37.1425   25.8884 H   0  0  0  0  0  0
  -20.9406  -29.8847   21.6995 H   0  0  0  0  0  0
  -26.0142  -38.2840   24.1431 H   0  0  0  0  0  0
  -27.9394  -22.6257   21.5987 H   0  0  0  0  0  0
  -27.5496  -18.6227   23.9138 H   0  0  0  0  0  0
  -26.9053  -19.9036   25.0244 H   0  0  0  0  0  0
  -24.9022  -20.1377   23.6865 H   0  0  0  0  0  0
  -25.4605  -18.9180   22.4506 H   0  0  0  0  0  0
  -26.8560  -21.5733   23.1891 H   0  0  0  0  0  0
  -28.2545  -17.4299   22.2819 H   0  0  0  0  0  0
  -28.0612  -17.2286   20.5478 H   0  0  0  0  0  0
  -26.7792  -17.8368   21.3761 H   0  0  0  0  0  0
  -31.1301  -18.0280   20.9303 H   0  0  0  0  0  0
  -31.3760  -18.6559   19.3381 H   0  0  0  0  0  0
  -30.9066  -16.6011   18.5664 H   0  0  0  0  0  0
  -29.2764  -17.0668   18.7360 H   0  0  0  0  0  0
  -29.4795  -24.1616   21.5321 H   0  0  0  0  0  0
  -30.5030  -24.9032   20.3616 H   0  0  0  0  0  0
  -27.4774  -24.7388   20.3114 H   0  0  0  0  0  0
  -28.3320  -25.0802   18.8168 H   0  0  0  0  0  0
  -30.6052  -22.9923   19.1251 H   0  0  0  0  0  0
  -28.9935  -15.5676   20.5211 H   0  0  0  0  0  0
  1 25  1  0  0  0
  1 30  2  0  0  0
  1 86  1  0  0  0
  2  3  1  0  0  0
  2 25  1  0  0  0
  2 87  1  0  0  0
  2 88  1  0  0  0
  3  4  1  0  0  0
  3 89  1  0  0  0
  3 90  1  0  0  0
  4  5  1  0  0  0
  4 91  1  0  0  0
  4 92  1  0  0  0
  5  6  1  0  0  0
  5 26  1  0  0  0
  5 93  1  0  0  0
  6 25  1  0  0  0
  6 94  1  0  0  0
  6 95  1  0  0  0
  7  8  2  0  0  0
  7 26  1  0  0  0
  7 29  1  0  0  0
  8  9  1  0  0  0
  8 22  1  0  0  0
  9 10  1  0  0  0
  9 27  2  0  0  0
 10 11  2  0  0  0
 10 15  1  0  0  0
 11 12  1  0  0  0
 11 96  1  0  0  0
 12 13  2  0  0  0
 12 97  1  0  0  0
 13 14  1  0  0  0
 13 31  1  0  0  0
 14 15  2  0  0  0
 14 98  1  0  0  0
 15 99  1  0  0  0
 16 17  2  0  0  0
 16 21  1  0  0  0
 16 31  1  0  0  0
 17 18  1  0  0  0
 17100  1  0  0  0
 18 19  2  0  0  0
 18101  1  0  0  0
 19 20  1  0  0  0
 19 24  1  0  0  0
 20 21  2  0  0  0
 20102  1  0  0  0
 21 23  1  0  0  0
 22 28  1  0  0  0
 22 32  2  0  0  0
 26 27  1  0  0  0
 28103  1  0  0  0
 28104  1  0  0  0
 29105  1  0  0  0
 29106  1  0  0  0
 33 34  1  0  0  0
 33 66  1  0  0  0
 33 70  2  0  0  0
 34 36  1  0  0  0
 34 59  1  0  0  0
 34107  1  0  0  0
 35 44  2  0  0  0
 35 45  1  0  0  0
 35 68  1  0  0  0
 36 56  1  0  0  0
 36108  1  0  0  0
 37 39  1  0  0  0
 37 47  1  0  0  0
 37 66  1  0  0  0
 37109  1  0  0  0
 38 43  2  0  0  0
 38 46  1  0  0  0
 38 47  1  0  0  0
 39 64  1  0  0  0
 39 67  2  0  0  0
 40 52  1  0  0  0
 40 53  2  0  0  0
 40 58  1  0  0  0
 41110  1  0  0  0
 41111  1  0  0  0
 41112  1  0  0  0
 41 48  1  0  0  0
 42 43  1  0  0  0
 42 66  1  0  0  0
 42113  1  0  0  0
 42114  1  0  0  0
 43 44  1  0  0  0
 44115  1  0  0  0
 45 46  2  0  0  0
 45116  1  0  0  0
 46117  1  0  0  0
 47118  1  0  0  0
 47119  1  0  0  0
 48 56  1  0  0  0
 48 65  1  0  0  0
 48120  1  0  0  0
 49 50  1  0  0  0
 49 53  1  0  0  0
 49 64  1  0  0  0
 49121  1  0  0  0
 50 51  1  0  0  0
 50122  1  0  0  0
 50123  1  0  0  0
 51 52  1  0  0  0
 51124  1  0  0  0
 51125  1  0  0  0
 52126  1  0  0  0
 52127  1  0  0  0
 53 54  1  0  0  0
 54 55  2  0  0  0
 54128  1  0  0  0
 55 57  1  0  0  0
 55129  1  0  0  0
 56 69  2  0  0  0
 57 58  2  0  0  0
 57130  1  0  0  0
 58131  1  0  0  0
 59 60  1  0  0  0
 59 61  1  0  0  0
 59 62  1  0  0  0
 60132  1  0  0  0
 60133  1  0  0  0
 60134  1  0  0  0
 61135  1  0  0  0
 61136  1  0  0  0
 61137  1  0  0  0
 62138  1  0  0  0
 62139  1  0  0  0
 62140  1  0  0  0
 63 65  1  0  0  0
 63141  1  0  0  0
 63142  1  0  0  0
 63143  1  0  0  0
 64144  1  0  0  0
 65145  1  0  0  0
 68 83  1  0  0  0
 71 72  2  0  0  0
 71 75  1  0  0  0
 71146  1  0  0  0
 72 73  1  0  0  0
 72 78  1  0  0  0
 73 74  2  0  0  0
 73 79  1  0  0  0
 74 80  1  0  0  0
 74 84  1  0  0  0
 75 84  2  0  0  0
 75 85  1  0  0  0
 76 77  1  0  0  0
 76 78  1  0  0  0
 76147  1  0  0  0
 76148  1  0  0  0
 77 78  1  0  0  0
 77149  1  0  0  0
 77150  1  0  0  0
 78151  1  0  0  0
 79152  1  0  0  0
 79153  1  0  0  0
 79154  1  0  0  0
 80 81  1  0  0  0
 80155  1  0  0  0
 80156  1  0  0  0
 81 86  1  0  0  0
 81157  1  0  0  0
 81158  1  0  0  0
 82 83  1  0  0  0
 82 85  1  0  0  0
 82159  1  0  0  0
 82160  1  0  0  0
 83161  1  0  0  0
 83162  1  0  0  0
 85163  1  0  0  0
 86164  1  0  0  0
M  ISO  4   1 100  68 101  83 101  86 100
M  END
> <chiral flag>
0

> <version>
0

> <s_m_source_file>
/data/baiqing/PycharmProjects/Reinvent-master-3.2/result/LINK_invent/BTK/process_docking_weight1_custom_sum_contain_oxygen_bond_distance_aromatic_linkinvent_7_9_3/rearranged_h_0130.sdf

> <i_m_source_file_index>
77

> <r_mmod_Potential_Energy-OPLS-2005>
-120.382347106934

> <r_mmod_Stretch_Energy-OPLS-2005>
65.1821670532227

> <r_mmod_Bend_Energy-OPLS-2005>
154.023910522461

> <r_mmod_Torsional_Energy-OPLS-2005>
284.221405029297

> <r_mmod_Improper_Torsional_Energy-OPLS-2005>
16.896448135376

> <r_mmod_Van_der_Waal_Energy-OPLS-2005>
161.989135742188

> <r_mmod_Electrostatic_Energy-OPLS-2005>
-608.561279296875

> <r_mmod_Solvation_Energy-OPLS-2005>
-240.895156860352

> <b_mmod_Minimization_Converged-OPLS-2005>
0

> <r_mmod_RMS_Derivative-OPLS-2005>
11.3741083145142

$$$$
77
                    3D
 Structure written by MMmdl.
161169  0  0  1  0            999 V2000
  -30.4463  -15.2067   20.3751 C   0  0  0  0  0  0
  -30.4434  -12.7594   19.5428 C   0  0  0  0  0  0
  -29.5388  -12.5690   18.2981 C   0  0  0  0  0  0
  -28.0876  -12.2940   18.7262 C   0  0  0  0  0  0
  -27.6207  -13.2670   19.8362 C   0  0  2  0  0  0
  -28.6498  -13.4140   20.9790 C   0  0  0  0  0  0
  -25.2439  -13.8232   20.5783 C   0  0  0  0  0  0
  -24.1761  -13.0436   20.9247 C   0  0  0  0  0  0
  -24.6395  -11.6929   20.8778 C   0  0  0  0  0  0
  -23.9081  -10.4295   21.0423 C   0  0  0  0  0  0
  -24.3629   -9.4212   21.9204 C   0  0  0  0  0  0
  -23.6307   -8.2250   22.0764 C   0  0  0  0  0  0
  -22.4292   -8.0291   21.3560 C   0  0  0  0  0  0
  -21.9932   -9.0255   20.4660 C   0  0  0  0  0  0
  -22.7256  -10.2134   20.3067 C   0  0  0  0  0  0
  -21.6848   -6.0751   22.5285 C   0  0  0  0  0  0
  -21.4011   -6.5651   23.8216 C   0  0  0  0  0  0
  -21.3662   -5.6809   24.9181 C   0  0  0  0  0  0
  -21.6034   -4.3067   24.7231 C   0  0  0  0  0  0
  -21.8820   -3.8159   23.4350 C   0  0  0  0  0  0
  -21.9194   -4.6981   22.3405 C   0  0  0  0  0  0
  -22.7787  -13.5204   21.1892 C   0  0  0  0  0  0
  -22.1666   -4.2171   21.0983 F   0  0  0  0  0  0
  -21.5626   -3.4543   25.7734 F   0  0  0  0  0  0
  -29.9018  -13.8962   20.3738 N   0  0  0  0  0  0
  -26.2860  -12.9492   20.3260 N   0  0  0  0  0  0
  -25.9340  -11.6609   20.5755 N   0  0  0  0  0  0
  -22.0431  -12.8187   22.0434 N   0  0  0  0  0  0
  -25.4114  -15.1971   20.4266 N   0  0  0  0  0  0
  -31.6421  -15.2422   20.0524 O   0  0  0  0  0  0
  -21.6641   -6.8899   21.4252 O   0  0  0  0  0  0
  -22.3484  -14.5524   20.6756 O   0  0  0  0  0  0
  -24.6566  -31.8277   23.1683 C   0  0  0  0  0  0
  -25.9245  -32.4625   23.8157 C   0  0  1  0  0  0
  -27.2319  -26.9774   20.1910 C   0  0  0  0  0  0
  -25.5931  -33.8438   24.2093 N   0  0  0  0  0  0
  -23.4678  -30.4366   21.5152 C   0  0  2  0  0  0
  -24.9227  -28.8206   20.1173 C   0  0  0  0  0  0
  -22.7647  -29.4449   22.4779 C   0  0  0  0  0  0
  -18.0318  -28.1393   22.8494 C   0  0  0  0  0  0
  -24.1476  -36.7216   23.2654 C   0  0  0  0  0  0
  -26.0319  -30.6537   21.3864 C   0  0  0  0  0  0
  -26.1010  -29.2407   20.7475 C   0  0  0  0  0  0
  -27.2477  -28.3373   20.7627 C   0  0  0  0  0  0
  -26.0255  -26.6916   19.5163 C   0  0  0  0  0  0
  -24.9039  -27.5640   19.4863 C   0  0  0  0  0  0
  -23.7077  -29.7435   20.1436 C   0  0  0  0  0  0
  -25.4112  -36.2990   24.0327 C   0  0  1  0  0  0
  -20.5951  -28.3709   23.1226 C   0  0  2  0  0  0
  -20.6800  -26.9400   22.5401 C   0  0  0  0  0  0
  -19.5766  -26.6371   21.5217 C   0  0  0  0  0  0
  -18.1941  -26.7931   22.1626 C   0  0  0  0  0  0
  -19.1586  -28.8867   23.2857 C   0  0  0  0  0  0
  -18.9502  -30.1469   23.8892 C   0  0  0  0  0  0
  -17.6497  -30.6599   24.0556 C   0  0  0  0  0  0
  -25.9086  -34.9383   23.5040 C   0  0  0  0  0  0
  -16.5379  -29.9094   23.6331 C   0  0  0  0  0  0
  -16.7302  -28.6498   23.0389 C   0  0  0  0  0  0
  -26.4524  -31.6544   25.0659 C   0  0  0  0  0  0
  -25.3668  -31.3748   26.1328 C   0  0  0  0  0  0
  -27.0402  -30.2931   24.6314 C   0  0  0  0  0  0
  -27.6068  -32.4305   25.7439 C   0  0  0  0  0  0
  -27.5564  -37.1773   24.8484 C   0  0  0  0  0  0
  -21.4318  -29.3030   22.3591 N   0  0  0  0  0  0
  -26.4258  -37.3733   23.9431 N   0  0  0  0  0  0
  -24.7399  -31.0007   22.0774 N   0  0  0  0  0  0
  -23.4240  -28.8010   23.2981 O   0  0  0  0  0  0
  -28.3188  -25.9742   20.2022 O   0  0  0  0  0  0
  -26.5684  -34.8903   22.4629 O   0  0  0  0  0  0
  -23.5657  -32.1198   23.6830 O   0  0  0  0  0  0
  -29.8979  -22.2816   19.8371 C   0  0  0  0  0  0
  -27.8503  -21.9383   20.8243 C   0  0  0  0  0  0
  -29.6009  -23.7320   19.7489 C   0  0  0  0  0  0
  -27.5565  -23.4000   20.7418 C   0  0  0  0  0  0
  -29.0602  -21.2292   20.3941 C   0  0  0  0  0  0
  -28.4164  -24.4491   20.2040 C   0  0  0  0  0  0
  -29.7223  -17.6680   23.9186 C   0  0  0  0  0  0
  -29.5721  -18.0125   20.0132 C   0  0  0  0  0  0
  -31.7182  -18.6283   22.6641 C   0  0  0  0  0  0
  -29.5711  -19.6087   20.8073 C   0  0  2  0  0  0
  -30.2894  -18.9059   23.2089 C   0  0  1  0  0  0
  -32.5317  -19.8372   22.6294 N   0  0  0  0  0  0
  -29.6572  -16.4364   20.5539 N   0  0  0  0  0  0
  -29.2914  -19.4720   22.2549 N   0  3  0  0  0  0
  -31.4694  -12.9442   19.2211 H   0  0  0  0  0  0
  -30.4866  -11.8411   20.1326 H   0  0  0  0  0  0
  -29.9102  -11.7493   17.6794 H   0  0  0  0  0  0
  -29.5737  -13.4693   17.6828 H   0  0  0  0  0  0
  -28.0436  -11.2699   19.1017 H   0  0  0  0  0  0
  -27.4176  -12.3364   17.8671 H   0  0  0  0  0  0
  -27.5511  -14.2403   19.3485 H   0  0  0  0  0  0
  -28.7935  -12.4735   21.5111 H   0  0  0  0  0  0
  -28.2946  -14.1365   21.7161 H   0  0  0  0  0  0
  -25.2769   -9.5687   22.4794 H   0  0  0  0  0  0
  -24.0012   -7.4635   22.7488 H   0  0  0  0  0  0
  -21.0864   -8.8782   19.8957 H   0  0  0  0  0  0
  -22.3726  -10.9683   19.6183 H   0  0  0  0  0  0
  -21.2000   -7.6158   23.9731 H   0  0  0  0  0  0
  -21.1479   -6.0531   25.9086 H   0  0  0  0  0  0
  -22.0593   -2.7624   23.2834 H   0  0  0  0  0  0
  -22.4042  -11.9814   22.4764 H   0  0  0  0  0  0
  -21.1058  -13.1239   22.2677 H   0  0  0  0  0  0
  -24.6422  -15.8464   20.5438 H   0  0  0  0  0  0
  -26.2544  -15.6379   20.0817 H   0  0  0  0  0  0
  -26.7316  -32.5180   23.0890 H   0  0  0  0  0  0
  -25.0086  -33.9525   25.0245 H   0  0  0  0  0  0
  -22.7752  -31.2637   21.3430 H   0  0  0  0  0  0
  -23.3767  -35.9527   23.3294 H   0  0  0  0  0  0
  -24.3564  -36.8859   22.2069 H   0  0  0  0  0  0
  -23.7183  -37.6393   23.6697 H   0  0  0  0  0  0
  -26.1980  -31.3861   20.5958 H   0  0  0  0  0  0
  -26.9009  -30.7253   22.0273 H   0  0  0  0  0  0
  -28.1458  -28.6700   21.2652 H   0  0  0  0  0  0
  -25.9314  -25.7323   19.0277 H   0  0  0  0  0  0
  -24.0037  -27.2397   18.9806 H   0  0  0  0  0  0
  -23.8588  -30.5065   19.3776 H   0  0  0  0  0  0
  -22.8207  -29.1910   19.8281 H   0  0  0  0  0  0
  -25.1309  -36.1807   25.0825 H   0  0  0  0  0  0
  -21.0067  -28.3292   24.1334 H   0  0  0  0  0  0
  -20.5672  -26.2317   23.3629 H   0  0  0  0  0  0
  -21.6667  -26.7373   22.1210 H   0  0  0  0  0  0
  -19.6909  -25.6278   21.1255 H   0  0  0  0  0  0
  -19.6712  -27.3194   20.6758 H   0  0  0  0  0  0
  -17.4219  -26.6709   21.4017 H   0  0  0  0  0  0
  -18.0328  -26.0081   22.9021 H   0  0  0  0  0  0
  -19.7973  -30.7298   24.2269 H   0  0  0  0  0  0
  -17.5040  -31.6284   24.5141 H   0  0  0  0  0  0
  -15.5387  -30.3001   23.7635 H   0  0  0  0  0  0
  -15.8703  -28.0786   22.7150 H   0  0  0  0  0  0
  -24.5910  -30.7030   25.7630 H   0  0  0  0  0  0
  -24.8786  -32.2935   26.4591 H   0  0  0  0  0  0
  -25.7937  -30.9033   27.0192 H   0  0  0  0  0  0
  -26.3034  -29.6632   24.1330 H   0  0  0  0  0  0
  -27.3994  -29.7262   25.4904 H   0  0  0  0  0  0
  -27.8945  -30.4151   23.9664 H   0  0  0  0  0  0
  -27.2721  -33.3687   26.1864 H   0  0  0  0  0  0
  -28.3978  -32.6692   25.0323 H   0  0  0  0  0  0
  -28.0630  -31.8498   26.5465 H   0  0  0  0  0  0
  -28.2604  -38.0055   24.7566 H   0  0  0  0  0  0
  -28.1040  -36.2600   24.6286 H   0  0  0  0  0  0
  -27.2304  -37.1395   25.8894 H   0  0  0  0  0  0
  -20.9517  -29.8720   21.6762 H   0  0  0  0  0  0
  -26.0118  -38.2802   24.1444 H   0  0  0  0  0  0
  -30.8786  -21.9826   19.4921 H   0  0  0  0  0  0
  -27.0939  -21.3446   21.3193 H   0  0  0  0  0  0
  -30.3850  -24.3477   19.3272 H   0  0  0  0  0  0
  -26.6213  -23.7317   21.1724 H   0  0  0  0  0  0
  -30.4122  -17.3240   24.6901 H   0  0  0  0  0  0
  -29.5574  -16.8414   23.2305 H   0  0  0  0  0  0
  -28.7793  -17.8904   24.4206 H   0  0  0  0  0  0
  -30.2775  -18.0796   19.1843 H   0  0  0  0  0  0
  -28.6047  -18.0034   19.5107 H   0  0  0  0  0  0
  -31.7150  -18.1143   21.7016 H   0  0  0  0  0  0
  -32.2253  -17.9471   23.3491 H   0  0  0  0  0  0
  -30.6334  -19.8334   20.7432 H   0  0  0  0  0  0
  -30.3872  -19.6581   23.9943 H   0  0  0  0  0  0
  -32.2624  -20.4593   21.8763 H   0  0  0  0  0  0
  -33.4915  -19.5832   22.4065 H   0  0  0  0  0  0
  -28.7548  -16.1662   20.9170 H   0  0  0  0  0  0
  -28.4077  -19.0077   22.3730 H   0  0  0  0  0  0
  -29.1598  -20.4208   22.5661 H   0  0  0  0  0  0
  1 25  1  0  0  0
  1 30  2  0  0  0
  1 83  1  0  0  0
  2  3  1  0  0  0
  2 25  1  0  0  0
  2 85  1  0  0  0
  2 86  1  0  0  0
  3  4  1  0  0  0
  3 87  1  0  0  0
  3 88  1  0  0  0
  4  5  1  0  0  0
  4 89  1  0  0  0
  4 90  1  0  0  0
  5  6  1  0  0  0
  5 26  1  0  0  0
  5 91  1  0  0  0
  6 25  1  0  0  0
  6 92  1  0  0  0
  6 93  1  0  0  0
  7  8  2  0  0  0
  7 26  1  0  0  0
  7 29  1  0  0  0
  8  9  1  0  0  0
  8 22  1  0  0  0
  9 10  1  0  0  0
  9 27  2  0  0  0
 10 11  2  0  0  0
 10 15  1  0  0  0
 11 12  1  0  0  0
 11 94  1  0  0  0
 12 13  2  0  0  0
 12 95  1  0  0  0
 13 14  1  0  0  0
 13 31  1  0  0  0
 14 15  2  0  0  0
 14 96  1  0  0  0
 15 97  1  0  0  0
 16 17  2  0  0  0
 16 21  1  0  0  0
 16 31  1  0  0  0
 17 18  1  0  0  0
 17 98  1  0  0  0
 18 19  2  0  0  0
 18 99  1  0  0  0
 19 20  1  0  0  0
 19 24  1  0  0  0
 20 21  2  0  0  0
 20100  1  0  0  0
 21 23  1  0  0  0
 22 28  1  0  0  0
 22 32  2  0  0  0
 26 27  1  0  0  0
 28101  1  0  0  0
 28102  1  0  0  0
 29103  1  0  0  0
 29104  1  0  0  0
 33 34  1  0  0  0
 33 66  1  0  0  0
 33 70  2  0  0  0
 34 36  1  0  0  0
 34 59  1  0  0  0
 34105  1  0  0  0
 35 44  2  0  0  0
 35 45  1  0  0  0
 35 68  1  0  0  0
 36 56  1  0  0  0
 36106  1  0  0  0
 37 39  1  0  0  0
 37 47  1  0  0  0
 37 66  1  0  0  0
 37107  1  0  0  0
 38 43  2  0  0  0
 38 46  1  0  0  0
 38 47  1  0  0  0
 39 64  1  0  0  0
 39 67  2  0  0  0
 40 52  1  0  0  0
 40 53  2  0  0  0
 40 58  1  0  0  0
 41108  1  0  0  0
 41109  1  0  0  0
 41110  1  0  0  0
 41 48  1  0  0  0
 42 43  1  0  0  0
 42 66  1  0  0  0
 42111  1  0  0  0
 42112  1  0  0  0
 43 44  1  0  0  0
 44113  1  0  0  0
 45 46  2  0  0  0
 45114  1  0  0  0
 46115  1  0  0  0
 47116  1  0  0  0
 47117  1  0  0  0
 48 56  1  0  0  0
 48 65  1  0  0  0
 48118  1  0  0  0
 49 50  1  0  0  0
 49 53  1  0  0  0
 49 64  1  0  0  0
 49119  1  0  0  0
 50 51  1  0  0  0
 50120  1  0  0  0
 50121  1  0  0  0
 51 52  1  0  0  0
 51122  1  0  0  0
 51123  1  0  0  0
 52124  1  0  0  0
 52125  1  0  0  0
 53 54  1  0  0  0
 54 55  2  0  0  0
 54126  1  0  0  0
 55 57  1  0  0  0
 55127  1  0  0  0
 56 69  2  0  0  0
 57 58  2  0  0  0
 57128  1  0  0  0
 58129  1  0  0  0
 59 60  1  0  0  0
 59 61  1  0  0  0
 59 62  1  0  0  0
 60130  1  0  0  0
 60131  1  0  0  0
 60132  1  0  0  0
 61133  1  0  0  0
 61134  1  0  0  0
 61135  1  0  0  0
 62136  1  0  0  0
 62137  1  0  0  0
 62138  1  0  0  0
 63 65  1  0  0  0
 63139  1  0  0  0
 63140  1  0  0  0
 63141  1  0  0  0
 64142  1  0  0  0
 65143  1  0  0  0
 68 76  1  0  0  0
 71 73  2  0  0  0
 71 75  1  0  0  0
 71144  1  0  0  0
 72 74  1  0  0  0
 72 75  2  0  0  0
 72145  1  0  0  0
 73 76  1  0  0  0
 73146  1  0  0  0
 74 76  2  0  0  0
 74147  1  0  0  0
 75 80  1  0  0  0
 77148  1  0  0  0
 77149  1  0  0  0
 77150  1  0  0  0
 77 81  1  0  0  0
 78 83  1  0  0  0
 78151  1  0  0  0
 78152  1  0  0  0
 78 80  1  0  0  0
 79 81  1  0  0  0
 79 82  1  0  0  0
 79153  1  0  0  0
 79154  1  0  0  0
 80 84  1  0  0  0
 80155  1  0  0  0
 81 84  1  0  0  0
 81156  1  0  0  0
 82157  1  0  0  0
 82158  1  0  0  0
 83159  1  0  0  0
 84160  1  0  0  0
 84161  1  0  0  0
M  CHG  1  84   1
M  ISO  4   1 100  68 101  76 101  83 100
M  END
> <chiral flag>
0

> <version>
0

> <s_m_source_file>
/data/baiqing/PycharmProjects/Reinvent-master-3.2/result/LINK_invent/BTK/process_docking_weight1_custom_sum_contain_oxygen_bond_distance_aromatic_linkinvent_7_9_3/rearranged_h_0130.sdf

> <i_m_source_file_index>
78

> <r_mmod_Potential_Energy-OPLS-2005>
872.932250976562

> <r_mmod_Stretch_Energy-OPLS-2005>
464.152069091797

> <r_mmod_Bend_Energy-OPLS-2005>
463.271026611328

> <r_mmod_Torsional_Energy-OPLS-2005>
260.134613037109

> <r_mmod_Improper_Torsional_Energy-OPLS-2005>
8.32629680633545

> <r_mmod_Van_der_Waal_Energy-OPLS-2005>
123.802459716797

> <r_mmod_Electrostatic_Energy-OPLS-2005>
-335.8828125

> <r_mmod_Solvation_Energy-OPLS-2005>
-490.891906738281

> <b_mmod_Minimization_Converged-OPLS-2005>
0

> <r_mmod_RMS_Derivative-OPLS-2005>
3.32188773155212

$$$$
78
                    3D
 Structure written by MMmdl.
170179  0  0  1  0            999 V2000
  -29.7593  -16.9854   20.2836 C   0  0  0  0  0  0
  -30.2259  -14.1253   19.5047 C   0  0  0  0  0  0
  -29.5478  -13.1414   18.4387 C   0  0  0  0  0  0
  -28.3117  -12.4447   18.9976 C   0  0  0  0  0  0
  -27.5625  -13.4940   19.8201 C   0  0  2  0  0  0
  -28.4508  -14.3665   20.8166 C   0  0  0  0  0  0
  -25.2001  -13.8569   20.6030 C   0  0  0  0  0  0
  -24.1608  -13.0422   20.9388 C   0  0  0  0  0  0
  -24.6595  -11.7031   20.8690 C   0  0  0  0  0  0
  -23.9306  -10.4285   21.0258 C   0  0  0  0  0  0
  -24.3738   -9.4195   21.9106 C   0  0  0  0  0  0
  -23.6355   -8.2250   22.0709 C   0  0  0  0  0  0
  -22.4339   -8.0282   21.3509 C   0  0  0  0  0  0
  -22.0033   -9.0254   20.4587 C   0  0  0  0  0  0
  -22.7417  -10.2112   20.2959 C   0  0  0  0  0  0
  -21.6871   -6.0737   22.5286 C   0  0  0  0  0  0
  -21.4015   -6.5627   23.8222 C   0  0  0  0  0  0
  -21.3686   -5.6783   24.9196 C   0  0  0  0  0  0
  -21.6072   -4.3044   24.7249 C   0  0  0  0  0  0
  -21.8785   -3.8126   23.4364 C   0  0  0  0  0  0
  -21.9176   -4.6950   22.3418 C   0  0  0  0  0  0
  -22.7552  -13.4941   21.1991 C   0  0  0  0  0  0
  -22.1629   -4.2125   21.0994 F   0  0  0  0  0  0
  -21.5656   -3.4533   25.7761 F   0  0  0  0  0  0
  -29.3669  -15.3950   20.0799 N   0  0  0  0  0  0
  -26.2791  -13.0346   20.3580 N   0  0  0  0  0  0
  -25.9625  -11.7159   20.5606 N   0  0  0  0  0  0
  -22.0309  -12.7870   22.0566 N   0  0  0  0  0  0
  -25.3125  -15.2340   20.4420 N   0  0  0  0  0  0
  -30.9969  -16.6540   20.3823 O   0  0  0  0  0  0
  -21.6646   -6.8907   21.4253 O   0  0  0  0  0  0
  -22.3143  -14.5239   20.6899 O   0  0  0  0  0  0
  -24.7685  -31.6929   23.0856 C   0  0  0  0  0  0
  -25.9811  -32.3957   23.7740 C   0  0  1  0  0  0
  -27.2649  -25.8140   20.2759 C   0  0  0  0  0  0
  -25.5999  -33.7832   24.1483 N   0  0  0  0  0  0
  -23.6241  -30.2555   21.4644 C   0  0  2  0  0  0
  -25.0824  -28.4041   20.1497 C   0  0  0  0  0  0
  -22.8098  -29.3772   22.4571 C   0  0  0  0  0  0
  -18.0385  -28.1481   22.8423 C   0  0  0  0  0  0
  -24.1462  -36.6879   23.2689 C   0  0  0  0  0  0
  -26.2269  -30.1278   21.4882 C   0  0  0  0  0  0
  -26.2787  -28.5909   20.8487 C   0  0  0  0  0  0
  -27.3071  -27.3644   20.8551 C   0  0  0  0  0  0
  -26.0401  -26.0679   19.5075 C   0  0  0  0  0  0
  -25.0551  -27.1665   19.4548 C   0  0  0  0  0  0
  -23.9185  -29.4699   20.1368 C   0  0  0  0  0  0
  -25.4158  -36.2589   24.0241 C   0  0  1  0  0  0
  -20.6049  -28.3853   23.1017 C   0  0  2  0  0  0
  -20.6814  -26.9447   22.5454 C   0  0  0  0  0  0
  -19.5809  -26.6340   21.5248 C   0  0  0  0  0  0
  -18.1977  -26.7988   22.1613 C   0  0  0  0  0  0
  -19.1673  -28.9018   23.2655 C   0  0  0  0  0  0
  -18.9568  -30.1583   23.8725 C   0  0  0  0  0  0
  -17.6551  -30.6652   24.0528 C   0  0  0  0  0  0
  -25.9206  -34.8999   23.4787 C   0  0  0  0  0  0
  -16.5432  -29.9113   23.6394 C   0  0  0  0  0  0
  -16.7355  -28.6544   23.0391 C   0  0  0  0  0  0
  -26.4732  -31.6399   25.0722 C   0  0  0  0  0  0
  -25.3560  -31.3911   26.1150 C   0  0  0  0  0  0
  -27.0826  -30.2663   24.7305 C   0  0  0  0  0  0
  -27.6028  -32.4526   25.7506 C   0  0  0  0  0  0
  -27.5536  -37.1589   24.8488 C   0  0  0  0  0  0
  -21.4703  -29.2886   22.3242 N   0  0  0  0  0  0
  -26.4222  -37.3465   23.9436 N   0  0  0  0  0  0
  -24.9073  -30.7473   22.0627 N   0  0  0  0  0  0
  -23.4122  -28.7600   23.3366 O   0  0  0  0  0  0
  -28.1827  -24.2333   20.2504 O   0  0  0  0  0  0
  -26.6028  -34.8757   22.4521 O   0  0  0  0  0  0
  -23.6530  -32.0422   23.5242 O   0  0  0  0  0  0
  -30.7209  -20.0580   21.1779 C   0  0  0  0  0  0
  -29.9566  -21.3438   20.1188 C   0  0  0  0  0  0
  -29.5523  -19.1270   22.3663 C   0  0  0  0  0  0
  -27.8037  -19.6782   21.8971 C   0  0  0  0  0  0
  -28.4550  -22.2883   20.2641 C   0  0  0  0  0  0
  -24.5413  -20.1950   21.4573 C   0  0  0  0  0  0
  -25.3946  -20.8099   23.7556 C   0  0  0  0  0  0
  -23.1321  -20.7016   21.8741 C   0  0  0  0  0  0
  -23.9594  -21.2316   24.1532 C   0  0  0  0  0  0
  -25.3519  -19.6992   22.6901 C   0  0  0  0  0  0
  -29.9838  -18.6704   23.7129 C   0  0  0  0  0  0
  -29.2878  -21.2941   22.3343 C   0  0  0  0  0  0
  -29.5054  -21.0667   23.9337 C   0  0  0  0  0  0
  -27.5116  -21.0186   20.8487 N   0  0  0  0  0  0
  -26.6665  -19.0628   22.4536 N   0  0  0  0  0  0
  -29.1229  -18.7733   20.2553 N   0  0  0  0  0  0
  -23.1834  -21.6891   22.9812 N   0  3  0  0  0  0
  -30.4196  -19.9453   24.3040 N   0  3  0  0  0  0
  -31.0988  -14.5398   19.0036 H   0  0  0  0  0  0
  -30.6776  -13.5517   20.3195 H   0  0  0  0  0  0
  -30.2677  -12.4161   18.0634 H   0  0  0  0  0  0
  -29.2323  -13.7380   17.5812 H   0  0  0  0  0  0
  -28.6272  -11.6445   19.6684 H   0  0  0  0  0  0
  -27.6963  -12.0022   18.2134 H   0  0  0  0  0  0
  -27.2590  -14.2054   19.0503 H   0  0  0  0  0  0
  -28.9725  -13.7449   21.5471 H   0  0  0  0  0  0
  -27.7868  -14.9801   21.4223 H   0  0  0  0  0  0
  -25.2873   -9.5655   22.4718 H   0  0  0  0  0  0
  -24.0020   -7.4651   22.7470 H   0  0  0  0  0  0
  -21.0950   -8.8786   19.8901 H   0  0  0  0  0  0
  -22.3861  -10.9618   19.6045 H   0  0  0  0  0  0
  -21.1984   -7.6129   23.9731 H   0  0  0  0  0  0
  -21.1572   -6.0517   25.9113 H   0  0  0  0  0  0
  -22.0545   -2.7583   23.2886 H   0  0  0  0  0  0
  -22.3978  -11.9586   22.5009 H   0  0  0  0  0  0
  -21.0859  -13.0742   22.2679 H   0  0  0  0  0  0
  -24.5205  -15.8560   20.5583 H   0  0  0  0  0  0
  -26.1493  -15.7121   20.1364 H   0  0  0  0  0  0
  -26.8035  -32.4313   23.0585 H   0  0  0  0  0  0
  -24.9815  -33.8750   24.9407 H   0  0  0  0  0  0
  -22.9999  -31.1112   21.2105 H   0  0  0  0  0  0
  -23.3821  -35.9123   23.3269 H   0  0  0  0  0  0
  -24.3474  -36.8686   22.2127 H   0  0  0  0  0  0
  -23.7144  -37.5955   23.6910 H   0  0  0  0  0  0
  -26.5327  -30.8075   20.6895 H   0  0  0  0  0  0
  -27.0373  -30.1993   22.1973 H   0  0  0  0  0  0
  -28.2020  -27.5714   21.4256 H   0  0  0  0  0  0
  -25.7492  -25.2173   18.8997 H   0  0  0  0  0  0
  -24.1902  -26.9881   18.8317 H   0  0  0  0  0  0
  -24.1455  -30.1985   19.3563 H   0  0  0  0  0  0
  -23.0000  -28.9827   19.8058 H   0  0  0  0  0  0
  -25.1418  -36.1253   25.0748 H   0  0  0  0  0  0
  -21.0056  -28.3545   24.1160 H   0  0  0  0  0  0
  -20.5608  -26.2508   23.3788 H   0  0  0  0  0  0
  -21.6672  -26.7278   22.1303 H   0  0  0  0  0  0
  -19.6945  -25.6194   21.1397 H   0  0  0  0  0  0
  -19.6787  -27.3058   20.6699 H   0  0  0  0  0  0
  -17.4258  -26.6737   21.3995 H   0  0  0  0  0  0
  -18.0311  -26.0174   22.9045 H   0  0  0  0  0  0
  -19.8053  -30.7446   24.1996 H   0  0  0  0  0  0
  -17.5115  -31.6318   24.5167 H   0  0  0  0  0  0
  -15.5437  -30.2971   23.7830 H   0  0  0  0  0  0
  -15.8739  -28.0818   22.7196 H   0  0  0  0  0  0
  -24.5796  -30.7270   25.7336 H   0  0  0  0  0  0
  -24.8694  -32.3173   26.4216 H   0  0  0  0  0  0
  -25.7475  -30.9230   27.0184 H   0  0  0  0  0  0
  -26.3672  -29.5904   24.2617 H   0  0  0  0  0  0
  -27.4158  -29.7618   25.6384 H   0  0  0  0  0  0
  -27.9687  -30.3579   24.1024 H   0  0  0  0  0  0
  -27.2468  -33.3997   26.1586 H   0  0  0  0  0  0
  -28.3996  -32.6855   25.0423 H   0  0  0  0  0  0
  -28.0565  -31.9062   26.5789 H   0  0  0  0  0  0
  -28.2496  -37.9930   24.7552 H   0  0  0  0  0  0
  -28.1080  -36.2454   24.6301 H   0  0  0  0  0  0
  -27.2257  -37.1187   25.8887 H   0  0  0  0  0  0
  -21.0243  -29.8293   21.5967 H   0  0  0  0  0  0
  -25.9982  -38.2487   24.1472 H   0  0  0  0  0  0
  -31.7914  -19.9339   21.2182 H   0  0  0  0  0  0
  -30.7207  -21.8937   19.5824 H   0  0  0  0  0  0
  -25.0403  -21.0117   20.9348 H   0  0  0  0  0  0
  -24.4160  -19.3917   20.7320 H   0  0  0  0  0  0
  -25.9137  -20.4561   24.6469 H   0  0  0  0  0  0
  -25.9566  -21.6761   23.3937 H   0  0  0  0  0  0
  -22.5165  -19.8572   22.1845 H   0  0  0  0  0  0
  -22.6232  -21.1594   21.0232 H   0  0  0  0  0  0
  -23.9843  -22.0260   24.9001 H   0  0  0  0  0  0
  -23.4338  -20.3990   24.6298 H   0  0  0  0  0  0
  -24.7552  -18.8918   23.1170 H   0  0  0  0  0  0
  -30.7667  -17.9152   23.6665 H   0  0  0  0  0  0
  -29.1227  -18.2860   24.2570 H   0  0  0  0  0  0
  -30.1020  -22.0433   22.2507 H   0  0  0  0  0  0
  -28.4687  -21.9852   22.5856 H   0  0  0  0  0  0
  -28.5469  -20.8294   24.4108 H   0  0  0  0  0  0
  -29.8402  -21.9875   24.4248 H   0  0  0  0  0  0
  -26.8283  -18.2229   22.9989 H   0  0  0  0  0  0
  -28.2419  -18.8160   19.7605 H   0  0  0  0  0  0
  -22.2398  -21.8761   23.2909 H   0  0  0  0  0  0
  -23.5593  -22.5603   22.6420 H   0  0  0  0  0  0
  -31.3480  -20.1511   23.9708 H   0  0  0  0  0  0
  -30.4948  -19.8477   25.3072 H   0  0  0  0  0  0
  1 25  1  0  0  0
  1 30  2  0  0  0
  1 86  1  0  0  0
  2  3  1  0  0  0
  2 25  1  0  0  0
  2 89  1  0  0  0
  2 90  1  0  0  0
  3  4  1  0  0  0
  3 91  1  0  0  0
  3 92  1  0  0  0
  4  5  1  0  0  0
  4 93  1  0  0  0
  4 94  1  0  0  0
  5  6  1  0  0  0
  5 26  1  0  0  0
  5 95  1  0  0  0
  6 25  1  0  0  0
  6 96  1  0  0  0
  6 97  1  0  0  0
  7  8  2  0  0  0
  7 26  1  0  0  0
  7 29  1  0  0  0
  8  9  1  0  0  0
  8 22  1  0  0  0
  9 10  1  0  0  0
  9 27  2  0  0  0
 10 11  2  0  0  0
 10 15  1  0  0  0
 11 12  1  0  0  0
 11 98  1  0  0  0
 12 13  2  0  0  0
 12 99  1  0  0  0
 13 14  1  0  0  0
 13 31  1  0  0  0
 14 15  2  0  0  0
 14100  1  0  0  0
 15101  1  0  0  0
 16 17  2  0  0  0
 16 21  1  0  0  0
 16 31  1  0  0  0
 17 18  1  0  0  0
 17102  1  0  0  0
 18 19  2  0  0  0
 18103  1  0  0  0
 19 20  1  0  0  0
 19 24  1  0  0  0
 20 21  2  0  0  0
 20104  1  0  0  0
 21 23  1  0  0  0
 22 28  1  0  0  0
 22 32  2  0  0  0
 26 27  1  0  0  0
 28105  1  0  0  0
 28106  1  0  0  0
 29107  1  0  0  0
 29108  1  0  0  0
 33 34  1  0  0  0
 33 66  1  0  0  0
 33 70  2  0  0  0
 34 36  1  0  0  0
 34 59  1  0  0  0
 34109  1  0  0  0
 35 44  2  0  0  0
 35 45  1  0  0  0
 35 68  1  0  0  0
 36 56  1  0  0  0
 36110  1  0  0  0
 37 39  1  0  0  0
 37 47  1  0  0  0
 37 66  1  0  0  0
 37111  1  0  0  0
 38 43  2  0  0  0
 38 46  1  0  0  0
 38 47  1  0  0  0
 39 64  1  0  0  0
 39 67  2  0  0  0
 40 52  1  0  0  0
 40 53  2  0  0  0
 40 58  1  0  0  0
 41112  1  0  0  0
 41113  1  0  0  0
 41114  1  0  0  0
 41 48  1  0  0  0
 42 43  1  0  0  0
 42 66  1  0  0  0
 42115  1  0  0  0
 42116  1  0  0  0
 43 44  1  0  0  0
 44117  1  0  0  0
 45 46  2  0  0  0
 45118  1  0  0  0
 46119  1  0  0  0
 47120  1  0  0  0
 47121  1  0  0  0
 48 56  1  0  0  0
 48 65  1  0  0  0
 48122  1  0  0  0
 49 50  1  0  0  0
 49 53  1  0  0  0
 49 64  1  0  0  0
 49123  1  0  0  0
 50 51  1  0  0  0
 50124  1  0  0  0
 50125  1  0  0  0
 51 52  1  0  0  0
 51126  1  0  0  0
 51127  1  0  0  0
 52128  1  0  0  0
 52129  1  0  0  0
 53 54  1  0  0  0
 54 55  2  0  0  0
 54130  1  0  0  0
 55 57  1  0  0  0
 55131  1  0  0  0
 56 69  2  0  0  0
 57 58  2  0  0  0
 57132  1  0  0  0
 58133  1  0  0  0
 59 60  1  0  0  0
 59 61  1  0  0  0
 59 62  1  0  0  0
 60134  1  0  0  0
 60135  1  0  0  0
 60136  1  0  0  0
 61137  1  0  0  0
 61138  1  0  0  0
 61139  1  0  0  0
 62140  1  0  0  0
 62141  1  0  0  0
 62142  1  0  0  0
 63 65  1  0  0  0
 63143  1  0  0  0
 63144  1  0  0  0
 63145  1  0  0  0
 64146  1  0  0  0
 65147  1  0  0  0
 68 75  1  0  0  0
 71 72  2  0  0  0
 71 73  1  0  0  0
 71148  1  0  0  0
 72 75  1  0  0  0
 72149  1  0  0  0
 73 74  2  0  0  0
 73 81  1  0  0  0
 74 84  1  0  0  0
 74 85  1  0  0  0
 75 84  2  0  0  0
 76 78  1  0  0  0
 76 80  1  0  0  0
 76150  1  0  0  0
 76151  1  0  0  0
 77 79  1  0  0  0
 77 80  1  0  0  0
 77152  1  0  0  0
 77153  1  0  0  0
 78 87  1  0  0  0
 78154  1  0  0  0
 78155  1  0  0  0
 79 87  1  0  0  0
 79156  1  0  0  0
 79157  1  0  0  0
 80 85  1  0  0  0
 80158  1  0  0  0
 81 88  1  0  0  0
 81159  1  0  0  0
 81160  1  0  0  0
 82 83  1  0  0  0
 82 86  1  0  0  0
 82161  1  0  0  0
 82162  1  0  0  0
 83 88  1  0  0  0
 83163  1  0  0  0
 83164  1  0  0  0
 85165  1  0  0  0
 86166  1  0  0  0
 87167  1  0  0  0
 87168  1  0  0  0
 88169  1  0  0  0
 88170  1  0  0  0
M  CHG  2  87   1  88   1
M  ISO  4   1 100  68 101  75 101  86 100
M  END
> <chiral flag>
0

> <version>
0

> <s_m_source_file>
/data/baiqing/PycharmProjects/Reinvent-master-3.2/result/LINK_invent/BTK/process_docking_weight1_custom_sum_contain_oxygen_bond_distance_aromatic_linkinvent_7_9_3/rearranged_h_0130.sdf

> <i_m_source_file_index>
79

> <r_mmod_Potential_Energy-OPLS-2005>
15981.908203125

> <r_mmod_Stretch_Energy-OPLS-2005>
9233.1943359375

> <r_mmod_Bend_Energy-OPLS-2005>
1168.96105957031

> <r_mmod_Torsional_Energy-OPLS-2005>
434.093780517578

> <r_mmod_Improper_Torsional_Energy-OPLS-2005>
24.0901374816895

> <r_mmod_Van_der_Waal_Energy-OPLS-2005>
2254.84594726562

> <r_mmod_Electrostatic_Energy-OPLS-2005>
-166.640533447266

> <r_mmod_Solvation_Energy-OPLS-2005>
-945.103454589844

> <b_mmod_Minimization_Converged-OPLS-2005>
0

> <r_mmod_RMS_Derivative-OPLS-2005>
11.5177659988403

$$$$
79
                    3D
 Structure written by MMmdl.
147155  0  0  1  0            999 V2000
  -30.4751  -15.1823   20.3805 C   0  0  0  0  0  0
  -30.4354  -12.7503   19.5208 C   0  0  0  0  0  0
  -29.5293  -12.5597   18.2802 C   0  0  0  0  0  0
  -28.0737  -12.3019   18.7063 C   0  0  0  0  0  0
  -27.6140  -13.2691   19.8262 C   0  0  2  0  0  0
  -28.6501  -13.4142   20.9608 C   0  0  0  0  0  0
  -25.2396  -13.8243   20.5741 C   0  0  0  0  0  0
  -24.1743  -13.0438   20.9256 C   0  0  0  0  0  0
  -24.6391  -11.6934   20.8765 C   0  0  0  0  0  0
  -23.9084  -10.4293   21.0410 C   0  0  0  0  0  0
  -24.3633   -9.4206   21.9185 C   0  0  0  0  0  0
  -23.6307   -8.2242   22.0750 C   0  0  0  0  0  0
  -22.4286   -8.0281   21.3544 C   0  0  0  0  0  0
  -21.9928   -9.0255   20.4643 C   0  0  0  0  0  0
  -22.7259  -10.2134   20.3055 C   0  0  0  0  0  0
  -21.6855   -6.0739   22.5281 C   0  0  0  0  0  0
  -21.4015   -6.5642   23.8214 C   0  0  0  0  0  0
  -21.3659   -5.6794   24.9175 C   0  0  0  0  0  0
  -21.6045   -4.3055   24.7226 C   0  0  0  0  0  0
  -21.8819   -3.8149   23.4346 C   0  0  0  0  0  0
  -21.9196   -4.6968   22.3404 C   0  0  0  0  0  0
  -22.7761  -13.5192   21.1912 C   0  0  0  0  0  0
  -22.1663   -4.2153   21.0981 F   0  0  0  0  0  0
  -21.5631   -3.4538   25.7738 F   0  0  0  0  0  0
  -29.8927  -13.8922   20.3375 N   0  0  0  0  0  0
  -26.2822  -12.9509   20.3229 N   0  0  0  0  0  0
  -25.9325  -11.6618   20.5732 N   0  0  0  0  0  0
  -22.0426  -12.8163   22.0464 N   0  0  0  0  0  0
  -25.4030  -15.1977   20.4173 N   0  0  0  0  0  0
  -31.6935  -15.1828   20.1597 O   0  0  0  0  0  0
  -21.6644   -6.8882   21.4241 O   0  0  0  0  0  0
  -22.3438  -14.5497   20.6759 O   0  0  0  0  0  0
  -24.6588  -31.8286   23.1761 C   0  0  0  0  0  0
  -25.9293  -32.4618   23.8201 C   0  0  1  0  0  0
  -27.2114  -26.9740   20.1745 C   0  0  0  0  0  0
  -25.5981  -33.8429   24.2108 N   0  0  0  0  0  0
  -23.4707  -30.4443   21.5237 C   0  0  2  0  0  0
  -24.9232  -28.8455   20.1093 C   0  0  0  0  0  0
  -22.7642  -29.4472   22.4790 C   0  0  0  0  0  0
  -18.0320  -28.1410   22.8475 C   0  0  0  0  0  0
  -24.1486  -36.7203   23.2645 C   0  0  0  0  0  0
  -26.0381  -30.6502   21.4006 C   0  0  0  0  0  0
  -26.1063  -29.2463   20.7427 C   0  0  0  0  0  0
  -27.2474  -28.3300   20.7549 C   0  0  0  0  0  0
  -26.0015  -26.7223   19.4877 C   0  0  0  0  0  0
  -24.8939  -27.6023   19.4623 C   0  0  0  0  0  0
  -23.7077  -29.7672   20.1472 C   0  0  0  0  0  0
  -25.4125  -36.2979   24.0306 C   0  0  1  0  0  0
  -20.5944  -28.3749   23.1193 C   0  0  2  0  0  0
  -20.6796  -26.9435   22.5401 C   0  0  0  0  0  0
  -19.5767  -26.6385   21.5213 C   0  0  0  0  0  0
  -18.1950  -26.7945   22.1627 C   0  0  0  0  0  0
  -19.1582  -28.8900   23.2826 C   0  0  0  0  0  0
  -18.9495  -30.1489   23.8861 C   0  0  0  0  0  0
  -17.6490  -30.6605   24.0555 C   0  0  0  0  0  0
  -25.9093  -34.9366   23.5024 C   0  0  0  0  0  0
  -16.5377  -29.9094   23.6348 C   0  0  0  0  0  0
  -16.7304  -28.6512   23.0375 C   0  0  0  0  0  0
  -26.4558  -31.6552   25.0712 C   0  0  0  0  0  0
  -25.3702  -31.3799   26.1381 C   0  0  0  0  0  0
  -27.0443  -30.2921   24.6420 C   0  0  0  0  0  0
  -27.6054  -32.4355   25.7514 C   0  0  0  0  0  0
  -27.5563  -37.1755   24.8468 C   0  0  0  0  0  0
  -21.4319  -29.3048   22.3543 N   0  0  0  0  0  0
  -26.4267  -37.3717   23.9420 N   0  0  0  0  0  0
  -24.7433  -30.9997   22.0872 N   0  0  0  0  0  0
  -23.4214  -28.8031   23.3007 O   0  0  0  0  0  0
  -28.1962  -25.8671   20.2637 O   0  0  0  0  0  0
  -26.5687  -34.8895   22.4609 O   0  0  0  0  0  0
  -23.5671  -32.1232   23.6885 O   0  0  0  0  0  0
  -28.2774  -20.1783   20.9076 C   0  0  0  0  0  0
  -30.1456  -20.7584   19.6963 C   0  0  0  0  0  0
  -27.8545  -21.6057   20.8710 C   0  0  0  0  0  0
  -29.7223  -22.1796   19.6571 C   0  0  0  0  0  0
  -29.4725  -19.6132   20.3050 C   0  0  0  0  0  0
  -28.5298  -22.7500   20.2537 C   0  0  0  0  0  0
  -30.1825  -18.0265   20.3361 C   0  0  0  0  0  0
  -27.8040  -24.3101   20.0193 C   0  0  0  0  0  0
  -29.7353  -16.4509   20.4631 N   0  0  0  0  0  0
  -31.4594  -12.9371   19.1947 H   0  0  0  0  0  0
  -30.4796  -11.8355   20.1142 H   0  0  0  0  0  0
  -29.8932  -11.7354   17.6652 H   0  0  0  0  0  0
  -29.5747  -13.4531   17.6556 H   0  0  0  0  0  0
  -28.0144  -11.2735   19.0644 H   0  0  0  0  0  0
  -27.4061  -12.3652   17.8463 H   0  0  0  0  0  0
  -27.5393  -14.2436   19.3423 H   0  0  0  0  0  0
  -28.7973  -12.4727   21.4919 H   0  0  0  0  0  0
  -28.3051  -14.1392   21.6999 H   0  0  0  0  0  0
  -25.2775   -9.5686   22.4766 H   0  0  0  0  0  0
  -24.0018   -7.4629   22.7465 H   0  0  0  0  0  0
  -21.0861   -8.8777   19.8943 H   0  0  0  0  0  0
  -22.3716  -10.9677   19.6168 H   0  0  0  0  0  0
  -21.2001   -7.6149   23.9719 H   0  0  0  0  0  0
  -21.1482   -6.0522   25.9080 H   0  0  0  0  0  0
  -22.0598   -2.7611   23.2844 H   0  0  0  0  0  0
  -22.4066  -11.9826   22.4836 H   0  0  0  0  0  0
  -21.1039  -13.1162   22.2684 H   0  0  0  0  0  0
  -24.6307  -15.8462   20.5268 H   0  0  0  0  0  0
  -26.2426  -15.6401   20.0678 H   0  0  0  0  0  0
  -26.7360  -32.5170   23.0915 H   0  0  0  0  0  0
  -25.0108  -33.9519   25.0247 H   0  0  0  0  0  0
  -22.7817  -31.2753   21.3586 H   0  0  0  0  0  0
  -23.3765  -35.9516   23.3288 H   0  0  0  0  0  0
  -24.3561  -36.8862   22.2063 H   0  0  0  0  0  0
  -23.7225  -37.6381   23.6704 H   0  0  0  0  0  0
  -26.2147  -31.3959   20.6243 H   0  0  0  0  0  0
  -26.8998  -30.7033   22.0539 H   0  0  0  0  0  0
  -28.1398  -28.6311   21.2848 H   0  0  0  0  0  0
  -25.8646  -25.7763   18.9864 H   0  0  0  0  0  0
  -23.9957  -27.2900   18.9472 H   0  0  0  0  0  0
  -23.8604  -30.5388   19.3918 H   0  0  0  0  0  0
  -22.8182  -29.2207   19.8291 H   0  0  0  0  0  0
  -25.1322  -36.1770   25.0795 H   0  0  0  0  0  0
  -21.0038  -28.3354   24.1314 H   0  0  0  0  0  0
  -20.5671  -26.2370   23.3639 H   0  0  0  0  0  0
  -21.6659  -26.7417   22.1202 H   0  0  0  0  0  0
  -19.6920  -25.6286   21.1269 H   0  0  0  0  0  0
  -19.6698  -27.3172   20.6723 H   0  0  0  0  0  0
  -17.4213  -26.6691   21.4036 H   0  0  0  0  0  0
  -18.0346  -26.0100   22.9037 H   0  0  0  0  0  0
  -19.7970  -30.7314   24.2214 H   0  0  0  0  0  0
  -17.5045  -31.6283   24.5161 H   0  0  0  0  0  0
  -15.5376  -30.2985   23.7697 H   0  0  0  0  0  0
  -15.8703  -28.0812   22.7124 H   0  0  0  0  0  0
  -24.5887  -30.7140   25.7706 H   0  0  0  0  0  0
  -24.8887  -32.3001   26.4697 H   0  0  0  0  0  0
  -25.7949  -30.9045   27.0232 H   0  0  0  0  0  0
  -26.3101  -29.6613   24.1393 H   0  0  0  0  0  0
  -27.3950  -29.7270   25.5066 H   0  0  0  0  0  0
  -27.9059  -30.4114   23.9849 H   0  0  0  0  0  0
  -27.2623  -33.3701   26.1969 H   0  0  0  0  0  0
  -28.3933  -32.6842   25.0392 H   0  0  0  0  0  0
  -28.0644  -31.8559   26.5535 H   0  0  0  0  0  0
  -28.2564  -38.0066   24.7527 H   0  0  0  0  0  0
  -28.1075  -36.2596   24.6281 H   0  0  0  0  0  0
  -27.2284  -37.1386   25.8872 H   0  0  0  0  0  0
  -20.9555  -29.8749   21.6692 H   0  0  0  0  0  0
  -26.0113  -38.2769   24.1454 H   0  0  0  0  0  0
  -27.6291  -19.4927   21.4361 H   0  0  0  0  0  0
  -31.0814  -20.5404   19.1999 H   0  0  0  0  0  0
  -26.9033  -21.8209   21.3381 H   0  0  0  0  0  0
  -30.3513  -22.8578   19.0974 H   0  0  0  0  0  0
  -30.9305  -18.1209   21.1241 H   0  0  0  0  0  0
  -30.7794  -18.0194   19.4234 H   0  0  0  0  0  0
  -26.8452  -24.2068   20.5276 H   0  0  0  0  0  0
  -27.5507  -24.2802   18.9596 H   0  0  0  0  0  0
  -28.7435  -16.3219   20.5965 H   0  0  0  0  0  0
  1 25  1  0  0  0
  1 30  2  0  0  0
  1 79  1  0  0  0
  2  3  1  0  0  0
  2 25  1  0  0  0
  2 80  1  0  0  0
  2 81  1  0  0  0
  3  4  1  0  0  0
  3 82  1  0  0  0
  3 83  1  0  0  0
  4  5  1  0  0  0
  4 84  1  0  0  0
  4 85  1  0  0  0
  5  6  1  0  0  0
  5 26  1  0  0  0
  5 86  1  0  0  0
  6 25  1  0  0  0
  6 87  1  0  0  0
  6 88  1  0  0  0
  7  8  2  0  0  0
  7 26  1  0  0  0
  7 29  1  0  0  0
  8  9  1  0  0  0
  8 22  1  0  0  0
  9 10  1  0  0  0
  9 27  2  0  0  0
 10 11  2  0  0  0
 10 15  1  0  0  0
 11 12  1  0  0  0
 11 89  1  0  0  0
 12 13  2  0  0  0
 12 90  1  0  0  0
 13 14  1  0  0  0
 13 31  1  0  0  0
 14 15  2  0  0  0
 14 91  1  0  0  0
 15 92  1  0  0  0
 16 17  2  0  0  0
 16 21  1  0  0  0
 16 31  1  0  0  0
 17 18  1  0  0  0
 17 93  1  0  0  0
 18 19  2  0  0  0
 18 94  1  0  0  0
 19 20  1  0  0  0
 19 24  1  0  0  0
 20 21  2  0  0  0
 20 95  1  0  0  0
 21 23  1  0  0  0
 22 28  1  0  0  0
 22 32  2  0  0  0
 26 27  1  0  0  0
 28 96  1  0  0  0
 28 97  1  0  0  0
 29 98  1  0  0  0
 29 99  1  0  0  0
 33 34  1  0  0  0
 33 66  1  0  0  0
 33 70  2  0  0  0
 34 36  1  0  0  0
 34 59  1  0  0  0
 34100  1  0  0  0
 35 44  2  0  0  0
 35 45  1  0  0  0
 35 68  1  0  0  0
 36 56  1  0  0  0
 36101  1  0  0  0
 37 39  1  0  0  0
 37 47  1  0  0  0
 37 66  1  0  0  0
 37102  1  0  0  0
 38 43  2  0  0  0
 38 46  1  0  0  0
 38 47  1  0  0  0
 39 64  1  0  0  0
 39 67  2  0  0  0
 40 52  1  0  0  0
 40 53  2  0  0  0
 40 58  1  0  0  0
 41103  1  0  0  0
 41104  1  0  0  0
 41105  1  0  0  0
 41 48  1  0  0  0
 42 43  1  0  0  0
 42 66  1  0  0  0
 42106  1  0  0  0
 42107  1  0  0  0
 43 44  1  0  0  0
 44108  1  0  0  0
 45 46  2  0  0  0
 45109  1  0  0  0
 46110  1  0  0  0
 47111  1  0  0  0
 47112  1  0  0  0
 48 56  1  0  0  0
 48 65  1  0  0  0
 48113  1  0  0  0
 49 50  1  0  0  0
 49 53  1  0  0  0
 49 64  1  0  0  0
 49114  1  0  0  0
 50 51  1  0  0  0
 50115  1  0  0  0
 50116  1  0  0  0
 51 52  1  0  0  0
 51117  1  0  0  0
 51118  1  0  0  0
 52119  1  0  0  0
 52120  1  0  0  0
 53 54  1  0  0  0
 54 55  2  0  0  0
 54121  1  0  0  0
 55 57  1  0  0  0
 55122  1  0  0  0
 56 69  2  0  0  0
 57 58  2  0  0  0
 57123  1  0  0  0
 58124  1  0  0  0
 59 60  1  0  0  0
 59 61  1  0  0  0
 59 62  1  0  0  0
 60125  1  0  0  0
 60126  1  0  0  0
 60127  1  0  0  0
 61128  1  0  0  0
 61129  1  0  0  0
 61130  1  0  0  0
 62131  1  0  0  0
 62132  1  0  0  0
 62133  1  0  0  0
 63 65  1  0  0  0
 63134  1  0  0  0
 63135  1  0  0  0
 63136  1  0  0  0
 64137  1  0  0  0
 65138  1  0  0  0
 68 78  1  0  0  0
 71 73  2  0  0  0
 71 75  1  0  0  0
 71139  1  0  0  0
 72 74  1  0  0  0
 72 75  2  0  0  0
 72140  1  0  0  0
 73 76  1  0  0  0
 73141  1  0  0  0
 74 76  2  0  0  0
 74142  1  0  0  0
 75 77  1  0  0  0
 76 78  1  0  0  0
 77 79  1  0  0  0
 77143  1  0  0  0
 77144  1  0  0  0
 78145  1  0  0  0
 78146  1  0  0  0
 79147  1  0  0  0
M  ISO  4   1 100  68 101  78 101  79 100
M  END
> <chiral flag>
0

> <version>
0

> <s_m_source_file>
/data/baiqing/PycharmProjects/Reinvent-master-3.2/result/LINK_invent/BTK/process_docking_weight1_custom_sum_contain_oxygen_bond_distance_aromatic_linkinvent_7_9_3/rearranged_h_0130.sdf

> <i_m_source_file_index>
80

> <r_mmod_Potential_Energy-OPLS-2005>
1015.4599609375

> <r_mmod_Stretch_Energy-OPLS-2005>
443.456787109375

> <r_mmod_Bend_Energy-OPLS-2005>
422.297058105469

> <r_mmod_Torsional_Energy-OPLS-2005>
215.021911621094

> <r_mmod_Improper_Torsional_Energy-OPLS-2005>
7.18429374694824

> <r_mmod_Van_der_Waal_Energy-OPLS-2005>
133.087112426758

> <r_mmod_Electrostatic_Energy-OPLS-2005>
-379.332244873047

> <r_mmod_Solvation_Energy-OPLS-2005>
-213.699493408203

> <b_mmod_Minimization_Converged-OPLS-2005>
0

> <r_mmod_RMS_Derivative-OPLS-2005>
0.623550474643707

$$$$
80
                    3D
 Structure written by MMmdl.
176185  0  0  1  0            999 V2000
  -30.7062  -14.3828   20.5323 C   0  0  0  0  0  0
  -30.4005  -12.2296   19.4330 C   0  0  0  0  0  0
  -29.4895  -12.4828   18.2164 C   0  0  0  0  0  0
  -28.0081  -12.3565   18.6214 C   0  0  0  0  0  0
  -27.6562  -13.1974   19.8773 C   0  0  2  0  0  0
  -28.6902  -12.9656   21.0019 C   0  0  0  0  0  0
  -25.2571  -13.8162   20.5705 C   0  0  0  0  0  0
  -24.1811  -13.0494   20.9221 C   0  0  0  0  0  0
  -24.6345  -11.6943   20.8756 C   0  0  0  0  0  0
  -23.9051  -10.4319   21.0444 C   0  0  0  0  0  0
  -24.3582   -9.4205   21.9209 C   0  0  0  0  0  0
  -23.6243   -8.2243   22.0758 C   0  0  0  0  0  0
  -22.4227   -8.0276   21.3552 C   0  0  0  0  0  0
  -21.9897   -9.0276   20.4668 C   0  0  0  0  0  0
  -22.7238  -10.2156   20.3089 C   0  0  0  0  0  0
  -21.6846   -6.0736   22.5289 C   0  0  0  0  0  0
  -21.4016   -6.5650   23.8228 C   0  0  0  0  0  0
  -21.3652   -5.6789   24.9185 C   0  0  0  0  0  0
  -21.6052   -4.3053   24.7241 C   0  0  0  0  0  0
  -21.8805   -3.8155   23.4355 C   0  0  0  0  0  0
  -21.9191   -4.6967   22.3412 C   0  0  0  0  0  0
  -22.7817  -13.5274   21.1890 C   0  0  0  0  0  0
  -22.1644   -4.2181   21.0978 F   0  0  0  0  0  0
  -21.5629   -3.4529   25.7748 F   0  0  0  0  0  0
  -30.0262  -13.2180   20.4500 N   0  0  0  0  0  0
  -26.2970  -12.9314   20.3368 N   0  0  0  0  0  0
  -25.9258  -11.6493   20.5824 N   0  0  0  0  0  0
  -22.0409  -12.8291   22.0396 N   0  0  0  0  0  0
  -25.4375  -15.1886   20.4115 N   0  0  0  0  0  0
  -31.8632  -14.5136   20.1153 O   0  0  0  0  0  0
  -21.6609   -6.8868   21.4234 O   0  0  0  0  0  0
  -22.3537  -14.5569   20.6701 O   0  0  0  0  0  0
  -24.6131  -31.8679   23.2124 C   0  0  0  0  0  0
  -25.9041  -32.4813   23.8392 C   0  0  1  0  0  0
  -27.2609  -27.4743   20.0745 C   0  0  0  0  0  0
  -25.5896  -33.8619   24.2341 N   0  0  0  0  0  0
  -23.3957  -30.4886   21.5494 C   0  0  2  0  0  0
  -24.8436  -28.9467   20.1169 C   0  0  0  0  0  0
  -22.7361  -29.4677   22.5027 C   0  0  0  0  0  0
  -18.0270  -28.1374   22.8527 C   0  0  0  0  0  0
  -24.1479  -36.7312   23.2629 C   0  0  0  0  0  0
  -25.9171  -30.8435   21.3568 C   0  0  0  0  0  0
  -25.9931  -29.4709   20.7194 C   0  0  0  0  0  0
  -27.1940  -28.7364   20.7047 C   0  0  0  0  0  0
  -26.0943  -26.9545   19.4697 C   0  0  0  0  0  0
  -24.8839  -27.6836   19.4947 C   0  0  0  0  0  0
  -23.5999  -29.8079   20.1657 C   0  0  0  0  0  0
  -25.4106  -36.3112   24.0343 C   0  0  1  0  0  0
  -20.5841  -28.3671   23.1336 C   0  0  2  0  0  0
  -20.6752  -26.9420   22.5407 C   0  0  0  0  0  0
  -19.5729  -26.6402   21.5206 C   0  0  0  0  0  0
  -18.1920  -26.7939   22.1629 C   0  0  0  0  0  0
  -19.1521  -28.8850   23.2926 C   0  0  0  0  0  0
  -18.9433  -30.1462   23.8929 C   0  0  0  0  0  0
  -17.6434  -30.6580   24.0606 C   0  0  0  0  0  0
  -25.9048  -34.9472   23.5137 C   0  0  0  0  0  0
  -16.5331  -29.9097   23.6314 C   0  0  0  0  0  0
  -16.7259  -28.6508   23.0348 C   0  0  0  0  0  0
  -26.4506  -31.6591   25.0694 C   0  0  0  0  0  0
  -25.3794  -31.3678   26.1447 C   0  0  0  0  0  0
  -27.0332  -30.3049   24.6022 C   0  0  0  0  0  0
  -27.6106  -32.4296   25.7440 C   0  0  0  0  0  0
  -27.5589  -37.1795   24.8468 C   0  0  0  0  0  0
  -21.4090  -29.3020   22.3727 N   0  0  0  0  0  0
  -26.4296  -37.3793   23.9419 N   0  0  0  0  0  0
  -24.6610  -31.0791   22.1010 N   0  0  0  0  0  0
  -23.4152  -28.8240   23.3072 O   0  0  0  0  0  0
  -28.5171  -26.9043   20.0267 O   0  0  0  0  0  0
  -26.5567  -34.8916   22.4670 O   0  0  0  0  0  0
  -23.5317  -32.1429   23.7504 O   0  0  0  0  0  0
  -30.6541  -24.0979   19.1570 C   0  0  0  0  0  0
  -30.1989  -25.4114   19.2753 C   0  0  0  0  0  0
  -29.8482  -23.0061   19.5399 C   0  0  0  0  0  0
  -28.4468  -23.3084   19.6505 C   0  0  0  0  0  0
  -28.8794  -25.6192   19.6770 C   0  0  0  0  0  0
  -31.7623  -19.4577   21.3167 C   0  0  0  0  0  0
  -30.5967  -21.6522   19.7809 C   0  0  1  0  0  0
  -31.9026  -21.7397   20.7019 C   0  0  2  0  0  0
  -30.5097  -19.2747   20.4291 C   0  0  1  0  0  0
  -33.8591  -22.5431   19.1639 C   0  0  0  0  0  0
  -25.9271  -22.9751   19.1697 C   0  0  0  0  0  0
  -27.4939  -21.1914   18.4455 C   0  0  0  0  0  0
  -33.0552  -22.7472   20.4687 C   0  0  0  0  0  0
  -29.6865  -18.0323   20.8640 C   0  0  0  0  0  0
  -30.4933  -16.7802   20.4556 C   0  0  0  0  0  0
  -27.2777  -22.2952   19.5210 C   0  0  0  0  0  0
  -28.0185  -24.5917   19.8144 N   0  0  0  0  0  0
  -32.5995  -20.4593   20.6960 N   0  0  0  0  0  0
  -29.9717  -15.4676   20.8363 N   0  0  0  0  0  0
  -29.7682  -20.5647   20.3798 N   0  3  0  0  0  0
  -31.4542  -12.2793   19.1479 H   0  0  0  0  0  0
  -30.2505  -11.2224   19.8213 H   0  0  0  0  0  0
  -29.7217  -11.7817   17.4139 H   0  0  0  0  0  0
  -29.6784  -13.4797   17.8137 H   0  0  0  0  0  0
  -27.8150  -11.3007   18.8166 H   0  0  0  0  0  0
  -27.3608  -12.6400   17.7912 H   0  0  0  0  0  0
  -27.7052  -14.2458   19.5796 H   0  0  0  0  0  0
  -28.6405  -11.9369   21.3568 H   0  0  0  0  0  0
  -28.4846  -13.5877   21.8733 H   0  0  0  0  0  0
  -25.2721   -9.5691   22.4806 H   0  0  0  0  0  0
  -23.9992   -7.4630   22.7445 H   0  0  0  0  0  0
  -21.0854   -8.8786   19.8950 H   0  0  0  0  0  0
  -22.3681  -10.9693   19.6203 H   0  0  0  0  0  0
  -21.1988   -7.6168   23.9753 H   0  0  0  0  0  0
  -21.1485   -6.0516   25.9102 H   0  0  0  0  0  0
  -22.0586   -2.7632   23.2839 H   0  0  0  0  0  0
  -22.3954  -11.9922   22.4809 H   0  0  0  0  0  0
  -21.1049  -13.1380   22.2626 H   0  0  0  0  0  0
  -24.6779  -15.8518   20.5171 H   0  0  0  0  0  0
  -26.2956  -15.6190   20.0907 H   0  0  0  0  0  0
  -26.7111  -32.5541   23.1156 H   0  0  0  0  0  0
  -25.0144  -33.9805   25.0558 H   0  0  0  0  0  0
  -22.6846  -31.3064   21.4075 H   0  0  0  0  0  0
  -23.3732  -35.9641   23.3278 H   0  0  0  0  0  0
  -24.3588  -36.8923   22.2036 H   0  0  0  0  0  0
  -23.7217  -37.6517   23.6655 H   0  0  0  0  0  0
  -26.0097  -31.6034   20.5802 H   0  0  0  0  0  0
  -26.8162  -30.9117   21.9592 H   0  0  0  0  0  0
  -28.0943  -29.1473   21.1431 H   0  0  0  0  0  0
  -26.1156  -26.0133   18.9428 H   0  0  0  0  0  0
  -24.0038  -27.2770   19.0134 H   0  0  0  0  0  0
  -23.6906  -30.5777   19.3978 H   0  0  0  0  0  0
  -22.7281  -29.2140   19.8887 H   0  0  0  0  0  0
  -25.1261  -36.1978   25.0831 H   0  0  0  0  0  0
  -20.9981  -28.3243   24.1444 H   0  0  0  0  0  0
  -20.5664  -26.2291   23.3593 H   0  0  0  0  0  0
  -21.6628  -26.7472   22.1198 H   0  0  0  0  0  0
  -19.6896  -25.6317   21.1238 H   0  0  0  0  0  0
  -19.6659  -27.3219   20.6741 H   0  0  0  0  0  0
  -17.4178  -26.6711   21.4030 H   0  0  0  0  0  0
  -18.0323  -26.0071   22.9007 H   0  0  0  0  0  0
  -19.7910  -30.7272   24.2339 H   0  0  0  0  0  0
  -17.4979  -31.6283   24.5169 H   0  0  0  0  0  0
  -15.5335  -30.3010   23.7608 H   0  0  0  0  0  0
  -15.8663  -28.0833   22.7053 H   0  0  0  0  0  0
  -24.5932  -30.7074   25.7772 H   0  0  0  0  0  0
  -24.9014  -32.2818   26.4968 H   0  0  0  0  0  0
  -25.8126  -30.8772   27.0162 H   0  0  0  0  0  0
  -26.2838  -29.6761   24.1178 H   0  0  0  0  0  0
  -27.4257  -29.7325   25.4435 H   0  0  0  0  0  0
  -27.8610  -30.4385   23.9053 H   0  0  0  0  0  0
  -27.2766  -33.3567   26.2097 H   0  0  0  0  0  0
  -28.3872  -32.6870   25.0236 H   0  0  0  0  0  0
  -28.0840  -31.8362   26.5263 H   0  0  0  0  0  0
  -28.2601  -38.0104   24.7529 H   0  0  0  0  0  0
  -28.1090  -36.2620   24.6275 H   0  0  0  0  0  0
  -27.2309  -37.1433   25.8878 H   0  0  0  0  0  0
  -20.9256  -29.8719   21.6922 H   0  0  0  0  0  0
  -26.0174  -38.2868   24.1431 H   0  0  0  0  0  0
  -31.6707  -23.9696   18.8328 H   0  0  0  0  0  0
  -30.8870  -26.2342   19.1365 H   0  0  0  0  0  0
  -32.3671  -18.5549   21.3776 H   0  0  0  0  0  0
  -31.5124  -19.7345   22.3415 H   0  0  0  0  0  0
  -30.8877  -21.3174   18.7835 H   0  0  0  0  0  0
  -31.5759  -21.9420   21.7255 H   0  0  0  0  0  0
  -30.8282  -19.0707   19.4042 H   0  0  0  0  0  0
  -33.2391  -22.1780   18.3434 H   0  0  0  0  0  0
  -34.6495  -21.8058   19.3262 H   0  0  0  0  0  0
  -34.3467  -23.4646   18.8347 H   0  0  0  0  0  0
  -25.6188  -23.7103   19.9123 H   0  0  0  0  0  0
  -25.1178  -22.2507   19.1235 H   0  0  0  0  0  0
  -25.9694  -23.4750   18.1982 H   0  0  0  0  0  0
  -27.8305  -20.2438   18.8558 H   0  0  0  0  0  0
  -28.1872  -21.5108   17.6646 H   0  0  0  0  0  0
  -26.5619  -20.9351   17.9395 H   0  0  0  0  0  0
  -33.7658  -22.6465   21.2918 H   0  0  0  0  0  0
  -32.7185  -23.7737   20.5965 H   0  0  0  0  0  0
  -28.7106  -18.0084   20.3760 H   0  0  0  0  0  0
  -29.4839  -18.0422   21.9362 H   0  0  0  0  0  0
  -30.6438  -16.7789   19.3703 H   0  0  0  0  0  0
  -31.4875  -16.8303   20.8914 H   0  0  0  0  0  0
  -27.1378  -21.8349   20.4994 H   0  0  0  0  0  0
  -33.4684  -20.5518   21.2113 H   0  0  0  0  0  0
  -29.0006  -15.3524   21.0862 H   0  0  0  0  0  0
  -28.9423  -20.4345   19.8162 H   0  0  0  0  0  0
  -29.5041  -20.8300   21.3138 H   0  0  0  0  0  0
  1 25  1  0  0  0
  1 30  2  0  0  0
  1 89  1  0  0  0
  2  3  1  0  0  0
  2 25  1  0  0  0
  2 91  1  0  0  0
  2 92  1  0  0  0
  3  4  1  0  0  0
  3 93  1  0  0  0
  3 94  1  0  0  0
  4  5  1  0  0  0
  4 95  1  0  0  0
  4 96  1  0  0  0
  5  6  1  0  0  0
  5 26  1  0  0  0
  5 97  1  0  0  0
  6 25  1  0  0  0
  6 98  1  0  0  0
  6 99  1  0  0  0
  7  8  2  0  0  0
  7 26  1  0  0  0
  7 29  1  0  0  0
  8  9  1  0  0  0
  8 22  1  0  0  0
  9 10  1  0  0  0
  9 27  2  0  0  0
 10 11  2  0  0  0
 10 15  1  0  0  0
 11 12  1  0  0  0
 11100  1  0  0  0
 12 13  2  0  0  0
 12101  1  0  0  0
 13 14  1  0  0  0
 13 31  1  0  0  0
 14 15  2  0  0  0
 14102  1  0  0  0
 15103  1  0  0  0
 16 17  2  0  0  0
 16 21  1  0  0  0
 16 31  1  0  0  0
 17 18  1  0  0  0
 17104  1  0  0  0
 18 19  2  0  0  0
 18105  1  0  0  0
 19 20  1  0  0  0
 19 24  1  0  0  0
 20 21  2  0  0  0
 20106  1  0  0  0
 21 23  1  0  0  0
 22 28  1  0  0  0
 22 32  2  0  0  0
 26 27  1  0  0  0
 28107  1  0  0  0
 28108  1  0  0  0
 29109  1  0  0  0
 29110  1  0  0  0
 33 34  1  0  0  0
 33 66  1  0  0  0
 33 70  2  0  0  0
 34 36  1  0  0  0
 34 59  1  0  0  0
 34111  1  0  0  0
 35 44  2  0  0  0
 35 45  1  0  0  0
 35 68  1  0  0  0
 36 56  1  0  0  0
 36112  1  0  0  0
 37 39  1  0  0  0
 37 47  1  0  0  0
 37 66  1  0  0  0
 37113  1  0  0  0
 38 43  2  0  0  0
 38 46  1  0  0  0
 38 47  1  0  0  0
 39 64  1  0  0  0
 39 67  2  0  0  0
 40 52  1  0  0  0
 40 53  2  0  0  0
 40 58  1  0  0  0
 41114  1  0  0  0
 41115  1  0  0  0
 41116  1  0  0  0
 41 48  1  0  0  0
 42 43  1  0  0  0
 42 66  1  0  0  0
 42117  1  0  0  0
 42118  1  0  0  0
 43 44  1  0  0  0
 44119  1  0  0  0
 45 46  2  0  0  0
 45120  1  0  0  0
 46121  1  0  0  0
 47122  1  0  0  0
 47123  1  0  0  0
 48 56  1  0  0  0
 48 65  1  0  0  0
 48124  1  0  0  0
 49 50  1  0  0  0
 49 53  1  0  0  0
 49 64  1  0  0  0
 49125  1  0  0  0
 50 51  1  0  0  0
 50126  1  0  0  0
 50127  1  0  0  0
 51 52  1  0  0  0
 51128  1  0  0  0
 51129  1  0  0  0
 52130  1  0  0  0
 52131  1  0  0  0
 53 54  1  0  0  0
 54 55  2  0  0  0
 54132  1  0  0  0
 55 57  1  0  0  0
 55133  1  0  0  0
 56 69  2  0  0  0
 57 58  2  0  0  0
 57134  1  0  0  0
 58135  1  0  0  0
 59 60  1  0  0  0
 59 61  1  0  0  0
 59 62  1  0  0  0
 60136  1  0  0  0
 60137  1  0  0  0
 60138  1  0  0  0
 61139  1  0  0  0
 61140  1  0  0  0
 61141  1  0  0  0
 62142  1  0  0  0
 62143  1  0  0  0
 62144  1  0  0  0
 63 65  1  0  0  0
 63145  1  0  0  0
 63146  1  0  0  0
 63147  1  0  0  0
 64148  1  0  0  0
 65149  1  0  0  0
 68 75  1  0  0  0
 71 72  2  0  0  0
 71 73  1  0  0  0
 71150  1  0  0  0
 72 75  1  0  0  0
 72151  1  0  0  0
 73 74  2  0  0  0
 73 77  1  0  0  0
 74 86  1  0  0  0
 74 87  1  0  0  0
 75 87  2  0  0  0
 76 79  1  0  0  0
 76 88  1  0  0  0
 76152  1  0  0  0
 76153  1  0  0  0
 77 78  1  0  0  0
 77 90  1  0  0  0
 77154  1  0  0  0
 78 83  1  0  0  0
 78 88  1  0  0  0
 78155  1  0  0  0
 79 84  1  0  0  0
 79 90  1  0  0  0
 79156  1  0  0  0
 80 83  1  0  0  0
 80157  1  0  0  0
 80158  1  0  0  0
 80159  1  0  0  0
 81160  1  0  0  0
 81161  1  0  0  0
 81162  1  0  0  0
 81 86  1  0  0  0
 82 86  1  0  0  0
 82163  1  0  0  0
 82164  1  0  0  0
 82165  1  0  0  0
 83166  1  0  0  0
 83167  1  0  0  0
 84 85  1  0  0  0
 84168  1  0  0  0
 84169  1  0  0  0
 85 89  1  0  0  0
 85170  1  0  0  0
 85171  1  0  0  0
 86172  1  0  0  0
 88173  1  0  0  0
 89174  1  0  0  0
 90175  1  0  0  0
 90176  1  0  0  0
M  CHG  1  90   1
M  ISO  4   1 100  68 101  75 101  89 100
M  END
> <chiral flag>
0

> <version>
0

> <s_m_source_file>
/data/baiqing/PycharmProjects/Reinvent-master-3.2/result/LINK_invent/BTK/process_docking_weight1_custom_sum_contain_oxygen_bond_distance_aromatic_linkinvent_7_9_3/rearranged_h_0130.sdf

> <i_m_source_file_index>
81

> <r_mmod_Potential_Energy-OPLS-2005>
-133.730758666992

> <r_mmod_Stretch_Energy-OPLS-2005>
51.0179634094238

> <r_mmod_Bend_Energy-OPLS-2005>
181.317718505859

> <r_mmod_Torsional_Energy-OPLS-2005>
272.162963867188

> <r_mmod_Improper_Torsional_Energy-OPLS-2005>
7.9900107383728

> <r_mmod_Van_der_Waal_Energy-OPLS-2005>
205.183822631836

> <r_mmod_Electrostatic_Energy-OPLS-2005>
-413.929229736328

> <r_mmod_Solvation_Energy-OPLS-2005>
-454.246032714844

> <b_mmod_Minimization_Converged-OPLS-2005>
0

> <r_mmod_RMS_Derivative-OPLS-2005>
7.44394874572754

$$$$
81
                    3D
 Structure written by MMmdl.
172181  0  0  1  0            999 V2000
  -30.6568  -14.7190   20.4778 C   0  0  0  0  0  0
  -30.4229  -12.4458   19.4749 C   0  0  0  0  0  0
  -29.5054  -12.5045   18.2354 C   0  0  0  0  0  0
  -28.0316  -12.3373   18.6499 C   0  0  0  0  0  0
  -27.6405  -13.2383   19.8529 C   0  0  2  0  0  0
  -28.6853  -13.1848   20.9880 C   0  0  0  0  0  0
  -25.2507  -13.8221   20.5719 C   0  0  0  0  0  0
  -24.1794  -13.0452   20.9201 C   0  0  0  0  0  0
  -24.6394  -11.6927   20.8742 C   0  0  0  0  0  0
  -23.9075  -10.4300   21.0392 C   0  0  0  0  0  0
  -24.3625   -9.4215   21.9169 C   0  0  0  0  0  0
  -23.6299   -8.2251   22.0741 C   0  0  0  0  0  0
  -22.4277   -8.0288   21.3542 C   0  0  0  0  0  0
  -21.9918   -9.0256   20.4639 C   0  0  0  0  0  0
  -22.7244  -10.2137   20.3044 C   0  0  0  0  0  0
  -21.6860   -6.0735   22.5275 C   0  0  0  0  0  0
  -21.4020   -6.5634   23.8209 C   0  0  0  0  0  0
  -21.3661   -5.6788   24.9168 C   0  0  0  0  0  0
  -21.6042   -4.3049   24.7219 C   0  0  0  0  0  0
  -21.8825   -3.8141   23.4341 C   0  0  0  0  0  0
  -21.9196   -4.6960   22.3398 C   0  0  0  0  0  0
  -22.7823  -13.5226   21.1864 C   0  0  0  0  0  0
  -22.1665   -4.2145   21.0978 F   0  0  0  0  0  0
  -21.5630   -3.4531   25.7729 F   0  0  0  0  0  0
  -29.9866  -13.5183   20.3996 N   0  0  0  0  0  0
  -26.2937  -12.9437   20.3316 N   0  0  0  0  0  0
  -25.9330  -11.6572   20.5766 N   0  0  0  0  0  0
  -22.0472  -12.8208   22.0418 N   0  0  0  0  0  0
  -25.4223  -15.1947   20.4186 N   0  0  0  0  0  0
  -31.8492  -14.7639   20.1551 O   0  0  0  0  0  0
  -21.6652   -6.8875   21.4236 O   0  0  0  0  0  0
  -22.3503  -14.5533   20.6710 O   0  0  0  0  0  0
  -24.6291  -31.8577   23.2014 C   0  0  0  0  0  0
  -25.9132  -32.4770   23.8343 C   0  0  1  0  0  0
  -27.2054  -27.2450   20.1313 C   0  0  0  0  0  0
  -25.5958  -33.8574   24.2285 N   0  0  0  0  0  0
  -23.4262  -30.4791   21.5441 C   0  0  2  0  0  0
  -24.8718  -28.9273   20.1109 C   0  0  0  0  0  0
  -22.7487  -29.4599   22.4910 C   0  0  0  0  0  0
  -18.0291  -28.1393   22.8472 C   0  0  0  0  0  0
  -24.1485  -36.7269   23.2629 C   0  0  0  0  0  0
  -25.9722  -30.7553   21.3936 C   0  0  0  0  0  0
  -26.0373  -29.3735   20.7453 C   0  0  0  0  0  0
  -27.1997  -28.5362   20.7630 C   0  0  0  0  0  0
  -26.0457  -26.9165   19.3989 C   0  0  0  0  0  0
  -24.8808  -27.7046   19.4274 C   0  0  0  0  0  0
  -23.6451  -29.8172   20.1581 C   0  0  0  0  0  0
  -25.4121  -36.3084   24.0322 C   0  0  1  0  0  0
  -20.5890  -28.3704   23.1261 C   0  0  2  0  0  0
  -20.6776  -26.9424   22.5400 C   0  0  0  0  0  0
  -19.5758  -26.6382   21.5201 C   0  0  0  0  0  0
  -18.1935  -26.7935   22.1609 C   0  0  0  0  0  0
  -19.1542  -28.8863   23.2869 C   0  0  0  0  0  0
  -18.9466  -30.1458   23.8902 C   0  0  0  0  0  0
  -17.6468  -30.6593   24.0553 C   0  0  0  0  0  0
  -25.9065  -34.9449   23.5105 C   0  0  0  0  0  0
  -16.5363  -29.9087   23.6326 C   0  0  0  0  0  0
  -16.7278  -28.6500   23.0357 C   0  0  0  0  0  0
  -26.4515  -31.6583   25.0720 C   0  0  0  0  0  0
  -25.3747  -31.3750   26.1453 C   0  0  0  0  0  0
  -27.0342  -30.2986   24.6209 C   0  0  0  0  0  0
  -27.6078  -32.4313   25.7492 C   0  0  0  0  0  0
  -27.5588  -37.1800   24.8469 C   0  0  0  0  0  0
  -21.4195  -29.3052   22.3649 N   0  0  0  0  0  0
  -26.4303  -37.3778   23.9414 N   0  0  0  0  0  0
  -24.6941  -31.0509   22.1012 N   0  0  0  0  0  0
  -23.4180  -28.8133   23.3011 O   0  0  0  0  0  0
  -28.3156  -26.3675   20.1461 O   0  0  0  0  0  0
  -26.5613  -34.8914   22.4662 O   0  0  0  0  0  0
  -23.5446  -32.1422   23.7287 O   0  0  0  0  0  0
  -29.5880  -22.8301   20.9361 C   0  0  0  0  0  0
  -29.4910  -24.2546   20.7415 C   0  0  0  0  0  0
  -27.2427  -24.0192   20.0429 C   0  0  0  0  0  0
  -28.5056  -21.9319   20.6925 C   0  0  0  0  0  0
  -27.3346  -22.5910   20.1864 C   0  0  0  0  0  0
  -28.3084  -24.9311   20.3136 C   0  0  0  0  0  0
  -28.8967  -18.1533   19.7693 C   0  0  0  0  0  0
  -29.7016  -18.1508   22.0401 C   0  0  0  0  0  0
  -29.7198  -16.8122   19.5296 C   0  0  0  0  0  0
  -30.5078  -16.8244   21.7490 C   0  0  0  0  0  0
  -29.4418  -19.1548   20.8489 C   0  0  0  0  0  0
  -26.0956  -21.7883   19.8101 C   0  0  0  0  0  0
  -27.3695  -21.5389   24.7331 C   0  0  0  0  0  0
  -26.1068  -19.8116   23.3754 C   0  0  0  0  0  0
  -28.4579  -20.4129   21.2394 C   0  0  1  0  0  0
  -27.1286  -20.9652   23.3278 C   0  0  0  0  0  0
  -29.9656  -15.9140   20.7023 N   0  0  0  0  0  0
  -28.4171  -20.5490   22.7155 N   0  3  0  0  0  0
  -31.4649  -12.5538   19.1696 H   0  0  0  0  0  0
  -30.3559  -11.4717   19.9631 H   0  0  0  0  0  0
  -29.7838  -11.7284   17.5206 H   0  0  0  0  0  0
  -29.6395  -13.4582   17.7222 H   0  0  0  0  0  0
  -27.8821  -11.2886   18.9079 H   0  0  0  0  0  0
  -27.3762  -12.5360   17.8008 H   0  0  0  0  0  0
  -27.6322  -14.2598   19.4717 H   0  0  0  0  0  0
  -28.7139  -12.1968   21.4505 H   0  0  0  0  0  0
  -28.4261  -13.8909   21.7788 H   0  0  0  0  0  0
  -25.2770   -9.5700   22.4740 H   0  0  0  0  0  0
  -24.0012   -7.4648   22.7461 H   0  0  0  0  0  0
  -21.0852   -8.8777   19.8943 H   0  0  0  0  0  0
  -22.3698  -10.9677   19.6157 H   0  0  0  0  0  0
  -21.2016   -7.6143   23.9713 H   0  0  0  0  0  0
  -21.1477   -6.0512   25.9073 H   0  0  0  0  0  0
  -22.0602   -2.7600   23.2843 H   0  0  0  0  0  0
  -22.4103  -11.9874   22.4810 H   0  0  0  0  0  0
  -21.1082  -13.1218   22.2608 H   0  0  0  0  0  0
  -24.6612  -15.8531   20.5409 H   0  0  0  0  0  0
  -26.2872  -15.6352   20.1315 H   0  0  0  0  0  0
  -26.7180  -32.5413   23.1060 H   0  0  0  0  0  0
  -25.0174  -33.9730   25.0480 H   0  0  0  0  0  0
  -22.7235  -31.3020   21.3993 H   0  0  0  0  0  0
  -23.3764  -35.9585   23.3309 H   0  0  0  0  0  0
  -24.3564  -36.8869   22.2036 H   0  0  0  0  0  0
  -23.7212  -37.6465   23.6639 H   0  0  0  0  0  0
  -26.1156  -31.5097   20.6182 H   0  0  0  0  0  0
  -26.8478  -30.8038   22.0281 H   0  0  0  0  0  0
  -28.0898  -28.8642   21.2823 H   0  0  0  0  0  0
  -26.0263  -26.0544   18.7563 H   0  0  0  0  0  0
  -24.0056  -27.3840   18.8788 H   0  0  0  0  0  0
  -23.7750  -30.5957   19.4060 H   0  0  0  0  0  0
  -22.7620  -29.2552   19.8488 H   0  0  0  0  0  0
  -25.1287  -36.1938   25.0810 H   0  0  0  0  0  0
  -20.9988  -28.3301   24.1380 H   0  0  0  0  0  0
  -20.5662  -26.2323   23.3609 H   0  0  0  0  0  0
  -21.6646  -26.7444   22.1207 H   0  0  0  0  0  0
  -19.6930  -25.6287   21.1241 H   0  0  0  0  0  0
  -19.6697  -27.3182   20.6722 H   0  0  0  0  0  0
  -17.4197  -26.6669   21.4019 H   0  0  0  0  0  0
  -18.0355  -26.0083   22.9011 H   0  0  0  0  0  0
  -19.7945  -30.7266   24.2281 H   0  0  0  0  0  0
  -17.5023  -31.6274   24.5149 H   0  0  0  0  0  0
  -15.5365  -30.2992   23.7650 H   0  0  0  0  0  0
  -15.8676  -28.0819   22.7094 H   0  0  0  0  0  0
  -24.5943  -30.7064   25.7809 H   0  0  0  0  0  0
  -24.8913  -32.2917   26.4832 H   0  0  0  0  0  0
  -25.8069  -30.8985   27.0257 H   0  0  0  0  0  0
  -26.2916  -29.6746   24.1223 H   0  0  0  0  0  0
  -27.3996  -29.7241   25.4729 H   0  0  0  0  0  0
  -27.8811  -30.4243   23.9464 H   0  0  0  0  0  0
  -27.2714  -33.3632   26.2051 H   0  0  0  0  0  0
  -28.3908  -32.6840   25.0329 H   0  0  0  0  0  0
  -28.0721  -31.8443   26.5430 H   0  0  0  0  0  0
  -28.2615  -38.0092   24.7520 H   0  0  0  0  0  0
  -28.1082  -36.2623   24.6297 H   0  0  0  0  0  0
  -27.2302  -37.1438   25.8872 H   0  0  0  0  0  0
  -20.9395  -29.8778   21.6848 H   0  0  0  0  0  0
  -26.0185  -38.2848   24.1436 H   0  0  0  0  0  0
  -30.5150  -22.4378   21.3305 H   0  0  0  0  0  0
  -30.3617  -24.8563   20.9612 H   0  0  0  0  0  0
  -26.2827  -24.3809   19.7295 H   0  0  0  0  0  0
  -27.8743  -17.8727   20.0287 H   0  0  0  0  0  0
  -28.8168  -18.6822   18.8184 H   0  0  0  0  0  0
  -30.2370  -18.6720   22.8349 H   0  0  0  0  0  0
  -28.7423  -17.8511   22.4669 H   0  0  0  0  0  0
  -30.6864  -17.0755   19.0947 H   0  0  0  0  0  0
  -29.2104  -16.2263   18.7625 H   0  0  0  0  0  0
  -30.5756  -16.2576   22.6805 H   0  0  0  0  0  0
  -31.5367  -17.0876   21.4936 H   0  0  0  0  0  0
  -30.4055  -19.5508   20.5259 H   0  0  0  0  0  0
  -25.3874  -22.3851   19.2339 H   0  0  0  0  0  0
  -25.5683  -21.4283   20.6932 H   0  0  0  0  0  0
  -26.3614  -20.9349   19.1856 H   0  0  0  0  0  0
  -26.4322  -21.8677   25.1839 H   0  0  0  0  0  0
  -28.0298  -22.4068   24.6975 H   0  0  0  0  0  0
  -27.8167  -20.8029   25.4019 H   0  0  0  0  0  0
  -25.1779  -20.1428   23.8404 H   0  0  0  0  0  0
  -26.4755  -18.9647   23.9547 H   0  0  0  0  0  0
  -25.8449  -19.4477   22.3817 H   0  0  0  0  0  0
  -27.4834  -20.0198   20.9685 H   0  0  0  0  0  0
  -26.7000  -21.7758   22.7396 H   0  0  0  0  0  0
  -29.1190  -21.2298   22.9554 H   0  0  0  0  0  0
  -28.7039  -19.6670   23.1084 H   0  0  0  0  0  0
  1 25  1  0  0  0
  1 30  2  0  0  0
  1 87  1  0  0  0
  2  3  1  0  0  0
  2 25  1  0  0  0
  2 89  1  0  0  0
  2 90  1  0  0  0
  3  4  1  0  0  0
  3 91  1  0  0  0
  3 92  1  0  0  0
  4  5  1  0  0  0
  4 93  1  0  0  0
  4 94  1  0  0  0
  5  6  1  0  0  0
  5 26  1  0  0  0
  5 95  1  0  0  0
  6 25  1  0  0  0
  6 96  1  0  0  0
  6 97  1  0  0  0
  7  8  2  0  0  0
  7 26  1  0  0  0
  7 29  1  0  0  0
  8  9  1  0  0  0
  8 22  1  0  0  0
  9 10  1  0  0  0
  9 27  2  0  0  0
 10 11  2  0  0  0
 10 15  1  0  0  0
 11 12  1  0  0  0
 11 98  1  0  0  0
 12 13  2  0  0  0
 12 99  1  0  0  0
 13 14  1  0  0  0
 13 31  1  0  0  0
 14 15  2  0  0  0
 14100  1  0  0  0
 15101  1  0  0  0
 16 17  2  0  0  0
 16 21  1  0  0  0
 16 31  1  0  0  0
 17 18  1  0  0  0
 17102  1  0  0  0
 18 19  2  0  0  0
 18103  1  0  0  0
 19 20  1  0  0  0
 19 24  1  0  0  0
 20 21  2  0  0  0
 20104  1  0  0  0
 21 23  1  0  0  0
 22 28  1  0  0  0
 22 32  2  0  0  0
 26 27  1  0  0  0
 28105  1  0  0  0
 28106  1  0  0  0
 29107  1  0  0  0
 29108  1  0  0  0
 33 34  1  0  0  0
 33 66  1  0  0  0
 33 70  2  0  0  0
 34 36  1  0  0  0
 34 59  1  0  0  0
 34109  1  0  0  0
 35 44  2  0  0  0
 35 45  1  0  0  0
 35 68  1  0  0  0
 36 56  1  0  0  0
 36110  1  0  0  0
 37 39  1  0  0  0
 37 47  1  0  0  0
 37 66  1  0  0  0
 37111  1  0  0  0
 38 43  2  0  0  0
 38 46  1  0  0  0
 38 47  1  0  0  0
 39 64  1  0  0  0
 39 67  2  0  0  0
 40 52  1  0  0  0
 40 53  2  0  0  0
 40 58  1  0  0  0
 41112  1  0  0  0
 41113  1  0  0  0
 41114  1  0  0  0
 41 48  1  0  0  0
 42 43  1  0  0  0
 42 66  1  0  0  0
 42115  1  0  0  0
 42116  1  0  0  0
 43 44  1  0  0  0
 44117  1  0  0  0
 45 46  2  0  0  0
 45118  1  0  0  0
 46119  1  0  0  0
 47120  1  0  0  0
 47121  1  0  0  0
 48 56  1  0  0  0
 48 65  1  0  0  0
 48122  1  0  0  0
 49 50  1  0  0  0
 49 53  1  0  0  0
 49 64  1  0  0  0
 49123  1  0  0  0
 50 51  1  0  0  0
 50124  1  0  0  0
 50125  1  0  0  0
 51 52  1  0  0  0
 51126  1  0  0  0
 51127  1  0  0  0
 52128  1  0  0  0
 52129  1  0  0  0
 53 54  1  0  0  0
 54 55  2  0  0  0
 54130  1  0  0  0
 55 57  1  0  0  0
 55131  1  0  0  0
 56 69  2  0  0  0
 57 58  2  0  0  0
 57132  1  0  0  0
 58133  1  0  0  0
 59 60  1  0  0  0
 59 61  1  0  0  0
 59 62  1  0  0  0
 60134  1  0  0  0
 60135  1  0  0  0
 60136  1  0  0  0
 61137  1  0  0  0
 61138  1  0  0  0
 61139  1  0  0  0
 62140  1  0  0  0
 62141  1  0  0  0
 62142  1  0  0  0
 63 65  1  0  0  0
 63143  1  0  0  0
 63144  1  0  0  0
 63145  1  0  0  0
 64146  1  0  0  0
 65147  1  0  0  0
 68 76  1  0  0  0
 71 72  2  0  0  0
 71 74  1  0  0  0
 71148  1  0  0  0
 72 76  1  0  0  0
 72149  1  0  0  0
 73 75  1  0  0  0
 73 76  2  0  0  0
 73150  1  0  0  0
 74 75  2  0  0  0
 74 85  1  0  0  0
 75 82  1  0  0  0
 77 79  1  0  0  0
 77151  1  0  0  0
 77152  1  0  0  0
 77 81  1  0  0  0
 78 80  1  0  0  0
 78 81  1  0  0  0
 78153  1  0  0  0
 78154  1  0  0  0
 79 87  1  0  0  0
 79155  1  0  0  0
 79156  1  0  0  0
 80 87  1  0  0  0
 80157  1  0  0  0
 80158  1  0  0  0
 81 85  1  0  0  0
 81159  1  0  0  0
 82160  1  0  0  0
 82161  1  0  0  0
 82162  1  0  0  0
 83163  1  0  0  0
 83164  1  0  0  0
 83165  1  0  0  0
 83 86  1  0  0  0
 84 86  1  0  0  0
 84166  1  0  0  0
 84167  1  0  0  0
 84168  1  0  0  0
 85 88  1  0  0  0
 85169  1  0  0  0
 86 88  1  0  0  0
 86170  1  0  0  0
 88171  1  0  0  0
 88172  1  0  0  0
M  CHG  1  88   1
M  ISO  4   1 100  68 101  76 101  87 100
M  END
> <chiral flag>
0

> <version>
0

> <s_m_source_file>
/data/baiqing/PycharmProjects/Reinvent-master-3.2/result/LINK_invent/BTK/process_docking_weight1_custom_sum_contain_oxygen_bond_distance_aromatic_linkinvent_7_9_3/rearranged_h_0130.sdf

> <i_m_source_file_index>
82

> <r_mmod_Potential_Energy-OPLS-2005>
334.921295166016

> <r_mmod_Stretch_Energy-OPLS-2005>
125.119659423828

> <r_mmod_Bend_Energy-OPLS-2005>
221.841888427734

> <r_mmod_Torsional_Energy-OPLS-2005>
351.020202636719

> <r_mmod_Improper_Torsional_Energy-OPLS-2005>
12.4128541946411

> <r_mmod_Van_der_Waal_Energy-OPLS-2005>
147.808166503906

> <r_mmod_Electrostatic_Energy-OPLS-2005>
-176.982315063477

> <r_mmod_Solvation_Energy-OPLS-2005>
-429.579223632812

> <b_mmod_Minimization_Converged-OPLS-2005>
0

> <r_mmod_RMS_Derivative-OPLS-2005>
1.90125858783722

$$$$
82
                    3D
 Structure written by MMmdl.
158167  0  0  1  0            999 V2000
  -30.5805  -14.8434   20.5311 C   0  0  0  0  0  0
  -30.4286  -12.5282   19.5116 C   0  0  0  0  0  0
  -29.5399  -12.5642   18.2494 C   0  0  0  0  0  0
  -28.0469  -12.4173   18.6070 C   0  0  0  0  0  0
  -27.6394  -13.2471   19.8512 C   0  0  2  0  0  0
  -28.6692  -13.1562   20.9877 C   0  0  0  0  0  0
  -25.2519  -13.8192   20.5648 C   0  0  0  0  0  0
  -24.1826  -13.0428   20.9195 C   0  0  0  0  0  0
  -24.6448  -11.6898   20.8735 C   0  0  0  0  0  0
  -23.9124  -10.4305   21.0446 C   0  0  0  0  0  0
  -24.3686   -9.4200   21.9196 C   0  0  0  0  0  0
  -23.6308   -8.2279   22.0777 C   0  0  0  0  0  0
  -22.4283   -8.0325   21.3570 C   0  0  0  0  0  0
  -21.9977   -9.0314   20.4664 C   0  0  0  0  0  0
  -22.7325  -10.2165   20.3055 C   0  0  0  0  0  0
  -21.6861   -6.0769   22.5291 C   0  0  0  0  0  0
  -21.4018   -6.5670   23.8225 C   0  0  0  0  0  0
  -21.3664   -5.6809   24.9182 C   0  0  0  0  0  0
  -21.6033   -4.3077   24.7215 C   0  0  0  0  0  0
  -21.8835   -3.8171   23.4356 C   0  0  0  0  0  0
  -21.9208   -4.7000   22.3407 C   0  0  0  0  0  0
  -22.7858  -13.5211   21.1872 C   0  0  0  0  0  0
  -22.1688   -4.2172   21.0990 F   0  0  0  0  0  0
  -21.5615   -3.4563   25.7741 F   0  0  0  0  0  0
  -29.9630  -13.5964   20.4419 N   0  0  0  0  0  0
  -26.2897  -12.9398   20.3174 N   0  0  0  0  0  0
  -25.9358  -11.6507   20.5647 N   0  0  0  0  0  0
  -22.0582  -12.8130   22.0407 N   0  0  0  0  0  0
  -25.4242  -15.1943   20.4111 N   0  0  0  0  0  0
  -31.7276  -14.9409   20.0729 O   0  0  0  0  0  0
  -21.6664   -6.8906   21.4227 O   0  0  0  0  0  0
  -22.3543  -14.5522   20.6746 O   0  0  0  0  0  0
  -24.6435  -31.8435   23.1902 C   0  0  0  0  0  0
  -25.9196  -32.4684   23.8271 C   0  0  1  0  0  0
  -27.2593  -27.1624   20.1517 C   0  0  0  0  0  0
  -25.5970  -33.8491   24.2227 N   0  0  0  0  0  0
  -23.4515  -30.4551   21.5399 C   0  0  2  0  0  0
  -24.9035  -28.8680   20.1249 C   0  0  0  0  0  0
  -22.7548  -29.4546   22.4967 C   0  0  0  0  0  0
  -18.0273  -28.1368   22.8465 C   0  0  0  0  0  0
  -24.1497  -36.7252   23.2651 C   0  0  0  0  0  0
  -25.9985  -30.7172   21.3868 C   0  0  0  0  0  0
  -26.0755  -29.3263   20.7375 C   0  0  0  0  0  0
  -27.2465  -28.4887   20.7316 C   0  0  0  0  0  0
  -26.0547  -26.7806   19.5172 C   0  0  0  0  0  0
  -24.9046  -27.6065   19.5005 C   0  0  0  0  0  0
  -23.6749  -29.7643   20.1655 C   0  0  0  0  0  0
  -25.4118  -36.3050   24.0335 C   0  0  1  0  0  0
  -20.5877  -28.3729   23.1222 C   0  0  2  0  0  0
  -20.6775  -26.9447   22.5397 C   0  0  0  0  0  0
  -19.5798  -26.6382   21.5183 C   0  0  0  0  0  0
  -18.1956  -26.7916   22.1554 C   0  0  0  0  0  0
  -19.1528  -28.8857   23.2823 C   0  0  0  0  0  0
  -18.9438  -30.1436   23.8881 C   0  0  0  0  0  0
  -17.6469  -30.6615   24.0543 C   0  0  0  0  0  0
  -25.9069  -34.9417   23.5113 C   0  0  0  0  0  0
  -16.5341  -29.9118   23.6330 C   0  0  0  0  0  0
  -16.7232  -28.6495   23.0405 C   0  0  0  0  0  0
  -26.4564  -31.6537   25.0705 C   0  0  0  0  0  0
  -25.3756  -31.3664   26.1413 C   0  0  0  0  0  0
  -27.0469  -30.2952   24.6276 C   0  0  0  0  0  0
  -27.6116  -32.4268   25.7482 C   0  0  0  0  0  0
  -27.5606  -37.1775   24.8454 C   0  0  0  0  0  0
  -21.4235  -29.3095   22.3640 N   0  0  0  0  0  0
  -26.4286  -37.3766   23.9450 N   0  0  0  0  0  0
  -24.7184  -31.0248   22.0959 N   0  0  0  0  0  0
  -23.4164  -28.8132   23.3142 O   0  0  0  0  0  0
  -28.3944  -26.2852   20.1528 O   0  0  0  0  0  0
  -26.5672  -34.8939   22.4705 O   0  0  0  0  0  0
  -23.5525  -32.1313   23.7121 O   0  0  0  0  0  0
  -29.0701  -22.6235   21.3985 C   0  0  0  0  0  0
  -28.4340  -22.5018   19.1411 C   0  0  0  0  0  0
  -28.9096  -24.0744   21.3488 C   0  0  0  0  0  0
  -28.2653  -23.9433   19.0950 C   0  0  0  0  0  0
  -28.8145  -21.7353   20.2964 C   0  0  0  0  0  0
  -28.4418  -24.8228   20.2114 C   0  0  0  0  0  0
  -29.6020  -16.2127   22.3447 C   0  0  0  0  0  0
  -29.8258  -17.3641   20.0990 C   0  0  0  0  0  0
  -28.9566  -17.5688   22.7303 C   0  0  0  0  0  0
  -29.7696  -18.8898   20.7980 C   0  0  1  0  0  0
  -28.6780  -20.0870   20.3380 C   0  0  2  0  0  0
  -29.8727  -16.0181   20.9002 N   0  0  0  0  0  0
  -29.7761  -18.7150   22.2695 N   0  3  0  0  0  0
  -28.0620  -19.6292   19.1424 O   0  0  0  0  0  0
  -31.4778  -12.6374   19.2357 H   0  0  0  0  0  0
  -30.3677  -11.5508   19.9922 H   0  0  0  0  0  0
  -29.8394  -11.7869   17.5485 H   0  0  0  0  0  0
  -29.7060  -13.5109   17.7294 H   0  0  0  0  0  0
  -27.8422  -11.3608   18.7569 H   0  0  0  0  0  0
  -27.4412  -12.7299   17.7566 H   0  0  0  0  0  0
  -27.6400  -14.2867   19.5256 H   0  0  0  0  0  0
  -28.7331  -12.1407   21.3784 H   0  0  0  0  0  0
  -28.3183  -13.7437   21.8252 H   0  0  0  0  0  0
  -25.2870   -9.5634   22.4724 H   0  0  0  0  0  0
  -24.0056   -7.4623   22.7455 H   0  0  0  0  0  0
  -21.0955   -8.8795   19.8931 H   0  0  0  0  0  0
  -22.3828  -10.9687   19.6136 H   0  0  0  0  0  0
  -21.2025   -7.6174   23.9706 H   0  0  0  0  0  0
  -21.1449   -6.0572   25.9071 H   0  0  0  0  0  0
  -22.0611   -2.7637   23.2846 H   0  0  0  0  0  0
  -22.4353  -11.9773   22.4618 H   0  0  0  0  0  0
  -21.1182  -13.1010   22.2677 H   0  0  0  0  0  0
  -24.6471  -15.8369   20.4976 H   0  0  0  0  0  0
  -26.2670  -15.6343   20.0648 H   0  0  0  0  0  0
  -26.7257  -32.5332   23.0976 H   0  0  0  0  0  0
  -25.0116  -33.9567   25.0394 H   0  0  0  0  0  0
  -22.7572  -31.2812   21.3824 H   0  0  0  0  0  0
  -23.3832  -35.9509   23.3192 H   0  0  0  0  0  0
  -24.3618  -36.9004   22.2100 H   0  0  0  0  0  0
  -23.7152  -37.6375   23.6743 H   0  0  0  0  0  0
  -26.1360  -31.4619   20.6027 H   0  0  0  0  0  0
  -26.8706  -30.7840   22.0250 H   0  0  0  0  0  0
  -28.1546  -28.8407   21.2019 H   0  0  0  0  0  0
  -25.9999  -25.8089   19.0462 H   0  0  0  0  0  0
  -24.0080  -27.2477   19.0149 H   0  0  0  0  0  0
  -23.8056  -30.5312   19.4021 H   0  0  0  0  0  0
  -22.7894  -29.1963   19.8627 H   0  0  0  0  0  0
  -25.1286  -36.1899   25.0813 H   0  0  0  0  0  0
  -20.9885  -28.3326   24.1377 H   0  0  0  0  0  0
  -20.5677  -26.2357   23.3622 H   0  0  0  0  0  0
  -21.6663  -26.7512   22.1221 H   0  0  0  0  0  0
  -19.7024  -25.6288   21.1262 H   0  0  0  0  0  0
  -19.6741  -27.3131   20.6669 H   0  0  0  0  0  0
  -17.4251  -26.6582   21.3968 H   0  0  0  0  0  0
  -18.0389  -26.0043   22.8907 H   0  0  0  0  0  0
  -19.7936  -30.7193   24.2332 H   0  0  0  0  0  0
  -17.5063  -31.6333   24.5114 H   0  0  0  0  0  0
  -15.5370  -30.3059   23.7713 H   0  0  0  0  0  0
  -15.8574  -28.0819   22.7220 H   0  0  0  0  0  0
  -24.5986  -30.6942   25.7741 H   0  0  0  0  0  0
  -24.8873  -32.2803   26.4811 H   0  0  0  0  0  0
  -25.8051  -30.8884   27.0230 H   0  0  0  0  0  0
  -26.3113  -29.6620   24.1333 H   0  0  0  0  0  0
  -27.4190  -29.7275   25.4809 H   0  0  0  0  0  0
  -27.8912  -30.4224   23.9517 H   0  0  0  0  0  0
  -27.2780  -33.3632   26.1947 H   0  0  0  0  0  0
  -28.3967  -32.6703   25.0323 H   0  0  0  0  0  0
  -28.0725  -31.8463   26.5487 H   0  0  0  0  0  0
  -28.2521  -38.0189   24.7742 H   0  0  0  0  0  0
  -28.1217  -36.2766   24.5966 H   0  0  0  0  0  0
  -27.2374  -37.1011   25.8853 H   0  0  0  0  0  0
  -20.9523  -29.8669   21.6646 H   0  0  0  0  0  0
  -26.0173  -38.2813   24.1562 H   0  0  0  0  0  0
  -29.3838  -22.1937   22.3360 H   0  0  0  0  0  0
  -28.2175  -21.9537   18.2362 H   0  0  0  0  0  0
  -29.1696  -24.6352   22.2340 H   0  0  0  0  0  0
  -27.9901  -24.3787   18.1476 H   0  0  0  0  0  0
  -28.9743  -15.4287   22.7496 H   0  0  0  0  0  0
  -30.5439  -16.1151   22.8855 H   0  0  0  0  0  0
  -30.6938  -17.3570   19.4315 H   0  0  0  0  0  0
  -28.9955  -17.2643   19.3980 H   0  0  0  0  0  0
  -28.8319  -17.6150   23.8189 H   0  0  0  0  0  0
  -27.9468  -17.6382   22.3135 H   0  0  0  0  0  0
  -30.7435  -19.3253   20.5679 H   0  0  0  0  0  0
  -27.8714  -19.9868   21.0684 H   0  0  0  0  0  0
  -30.7216  -18.5617   22.5888 H   0  0  0  0  0  0
  -29.4496  -19.5577   22.7191 H   0  0  0  0  0  0
  -27.7048  -18.7655   19.3177 H   0  0  0  0  0  0
  1 25  1  0  0  0
  1 30  2  0  0  0
  1 82  1  0  0  0
  2  3  1  0  0  0
  2 25  1  0  0  0
  2 85  1  0  0  0
  2 86  1  0  0  0
  3  4  1  0  0  0
  3 87  1  0  0  0
  3 88  1  0  0  0
  4  5  1  0  0  0
  4 89  1  0  0  0
  4 90  1  0  0  0
  5  6  1  0  0  0
  5 26  1  0  0  0
  5 91  1  0  0  0
  6 25  1  0  0  0
  6 92  1  0  0  0
  6 93  1  0  0  0
  7  8  2  0  0  0
  7 26  1  0  0  0
  7 29  1  0  0  0
  8  9  1  0  0  0
  8 22  1  0  0  0
  9 10  1  0  0  0
  9 27  2  0  0  0
 10 11  2  0  0  0
 10 15  1  0  0  0
 11 12  1  0  0  0
 11 94  1  0  0  0
 12 13  2  0  0  0
 12 95  1  0  0  0
 13 14  1  0  0  0
 13 31  1  0  0  0
 14 15  2  0  0  0
 14 96  1  0  0  0
 15 97  1  0  0  0
 16 17  2  0  0  0
 16 21  1  0  0  0
 16 31  1  0  0  0
 17 18  1  0  0  0
 17 98  1  0  0  0
 18 19  2  0  0  0
 18 99  1  0  0  0
 19 20  1  0  0  0
 19 24  1  0  0  0
 20 21  2  0  0  0
 20100  1  0  0  0
 21 23  1  0  0  0
 22 28  1  0  0  0
 22 32  2  0  0  0
 26 27  1  0  0  0
 28101  1  0  0  0
 28102  1  0  0  0
 29103  1  0  0  0
 29104  1  0  0  0
 33 34  1  0  0  0
 33 66  1  0  0  0
 33 70  2  0  0  0
 34 36  1  0  0  0
 34 59  1  0  0  0
 34105  1  0  0  0
 35 44  2  0  0  0
 35 45  1  0  0  0
 35 68  1  0  0  0
 36 56  1  0  0  0
 36106  1  0  0  0
 37 39  1  0  0  0
 37 47  1  0  0  0
 37 66  1  0  0  0
 37107  1  0  0  0
 38 43  2  0  0  0
 38 46  1  0  0  0
 38 47  1  0  0  0
 39 64  1  0  0  0
 39 67  2  0  0  0
 40 52  1  0  0  0
 40 53  2  0  0  0
 40 58  1  0  0  0
 41108  1  0  0  0
 41109  1  0  0  0
 41110  1  0  0  0
 41 48  1  0  0  0
 42 43  1  0  0  0
 42 66  1  0  0  0
 42111  1  0  0  0
 42112  1  0  0  0
 43 44  1  0  0  0
 44113  1  0  0  0
 45 46  2  0  0  0
 45114  1  0  0  0
 46115  1  0  0  0
 47116  1  0  0  0
 47117  1  0  0  0
 48 56  1  0  0  0
 48 65  1  0  0  0
 48118  1  0  0  0
 49 50  1  0  0  0
 49 53  1  0  0  0
 49 64  1  0  0  0
 49119  1  0  0  0
 50 51  1  0  0  0
 50120  1  0  0  0
 50121  1  0  0  0
 51 52  1  0  0  0
 51122  1  0  0  0
 51123  1  0  0  0
 52124  1  0  0  0
 52125  1  0  0  0
 53 54  1  0  0  0
 54 55  2  0  0  0
 54126  1  0  0  0
 55 57  1  0  0  0
 55127  1  0  0  0
 56 69  2  0  0  0
 57 58  2  0  0  0
 57128  1  0  0  0
 58129  1  0  0  0
 59 60  1  0  0  0
 59 61  1  0  0  0
 59 62  1  0  0  0
 60130  1  0  0  0
 60131  1  0  0  0
 60132  1  0  0  0
 61133  1  0  0  0
 61134  1  0  0  0
 61135  1  0  0  0
 62136  1  0  0  0
 62137  1  0  0  0
 62138  1  0  0  0
 63 65  1  0  0  0
 63139  1  0  0  0
 63140  1  0  0  0
 63141  1  0  0  0
 64142  1  0  0  0
 65143  1  0  0  0
 68 76  1  0  0  0
 71 73  2  0  0  0
 71 75  1  0  0  0
 71144  1  0  0  0
 72 74  1  0  0  0
 72 75  2  0  0  0
 72145  1  0  0  0
 73 76  1  0  0  0
 73146  1  0  0  0
 74 76  2  0  0  0
 74147  1  0  0  0
 75 81  1  0  0  0
 77 79  1  0  0  0
 77 82  1  0  0  0
 77148  1  0  0  0
 77149  1  0  0  0
 78 82  1  0  0  0
 78150  1  0  0  0
 78151  1  0  0  0
 78 80  1  0  0  0
 79 83  1  0  0  0
 79152  1  0  0  0
 79153  1  0  0  0
 80 81  1  0  0  0
 80 83  1  0  0  0
 80154  1  0  0  0
 81 84  1  0  0  0
 81155  1  0  0  0
 83156  1  0  0  0
 83157  1  0  0  0
 84158  1  0  0  0
M  CHG  1  83   1
M  ISO  4   1 100  68 101  76 101  82 100
M  END
> <chiral flag>
0

> <version>
0

> <s_m_source_file>
/data/baiqing/PycharmProjects/Reinvent-master-3.2/result/LINK_invent/BTK/process_docking_weight1_custom_sum_contain_oxygen_bond_distance_aromatic_linkinvent_7_9_3/rearranged_h_0130.sdf

> <i_m_source_file_index>
83

> <r_mmod_Potential_Energy-OPLS-2005>
426.228698730469

> <r_mmod_Stretch_Energy-OPLS-2005>
217.288299560547

> <r_mmod_Bend_Energy-OPLS-2005>
259.837066650391

> <r_mmod_Torsional_Energy-OPLS-2005>
423.399658203125

> <r_mmod_Improper_Torsional_Energy-OPLS-2005>
9.39633655548096

> <r_mmod_Van_der_Waal_Energy-OPLS-2005>
138.290542602539

> <r_mmod_Electrostatic_Energy-OPLS-2005>
-238.680709838867

> <r_mmod_Solvation_Energy-OPLS-2005>
-513.973266601562

> <b_mmod_Minimization_Converged-OPLS-2005>
0

> <r_mmod_RMS_Derivative-OPLS-2005>
7.8395881652832

$$$$
83
                    3D
 Structure written by MMmdl.
161169  0  0  1  0            999 V2000
  -30.7134  -14.4171   20.6017 C   0  0  0  0  0  0
  -30.4263  -12.2753   19.4115 C   0  0  0  0  0  0
  -29.4919  -12.5144   18.2047 C   0  0  0  0  0  0
  -28.0100  -12.3728   18.6106 C   0  0  0  0  0  0
  -27.6735  -13.1892   19.8848 C   0  0  2  0  0  0
  -28.7173  -12.9328   21.0002 C   0  0  0  0  0  0
  -25.2725  -13.8074   20.5703 C   0  0  0  0  0  0
  -24.1913  -13.0372   20.9145 C   0  0  0  0  0  0
  -24.6471  -11.6844   20.8802 C   0  0  0  0  0  0
  -23.9118  -10.4242   21.0488 C   0  0  0  0  0  0
  -24.3656   -9.4142   21.9252 C   0  0  0  0  0  0
  -23.6329   -8.2180   22.0768 C   0  0  0  0  0  0
  -22.4307   -8.0266   21.3556 C   0  0  0  0  0  0
  -21.9972   -9.0243   20.4645 C   0  0  0  0  0  0
  -22.7319  -10.2110   20.3110 C   0  0  0  0  0  0
  -21.6810   -6.0771   22.5292 C   0  0  0  0  0  0
  -21.4004   -6.5674   23.8231 C   0  0  0  0  0  0
  -21.3649   -5.6809   24.9184 C   0  0  0  0  0  0
  -21.6039   -4.3078   24.7222 C   0  0  0  0  0  0
  -21.8817   -3.8178   23.4345 C   0  0  0  0  0  0
  -21.9180   -4.7007   22.3401 C   0  0  0  0  0  0
  -22.7981  -13.5257   21.1738 C   0  0  0  0  0  0
  -22.1628   -4.2198   21.0976 F   0  0  0  0  0  0
  -21.5627   -3.4540   25.7722 F   0  0  0  0  0  0
  -30.0576  -13.2378   20.4558 N   0  0  0  0  0  0
  -26.3128  -12.9211   20.3450 N   0  0  0  0  0  0
  -25.9400  -11.6393   20.5851 N   0  0  0  0  0  0
  -22.0603  -12.8274   22.0308 N   0  0  0  0  0  0
  -25.4500  -15.1753   20.4052 N   0  0  0  0  0  0
  -31.7929  -14.6819   20.0641 O   0  0  0  0  0  0
  -21.6613   -6.8911   21.4260 O   0  0  0  0  0  0
  -22.3694  -14.5567   20.6586 O   0  0  0  0  0  0
  -24.6090  -31.8670   23.2133 C   0  0  0  0  0  0
  -25.8950  -32.4844   23.8426 C   0  0  1  0  0  0
  -27.2237  -27.4525   20.0644 C   0  0  0  0  0  0
  -25.5801  -33.8645   24.2343 N   0  0  0  0  0  0
  -23.3947  -30.4895   21.5620 C   0  0  2  0  0  0
  -24.8354  -28.9548   20.1290 C   0  0  0  0  0  0
  -22.7346  -29.4624   22.5085 C   0  0  0  0  0  0
  -18.0244  -28.1299   22.8540 C   0  0  0  0  0  0
  -24.1455  -36.7321   23.2651 C   0  0  0  0  0  0
  -25.9222  -30.8394   21.3604 C   0  0  0  0  0  0
  -25.9980  -29.4701   20.7146 C   0  0  0  0  0  0
  -27.1983  -28.7229   20.6867 C   0  0  0  0  0  0
  -26.0442  -26.9501   19.4778 C   0  0  0  0  0  0
  -24.8474  -27.6888   19.5193 C   0  0  0  0  0  0
  -23.5985  -29.8195   20.1787 C   0  0  0  0  0  0
  -25.4087  -36.3148   24.0362 C   0  0  1  0  0  0
  -20.5834  -28.3543   23.1402 C   0  0  2  0  0  0
  -20.6687  -26.9330   22.5378 C   0  0  0  0  0  0
  -19.5700  -26.6454   21.5122 C   0  0  0  0  0  0
  -18.1868  -26.7890   22.1558 C   0  0  0  0  0  0
  -19.1493  -28.8739   23.2990 C   0  0  0  0  0  0
  -18.9422  -30.1352   23.8990 C   0  0  0  0  0  0
  -17.6435  -30.6533   24.0542 C   0  0  0  0  0  0
  -25.8993  -34.9497   23.5160 C   0  0  0  0  0  0
  -16.5330  -29.9042   23.6299 C   0  0  0  0  0  0
  -16.7223  -28.6409   23.0424 C   0  0  0  0  0  0
  -26.4407  -31.6616   25.0737 C   0  0  0  0  0  0
  -25.3727  -31.3716   26.1543 C   0  0  0  0  0  0
  -27.0251  -30.3092   24.6037 C   0  0  0  0  0  0
  -27.5962  -32.4342   25.7497 C   0  0  0  0  0  0
  -27.5564  -37.1837   24.8480 C   0  0  0  0  0  0
  -21.4073  -29.2965   22.3824 N   0  0  0  0  0  0
  -26.4268  -37.3839   23.9424 N   0  0  0  0  0  0
  -24.6625  -31.0756   22.1049 N   0  0  0  0  0  0
  -23.4125  -28.8108   23.3057 O   0  0  0  0  0  0
  -28.3832  -26.7219   19.9661 O   0  0  0  0  0  0
  -26.5587  -34.8939   22.4738 O   0  0  0  0  0  0
  -23.5277  -32.1378   23.7541 O   0  0  0  0  0  0
  -28.7886  -23.1936   22.1248 C   0  0  0  0  0  0
  -28.4036  -24.2565   19.9769 C   0  0  0  0  0  0
  -28.5955  -23.0732   20.7310 C   0  0  0  0  0  0
  -28.7893  -24.4701   22.7295 C   0  0  0  0  0  0
  -28.4497  -25.5147   20.6281 C   0  0  0  0  0  0
  -28.9767  -24.6442   24.2221 C   0  0  0  0  0  0
  -27.4426  -20.9838   20.4106 C   0  0  0  0  0  0
  -30.1379  -16.7968   21.1952 C   0  0  0  0  0  0
  -27.6060  -19.4874   20.0562 C   0  0  0  0  0  0
  -28.8605  -17.4123   20.5850 C   0  0  0  0  0  0
  -28.6311  -25.5691   21.9635 N   0  3  0  0  0  0
  -28.6137  -21.8079   20.1098 N   0  0  0  0  0  0
  -30.0117  -15.3400   21.2710 N   0  0  0  0  0  0
  -28.8872  -18.8933   20.5075 N   0  3  0  0  0  0
  -31.4736  -12.3532   19.1144 H   0  0  0  0  0  0
  -30.3097  -11.2627   19.7987 H   0  0  0  0  0  0
  -29.7312  -11.8257   17.3941 H   0  0  0  0  0  0
  -29.6517  -13.5183   17.8070 H   0  0  0  0  0  0
  -27.7875  -11.3135   18.7584 H   0  0  0  0  0  0
  -27.3721  -12.7007   17.7899 H   0  0  0  0  0  0
  -27.7296  -14.2406   19.6011 H   0  0  0  0  0  0
  -28.6893  -11.8909   21.3203 H   0  0  0  0  0  0
  -28.4725  -13.5068   21.8951 H   0  0  0  0  0  0
  -25.2811   -9.5568   22.4820 H   0  0  0  0  0  0
  -24.0029   -7.4539   22.7460 H   0  0  0  0  0  0
  -21.0923   -8.8812   19.8898 H   0  0  0  0  0  0
  -22.3879  -10.9682   19.6203 H   0  0  0  0  0  0
  -21.2009   -7.6171   23.9778 H   0  0  0  0  0  0
  -21.1463   -6.0510   25.9091 H   0  0  0  0  0  0
  -22.0627   -2.7657   23.2813 H   0  0  0  0  0  0
  -22.4231  -11.9951   22.4703 H   0  0  0  0  0  0
  -21.1192  -13.1280   22.2401 H   0  0  0  0  0  0
  -24.6694  -15.8209   20.4527 H   0  0  0  0  0  0
  -26.2921  -15.5960   20.0347 H   0  0  0  0  0  0
  -26.7031  -32.5576   23.1203 H   0  0  0  0  0  0
  -25.0017  -33.9832   25.0541 H   0  0  0  0  0  0
  -22.6816  -31.3059   21.4237 H   0  0  0  0  0  0
  -23.3720  -35.9646   23.3355 H   0  0  0  0  0  0
  -24.3566  -36.8879   22.2058 H   0  0  0  0  0  0
  -23.7171  -37.6535   23.6622 H   0  0  0  0  0  0
  -26.0140  -31.6024   20.5853 H   0  0  0  0  0  0
  -26.8177  -30.9033   21.9674 H   0  0  0  0  0  0
  -28.1022  -29.1327   21.1166 H   0  0  0  0  0  0
  -26.0518  -25.9959   18.9707 H   0  0  0  0  0  0
  -23.9473  -27.2866   19.0739 H   0  0  0  0  0  0
  -23.7072  -30.5967   19.4202 H   0  0  0  0  0  0
  -22.7225  -29.2356   19.8861 H   0  0  0  0  0  0
  -25.1260  -36.2078   25.0862 H   0  0  0  0  0  0
  -20.9921  -28.2980   24.1531 H   0  0  0  0  0  0
  -20.5585  -26.2084   23.3479 H   0  0  0  0  0  0
  -21.6553  -26.7411   22.1159 H   0  0  0  0  0  0
  -19.6878  -25.6427   21.0977 H   0  0  0  0  0  0
  -19.6672  -27.3467   20.6785 H   0  0  0  0  0  0
  -17.4148  -26.6779   21.3922 H   0  0  0  0  0  0
  -18.0153  -25.9962   22.8842 H   0  0  0  0  0  0
  -19.7877  -30.7096   24.2506 H   0  0  0  0  0  0
  -17.5003  -31.6234   24.5091 H   0  0  0  0  0  0
  -15.5353  -30.2975   23.7593 H   0  0  0  0  0  0
  -15.8601  -28.0687   22.7237 H   0  0  0  0  0  0
  -24.5823  -30.7111   25.7958 H   0  0  0  0  0  0
  -24.8988  -32.2872   26.5102 H   0  0  0  0  0  0
  -25.8126  -30.8849   27.0261 H   0  0  0  0  0  0
  -26.2804  -29.6878   24.1034 H   0  0  0  0  0  0
  -27.4038  -29.7276   25.4453 H   0  0  0  0  0  0
  -27.8611  -30.4495   23.9174 H   0  0  0  0  0  0
  -27.2542  -33.3601   26.2155 H   0  0  0  0  0  0
  -28.3731  -32.6991   25.0302 H   0  0  0  0  0  0
  -28.0678  -31.8439   26.5372 H   0  0  0  0  0  0
  -28.2649  -38.0083   24.7518 H   0  0  0  0  0  0
  -28.0997  -36.2619   24.6326 H   0  0  0  0  0  0
  -27.2290  -37.1533   25.8891 H   0  0  0  0  0  0
  -20.9196  -29.8700   21.7091 H   0  0  0  0  0  0
  -26.0180  -38.2926   24.1432 H   0  0  0  0  0  0
  -28.9646  -22.3215   22.7359 H   0  0  0  0  0  0
  -28.2328  -24.2132   18.9129 H   0  0  0  0  0  0
  -29.1969  -25.6740   24.5074 H   0  0  0  0  0  0
  -29.8126  -24.0363   24.5571 H   0  0  0  0  0  0
  -28.0821  -24.3164   24.7540 H   0  0  0  0  0  0
  -26.5709  -21.3795   19.8837 H   0  0  0  0  0  0
  -27.2022  -21.0604   21.4688 H   0  0  0  0  0  0
  -30.2872  -17.1806   22.2049 H   0  0  0  0  0  0
  -31.0085  -17.1000   20.6135 H   0  0  0  0  0  0
  -27.4743  -19.3112   18.9878 H   0  0  0  0  0  0
  -26.7890  -18.9632   20.5485 H   0  0  0  0  0  0
  -28.0107  -17.1254   21.2018 H   0  0  0  0  0  0
  -28.6752  -16.9829   19.5984 H   0  0  0  0  0  0
  -28.6687  -26.4897   22.4019 H   0  0  0  0  0  0
  -28.7473  -21.9071   19.1075 H   0  0  0  0  0  0
  -29.1645  -14.9826   21.6864 H   0  0  0  0  0  0
  -29.0668  -19.2715   21.4201 H   0  0  0  0  0  0
  -29.6355  -19.1899   19.9015 H   0  0  0  0  0  0
  1 25  1  0  0  0
  1 30  2  0  0  0
  1 83  1  0  0  0
  2  3  1  0  0  0
  2 25  1  0  0  0
  2 85  1  0  0  0
  2 86  1  0  0  0
  3  4  1  0  0  0
  3 87  1  0  0  0
  3 88  1  0  0  0
  4  5  1  0  0  0
  4 89  1  0  0  0
  4 90  1  0  0  0
  5  6  1  0  0  0
  5 26  1  0  0  0
  5 91  1  0  0  0
  6 25  1  0  0  0
  6 92  1  0  0  0
  6 93  1  0  0  0
  7  8  2  0  0  0
  7 26  1  0  0  0
  7 29  1  0  0  0
  8  9  1  0  0  0
  8 22  1  0  0  0
  9 10  1  0  0  0
  9 27  2  0  0  0
 10 11  2  0  0  0
 10 15  1  0  0  0
 11 12  1  0  0  0
 11 94  1  0  0  0
 12 13  2  0  0  0
 12 95  1  0  0  0
 13 14  1  0  0  0
 13 31  1  0  0  0
 14 15  2  0  0  0
 14 96  1  0  0  0
 15 97  1  0  0  0
 16 17  2  0  0  0
 16 21  1  0  0  0
 16 31  1  0  0  0
 17 18  1  0  0  0
 17 98  1  0  0  0
 18 19  2  0  0  0
 18 99  1  0  0  0
 19 20  1  0  0  0
 19 24  1  0  0  0
 20 21  2  0  0  0
 20100  1  0  0  0
 21 23  1  0  0  0
 22 28  1  0  0  0
 22 32  2  0  0  0
 26 27  1  0  0  0
 28101  1  0  0  0
 28102  1  0  0  0
 29103  1  0  0  0
 29104  1  0  0  0
 33 34  1  0  0  0
 33 66  1  0  0  0
 33 70  2  0  0  0
 34 36  1  0  0  0
 34 59  1  0  0  0
 34105  1  0  0  0
 35 44  2  0  0  0
 35 45  1  0  0  0
 35 68  1  0  0  0
 36 56  1  0  0  0
 36106  1  0  0  0
 37 39  1  0  0  0
 37 47  1  0  0  0
 37 66  1  0  0  0
 37107  1  0  0  0
 38 43  2  0  0  0
 38 46  1  0  0  0
 38 47  1  0  0  0
 39 64  1  0  0  0
 39 67  2  0  0  0
 40 52  1  0  0  0
 40 53  2  0  0  0
 40 58  1  0  0  0
 41108  1  0  0  0
 41109  1  0  0  0
 41110  1  0  0  0
 41 48  1  0  0  0
 42 43  1  0  0  0
 42 66  1  0  0  0
 42111  1  0  0  0
 42112  1  0  0  0
 43 44  1  0  0  0
 44113  1  0  0  0
 45 46  2  0  0  0
 45114  1  0  0  0
 46115  1  0  0  0
 47116  1  0  0  0
 47117  1  0  0  0
 48 56  1  0  0  0
 48 65  1  0  0  0
 48118  1  0  0  0
 49 50  1  0  0  0
 49 53  1  0  0  0
 49 64  1  0  0  0
 49119  1  0  0  0
 50 51  1  0  0  0
 50120  1  0  0  0
 50121  1  0  0  0
 51 52  1  0  0  0
 51122  1  0  0  0
 51123  1  0  0  0
 52124  1  0  0  0
 52125  1  0  0  0
 53 54  1  0  0  0
 54 55  2  0  0  0
 54126  1  0  0  0
 55 57  1  0  0  0
 55127  1  0  0  0
 56 69  2  0  0  0
 57 58  2  0  0  0
 57128  1  0  0  0
 58129  1  0  0  0
 59 60  1  0  0  0
 59 61  1  0  0  0
 59 62  1  0  0  0
 60130  1  0  0  0
 60131  1  0  0  0
 60132  1  0  0  0
 61133  1  0  0  0
 61134  1  0  0  0
 61135  1  0  0  0
 62136  1  0  0  0
 62137  1  0  0  0
 62138  1  0  0  0
 63 65  1  0  0  0
 63139  1  0  0  0
 63140  1  0  0  0
 63141  1  0  0  0
 64142  1  0  0  0
 65143  1  0  0  0
 68 75  1  0  0  0
 71 73  2  0  0  0
 71 74  1  0  0  0
 71144  1  0  0  0
 72 73  1  0  0  0
 72 75  2  0  0  0
 72145  1  0  0  0
 73 82  1  0  0  0
 74 76  1  0  0  0
 74 81  2  0  0  0
 75 81  1  0  0  0
 76146  1  0  0  0
 76147  1  0  0  0
 76148  1  0  0  0
 77 79  1  0  0  0
 77 82  1  0  0  0
 77149  1  0  0  0
 77150  1  0  0  0
 78 80  1  0  0  0
 78 83  1  0  0  0
 78151  1  0  0  0
 78152  1  0  0  0
 79 84  1  0  0  0
 79153  1  0  0  0
 79154  1  0  0  0
 80 84  1  0  0  0
 80155  1  0  0  0
 80156  1  0  0  0
 81157  1  0  0  0
 82158  1  0  0  0
 83159  1  0  0  0
 84160  1  0  0  0
 84161  1  0  0  0
M  CHG  2  81   1  84   1
M  ISO  4   1 100  68 101  75 101  83 100
M  END
> <chiral flag>
0

> <version>
0

> <s_m_source_file>
/data/baiqing/PycharmProjects/Reinvent-master-3.2/result/LINK_invent/BTK/process_docking_weight1_custom_sum_contain_oxygen_bond_distance_aromatic_linkinvent_7_9_3/rearranged_h_0130.sdf

> <i_m_source_file_index>
84

> <r_mmod_Potential_Energy-OPLS-2005>
-401.396453857422

> <r_mmod_Stretch_Energy-OPLS-2005>
33.4908180236816

> <r_mmod_Bend_Energy-OPLS-2005>
91.4164047241211

> <r_mmod_Torsional_Energy-OPLS-2005>
249.222595214844

> <r_mmod_Improper_Torsional_Energy-OPLS-2005>
9.99084949493408

> <r_mmod_Van_der_Waal_Energy-OPLS-2005>
146.189926147461

> <r_mmod_Electrostatic_Energy-OPLS-2005>
-30.8258152008057

> <r_mmod_Solvation_Energy-OPLS-2005>
-909.760864257812

> <b_mmod_Minimization_Converged-OPLS-2005>
0

> <r_mmod_RMS_Derivative-OPLS-2005>
7.76829242706299

$$$$
84
                    3D
 Structure written by MMmdl.
160169  0  0  1  0            999 V2000
  -30.6926  -14.4411   20.6448 C   0  0  0  0  0  0
  -30.4287  -12.3085   19.4215 C   0  0  0  0  0  0
  -29.5004  -12.5361   18.2105 C   0  0  0  0  0  0
  -28.0217  -12.3793   18.6167 C   0  0  0  0  0  0
  -27.6678  -13.2031   19.8833 C   0  0  2  0  0  0
  -28.6994  -12.9437   21.0033 C   0  0  0  0  0  0
  -25.2610  -13.8167   20.5665 C   0  0  0  0  0  0
  -24.1850  -13.0450   20.9155 C   0  0  0  0  0  0
  -24.6394  -11.6912   20.8699 C   0  0  0  0  0  0
  -23.9057  -10.4301   21.0389 C   0  0  0  0  0  0
  -24.3609   -9.4221   21.9169 C   0  0  0  0  0  0
  -23.6293   -8.2254   22.0741 C   0  0  0  0  0  0
  -22.4271   -8.0290   21.3538 C   0  0  0  0  0  0
  -21.9902   -9.0258   20.4638 C   0  0  0  0  0  0
  -22.7228  -10.2139   20.3047 C   0  0  0  0  0  0
  -21.6853   -6.0746   22.5281 C   0  0  0  0  0  0
  -21.4015   -6.5645   23.8219 C   0  0  0  0  0  0
  -21.3655   -5.6793   24.9175 C   0  0  0  0  0  0
  -21.6048   -4.3057   24.7221 C   0  0  0  0  0  0
  -21.8818   -3.8155   23.4337 C   0  0  0  0  0  0
  -21.9189   -4.6973   22.3399 C   0  0  0  0  0  0
  -22.7875  -13.5245   21.1841 C   0  0  0  0  0  0
  -22.1657   -4.2160   21.0976 F   0  0  0  0  0  0
  -21.5624   -3.4541   25.7732 F   0  0  0  0  0  0
  -30.0440  -13.2551   20.4802 N   0  0  0  0  0  0
  -26.3045  -12.9329   20.3365 N   0  0  0  0  0  0
  -25.9313  -11.6489   20.5716 N   0  0  0  0  0  0
  -22.0525  -12.8227   22.0401 N   0  0  0  0  0  0
  -25.4371  -15.1884   20.4097 N   0  0  0  0  0  0
  -31.7369  -14.7284   20.0500 O   0  0  0  0  0  0
  -21.6636   -6.8884   21.4244 O   0  0  0  0  0  0
  -22.3554  -14.5556   20.6707 O   0  0  0  0  0  0
  -24.6156  -31.8681   23.2080 C   0  0  0  0  0  0
  -25.9042  -32.4832   23.8381 C   0  0  1  0  0  0
  -27.2431  -27.4301   20.0902 C   0  0  0  0  0  0
  -25.5898  -33.8623   24.2328 N   0  0  0  0  0  0
  -23.4031  -30.4908   21.5486 C   0  0  2  0  0  0
  -24.8479  -28.9499   20.1197 C   0  0  0  0  0  0
  -22.7389  -29.4677   22.4969 C   0  0  0  0  0  0
  -18.0278  -28.1367   22.8505 C   0  0  0  0  0  0
  -24.1488  -36.7320   23.2633 C   0  0  0  0  0  0
  -25.9301  -30.8314   21.3595 C   0  0  0  0  0  0
  -26.0080  -29.4628   20.7111 C   0  0  0  0  0  0
  -27.2036  -28.7094   20.6942 C   0  0  0  0  0  0
  -26.0520  -26.9220   19.5151 C   0  0  0  0  0  0
  -24.8644  -27.6773   19.5238 C   0  0  0  0  0  0
  -23.6122  -29.8192   20.1648 C   0  0  0  0  0  0
  -25.4107  -36.3119   24.0339 C   0  0  1  0  0  0
  -20.5856  -28.3690   23.1301 C   0  0  2  0  0  0
  -20.6758  -26.9434   22.5388 C   0  0  0  0  0  0
  -19.5736  -26.6409   21.5183 C   0  0  0  0  0  0
  -18.1937  -26.7902   22.1649 C   0  0  0  0  0  0
  -19.1515  -28.8844   23.2910 C   0  0  0  0  0  0
  -18.9431  -30.1449   23.8925 C   0  0  0  0  0  0
  -17.6435  -30.6591   24.0567 C   0  0  0  0  0  0
  -25.9034  -34.9485   23.5137 C   0  0  0  0  0  0
  -16.5326  -29.9083   23.6325 C   0  0  0  0  0  0
  -16.7269  -28.6499   23.0351 C   0  0  0  0  0  0
  -26.4467  -31.6593   25.0696 C   0  0  0  0  0  0
  -25.3730  -31.3695   26.1441 C   0  0  0  0  0  0
  -27.0298  -30.3039   24.6062 C   0  0  0  0  0  0
  -27.6064  -32.4286   25.7454 C   0  0  0  0  0  0
  -27.5584  -37.1816   24.8469 C   0  0  0  0  0  0
  -21.4117  -29.3065   22.3701 N   0  0  0  0  0  0
  -26.4304  -37.3787   23.9402 N   0  0  0  0  0  0
  -24.6683  -31.0769   22.0987 N   0  0  0  0  0  0
  -23.4151  -28.8209   23.3014 O   0  0  0  0  0  0
  -28.4509  -26.7543   20.0843 O   0  0  0  0  0  0
  -26.5596  -34.8943   22.4696 O   0  0  0  0  0  0
  -23.5357  -32.1423   23.7489 O   0  0  0  0  0  0
  -29.0144  -18.7027   22.5097 C   0  0  0  0  0  0
  -29.5149  -18.7350   20.1346 C   0  0  0  0  0  0
  -29.4274  -17.3554   22.5797 C   0  0  0  0  0  0
  -29.9452  -17.3891   20.2071 C   0  0  0  0  0  0
  -29.0227  -19.4018   21.2815 C   0  0  0  0  0  0
  -29.8769  -16.6744   21.4281 C   0  0  0  0  0  0
  -27.0659  -20.8569   20.4604 C   0  0  0  0  0  0
  -26.8541  -22.3612   20.2581 C   0  0  0  0  0  0
  -29.2030  -21.9403   20.5337 C   0  0  0  0  0  0
  -28.3978  -20.8048   21.2018 C   0  0  2  0  0  0
  -28.3382  -24.3472   20.6550 C   0  0  0  0  0  0
  -28.5631  -25.4193   19.5609 C   0  0  0  0  0  0
  -30.1270  -15.2721   21.5403 N   0  0  0  0  0  0
  -28.2038  -22.9627   20.0950 N   0  3  2  0  0  0
  -31.4745  -12.4190   19.1310 H   0  0  0  0  0  0
  -30.3309  -11.2858   19.7883 H   0  0  0  0  0  0
  -29.7478  -11.8412   17.4074 H   0  0  0  0  0  0
  -29.6633  -13.5362   17.8069 H   0  0  0  0  0  0
  -27.8372  -11.3200   18.8006 H   0  0  0  0  0  0
  -27.3729  -12.6623   17.7870 H   0  0  0  0  0  0
  -27.7255  -14.2565   19.6087 H   0  0  0  0  0  0
  -28.6666  -11.8973   21.3103 H   0  0  0  0  0  0
  -28.4321  -13.5052   21.8984 H   0  0  0  0  0  0
  -25.2753   -9.5700   22.4734 H   0  0  0  0  0  0
  -24.0007   -7.4648   22.7456 H   0  0  0  0  0  0
  -21.0834   -8.8776   19.8942 H   0  0  0  0  0  0
  -22.3692  -10.9670   19.6148 H   0  0  0  0  0  0
  -21.2012   -7.6153   23.9728 H   0  0  0  0  0  0
  -21.1473   -6.0515   25.9080 H   0  0  0  0  0  0
  -22.0597   -2.7617   23.2831 H   0  0  0  0  0  0
  -22.4134  -11.9864   22.4748 H   0  0  0  0  0  0
  -21.1155  -13.1257   22.2642 H   0  0  0  0  0  0
  -24.6771  -15.8518   20.5133 H   0  0  0  0  0  0
  -26.3075  -15.6242   20.1304 H   0  0  0  0  0  0
  -26.7099  -32.5546   23.1139 H   0  0  0  0  0  0
  -25.0050  -33.9779   25.0476 H   0  0  0  0  0  0
  -22.6938  -31.3088   21.4048 H   0  0  0  0  0  0
  -23.3754  -35.9651   23.3317 H   0  0  0  0  0  0
  -24.3591  -36.8912   22.2047 H   0  0  0  0  0  0
  -23.7250  -37.6531   23.6633 H   0  0  0  0  0  0
  -26.0373  -31.5930   20.5856 H   0  0  0  0  0  0
  -26.8216  -30.8910   21.9732 H   0  0  0  0  0  0
  -28.1019  -29.1085   21.1453 H   0  0  0  0  0  0
  -26.0024  -25.9484   19.0527 H   0  0  0  0  0  0
  -23.9673  -27.2714   19.0744 H   0  0  0  0  0  0
  -23.7219  -30.5879   19.4004 H   0  0  0  0  0  0
  -22.7353  -29.2386   19.8717 H   0  0  0  0  0  0
  -25.1290  -36.1991   25.0834 H   0  0  0  0  0  0
  -20.9960  -28.3282   24.1414 H   0  0  0  0  0  0
  -20.5640  -26.2317   23.3582 H   0  0  0  0  0  0
  -21.6626  -26.7474   22.1197 H   0  0  0  0  0  0
  -19.6959  -25.6333   21.1186 H   0  0  0  0  0  0
  -19.6637  -27.3234   20.6725 H   0  0  0  0  0  0
  -17.4146  -26.6579   21.4102 H   0  0  0  0  0  0
  -18.0441  -26.0045   22.9078 H   0  0  0  0  0  0
  -19.7910  -30.7265   24.2319 H   0  0  0  0  0  0
  -17.4985  -31.6292   24.5128 H   0  0  0  0  0  0
  -15.5319  -30.2994   23.7629 H   0  0  0  0  0  0
  -15.8672  -28.0823   22.7051 H   0  0  0  0  0  0
  -24.5914  -30.7041   25.7762 H   0  0  0  0  0  0
  -24.8915  -32.2854   26.4876 H   0  0  0  0  0  0
  -25.8086  -30.8860   27.0200 H   0  0  0  0  0  0
  -26.2846  -29.6790   24.1128 H   0  0  0  0  0  0
  -27.4090  -29.7276   25.4510 H   0  0  0  0  0  0
  -27.8665  -30.4355   23.9199 H   0  0  0  0  0  0
  -27.2711  -33.3575   26.2076 H   0  0  0  0  0  0
  -28.3855  -32.6852   25.0267 H   0  0  0  0  0  0
  -28.0748  -31.8368   26.5327 H   0  0  0  0  0  0
  -28.2617  -38.0092   24.7495 H   0  0  0  0  0  0
  -28.1064  -36.2634   24.6327 H   0  0  0  0  0  0
  -27.2303  -37.1505   25.8868 H   0  0  0  0  0  0
  -20.9282  -29.8774   21.6902 H   0  0  0  0  0  0
  -26.0209  -38.2874   24.1384 H   0  0  0  0  0  0
  -28.6403  -19.1783   23.4063 H   0  0  0  0  0  0
  -29.5213  -19.2325   19.1744 H   0  0  0  0  0  0
  -29.3600  -16.8384   23.5270 H   0  0  0  0  0  0
  -30.2706  -16.9021   19.2987 H   0  0  0  0  0  0
  -27.1393  -20.3574   19.4944 H   0  0  0  0  0  0
  -26.2549  -20.3897   21.0203 H   0  0  0  0  0  0
  -26.3570  -22.7557   21.1460 H   0  0  0  0  0  0
  -26.2111  -22.5798   19.4044 H   0  0  0  0  0  0
  -29.7030  -21.5743   19.6365 H   0  0  0  0  0  0
  -29.9807  -22.3296   21.1911 H   0  0  0  0  0  0
  -28.2080  -21.1289   22.2269 H   0  0  0  0  0  0
  -27.4494  -24.6181   21.2238 H   0  0  0  0  0  0
  -29.1620  -24.4017   21.3683 H   0  0  0  0  0  0
  -29.5809  -25.3127   19.1825 H   0  0  0  0  0  0
  -27.9321  -25.2625   18.6880 H   0  0  0  0  0  0
  -29.5269  -14.7984   22.1980 H   0  0  0  0  0  0
  -28.3503  -23.0415   19.0983 H   0  0  0  0  0  0
  1 25  1  0  0  0
  1 30  2  0  0  0
  1 83  1  0  0  0
  2  3  1  0  0  0
  2 25  1  0  0  0
  2 85  1  0  0  0
  2 86  1  0  0  0
  3  4  1  0  0  0
  3 87  1  0  0  0
  3 88  1  0  0  0
  4  5  1  0  0  0
  4 89  1  0  0  0
  4 90  1  0  0  0
  5  6  1  0  0  0
  5 26  1  0  0  0
  5 91  1  0  0  0
  6 25  1  0  0  0
  6 92  1  0  0  0
  6 93  1  0  0  0
  7  8  2  0  0  0
  7 26  1  0  0  0
  7 29  1  0  0  0
  8  9  1  0  0  0
  8 22  1  0  0  0
  9 10  1  0  0  0
  9 27  2  0  0  0
 10 11  2  0  0  0
 10 15  1  0  0  0
 11 12  1  0  0  0
 11 94  1  0  0  0
 12 13  2  0  0  0
 12 95  1  0  0  0
 13 14  1  0  0  0
 13 31  1  0  0  0
 14 15  2  0  0  0
 14 96  1  0  0  0
 15 97  1  0  0  0
 16 17  2  0  0  0
 16 21  1  0  0  0
 16 31  1  0  0  0
 17 18  1  0  0  0
 17 98  1  0  0  0
 18 19  2  0  0  0
 18 99  1  0  0  0
 19 20  1  0  0  0
 19 24  1  0  0  0
 20 21  2  0  0  0
 20100  1  0  0  0
 21 23  1  0  0  0
 22 28  1  0  0  0
 22 32  2  0  0  0
 26 27  1  0  0  0
 28101  1  0  0  0
 28102  1  0  0  0
 29103  1  0  0  0
 29104  1  0  0  0
 33 34  1  0  0  0
 33 66  1  0  0  0
 33 70  2  0  0  0
 34 36  1  0  0  0
 34 59  1  0  0  0
 34105  1  0  0  0
 35 44  2  0  0  0
 35 45  1  0  0  0
 35 68  1  0  0  0
 36 56  1  0  0  0
 36106  1  0  0  0
 37 39  1  0  0  0
 37 47  1  0  0  0
 37 66  1  0  0  0
 37107  1  0  0  0
 38 43  2  0  0  0
 38 46  1  0  0  0
 38 47  1  0  0  0
 39 64  1  0  0  0
 39 67  2  0  0  0
 40 52  1  0  0  0
 40 53  2  0  0  0
 40 58  1  0  0  0
 41108  1  0  0  0
 41109  1  0  0  0
 41110  1  0  0  0
 41 48  1  0  0  0
 42 43  1  0  0  0
 42 66  1  0  0  0
 42111  1  0  0  0
 42112  1  0  0  0
 43 44  1  0  0  0
 44113  1  0  0  0
 45 46  2  0  0  0
 45114  1  0  0  0
 46115  1  0  0  0
 47116  1  0  0  0
 47117  1  0  0  0
 48 56  1  0  0  0
 48 65  1  0  0  0
 48118  1  0  0  0
 49 50  1  0  0  0
 49 53  1  0  0  0
 49 64  1  0  0  0
 49119  1  0  0  0
 50 51  1  0  0  0
 50120  1  0  0  0
 50121  1  0  0  0
 51 52  1  0  0  0
 51122  1  0  0  0
 51123  1  0  0  0
 52124  1  0  0  0
 52125  1  0  0  0
 53 54  1  0  0  0
 54 55  2  0  0  0
 54126  1  0  0  0
 55 57  1  0  0  0
 55127  1  0  0  0
 56 69  2  0  0  0
 57 58  2  0  0  0
 57128  1  0  0  0
 58129  1  0  0  0
 59 60  1  0  0  0
 59 61  1  0  0  0
 59 62  1  0  0  0
 60130  1  0  0  0
 60131  1  0  0  0
 60132  1  0  0  0
 61133  1  0  0  0
 61134  1  0  0  0
 61135  1  0  0  0
 62136  1  0  0  0
 62137  1  0  0  0
 62138  1  0  0  0
 63 65  1  0  0  0
 63139  1  0  0  0
 63140  1  0  0  0
 63141  1  0  0  0
 64142  1  0  0  0
 65143  1  0  0  0
 68 82  1  0  0  0
 71 73  2  0  0  0
 71 75  1  0  0  0
 71144  1  0  0  0
 72 74  1  0  0  0
 72 75  2  0  0  0
 72145  1  0  0  0
 73 76  1  0  0  0
 73146  1  0  0  0
 74 76  2  0  0  0
 74147  1  0  0  0
 75 80  1  0  0  0
 76 83  1  0  0  0
 77 78  1  0  0  0
 77 80  1  0  0  0
 77148  1  0  0  0
 77149  1  0  0  0
 78 84  1  0  0  0
 78150  1  0  0  0
 78151  1  0  0  0
 79 80  1  0  0  0
 79 84  1  0  0  0
 79152  1  0  0  0
 79153  1  0  0  0
 80154  1  0  0  0
 81 82  1  0  0  0
 81155  1  0  0  0
 81156  1  0  0  0
 81 84  1  0  0  0
 82157  1  0  0  0
 82158  1  0  0  0
 83159  1  0  0  0
 84160  1  0  0  0
M  CHG  1  84   1
M  ISO  4   1 100  68 101  82 101  83 100
M  END
> <chiral flag>
0

> <version>
0

> <s_m_source_file>
/data/baiqing/PycharmProjects/Reinvent-master-3.2/result/LINK_invent/BTK/process_docking_weight1_custom_sum_contain_oxygen_bond_distance_aromatic_linkinvent_7_9_3/rearranged_h_0130.sdf

> <i_m_source_file_index>
85

> <r_mmod_Potential_Energy-OPLS-2005>
-53.6700477600098

> <r_mmod_Stretch_Energy-OPLS-2005>
39.1992034912109

> <r_mmod_Bend_Energy-OPLS-2005>
137.49250793457

> <r_mmod_Torsional_Energy-OPLS-2005>
287.275604248047

> <r_mmod_Improper_Torsional_Energy-OPLS-2005>
4.16140794754028

> <r_mmod_Van_der_Waal_Energy-OPLS-2005>
149.606567382812

> <r_mmod_Electrostatic_Energy-OPLS-2005>
-239.968307495117

> <r_mmod_Solvation_Energy-OPLS-2005>
-442.172790527344

> <b_mmod_Minimization_Converged-OPLS-2005>
0

> <r_mmod_RMS_Derivative-OPLS-2005>
1.97920560836792

$$$$
85
                    3D
 Structure written by MMmdl.
169178  0  0  1  0            999 V2000
  -30.6598  -14.5343   20.5465 C   0  0  0  0  0  0
  -30.4340  -12.3338   19.4331 C   0  0  0  0  0  0
  -29.5033  -12.5030   18.2131 C   0  0  0  0  0  0
  -28.0245  -12.3555   18.6233 C   0  0  0  0  0  0
  -27.6609  -13.2048   19.8708 C   0  0  2  0  0  0
  -28.7026  -13.0002   20.9943 C   0  0  0  0  0  0
  -25.2598  -13.8146   20.5680 C   0  0  0  0  0  0
  -24.1842  -13.0432   20.9178 C   0  0  0  0  0  0
  -24.6388  -11.6894   20.8717 C   0  0  0  0  0  0
  -23.9043  -10.4287   21.0389 C   0  0  0  0  0  0
  -24.3598   -9.4209   21.9167 C   0  0  0  0  0  0
  -23.6278   -8.2241   22.0743 C   0  0  0  0  0  0
  -22.4258   -8.0277   21.3541 C   0  0  0  0  0  0
  -21.9886   -9.0250   20.4647 C   0  0  0  0  0  0
  -22.7209  -10.2131   20.3046 C   0  0  0  0  0  0
  -21.6855   -6.0722   22.5275 C   0  0  0  0  0  0
  -21.4020   -6.5622   23.8206 C   0  0  0  0  0  0
  -21.3658   -5.6781   24.9171 C   0  0  0  0  0  0
  -21.6041   -4.3044   24.7224 C   0  0  0  0  0  0
  -21.8821   -3.8134   23.4348 C   0  0  0  0  0  0
  -21.9199   -4.6951   22.3403 C   0  0  0  0  0  0
  -22.7867  -13.5241   21.1840 C   0  0  0  0  0  0
  -22.1666   -4.2133   21.0978 F   0  0  0  0  0  0
  -21.5626   -3.4531   25.7740 F   0  0  0  0  0  0
  -30.0304  -13.3262   20.4444 N   0  0  0  0  0  0
  -26.3020  -12.9311   20.3330 N   0  0  0  0  0  0
  -25.9311  -11.6475   20.5726 N   0  0  0  0  0  0
  -22.0507  -12.8252   22.0409 N   0  0  0  0  0  0
  -25.4329  -15.1865   20.4108 N   0  0  0  0  0  0
  -31.8002  -14.7115   20.1037 O   0  0  0  0  0  0
  -21.6635   -6.8865   21.4236 O   0  0  0  0  0  0
  -22.3557  -14.5544   20.6681 O   0  0  0  0  0  0
  -24.6173  -31.8652   23.2075 C   0  0  0  0  0  0
  -25.9056  -32.4807   23.8374 C   0  0  1  0  0  0
  -27.2383  -27.4117   20.0851 C   0  0  0  0  0  0
  -25.5900  -33.8609   24.2303 N   0  0  0  0  0  0
  -23.4070  -30.4877   21.5493 C   0  0  2  0  0  0
  -24.8545  -28.9514   20.1108 C   0  0  0  0  0  0
  -22.7429  -29.4635   22.4975 C   0  0  0  0  0  0
  -18.0274  -28.1381   22.8482 C   0  0  0  0  0  0
  -24.1486  -36.7308   23.2634 C   0  0  0  0  0  0
  -25.9394  -30.8217   21.3660 C   0  0  0  0  0  0
  -26.0173  -29.4557   20.7078 C   0  0  0  0  0  0
  -27.2109  -28.6922   20.6944 C   0  0  0  0  0  0
  -26.0521  -26.9209   19.4981 C   0  0  0  0  0  0
  -24.8680  -27.6838   19.5035 C   0  0  0  0  0  0
  -23.6170  -29.8206   20.1637 C   0  0  0  0  0  0
  -25.4101  -36.3100   24.0339 C   0  0  1  0  0  0
  -20.5868  -28.3662   23.1319 C   0  0  2  0  0  0
  -20.6760  -26.9386   22.5439 C   0  0  0  0  0  0
  -19.5750  -26.6379   21.5219 C   0  0  0  0  0  0
  -18.1921  -26.7930   22.1610 C   0  0  0  0  0  0
  -19.1526  -28.8837   23.2900 C   0  0  0  0  0  0
  -18.9452  -30.1445   23.8909 C   0  0  0  0  0  0
  -17.6451  -30.6581   24.0568 C   0  0  0  0  0  0
  -25.9039  -34.9468   23.5119 C   0  0  0  0  0  0
  -16.5342  -29.9080   23.6328 C   0  0  0  0  0  0
  -16.7264  -28.6505   23.0335 C   0  0  0  0  0  0
  -26.4471  -31.6604   25.0719 C   0  0  0  0  0  0
  -25.3739  -31.3762   26.1481 C   0  0  0  0  0  0
  -27.0277  -30.3022   24.6130 C   0  0  0  0  0  0
  -27.6061  -32.4327   25.7458 C   0  0  0  0  0  0
  -27.5595  -37.1778   24.8444 C   0  0  0  0  0  0
  -21.4152  -29.3020   22.3722 N   0  0  0  0  0  0
  -26.4282  -37.3791   23.9430 N   0  0  0  0  0  0
  -24.6728  -31.0730   22.0990 N   0  0  0  0  0  0
  -23.4188  -28.8177   23.3028 O   0  0  0  0  0  0
  -28.3794  -26.6268   20.1358 O   0  0  0  0  0  0
  -26.5606  -34.8932   22.4684 O   0  0  0  0  0  0
  -23.5363  -32.1422   23.7458 O   0  0  0  0  0  0
  -28.9662  -19.0891   21.6629 C   0  0  0  0  0  0
  -28.9699  -17.6759   21.6572 C   0  0  0  0  0  0
  -28.6407  -26.2127   17.7008 C   0  0  0  0  0  0
  -29.2419  -25.2549   16.9460 C   0  0  0  0  0  0
  -29.9803  -19.8002   20.9862 C   0  0  0  0  0  0
  -28.7500  -25.8295   19.0672 C   0  0  0  0  0  0
  -30.9477  -19.0090   20.3116 C   0  0  0  0  0  0
  -29.3603  -24.5818   19.1070 C   0  0  0  0  0  0
  -29.9844  -16.9568   20.9879 C   0  0  0  0  0  0
  -32.1011  -19.6344   19.5493 C   0  0  0  0  0  0
  -31.8919  -23.7266   16.7133 C   0  0  0  0  0  0
  -29.8296  -22.2947   16.3091 C   0  0  0  0  0  0
  -30.0939  -21.3451   21.1473 C   0  0  0  0  0  0
  -29.7250  -23.6815   20.2871 C   0  0  0  0  0  0
  -30.5857  -23.1815   17.3104 C   0  0  0  0  0  0
  -30.9395  -17.6478   20.3155 N   0  0  0  0  0  0
  -29.7456  -24.2810   17.7910 N   0  0  0  0  0  0
  -29.8938  -15.5248   21.0680 N   0  0  0  0  0  0
  -29.3820  -22.2246   20.1662 N   0  3  0  0  0  0
  -31.4766  -12.4462   19.1300 H   0  0  0  0  0  0
  -30.3505  -11.3262   19.8425 H   0  0  0  0  0  0
  -29.7535  -11.7690   17.4455 H   0  0  0  0  0  0
  -29.6645  -13.4829   17.7611 H   0  0  0  0  0  0
  -27.8441  -11.2998   18.8331 H   0  0  0  0  0  0
  -27.3744  -12.6146   17.7868 H   0  0  0  0  0  0
  -27.7007  -14.2490   19.5609 H   0  0  0  0  0  0
  -28.6912  -11.9637   21.3352 H   0  0  0  0  0  0
  -28.4522  -13.5945   21.8740 H   0  0  0  0  0  0
  -25.2746   -9.5688   22.4737 H   0  0  0  0  0  0
  -23.9997   -7.4631   22.7457 H   0  0  0  0  0  0
  -21.0811   -8.8760   19.8959 H   0  0  0  0  0  0
  -22.3654  -10.9663   19.6154 H   0  0  0  0  0  0
  -21.2010   -7.6133   23.9703 H   0  0  0  0  0  0
  -21.1476   -6.0513   25.9074 H   0  0  0  0  0  0
  -22.0603   -2.7598   23.2855 H   0  0  0  0  0  0
  -22.4111  -11.9920   22.4815 H   0  0  0  0  0  0
  -21.1125  -13.1293   22.2605 H   0  0  0  0  0  0
  -24.6633  -15.8391   20.5153 H   0  0  0  0  0  0
  -26.2780  -15.6260   20.0688 H   0  0  0  0  0  0
  -26.7118  -32.5507   23.1126 H   0  0  0  0  0  0
  -25.0048  -33.9764   25.0446 H   0  0  0  0  0  0
  -22.6964  -31.3054   21.4099 H   0  0  0  0  0  0
  -23.3765  -35.9620   23.3258 H   0  0  0  0  0  0
  -24.3596  -36.8965   22.2059 H   0  0  0  0  0  0
  -23.7221  -37.6491   23.6680 H   0  0  0  0  0  0
  -26.0607  -31.5897   20.6010 H   0  0  0  0  0  0
  -26.8235  -30.8699   21.9901 H   0  0  0  0  0  0
  -28.1068  -29.0722   21.1648 H   0  0  0  0  0  0
  -26.0370  -25.9393   19.0465 H   0  0  0  0  0  0
  -23.9720  -27.2838   19.0488 H   0  0  0  0  0  0
  -23.7264  -30.5968   19.4055 H   0  0  0  0  0  0
  -22.7395  -29.2434   19.8670 H   0  0  0  0  0  0
  -25.1272  -36.1945   25.0829 H   0  0  0  0  0  0
  -20.9958  -28.3235   24.1441 H   0  0  0  0  0  0
  -20.5647  -26.2263   23.3628 H   0  0  0  0  0  0
  -21.6637  -26.7425   22.1248 H   0  0  0  0  0  0
  -19.6913  -25.6293   21.1240 H   0  0  0  0  0  0
  -19.6704  -27.3195   20.6757 H   0  0  0  0  0  0
  -17.4203  -26.6696   21.3993 H   0  0  0  0  0  0
  -18.0293  -26.0068   22.8995 H   0  0  0  0  0  0
  -19.7928  -30.7258   24.2277 H   0  0  0  0  0  0
  -17.5007  -31.6257   24.5172 H   0  0  0  0  0  0
  -15.5340  -30.2977   23.7658 H   0  0  0  0  0  0
  -15.8666  -28.0833   22.7028 H   0  0  0  0  0  0
  -24.5893  -30.7108   25.7853 H   0  0  0  0  0  0
  -24.8948  -32.2943   26.4896 H   0  0  0  0  0  0
  -25.8092  -30.8970   27.0257 H   0  0  0  0  0  0
  -26.2808  -29.6796   24.1185 H   0  0  0  0  0  0
  -27.4007  -29.7256   25.4606 H   0  0  0  0  0  0
  -27.8673  -30.4298   23.9294 H   0  0  0  0  0  0
  -27.2681  -33.3610   26.2076 H   0  0  0  0  0  0
  -28.3828  -32.6919   25.0253 H   0  0  0  0  0  0
  -28.0776  -31.8437   26.5333 H   0  0  0  0  0  0
  -28.2570  -38.0117   24.7567 H   0  0  0  0  0  0
  -28.1127  -36.2659   24.6144 H   0  0  0  0  0  0
  -27.2346  -37.1301   25.8851 H   0  0  0  0  0  0
  -20.9313  -29.8734   21.6935 H   0  0  0  0  0  0
  -26.0166  -38.2854   24.1488 H   0  0  0  0  0  0
  -28.2050  -19.6171   22.2193 H   0  0  0  0  0  0
  -28.1907  -17.1544   22.1965 H   0  0  0  0  0  0
  -28.2069  -27.1240   17.3129 H   0  0  0  0  0  0
  -29.4019  -25.2041   15.8769 H   0  0  0  0  0  0
  -31.7366  -20.3698   18.8339 H   0  0  0  0  0  0
  -32.6618  -18.8851   18.9899 H   0  0  0  0  0  0
  -32.7946  -20.1253   20.2318 H   0  0  0  0  0  0
  -32.5486  -22.9156   16.3981 H   0  0  0  0  0  0
  -32.4370  -24.3235   17.4452 H   0  0  0  0  0  0
  -31.7098  -24.3583   15.8442 H   0  0  0  0  0  0
  -30.4311  -21.4313   16.0227 H   0  0  0  0  0  0
  -29.5846  -22.8379   15.3960 H   0  0  0  0  0  0
  -28.8971  -21.9206   16.7322 H   0  0  0  0  0  0
  -31.1530  -21.6059   21.1504 H   0  0  0  0  0  0
  -29.7417  -21.6073   22.1466 H   0  0  0  0  0  0
  -29.2503  -24.0662   21.1909 H   0  0  0  0  0  0
  -30.7977  -23.7810   20.4581 H   0  0  0  0  0  0
  -30.8832  -22.5596   18.1493 H   0  0  0  0  0  0
  -29.0370  -15.1855   21.4722 H   0  0  0  0  0  0
  -28.3865  -22.1240   20.2800 H   0  0  0  0  0  0
  -29.6115  -21.9283   19.2353 H   0  0  0  0  0  0
  1 25  1  0  0  0
  1 30  2  0  0  0
  1 88  1  0  0  0
  2  3  1  0  0  0
  2 25  1  0  0  0
  2 90  1  0  0  0
  2 91  1  0  0  0
  3  4  1  0  0  0
  3 92  1  0  0  0
  3 93  1  0  0  0
  4  5  1  0  0  0
  4 94  1  0  0  0
  4 95  1  0  0  0
  5  6  1  0  0  0
  5 26  1  0  0  0
  5 96  1  0  0  0
  6 25  1  0  0  0
  6 97  1  0  0  0
  6 98  1  0  0  0
  7  8  2  0  0  0
  7 26  1  0  0  0
  7 29  1  0  0  0
  8  9  1  0  0  0
  8 22  1  0  0  0
  9 10  1  0  0  0
  9 27  2  0  0  0
 10 11  2  0  0  0
 10 15  1  0  0  0
 11 12  1  0  0  0
 11 99  1  0  0  0
 12 13  2  0  0  0
 12100  1  0  0  0
 13 14  1  0  0  0
 13 31  1  0  0  0
 14 15  2  0  0  0
 14101  1  0  0  0
 15102  1  0  0  0
 16 17  2  0  0  0
 16 21  1  0  0  0
 16 31  1  0  0  0
 17 18  1  0  0  0
 17103  1  0  0  0
 18 19  2  0  0  0
 18104  1  0  0  0
 19 20  1  0  0  0
 19 24  1  0  0  0
 20 21  2  0  0  0
 20105  1  0  0  0
 21 23  1  0  0  0
 22 28  1  0  0  0
 22 32  2  0  0  0
 26 27  1  0  0  0
 28106  1  0  0  0
 28107  1  0  0  0
 29108  1  0  0  0
 29109  1  0  0  0
 33 34  1  0  0  0
 33 66  1  0  0  0
 33 70  2  0  0  0
 34 36  1  0  0  0
 34 59  1  0  0  0
 34110  1  0  0  0
 35 44  2  0  0  0
 35 45  1  0  0  0
 35 68  1  0  0  0
 36 56  1  0  0  0
 36111  1  0  0  0
 37 39  1  0  0  0
 37 47  1  0  0  0
 37 66  1  0  0  0
 37112  1  0  0  0
 38 43  2  0  0  0
 38 46  1  0  0  0
 38 47  1  0  0  0
 39 64  1  0  0  0
 39 67  2  0  0  0
 40 52  1  0  0  0
 40 53  2  0  0  0
 40 58  1  0  0  0
 41113  1  0  0  0
 41114  1  0  0  0
 41115  1  0  0  0
 41 48  1  0  0  0
 42 43  1  0  0  0
 42 66  1  0  0  0
 42116  1  0  0  0
 42117  1  0  0  0
 43 44  1  0  0  0
 44118  1  0  0  0
 45 46  2  0  0  0
 45119  1  0  0  0
 46120  1  0  0  0
 47121  1  0  0  0
 47122  1  0  0  0
 48 56  1  0  0  0
 48 65  1  0  0  0
 48123  1  0  0  0
 49 50  1  0  0  0
 49 53  1  0  0  0
 49 64  1  0  0  0
 49124  1  0  0  0
 50 51  1  0  0  0
 50125  1  0  0  0
 50126  1  0  0  0
 51 52  1  0  0  0
 51127  1  0  0  0
 51128  1  0  0  0
 52129  1  0  0  0
 52130  1  0  0  0
 53 54  1  0  0  0
 54 55  2  0  0  0
 54131  1  0  0  0
 55 57  1  0  0  0
 55132  1  0  0  0
 56 69  2  0  0  0
 57 58  2  0  0  0
 57133  1  0  0  0
 58134  1  0  0  0
 59 60  1  0  0  0
 59 61  1  0  0  0
 59 62  1  0  0  0
 60135  1  0  0  0
 60136  1  0  0  0
 60137  1  0  0  0
 61138  1  0  0  0
 61139  1  0  0  0
 61140  1  0  0  0
 62141  1  0  0  0
 62142  1  0  0  0
 62143  1  0  0  0
 63 65  1  0  0  0
 63144  1  0  0  0
 63145  1  0  0  0
 63146  1  0  0  0
 64147  1  0  0  0
 65148  1  0  0  0
 68 76  1  0  0  0
 71 72  2  0  0  0
 71 75  1  0  0  0
 71149  1  0  0  0
 72 79  1  0  0  0
 72150  1  0  0  0
 73 74  2  0  0  0
 73 76  1  0  0  0
 73151  1  0  0  0
 74 87  1  0  0  0
 74152  1  0  0  0
 75 77  2  0  0  0
 75 83  1  0  0  0
 76 78  2  0  0  0
 77 80  1  0  0  0
 77 86  1  0  0  0
 78 84  1  0  0  0
 78 87  1  0  0  0
 79 86  2  0  0  0
 79 88  1  0  0  0
 80153  1  0  0  0
 80154  1  0  0  0
 80155  1  0  0  0
 81156  1  0  0  0
 81157  1  0  0  0
 81158  1  0  0  0
 81 85  1  0  0  0
 82 85  1  0  0  0
 82159  1  0  0  0
 82160  1  0  0  0
 82161  1  0  0  0
 83 89  1  0  0  0
 83162  1  0  0  0
 83163  1  0  0  0
 84 89  1  0  0  0
 84164  1  0  0  0
 84165  1  0  0  0
 85 87  1  0  0  0
 85166  1  0  0  0
 88167  1  0  0  0
 89168  1  0  0  0
 89169  1  0  0  0
M  CHG  1  89   1
M  ISO  4   1 100  68 101  76 101  88 100
M  END
> <chiral flag>
0

> <version>
0

> <s_m_source_file>
/data/baiqing/PycharmProjects/Reinvent-master-3.2/result/LINK_invent/BTK/process_docking_weight1_custom_sum_contain_oxygen_bond_distance_aromatic_linkinvent_7_9_3/rearranged_h_0130.sdf

> <i_m_source_file_index>
86

> <r_mmod_Potential_Energy-OPLS-2005>
-372.738189697266

> <r_mmod_Stretch_Energy-OPLS-2005>
49.0679016113281

> <r_mmod_Bend_Energy-OPLS-2005>
117.157539367676

> <r_mmod_Torsional_Energy-OPLS-2005>
220.726974487305

> <r_mmod_Improper_Torsional_Energy-OPLS-2005>
4.49793672561646

> <r_mmod_Van_der_Waal_Energy-OPLS-2005>
142.805603027344

> <r_mmod_Electrostatic_Energy-OPLS-2005>
-435.697723388672

> <r_mmod_Solvation_Energy-OPLS-2005>
-491.694671630859

> <b_mmod_Minimization_Converged-OPLS-2005>
0

> <r_mmod_RMS_Derivative-OPLS-2005>
1.27027487754822

$$$$
86
                    3D
 Structure written by MMmdl.
150158  0  0  1  0            999 V2000
  -30.4789  -15.1836   20.3799 C   0  0  0  0  0  0
  -30.4364  -12.7514   19.5196 C   0  0  0  0  0  0
  -29.5301  -12.5620   18.2790 C   0  0  0  0  0  0
  -28.0746  -12.3030   18.7051 C   0  0  0  0  0  0
  -27.6147  -13.2700   19.8254 C   0  0  2  0  0  0
  -28.6514  -13.4156   20.9597 C   0  0  0  0  0  0
  -25.2400  -13.8244   20.5742 C   0  0  0  0  0  0
  -24.1747  -13.0438   20.9254 C   0  0  0  0  0  0
  -24.6396  -11.6933   20.8762 C   0  0  0  0  0  0
  -23.9090  -10.4293   21.0407 C   0  0  0  0  0  0
  -24.3635   -9.4206   21.9185 C   0  0  0  0  0  0
  -23.6304   -8.2244   22.0754 C   0  0  0  0  0  0
  -22.4285   -8.0283   21.3544 C   0  0  0  0  0  0
  -21.9926   -9.0258   20.4645 C   0  0  0  0  0  0
  -22.7261  -10.2134   20.3055 C   0  0  0  0  0  0
  -21.6856   -6.0738   22.5279 C   0  0  0  0  0  0
  -21.4017   -6.5641   23.8212 C   0  0  0  0  0  0
  -21.3660   -5.6793   24.9174 C   0  0  0  0  0  0
  -21.6044   -4.3056   24.7225 C   0  0  0  0  0  0
  -21.8819   -3.8148   23.4346 C   0  0  0  0  0  0
  -21.9194   -4.6965   22.3402 C   0  0  0  0  0  0
  -22.7764  -13.5192   21.1901 C   0  0  0  0  0  0
  -22.1662   -4.2151   21.0980 F   0  0  0  0  0  0
  -21.5628   -3.4539   25.7737 F   0  0  0  0  0  0
  -29.8943  -13.8939   20.3363 N   0  0  0  0  0  0
  -26.2827  -12.9511   20.3226 N   0  0  0  0  0  0
  -25.9332  -11.6620   20.5729 N   0  0  0  0  0  0
  -22.0423  -12.8173   22.0455 N   0  0  0  0  0  0
  -25.4035  -15.1978   20.4174 N   0  0  0  0  0  0
  -31.6974  -15.1814   20.1610 O   0  0  0  0  0  0
  -21.6645   -6.8883   21.4242 O   0  0  0  0  0  0
  -22.3443  -14.5493   20.6742 O   0  0  0  0  0  0
  -24.6590  -31.8288   23.1757 C   0  0  0  0  0  0
  -25.9292  -32.4616   23.8202 C   0  0  1  0  0  0
  -27.2144  -26.9741   20.1734 C   0  0  0  0  0  0
  -25.5977  -33.8428   24.2106 N   0  0  0  0  0  0
  -23.4713  -30.4437   21.5242 C   0  0  2  0  0  0
  -24.9243  -28.8443   20.1103 C   0  0  0  0  0  0
  -22.7649  -29.4469   22.4797 C   0  0  0  0  0  0
  -18.0320  -28.1406   22.8469 C   0  0  0  0  0  0
  -24.1493  -36.7218   23.2645 C   0  0  0  0  0  0
  -26.0390  -30.6499   21.4007 C   0  0  0  0  0  0
  -26.1078  -29.2457   20.7427 C   0  0  0  0  0  0
  -27.2497  -28.3305   20.7532 C   0  0  0  0  0  0
  -26.0037  -26.7217   19.4878 C   0  0  0  0  0  0
  -24.8952  -27.6011   19.4631 C   0  0  0  0  0  0
  -23.7085  -29.7660   20.1479 C   0  0  0  0  0  0
  -25.4133  -36.2983   24.0303 C   0  0  1  0  0  0
  -20.5943  -28.3749   23.1195 C   0  0  2  0  0  0
  -20.6799  -26.9434   22.5400 C   0  0  0  0  0  0
  -19.5771  -26.6379   21.5213 C   0  0  0  0  0  0
  -18.1954  -26.7940   22.1623 C   0  0  0  0  0  0
  -19.1581  -28.8898   23.2820 C   0  0  0  0  0  0
  -18.9491  -30.1488   23.8854 C   0  0  0  0  0  0
  -17.6485  -30.6597   24.0556 C   0  0  0  0  0  0
  -25.9095  -34.9364   23.5022 C   0  0  0  0  0  0
  -16.5376  -29.9084   23.6343 C   0  0  0  0  0  0
  -16.7302  -28.6505   23.0362 C   0  0  0  0  0  0
  -26.4556  -31.6543   25.0711 C   0  0  0  0  0  0
  -25.3692  -31.3782   26.1373 C   0  0  0  0  0  0
  -27.0449  -30.2915   24.6419 C   0  0  0  0  0  0
  -27.6052  -32.4346   25.7512 C   0  0  0  0  0  0
  -27.5571  -37.1767   24.8466 C   0  0  0  0  0  0
  -21.4323  -29.3047   22.3548 N   0  0  0  0  0  0
  -26.4282  -37.3714   23.9407 N   0  0  0  0  0  0
  -24.7441  -30.9995   22.0873 N   0  0  0  0  0  0
  -23.4217  -28.8029   23.3016 O   0  0  0  0  0  0
  -28.2013  -25.8687   20.2603 O   0  0  0  0  0  0
  -26.5698  -34.8890   22.4613 O   0  0  0  0  0  0
  -23.5670  -32.1238   23.6876 O   0  0  0  0  0  0
  -28.3054  -20.1866   20.9309 C   0  0  0  0  0  0
  -27.8849  -21.6130   20.8949 C   0  0  0  0  0  0
  -30.1426  -20.7574   19.6705 C   0  0  0  0  0  0
  -29.4830  -19.6167   20.3027 C   0  0  0  0  0  0
  -28.5455  -22.7517   20.2540 C   0  0  0  0  0  0
  -29.7279  -22.1847   19.6275 C   0  0  0  0  0  0
  -30.5974  -23.1324   18.8238 C   0  0  0  0  0  0
  -30.1930  -18.0297   20.3402 C   0  0  0  0  0  0
  -27.8061  -24.3094   20.0364 C   0  0  0  0  0  0
  -29.7421  -16.4541   20.4614 N   0  0  0  0  0  0
  -31.4605  -12.9371   19.1932 H   0  0  0  0  0  0
  -30.4800  -11.8362   20.1124 H   0  0  0  0  0  0
  -29.8939  -11.7389   17.6625 H   0  0  0  0  0  0
  -29.5751  -13.4565   17.6558 H   0  0  0  0  0  0
  -28.0159  -11.2744   19.0631 H   0  0  0  0  0  0
  -27.4067  -12.3660   17.8451 H   0  0  0  0  0  0
  -27.5398  -14.2446   19.3417 H   0  0  0  0  0  0
  -28.7990  -12.4741   21.4908 H   0  0  0  0  0  0
  -28.3069  -14.1405   21.6989 H   0  0  0  0  0  0
  -25.2776   -9.5682   22.4765 H   0  0  0  0  0  0
  -24.0009   -7.4635   22.7475 H   0  0  0  0  0  0
  -21.0857   -8.8781   19.8950 H   0  0  0  0  0  0
  -22.3718  -10.9675   19.6167 H   0  0  0  0  0  0
  -21.2010   -7.6150   23.9716 H   0  0  0  0  0  0
  -21.1482   -6.0523   25.9077 H   0  0  0  0  0  0
  -22.0597   -2.7610   23.2845 H   0  0  0  0  0  0
  -22.4057  -11.9843   22.4846 H   0  0  0  0  0  0
  -21.1033  -13.1177   22.2658 H   0  0  0  0  0  0
  -24.6319  -15.8465   20.5295 H   0  0  0  0  0  0
  -26.2425  -15.6398   20.0655 H   0  0  0  0  0  0
  -26.7360  -32.5168   23.0919 H   0  0  0  0  0  0
  -25.0080  -33.9516   25.0226 H   0  0  0  0  0  0
  -22.7821  -31.2744   21.3586 H   0  0  0  0  0  0
  -23.3766  -35.9538   23.3282 H   0  0  0  0  0  0
  -24.3572  -36.8888   22.2065 H   0  0  0  0  0  0
  -23.7240  -37.6397   23.6714 H   0  0  0  0  0  0
  -26.2155  -31.3951   20.6239 H   0  0  0  0  0  0
  -26.9007  -30.7037   22.0542 H   0  0  0  0  0  0
  -28.1433  -28.6327   21.2811 H   0  0  0  0  0  0
  -25.8675  -25.7762   18.9857 H   0  0  0  0  0  0
  -23.9966  -27.2889   18.9488 H   0  0  0  0  0  0
  -23.8602  -30.5376   19.3923 H   0  0  0  0  0  0
  -22.8192  -29.2186   19.8304 H   0  0  0  0  0  0
  -25.1329  -36.1787   25.0794 H   0  0  0  0  0  0
  -21.0033  -28.3353   24.1318 H   0  0  0  0  0  0
  -20.5683  -26.2367   23.3637 H   0  0  0  0  0  0
  -21.6662  -26.7417   22.1204 H   0  0  0  0  0  0
  -19.6930  -25.6278   21.1271 H   0  0  0  0  0  0
  -19.6708  -27.3165   20.6723 H   0  0  0  0  0  0
  -17.4222  -26.6682   21.4028 H   0  0  0  0  0  0
  -18.0351  -26.0093   22.9031 H   0  0  0  0  0  0
  -19.7967  -30.7317   24.2204 H   0  0  0  0  0  0
  -17.5036  -31.6272   24.5166 H   0  0  0  0  0  0
  -15.5374  -30.2972   23.7691 H   0  0  0  0  0  0
  -15.8703  -28.0808   22.7102 H   0  0  0  0  0  0
  -24.5889  -30.7114   25.7684 H   0  0  0  0  0  0
  -24.8863  -32.2978   26.4685 H   0  0  0  0  0  0
  -25.7933  -30.9026   27.0226 H   0  0  0  0  0  0
  -26.3110  -29.6598   24.1401 H   0  0  0  0  0  0
  -27.3969  -29.7269   25.5063 H   0  0  0  0  0  0
  -27.9056  -30.4105   23.9836 H   0  0  0  0  0  0
  -27.2622  -33.3686   26.1977 H   0  0  0  0  0  0
  -28.3923  -32.6845   25.0386 H   0  0  0  0  0  0
  -28.0654  -31.8548   26.5524 H   0  0  0  0  0  0
  -28.2572  -38.0078   24.7513 H   0  0  0  0  0  0
  -28.1084  -36.2605   24.6295 H   0  0  0  0  0  0
  -27.2287  -37.1412   25.8868 H   0  0  0  0  0  0
  -20.9567  -29.8744   21.6689 H   0  0  0  0  0  0
  -26.0133  -38.2775   24.1414 H   0  0  0  0  0  0
  -27.6720  -19.5056   21.4827 H   0  0  0  0  0  0
  -26.9473  -21.8337   21.3859 H   0  0  0  0  0  0
  -31.0649  -20.5202   19.1578 H   0  0  0  0  0  0
  -31.6273  -22.7783   18.7703 H   0  0  0  0  0  0
  -30.6136  -24.1255   19.2741 H   0  0  0  0  0  0
  -30.2154  -23.2253   17.8069 H   0  0  0  0  0  0
  -30.9289  -18.1237   21.1395 H   0  0  0  0  0  0
  -30.8043  -18.0226   19.4371 H   0  0  0  0  0  0
  -26.8638  -24.2071   20.5753 H   0  0  0  0  0  0
  -27.5215  -24.2722   18.9850 H   0  0  0  0  0  0
  -28.7498  -16.3275   20.5934 H   0  0  0  0  0  0
  1 25  1  0  0  0
  1 30  2  0  0  0
  1 80  1  0  0  0
  2  3  1  0  0  0
  2 25  1  0  0  0
  2 81  1  0  0  0
  2 82  1  0  0  0
  3  4  1  0  0  0
  3 83  1  0  0  0
  3 84  1  0  0  0
  4  5  1  0  0  0
  4 85  1  0  0  0
  4 86  1  0  0  0
  5  6  1  0  0  0
  5 26  1  0  0  0
  5 87  1  0  0  0
  6 25  1  0  0  0
  6 88  1  0  0  0
  6 89  1  0  0  0
  7  8  2  0  0  0
  7 26  1  0  0  0
  7 29  1  0  0  0
  8  9  1  0  0  0
  8 22  1  0  0  0
  9 10  1  0  0  0
  9 27  2  0  0  0
 10 11  2  0  0  0
 10 15  1  0  0  0
 11 12  1  0  0  0
 11 90  1  0  0  0
 12 13  2  0  0  0
 12 91  1  0  0  0
 13 14  1  0  0  0
 13 31  1  0  0  0
 14 15  2  0  0  0
 14 92  1  0  0  0
 15 93  1  0  0  0
 16 17  2  0  0  0
 16 21  1  0  0  0
 16 31  1  0  0  0
 17 18  1  0  0  0
 17 94  1  0  0  0
 18 19  2  0  0  0
 18 95  1  0  0  0
 19 20  1  0  0  0
 19 24  1  0  0  0
 20 21  2  0  0  0
 20 96  1  0  0  0
 21 23  1  0  0  0
 22 28  1  0  0  0
 22 32  2  0  0  0
 26 27  1  0  0  0
 28 97  1  0  0  0
 28 98  1  0  0  0
 29 99  1  0  0  0
 29100  1  0  0  0
 33 34  1  0  0  0
 33 66  1  0  0  0
 33 70  2  0  0  0
 34 36  1  0  0  0
 34 59  1  0  0  0
 34101  1  0  0  0
 35 44  2  0  0  0
 35 45  1  0  0  0
 35 68  1  0  0  0
 36 56  1  0  0  0
 36102  1  0  0  0
 37 39  1  0  0  0
 37 47  1  0  0  0
 37 66  1  0  0  0
 37103  1  0  0  0
 38 43  2  0  0  0
 38 46  1  0  0  0
 38 47  1  0  0  0
 39 64  1  0  0  0
 39 67  2  0  0  0
 40 52  1  0  0  0
 40 53  2  0  0  0
 40 58  1  0  0  0
 41104  1  0  0  0
 41105  1  0  0  0
 41106  1  0  0  0
 41 48  1  0  0  0
 42 43  1  0  0  0
 42 66  1  0  0  0
 42107  1  0  0  0
 42108  1  0  0  0
 43 44  1  0  0  0
 44109  1  0  0  0
 45 46  2  0  0  0
 45110  1  0  0  0
 46111  1  0  0  0
 47112  1  0  0  0
 47113  1  0  0  0
 48 56  1  0  0  0
 48 65  1  0  0  0
 48114  1  0  0  0
 49 50  1  0  0  0
 49 53  1  0  0  0
 49 64  1  0  0  0
 49115  1  0  0  0
 50 51  1  0  0  0
 50116  1  0  0  0
 50117  1  0  0  0
 51 52  1  0  0  0
 51118  1  0  0  0
 51119  1  0  0  0
 52120  1  0  0  0
 52121  1  0  0  0
 53 54  1  0  0  0
 54 55  2  0  0  0
 54122  1  0  0  0
 55 57  1  0  0  0
 55123  1  0  0  0
 56 69  2  0  0  0
 57 58  2  0  0  0
 57124  1  0  0  0
 58125  1  0  0  0
 59 60  1  0  0  0
 59 61  1  0  0  0
 59 62  1  0  0  0
 60126  1  0  0  0
 60127  1  0  0  0
 60128  1  0  0  0
 61129  1  0  0  0
 61130  1  0  0  0
 61131  1  0  0  0
 62132  1  0  0  0
 62133  1  0  0  0
 62134  1  0  0  0
 63 65  1  0  0  0
 63135  1  0  0  0
 63136  1  0  0  0
 63137  1  0  0  0
 64138  1  0  0  0
 65139  1  0  0  0
 68 79  1  0  0  0
 71 72  2  0  0  0
 71 74  1  0  0  0
 71140  1  0  0  0
 72 75  1  0  0  0
 72141  1  0  0  0
 73 74  2  0  0  0
 73 76  1  0  0  0
 73142  1  0  0  0
 74 78  1  0  0  0
 75 76  2  0  0  0
 75 79  1  0  0  0
 76 77  1  0  0  0
 77143  1  0  0  0
 77144  1  0  0  0
 77145  1  0  0  0
 78 80  1  0  0  0
 78146  1  0  0  0
 78147  1  0  0  0
 79148  1  0  0  0
 79149  1  0  0  0
 80150  1  0  0  0
M  ISO  4   1 100  68 101  79 101  80 100
M  END
> <chiral flag>
0

> <version>
0

> <s_m_source_file>
/data/baiqing/PycharmProjects/Reinvent-master-3.2/result/LINK_invent/BTK/process_docking_weight1_custom_sum_contain_oxygen_bond_distance_aromatic_linkinvent_7_9_3/rearranged_h_0130.sdf

> <i_m_source_file_index>
87

> <r_mmod_Potential_Energy-OPLS-2005>
1014.34057617188

> <r_mmod_Stretch_Energy-OPLS-2005>
446.138854980469

> <r_mmod_Bend_Energy-OPLS-2005>
421.191467285156

> <r_mmod_Torsional_Energy-OPLS-2005>
215.634216308594

> <r_mmod_Improper_Torsional_Energy-OPLS-2005>
7.20781755447388

> <r_mmod_Van_der_Waal_Energy-OPLS-2005>
132.082656860352

> <r_mmod_Electrostatic_Energy-OPLS-2005>
-383.006927490234

> <r_mmod_Solvation_Energy-OPLS-2005>
-212.018753051758

> <b_mmod_Minimization_Converged-OPLS-2005>
1

> <r_mmod_RMS_Derivative-OPLS-2005>
0.0366684682667255

$$$$
87
                    3D
 Structure written by MMmdl.
186197  0  0  1  0            999 V2000
  -30.5043  -14.9005   20.4387 C   0  0  0  0  0  0
  -30.4498  -12.5595   19.4929 C   0  0  0  0  0  0
  -29.5312  -12.5547   18.2487 C   0  0  0  0  0  0
  -28.0574  -12.3388   18.6476 C   0  0  0  0  0  0
  -27.6370  -13.2362   19.8431 C   0  0  2  0  0  0
  -28.6758  -13.1931   20.9833 C   0  0  0  0  0  0
  -25.2502  -13.8171   20.5679 C   0  0  0  0  0  0
  -24.1800  -13.0416   20.9207 C   0  0  0  0  0  0
  -24.6398  -11.6892   20.8713 C   0  0  0  0  0  0
  -23.9049  -10.4292   21.0374 C   0  0  0  0  0  0
  -24.3607   -9.4223   21.9165 C   0  0  0  0  0  0
  -23.6306   -8.2246   22.0731 C   0  0  0  0  0  0
  -22.4296   -8.0269   21.3519 C   0  0  0  0  0  0
  -21.9913   -9.0233   20.4626 C   0  0  0  0  0  0
  -22.7212  -10.2129   20.3036 C   0  0  0  0  0  0
  -21.6859   -6.0744   22.5285 C   0  0  0  0  0  0
  -21.4006   -6.5633   23.8224 C   0  0  0  0  0  0
  -21.3665   -5.6786   24.9180 C   0  0  0  0  0  0
  -21.6054   -4.3051   24.7221 C   0  0  0  0  0  0
  -21.8814   -3.8143   23.4333 C   0  0  0  0  0  0
  -21.9193   -4.6969   22.3399 C   0  0  0  0  0  0
  -22.7829  -13.5219   21.1852 C   0  0  0  0  0  0
  -22.1655   -4.2154   21.0974 F   0  0  0  0  0  0
  -21.5633   -3.4532   25.7728 F   0  0  0  0  0  0
  -29.9627  -13.6185   20.4176 N   0  0  0  0  0  0
  -26.2908  -12.9374   20.3199 N   0  0  0  0  0  0
  -25.9320  -11.6511   20.5679 N   0  0  0  0  0  0
  -22.0432  -12.8256   22.0403 N   0  0  0  0  0  0
  -25.4188  -15.1909   20.4122 N   0  0  0  0  0  0
  -31.6787  -15.0357   20.0751 O   0  0  0  0  0  0
  -21.6633   -6.8879   21.4244 O   0  0  0  0  0  0
  -22.3533  -14.5520   20.6675 O   0  0  0  0  0  0
  -24.6413  -31.8461   23.1882 C   0  0  0  0  0  0
  -25.9191  -32.4702   23.8281 C   0  0  1  0  0  0
  -27.2263  -27.1616   20.1567 C   0  0  0  0  0  0
  -25.5946  -33.8513   24.2182 N   0  0  0  0  0  0
  -23.4433  -30.4635   21.5317 C   0  0  2  0  0  0
  -24.8934  -28.8828   20.1162 C   0  0  0  0  0  0
  -22.7546  -29.4562   22.4869 C   0  0  0  0  0  0
  -18.0313  -28.1381   22.8476 C   0  0  0  0  0  0
  -24.1466  -36.7259   23.2643 C   0  0  0  0  0  0
  -25.9950  -30.7307   21.3765 C   0  0  0  0  0  0
  -26.0695  -29.3402   20.7240 C   0  0  0  0  0  0
  -27.2408  -28.4973   20.7203 C   0  0  0  0  0  0
  -26.0209  -26.7877   19.5269 C   0  0  0  0  0  0
  -24.8801  -27.6186   19.5054 C   0  0  0  0  0  0
  -23.6685  -29.7835   20.1528 C   0  0  0  0  0  0
  -25.4105  -36.3045   24.0316 C   0  0  1  0  0  0
  -20.5916  -28.3711   23.1229 C   0  0  2  0  0  0
  -20.6765  -26.9415   22.5394 C   0  0  0  0  0  0
  -19.5751  -26.6367   21.5195 C   0  0  0  0  0  0
  -18.1940  -26.7918   22.1617 C   0  0  0  0  0  0
  -19.1560  -28.8865   23.2846 C   0  0  0  0  0  0
  -18.9484  -30.1448   23.8883 C   0  0  0  0  0  0
  -17.6480  -30.6587   24.0544 C   0  0  0  0  0  0
  -25.9069  -34.9420   23.5061 C   0  0  0  0  0  0
  -16.5371  -29.9084   23.6313 C   0  0  0  0  0  0
  -16.7295  -28.6489   23.0368 C   0  0  0  0  0  0
  -26.4509  -31.6598   25.0736 C   0  0  0  0  0  0
  -25.3668  -31.3815   26.1416 C   0  0  0  0  0  0
  -27.0368  -30.2996   24.6305 C   0  0  0  0  0  0
  -27.6036  -32.4362   25.7532 C   0  0  0  0  0  0
  -27.5569  -37.1787   24.8467 C   0  0  0  0  0  0
  -21.4247  -29.3050   22.3605 N   0  0  0  0  0  0
  -26.4271  -37.3761   23.9423 N   0  0  0  0  0  0
  -24.7127  -31.0350   22.0877 N   0  0  0  0  0  0
  -23.4198  -28.8097   23.3012 O   0  0  0  0  0  0
  -28.3104  -26.2204   20.1973 O   0  0  0  0  0  0
  -26.5667  -34.8927   22.4649 O   0  0  0  0  0  0
  -23.5528  -32.1324   23.7114 O   0  0  0  0  0  0
  -29.0053  -18.3342   21.5648 C   0  0  0  0  0  0
  -29.7846  -19.6203   19.3299 C   0  0  0  0  0  0
  -29.2449  -20.4799   20.4073 C   0  0  0  0  0  0
  -29.6253  -17.5002   20.5825 C   0  0  0  0  0  0
  -29.9797  -19.5860   15.5104 C   0  0  0  0  0  0
  -29.1343  -20.8002   15.8369 C   0  0  0  0  0  0
  -34.1179  -20.1135   19.2743 C   0  0  0  0  0  0
  -32.7162  -19.5462   19.0150 C   0  0  0  0  0  0
  -30.2181  -18.9546   16.8804 C   0  0  0  0  0  0
  -29.4778  -21.1827   17.2881 C   0  0  0  0  0  0
  -29.7648  -22.2971   21.9520 C   0  0  0  0  0  0
  -34.8316  -20.4601   17.9598 C   0  0  0  0  0  0
  -31.2188  -22.7689   21.7512 C   0  0  0  0  0  0
  -32.6438  -20.8541   16.8555 C   0  0  0  0  0  0
  -30.5185  -23.8958   19.6481 C   0  0  0  0  0  0
  -31.8622  -20.5156   18.1545 C   0  0  1  0  0  0
  -29.0765  -23.3234   19.8319 C   0  0  2  0  0  0
  -30.3553  -20.0861   17.9567 C   0  0  0  0  0  0
  -28.1276  -24.6776   20.2447 C   0  0  0  0  0  0
  -28.8426  -19.7108   21.4804 N   0  0  0  0  0  0
  -29.9843  -18.2311   19.4789 N   0  0  0  0  0  0
  -29.1340  -21.9744   20.6556 N   0  0  0  0  0  0
  -29.6707  -15.9896   20.7813 N   0  0  0  0  0  0
  -34.0100  -21.3639   17.1247 N   0  3  0  0  0  0
  -31.2569  -23.9969   20.9312 N   0  3  0  0  0  0
  -31.4830  -12.7324   19.1902 H   0  0  0  0  0  0
  -30.4416  -11.5847   19.9818 H   0  0  0  0  0  0
  -29.8525  -11.7872   17.5439 H   0  0  0  0  0  0
  -29.6303  -13.5072   17.7240 H   0  0  0  0  0  0
  -27.9399  -11.2882   18.9163 H   0  0  0  0  0  0
  -27.4052  -12.5095   17.7882 H   0  0  0  0  0  0
  -27.6195  -14.2560   19.4580 H   0  0  0  0  0  0
  -28.7454  -12.1860   21.4008 H   0  0  0  0  0  0
  -28.3750  -13.8439   21.8042 H   0  0  0  0  0  0
  -25.2756   -9.5715   22.4723 H   0  0  0  0  0  0
  -24.0025   -7.4650   22.7453 H   0  0  0  0  0  0
  -21.0843   -8.8737   19.8952 H   0  0  0  0  0  0
  -22.3661  -10.9644   19.6139 H   0  0  0  0  0  0
  -21.1977   -7.6139   23.9737 H   0  0  0  0  0  0
  -21.1501   -6.0499   25.9095 H   0  0  0  0  0  0
  -22.0589   -2.7600   23.2828 H   0  0  0  0  0  0
  -22.4031  -11.9981   22.4918 H   0  0  0  0  0  0
  -21.1016  -13.1271   22.2455 H   0  0  0  0  0  0
  -24.6400  -15.8324   20.5140 H   0  0  0  0  0  0
  -26.2426  -15.6302   20.0222 H   0  0  0  0  0  0
  -26.7271  -32.5292   23.1031 H   0  0  0  0  0  0
  -25.0018  -33.9633   25.0275 H   0  0  0  0  0  0
  -22.7455  -31.2893   21.3734 H   0  0  0  0  0  0
  -23.3740  -35.9580   23.3284 H   0  0  0  0  0  0
  -24.3542  -36.8916   22.2065 H   0  0  0  0  0  0
  -23.7219  -37.6442   23.6694 H   0  0  0  0  0  0
  -26.1420  -31.4829   20.5999 H   0  0  0  0  0  0
  -26.8672  -30.7863   22.0159 H   0  0  0  0  0  0
  -28.1445  -28.8498   21.1981 H   0  0  0  0  0  0
  -25.9402  -25.8166   19.0605 H   0  0  0  0  0  0
  -23.9789  -27.2598   19.0283 H   0  0  0  0  0  0
  -23.8016  -30.5524   19.3906 H   0  0  0  0  0  0
  -22.7839  -29.2216   19.8456 H   0  0  0  0  0  0
  -25.1285  -36.1861   25.0806 H   0  0  0  0  0  0
  -21.0024  -28.3306   24.1348 H   0  0  0  0  0  0
  -20.5612  -26.2348   23.3623 H   0  0  0  0  0  0
  -21.6639  -26.7392   22.1230 H   0  0  0  0  0  0
  -19.6907  -25.6264   21.1258 H   0  0  0  0  0  0
  -19.6695  -27.3144   20.6698 H   0  0  0  0  0  0
  -17.4208  -26.6679   21.4019 H   0  0  0  0  0  0
  -18.0359  -26.0047   22.9005 H   0  0  0  0  0  0
  -19.7957  -30.7251   24.2273 H   0  0  0  0  0  0
  -17.5040  -31.6266   24.5140 H   0  0  0  0  0  0
  -15.5364  -30.2989   23.7622 H   0  0  0  0  0  0
  -15.8698  -28.0774   22.7132 H   0  0  0  0  0  0
  -24.5824  -30.7202   25.7722 H   0  0  0  0  0  0
  -24.8880  -32.3011   26.4782 H   0  0  0  0  0  0
  -25.7909  -30.9007   27.0236 H   0  0  0  0  0  0
  -26.2991  -29.6743   24.1257 H   0  0  0  0  0  0
  -27.3931  -29.7286   25.4892 H   0  0  0  0  0  0
  -27.8914  -30.4246   23.9651 H   0  0  0  0  0  0
  -27.2626  -33.3671   26.2070 H   0  0  0  0  0  0
  -28.3876  -32.6914   25.0395 H   0  0  0  0  0  0
  -28.0662  -31.8510   26.5487 H   0  0  0  0  0  0
  -28.2568  -38.0091   24.7504 H   0  0  0  0  0  0
  -28.1068  -36.2633   24.6271 H   0  0  0  0  0  0
  -27.2289  -37.1399   25.8862 H   0  0  0  0  0  0
  -20.9464  -29.8815   21.6818 H   0  0  0  0  0  0
  -26.0125  -38.2816   24.1438 H   0  0  0  0  0  0
  -28.6325  -17.8876   22.4739 H   0  0  0  0  0  0
  -30.9059  -19.8851   15.0246 H   0  0  0  0  0  0
  -29.4757  -18.9041   14.8255 H   0  0  0  0  0  0
  -28.0800  -20.5271   15.7696 H   0  0  0  0  0  0
  -29.2910  -21.6170   15.1291 H   0  0  0  0  0  0
  -34.7076  -19.3919   19.8417 H   0  0  0  0  0  0
  -34.0437  -21.0011   19.9055 H   0  0  0  0  0  0
  -32.2702  -19.3709   19.9938 H   0  0  0  0  0  0
  -32.7863  -18.5718   18.5297 H   0  0  0  0  0  0
  -31.0448  -18.2443   16.8849 H   0  0  0  0  0  0
  -29.3142  -18.3716   17.0729 H   0  0  0  0  0  0
  -28.5225  -21.2650   17.8053 H   0  0  0  0  0  0
  -29.9663  -22.1534   17.3017 H   0  0  0  0  0  0
  -29.1857  -23.0769   22.4494 H   0  0  0  0  0  0
  -29.7878  -21.4838   22.6777 H   0  0  0  0  0  0
  -35.0461  -19.5496   17.3979 H   0  0  0  0  0  0
  -35.7924  -20.9312   18.1717 H   0  0  0  0  0  0
  -31.8160  -21.9889   21.2747 H   0  0  0  0  0  0
  -31.6910  -22.9638   22.7149 H   0  0  0  0  0  0
  -32.1095  -21.5997   16.2648 H   0  0  0  0  0  0
  -32.7459  -19.9627   16.2373 H   0  0  0  0  0  0
  -30.4886  -24.8855   19.1869 H   0  0  0  0  0  0
  -31.0934  -23.3024   18.9506 H   0  0  0  0  0  0
  -31.8289  -21.4154   18.7518 H   0  0  0  0  0  0
  -28.7036  -23.0479   18.8524 H   0  0  0  0  0  0
  -28.2384  -24.9596   19.1971 H   0  0  0  0  0  0
  -28.7345  -24.8590   21.1303 H   0  0  0  0  0  0
  -28.8490  -15.6535   21.2584 H   0  0  0  0  0  0
  -34.4841  -21.4834   16.2439 H   0  0  0  0  0  0
  -33.9691  -22.2749   17.5530 H   0  0  0  0  0  0
  -32.2168  -24.2563   20.7617 H   0  0  0  0  0  0
  -30.8486  -24.7366   21.4795 H   0  0  0  0  0  0
  1 25  1  0  0  0
  1 30  2  0  0  0
  1 93  1  0  0  0
  2  3  1  0  0  0
  2 25  1  0  0  0
  2 96  1  0  0  0
  2 97  1  0  0  0
  3  4  1  0  0  0
  3 98  1  0  0  0
  3 99  1  0  0  0
  4  5  1  0  0  0
  4100  1  0  0  0
  4101  1  0  0  0
  5  6  1  0  0  0
  5 26  1  0  0  0
  5102  1  0  0  0
  6 25  1  0  0  0
  6103  1  0  0  0
  6104  1  0  0  0
  7  8  2  0  0  0
  7 26  1  0  0  0
  7 29  1  0  0  0
  8  9  1  0  0  0
  8 22  1  0  0  0
  9 10  1  0  0  0
  9 27  2  0  0  0
 10 11  2  0  0  0
 10 15  1  0  0  0
 11 12  1  0  0  0
 11105  1  0  0  0
 12 13  2  0  0  0
 12106  1  0  0  0
 13 14  1  0  0  0
 13 31  1  0  0  0
 14 15  2  0  0  0
 14107  1  0  0  0
 15108  1  0  0  0
 16 17  2  0  0  0
 16 21  1  0  0  0
 16 31  1  0  0  0
 17 18  1  0  0  0
 17109  1  0  0  0
 18 19  2  0  0  0
 18110  1  0  0  0
 19 20  1  0  0  0
 19 24  1  0  0  0
 20 21  2  0  0  0
 20111  1  0  0  0
 21 23  1  0  0  0
 22 28  1  0  0  0
 22 32  2  0  0  0
 26 27  1  0  0  0
 28112  1  0  0  0
 28113  1  0  0  0
 29114  1  0  0  0
 29115  1  0  0  0
 33 34  1  0  0  0
 33 66  1  0  0  0
 33 70  2  0  0  0
 34 36  1  0  0  0
 34 59  1  0  0  0
 34116  1  0  0  0
 35 44  2  0  0  0
 35 45  1  0  0  0
 35 68  1  0  0  0
 36 56  1  0  0  0
 36117  1  0  0  0
 37 39  1  0  0  0
 37 47  1  0  0  0
 37 66  1  0  0  0
 37118  1  0  0  0
 38 43  2  0  0  0
 38 46  1  0  0  0
 38 47  1  0  0  0
 39 64  1  0  0  0
 39 67  2  0  0  0
 40 52  1  0  0  0
 40 53  2  0  0  0
 40 58  1  0  0  0
 41119  1  0  0  0
 41120  1  0  0  0
 41121  1  0  0  0
 41 48  1  0  0  0
 42 43  1  0  0  0
 42 66  1  0  0  0
 42122  1  0  0  0
 42123  1  0  0  0
 43 44  1  0  0  0
 44124  1  0  0  0
 45 46  2  0  0  0
 45125  1  0  0  0
 46126  1  0  0  0
 47127  1  0  0  0
 47128  1  0  0  0
 48 56  1  0  0  0
 48 65  1  0  0  0
 48129  1  0  0  0
 49 50  1  0  0  0
 49 53  1  0  0  0
 49 64  1  0  0  0
 49130  1  0  0  0
 50 51  1  0  0  0
 50131  1  0  0  0
 50132  1  0  0  0
 51 52  1  0  0  0
 51133  1  0  0  0
 51134  1  0  0  0
 52135  1  0  0  0
 52136  1  0  0  0
 53 54  1  0  0  0
 54 55  2  0  0  0
 54137  1  0  0  0
 55 57  1  0  0  0
 55138  1  0  0  0
 56 69  2  0  0  0
 57 58  2  0  0  0
 57139  1  0  0  0
 58140  1  0  0  0
 59 60  1  0  0  0
 59 61  1  0  0  0
 59 62  1  0  0  0
 60141  1  0  0  0
 60142  1  0  0  0
 60143  1  0  0  0
 61144  1  0  0  0
 61145  1  0  0  0
 61146  1  0  0  0
 62147  1  0  0  0
 62148  1  0  0  0
 62149  1  0  0  0
 63 65  1  0  0  0
 63150  1  0  0  0
 63151  1  0  0  0
 63152  1  0  0  0
 64153  1  0  0  0
 65154  1  0  0  0
 68 89  1  0  0  0
 71 74  2  0  0  0
 71 90  1  0  0  0
 71155  1  0  0  0
 72 73  1  0  0  0
 72 91  2  0  0  0
 72 88  1  0  0  0
 73 90  2  0  0  0
 73 92  1  0  0  0
 74 91  1  0  0  0
 74 93  1  0  0  0
 75 76  1  0  0  0
 75 79  1  0  0  0
 75156  1  0  0  0
 75157  1  0  0  0
 76 80  1  0  0  0
 76158  1  0  0  0
 76159  1  0  0  0
 77 78  1  0  0  0
 77 82  1  0  0  0
 77160  1  0  0  0
 77161  1  0  0  0
 78162  1  0  0  0
 78163  1  0  0  0
 78 86  1  0  0  0
 79 88  1  0  0  0
 79164  1  0  0  0
 79165  1  0  0  0
 80 88  1  0  0  0
 80166  1  0  0  0
 80167  1  0  0  0
 81 83  1  0  0  0
 81 92  1  0  0  0
 81168  1  0  0  0
 81169  1  0  0  0
 82 94  1  0  0  0
 82170  1  0  0  0
 82171  1  0  0  0
 83 95  1  0  0  0
 83172  1  0  0  0
 83173  1  0  0  0
 84 86  1  0  0  0
 84 94  1  0  0  0
 84174  1  0  0  0
 84175  1  0  0  0
 85 87  1  0  0  0
 85 95  1  0  0  0
 85176  1  0  0  0
 85177  1  0  0  0
 86 88  1  0  0  0
 86178  1  0  0  0
 87 89  1  0  0  0
 87 92  1  0  0  0
 87179  1  0  0  0
 89180  1  0  0  0
 89181  1  0  0  0
 93182  1  0  0  0
 94183  1  0  0  0
 94184  1  0  0  0
 95185  1  0  0  0
 95186  1  0  0  0
M  CHG  2  94   1  95   1
M  ISO  4   1 100  68 101  89 101  93 100
M  END
> <chiral flag>
0

> <version>
0

> <s_m_source_file>
/data/baiqing/PycharmProjects/Reinvent-master-3.2/result/LINK_invent/BTK/process_docking_weight1_custom_sum_contain_oxygen_bond_distance_aromatic_linkinvent_7_9_3/rearranged_h_0130.sdf

> <i_m_source_file_index>
88

> <r_mmod_Potential_Energy-OPLS-2005>
655.161376953125

> <r_mmod_Stretch_Energy-OPLS-2005>
264.49609375

> <r_mmod_Bend_Energy-OPLS-2005>
573.620239257812

> <r_mmod_Torsional_Energy-OPLS-2005>
402.731597900391

> <r_mmod_Improper_Torsional_Energy-OPLS-2005>
6.41963577270508

> <r_mmod_Van_der_Waal_Energy-OPLS-2005>
165.366455078125

> <r_mmod_Electrostatic_Energy-OPLS-2005>
53.6385726928711

> <r_mmod_Solvation_Energy-OPLS-2005>
-972.981628417969

> <b_mmod_Minimization_Converged-OPLS-2005>
0

> <r_mmod_RMS_Derivative-OPLS-2005>
3.71140050888062

$$$$
88
                    3D
 Structure written by MMmdl.
171180  0  0  1  0            999 V2000
  -30.6928  -14.6007   20.5284 C   0  0  0  0  0  0
  -30.4201  -12.3817   19.4466 C   0  0  0  0  0  0
  -29.4951  -12.5016   18.2176 C   0  0  0  0  0  0
  -28.0198  -12.3479   18.6341 C   0  0  0  0  0  0
  -27.6485  -13.2239   19.8612 C   0  0  2  0  0  0
  -28.6971  -13.1035   20.9902 C   0  0  0  0  0  0
  -25.2549  -13.8199   20.5713 C   0  0  0  0  0  0
  -24.1828  -13.0454   20.9216 C   0  0  0  0  0  0
  -24.6400  -11.6931   20.8763 C   0  0  0  0  0  0
  -23.9074  -10.4311   21.0418 C   0  0  0  0  0  0
  -24.3630   -9.4218   21.9189 C   0  0  0  0  0  0
  -23.6311   -8.2248   22.0746 C   0  0  0  0  0  0
  -22.4289   -8.0287   21.3544 C   0  0  0  0  0  0
  -21.9930   -9.0259   20.4640 C   0  0  0  0  0  0
  -22.7253  -10.2143   20.3059 C   0  0  0  0  0  0
  -21.6854   -6.0755   22.5287 C   0  0  0  0  0  0
  -21.4009   -6.5651   23.8225 C   0  0  0  0  0  0
  -21.3653   -5.6802   24.9182 C   0  0  0  0  0  0
  -21.6040   -4.3066   24.7222 C   0  0  0  0  0  0
  -21.8817   -3.8162   23.4346 C   0  0  0  0  0  0
  -21.9194   -4.6986   22.3409 C   0  0  0  0  0  0
  -22.7856  -13.5247   21.1868 C   0  0  0  0  0  0
  -22.1666   -4.2179   21.0987 F   0  0  0  0  0  0
  -21.5623   -3.4545   25.7732 F   0  0  0  0  0  0
  -30.0093  -13.4204   20.4125 N   0  0  0  0  0  0
  -26.2978  -12.9391   20.3345 N   0  0  0  0  0  0
  -25.9330  -11.6546   20.5791 N   0  0  0  0  0  0
  -22.0485  -12.8219   22.0400 N   0  0  0  0  0  0
  -25.4245  -15.1912   20.4091 N   0  0  0  0  0  0
  -31.8561  -14.6999   20.1340 O   0  0  0  0  0  0
  -21.6643   -6.8888   21.4246 O   0  0  0  0  0  0
  -22.3566  -14.5578   20.6739 O   0  0  0  0  0  0
  -24.6247  -31.8614   23.2047 C   0  0  0  0  0  0
  -25.9103  -32.4792   23.8364 C   0  0  1  0  0  0
  -27.2149  -27.3335   20.1069 C   0  0  0  0  0  0
  -25.5924  -33.8593   24.2285 N   0  0  0  0  0  0
  -23.4162  -30.4905   21.5461 C   0  0  2  0  0  0
  -24.8596  -28.9546   20.1031 C   0  0  0  0  0  0
  -22.7466  -29.4648   22.4919 C   0  0  0  0  0  0
  -18.0283  -28.1362   22.8481 C   0  0  0  0  0  0
  -24.1491  -36.7316   23.2641 C   0  0  0  0  0  0
  -25.9561  -30.7978   21.3718 C   0  0  0  0  0  0
  -26.0271  -29.4260   20.7166 C   0  0  0  0  0  0
  -27.2060  -28.6244   20.7166 C   0  0  0  0  0  0
  -26.0301  -26.9317   19.4426 C   0  0  0  0  0  0
  -24.8634  -27.7129   19.4545 C   0  0  0  0  0  0
  -23.6278  -29.8326   20.1577 C   0  0  0  0  0  0
  -25.4111  -36.3093   24.0328 C   0  0  1  0  0  0
  -20.5887  -28.3693   23.1260 C   0  0  2  0  0  0
  -20.6774  -26.9420   22.5390 C   0  0  0  0  0  0
  -19.5763  -26.6371   21.5191 C   0  0  0  0  0  0
  -18.1942  -26.7911   22.1603 C   0  0  0  0  0  0
  -19.1536  -28.8843   23.2879 C   0  0  0  0  0  0
  -18.9471  -30.1440   23.8913 C   0  0  0  0  0  0
  -17.6475  -30.6578   24.0570 C   0  0  0  0  0  0
  -25.9050  -34.9465   23.5102 C   0  0  0  0  0  0
  -16.5362  -29.9091   23.6306 C   0  0  0  0  0  0
  -16.7270  -28.6489   23.0349 C   0  0  0  0  0  0
  -26.4489  -31.6585   25.0720 C   0  0  0  0  0  0
  -25.3718  -31.3702   26.1440 C   0  0  0  0  0  0
  -27.0307  -30.3008   24.6137 C   0  0  0  0  0  0
  -27.6078  -32.4293   25.7480 C   0  0  0  0  0  0
  -27.5583  -37.1820   24.8468 C   0  0  0  0  0  0
  -21.4184  -29.3056   22.3667 N   0  0  0  0  0  0
  -26.4290  -37.3788   23.9411 N   0  0  0  0  0  0
  -24.6851  -31.0660   22.0984 N   0  0  0  0  0  0
  -23.4208  -28.8159   23.2964 O   0  0  0  0  0  0
  -28.3220  -26.4715   20.1880 O   0  0  0  0  0  0
  -26.5628  -34.8938   22.4676 O   0  0  0  0  0  0
  -23.5408  -32.1393   23.7392 O   0  0  0  0  0  0
  -28.7278  -18.8247   21.2535 C   0  0  0  0  0  0
  -29.1537  -21.0806   20.2959 C   0  0  0  0  0  0
  -28.2778  -20.1506   20.9491 C   0  0  0  0  0  0
  -30.0309  -18.3964   20.9019 C   0  0  0  0  0  0
  -30.4578  -20.5933   19.9871 C   0  0  0  0  0  0
  -24.0120  -18.8538   19.8940 C   0  0  0  0  0  0
  -25.5085  -19.1444   19.8164 C   0  0  0  0  0  0
  -23.5064  -19.9407   20.8453 C   0  0  0  0  0  0
  -25.8555  -19.6245   21.2356 C   0  0  1  0  0  0
  -31.4889  -21.4407   19.2612 C   0  0  0  0  0  0
  -28.6451  -22.4722   19.7504 C   0  0  0  0  0  0
  -30.6623  -17.0210   21.3003 C   0  0  0  0  0  0
  -29.0165  -23.8742   20.4034 C   0  0  0  0  0  0
  -28.0922  -25.0478   19.8722 C   0  0  0  0  0  0
  -30.8248  -19.3163   20.2969 N   0  3  0  0  0  0
  -26.9729  -20.5721   21.2714 N   0  0  0  0  0  0
  -30.0194  -15.7079   20.9606 N   0  0  0  0  0  0
  -24.6110  -20.2052   21.7889 N   0  3  0  0  0  0
  -31.4648  -12.4760   19.1440 H   0  0  0  0  0  0
  -30.3310  -11.3922   19.8979 H   0  0  0  0  0  0
  -29.7537  -11.7446   17.4760 H   0  0  0  0  0  0
  -29.6417  -13.4671   17.7314 H   0  0  0  0  0  0
  -27.8508  -11.2953   18.8635 H   0  0  0  0  0  0
  -27.3641  -12.5818   17.7951 H   0  0  0  0  0  0
  -27.6605  -14.2566   19.5133 H   0  0  0  0  0  0
  -28.7067  -12.0942   21.4041 H   0  0  0  0  0  0
  -28.4514  -13.7671   21.8205 H   0  0  0  0  0  0
  -25.2771   -9.5707   22.4769 H   0  0  0  0  0  0
  -24.0034   -7.4636   22.7454 H   0  0  0  0  0  0
  -21.0870   -8.8768   19.8938 H   0  0  0  0  0  0
  -22.3707  -10.9685   19.6175 H   0  0  0  0  0  0
  -21.1995   -7.6158   23.9741 H   0  0  0  0  0  0
  -21.1474   -6.0524   25.9088 H   0  0  0  0  0  0
  -22.0602   -2.7630   23.2826 H   0  0  0  0  0  0
  -22.4105  -11.9850   22.4743 H   0  0  0  0  0  0
  -21.1102  -13.1220   22.2607 H   0  0  0  0  0  0
  -24.6314  -15.8189   20.4560 H   0  0  0  0  0  0
  -26.2488  -15.6147   20.0055 H   0  0  0  0  0  0
  -26.7175  -32.5473   23.1121 H   0  0  0  0  0  0
  -25.0086  -33.9736   25.0436 H   0  0  0  0  0  0
  -22.7096  -31.3113   21.4053 H   0  0  0  0  0  0
  -23.3744  -35.9660   23.3283 H   0  0  0  0  0  0
  -24.3599  -36.8949   22.2064 H   0  0  0  0  0  0
  -23.7246  -37.6517   23.6662 H   0  0  0  0  0  0
  -26.0752  -31.5578   20.5978 H   0  0  0  0  0  0
  -26.8423  -30.8516   21.9931 H   0  0  0  0  0  0
  -28.0968  -28.9773   21.2175 H   0  0  0  0  0  0
  -25.9660  -25.9977   18.9043 H   0  0  0  0  0  0
  -23.9756  -27.3553   18.9509 H   0  0  0  0  0  0
  -23.7456  -30.6114   19.4029 H   0  0  0  0  0  0
  -22.7469  -29.2637   19.8543 H   0  0  0  0  0  0
  -25.1283  -36.1958   25.0818 H   0  0  0  0  0  0
  -20.9990  -28.3259   24.1375 H   0  0  0  0  0  0
  -20.5642  -26.2331   23.3599 H   0  0  0  0  0  0
  -21.6653  -26.7428   22.1223 H   0  0  0  0  0  0
  -19.6959  -25.6278   21.1233 H   0  0  0  0  0  0
  -19.6704  -27.3176   20.6719 H   0  0  0  0  0  0
  -17.4223  -26.6658   21.3993 H   0  0  0  0  0  0
  -18.0350  -26.0017   22.8969 H   0  0  0  0  0  0
  -19.7959  -30.7228   24.2306 H   0  0  0  0  0  0
  -17.5038  -31.6265   24.5166 H   0  0  0  0  0  0
  -15.5370  -30.3017   23.7605 H   0  0  0  0  0  0
  -15.8661  -28.0809   22.7080 H   0  0  0  0  0  0
  -24.5981  -30.6943   25.7773 H   0  0  0  0  0  0
  -24.8803  -32.2843   26.4775 H   0  0  0  0  0  0
  -25.8033  -30.8977   27.0271 H   0  0  0  0  0  0
  -26.2855  -29.6774   24.1180 H   0  0  0  0  0  0
  -27.4038  -29.7235   25.4605 H   0  0  0  0  0  0
  -27.8698  -30.4294   23.9300 H   0  0  0  0  0  0
  -27.2751  -33.3645   26.1992 H   0  0  0  0  0  0
  -28.3918  -32.6761   25.0308 H   0  0  0  0  0  0
  -28.0697  -31.8442   26.5440 H   0  0  0  0  0  0
  -28.2596  -38.0127   24.7498 H   0  0  0  0  0  0
  -28.1071  -36.2647   24.6273 H   0  0  0  0  0  0
  -27.2308  -37.1449   25.8879 H   0  0  0  0  0  0
  -20.9353  -29.8830   21.6926 H   0  0  0  0  0  0
  -26.0165  -38.2861   24.1408 H   0  0  0  0  0  0
  -28.1035  -18.1272   21.7882 H   0  0  0  0  0  0
  -23.8343  -17.8675   20.3253 H   0  0  0  0  0  0
  -23.5205  -18.8865   18.9212 H   0  0  0  0  0  0
  -25.6822  -19.9344   19.0833 H   0  0  0  0  0  0
  -26.0892  -18.2739   19.5101 H   0  0  0  0  0  0
  -22.5901  -19.6522   21.3604 H   0  0  0  0  0  0
  -23.2970  -20.8527   20.2846 H   0  0  0  0  0  0
  -26.0701  -18.7602   21.8657 H   0  0  0  0  0  0
  -31.2414  -21.5136   18.2018 H   0  0  0  0  0  0
  -32.4918  -21.0210   19.3440 H   0  0  0  0  0  0
  -31.5263  -22.4455   19.6776 H   0  0  0  0  0  0
  -27.5592  -22.4310   19.6787 H   0  0  0  0  0  0
  -28.9508  -22.5162   18.7047 H   0  0  0  0  0  0
  -30.7677  -17.0371   22.3851 H   0  0  0  0  0  0
  -31.6893  -17.0247   20.9317 H   0  0  0  0  0  0
  -30.0618  -24.1149   20.2117 H   0  0  0  0  0  0
  -28.9129  -23.8123   21.4873 H   0  0  0  0  0  0
  -27.1037  -24.7661   20.2364 H   0  0  0  0  0  0
  -28.0577  -24.9768   18.7840 H   0  0  0  0  0  0
  -31.7786  -19.0296   20.0629 H   0  0  0  0  0  0
  -26.7810  -21.4994   20.9146 H   0  0  0  0  0  0
  -29.0478  -15.5912   21.2028 H   0  0  0  0  0  0
  -24.4048  -19.7502   22.6651 H   0  0  0  0  0  0
  -24.6743  -21.1923   21.9715 H   0  0  0  0  0  0
  1 25  1  0  0  0
  1 30  2  0  0  0
  1 87  1  0  0  0
  2  3  1  0  0  0
  2 25  1  0  0  0
  2 89  1  0  0  0
  2 90  1  0  0  0
  3  4  1  0  0  0
  3 91  1  0  0  0
  3 92  1  0  0  0
  4  5  1  0  0  0
  4 93  1  0  0  0
  4 94  1  0  0  0
  5  6  1  0  0  0
  5 26  1  0  0  0
  5 95  1  0  0  0
  6 25  1  0  0  0
  6 96  1  0  0  0
  6 97  1  0  0  0
  7  8  2  0  0  0
  7 26  1  0  0  0
  7 29  1  0  0  0
  8  9  1  0  0  0
  8 22  1  0  0  0
  9 10  1  0  0  0
  9 27  2  0  0  0
 10 11  2  0  0  0
 10 15  1  0  0  0
 11 12  1  0  0  0
 11 98  1  0  0  0
 12 13  2  0  0  0
 12 99  1  0  0  0
 13 14  1  0  0  0
 13 31  1  0  0  0
 14 15  2  0  0  0
 14100  1  0  0  0
 15101  1  0  0  0
 16 17  2  0  0  0
 16 21  1  0  0  0
 16 31  1  0  0  0
 17 18  1  0  0  0
 17102  1  0  0  0
 18 19  2  0  0  0
 18103  1  0  0  0
 19 20  1  0  0  0
 19 24  1  0  0  0
 20 21  2  0  0  0
 20104  1  0  0  0
 21 23  1  0  0  0
 22 28  1  0  0  0
 22 32  2  0  0  0
 26 27  1  0  0  0
 28105  1  0  0  0
 28106  1  0  0  0
 29107  1  0  0  0
 29108  1  0  0  0
 33 34  1  0  0  0
 33 66  1  0  0  0
 33 70  2  0  0  0
 34 36  1  0  0  0
 34 59  1  0  0  0
 34109  1  0  0  0
 35 44  2  0  0  0
 35 45  1  0  0  0
 35 68  1  0  0  0
 36 56  1  0  0  0
 36110  1  0  0  0
 37 39  1  0  0  0
 37 47  1  0  0  0
 37 66  1  0  0  0
 37111  1  0  0  0
 38 43  2  0  0  0
 38 46  1  0  0  0
 38 47  1  0  0  0
 39 64  1  0  0  0
 39 67  2  0  0  0
 40 52  1  0  0  0
 40 53  2  0  0  0
 40 58  1  0  0  0
 41112  1  0  0  0
 41113  1  0  0  0
 41114  1  0  0  0
 41 48  1  0  0  0
 42 43  1  0  0  0
 42 66  1  0  0  0
 42115  1  0  0  0
 42116  1  0  0  0
 43 44  1  0  0  0
 44117  1  0  0  0
 45 46  2  0  0  0
 45118  1  0  0  0
 46119  1  0  0  0
 47120  1  0  0  0
 47121  1  0  0  0
 48 56  1  0  0  0
 48 65  1  0  0  0
 48122  1  0  0  0
 49 50  1  0  0  0
 49 53  1  0  0  0
 49 64  1  0  0  0
 49123  1  0  0  0
 50 51  1  0  0  0
 50124  1  0  0  0
 50125  1  0  0  0
 51 52  1  0  0  0
 51126  1  0  0  0
 51127  1  0  0  0
 52128  1  0  0  0
 52129  1  0  0  0
 53 54  1  0  0  0
 54 55  2  0  0  0
 54130  1  0  0  0
 55 57  1  0  0  0
 55131  1  0  0  0
 56 69  2  0  0  0
 57 58  2  0  0  0
 57132  1  0  0  0
 58133  1  0  0  0
 59 60  1  0  0  0
 59 61  1  0  0  0
 59 62  1  0  0  0
 60134  1  0  0  0
 60135  1  0  0  0
 60136  1  0  0  0
 61137  1  0  0  0
 61138  1  0  0  0
 61139  1  0  0  0
 62140  1  0  0  0
 62141  1  0  0  0
 62142  1  0  0  0
 63 65  1  0  0  0
 63143  1  0  0  0
 63144  1  0  0  0
 63145  1  0  0  0
 64146  1  0  0  0
 65147  1  0  0  0
 68 84  1  0  0  0
 71 73  2  0  0  0
 71 74  1  0  0  0
 71148  1  0  0  0
 72 73  1  0  0  0
 72 75  2  0  0  0
 72 81  1  0  0  0
 73 86  1  0  0  0
 74 82  1  0  0  0
 74 85  2  0  0  0
 75 80  1  0  0  0
 75 85  1  0  0  0
 76 77  1  0  0  0
 76 78  1  0  0  0
 76149  1  0  0  0
 76150  1  0  0  0
 77 79  1  0  0  0
 77151  1  0  0  0
 77152  1  0  0  0
 78 88  1  0  0  0
 78153  1  0  0  0
 78154  1  0  0  0
 79 86  1  0  0  0
 79 88  1  0  0  0
 79155  1  0  0  0
 80156  1  0  0  0
 80157  1  0  0  0
 80158  1  0  0  0
 81 83  1  0  0  0
 81159  1  0  0  0
 81160  1  0  0  0
 82 87  1  0  0  0
 82161  1  0  0  0
 82162  1  0  0  0
 83 84  1  0  0  0
 83163  1  0  0  0
 83164  1  0  0  0
 84165  1  0  0  0
 84166  1  0  0  0
 85167  1  0  0  0
 86168  1  0  0  0
 87169  1  0  0  0
 88170  1  0  0  0
 88171  1  0  0  0
M  CHG  2  85   1  88   1
M  ISO  4   1 100  68 101  84 101  87 100
M  END
> <chiral flag>
0

> <version>
0

> <s_m_source_file>
/data/baiqing/PycharmProjects/Reinvent-master-3.2/result/LINK_invent/BTK/process_docking_weight1_custom_sum_contain_oxygen_bond_distance_aromatic_linkinvent_7_9_3/rearranged_h_0130.sdf

> <i_m_source_file_index>
89

> <r_mmod_Potential_Energy-OPLS-2005>
-199.455841064453

> <r_mmod_Stretch_Energy-OPLS-2005>
75.5442428588867

> <r_mmod_Bend_Energy-OPLS-2005>
173.753494262695

> <r_mmod_Torsional_Energy-OPLS-2005>
261.579650878906

> <r_mmod_Improper_Torsional_Energy-OPLS-2005>
8.39965629577637

> <r_mmod_Van_der_Waal_Energy-OPLS-2005>
148.387222290039

> <r_mmod_Electrostatic_Energy-OPLS-2005>
16.3904190063477

> <r_mmod_Solvation_Energy-OPLS-2005>
-927.640625

> <b_mmod_Minimization_Converged-OPLS-2005>
0

> <r_mmod_RMS_Derivative-OPLS-2005>
2.10027575492859

$$$$
89
                    3D
 Structure written by MMmdl.
162171  0  0  1  0            999 V2000
  -30.8975  -14.6270   19.4128 C   0  0  0  0  0  0
  -31.2686  -12.3757   19.7667 C   0  0  0  0  0  0
  -30.5109  -12.0579   18.5177 C   0  0  0  0  0  0
  -29.2124  -12.2699   19.1110 C   0  0  0  0  0  0
  -28.4821  -13.8127   20.1187 C   0  0  2  0  0  0
  -29.5180  -13.4601   21.1824 C   0  0  0  0  0  0
  -24.5889  -14.3970   20.7658 C   0  0  0  0  0  0
  -23.8110  -13.3587   21.2405 C   0  0  0  0  0  0
  -24.3042  -12.0916   20.8799 C   0  0  0  0  0  0
  -23.7982  -10.6467   20.9814 C   0  0  0  0  0  0
  -24.2950   -9.6367   21.8723 C   0  0  0  0  0  0
  -23.6431   -8.3782   22.0417 C   0  0  0  0  0  0
  -22.4551   -8.0885   21.3275 C   0  0  0  0  0  0
  -21.9996   -9.0498   20.4065 C   0  0  0  0  0  0
  -22.6606  -10.2854   20.2319 C   0  0  0  0  0  0
  -21.7274   -6.1003   22.5220 C   0  0  0  0  0  0
  -21.4329   -6.5839   23.8158 C   0  0  0  0  0  0
  -21.3747   -5.6930   24.9085 C   0  0  0  0  0  0
  -21.6028   -4.3175   24.7135 C   0  0  0  0  0  0
  -21.8802   -3.8296   23.4255 C   0  0  0  0  0  0
  -21.9340   -4.7161   22.3342 C   0  0  0  0  0  0
  -22.3951  -13.5953   21.4376 C   0  0  0  0  0  0
  -22.1724   -4.2289   21.0926 F   0  0  0  0  0  0
  -21.5535   -3.4635   25.7634 F   0  0  0  0  0  0
  -30.7237  -13.6192   20.3295 N   0  0  0  0  0  0
  -25.5979  -13.9103   20.0575 N   0  0  0  0  0  0
  -24.7251  -12.6954   19.7907 N   0  0  0  0  0  0
  -21.7621  -12.7654   22.2392 N   0  0  0  0  0  0
  -24.4629  -15.7521   20.7292 N   0  0  0  0  0  0
  -31.9176  -15.2626   19.6120 O   0  0  0  0  0  0
  -21.7270   -6.9163   21.4126 O   0  0  0  0  0  0
  -21.8677  -14.5325   20.8457 O   0  0  0  0  0  0
  -24.7043  -31.7735   23.1398 C   0  0  0  0  0  0
  -25.9550  -32.4306   23.7978 C   0  0  1  0  0  0
  -26.9260  -26.3503   20.2813 C   0  0  0  0  0  0
  -25.6055  -33.8164   24.1821 N   0  0  0  0  0  0
  -23.5247  -30.3890   21.5010 C   0  0  2  0  0  0
  -24.9294  -28.6873   20.0982 C   0  0  0  0  0  0
  -22.7799  -29.4206   22.4615 C   0  0  0  0  0  0
  -18.0334  -28.1427   22.8438 C   0  0  0  0  0  0
  -24.1493  -36.7077   23.2654 C   0  0  0  0  0  0
  -26.1112  -30.3822   21.4559 C   0  0  0  0  0  0
  -26.1131  -28.9218   20.8020 C   0  0  0  0  0  0
  -27.1066  -27.7779   20.8618 C   0  0  0  0  0  0
  -25.7891  -26.4286   19.4515 C   0  0  0  0  0  0
  -24.8327  -27.4834   19.3867 C   0  0  0  0  0  0
  -23.7767  -29.7062   20.1257 C   0  0  0  0  0  0
  -25.4157  -36.2806   24.0257 C   0  0  1  0  0  0
  -20.5975  -28.3792   23.1098 C   0  0  2  0  0  0
  -20.6796  -26.9434   22.5398 C   0  0  0  0  0  0
  -19.5778  -26.6357   21.5211 C   0  0  0  0  0  0
  -18.1958  -26.7949   22.1607 C   0  0  0  0  0  0
  -19.1604  -28.8937   23.2748 C   0  0  0  0  0  0
  -18.9516  -30.1516   23.8802 C   0  0  0  0  0  0
  -17.6509  -30.6609   24.0546 C   0  0  0  0  0  0
  -25.9165  -34.9205   23.4885 C   0  0  0  0  0  0
  -16.5393  -29.9092   23.6362 C   0  0  0  0  0  0
  -16.7314  -28.6515   23.0372 C   0  0  0  0  0  0
  -26.4642  -31.6484   25.0729 C   0  0  0  0  0  0
  -25.3635  -31.3906   26.1298 C   0  0  0  0  0  0
  -27.0631  -30.2789   24.6884 C   0  0  0  0  0  0
  -27.6028  -32.4430   25.7552 C   0  0  0  0  0  0
  -27.5560  -37.1691   24.8456 C   0  0  0  0  0  0
  -21.4434  -29.3008   22.3387 N   0  0  0  0  0  0
  -26.4250  -37.3608   23.9417 N   0  0  0  0  0  0
  -24.8099  -30.8925   22.0804 N   0  0  0  0  0  0
  -23.4181  -28.7788   23.2994 O   0  0  0  0  0  0
  -27.5954  -24.8894   20.4317 O   0  0  0  0  0  0
  -26.5826  -34.8827   22.4519 O   0  0  0  0  0  0
  -23.6037  -32.0985   23.6214 O   0  0  0  0  0  0
  -27.0404  -14.6214   21.7423 C   0  0  0  0  0  0
  -27.0703  -15.3353   18.9101 C   0  0  0  0  0  0
  -27.0762  -15.9548   20.4957 C   0  0  0  0  0  0
  -26.9780  -12.7603   21.4039 C   0  0  0  0  0  0
  -27.1340  -13.6700   18.3452 C   0  0  0  0  0  0
  -26.5789  -20.1556   21.7055 C   0  0  0  0  0  0
  -26.8703  -18.5046   21.8890 C   0  0  0  0  0  0
  -27.2956  -19.2085   19.8564 C   0  0  0  0  0  0
  -27.3927  -20.9966   20.5972 C   0  0  1  0  0  0
  -27.0217  -11.7444   22.5252 C   0  0  0  0  0  0
  -28.5934  -14.1697   17.5382 C   0  0  0  0  0  0
  -27.1300  -23.0601   20.1846 C   0  0  0  0  0  0
  -26.9882  -12.2551   19.6302 N   0  3  0  0  0  0
  -27.1271  -17.6763   20.6516 N   0  0  0  0  0  0
  -29.9744  -14.8133   18.2601 N   0  0  0  0  0  0
  -32.3328  -12.4808   19.5421 H   0  0  0  0  0  0
  -31.2210  -11.5651   20.4981 H   0  0  0  0  0  0
  -30.6642  -11.0107   18.2450 H   0  0  0  0  0  0
  -30.7950  -12.6251   17.6325 H   0  0  0  0  0  0
  -29.1412  -11.3923   19.7744 H   0  0  0  0  0  0
  -28.6936  -11.8579   18.2355 H   0  0  0  0  0  0
  -28.8512  -14.8090   20.2207 H   0  0  0  0  0  0
  -29.4800  -12.4623   21.6193 H   0  0  0  0  0  0
  -29.5771  -14.1657   22.0157 H   0  0  0  0  0  0
  -25.1579   -9.8323   22.4852 H   0  0  0  0  0  0
  -24.0491   -7.6580   22.7376 H   0  0  0  0  0  0
  -21.1136   -8.8419   19.8231 H   0  0  0  0  0  0
  -22.2466  -11.0025   19.5360 H   0  0  0  0  0  0
  -21.2447   -7.6364   23.9715 H   0  0  0  0  0  0
  -21.1514   -6.0641   25.8981 H   0  0  0  0  0  0
  -22.0453   -2.7748   23.2718 H   0  0  0  0  0  0
  -22.2477  -12.0105   22.7011 H   0  0  0  0  0  0
  -20.7732  -12.8853   22.4058 H   0  0  0  0  0  0
  -23.5620  -16.1314   21.0011 H   0  0  0  0  0  0
  -24.9217  -16.3323   20.0381 H   0  0  0  0  0  0
  -26.7627  -32.4643   23.0660 H   0  0  0  0  0  0
  -25.0101  -33.9175   24.9911 H   0  0  0  0  0  0
  -22.8640  -31.2395   21.3190 H   0  0  0  0  0  0
  -23.3799  -35.9358   23.3216 H   0  0  0  0  0  0
  -24.3554  -36.8861   22.2089 H   0  0  0  0  0  0
  -23.7203  -37.6195   23.6822 H   0  0  0  0  0  0
  -26.3708  -31.0849   20.6632 H   0  0  0  0  0  0
  -26.9493  -30.4273   22.1372 H   0  0  0  0  0  0
  -27.9754  -27.9325   21.4854 H   0  0  0  0  0  0
  -25.5381  -25.5343   18.8989 H   0  0  0  0  0  0
  -23.9492  -27.3148   18.7856 H   0  0  0  0  0  0
  -24.0056  -30.4742   19.3858 H   0  0  0  0  0  0
  -22.8616  -29.2274   19.7724 H   0  0  0  0  0  0
  -25.1373  -36.1524   25.0744 H   0  0  0  0  0  0
  -21.0056  -28.3439   24.1227 H   0  0  0  0  0  0
  -20.5655  -26.2416   23.3674 H   0  0  0  0  0  0
  -21.6655  -26.7360   22.1221 H   0  0  0  0  0  0
  -19.6935  -25.6244   21.1305 H   0  0  0  0  0  0
  -19.6735  -27.3114   20.6701 H   0  0  0  0  0  0
  -17.4229  -26.6684   21.4010 H   0  0  0  0  0  0
  -18.0344  -26.0117   22.9027 H   0  0  0  0  0  0
  -19.7996  -30.7348   24.2132 H   0  0  0  0  0  0
  -17.5065  -31.6281   24.5161 H   0  0  0  0  0  0
  -15.5393  -30.2970   23.7748 H   0  0  0  0  0  0
  -15.8706  -28.0810   22.7148 H   0  0  0  0  0  0
  -24.5841  -30.7229   25.7607 H   0  0  0  0  0  0
  -24.8811  -32.3170   26.4430 H   0  0  0  0  0  0
  -25.7749  -30.9263   27.0272 H   0  0  0  0  0  0
  -26.3386  -29.6259   24.2009 H   0  0  0  0  0  0
  -27.4041  -29.7422   25.5750 H   0  0  0  0  0  0
  -27.9384  -30.3837   24.0470 H   0  0  0  0  0  0
  -27.2510  -33.3816   26.1850 H   0  0  0  0  0  0
  -28.3976  -32.6866   25.0489 H   0  0  0  0  0  0
  -28.0553  -31.8774   26.5708 H   0  0  0  0  0  0
  -28.2489  -38.0070   24.7570 H   0  0  0  0  0  0
  -28.1144  -36.2594   24.6199 H   0  0  0  0  0  0
  -27.2284  -37.1213   25.8856 H   0  0  0  0  0  0
  -20.9751  -29.8681   21.6454 H   0  0  0  0  0  0
  -26.0044  -38.2627   24.1492 H   0  0  0  0  0  0
  -27.0496  -14.9345   22.7767 H   0  0  0  0  0  0
  -27.1915  -16.1118   18.1691 H   0  0  0  0  0  0
  -26.6769  -20.6437   22.6747 H   0  0  0  0  0  0
  -25.5219  -20.2629   21.4555 H   0  0  0  0  0  0
  -26.0311  -18.0615   22.4288 H   0  0  0  0  0  0
  -27.7347  -18.3768   22.5414 H   0  0  0  0  0  0
  -28.1667  -19.1008   19.2083 H   0  0  0  0  0  0
  -26.4577  -19.2318   19.1573 H   0  0  0  0  0  0
  -28.4235  -21.0179   20.9491 H   0  0  0  0  0  0
  -27.8056  -12.0027   23.2361 H   0  0  0  0  0  0
  -26.0826  -11.7516   23.0747 H   0  0  0  0  0  0
  -27.2241  -10.7462   22.1381 H   0  0  0  0  0  0
  -28.2954  -14.9345   16.8195 H   0  0  0  0  0  0
  -28.8802  -13.4012   16.8198 H   0  0  0  0  0  0
  -26.0437  -23.1404   20.2203 H   0  0  0  0  0  0
  -27.3370  -23.0305   19.1149 H   0  0  0  0  0  0
  -27.0422  -11.2756   19.3479 H   0  0  0  0  0  0
  -30.3149  -15.5855   17.7037 H   0  0  0  0  0  0
  1 25  1  0  0  0
  1 30  2  0  0  0
  1 85  1  0  0  0
  2  3  1  0  0  0
  2 25  1  0  0  0
  2 86  1  0  0  0
  2 87  1  0  0  0
  3  4  1  0  0  0
  3 88  1  0  0  0
  3 89  1  0  0  0
  4  5  1  0  0  0
  4 90  1  0  0  0
  4 91  1  0  0  0
  5  6  1  0  0  0
  5 26  1  0  0  0
  5 92  1  0  0  0
  6 25  1  0  0  0
  6 93  1  0  0  0
  6 94  1  0  0  0
  7  8  2  0  0  0
  7 26  1  0  0  0
  7 29  1  0  0  0
  8  9  1  0  0  0
  8 22  1  0  0  0
  9 10  1  0  0  0
  9 27  2  0  0  0
 10 11  2  0  0  0
 10 15  1  0  0  0
 11 12  1  0  0  0
 11 95  1  0  0  0
 12 13  2  0  0  0
 12 96  1  0  0  0
 13 14  1  0  0  0
 13 31  1  0  0  0
 14 15  2  0  0  0
 14 97  1  0  0  0
 15 98  1  0  0  0
 16 17  2  0  0  0
 16 21  1  0  0  0
 16 31  1  0  0  0
 17 18  1  0  0  0
 17 99  1  0  0  0
 18 19  2  0  0  0
 18100  1  0  0  0
 19 20  1  0  0  0
 19 24  1  0  0  0
 20 21  2  0  0  0
 20101  1  0  0  0
 21 23  1  0  0  0
 22 28  1  0  0  0
 22 32  2  0  0  0
 26 27  1  0  0  0
 28102  1  0  0  0
 28103  1  0  0  0
 29104  1  0  0  0
 29105  1  0  0  0
 33 34  1  0  0  0
 33 66  1  0  0  0
 33 70  2  0  0  0
 34 36  1  0  0  0
 34 59  1  0  0  0
 34106  1  0  0  0
 35 44  2  0  0  0
 35 45  1  0  0  0
 35 68  1  0  0  0
 36 56  1  0  0  0
 36107  1  0  0  0
 37 39  1  0  0  0
 37 47  1  0  0  0
 37 66  1  0  0  0
 37108  1  0  0  0
 38 43  2  0  0  0
 38 46  1  0  0  0
 38 47  1  0  0  0
 39 64  1  0  0  0
 39 67  2  0  0  0
 40 52  1  0  0  0
 40 53  2  0  0  0
 40 58  1  0  0  0
 41109  1  0  0  0
 41110  1  0  0  0
 41111  1  0  0  0
 41 48  1  0  0  0
 42 43  1  0  0  0
 42 66  1  0  0  0
 42112  1  0  0  0
 42113  1  0  0  0
 43 44  1  0  0  0
 44114  1  0  0  0
 45 46  2  0  0  0
 45115  1  0  0  0
 46116  1  0  0  0
 47117  1  0  0  0
 47118  1  0  0  0
 48 56  1  0  0  0
 48 65  1  0  0  0
 48119  1  0  0  0
 49 50  1  0  0  0
 49 53  1  0  0  0
 49 64  1  0  0  0
 49120  1  0  0  0
 50 51  1  0  0  0
 50121  1  0  0  0
 50122  1  0  0  0
 51 52  1  0  0  0
 51123  1  0  0  0
 51124  1  0  0  0
 52125  1  0  0  0
 52126  1  0  0  0
 53 54  1  0  0  0
 54 55  2  0  0  0
 54127  1  0  0  0
 55 57  1  0  0  0
 55128  1  0  0  0
 56 69  2  0  0  0
 57 58  2  0  0  0
 57129  1  0  0  0
 58130  1  0  0  0
 59 60  1  0  0  0
 59 61  1  0  0  0
 59 62  1  0  0  0
 60131  1  0  0  0
 60132  1  0  0  0
 60133  1  0  0  0
 61134  1  0  0  0
 61135  1  0  0  0
 61136  1  0  0  0
 62137  1  0  0  0
 62138  1  0  0  0
 62139  1  0  0  0
 63 65  1  0  0  0
 63140  1  0  0  0
 63141  1  0  0  0
 63142  1  0  0  0
 64143  1  0  0  0
 65144  1  0  0  0
 68 82  1  0  0  0
 71 73  2  0  0  0
 71 74  1  0  0  0
 71145  1  0  0  0
 72 73  1  0  0  0
 72 75  2  0  0  0
 72146  1  0  0  0
 73 84  1  0  0  0
 74 80  1  0  0  0
 74 83  2  0  0  0
 75 81  1  0  0  0
 75 83  1  0  0  0
 76 77  1  0  0  0
 76 79  1  0  0  0
 76147  1  0  0  0
 76148  1  0  0  0
 77 84  1  0  0  0
 77149  1  0  0  0
 77150  1  0  0  0
 78 79  1  0  0  0
 78 84  1  0  0  0
 78151  1  0  0  0
 78152  1  0  0  0
 79 82  1  0  0  0
 79153  1  0  0  0
 80154  1  0  0  0
 80155  1  0  0  0
 80156  1  0  0  0
 81 85  1  0  0  0
 81157  1  0  0  0
 81158  1  0  0  0
 82159  1  0  0  0
 82160  1  0  0  0
 83161  1  0  0  0
 85162  1  0  0  0
M  CHG  1  83   1
M  ISO  4   1 100  68 101  82 101  85 100
M  END
> <chiral flag>
0

> <version>
0

> <s_m_source_file>
/data/baiqing/PycharmProjects/Reinvent-master-3.2/result/LINK_invent/BTK/process_docking_weight1_custom_sum_contain_oxygen_bond_distance_aromatic_linkinvent_7_9_3/rearranged_h_0130.sdf

> <i_m_source_file_index>
90

> <r_mmod_Potential_Energy-OPLS-2005>
14380.3935546875

> <r_mmod_Stretch_Energy-OPLS-2005>
7300.603515625

> <r_mmod_Bend_Energy-OPLS-2005>
1464.82287597656

> <r_mmod_Torsional_Energy-OPLS-2005>
638.712524414062

> <r_mmod_Improper_Torsional_Energy-OPLS-2005>
68.1421661376953

> <r_mmod_Van_der_Waal_Energy-OPLS-2005>
3115.28930664062

> <r_mmod_Electrostatic_Energy-OPLS-2005>
-324.494384765625

> <r_mmod_Solvation_Energy-OPLS-2005>
-421.751892089844

> <b_mmod_Minimization_Converged-OPLS-2005>
0

> <r_mmod_RMS_Derivative-OPLS-2005>
3.86279082298279

$$$$
90
                    3D
 Structure written by MMmdl.
152161  0  0  1  0            999 V2000
  -30.4984  -15.0206   20.4025 C   0  0  0  0  0  0
  -30.4478  -12.6347   19.4924 C   0  0  0  0  0  0
  -29.5242  -12.5352   18.2547 C   0  0  0  0  0  0
  -28.0593  -12.3094   18.6767 C   0  0  0  0  0  0
  -27.6256  -13.2486   19.8316 C   0  0  2  0  0  0
  -28.6713  -13.3002   20.9650 C   0  0  0  0  0  0
  -25.2453  -13.8205   20.5723 C   0  0  0  0  0  0
  -24.1776  -13.0428   20.9245 C   0  0  0  0  0  0
  -24.6395  -11.6915   20.8756 C   0  0  0  0  0  0
  -23.9078  -10.4288   21.0411 C   0  0  0  0  0  0
  -24.3626   -9.4203   21.9190 C   0  0  0  0  0  0
  -23.6299   -8.2239   22.0756 C   0  0  0  0  0  0
  -22.4279   -8.0280   21.3545 C   0  0  0  0  0  0
  -21.9919   -9.0254   20.4647 C   0  0  0  0  0  0
  -22.7250  -10.2132   20.3058 C   0  0  0  0  0  0
  -21.6854   -6.0738   22.5280 C   0  0  0  0  0  0
  -21.4014   -6.5641   23.8213 C   0  0  0  0  0  0
  -21.3659   -5.6793   24.9176 C   0  0  0  0  0  0
  -21.6043   -4.3056   24.7226 C   0  0  0  0  0  0
  -21.8818   -3.8148   23.4346 C   0  0  0  0  0  0
  -21.9193   -4.6965   22.3403 C   0  0  0  0  0  0
  -22.7796  -13.5204   21.1894 C   0  0  0  0  0  0
  -22.1662   -4.2151   21.0981 F   0  0  0  0  0  0
  -21.5627   -3.4539   25.7739 F   0  0  0  0  0  0
  -29.9345  -13.7390   20.3556 N   0  0  0  0  0  0
  -26.2872  -12.9436   20.3226 N   0  0  0  0  0  0
  -25.9326  -11.6567   20.5729 N   0  0  0  0  0  0
  -22.0441  -12.8190   22.0444 N   0  0  0  0  0  0
  -25.4090  -15.1941   20.4145 N   0  0  0  0  0  0
  -31.7183  -15.0844   20.1967 O   0  0  0  0  0  0
  -21.6640   -6.8880   21.4242 O   0  0  0  0  0  0
  -22.3482  -14.5509   20.6739 O   0  0  0  0  0  0
  -24.6476  -31.8393   23.1834 C   0  0  0  0  0  0
  -25.9227  -32.4674   23.8242 C   0  0  1  0  0  0
  -27.2191  -27.0880   20.1689 C   0  0  0  0  0  0
  -25.5957  -33.8481   24.2166 N   0  0  0  0  0  0
  -23.4545  -30.4558   21.5294 C   0  0  2  0  0  0
  -24.9066  -28.8680   20.1175 C   0  0  0  0  0  0
  -22.7591  -29.4523   22.4839 C   0  0  0  0  0  0
  -18.0312  -28.1405   22.8466 C   0  0  0  0  0  0
  -24.1492  -36.7243   23.2644 C   0  0  0  0  0  0
  -26.0139  -30.6972   21.3901 C   0  0  0  0  0  0
  -26.0860  -29.3008   20.7387 C   0  0  0  0  0  0
  -27.2457  -28.4291   20.7429 C   0  0  0  0  0  0
  -26.0163  -26.7662   19.5081 C   0  0  0  0  0  0
  -24.8860  -27.6142   19.4870 C   0  0  0  0  0  0
  -23.6860  -29.7775   20.1529 C   0  0  0  0  0  0
  -25.4125  -36.3019   24.0315 C   0  0  1  0  0  0
  -20.5925  -28.3730   23.1228 C   0  0  2  0  0  0
  -20.6799  -26.9431   22.5405 C   0  0  0  0  0  0
  -19.5775  -26.6380   21.5216 C   0  0  0  0  0  0
  -18.1953  -26.7940   22.1620 C   0  0  0  0  0  0
  -19.1568  -28.8884   23.2838 C   0  0  0  0  0  0
  -18.9487  -30.1478   23.8867 C   0  0  0  0  0  0
  -17.6483  -30.6596   24.0559 C   0  0  0  0  0  0
  -25.9075  -34.9396   23.5050 C   0  0  0  0  0  0
  -16.5373  -29.9087   23.6343 C   0  0  0  0  0  0
  -16.7296  -28.6511   23.0353 C   0  0  0  0  0  0
  -26.4533  -31.6553   25.0703 C   0  0  0  0  0  0
  -25.3699  -31.3766   26.1384 C   0  0  0  0  0  0
  -27.0401  -30.2939   24.6315 C   0  0  0  0  0  0
  -27.6053  -32.4324   25.7494 C   0  0  0  0  0  0
  -27.5572  -37.1780   24.8468 C   0  0  0  0  0  0
  -21.4278  -29.3047   22.3590 N   0  0  0  0  0  0
  -26.4287  -37.3732   23.9407 N   0  0  0  0  0  0
  -24.7255  -31.0199   22.0892 N   0  0  0  0  0  0
  -23.4215  -28.8080   23.3013 O   0  0  0  0  0  0
  -28.2636  -26.0778   20.1427 O   0  0  0  0  0  0
  -26.5667  -34.8902   22.4633 O   0  0  0  0  0  0
  -23.5581  -32.1295   23.7016 O   0  0  0  0  0  0
  -27.5858  -20.9024   19.5034 C   0  0  0  0  0  0
  -27.5316  -22.3431   19.6727 C   0  0  0  0  0  0
  -29.5757  -22.2276   20.8632 C   0  0  0  0  0  0
  -28.6611  -18.5854   19.9236 C   0  0  0  0  0  0
  -30.6633  -19.8672   21.1589 C   0  0  0  0  0  0
  -28.6195  -20.0528   20.0181 C   0  0  0  0  0  0
  -29.6402  -20.7565   20.6841 C   0  0  0  0  0  0
  -28.5065  -23.1169   20.3827 C   0  0  0  0  0  0
  -29.7226  -17.7295   20.4474 C   0  0  0  0  0  0
  -26.9952  -24.6685   21.8329 C   0  0  0  0  0  0
  -28.2176  -24.6948   20.9008 C   0  0  2  0  0  0
  -30.7076  -18.4768   21.0430 N   0  0  0  0  0  0
  -29.6432  -16.1773   20.4085 N   0  0  0  0  0  0
  -31.4753  -12.8158   19.1729 H   0  0  0  0  0  0
  -30.4672  -11.6909   20.0404 H   0  0  0  0  0  0
  -29.8534  -11.7285   17.5985 H   0  0  0  0  0  0
  -29.5981  -13.4534   17.6697 H   0  0  0  0  0  0
  -27.9660  -11.2706   18.9951 H   0  0  0  0  0  0
  -27.3936  -12.4261   17.8205 H   0  0  0  0  0  0
  -27.5768  -14.2434   19.3886 H   0  0  0  0  0  0
  -28.7791  -12.3276   21.4476 H   0  0  0  0  0  0
  -28.3614  -14.0000   21.7430 H   0  0  0  0  0  0
  -25.2767   -9.5679   22.4770 H   0  0  0  0  0  0
  -24.0004   -7.4629   22.7474 H   0  0  0  0  0  0
  -21.0852   -8.8775   19.8951 H   0  0  0  0  0  0
  -22.3709  -10.9674   19.6170 H   0  0  0  0  0  0
  -21.2006   -7.6149   23.9719 H   0  0  0  0  0  0
  -21.1482   -6.0523   25.9079 H   0  0  0  0  0  0
  -22.0597   -2.7610   23.2846 H   0  0  0  0  0  0
  -22.4058  -11.9850   22.4830 H   0  0  0  0  0  0
  -21.1057  -13.1210   22.2647 H   0  0  0  0  0  0
  -24.6329  -15.8371   20.5267 H   0  0  0  0  0  0
  -26.2361  -15.6399   20.0430 H   0  0  0  0  0  0
  -26.7293  -32.5267   23.0967 H   0  0  0  0  0  0
  -25.0083  -33.9586   25.0299 H   0  0  0  0  0  0
  -22.7600  -31.2830   21.3676 H   0  0  0  0  0  0
  -23.3757  -35.9573   23.3304 H   0  0  0  0  0  0
  -24.3571  -36.8876   22.2060 H   0  0  0  0  0  0
  -23.7253  -37.6441   23.6681 H   0  0  0  0  0  0
  -26.1735  -31.4460   20.6128 H   0  0  0  0  0  0
  -26.8833  -30.7535   22.0336 H   0  0  0  0  0  0
  -28.1490  -28.7609   21.2350 H   0  0  0  0  0  0
  -25.9386  -25.8049   19.0197 H   0  0  0  0  0  0
  -23.9876  -27.2769   18.9891 H   0  0  0  0  0  0
  -23.8299  -30.5480   19.3946 H   0  0  0  0  0  0
  -22.8003  -29.2223   19.8388 H   0  0  0  0  0  0
  -25.1319  -36.1841   25.0810 H   0  0  0  0  0  0
  -21.0017  -28.3324   24.1348 H   0  0  0  0  0  0
  -20.5699  -26.2344   23.3627 H   0  0  0  0  0  0
  -21.6664  -26.7435   22.1200 H   0  0  0  0  0  0
  -19.6942  -25.6285   21.1263 H   0  0  0  0  0  0
  -19.6719  -27.3176   20.6736 H   0  0  0  0  0  0
  -17.4225  -26.6683   21.4020 H   0  0  0  0  0  0
  -18.0345  -26.0094   22.9027 H   0  0  0  0  0  0
  -19.7964  -30.7301   24.2220 H   0  0  0  0  0  0
  -17.5040  -31.6274   24.5164 H   0  0  0  0  0  0
  -15.5375  -30.2982   23.7685 H   0  0  0  0  0  0
  -15.8696  -28.0824   22.7082 H   0  0  0  0  0  0
  -24.5895  -30.7097   25.7698 H   0  0  0  0  0  0
  -24.8872  -32.2960   26.4707 H   0  0  0  0  0  0
  -25.7963  -30.9006   27.0223 H   0  0  0  0  0  0
  -26.3029  -29.6650   24.1308 H   0  0  0  0  0  0
  -27.3987  -29.7251   25.4904 H   0  0  0  0  0  0
  -27.8948  -30.4162   23.9660 H   0  0  0  0  0  0
  -27.2647  -33.3658   26.1986 H   0  0  0  0  0  0
  -28.3911  -32.6825   25.0354 H   0  0  0  0  0  0
  -28.0666  -31.8504   26.5483 H   0  0  0  0  0  0
  -28.2584  -38.0078   24.7492 H   0  0  0  0  0  0
  -28.1076  -36.2604   24.6323 H   0  0  0  0  0  0
  -27.2287  -37.1457   25.8871 H   0  0  0  0  0  0
  -20.9499  -29.8745   21.6745 H   0  0  0  0  0  0
  -26.0153  -38.2801   24.1399 H   0  0  0  0  0  0
  -26.7671  -20.4297   18.9793 H   0  0  0  0  0  0
  -26.6591  -22.8626   19.2991 H   0  0  0  0  0  0
  -30.3602  -22.6818   21.4526 H   0  0  0  0  0  0
  -27.8252  -18.1097   19.4300 H   0  0  0  0  0  0
  -31.5062  -20.2938   21.6819 H   0  0  0  0  0  0
  -27.0866  -23.8668   22.5660 H   0  0  0  0  0  0
  -26.0738  -24.4983   21.2764 H   0  0  0  0  0  0
  -26.8896  -25.5988   22.3910 H   0  0  0  0  0  0
  -29.0616  -24.8364   21.5768 H   0  0  0  0  0  0
  -28.6884  -15.8643   20.3670 H   0  0  0  0  0  0
  1 25  1  0  0  0
  1 30  2  0  0  0
  1 83  1  0  0  0
  2  3  1  0  0  0
  2 25  1  0  0  0
  2 84  1  0  0  0
  2 85  1  0  0  0
  3  4  1  0  0  0
  3 86  1  0  0  0
  3 87  1  0  0  0
  4  5  1  0  0  0
  4 88  1  0  0  0
  4 89  1  0  0  0
  5  6  1  0  0  0
  5 26  1  0  0  0
  5 90  1  0  0  0
  6 25  1  0  0  0
  6 91  1  0  0  0
  6 92  1  0  0  0
  7  8  2  0  0  0
  7 26  1  0  0  0
  7 29  1  0  0  0
  8  9  1  0  0  0
  8 22  1  0  0  0
  9 10  1  0  0  0
  9 27  2  0  0  0
 10 11  2  0  0  0
 10 15  1  0  0  0
 11 12  1  0  0  0
 11 93  1  0  0  0
 12 13  2  0  0  0
 12 94  1  0  0  0
 13 14  1  0  0  0
 13 31  1  0  0  0
 14 15  2  0  0  0
 14 95  1  0  0  0
 15 96  1  0  0  0
 16 17  2  0  0  0
 16 21  1  0  0  0
 16 31  1  0  0  0
 17 18  1  0  0  0
 17 97  1  0  0  0
 18 19  2  0  0  0
 18 98  1  0  0  0
 19 20  1  0  0  0
 19 24  1  0  0  0
 20 21  2  0  0  0
 20 99  1  0  0  0
 21 23  1  0  0  0
 22 28  1  0  0  0
 22 32  2  0  0  0
 26 27  1  0  0  0
 28100  1  0  0  0
 28101  1  0  0  0
 29102  1  0  0  0
 29103  1  0  0  0
 33 34  1  0  0  0
 33 66  1  0  0  0
 33 70  2  0  0  0
 34 36  1  0  0  0
 34 59  1  0  0  0
 34104  1  0  0  0
 35 44  2  0  0  0
 35 45  1  0  0  0
 35 68  1  0  0  0
 36 56  1  0  0  0
 36105  1  0  0  0
 37 39  1  0  0  0
 37 47  1  0  0  0
 37 66  1  0  0  0
 37106  1  0  0  0
 38 43  2  0  0  0
 38 46  1  0  0  0
 38 47  1  0  0  0
 39 64  1  0  0  0
 39 67  2  0  0  0
 40 52  1  0  0  0
 40 53  2  0  0  0
 40 58  1  0  0  0
 41107  1  0  0  0
 41108  1  0  0  0
 41109  1  0  0  0
 41 48  1  0  0  0
 42 43  1  0  0  0
 42 66  1  0  0  0
 42110  1  0  0  0
 42111  1  0  0  0
 43 44  1  0  0  0
 44112  1  0  0  0
 45 46  2  0  0  0
 45113  1  0  0  0
 46114  1  0  0  0
 47115  1  0  0  0
 47116  1  0  0  0
 48 56  1  0  0  0
 48 65  1  0  0  0
 48117  1  0  0  0
 49 50  1  0  0  0
 49 53  1  0  0  0
 49 64  1  0  0  0
 49118  1  0  0  0
 50 51  1  0  0  0
 50119  1  0  0  0
 50120  1  0  0  0
 51 52  1  0  0  0
 51121  1  0  0  0
 51122  1  0  0  0
 52123  1  0  0  0
 52124  1  0  0  0
 53 54  1  0  0  0
 54 55  2  0  0  0
 54125  1  0  0  0
 55 57  1  0  0  0
 55126  1  0  0  0
 56 69  2  0  0  0
 57 58  2  0  0  0
 57127  1  0  0  0
 58128  1  0  0  0
 59 60  1  0  0  0
 59 61  1  0  0  0
 59 62  1  0  0  0
 60129  1  0  0  0
 60130  1  0  0  0
 60131  1  0  0  0
 61132  1  0  0  0
 61133  1  0  0  0
 61134  1  0  0  0
 62135  1  0  0  0
 62136  1  0  0  0
 62137  1  0  0  0
 63 65  1  0  0  0
 63138  1  0  0  0
 63139  1  0  0  0
 63140  1  0  0  0
 64141  1  0  0  0
 65142  1  0  0  0
 68 81  1  0  0  0
 71 72  2  0  0  0
 71 76  1  0  0  0
 71143  1  0  0  0
 72 78  1  0  0  0
 72144  1  0  0  0
 73 77  1  0  0  0
 73 78  2  0  0  0
 73145  1  0  0  0
 74 76  2  0  0  0
 74 79  1  0  0  0
 74146  1  0  0  0
 75 77  2  0  0  0
 75 82  1  0  0  0
 75147  1  0  0  0
 76 77  1  0  0  0
 78 81  1  0  0  0
 79 82  2  0  0  0
 79 83  1  0  0  0
 80148  1  0  0  0
 80149  1  0  0  0
 80150  1  0  0  0
 80 81  1  0  0  0
 81151  1  0  0  0
 83152  1  0  0  0
M  ISO  4   1 100  68 101  81 101  83 100
M  END
> <chiral flag>
0

> <version>
0

> <s_m_source_file>
/data/baiqing/PycharmProjects/Reinvent-master-3.2/result/LINK_invent/BTK/process_docking_weight1_custom_sum_contain_oxygen_bond_distance_aromatic_linkinvent_7_9_3/rearranged_h_0130.sdf

> <i_m_source_file_index>
91

> <r_mmod_Potential_Energy-OPLS-2005>
427.575256347656

> <r_mmod_Stretch_Energy-OPLS-2005>
266.943298339844

> <r_mmod_Bend_Energy-OPLS-2005>
285.890838623047

> <r_mmod_Torsional_Energy-OPLS-2005>
257.268676757812

> <r_mmod_Improper_Torsional_Energy-OPLS-2005>
9.67237758636475

> <r_mmod_Van_der_Waal_Energy-OPLS-2005>
143.642929077148

> <r_mmod_Electrostatic_Energy-OPLS-2005>
-537.766418457031

> <r_mmod_Solvation_Energy-OPLS-2005>
-238.941986083984

> <b_mmod_Minimization_Converged-OPLS-2005>
0

> <r_mmod_RMS_Derivative-OPLS-2005>
0.733232796192169

$$$$
91
                    3D
 Structure written by MMmdl.
171179  0  0  1  0            999 V2000
  -30.6160  -14.7236   20.4348 C   0  0  0  0  0  0
  -30.4319  -12.4268   19.4844 C   0  0  0  0  0  0
  -29.5153  -12.4977   18.2424 C   0  0  0  0  0  0
  -28.0380  -12.3342   18.6511 C   0  0  0  0  0  0
  -27.6467  -13.2310   19.8565 C   0  0  2  0  0  0
  -28.6918  -13.1577   20.9942 C   0  0  0  0  0  0
  -25.2531  -13.8193   20.5701 C   0  0  0  0  0  0
  -24.1818  -13.0441   20.9202 C   0  0  0  0  0  0
  -24.6409  -11.6916   20.8748 C   0  0  0  0  0  0
  -23.9086  -10.4291   21.0402 C   0  0  0  0  0  0
  -24.3630   -9.4204   21.9184 C   0  0  0  0  0  0
  -23.6299   -8.2242   22.0757 C   0  0  0  0  0  0
  -22.4280   -8.0282   21.3546 C   0  0  0  0  0  0
  -21.9929   -9.0254   20.4641 C   0  0  0  0  0  0
  -22.7260  -10.2129   20.3050 C   0  0  0  0  0  0
  -21.6857   -6.0738   22.5278 C   0  0  0  0  0  0
  -21.4014   -6.5639   23.8212 C   0  0  0  0  0  0
  -21.3659   -5.6789   24.9172 C   0  0  0  0  0  0
  -21.6046   -4.3052   24.7221 C   0  0  0  0  0  0
  -21.8820   -3.8146   23.4341 C   0  0  0  0  0  0
  -21.9192   -4.6966   22.3397 C   0  0  0  0  0  0
  -22.7834  -13.5211   21.1857 C   0  0  0  0  0  0
  -22.1660   -4.2152   21.0977 F   0  0  0  0  0  0
  -21.5633   -3.4535   25.7734 F   0  0  0  0  0  0
  -30.0001  -13.4930   20.4170 N   0  0  0  0  0  0
  -26.2969  -12.9407   20.3312 N   0  0  0  0  0  0
  -25.9346  -11.6546   20.5772 N   0  0  0  0  0  0
  -22.0477  -12.8186   22.0399 N   0  0  0  0  0  0
  -25.4207  -15.1926   20.4111 N   0  0  0  0  0  0
  -31.7917  -14.8330   20.0766 O   0  0  0  0  0  0
  -21.6642   -6.8882   21.4237 O   0  0  0  0  0  0
  -22.3517  -14.5520   20.6712 O   0  0  0  0  0  0
  -24.6305  -31.8550   23.1986 C   0  0  0  0  0  0
  -25.9133  -32.4749   23.8326 C   0  0  1  0  0  0
  -27.2174  -27.2620   20.1186 C   0  0  0  0  0  0
  -25.5933  -33.8552   24.2248 N   0  0  0  0  0  0
  -23.4263  -30.4780   21.5431 C   0  0  2  0  0  0
  -24.8715  -28.9249   20.1098 C   0  0  0  0  0  0
  -22.7494  -29.4600   22.4920 C   0  0  0  0  0  0
  -18.0291  -28.1397   22.8482 C   0  0  0  0  0  0
  -24.1488  -36.7273   23.2640 C   0  0  0  0  0  0
  -25.9725  -30.7659   21.3796 C   0  0  0  0  0  0
  -26.0431  -29.3892   20.7200 C   0  0  0  0  0  0
  -27.2164  -28.5694   20.7154 C   0  0  0  0  0  0
  -26.0255  -26.8713   19.4691 C   0  0  0  0  0  0
  -24.8678  -27.6746   19.4748 C   0  0  0  0  0  0
  -23.6429  -29.8124   20.1594 C   0  0  0  0  0  0
  -25.4120  -36.3067   24.0326 C   0  0  1  0  0  0
  -20.5893  -28.3695   23.1280 C   0  0  2  0  0  0
  -20.6782  -26.9415   22.5413 C   0  0  0  0  0  0
  -19.5760  -26.6396   21.5212 C   0  0  0  0  0  0
  -18.1934  -26.7941   22.1617 C   0  0  0  0  0  0
  -19.1545  -28.8863   23.2874 C   0  0  0  0  0  0
  -18.9472  -30.1464   23.8894 C   0  0  0  0  0  0
  -17.6473  -30.6589   24.0568 C   0  0  0  0  0  0
  -25.9064  -34.9438   23.5094 C   0  0  0  0  0  0
  -16.5358  -29.9088   23.6343 C   0  0  0  0  0  0
  -16.7278  -28.6515   23.0350 C   0  0  0  0  0  0
  -26.4502  -31.6576   25.0718 C   0  0  0  0  0  0
  -25.3717  -31.3722   26.1432 C   0  0  0  0  0  0
  -27.0365  -30.3000   24.6201 C   0  0  0  0  0  0
  -27.6051  -32.4324   25.7496 C   0  0  0  0  0  0
  -27.5580  -37.1794   24.8465 C   0  0  0  0  0  0
  -21.4203  -29.3035   22.3664 N   0  0  0  0  0  0
  -26.4290  -37.3772   23.9409 N   0  0  0  0  0  0
  -24.6958  -31.0502   22.0970 N   0  0  0  0  0  0
  -23.4191  -28.8138   23.3021 O   0  0  0  0  0  0
  -28.3319  -26.3910   20.1690 O   0  0  0  0  0  0
  -26.5635  -34.8914   22.4664 O   0  0  0  0  0  0
  -23.5455  -32.1389   23.7276 O   0  0  0  0  0  0
  -30.0722  -21.0245   22.9966 C   0  0  0  0  0  0
  -30.8095  -21.3154   21.6937 C   0  0  0  0  0  0
  -28.7854  -21.8487   22.8588 C   0  0  1  0  0  0
  -28.6595  -22.3120   21.3534 C   0  0  1  0  0  0
  -27.0275  -19.9233   22.9385 C   0  0  0  0  0  0
  -27.6903  -21.1374   25.0477 C   0  0  0  0  0  0
  -28.0967  -24.6636   22.5000 C   0  0  0  0  0  0
  -29.6754  -18.5877   20.8383 C   0  0  0  0  0  0
  -29.9831  -17.2418   19.9931 C   0  0  0  0  0  0
  -29.3958  -20.0211   20.0835 C   0  0  0  0  0  0
  -28.2004  -24.8851   20.0623 C   0  0  0  0  0  0
  -27.5122  -21.2595   23.5238 C   0  0  0  0  0  0
  -28.7779  -23.9837   21.2699 C   0  0  2  0  0  0
  -29.8269  -15.8476   20.6105 N   0  0  0  0  0  0
  -29.7306  -21.4145   20.6966 N   0  3  2  0  0  0
  -31.4783  -12.5279   19.1918 H   0  0  0  0  0  0
  -30.3516  -11.4498   19.9645 H   0  0  0  0  0  0
  -29.7902  -11.7229   17.5256 H   0  0  0  0  0  0
  -29.6558  -13.4517   17.7323 H   0  0  0  0  0  0
  -27.8839  -11.2856   18.9082 H   0  0  0  0  0  0
  -27.3858  -12.5361   17.8006 H   0  0  0  0  0  0
  -27.6439  -14.2538   19.4791 H   0  0  0  0  0  0
  -28.7169  -12.1612   21.4374 H   0  0  0  0  0  0
  -28.4345  -13.8443   21.8025 H   0  0  0  0  0  0
  -25.2773   -9.5676   22.4762 H   0  0  0  0  0  0
  -23.9999   -7.4638   22.7485 H   0  0  0  0  0  0
  -21.0864   -8.8772   19.8947 H   0  0  0  0  0  0
  -22.3725  -10.9663   19.6157 H   0  0  0  0  0  0
  -21.2004   -7.6146   23.9717 H   0  0  0  0  0  0
  -21.1484   -6.0517   25.9076 H   0  0  0  0  0  0
  -22.0602   -2.7607   23.2839 H   0  0  0  0  0  0
  -22.4083  -11.9824   22.4750 H   0  0  0  0  0  0
  -21.1092  -13.1199   22.2609 H   0  0  0  0  0  0
  -24.6506  -15.8432   20.5229 H   0  0  0  0  0  0
  -26.2634  -15.6342   20.0669 H   0  0  0  0  0  0
  -26.7190  -32.5397   23.1054 H   0  0  0  0  0  0
  -25.0069  -33.9688   25.0383 H   0  0  0  0  0  0
  -22.7238  -31.3016   21.3979 H   0  0  0  0  0  0
  -23.3762  -35.9595   23.3301 H   0  0  0  0  0  0
  -24.3576  -36.8904   22.2056 H   0  0  0  0  0  0
  -23.7229  -37.6467   23.6669 H   0  0  0  0  0  0
  -26.1133  -31.5275   20.6112 H   0  0  0  0  0  0
  -26.8486  -30.8121   22.0148 H   0  0  0  0  0  0
  -28.1127  -28.9175   21.2096 H   0  0  0  0  0  0
  -25.9591  -25.9322   18.9421 H   0  0  0  0  0  0
  -23.9735  -27.3192   18.9819 H   0  0  0  0  0  0
  -23.7653  -30.5895   19.4045 H   0  0  0  0  0  0
  -22.7607  -29.2468   19.8541 H   0  0  0  0  0  0
  -25.1299  -36.1920   25.0818 H   0  0  0  0  0  0
  -20.9984  -28.3275   24.1401 H   0  0  0  0  0  0
  -20.5708  -26.2296   23.3609 H   0  0  0  0  0  0
  -21.6647  -26.7461   22.1192 H   0  0  0  0  0  0
  -19.6936  -25.6314   21.1228 H   0  0  0  0  0  0
  -19.6713  -27.3221   20.6756 H   0  0  0  0  0  0
  -17.4213  -26.6706   21.4002 H   0  0  0  0  0  0
  -18.0320  -26.0079   22.9010 H   0  0  0  0  0  0
  -19.7945  -30.7275   24.2262 H   0  0  0  0  0  0
  -17.5025  -31.6273   24.5167 H   0  0  0  0  0  0
  -15.5359  -30.2985   23.7681 H   0  0  0  0  0  0
  -15.8680  -28.0834   22.7064 H   0  0  0  0  0  0
  -24.5915  -30.7047   25.7751 H   0  0  0  0  0  0
  -24.8877  -32.2887   26.4819 H   0  0  0  0  0  0
  -25.8029  -30.8930   27.0230 H   0  0  0  0  0  0
  -26.2959  -29.6732   24.1220 H   0  0  0  0  0  0
  -27.4056  -29.7276   25.4720 H   0  0  0  0  0  0
  -27.8826  -30.4290   23.9448 H   0  0  0  0  0  0
  -27.2660  -33.3641   26.2036 H   0  0  0  0  0  0
  -28.3877  -32.6854   25.0332 H   0  0  0  0  0  0
  -28.0693  -31.8472   26.5442 H   0  0  0  0  0  0
  -28.2584  -38.0101   24.7513 H   0  0  0  0  0  0
  -28.1084  -36.2628   24.6288 H   0  0  0  0  0  0
  -27.2290  -37.1438   25.8865 H   0  0  0  0  0  0
  -20.9396  -29.8739   21.6850 H   0  0  0  0  0  0
  -26.0171  -38.2846   24.1414 H   0  0  0  0  0  0
  -30.6665  -21.3164   23.8639 H   0  0  0  0  0  0
  -29.8509  -19.9682   23.1186 H   0  0  0  0  0  0
  -31.5826  -20.5887   21.4442 H   0  0  0  0  0  0
  -31.3093  -22.2831   21.7643 H   0  0  0  0  0  0
  -29.0576  -22.6857   23.4845 H   0  0  0  0  0  0
  -27.6836  -22.0328   20.9541 H   0  0  0  0  0  0
  -26.9513  -19.9489   21.8523 H   0  0  0  0  0  0
  -26.0353  -19.6768   23.3188 H   0  0  0  0  0  0
  -27.6807  -19.0992   23.2217 H   0  0  0  0  0  0
  -27.9389  -22.1000   25.4976 H   0  0  0  0  0  0
  -28.4887  -20.4395   25.3040 H   0  0  0  0  0  0
  -26.7774  -20.7815   25.5272 H   0  0  0  0  0  0
  -28.7251  -24.6715   23.3891 H   0  0  0  0  0  0
  -27.1446  -24.1912   22.7395 H   0  0  0  0  0  0
  -27.8746  -25.7192   22.3613 H   0  0  0  0  0  0
  -30.5195  -18.6694   21.5171 H   0  0  0  0  0  0
  -28.8162  -18.3800   21.4695 H   0  0  0  0  0  0
  -30.9910  -17.3249   19.5828 H   0  0  0  0  0  0
  -29.3290  -17.2486   19.1203 H   0  0  0  0  0  0
  -28.3730  -20.0383   19.7050 H   0  0  0  0  0  0
  -30.0116  -19.9917   19.1839 H   0  0  0  0  0  0
  -27.1639  -24.5807   19.9390 H   0  0  0  0  0  0
  -28.6967  -24.5878   19.1378 H   0  0  0  0  0  0
  -26.7088  -21.9788   23.3616 H   0  0  0  0  0  0
  -29.8385  -24.2260   21.3349 H   0  0  0  0  0  0
  -28.8977  -15.6363   20.9429 H   0  0  0  0  0  0
  -30.0893  -21.9408   19.9132 H   0  0  0  0  0  0
  1 25  1  0  0  0
  1 30  2  0  0  0
  1 84  1  0  0  0
  2  3  1  0  0  0
  2 25  1  0  0  0
  2 86  1  0  0  0
  2 87  1  0  0  0
  3  4  1  0  0  0
  3 88  1  0  0  0
  3 89  1  0  0  0
  4  5  1  0  0  0
  4 90  1  0  0  0
  4 91  1  0  0  0
  5  6  1  0  0  0
  5 26  1  0  0  0
  5 92  1  0  0  0
  6 25  1  0  0  0
  6 93  1  0  0  0
  6 94  1  0  0  0
  7  8  2  0  0  0
  7 26  1  0  0  0
  7 29  1  0  0  0
  8  9  1  0  0  0
  8 22  1  0  0  0
  9 10  1  0  0  0
  9 27  2  0  0  0
 10 11  2  0  0  0
 10 15  1  0  0  0
 11 12  1  0  0  0
 11 95  1  0  0  0
 12 13  2  0  0  0
 12 96  1  0  0  0
 13 14  1  0  0  0
 13 31  1  0  0  0
 14 15  2  0  0  0
 14 97  1  0  0  0
 15 98  1  0  0  0
 16 17  2  0  0  0
 16 21  1  0  0  0
 16 31  1  0  0  0
 17 18  1  0  0  0
 17 99  1  0  0  0
 18 19  2  0  0  0
 18100  1  0  0  0
 19 20  1  0  0  0
 19 24  1  0  0  0
 20 21  2  0  0  0
 20101  1  0  0  0
 21 23  1  0  0  0
 22 28  1  0  0  0
 22 32  2  0  0  0
 26 27  1  0  0  0
 28102  1  0  0  0
 28103  1  0  0  0
 29104  1  0  0  0
 29105  1  0  0  0
 33 34  1  0  0  0
 33 66  1  0  0  0
 33 70  2  0  0  0
 34 36  1  0  0  0
 34 59  1  0  0  0
 34106  1  0  0  0
 35 44  2  0  0  0
 35 45  1  0  0  0
 35 68  1  0  0  0
 36 56  1  0  0  0
 36107  1  0  0  0
 37 39  1  0  0  0
 37 47  1  0  0  0
 37 66  1  0  0  0
 37108  1  0  0  0
 38 43  2  0  0  0
 38 46  1  0  0  0
 38 47  1  0  0  0
 39 64  1  0  0  0
 39 67  2  0  0  0
 40 52  1  0  0  0
 40 53  2  0  0  0
 40 58  1  0  0  0
 41109  1  0  0  0
 41110  1  0  0  0
 41111  1  0  0  0
 41 48  1  0  0  0
 42 43  1  0  0  0
 42 66  1  0  0  0
 42112  1  0  0  0
 42113  1  0  0  0
 43 44  1  0  0  0
 44114  1  0  0  0
 45 46  2  0  0  0
 45115  1  0  0  0
 46116  1  0  0  0
 47117  1  0  0  0
 47118  1  0  0  0
 48 56  1  0  0  0
 48 65  1  0  0  0
 48119  1  0  0  0
 49 50  1  0  0  0
 49 53  1  0  0  0
 49 64  1  0  0  0
 49120  1  0  0  0
 50 51  1  0  0  0
 50121  1  0  0  0
 50122  1  0  0  0
 51 52  1  0  0  0
 51123  1  0  0  0
 51124  1  0  0  0
 52125  1  0  0  0
 52126  1  0  0  0
 53 54  1  0  0  0
 54 55  2  0  0  0
 54127  1  0  0  0
 55 57  1  0  0  0
 55128  1  0  0  0
 56 69  2  0  0  0
 57 58  2  0  0  0
 57129  1  0  0  0
 58130  1  0  0  0
 59 60  1  0  0  0
 59 61  1  0  0  0
 59 62  1  0  0  0
 60131  1  0  0  0
 60132  1  0  0  0
 60133  1  0  0  0
 61134  1  0  0  0
 61135  1  0  0  0
 61136  1  0  0  0
 62137  1  0  0  0
 62138  1  0  0  0
 62139  1  0  0  0
 63 65  1  0  0  0
 63140  1  0  0  0
 63141  1  0  0  0
 63142  1  0  0  0
 64143  1  0  0  0
 65144  1  0  0  0
 68 81  1  0  0  0
 71 72  1  0  0  0
 71145  1  0  0  0
 71146  1  0  0  0
 71 73  1  0  0  0
 72 85  1  0  0  0
 72147  1  0  0  0
 72148  1  0  0  0
 73 74  1  0  0  0
 73 82  1  0  0  0
 73149  1  0  0  0
 74 83  1  0  0  0
 74 85  1  0  0  0
 74150  1  0  0  0
 75151  1  0  0  0
 75152  1  0  0  0
 75153  1  0  0  0
 75 82  1  0  0  0
 76 82  1  0  0  0
 76154  1  0  0  0
 76155  1  0  0  0
 76156  1  0  0  0
 77157  1  0  0  0
 77158  1  0  0  0
 77159  1  0  0  0
 77 83  1  0  0  0
 78 79  1  0  0  0
 78 80  1  0  0  0
 78160  1  0  0  0
 78161  1  0  0  0
 79 84  1  0  0  0
 79162  1  0  0  0
 79163  1  0  0  0
 80164  1  0  0  0
 80165  1  0  0  0
 80 85  1  0  0  0
 81 83  1  0  0  0
 81166  1  0  0  0
 81167  1  0  0  0
 82168  1  0  0  0
 83169  1  0  0  0
 84170  1  0  0  0
 85171  1  0  0  0
M  CHG  1  85   1
M  ISO  4   1 100  68 101  81 101  84 100
M  END
> <chiral flag>
0

> <version>
0

> <s_m_source_file>
/data/baiqing/PycharmProjects/Reinvent-master-3.2/result/LINK_invent/BTK/process_docking_weight1_custom_sum_contain_oxygen_bond_distance_aromatic_linkinvent_7_9_3/rearranged_h_0130.sdf

> <i_m_source_file_index>
92

> <r_mmod_Potential_Energy-OPLS-2005>
296.643035888672

> <r_mmod_Stretch_Energy-OPLS-2005>
154.56721496582

> <r_mmod_Bend_Energy-OPLS-2005>
251.409713745117

> <r_mmod_Torsional_Energy-OPLS-2005>
332.984649658203

> <r_mmod_Improper_Torsional_Energy-OPLS-2005>
6.98765134811401

> <r_mmod_Van_der_Waal_Energy-OPLS-2005>
136.678405761719

> <r_mmod_Electrostatic_Energy-OPLS-2005>
-223.071075439453

> <r_mmod_Solvation_Energy-OPLS-2005>
-441.291931152344

> <b_mmod_Minimization_Converged-OPLS-2005>
0

> <r_mmod_RMS_Derivative-OPLS-2005>
1.30471920967102

$$$$
92
                    3D
 Structure written by MMmdl.
149157  0  0  1  0            999 V2000
  -30.4739  -15.2030   20.3816 C   0  0  0  0  0  0
  -30.4364  -12.7678   19.5181 C   0  0  0  0  0  0
  -29.5285  -12.5653   18.2795 C   0  0  0  0  0  0
  -28.0753  -12.2999   18.7091 C   0  0  0  0  0  0
  -27.6127  -13.2714   19.8237 C   0  0  2  0  0  0
  -28.6499  -13.4240   20.9575 C   0  0  0  0  0  0
  -25.2388  -13.8248   20.5750 C   0  0  0  0  0  0
  -24.1740  -13.0437   20.9260 C   0  0  0  0  0  0
  -24.6396  -11.6935   20.8770 C   0  0  0  0  0  0
  -23.9093  -10.4289   21.0412 C   0  0  0  0  0  0
  -24.3637   -9.4204   21.9192 C   0  0  0  0  0  0
  -23.6305   -8.2243   22.0762 C   0  0  0  0  0  0
  -22.4286   -8.0284   21.3549 C   0  0  0  0  0  0
  -21.9926   -9.0259   20.4651 C   0  0  0  0  0  0
  -22.7265  -10.2135   20.3060 C   0  0  0  0  0  0
  -21.6850   -6.0742   22.5282 C   0  0  0  0  0  0
  -21.4013   -6.5643   23.8216 C   0  0  0  0  0  0
  -21.3659   -5.6793   24.9174 C   0  0  0  0  0  0
  -21.6043   -4.3055   24.7220 C   0  0  0  0  0  0
  -21.8819   -3.8151   23.4338 C   0  0  0  0  0  0
  -21.9191   -4.6972   22.3398 C   0  0  0  0  0  0
  -22.7756  -13.5188   21.1906 C   0  0  0  0  0  0
  -22.1659   -4.2160   21.0975 F   0  0  0  0  0  0
  -21.5628   -3.4539   25.7729 F   0  0  0  0  0  0
  -29.8902  -13.9107   20.3334 N   0  0  0  0  0  0
  -26.2816  -12.9518   20.3225 N   0  0  0  0  0  0
  -25.9330  -11.6626   20.5731 N   0  0  0  0  0  0
  -22.0411  -12.8169   22.0459 N   0  0  0  0  0  0
  -25.4024  -15.1981   20.4183 N   0  0  0  0  0  0
  -31.6927  -15.1993   20.1633 O   0  0  0  0  0  0
  -21.6642   -6.8890   21.4244 O   0  0  0  0  0  0
  -22.3432  -14.5488   20.6744 O   0  0  0  0  0  0
  -24.6605  -31.8274   23.1745 C   0  0  0  0  0  0
  -25.9296  -32.4609   23.8197 C   0  0  1  0  0  0
  -27.2171  -26.9608   20.1759 C   0  0  0  0  0  0
  -25.5979  -33.8422   24.2105 N   0  0  0  0  0  0
  -23.4740  -30.4423   21.5229 C   0  0  2  0  0  0
  -24.9266  -28.8398   20.1114 C   0  0  0  0  0  0
  -22.7662  -29.4467   22.4796 C   0  0  0  0  0  0
  -18.0325  -28.1414   22.8472 C   0  0  0  0  0  0
  -24.1489  -36.7214   23.2651 C   0  0  0  0  0  0
  -26.0431  -30.6450   21.4002 C   0  0  0  0  0  0
  -26.1115  -29.2396   20.7428 C   0  0  0  0  0  0
  -27.2529  -28.3211   20.7520 C   0  0  0  0  0  0
  -26.0028  -26.7127   19.4935 C   0  0  0  0  0  0
  -24.8967  -27.5958   19.4665 C   0  0  0  0  0  0
  -23.7119  -29.7630   20.1475 C   0  0  0  0  0  0
  -25.4129  -36.2981   24.0305 C   0  0  1  0  0  0
  -20.5947  -28.3754   23.1196 C   0  0  2  0  0  0
  -20.6802  -26.9439   22.5403 C   0  0  0  0  0  0
  -19.5771  -26.6384   21.5218 C   0  0  0  0  0  0
  -18.1954  -26.7949   22.1622 C   0  0  0  0  0  0
  -19.1587  -28.8904   23.2822 C   0  0  0  0  0  0
  -18.9498  -30.1494   23.8855 C   0  0  0  0  0  0
  -17.6492  -30.6603   24.0559 C   0  0  0  0  0  0
  -25.9090  -34.9360   23.5023 C   0  0  0  0  0  0
  -16.5383  -29.9091   23.6345 C   0  0  0  0  0  0
  -16.7303  -28.6511   23.0360 C   0  0  0  0  0  0
  -26.4558  -31.6538   25.0707 C   0  0  0  0  0  0
  -25.3690  -31.3775   26.1366 C   0  0  0  0  0  0
  -27.0460  -30.2916   24.6411 C   0  0  0  0  0  0
  -27.6055  -32.4346   25.7505 C   0  0  0  0  0  0
  -27.5570  -37.1769   24.8469 C   0  0  0  0  0  0
  -21.4336  -29.3052   22.3549 N   0  0  0  0  0  0
  -26.4277  -37.3718   23.9411 N   0  0  0  0  0  0
  -24.7473  -30.9971   22.0863 N   0  0  0  0  0  0
  -23.4226  -28.8028   23.3019 O   0  0  0  0  0  0
  -28.2041  -25.8493   20.2584 O   0  0  0  0  0  0
  -26.5704  -34.8892   22.4620 O   0  0  0  0  0  0
  -23.5676  -32.1221   23.6854 O   0  0  0  0  0  0
  -29.3070  -22.1046   21.2670 C   0  0  0  0  0  0
  -29.7153  -20.6812   21.3575 C   0  0  0  0  0  0
  -28.5545  -22.7077   20.1815 C   0  0  0  0  0  0
  -29.4160  -19.6268   20.4025 C   0  0  0  0  0  0
  -28.2958  -21.5790   19.2738 C   0  0  0  0  0  0
  -27.4490  -21.8321   18.0409 C   0  0  0  0  0  0
  -27.8063  -24.2827   20.0447 C   0  0  0  0  0  0
  -30.1685  -18.0590   20.3336 C   0  0  0  0  0  0
  -28.7048  -20.2140   19.3630 N   0  0  0  0  0  0
  -29.7375  -16.4745   20.4668 N   0  0  0  0  0  0
  -31.4578  -12.9598   19.1871 H   0  0  0  0  0  0
  -30.4894  -11.8554   20.1142 H   0  0  0  0  0  0
  -29.8965  -11.7405   17.6681 H   0  0  0  0  0  0
  -29.5665  -13.4557   17.6500 H   0  0  0  0  0  0
  -28.0230  -11.2737   19.0752 H   0  0  0  0  0  0
  -27.4047  -12.3517   17.8504 H   0  0  0  0  0  0
  -27.5344  -14.2434   19.3349 H   0  0  0  0  0  0
  -28.8037  -12.4817   21.4857 H   0  0  0  0  0  0
  -28.3008  -14.1449   21.6983 H   0  0  0  0  0  0
  -25.2785   -9.5672   22.4771 H   0  0  0  0  0  0
  -24.0008   -7.4628   22.7482 H   0  0  0  0  0  0
  -21.0861   -8.8782   19.8953 H   0  0  0  0  0  0
  -22.3731  -10.9674   19.6166 H   0  0  0  0  0  0
  -21.2008   -7.6151   23.9723 H   0  0  0  0  0  0
  -21.1481   -6.0521   25.9079 H   0  0  0  0  0  0
  -22.0599   -2.7615   23.2831 H   0  0  0  0  0  0
  -22.4027  -11.9820   22.4828 H   0  0  0  0  0  0
  -21.1031  -13.1188   22.2682 H   0  0  0  0  0  0
  -24.6313  -15.8478   20.5310 H   0  0  0  0  0  0
  -26.2434  -15.6405   20.0723 H   0  0  0  0  0  0
  -26.7364  -32.5154   23.0913 H   0  0  0  0  0  0
  -25.0072  -33.9507   25.0218 H   0  0  0  0  0  0
  -22.7849  -31.2730   21.3555 H   0  0  0  0  0  0
  -23.3765  -35.9532   23.3280 H   0  0  0  0  0  0
  -24.3577  -36.8884   22.2075 H   0  0  0  0  0  0
  -23.7219  -37.6388   23.6714 H   0  0  0  0  0  0
  -26.2199  -31.3877   20.6215 H   0  0  0  0  0  0
  -26.9055  -30.7013   22.0526 H   0  0  0  0  0  0
  -28.1469  -28.6250   21.2771 H   0  0  0  0  0  0
  -25.8596  -25.7665   18.9950 H   0  0  0  0  0  0
  -23.9968  -27.2839   18.9541 H   0  0  0  0  0  0
  -23.8655  -30.5334   19.3911 H   0  0  0  0  0  0
  -22.8222  -29.2172   19.8291 H   0  0  0  0  0  0
  -25.1324  -36.1794   25.0796 H   0  0  0  0  0  0
  -21.0035  -28.3349   24.1316 H   0  0  0  0  0  0
  -20.5698  -26.2371   23.3640 H   0  0  0  0  0  0
  -21.6663  -26.7428   22.1197 H   0  0  0  0  0  0
  -19.6934  -25.6286   21.1264 H   0  0  0  0  0  0
  -19.6702  -27.3179   20.6733 H   0  0  0  0  0  0
  -17.4228  -26.6698   21.4020 H   0  0  0  0  0  0
  -18.0340  -26.0106   22.9028 H   0  0  0  0  0  0
  -19.7972  -30.7322   24.2203 H   0  0  0  0  0  0
  -17.5042  -31.6275   24.5175 H   0  0  0  0  0  0
  -15.5379  -30.2980   23.7697 H   0  0  0  0  0  0
  -15.8699  -28.0814   22.7100 H   0  0  0  0  0  0
  -24.5890  -30.7105   25.7679 H   0  0  0  0  0  0
  -24.8860  -32.2971   26.4681 H   0  0  0  0  0  0
  -25.7934  -30.9019   27.0215 H   0  0  0  0  0  0
  -26.3125  -29.6596   24.1395 H   0  0  0  0  0  0
  -27.3994  -29.7275   25.5052 H   0  0  0  0  0  0
  -27.9058  -30.4128   23.9820 H   0  0  0  0  0  0
  -27.2630  -33.3700   26.1946 H   0  0  0  0  0  0
  -28.3936  -32.6821   25.0378 H   0  0  0  0  0  0
  -28.0639  -31.8555   26.5533 H   0  0  0  0  0  0
  -28.2573  -38.0081   24.7527 H   0  0  0  0  0  0
  -28.1077  -36.2609   24.6277 H   0  0  0  0  0  0
  -27.2290  -37.1390   25.8873 H   0  0  0  0  0  0
  -20.9588  -29.8749   21.6684 H   0  0  0  0  0  0
  -26.0125  -38.2777   24.1423 H   0  0  0  0  0  0
  -29.5856  -22.7505   22.0877 H   0  0  0  0  0  0
  -30.3228  -20.4046   22.2088 H   0  0  0  0  0  0
  -26.4705  -22.2226   18.3206 H   0  0  0  0  0  0
  -27.2853  -20.9189   17.4673 H   0  0  0  0  0  0
  -27.9374  -22.5518   17.3843 H   0  0  0  0  0  0
  -26.8977  -24.1668   20.6363 H   0  0  0  0  0  0
  -27.4619  -24.2866   19.0137 H   0  0  0  0  0  0
  -30.9739  -18.1456   21.0635 H   0  0  0  0  0  0
  -30.6945  -18.0877   19.3790 H   0  0  0  0  0  0
  -28.7446  -16.3511   20.5949 H   0  0  0  0  0  0
  1 25  1  0  0  0
  1 30  2  0  0  0
  1 80  1  0  0  0
  2  3  1  0  0  0
  2 25  1  0  0  0
  2 81  1  0  0  0
  2 82  1  0  0  0
  3  4  1  0  0  0
  3 83  1  0  0  0
  3 84  1  0  0  0
  4  5  1  0  0  0
  4 85  1  0  0  0
  4 86  1  0  0  0
  5  6  1  0  0  0
  5 26  1  0  0  0
  5 87  1  0  0  0
  6 25  1  0  0  0
  6 88  1  0  0  0
  6 89  1  0  0  0
  7  8  2  0  0  0
  7 26  1  0  0  0
  7 29  1  0  0  0
  8  9  1  0  0  0
  8 22  1  0  0  0
  9 10  1  0  0  0
  9 27  2  0  0  0
 10 11  2  0  0  0
 10 15  1  0  0  0
 11 12  1  0  0  0
 11 90  1  0  0  0
 12 13  2  0  0  0
 12 91  1  0  0  0
 13 14  1  0  0  0
 13 31  1  0  0  0
 14 15  2  0  0  0
 14 92  1  0  0  0
 15 93  1  0  0  0
 16 17  2  0  0  0
 16 21  1  0  0  0
 16 31  1  0  0  0
 17 18  1  0  0  0
 17 94  1  0  0  0
 18 19  2  0  0  0
 18 95  1  0  0  0
 19 20  1  0  0  0
 19 24  1  0  0  0
 20 21  2  0  0  0
 20 96  1  0  0  0
 21 23  1  0  0  0
 22 28  1  0  0  0
 22 32  2  0  0  0
 26 27  1  0  0  0
 28 97  1  0  0  0
 28 98  1  0  0  0
 29 99  1  0  0  0
 29100  1  0  0  0
 33 34  1  0  0  0
 33 66  1  0  0  0
 33 70  2  0  0  0
 34 36  1  0  0  0
 34 59  1  0  0  0
 34101  1  0  0  0
 35 44  2  0  0  0
 35 45  1  0  0  0
 35 68  1  0  0  0
 36 56  1  0  0  0
 36102  1  0  0  0
 37 39  1  0  0  0
 37 47  1  0  0  0
 37 66  1  0  0  0
 37103  1  0  0  0
 38 43  2  0  0  0
 38 46  1  0  0  0
 38 47  1  0  0  0
 39 64  1  0  0  0
 39 67  2  0  0  0
 40 52  1  0  0  0
 40 53  2  0  0  0
 40 58  1  0  0  0
 41104  1  0  0  0
 41105  1  0  0  0
 41106  1  0  0  0
 41 48  1  0  0  0
 42 43  1  0  0  0
 42 66  1  0  0  0
 42107  1  0  0  0
 42108  1  0  0  0
 43 44  1  0  0  0
 44109  1  0  0  0
 45 46  2  0  0  0
 45110  1  0  0  0
 46111  1  0  0  0
 47112  1  0  0  0
 47113  1  0  0  0
 48 56  1  0  0  0
 48 65  1  0  0  0
 48114  1  0  0  0
 49 50  1  0  0  0
 49 53  1  0  0  0
 49 64  1  0  0  0
 49115  1  0  0  0
 50 51  1  0  0  0
 50116  1  0  0  0
 50117  1  0  0  0
 51 52  1  0  0  0
 51118  1  0  0  0
 51119  1  0  0  0
 52120  1  0  0  0
 52121  1  0  0  0
 53 54  1  0  0  0
 54 55  2  0  0  0
 54122  1  0  0  0
 55 57  1  0  0  0
 55123  1  0  0  0
 56 69  2  0  0  0
 57 58  2  0  0  0
 57124  1  0  0  0
 58125  1  0  0  0
 59 60  1  0  0  0
 59 61  1  0  0  0
 59 62  1  0  0  0
 60126  1  0  0  0
 60127  1  0  0  0
 60128  1  0  0  0
 61129  1  0  0  0
 61130  1  0  0  0
 61131  1  0  0  0
 62132  1  0  0  0
 62133  1  0  0  0
 62134  1  0  0  0
 63 65  1  0  0  0
 63135  1  0  0  0
 63136  1  0  0  0
 63137  1  0  0  0
 64138  1  0  0  0
 65139  1  0  0  0
 68 77  1  0  0  0
 71 72  2  0  0  0
 71 73  1  0  0  0
 71140  1  0  0  0
 72 74  1  0  0  0
 72141  1  0  0  0
 73 75  2  0  0  0
 73 77  1  0  0  0
 74 78  1  0  0  0
 74 79  2  0  0  0
 75 76  1  0  0  0
 75 79  1  0  0  0
 76142  1  0  0  0
 76143  1  0  0  0
 76144  1  0  0  0
 77145  1  0  0  0
 77146  1  0  0  0
 78 80  1  0  0  0
 78147  1  0  0  0
 78148  1  0  0  0
 80149  1  0  0  0
M  ISO  4   1 100  68 101  77 101  80 100
M  END
> <chiral flag>
0

> <version>
0

> <s_m_source_file>
/data/baiqing/PycharmProjects/Reinvent-master-3.2/result/LINK_invent/BTK/process_docking_weight1_custom_sum_contain_oxygen_bond_distance_aromatic_linkinvent_7_9_3/rearranged_h_0130.sdf

> <i_m_source_file_index>
93

> <r_mmod_Potential_Energy-OPLS-2005>
842.110778808594

> <r_mmod_Stretch_Energy-OPLS-2005>
464.574462890625

> <r_mmod_Bend_Energy-OPLS-2005>
427.154541015625

> <r_mmod_Torsional_Energy-OPLS-2005>
220.413452148438

> <r_mmod_Improper_Torsional_Energy-OPLS-2005>
8.39016819000244

> <r_mmod_Van_der_Waal_Energy-OPLS-2005>
136.458740234375

> <r_mmod_Electrostatic_Energy-OPLS-2005>
-589.089965820312

> <r_mmod_Solvation_Energy-OPLS-2005>
-230.841384887695

> <b_mmod_Minimization_Converged-OPLS-2005>
0

> <r_mmod_RMS_Derivative-OPLS-2005>
1.11412215232849

$$$$
93
                    3D
 Structure written by MMmdl.
167176  0  0  1  0            999 V2000
  -30.6445  -14.7326   20.4471 C   0  0  0  0  0  0
  -30.4242  -12.4455   19.4770 C   0  0  0  0  0  0
  -29.5074  -12.4990   18.2361 C   0  0  0  0  0  0
  -28.0366  -12.3225   18.6560 C   0  0  0  0  0  0
  -27.6401  -13.2344   19.8490 C   0  0  2  0  0  0
  -28.6853  -13.1913   20.9851 C   0  0  0  0  0  0
  -25.2503  -13.8188   20.5685 C   0  0  0  0  0  0
  -24.1807  -13.0439   20.9235 C   0  0  0  0  0  0
  -24.6392  -11.6914   20.8751 C   0  0  0  0  0  0
  -23.9074  -10.4292   21.0409 C   0  0  0  0  0  0
  -24.3624   -9.4209   21.9194 C   0  0  0  0  0  0
  -23.6291   -8.2253   22.0766 C   0  0  0  0  0  0
  -22.4277   -8.0280   21.3550 C   0  0  0  0  0  0
  -21.9910   -9.0267   20.4669 C   0  0  0  0  0  0
  -22.7242  -10.2138   20.3071 C   0  0  0  0  0  0
  -21.6857   -6.0734   22.5275 C   0  0  0  0  0  0
  -21.4018   -6.5640   23.8205 C   0  0  0  0  0  0
  -21.3657   -5.6793   24.9173 C   0  0  0  0  0  0
  -21.6033   -4.3058   24.7220 C   0  0  0  0  0  0
  -21.8820   -3.8146   23.4348 C   0  0  0  0  0  0
  -21.9192   -4.6964   22.3399 C   0  0  0  0  0  0
  -22.7829  -13.5229   21.1873 C   0  0  0  0  0  0
  -22.1666   -4.2141   21.0983 F   0  0  0  0  0  0
  -21.5628   -3.4549   25.7745 F   0  0  0  0  0  0
  -29.9864  -13.5239   20.3946 N   0  0  0  0  0  0
  -26.2931  -12.9402   20.3286 N   0  0  0  0  0  0
  -25.9329  -11.6540   20.5779 N   0  0  0  0  0  0
  -22.0465  -12.8232   22.0427 N   0  0  0  0  0  0
  -25.4164  -15.1896   20.4019 N   0  0  0  0  0  0
  -31.8380  -14.7869   20.1457 O   0  0  0  0  0  0
  -21.6636   -6.8883   21.4236 O   0  0  0  0  0  0
  -22.3529  -14.5539   20.6713 O   0  0  0  0  0  0
  -24.6277  -31.8564   23.1997 C   0  0  0  0  0  0
  -25.9114  -32.4755   23.8334 C   0  0  1  0  0  0
  -27.2187  -27.2847   20.1364 C   0  0  0  0  0  0
  -25.5928  -33.8563   24.2265 N   0  0  0  0  0  0
  -23.4233  -30.4780   21.5422 C   0  0  2  0  0  0
  -24.8700  -28.9202   20.1166 C   0  0  0  0  0  0
  -22.7490  -29.4605   22.4932 C   0  0  0  0  0  0
  -18.0285  -28.1367   22.8528 C   0  0  0  0  0  0
  -24.1490  -36.7293   23.2640 C   0  0  0  0  0  0
  -25.9656  -30.7778   21.3739 C   0  0  0  0  0  0
  -26.0403  -29.3996   20.7197 C   0  0  0  0  0  0
  -27.2218  -28.5949   20.7135 C   0  0  0  0  0  0
  -26.0271  -26.8557   19.5188 C   0  0  0  0  0  0
  -24.8663  -27.6561   19.5045 C   0  0  0  0  0  0
  -23.6400  -29.8067   20.1606 C   0  0  0  0  0  0
  -25.4110  -36.3077   24.0333 C   0  0  1  0  0  0
  -20.5887  -28.3719   23.1264 C   0  0  2  0  0  0
  -20.6802  -26.9431   22.5415 C   0  0  0  0  0  0
  -19.5740  -26.6293   21.5295 C   0  0  0  0  0  0
  -18.1940  -26.7850   22.1783 C   0  0  0  0  0  0
  -19.1537  -28.8870   23.2857 C   0  0  0  0  0  0
  -18.9457  -30.1493   23.8824 C   0  0  0  0  0  0
  -17.6455  -30.6616   24.0485 C   0  0  0  0  0  0
  -25.9058  -34.9447   23.5099 C   0  0  0  0  0  0
  -16.5344  -29.9092   23.6303 C   0  0  0  0  0  0
  -16.7261  -28.6476   23.0384 C   0  0  0  0  0  0
  -26.4503  -31.6570   25.0711 C   0  0  0  0  0  0
  -25.3732  -31.3728   26.1437 C   0  0  0  0  0  0
  -27.0338  -30.2983   24.6186 C   0  0  0  0  0  0
  -27.6059  -32.4313   25.7489 C   0  0  0  0  0  0
  -27.5579  -37.1795   24.8467 C   0  0  0  0  0  0
  -21.4198  -29.3063   22.3670 N   0  0  0  0  0  0
  -26.4287  -37.3768   23.9420 N   0  0  0  0  0  0
  -24.6911  -31.0549   22.0959 N   0  0  0  0  0  0
  -23.4204  -28.8151   23.3013 O   0  0  0  0  0  0
  -28.3238  -26.4165   20.1195 O   0  0  0  0  0  0
  -26.5625  -34.8918   22.4669 O   0  0  0  0  0  0
  -23.5429  -32.1372   23.7308 O   0  0  0  0  0  0
  -29.9011  -19.9132   19.8838 C   0  0  0  0  0  0
  -28.5751  -20.3743   21.5685 C   0  0  0  0  0  0
  -29.2385  -21.0209   20.5561 C   0  0  0  0  0  0
  -29.7474  -18.6894   20.5408 C   0  0  0  0  0  0
  -27.1689  -17.5132   22.4836 C   0  0  0  0  0  0
  -28.6354  -18.7653   24.1035 C   0  0  0  0  0  0
  -26.7923  -16.5385   23.6189 C   0  0  0  0  0  0
  -28.2597  -17.7521   25.1992 C   0  0  0  0  0  0
  -28.5668  -18.1065   22.7104 C   0  0  0  0  0  0
  -29.3956  -22.5972   20.3429 C   0  0  0  0  0  0
  -30.4833  -17.3016   20.2971 C   0  0  0  0  0  0
  -28.1778  -23.6379   20.1424 C   0  0  0  0  0  0
  -28.2279  -25.1067   20.8310 C   0  0  0  0  0  0
  -28.9456  -19.0179   21.6348 N   0  0  0  0  0  0
  -29.9258  -15.9105   20.5964 N   0  0  0  0  0  0
  -26.9186  -17.1748   24.9507 N   0  3  0  0  0  0
  -31.4690  -12.5508   19.1777 H   0  0  0  0  0  0
  -30.3520  -11.4729   19.9672 H   0  0  0  0  0  0
  -29.7887  -11.7251   17.5210 H   0  0  0  0  0  0
  -29.6347  -13.4516   17.7198 H   0  0  0  0  0  0
  -27.9037  -11.2764   18.9346 H   0  0  0  0  0  0
  -27.3736  -12.4996   17.8074 H   0  0  0  0  0  0
  -27.6304  -14.2517   19.4572 H   0  0  0  0  0  0
  -28.7157  -12.2040   21.4489 H   0  0  0  0  0  0
  -28.4261  -13.8981   21.7763 H   0  0  0  0  0  0
  -25.2766   -9.5674   22.4775 H   0  0  0  0  0  0
  -23.9993   -7.4634   22.7477 H   0  0  0  0  0  0
  -21.0851   -8.8790   19.8965 H   0  0  0  0  0  0
  -22.3709  -10.9684   19.6188 H   0  0  0  0  0  0
  -21.2022   -7.6151   23.9716 H   0  0  0  0  0  0
  -21.1473   -6.0527   25.9076 H   0  0  0  0  0  0
  -22.0596   -2.7610   23.2850 H   0  0  0  0  0  0
  -22.4061  -11.9890   22.4810 H   0  0  0  0  0  0
  -21.1088  -13.1261   22.2627 H   0  0  0  0  0  0
  -24.6196  -15.8150   20.4382 H   0  0  0  0  0  0
  -26.2161  -15.5976   19.9359 H   0  0  0  0  0  0
  -26.7178  -32.5428   23.1078 H   0  0  0  0  0  0
  -25.0067  -33.9705   25.0404 H   0  0  0  0  0  0
  -22.7177  -31.2989   21.3944 H   0  0  0  0  0  0
  -23.3762  -35.9621   23.3302 H   0  0  0  0  0  0
  -24.3582  -36.8910   22.2055 H   0  0  0  0  0  0
  -23.7231  -37.6491   23.6662 H   0  0  0  0  0  0
  -26.0975  -31.5378   20.6034 H   0  0  0  0  0  0
  -26.8470  -30.8326   22.0004 H   0  0  0  0  0  0
  -28.1239  -28.9598   21.1843 H   0  0  0  0  0  0
  -25.9962  -25.8828   19.0496 H   0  0  0  0  0  0
  -23.9681  -27.2845   19.0303 H   0  0  0  0  0  0
  -23.7649  -30.5800   19.4021 H   0  0  0  0  0  0
  -22.7587  -29.2400   19.8574 H   0  0  0  0  0  0
  -25.1286  -36.1919   25.0821 H   0  0  0  0  0  0
  -20.9964  -28.3324   24.1388 H   0  0  0  0  0  0
  -20.5795  -26.2331   23.3644 H   0  0  0  0  0  0
  -21.6649  -26.7511   22.1133 H   0  0  0  0  0  0
  -19.6912  -25.6161   21.1427 H   0  0  0  0  0  0
  -19.6610  -27.3000   20.6738 H   0  0  0  0  0  0
  -17.4153  -26.6441   21.4266 H   0  0  0  0  0  0
  -18.0463  -26.0092   22.9315 H   0  0  0  0  0  0
  -19.7924  -30.7343   24.2127 H   0  0  0  0  0  0
  -17.5015  -31.6329   24.5026 H   0  0  0  0  0  0
  -15.5344  -30.3000   23.7627 H   0  0  0  0  0  0
  -15.8651  -28.0758   22.7180 H   0  0  0  0  0  0
  -24.5922  -30.7054   25.7774 H   0  0  0  0  0  0
  -24.8910  -32.2900   26.4833 H   0  0  0  0  0  0
  -25.8057  -30.8925   27.0223 H   0  0  0  0  0  0
  -26.2902  -29.6742   24.1215 H   0  0  0  0  0  0
  -27.4020  -29.7231   25.4693 H   0  0  0  0  0  0
  -27.8789  -30.4263   23.9424 H   0  0  0  0  0  0
  -27.2678  -33.3627   26.2052 H   0  0  0  0  0  0
  -28.3893  -32.6846   25.0335 H   0  0  0  0  0  0
  -28.0712  -31.8441   26.5415 H   0  0  0  0  0  0
  -28.2587  -38.0095   24.7508 H   0  0  0  0  0  0
  -28.1072  -36.2624   24.6295 H   0  0  0  0  0  0
  -27.2302  -37.1454   25.8867 H   0  0  0  0  0  0
  -20.9390  -29.8790   21.6879 H   0  0  0  0  0  0
  -26.0174  -38.2843   24.1415 H   0  0  0  0  0  0
  -30.5493  -20.0296   19.0247 H   0  0  0  0  0  0
  -27.9474  -20.8049   22.3355 H   0  0  0  0  0  0
  -26.4294  -18.3119   22.4191 H   0  0  0  0  0  0
  -27.1450  -16.9935   21.5265 H   0  0  0  0  0  0
  -29.6378  -19.1565   24.2876 H   0  0  0  0  0  0
  -27.9570  -19.6152   24.1711 H   0  0  0  0  0  0
  -27.4393  -15.6600   23.5840 H   0  0  0  0  0  0
  -25.7722  -16.1780   23.4819 H   0  0  0  0  0  0
  -28.2760  -18.2314   26.1784 H   0  0  0  0  0  0
  -28.9988  -16.9514   25.2346 H   0  0  0  0  0  0
  -29.2938  -17.2949   22.7227 H   0  0  0  0  0  0
  -30.0947  -22.7401   19.5176 H   0  0  0  0  0  0
  -29.9509  -22.9306   21.2208 H   0  0  0  0  0  0
  -31.4279  -17.3616   20.8411 H   0  0  0  0  0  0
  -30.7829  -17.2826   19.2468 H   0  0  0  0  0  0
  -27.2977  -23.1481   20.5617 H   0  0  0  0  0  0
  -27.9434  -23.7362   19.0826 H   0  0  0  0  0  0
  -29.0604  -25.1002   21.5347 H   0  0  0  0  0  0
  -27.3541  -25.1718   21.4816 H   0  0  0  0  0  0
  -28.9355  -15.8315   20.7589 H   0  0  0  0  0  0
  -26.7249  -16.4862   25.6628 H   0  0  0  0  0  0
  -26.2221  -17.8971   25.0467 H   0  0  0  0  0  0
  1 25  1  0  0  0
  1 30  2  0  0  0
  1 85  1  0  0  0
  2  3  1  0  0  0
  2 25  1  0  0  0
  2 87  1  0  0  0
  2 88  1  0  0  0
  3  4  1  0  0  0
  3 89  1  0  0  0
  3 90  1  0  0  0
  4  5  1  0  0  0
  4 91  1  0  0  0
  4 92  1  0  0  0
  5  6  1  0  0  0
  5 26  1  0  0  0
  5 93  1  0  0  0
  6 25  1  0  0  0
  6 94  1  0  0  0
  6 95  1  0  0  0
  7  8  2  0  0  0
  7 26  1  0  0  0
  7 29  1  0  0  0
  8  9  1  0  0  0
  8 22  1  0  0  0
  9 10  1  0  0  0
  9 27  2  0  0  0
 10 11  2  0  0  0
 10 15  1  0  0  0
 11 12  1  0  0  0
 11 96  1  0  0  0
 12 13  2  0  0  0
 12 97  1  0  0  0
 13 14  1  0  0  0
 13 31  1  0  0  0
 14 15  2  0  0  0
 14 98  1  0  0  0
 15 99  1  0  0  0
 16 17  2  0  0  0
 16 21  1  0  0  0
 16 31  1  0  0  0
 17 18  1  0  0  0
 17100  1  0  0  0
 18 19  2  0  0  0
 18101  1  0  0  0
 19 20  1  0  0  0
 19 24  1  0  0  0
 20 21  2  0  0  0
 20102  1  0  0  0
 21 23  1  0  0  0
 22 28  1  0  0  0
 22 32  2  0  0  0
 26 27  1  0  0  0
 28103  1  0  0  0
 28104  1  0  0  0
 29105  1  0  0  0
 29106  1  0  0  0
 33 34  1  0  0  0
 33 66  1  0  0  0
 33 70  2  0  0  0
 34 36  1  0  0  0
 34 59  1  0  0  0
 34107  1  0  0  0
 35 44  2  0  0  0
 35 45  1  0  0  0
 35 68  1  0  0  0
 36 56  1  0  0  0
 36108  1  0  0  0
 37 39  1  0  0  0
 37 47  1  0  0  0
 37 66  1  0  0  0
 37109  1  0  0  0
 38 43  2  0  0  0
 38 46  1  0  0  0
 38 47  1  0  0  0
 39 64  1  0  0  0
 39 67  2  0  0  0
 40 52  1  0  0  0
 40 53  2  0  0  0
 40 58  1  0  0  0
 41110  1  0  0  0
 41111  1  0  0  0
 41112  1  0  0  0
 41 48  1  0  0  0
 42 43  1  0  0  0
 42 66  1  0  0  0
 42113  1  0  0  0
 42114  1  0  0  0
 43 44  1  0  0  0
 44115  1  0  0  0
 45 46  2  0  0  0
 45116  1  0  0  0
 46117  1  0  0  0
 47118  1  0  0  0
 47119  1  0  0  0
 48 56  1  0  0  0
 48 65  1  0  0  0
 48120  1  0  0  0
 49 50  1  0  0  0
 49 53  1  0  0  0
 49 64  1  0  0  0
 49121  1  0  0  0
 50 51  1  0  0  0
 50122  1  0  0  0
 50123  1  0  0  0
 51 52  1  0  0  0
 51124  1  0  0  0
 51125  1  0  0  0
 52126  1  0  0  0
 52127  1  0  0  0
 53 54  1  0  0  0
 54 55  2  0  0  0
 54128  1  0  0  0
 55 57  1  0  0  0
 55129  1  0  0  0
 56 69  2  0  0  0
 57 58  2  0  0  0
 57130  1  0  0  0
 58131  1  0  0  0
 59 60  1  0  0  0
 59 61  1  0  0  0
 59 62  1  0  0  0
 60132  1  0  0  0
 60133  1  0  0  0
 60134  1  0  0  0
 61135  1  0  0  0
 61136  1  0  0  0
 61137  1  0  0  0
 62138  1  0  0  0
 62139  1  0  0  0
 62140  1  0  0  0
 63 65  1  0  0  0
 63141  1  0  0  0
 63142  1  0  0  0
 63143  1  0  0  0
 64144  1  0  0  0
 65145  1  0  0  0
 68 83  1  0  0  0
 71 73  1  0  0  0
 71 74  2  0  0  0
 71146  1  0  0  0
 72 73  2  0  0  0
 72 84  1  0  0  0
 72147  1  0  0  0
 73 80  1  0  0  0
 74 81  1  0  0  0
 74 84  1  0  0  0
 75 77  1  0  0  0
 75 79  1  0  0  0
 75148  1  0  0  0
 75149  1  0  0  0
 76 78  1  0  0  0
 76 79  1  0  0  0
 76150  1  0  0  0
 76151  1  0  0  0
 77 86  1  0  0  0
 77152  1  0  0  0
 77153  1  0  0  0
 78 86  1  0  0  0
 78154  1  0  0  0
 78155  1  0  0  0
 79 84  1  0  0  0
 79156  1  0  0  0
 80 82  1  0  0  0
 80157  1  0  0  0
 80158  1  0  0  0
 81 85  1  0  0  0
 81159  1  0  0  0
 81160  1  0  0  0
 82 83  1  0  0  0
 82161  1  0  0  0
 82162  1  0  0  0
 83163  1  0  0  0
 83164  1  0  0  0
 85165  1  0  0  0
 86166  1  0  0  0
 86167  1  0  0  0
M  CHG  1  86   1
M  ISO  4   1 100  68 101  83 101  85 100
M  END
> <chiral flag>
0

> <version>
0

> <s_m_source_file>
/data/baiqing/PycharmProjects/Reinvent-master-3.2/result/LINK_invent/BTK/process_docking_weight1_custom_sum_contain_oxygen_bond_distance_aromatic_linkinvent_7_9_3/rearranged_h_0130.sdf

> <i_m_source_file_index>
94

> <r_mmod_Potential_Energy-OPLS-2005>
-39.2670440673828

> <r_mmod_Stretch_Energy-OPLS-2005>
112.387649536133

> <r_mmod_Bend_Energy-OPLS-2005>
188.218597412109

> <r_mmod_Torsional_Energy-OPLS-2005>
306.67236328125

> <r_mmod_Improper_Torsional_Energy-OPLS-2005>
9.0281982421875

> <r_mmod_Van_der_Waal_Energy-OPLS-2005>
110.445610046387

> <r_mmod_Electrostatic_Energy-OPLS-2005>
-340.974334716797

> <r_mmod_Solvation_Energy-OPLS-2005>
-501.366180419922

> <b_mmod_Minimization_Converged-OPLS-2005>
0

> <r_mmod_RMS_Derivative-OPLS-2005>
2.94842576980591

$$$$
94
                    3D
 Structure written by MMmdl.
156165  0  0  1  0            999 V2000
  -30.4942  -15.0155   20.4036 C   0  0  0  0  0  0
  -30.4470  -12.6228   19.5071 C   0  0  0  0  0  0
  -29.5301  -12.5137   18.2635 C   0  0  0  0  0  0
  -28.0599  -12.3070   18.6753 C   0  0  0  0  0  0
  -27.6315  -13.2410   19.8369 C   0  0  2  0  0  0
  -28.6709  -13.2562   20.9718 C   0  0  0  0  0  0
  -25.2575  -13.8171   20.5857 C   0  0  0  0  0  0
  -24.1831  -13.0378   20.9235 C   0  0  0  0  0  0
  -24.6424  -11.6853   20.8691 C   0  0  0  0  0  0
  -23.9087  -10.4244   21.0389 C   0  0  0  0  0  0
  -24.3612   -9.4166   21.9189 C   0  0  0  0  0  0
  -23.6281   -8.2193   22.0738 C   0  0  0  0  0  0
  -22.4261   -8.0249   21.3530 C   0  0  0  0  0  0
  -21.9916   -9.0222   20.4626 C   0  0  0  0  0  0
  -22.7257  -10.2097   20.3048 C   0  0  0  0  0  0
  -21.6859   -6.0698   22.5264 C   0  0  0  0  0  0
  -21.4019   -6.5606   23.8197 C   0  0  0  0  0  0
  -21.3648   -5.6765   24.9163 C   0  0  0  0  0  0
  -21.6062   -4.3032   24.7228 C   0  0  0  0  0  0
  -21.8839   -3.8113   23.4359 C   0  0  0  0  0  0
  -21.9209   -4.6924   22.3406 C   0  0  0  0  0  0
  -22.7869  -13.5158   21.1897 C   0  0  0  0  0  0
  -22.1665   -4.2099   21.0988 F   0  0  0  0  0  0
  -21.5647   -3.4522   25.7751 F   0  0  0  0  0  0
  -29.9332  -13.7264   20.3806 N   0  0  0  0  0  0
  -26.2927  -12.9355   20.3253 N   0  0  0  0  0  0
  -25.9346  -11.6485   20.5677 N   0  0  0  0  0  0
  -22.0500  -12.8064   22.0409 N   0  0  0  0  0  0
  -25.4400  -15.1906   20.4611 N   0  0  0  0  0  0
  -31.6633  -15.0904   20.0022 O   0  0  0  0  0  0
  -21.6634   -6.8836   21.4231 O   0  0  0  0  0  0
  -22.3560  -14.5479   20.6806 O   0  0  0  0  0  0
  -24.6460  -31.8383   23.1881 C   0  0  0  0  0  0
  -25.9218  -32.4687   23.8250 C   0  0  1  0  0  0
  -27.2212  -27.0972   20.1581 C   0  0  0  0  0  0
  -25.5956  -33.8503   24.2161 N   0  0  0  0  0  0
  -23.4541  -30.4529   21.5339 C   0  0  2  0  0  0
  -24.9058  -28.8692   20.1064 C   0  0  0  0  0  0
  -22.7616  -29.4474   22.4907 C   0  0  0  0  0  0
  -18.0283  -28.1311   22.8454 C   0  0  0  0  0  0
  -24.1494  -36.7245   23.2641 C   0  0  0  0  0  0
  -26.0098  -30.6957   21.3938 C   0  0  0  0  0  0
  -26.0782  -29.3050   20.7341 C   0  0  0  0  0  0
  -27.2293  -28.4293   20.7507 C   0  0  0  0  0  0
  -26.0253  -26.7601   19.4932 C   0  0  0  0  0  0
  -24.8948  -27.6120   19.4734 C   0  0  0  0  0  0
  -23.6834  -29.7758   20.1531 C   0  0  0  0  0  0
  -25.4138  -36.3030   24.0305 C   0  0  1  0  0  0
  -20.5925  -28.3628   23.1228 C   0  0  2  0  0  0
  -20.6855  -26.9473   22.5041 C   0  0  0  0  0  0
  -19.5757  -26.6570   21.4945 C   0  0  0  0  0  0
  -18.1953  -26.7939   22.1443 C   0  0  0  0  0  0
  -19.1536  -28.8768   23.2854 C   0  0  0  0  0  0
  -18.9440  -30.1381   23.8879 C   0  0  0  0  0  0
  -17.6432  -30.6481   24.0609 C   0  0  0  0  0  0
  -25.9092  -34.9404   23.5049 C   0  0  0  0  0  0
  -16.5329  -29.8953   23.6386 C   0  0  0  0  0  0
  -16.7269  -28.6409   23.0322 C   0  0  0  0  0  0
  -26.4504  -31.6600   25.0743 C   0  0  0  0  0  0
  -25.3662  -31.3839   26.1429 C   0  0  0  0  0  0
  -27.0401  -30.2990   24.6395 C   0  0  0  0  0  0
  -27.5996  -32.4410   25.7540 C   0  0  0  0  0  0
  -27.5579  -37.1807   24.8467 C   0  0  0  0  0  0
  -21.4272  -29.3142   22.3807 N   0  0  0  0  0  0
  -26.4296  -37.3753   23.9409 N   0  0  0  0  0  0
  -24.7236  -31.0190   22.0935 N   0  0  0  0  0  0
  -23.4304  -28.7947   23.2976 O   0  0  0  0  0  0
  -28.2658  -26.1094   20.3226 O   0  0  0  0  0  0
  -26.5670  -34.8889   22.4629 O   0  0  0  0  0  0
  -23.5572  -32.1277   23.7087 O   0  0  0  0  0  0
  -27.3288  -20.4093   19.7162 C   0  0  0  0  0  0
  -29.0559  -21.9899   20.2254 C   0  0  0  0  0  0
  -26.5111  -21.5406   19.4719 C   0  0  0  0  0  0
  -28.6663  -20.5459   20.1421 C   0  0  0  0  0  0
  -28.1612  -23.1559   19.9375 C   0  0  0  0  0  0
  -29.6564  -17.6390   22.7114 C   0  0  0  0  0  0
  -29.0830  -18.9317   22.1043 C   0  0  0  0  0  0
  -29.1572  -16.3659   22.0027 C   0  0  0  0  0  0
  -29.5070  -17.6146   19.8965 C   0  0  0  0  0  0
  -29.4746  -19.1603   20.6334 C   0  0  1  0  0  0
  -28.5198  -24.7519   19.5782 C   0  0  0  0  0  0
  -26.8937  -22.8378   19.5889 N   0  0  0  0  0  0
  -29.7172  -16.2157   20.6561 N   0  0  0  0  0  0
  -31.4765  -12.7866   19.1900 H   0  0  0  0  0  0
  -30.4683  -11.6756   20.0505 H   0  0  0  0  0  0
  -29.8498  -11.6809   17.6354 H   0  0  0  0  0  0
  -29.6245  -13.4141   17.6504 H   0  0  0  0  0  0
  -27.9569  -11.2655   18.9872 H   0  0  0  0  0  0
  -27.3995  -12.4288   17.8166 H   0  0  0  0  0  0
  -27.5962  -14.2459   19.4123 H   0  0  0  0  0  0
  -28.7921  -12.2634   21.4071 H   0  0  0  0  0  0
  -28.3224  -13.8888   21.7833 H   0  0  0  0  0  0
  -25.2763   -9.5593   22.4759 H   0  0  0  0  0  0
  -23.9982   -7.4559   22.7423 H   0  0  0  0  0  0
  -21.0847   -8.8718   19.8905 H   0  0  0  0  0  0
  -22.3731  -10.9606   19.6113 H   0  0  0  0  0  0
  -21.1988   -7.6114   23.9684 H   0  0  0  0  0  0
  -21.1463   -6.0496   25.9064 H   0  0  0  0  0  0
  -22.0642   -2.7573   23.2875 H   0  0  0  0  0  0
  -22.4126  -11.9689   22.4728 H   0  0  0  0  0  0
  -21.1083  -13.1012   22.2564 H   0  0  0  0  0  0
  -24.7267  -15.8606   20.7230 H   0  0  0  0  0  0
  -26.3460  -15.6146   20.3093 H   0  0  0  0  0  0
  -26.7299  -32.5246   23.0970 H   0  0  0  0  0  0
  -25.0113  -33.9615   25.0312 H   0  0  0  0  0  0
  -22.7583  -31.2772   21.3766 H   0  0  0  0  0  0
  -23.3761  -35.9575   23.3315 H   0  0  0  0  0  0
  -24.3552  -36.8871   22.2050 H   0  0  0  0  0  0
  -23.7229  -37.6434   23.6690 H   0  0  0  0  0  0
  -26.1726  -31.4471   20.6197 H   0  0  0  0  0  0
  -26.8757  -30.7465   22.0410 H   0  0  0  0  0  0
  -28.1162  -28.7515   21.2807 H   0  0  0  0  0  0
  -25.9251  -25.7791   19.0504 H   0  0  0  0  0  0
  -23.9955  -27.2694   18.9817 H   0  0  0  0  0  0
  -23.8261  -30.5493   19.3960 H   0  0  0  0  0  0
  -22.7963  -29.2205   19.8431 H   0  0  0  0  0  0
  -25.1337  -36.1852   25.0799 H   0  0  0  0  0  0
  -20.9938  -28.3022   24.1379 H   0  0  0  0  0  0
  -21.6649  -26.7796   22.0529 H   0  0  0  0  0  0
  -20.6061  -26.2058   23.2991 H   0  0  0  0  0  0
  -19.6540  -27.3568   20.6621 H   0  0  0  0  0  0
  -19.6953  -25.6596   21.0703 H   0  0  0  0  0  0
  -17.4246  -26.6824   21.3807 H   0  0  0  0  0  0
  -18.0396  -25.9892   22.8637 H   0  0  0  0  0  0
  -19.7932  -30.7208   24.2186 H   0  0  0  0  0  0
  -17.4981  -31.6144   24.5221 H   0  0  0  0  0  0
  -15.5312  -30.2818   23.7739 H   0  0  0  0  0  0
  -15.8646  -28.0806   22.6954 H   0  0  0  0  0  0
  -24.5783  -30.7270   25.7730 H   0  0  0  0  0  0
  -24.8921  -32.3070   26.4805 H   0  0  0  0  0  0
  -25.7880  -30.8999   27.0245 H   0  0  0  0  0  0
  -26.3060  -29.6688   24.1377 H   0  0  0  0  0  0
  -27.3958  -29.7324   25.5006 H   0  0  0  0  0  0
  -27.8973  -30.4202   23.9764 H   0  0  0  0  0  0
  -27.2528  -33.3695   26.2079 H   0  0  0  0  0  0
  -28.3815  -32.7025   25.0408 H   0  0  0  0  0  0
  -28.0673  -31.8604   26.5493 H   0  0  0  0  0  0
  -28.2616  -38.0081   24.7504 H   0  0  0  0  0  0
  -28.1052  -36.2622   24.6331 H   0  0  0  0  0  0
  -27.2300  -37.1499   25.8865 H   0  0  0  0  0  0
  -20.9421  -29.9225   21.7375 H   0  0  0  0  0  0
  -26.0150  -38.2820   24.1410 H   0  0  0  0  0  0
  -26.9015  -19.4208   19.6087 H   0  0  0  0  0  0
  -30.0723  -22.2138   20.5188 H   0  0  0  0  0  0
  -25.4866  -21.3939   19.1607 H   0  0  0  0  0  0
  -29.3618  -17.5847   23.7593 H   0  0  0  0  0  0
  -30.7469  -17.6683   22.7033 H   0  0  0  0  0  0
  -29.4109  -19.7850   22.7008 H   0  0  0  0  0  0
  -27.9969  -18.9035   22.1932 H   0  0  0  0  0  0
  -28.0673  -16.3598   21.9405 H   0  0  0  0  0  0
  -29.4438  -15.5275   22.6372 H   0  0  0  0  0  0
  -28.5300  -17.4966   19.4223 H   0  0  0  0  0  0
  -30.2039  -17.6526   19.0578 H   0  0  0  0  0  0
  -30.5186  -19.4720   20.6285 H   0  0  0  0  0  0
  -29.5962  -24.7451   19.4072 H   0  0  0  0  0  0
  -28.1168  -24.9144   18.5773 H   0  0  0  0  0  0
  1 25  1  0  0  0
  1 30  2  0  0  0
  1 83  1  0  0  0
  2  3  1  0  0  0
  2 25  1  0  0  0
  2 84  1  0  0  0
  2 85  1  0  0  0
  3  4  1  0  0  0
  3 86  1  0  0  0
  3 87  1  0  0  0
  4  5  1  0  0  0
  4 88  1  0  0  0
  4 89  1  0  0  0
  5  6  1  0  0  0
  5 26  1  0  0  0
  5 90  1  0  0  0
  6 25  1  0  0  0
  6 91  1  0  0  0
  6 92  1  0  0  0
  7  8  2  0  0  0
  7 26  1  0  0  0
  7 29  1  0  0  0
  8  9  1  0  0  0
  8 22  1  0  0  0
  9 10  1  0  0  0
  9 27  2  0  0  0
 10 11  2  0  0  0
 10 15  1  0  0  0
 11 12  1  0  0  0
 11 93  1  0  0  0
 12 13  2  0  0  0
 12 94  1  0  0  0
 13 14  1  0  0  0
 13 31  1  0  0  0
 14 15  2  0  0  0
 14 95  1  0  0  0
 15 96  1  0  0  0
 16 17  2  0  0  0
 16 21  1  0  0  0
 16 31  1  0  0  0
 17 18  1  0  0  0
 17 97  1  0  0  0
 18 19  2  0  0  0
 18 98  1  0  0  0
 19 20  1  0  0  0
 19 24  1  0  0  0
 20 21  2  0  0  0
 20 99  1  0  0  0
 21 23  1  0  0  0
 22 28  1  0  0  0
 22 32  2  0  0  0
 26 27  1  0  0  0
 28100  1  0  0  0
 28101  1  0  0  0
 29102  1  0  0  0
 29103  1  0  0  0
 33 34  1  0  0  0
 33 66  1  0  0  0
 33 70  2  0  0  0
 34 36  1  0  0  0
 34 59  1  0  0  0
 34104  1  0  0  0
 35 44  2  0  0  0
 35 45  1  0  0  0
 35 68  1  0  0  0
 36 56  1  0  0  0
 36105  1  0  0  0
 37 39  1  0  0  0
 37 47  1  0  0  0
 37 66  1  0  0  0
 37106  1  0  0  0
 38 43  2  0  0  0
 38 46  1  0  0  0
 38 47  1  0  0  0
 39 64  1  0  0  0
 39 67  2  0  0  0
 40 52  1  0  0  0
 40 53  2  0  0  0
 40 58  1  0  0  0
 41107  1  0  0  0
 41108  1  0  0  0
 41109  1  0  0  0
 41 48  1  0  0  0
 42 43  1  0  0  0
 42 66  1  0  0  0
 42110  1  0  0  0
 42111  1  0  0  0
 43 44  1  0  0  0
 44112  1  0  0  0
 45 46  2  0  0  0
 45113  1  0  0  0
 46114  1  0  0  0
 47115  1  0  0  0
 47116  1  0  0  0
 48 56  1  0  0  0
 48 65  1  0  0  0
 48117  1  0  0  0
 49 50  1  0  0  0
 49 53  1  0  0  0
 49 64  1  0  0  0
 49118  1  0  0  0
 50 51  1  0  0  0
 50119  1  0  0  0
 50120  1  0  0  0
 51 52  1  0  0  0
 51121  1  0  0  0
 51122  1  0  0  0
 52123  1  0  0  0
 52124  1  0  0  0
 53 54  1  0  0  0
 54 55  2  0  0  0
 54125  1  0  0  0
 55 57  1  0  0  0
 55126  1  0  0  0
 56 69  2  0  0  0
 57 58  2  0  0  0
 57127  1  0  0  0
 58128  1  0  0  0
 59 60  1  0  0  0
 59 61  1  0  0  0
 59 62  1  0  0  0
 60129  1  0  0  0
 60130  1  0  0  0
 60131  1  0  0  0
 61132  1  0  0  0
 61133  1  0  0  0
 61134  1  0  0  0
 62135  1  0  0  0
 62136  1  0  0  0
 62137  1  0  0  0
 63 65  1  0  0  0
 63138  1  0  0  0
 63139  1  0  0  0
 63140  1  0  0  0
 64141  1  0  0  0
 65142  1  0  0  0
 68 81  1  0  0  0
 71 73  2  0  0  0
 71 74  1  0  0  0
 71143  1  0  0  0
 72 74  2  0  0  0
 72 75  1  0  0  0
 72144  1  0  0  0
 73 82  1  0  0  0
 73145  1  0  0  0
 74 80  1  0  0  0
 75 81  1  0  0  0
 75 82  2  0  0  0
 76 77  1  0  0  0
 76 78  1  0  0  0
 76146  1  0  0  0
 76147  1  0  0  0
 77 80  1  0  0  0
 77148  1  0  0  0
 77149  1  0  0  0
 78 83  1  0  0  0
 78150  1  0  0  0
 78151  1  0  0  0
 79 80  1  0  0  0
 79 83  1  0  0  0
 79152  1  0  0  0
 79153  1  0  0  0
 80154  1  0  0  0
 81155  1  0  0  0
 81156  1  0  0  0
M  ISO  4   1 100  68 101  81 101  83 100
M  END
> <chiral flag>
0

> <version>
0

> <s_m_source_file>
/data/baiqing/PycharmProjects/Reinvent-master-3.2/result/LINK_invent/BTK/process_docking_weight1_custom_sum_contain_oxygen_bond_distance_aromatic_linkinvent_7_9_3/rearranged_h_0130.sdf

> <i_m_source_file_index>
95

> <r_mmod_Potential_Energy-OPLS-2005>
755.030334472656

> <r_mmod_Stretch_Energy-OPLS-2005>
317.330291748047

> <r_mmod_Bend_Energy-OPLS-2005>
331.246490478516

> <r_mmod_Torsional_Energy-OPLS-2005>
342.832092285156

> <r_mmod_Improper_Torsional_Energy-OPLS-2005>
8.82871055603027

> <r_mmod_Van_der_Waal_Energy-OPLS-2005>
130.705276489258

> <r_mmod_Electrostatic_Energy-OPLS-2005>
-401.705810546875

> <r_mmod_Solvation_Energy-OPLS-2005>
-212.569366455078

> <b_mmod_Minimization_Converged-OPLS-2005>
0

> <r_mmod_RMS_Derivative-OPLS-2005>
5.86888742446899

$$$$
95
                    3D
 Structure written by MMmdl.
165174  0  0  1  0            999 V2000
  -30.6816  -14.6807   20.4024 C   0  0  0  0  0  0
  -30.4317  -12.4139   19.4310 C   0  0  0  0  0  0
  -29.4894  -12.4312   18.2070 C   0  0  0  0  0  0
  -28.0150  -12.3190   18.6363 C   0  0  0  0  0  0
  -27.6422  -13.2321   19.8360 C   0  0  2  0  0  0
  -28.7052  -13.1843   20.9534 C   0  0  0  0  0  0
  -25.2532  -13.8176   20.5714 C   0  0  0  0  0  0
  -24.1835  -13.0422   20.9236 C   0  0  0  0  0  0
  -24.6443  -11.6910   20.8791 C   0  0  0  0  0  0
  -23.9134  -10.4285   21.0433 C   0  0  0  0  0  0
  -24.3671   -9.4198   21.9210 C   0  0  0  0  0  0
  -23.6336   -8.2238   22.0763 C   0  0  0  0  0  0
  -22.4314   -8.0295   21.3550 C   0  0  0  0  0  0
  -21.9968   -9.0276   20.4656 C   0  0  0  0  0  0
  -22.7309  -10.2150   20.3075 C   0  0  0  0  0  0
  -21.6854   -6.0778   22.5286 C   0  0  0  0  0  0
  -21.4008   -6.5678   23.8219 C   0  0  0  0  0  0
  -21.3652   -5.6826   24.9176 C   0  0  0  0  0  0
  -21.6030   -4.3086   24.7219 C   0  0  0  0  0  0
  -21.8823   -3.8189   23.4337 C   0  0  0  0  0  0
  -21.9193   -4.7013   22.3402 C   0  0  0  0  0  0
  -22.7857  -13.5207   21.1872 C   0  0  0  0  0  0
  -22.1664   -4.2207   21.0980 F   0  0  0  0  0  0
  -21.5622   -3.4553   25.7725 F   0  0  0  0  0  0
  -30.0000  -13.4918   20.3384 N   0  0  0  0  0  0
  -26.2988  -12.9414   20.3320 N   0  0  0  0  0  0
  -25.9377  -11.6555   20.5822 N   0  0  0  0  0  0
  -22.0497  -12.8173   22.0409 N   0  0  0  0  0  0
  -25.4144  -15.1890   20.4115 N   0  0  0  0  0  0
  -31.9117  -14.7026   20.3513 O   0  0  0  0  0  0
  -21.6644   -6.8915   21.4247 O   0  0  0  0  0  0
  -22.3539  -14.5521   20.6747 O   0  0  0  0  0  0
  -24.6258  -31.8602   23.2000 C   0  0  0  0  0  0
  -25.9107  -32.4784   23.8347 C   0  0  1  0  0  0
  -27.2228  -27.3212   20.1489 C   0  0  0  0  0  0
  -25.5934  -33.8597   24.2269 N   0  0  0  0  0  0
  -23.4201  -30.4830   21.5376 C   0  0  2  0  0  0
  -24.8691  -28.9350   20.1086 C   0  0  0  0  0  0
  -22.7490  -29.4629   22.4878 C   0  0  0  0  0  0
  -18.0297  -28.1395   22.8484 C   0  0  0  0  0  0
  -24.1489  -36.7316   23.2638 C   0  0  0  0  0  0
  -25.9562  -30.7968   21.3655 C   0  0  0  0  0  0
  -26.0317  -29.4196   20.7215 C   0  0  0  0  0  0
  -27.2121  -28.6230   20.7334 C   0  0  0  0  0  0
  -26.0418  -26.8832   19.5074 C   0  0  0  0  0  0
  -24.8777  -27.6737   19.4889 C   0  0  0  0  0  0
  -23.6382  -29.8175   20.1522 C   0  0  0  0  0  0
  -25.4107  -36.3101   24.0317 C   0  0  1  0  0  0
  -20.5903  -28.3706   23.1262 C   0  0  2  0  0  0
  -20.6797  -26.9411   22.5414 C   0  0  0  0  0  0
  -19.5761  -26.6380   21.5235 C   0  0  0  0  0  0
  -18.1932  -26.7936   22.1625 C   0  0  0  0  0  0
  -19.1553  -28.8856   23.2866 C   0  0  0  0  0  0
  -18.9466  -30.1455   23.8878 C   0  0  0  0  0  0
  -17.6463  -30.6577   24.0564 C   0  0  0  0  0  0
  -25.9047  -34.9470   23.5088 C   0  0  0  0  0  0
  -16.5353  -29.9071   23.6341 C   0  0  0  0  0  0
  -16.7284  -28.6507   23.0344 C   0  0  0  0  0  0
  -26.4484  -31.6599   25.0724 C   0  0  0  0  0  0
  -25.3711  -31.3740   26.1446 C   0  0  0  0  0  0
  -27.0321  -30.3026   24.6156 C   0  0  0  0  0  0
  -27.6046  -32.4343   25.7491 C   0  0  0  0  0  0
  -27.5563  -37.1806   24.8442 C   0  0  0  0  0  0
  -21.4185  -29.3064   22.3654 N   0  0  0  0  0  0
  -26.4273  -37.3799   23.9408 N   0  0  0  0  0  0
  -24.6861  -31.0634   22.0928 N   0  0  0  0  0  0
  -23.4224  -28.8181   23.2960 O   0  0  0  0  0  0
  -28.3521  -26.4989   20.1743 O   0  0  0  0  0  0
  -26.5615  -34.8926   22.4649 O   0  0  0  0  0  0
  -23.5418  -32.1398   23.7327 O   0  0  0  0  0  0
  -28.3522  -22.8103   19.3940 C   0  0  0  0  0  0
  -28.3471  -24.2195   19.2016 C   0  0  0  0  0  0
  -28.3246  -22.2486   20.6961 C   0  0  0  0  0  0
  -28.2918  -23.2105   21.7522 C   0  0  0  0  0  0
  -28.2767  -25.0938   20.3083 C   0  0  0  0  0  0
  -30.5924  -17.2911   18.1030 C   0  0  0  0  0  0
  -31.2030  -17.8249   19.3776 C   0  0  0  0  0  0
  -29.9977  -15.9402   18.5196 C   0  0  0  0  0  0
  -30.2948  -17.2462   20.4735 C   0  0  1  0  0  0
  -28.2698  -22.7749   23.2071 C   0  0  0  0  0  0
  -27.7723  -17.8052   19.9860 C   0  0  0  0  0  0
  -28.1377  -20.6865   20.9118 C   0  0  0  0  0  0
  -29.0314  -18.2067   20.7847 C   0  0  2  0  0  0
  -28.2688  -24.5699   21.5629 N   0  0  0  0  0  0
  -29.9978  -15.8207   20.0064 N   0  0  0  0  0  0
  -29.2981  -19.7184   20.7414 N   0  3  0  0  0  0
  -31.4644  -12.5463   19.1025 H   0  0  0  0  0  0
  -30.3919  -11.4500   19.9406 H   0  0  0  0  0  0
  -29.7387  -11.6071   17.5376 H   0  0  0  0  0  0
  -29.6258  -13.3315   17.6132 H   0  0  0  0  0  0
  -27.8365  -11.2750   18.8969 H   0  0  0  0  0  0
  -27.3626  -12.5331   17.7887 H   0  0  0  0  0  0
  -27.6277  -14.2485   19.4441 H   0  0  0  0  0  0
  -28.7374  -12.2039   21.4294 H   0  0  0  0  0  0
  -28.4721  -13.9097   21.7340 H   0  0  0  0  0  0
  -25.2814   -9.5666   22.4791 H   0  0  0  0  0  0
  -24.0043   -7.4624   22.7480 H   0  0  0  0  0  0
  -21.0898   -8.8810   19.8952 H   0  0  0  0  0  0
  -22.3785  -10.9701   19.6188 H   0  0  0  0  0  0
  -21.1990   -7.6182   23.9744 H   0  0  0  0  0  0
  -21.1462   -6.0546   25.9083 H   0  0  0  0  0  0
  -22.0604   -2.7652   23.2818 H   0  0  0  0  0  0
  -22.4126  -11.9813   22.4751 H   0  0  0  0  0  0
  -21.1103  -13.1167   22.2612 H   0  0  0  0  0  0
  -24.6402  -15.8359   20.5163 H   0  0  0  0  0  0
  -26.2629  -15.6289   20.0818 H   0  0  0  0  0  0
  -26.7192  -32.5451   23.1109 H   0  0  0  0  0  0
  -25.0142  -33.9787   25.0447 H   0  0  0  0  0  0
  -22.7161  -31.3052   21.3930 H   0  0  0  0  0  0
  -23.3754  -35.9645   23.3274 H   0  0  0  0  0  0
  -24.3610  -36.8966   22.2063 H   0  0  0  0  0  0
  -23.7229  -37.6491   23.6704 H   0  0  0  0  0  0
  -26.0831  -31.5533   20.5898 H   0  0  0  0  0  0
  -26.8391  -30.8564   21.9897 H   0  0  0  0  0  0
  -28.1058  -28.9911   21.2185 H   0  0  0  0  0  0
  -26.0099  -25.9120   19.0334 H   0  0  0  0  0  0
  -23.9859  -27.2973   19.0083 H   0  0  0  0  0  0
  -23.7636  -30.5973   19.3998 H   0  0  0  0  0  0
  -22.7576  -29.2511   19.8442 H   0  0  0  0  0  0
  -25.1284  -36.1943   25.0808 H   0  0  0  0  0  0
  -21.0006  -28.3289   24.1384 H   0  0  0  0  0  0
  -20.5738  -26.2292   23.3623 H   0  0  0  0  0  0
  -21.6651  -26.7467   22.1169 H   0  0  0  0  0  0
  -19.6927  -25.6301   21.1244 H   0  0  0  0  0  0
  -19.6699  -27.3213   20.6792 H   0  0  0  0  0  0
  -17.4221  -26.6719   21.4004 H   0  0  0  0  0  0
  -18.0284  -26.0062   22.8995 H   0  0  0  0  0  0
  -19.7936  -30.7297   24.2207 H   0  0  0  0  0  0
  -17.5008  -31.6250   24.5176 H   0  0  0  0  0  0
  -15.5349  -30.2955   23.7673 H   0  0  0  0  0  0
  -15.8697  -28.0827   22.7037 H   0  0  0  0  0  0
  -24.5924  -30.7040   25.7770 H   0  0  0  0  0  0
  -24.8844  -32.2893   26.4827 H   0  0  0  0  0  0
  -25.8016  -30.8964   27.0249 H   0  0  0  0  0  0
  -26.2883  -29.6788   24.1177 H   0  0  0  0  0  0
  -27.4012  -29.7288   25.4658 H   0  0  0  0  0  0
  -27.8763  -30.4307   23.9381 H   0  0  0  0  0  0
  -27.2688  -33.3693   26.1987 H   0  0  0  0  0  0
  -28.3896  -32.6806   25.0336 H   0  0  0  0  0  0
  -28.0661  -31.8504   26.5451 H   0  0  0  0  0  0
  -28.2535  -38.0148   24.7553 H   0  0  0  0  0  0
  -28.1099  -36.2675   24.6186 H   0  0  0  0  0  0
  -27.2305  -37.1351   25.8850 H   0  0  0  0  0  0
  -20.9363  -29.8768   21.6843 H   0  0  0  0  0  0
  -26.0138  -38.2857   24.1449 H   0  0  0  0  0  0
  -28.3586  -22.1559   18.5337 H   0  0  0  0  0  0
  -28.3951  -24.6276   18.2015 H   0  0  0  0  0  0
  -31.3401  -17.1957   17.3125 H   0  0  0  0  0  0
  -29.8133  -17.9580   17.7318 H   0  0  0  0  0  0
  -31.3232  -18.9074   19.3765 H   0  0  0  0  0  0
  -32.2079  -17.4150   19.4902 H   0  0  0  0  0  0
  -30.6174  -15.1824   18.0336 H   0  0  0  0  0  0
  -28.9936  -15.8140   18.1126 H   0  0  0  0  0  0
  -30.8869  -17.1904   21.3915 H   0  0  0  0  0  0
  -29.0210  -22.0055   23.3825 H   0  0  0  0  0  0
  -27.2944  -22.3716   23.4818 H   0  0  0  0  0  0
  -28.4955  -23.6046   23.8777 H   0  0  0  0  0  0
  -27.6249  -16.7288   19.9983 H   0  0  0  0  0  0
  -27.8170  -18.1198   18.9437 H   0  0  0  0  0  0
  -26.8670  -18.2218   20.4269 H   0  0  0  0  0  0
  -27.3556  -20.4069   20.2055 H   0  0  0  0  0  0
  -27.6966  -20.5063   21.8918 H   0  0  0  0  0  0
  -28.7705  -18.0007   21.8239 H   0  0  0  0  0  0
  -29.9814  -19.9310   21.4509 H   0  0  0  0  0  0
  -29.7245  -19.9241   19.8535 H   0  0  0  0  0  0
  1 25  1  0  0  0
  1 30  2  0  0  0
  1 85  1  0  0  0
  2  3  1  0  0  0
  2 25  1  0  0  0
  2 87  1  0  0  0
  2 88  1  0  0  0
  3  4  1  0  0  0
  3 89  1  0  0  0
  3 90  1  0  0  0
  4  5  1  0  0  0
  4 91  1  0  0  0
  4 92  1  0  0  0
  5  6  1  0  0  0
  5 26  1  0  0  0
  5 93  1  0  0  0
  6 25  1  0  0  0
  6 94  1  0  0  0
  6 95  1  0  0  0
  7  8  2  0  0  0
  7 26  1  0  0  0
  7 29  1  0  0  0
  8  9  1  0  0  0
  8 22  1  0  0  0
  9 10  1  0  0  0
  9 27  2  0  0  0
 10 11  2  0  0  0
 10 15  1  0  0  0
 11 12  1  0  0  0
 11 96  1  0  0  0
 12 13  2  0  0  0
 12 97  1  0  0  0
 13 14  1  0  0  0
 13 31  1  0  0  0
 14 15  2  0  0  0
 14 98  1  0  0  0
 15 99  1  0  0  0
 16 17  2  0  0  0
 16 21  1  0  0  0
 16 31  1  0  0  0
 17 18  1  0  0  0
 17100  1  0  0  0
 18 19  2  0  0  0
 18101  1  0  0  0
 19 20  1  0  0  0
 19 24  1  0  0  0
 20 21  2  0  0  0
 20102  1  0  0  0
 21 23  1  0  0  0
 22 28  1  0  0  0
 22 32  2  0  0  0
 26 27  1  0  0  0
 28103  1  0  0  0
 28104  1  0  0  0
 29105  1  0  0  0
 29106  1  0  0  0
 33 34  1  0  0  0
 33 66  1  0  0  0
 33 70  2  0  0  0
 34 36  1  0  0  0
 34 59  1  0  0  0
 34107  1  0  0  0
 35 44  2  0  0  0
 35 45  1  0  0  0
 35 68  1  0  0  0
 36 56  1  0  0  0
 36108  1  0  0  0
 37 39  1  0  0  0
 37 47  1  0  0  0
 37 66  1  0  0  0
 37109  1  0  0  0
 38 43  2  0  0  0
 38 46  1  0  0  0
 38 47  1  0  0  0
 39 64  1  0  0  0
 39 67  2  0  0  0
 40 52  1  0  0  0
 40 53  2  0  0  0
 40 58  1  0  0  0
 41110  1  0  0  0
 41111  1  0  0  0
 41112  1  0  0  0
 41 48  1  0  0  0
 42 43  1  0  0  0
 42 66  1  0  0  0
 42113  1  0  0  0
 42114  1  0  0  0
 43 44  1  0  0  0
 44115  1  0  0  0
 45 46  2  0  0  0
 45116  1  0  0  0
 46117  1  0  0  0
 47118  1  0  0  0
 47119  1  0  0  0
 48 56  1  0  0  0
 48 65  1  0  0  0
 48120  1  0  0  0
 49 50  1  0  0  0
 49 53  1  0  0  0
 49 64  1  0  0  0
 49121  1  0  0  0
 50 51  1  0  0  0
 50122  1  0  0  0
 50123  1  0  0  0
 51 52  1  0  0  0
 51124  1  0  0  0
 51125  1  0  0  0
 52126  1  0  0  0
 52127  1  0  0  0
 53 54  1  0  0  0
 54 55  2  0  0  0
 54128  1  0  0  0
 55 57  1  0  0  0
 55129  1  0  0  0
 56 69  2  0  0  0
 57 58  2  0  0  0
 57130  1  0  0  0
 58131  1  0  0  0
 59 60  1  0  0  0
 59 61  1  0  0  0
 59 62  1  0  0  0
 60132  1  0  0  0
 60133  1  0  0  0
 60134  1  0  0  0
 61135  1  0  0  0
 61136  1  0  0  0
 61137  1  0  0  0
 62138  1  0  0  0
 62139  1  0  0  0
 62140  1  0  0  0
 63 65  1  0  0  0
 63141  1  0  0  0
 63142  1  0  0  0
 63143  1  0  0  0
 64144  1  0  0  0
 65145  1  0  0  0
 68 75  1  0  0  0
 71 72  2  0  0  0
 71 73  1  0  0  0
 71146  1  0  0  0
 72 75  1  0  0  0
 72147  1  0  0  0
 73 74  2  0  0  0
 73 82  1  0  0  0
 74 80  1  0  0  0
 74 84  1  0  0  0
 75 84  2  0  0  0
 76 77  1  0  0  0
 76 78  1  0  0  0
 76148  1  0  0  0
 76149  1  0  0  0
 77150  1  0  0  0
 77151  1  0  0  0
 77 79  1  0  0  0
 78 85  1  0  0  0
 78152  1  0  0  0
 78153  1  0  0  0
 79 83  1  0  0  0
 79 85  1  0  0  0
 79154  1  0  0  0
 80155  1  0  0  0
 80156  1  0  0  0
 80157  1  0  0  0
 81158  1  0  0  0
 81159  1  0  0  0
 81160  1  0  0  0
 81 83  1  0  0  0
 82 86  1  0  0  0
 82161  1  0  0  0
 82162  1  0  0  0
 83 86  1  0  0  0
 83163  1  0  0  0
 86164  1  0  0  0
 86165  1  0  0  0
M  CHG  1  86   1
M  ISO  4   1 100  68 101  75 101  85 100
M  END
> <chiral flag>
0

> <version>
0

> <s_m_source_file>
/data/baiqing/PycharmProjects/Reinvent-master-3.2/result/LINK_invent/BTK/process_docking_weight1_custom_sum_contain_oxygen_bond_distance_aromatic_linkinvent_7_9_3/rearranged_h_0130.sdf

> <i_m_source_file_index>
96

> <r_mmod_Potential_Energy-OPLS-2005>
119.874801635742

> <r_mmod_Stretch_Energy-OPLS-2005>
91.8396911621094

> <r_mmod_Bend_Energy-OPLS-2005>
173.759399414062

> <r_mmod_Torsional_Energy-OPLS-2005>
393.168823242188

> <r_mmod_Improper_Torsional_Energy-OPLS-2005>
22.6933479309082

> <r_mmod_Van_der_Waal_Energy-OPLS-2005>
140.185699462891

> <r_mmod_Electrostatic_Energy-OPLS-2005>
-307.6416015625

> <r_mmod_Solvation_Energy-OPLS-2005>
-466.112274169922

> <b_mmod_Minimization_Converged-OPLS-2005>
0

> <r_mmod_RMS_Derivative-OPLS-2005>
3.45489287376404

$$$$
96
                    3D
 Structure written by MMmdl.
171181  0  0  1  0            999 V2000
  -30.6151  -14.8665   20.4371 C   0  0  0  0  0  0
  -30.4220  -12.5376   19.4909 C   0  0  0  0  0  0
  -29.5102  -12.5183   18.2459 C   0  0  0  0  0  0
  -28.0419  -12.3228   18.6644 C   0  0  0  0  0  0
  -27.6293  -13.2510   19.8389 C   0  0  2  0  0  0
  -28.6736  -13.2708   20.9747 C   0  0  0  0  0  0
  -25.2470  -13.8235   20.5734 C   0  0  0  0  0  0
  -24.1779  -13.0451   20.9221 C   0  0  0  0  0  0
  -24.6397  -11.6935   20.8753 C   0  0  0  0  0  0
  -23.9085  -10.4299   21.0403 C   0  0  0  0  0  0
  -24.3630   -9.4211   21.9182 C   0  0  0  0  0  0
  -23.6303   -8.2247   22.0751 C   0  0  0  0  0  0
  -22.4286   -8.0284   21.3542 C   0  0  0  0  0  0
  -21.9924   -9.0259   20.4644 C   0  0  0  0  0  0
  -22.7255  -10.2137   20.3053 C   0  0  0  0  0  0
  -21.6854   -6.0743   22.5282 C   0  0  0  0  0  0
  -21.4015   -6.5645   23.8216 C   0  0  0  0  0  0
  -21.3659   -5.6795   24.9176 C   0  0  0  0  0  0
  -21.6044   -4.3059   24.7224 C   0  0  0  0  0  0
  -21.8819   -3.8152   23.4344 C   0  0  0  0  0  0
  -21.9193   -4.6970   22.3402 C   0  0  0  0  0  0
  -22.7800  -13.5221   21.1875 C   0  0  0  0  0  0
  -22.1659   -4.2156   21.0978 F   0  0  0  0  0  0
  -21.5627   -3.4540   25.7735 F   0  0  0  0  0  0
  -29.9534  -13.6474   20.3673 N   0  0  0  0  0  0
  -26.2894  -12.9471   20.3274 N   0  0  0  0  0  0
  -25.9333  -11.6595   20.5751 N   0  0  0  0  0  0
  -22.0452  -12.8205   22.0428 N   0  0  0  0  0  0
  -25.4168  -15.1962   20.4197 N   0  0  0  0  0  0
  -31.8211  -14.8573   20.1656 O   0  0  0  0  0  0
  -21.6643   -6.8886   21.4244 O   0  0  0  0  0  0
  -22.3480  -14.5521   20.6714 O   0  0  0  0  0  0
  -24.6402  -31.8478   23.1932 C   0  0  0  0  0  0
  -25.9193  -32.4712   23.8302 C   0  0  1  0  0  0
  -27.2076  -27.1696   20.1417 C   0  0  0  0  0  0
  -25.5957  -33.8519   24.2220 N   0  0  0  0  0  0
  -23.4413  -30.4706   21.5384 C   0  0  2  0  0  0
  -24.8891  -28.9099   20.1068 C   0  0  0  0  0  0
  -22.7550  -29.4568   22.4877 C   0  0  0  0  0  0
  -18.0302  -28.1393   22.8481 C   0  0  0  0  0  0
  -24.1491  -36.7262   23.2642 C   0  0  0  0  0  0
  -25.9959  -30.7312   21.3891 C   0  0  0  0  0  0
  -26.0656  -29.3475   20.7284 C   0  0  0  0  0  0
  -27.2266  -28.4913   20.7350 C   0  0  0  0  0  0
  -26.0103  -26.8384   19.4655 C   0  0  0  0  0  0
  -24.8728  -27.6679   19.4603 C   0  0  0  0  0  0
  -23.6648  -29.8071   20.1548 C   0  0  0  0  0  0
  -25.4121  -36.3043   24.0320 C   0  0  1  0  0  0
  -20.5912  -28.3716   23.1244 C   0  0  2  0  0  0
  -20.6788  -26.9424   22.5404 C   0  0  0  0  0  0
  -19.5761  -26.6382   21.5214 C   0  0  0  0  0  0
  -18.1942  -26.7933   22.1625 C   0  0  0  0  0  0
  -19.1558  -28.8873   23.2856 C   0  0  0  0  0  0
  -18.9473  -30.1470   23.8878 C   0  0  0  0  0  0
  -17.6471  -30.6592   24.0559 C   0  0  0  0  0  0
  -25.9070  -34.9415   23.5074 C   0  0  0  0  0  0
  -16.5362  -29.9084   23.6337 C   0  0  0  0  0  0
  -16.7286  -28.6502   23.0357 C   0  0  0  0  0  0
  -26.4528  -31.6562   25.0725 C   0  0  0  0  0  0
  -25.3719  -31.3738   26.1423 C   0  0  0  0  0  0
  -27.0389  -30.2961   24.6282 C   0  0  0  0  0  0
  -27.6064  -32.4319   25.7506 C   0  0  0  0  0  0
  -27.5577  -37.1788   24.8465 C   0  0  0  0  0  0
  -21.4248  -29.3048   22.3620 N   0  0  0  0  0  0
  -26.4287  -37.3752   23.9408 N   0  0  0  0  0  0
  -24.7121  -31.0365   22.0954 N   0  0  0  0  0  0
  -23.4211  -28.8109   23.3010 O   0  0  0  0  0  0
  -28.2444  -26.1790   20.2357 O   0  0  0  0  0  0
  -26.5648  -34.8905   22.4649 O   0  0  0  0  0  0
  -23.5529  -32.1347   23.7169 O   0  0  0  0  0  0
  -28.5658  -21.9492   20.0652 C   0  0  0  0  0  0
  -28.7316  -23.3644   20.4655 C   0  0  0  0  0  0
  -29.4375  -21.0341   20.6906 C   0  0  0  0  0  0
  -29.7323  -23.2571   21.3987 C   0  0  0  0  0  0
  -30.1909  -24.4364   23.7128 C   0  0  0  0  0  0
  -29.4732  -25.4422   22.8533 C   0  0  0  0  0  0
  -29.0201  -18.3920   21.5796 C   0  0  0  0  0  0
  -29.6516  -18.5978   19.3072 C   0  0  0  0  0  0
  -29.6299  -16.8979   21.6656 C   0  0  0  0  0  0
  -30.3047  -17.1267   19.3516 C   0  0  0  0  0  0
  -29.7410  -19.4207   20.6295 C   0  0  0  0  0  0
  -30.3329  -24.3772   22.2053 C   0  0  0  0  0  0
  -32.6272  -21.3199   21.5465 C   0  0  0  0  0  0
  -31.0596  -20.4595   23.4115 C   0  0  0  0  0  0
  -27.8914  -24.6951   20.0022 C   0  0  0  0  0  0
  -31.3453  -21.5496   22.3654 C   0  0  0  0  0  0
  -30.1886  -21.9122   21.5145 N   0  0  0  0  0  0
  -29.9245  -16.1145   20.4132 N   0  0  0  0  0  0
  -31.4623  -12.6544   19.1837 H   0  0  0  0  0  0
  -30.3760  -11.5841   20.0192 H   0  0  0  0  0  0
  -29.8155  -11.7243   17.5630 H   0  0  0  0  0  0
  -29.6157  -13.4549   17.6963 H   0  0  0  0  0  0
  -27.9244  -11.2800   18.9601 H   0  0  0  0  0  0
  -27.3797  -12.4725   17.8106 H   0  0  0  0  0  0
  -27.5972  -14.2574   19.4200 H   0  0  0  0  0  0
  -28.7429  -12.3000   21.4677 H   0  0  0  0  0  0
  -28.3892  -13.9922   21.7417 H   0  0  0  0  0  0
  -25.2769   -9.5691   22.4766 H   0  0  0  0  0  0
  -24.0013   -7.4640   22.7471 H   0  0  0  0  0  0
  -21.0855   -8.8779   19.8951 H   0  0  0  0  0  0
  -22.3710  -10.9677   19.6166 H   0  0  0  0  0  0
  -21.2006   -7.6153   23.9723 H   0  0  0  0  0  0
  -21.1481   -6.0523   25.9079 H   0  0  0  0  0  0
  -22.0598   -2.7614   23.2842 H   0  0  0  0  0  0
  -22.4072  -11.9868   22.4817 H   0  0  0  0  0  0
  -21.1064  -13.1216   22.2622 H   0  0  0  0  0  0
  -24.6557  -15.8546   20.5437 H   0  0  0  0  0  0
  -26.2810  -15.6383   20.1319 H   0  0  0  0  0  0
  -26.7260  -32.5329   23.1034 H   0  0  0  0  0  0
  -25.0087  -33.9642   25.0355 H   0  0  0  0  0  0
  -22.7425  -31.2962   21.3889 H   0  0  0  0  0  0
  -23.3758  -35.9588   23.3291 H   0  0  0  0  0  0
  -24.3579  -36.8903   22.2059 H   0  0  0  0  0  0
  -23.7240  -37.6454   23.6682 H   0  0  0  0  0  0
  -26.1485  -31.4880   20.6185 H   0  0  0  0  0  0
  -26.8684  -30.7785   22.0289 H   0  0  0  0  0  0
  -28.1186  -28.8146   21.2531 H   0  0  0  0  0  0
  -25.9070  -25.8962   18.9496 H   0  0  0  0  0  0
  -23.9775  -27.3314   18.9558 H   0  0  0  0  0  0
  -23.7969  -30.5846   19.4014 H   0  0  0  0  0  0
  -22.7807  -29.2471   19.8447 H   0  0  0  0  0  0
  -25.1307  -36.1876   25.0813 H   0  0  0  0  0  0
  -21.0006  -28.3300   24.1363 H   0  0  0  0  0  0
  -20.5684  -26.2329   23.3619 H   0  0  0  0  0  0
  -21.6651  -26.7435   22.1194 H   0  0  0  0  0  0
  -19.6919  -25.6288   21.1254 H   0  0  0  0  0  0
  -19.6696  -27.3184   20.6737 H   0  0  0  0  0  0
  -17.4211  -26.6682   21.4029 H   0  0  0  0  0  0
  -18.0340  -26.0078   22.9024 H   0  0  0  0  0  0
  -19.7948  -30.7293   24.2238 H   0  0  0  0  0  0
  -17.5022  -31.6270   24.5163 H   0  0  0  0  0  0
  -15.5361  -30.2979   23.7672 H   0  0  0  0  0  0
  -15.8686  -28.0815   22.7084 H   0  0  0  0  0  0
  -24.5910  -30.7076   25.7743 H   0  0  0  0  0  0
  -24.8897  -32.2912   26.4806 H   0  0  0  0  0  0
  -25.8010  -30.8940   27.0229 H   0  0  0  0  0  0
  -26.3001  -29.6688   24.1282 H   0  0  0  0  0  0
  -27.4006  -29.7252   25.4846 H   0  0  0  0  0  0
  -27.8908  -30.4206   23.9594 H   0  0  0  0  0  0
  -27.2667  -33.3640   26.2034 H   0  0  0  0  0  0
  -28.3903  -32.6843   25.0352 H   0  0  0  0  0  0
  -28.0700  -31.8472   26.5464 H   0  0  0  0  0  0
  -28.2584  -38.0094   24.7512 H   0  0  0  0  0  0
  -28.1083  -36.2623   24.6291 H   0  0  0  0  0  0
  -27.2291  -37.1429   25.8867 H   0  0  0  0  0  0
  -20.9453  -29.8772   21.6812 H   0  0  0  0  0  0
  -26.0156  -38.2819   24.1412 H   0  0  0  0  0  0
  -27.8326  -21.6214   19.3409 H   0  0  0  0  0  0
  -29.5914  -23.6660   24.1941 H   0  0  0  0  0  0
  -31.0504  -24.7830   24.2834 H   0  0  0  0  0  0
  -29.8507  -26.4628   22.8436 H   0  0  0  0  0  0
  -28.3913  -25.3461   22.7899 H   0  0  0  0  0  0
  -28.9909  -18.7985   22.5892 H   0  0  0  0  0  0
  -27.9707  -18.3264   21.2884 H   0  0  0  0  0  0
  -28.6105  -18.5280   18.9881 H   0  0  0  0  0  0
  -30.1545  -19.1623   18.5214 H   0  0  0  0  0  0
  -28.9642  -16.2934   22.2828 H   0  0  0  0  0  0
  -30.5650  -16.9557   22.2254 H   0  0  0  0  0  0
  -31.3849  -17.2686   19.4103 H   0  0  0  0  0  0
  -30.1332  -16.6553   18.3826 H   0  0  0  0  0  0
  -30.7909  -19.3244   20.8774 H   0  0  0  0  0  0
  -31.2817  -24.6992   21.7799 H   0  0  0  0  0  0
  -33.4806  -21.1607   22.2059 H   0  0  0  0  0  0
  -32.8511  -22.1943   20.9351 H   0  0  0  0  0  0
  -32.5721  -20.4647   20.8777 H   0  0  0  0  0  0
  -31.7750  -20.5273   24.2314 H   0  0  0  0  0  0
  -31.1531  -19.4515   23.0164 H   0  0  0  0  0  0
  -30.0658  -20.5781   23.8444 H   0  0  0  0  0  0
  -26.9123  -24.5324   20.4539 H   0  0  0  0  0  0
  -27.7463  -24.5788   18.9279 H   0  0  0  0  0  0
  -31.5900  -22.4082   22.9818 H   0  0  0  0  0  0
  1 25  1  0  0  0
  1 30  2  0  0  0
  1 88  1  0  0  0
  2  3  1  0  0  0
  2 25  1  0  0  0
  2 89  1  0  0  0
  2 90  1  0  0  0
  3  4  1  0  0  0
  3 91  1  0  0  0
  3 92  1  0  0  0
  4  5  1  0  0  0
  4 93  1  0  0  0
  4 94  1  0  0  0
  5  6  1  0  0  0
  5 26  1  0  0  0
  5 95  1  0  0  0
  6 25  1  0  0  0
  6 96  1  0  0  0
  6 97  1  0  0  0
  7  8  2  0  0  0
  7 26  1  0  0  0
  7 29  1  0  0  0
  8  9  1  0  0  0
  8 22  1  0  0  0
  9 10  1  0  0  0
  9 27  2  0  0  0
 10 11  2  0  0  0
 10 15  1  0  0  0
 11 12  1  0  0  0
 11 98  1  0  0  0
 12 13  2  0  0  0
 12 99  1  0  0  0
 13 14  1  0  0  0
 13 31  1  0  0  0
 14 15  2  0  0  0
 14100  1  0  0  0
 15101  1  0  0  0
 16 17  2  0  0  0
 16 21  1  0  0  0
 16 31  1  0  0  0
 17 18  1  0  0  0
 17102  1  0  0  0
 18 19  2  0  0  0
 18103  1  0  0  0
 19 20  1  0  0  0
 19 24  1  0  0  0
 20 21  2  0  0  0
 20104  1  0  0  0
 21 23  1  0  0  0
 22 28  1  0  0  0
 22 32  2  0  0  0
 26 27  1  0  0  0
 28105  1  0  0  0
 28106  1  0  0  0
 29107  1  0  0  0
 29108  1  0  0  0
 33 34  1  0  0  0
 33 66  1  0  0  0
 33 70  2  0  0  0
 34 36  1  0  0  0
 34 59  1  0  0  0
 34109  1  0  0  0
 35 44  2  0  0  0
 35 45  1  0  0  0
 35 68  1  0  0  0
 36 56  1  0  0  0
 36110  1  0  0  0
 37 39  1  0  0  0
 37 47  1  0  0  0
 37 66  1  0  0  0
 37111  1  0  0  0
 38 43  2  0  0  0
 38 46  1  0  0  0
 38 47  1  0  0  0
 39 64  1  0  0  0
 39 67  2  0  0  0
 40 52  1  0  0  0
 40 53  2  0  0  0
 40 58  1  0  0  0
 41112  1  0  0  0
 41113  1  0  0  0
 41114  1  0  0  0
 41 48  1  0  0  0
 42 43  1  0  0  0
 42 66  1  0  0  0
 42115  1  0  0  0
 42116  1  0  0  0
 43 44  1  0  0  0
 44117  1  0  0  0
 45 46  2  0  0  0
 45118  1  0  0  0
 46119  1  0  0  0
 47120  1  0  0  0
 47121  1  0  0  0
 48 56  1  0  0  0
 48 65  1  0  0  0
 48122  1  0  0  0
 49 50  1  0  0  0
 49 53  1  0  0  0
 49 64  1  0  0  0
 49123  1  0  0  0
 50 51  1  0  0  0
 50124  1  0  0  0
 50125  1  0  0  0
 51 52  1  0  0  0
 51126  1  0  0  0
 51127  1  0  0  0
 52128  1  0  0  0
 52129  1  0  0  0
 53 54  1  0  0  0
 54 55  2  0  0  0
 54130  1  0  0  0
 55 57  1  0  0  0
 55131  1  0  0  0
 56 69  2  0  0  0
 57 58  2  0  0  0
 57132  1  0  0  0
 58133  1  0  0  0
 59 60  1  0  0  0
 59 61  1  0  0  0
 59 62  1  0  0  0
 60134  1  0  0  0
 60135  1  0  0  0
 60136  1  0  0  0
 61137  1  0  0  0
 61138  1  0  0  0
 61139  1  0  0  0
 62140  1  0  0  0
 62141  1  0  0  0
 62142  1  0  0  0
 63 65  1  0  0  0
 63143  1  0  0  0
 63144  1  0  0  0
 63145  1  0  0  0
 64146  1  0  0  0
 65147  1  0  0  0
 68 85  1  0  0  0
 71 72  1  0  0  0
 71 73  2  0  0  0
 71148  1  0  0  0
 72 74  2  0  0  0
 72 85  1  0  0  0
 73 87  1  0  0  0
 73 81  1  0  0  0
 74 87  1  0  0  0
 74 82  1  0  0  0
 75 76  1  0  0  0
 75 82  1  0  0  0
 75149  1  0  0  0
 75150  1  0  0  0
 76 82  1  0  0  0
 76151  1  0  0  0
 76152  1  0  0  0
 77 79  1  0  0  0
 77 81  1  0  0  0
 77153  1  0  0  0
 77154  1  0  0  0
 78 80  1  0  0  0
 78 81  1  0  0  0
 78155  1  0  0  0
 78156  1  0  0  0
 79 88  1  0  0  0
 79157  1  0  0  0
 79158  1  0  0  0
 80 88  1  0  0  0
 80159  1  0  0  0
 80160  1  0  0  0
 81161  1  0  0  0
 82162  1  0  0  0
 83163  1  0  0  0
 83164  1  0  0  0
 83165  1  0  0  0
 83 86  1  0  0  0
 84 86  1  0  0  0
 84166  1  0  0  0
 84167  1  0  0  0
 84168  1  0  0  0
 85169  1  0  0  0
 85170  1  0  0  0
 86 87  1  0  0  0
 86171  1  0  0  0
M  ISO  4   1 100  68 101  85 101  88 100
M  END
> <chiral flag>
0

> <version>
0

> <s_m_source_file>
/data/baiqing/PycharmProjects/Reinvent-master-3.2/result/LINK_invent/BTK/process_docking_weight1_custom_sum_contain_oxygen_bond_distance_aromatic_linkinvent_7_9_3/rearranged_h_0130.sdf

> <i_m_source_file_index>
97

> <r_mmod_Potential_Energy-OPLS-2005>
638.700378417969

> <r_mmod_Stretch_Energy-OPLS-2005>
198.181060791016

> <r_mmod_Bend_Energy-OPLS-2005>
256.394592285156

> <r_mmod_Torsional_Energy-OPLS-2005>
388.843658447266

> <r_mmod_Improper_Torsional_Energy-OPLS-2005>
15.0442199707031

> <r_mmod_Van_der_Waal_Energy-OPLS-2005>
122.031814575195

> <r_mmod_Electrostatic_Energy-OPLS-2005>
-306.951263427734

> <r_mmod_Solvation_Energy-OPLS-2005>
-190.426513671875

> <b_mmod_Minimization_Converged-OPLS-2005>
0

> <r_mmod_RMS_Derivative-OPLS-2005>
0.610651612281799

$$$$
97
                    3D
 Structure written by MMmdl.
163172  0  0  1  0            999 V2000
  -30.7202  -14.4157   20.5897 C   0  0  0  0  0  0
  -30.4227  -12.2742   19.4130 C   0  0  0  0  0  0
  -29.4949  -12.4923   18.2003 C   0  0  0  0  0  0
  -28.0169  -12.3551   18.6185 C   0  0  0  0  0  0
  -27.6670  -13.1957   19.8762 C   0  0  2  0  0  0
  -28.7069  -12.9529   20.9943 C   0  0  0  0  0  0
  -25.2622  -13.8124   20.5670 C   0  0  0  0  0  0
  -24.1853  -13.0428   20.9177 C   0  0  0  0  0  0
  -24.6390  -11.6890   20.8743 C   0  0  0  0  0  0
  -23.9058  -10.4282   21.0407 C   0  0  0  0  0  0
  -24.3610   -9.4203   21.9189 C   0  0  0  0  0  0
  -23.6288   -8.2239   22.0757 C   0  0  0  0  0  0
  -22.4273   -8.0285   21.3546 C   0  0  0  0  0  0
  -21.9901   -9.0256   20.4650 C   0  0  0  0  0  0
  -22.7230  -10.2135   20.3059 C   0  0  0  0  0  0
  -21.6844   -6.0739   22.5283 C   0  0  0  0  0  0
  -21.4006   -6.5634   23.8215 C   0  0  0  0  0  0
  -21.3662   -5.6787   24.9173 C   0  0  0  0  0  0
  -21.6050   -4.3049   24.7224 C   0  0  0  0  0  0
  -21.8814   -3.8146   23.4338 C   0  0  0  0  0  0
  -21.9178   -4.6968   22.3397 C   0  0  0  0  0  0
  -22.7877  -13.5253   21.1818 C   0  0  0  0  0  0
  -22.1650   -4.2154   21.0976 F   0  0  0  0  0  0
  -21.5638   -3.4536   25.7736 F   0  0  0  0  0  0
  -30.0448  -13.2463   20.4473 N   0  0  0  0  0  0
  -26.3056  -12.9283   20.3362 N   0  0  0  0  0  0
  -25.9315  -11.6456   20.5760 N   0  0  0  0  0  0
  -22.0486  -12.8284   22.0378 N   0  0  0  0  0  0
  -25.4361  -15.1843   20.4081 N   0  0  0  0  0  0
  -31.8266  -14.6243   20.0858 O   0  0  0  0  0  0
  -21.6631   -6.8888   21.4246 O   0  0  0  0  0  0
  -22.3591  -14.5573   20.6672 O   0  0  0  0  0  0
  -24.6108  -31.8711   23.2163 C   0  0  0  0  0  0
  -25.9009  -32.4847   23.8436 C   0  0  1  0  0  0
  -27.2228  -27.4543   20.0816 C   0  0  0  0  0  0
  -25.5886  -33.8654   24.2367 N   0  0  0  0  0  0
  -23.3967  -30.4956   21.5577 C   0  0  2  0  0  0
  -24.8368  -28.9639   20.1167 C   0  0  0  0  0  0
  -22.7382  -29.4663   22.5029 C   0  0  0  0  0  0
  -18.0260  -28.1375   22.8488 C   0  0  0  0  0  0
  -24.1477  -36.7323   23.2643 C   0  0  0  0  0  0
  -25.9250  -30.8354   21.3701 C   0  0  0  0  0  0
  -25.9952  -29.4734   20.7152 C   0  0  0  0  0  0
  -27.1890  -28.7217   20.6984 C   0  0  0  0  0  0
  -26.0406  -26.9465   19.4902 C   0  0  0  0  0  0
  -24.8522  -27.6998   19.5051 C   0  0  0  0  0  0
  -23.6022  -29.8348   20.1689 C   0  0  0  0  0  0
  -25.4105  -36.3143   24.0348 C   0  0  1  0  0  0
  -20.5847  -28.3654   23.1341 C   0  0  2  0  0  0
  -20.6753  -26.9405   22.5412 C   0  0  0  0  0  0
  -19.5738  -26.6394   21.5198 C   0  0  0  0  0  0
  -18.1914  -26.7920   22.1613 C   0  0  0  0  0  0
  -19.1507  -28.8830   23.2909 C   0  0  0  0  0  0
  -18.9440  -30.1442   23.8917 C   0  0  0  0  0  0
  -17.6447  -30.6587   24.0567 C   0  0  0  0  0  0
  -25.9025  -34.9499   23.5159 C   0  0  0  0  0  0
  -16.5336  -29.9097   23.6326 C   0  0  0  0  0  0
  -16.7246  -28.6508   23.0340 C   0  0  0  0  0  0
  -26.4454  -31.6620   25.0749 C   0  0  0  0  0  0
  -25.3737  -31.3695   26.1509 C   0  0  0  0  0  0
  -27.0268  -30.3072   24.6099 C   0  0  0  0  0  0
  -27.6063  -32.4319   25.7467 C   0  0  0  0  0  0
  -27.5585  -37.1821   24.8472 C   0  0  0  0  0  0
  -21.4116  -29.3022   22.3760 N   0  0  0  0  0  0
  -26.4305  -37.3818   23.9403 N   0  0  0  0  0  0
  -24.6626  -31.0805   22.1073 N   0  0  0  0  0  0
  -23.4167  -28.8206   23.3062 O   0  0  0  0  0  0
  -28.4144  -26.7663   20.0817 O   0  0  0  0  0  0
  -26.5588  -34.8932   22.4718 O   0  0  0  0  0  0
  -23.5308  -32.1469   23.7557 O   0  0  0  0  0  0
  -28.6691  -25.4637   18.0600 C   0  0  0  0  0  0
  -28.8651  -24.1984   17.4781 C   0  0  0  0  0  0
  -28.5442  -24.3581   20.2055 C   0  0  0  0  0  0
  -28.5196  -25.5500   19.4571 C   0  0  0  0  0  0
  -28.9275  -23.0700   18.3152 C   0  0  0  0  0  0
  -31.5658  -17.2479   22.0402 C   0  0  0  0  0  0
  -32.0730  -18.5363   21.3597 C   0  0  0  0  0  0
  -30.5548  -17.4977   19.8599 C   0  0  0  0  0  0
  -30.3332  -16.8341   21.2296 C   0  0  1  0  0  0
  -29.3017  -21.7047   17.7588 C   0  0  0  0  0  0
  -31.9134  -19.4269   19.0288 C   0  0  0  0  0  0
  -30.9342  -19.9943   17.9899 C   0  0  0  0  0  0
  -28.7461  -23.1411   19.6539 N   0  0  0  0  0  0
  -30.0307  -15.3945   21.1925 N   0  0  0  0  0  0
  -31.2142  -18.7815   20.1722 N   0  3  2  0  0  0
  -30.2387  -21.0584   18.6160 O   0  0  0  0  0  0
  -31.4692  -12.3585   19.1187 H   0  0  0  0  0  0
  -30.3062  -11.2605   19.8003 H   0  0  0  0  0  0
  -29.7275  -11.7705   17.4166 H   0  0  0  0  0  0
  -29.6685  -13.4771   17.7638 H   0  0  0  0  0  0
  -27.8330  -11.2999   18.8233 H   0  0  0  0  0  0
  -27.3617  -12.6197   17.7889 H   0  0  0  0  0  0
  -27.7216  -14.2439   19.5848 H   0  0  0  0  0  0
  -28.6723  -11.9124   21.3234 H   0  0  0  0  0  0
  -28.4709  -13.5367   21.8847 H   0  0  0  0  0  0
  -25.2753   -9.5675   22.4760 H   0  0  0  0  0  0
  -23.9990   -7.4625   22.7481 H   0  0  0  0  0  0
  -21.0822   -8.8787   19.8959 H   0  0  0  0  0  0
  -22.3694  -10.9681   19.6172 H   0  0  0  0  0  0
  -21.2003   -7.6141   23.9723 H   0  0  0  0  0  0
  -21.1491   -6.0512   25.9077 H   0  0  0  0  0  0
  -22.0592   -2.7612   23.2828 H   0  0  0  0  0  0
  -22.4068  -11.9967   22.4826 H   0  0  0  0  0  0
  -21.1105  -13.1357   22.2528 H   0  0  0  0  0  0
  -24.6711  -15.8414   20.5195 H   0  0  0  0  0  0
  -26.2883  -15.6212   20.0795 H   0  0  0  0  0  0
  -26.7075  -32.5542   23.1192 H   0  0  0  0  0  0
  -25.0027  -33.9832   25.0510 H   0  0  0  0  0  0
  -22.6852  -31.3142   21.4256 H   0  0  0  0  0  0
  -23.3742  -35.9654   23.3335 H   0  0  0  0  0  0
  -24.3568  -36.8898   22.2052 H   0  0  0  0  0  0
  -23.7216  -37.6537   23.6625 H   0  0  0  0  0  0
  -26.0397  -31.6032   20.6032 H   0  0  0  0  0  0
  -26.8161  -30.8847   21.9853 H   0  0  0  0  0  0
  -28.0886  -29.1101   21.1544 H   0  0  0  0  0  0
  -26.0201  -25.9795   19.0082 H   0  0  0  0  0  0
  -23.9574  -27.3048   19.0423 H   0  0  0  0  0  0
  -23.7196  -30.6162   19.4168 H   0  0  0  0  0  0
  -22.7219  -29.2645   19.8669 H   0  0  0  0  0  0
  -25.1272  -36.2036   25.0844 H   0  0  0  0  0  0
  -20.9936  -28.3212   24.1464 H   0  0  0  0  0  0
  -20.5661  -26.2261   23.3585 H   0  0  0  0  0  0
  -21.6629  -26.7460   22.1207 H   0  0  0  0  0  0
  -19.6909  -25.6312   21.1215 H   0  0  0  0  0  0
  -19.6681  -27.3216   20.6738 H   0  0  0  0  0  0
  -17.4181  -26.6655   21.4020 H   0  0  0  0  0  0
  -18.0340  -26.0062   22.9018 H   0  0  0  0  0  0
  -19.7919  -30.7247   24.2305 H   0  0  0  0  0  0
  -17.5001  -31.6269   24.5170 H   0  0  0  0  0  0
  -15.5342  -30.3007   23.7639 H   0  0  0  0  0  0
  -15.8638  -28.0844   22.7049 H   0  0  0  0  0  0
  -24.5902  -30.7059   25.7839 H   0  0  0  0  0  0
  -24.8925  -32.2832   26.5019 H   0  0  0  0  0  0
  -25.8111  -30.8817   27.0233 H   0  0  0  0  0  0
  -26.2796  -29.6839   24.1182 H   0  0  0  0  0  0
  -27.4080  -29.7306   25.4537 H   0  0  0  0  0  0
  -27.8618  -30.4397   23.9213 H   0  0  0  0  0  0
  -27.2739  -33.3623   26.2083 H   0  0  0  0  0  0
  -28.3834  -32.6878   25.0252 H   0  0  0  0  0  0
  -28.0776  -31.8413   26.5331 H   0  0  0  0  0  0
  -28.2641  -38.0085   24.7510 H   0  0  0  0  0  0
  -28.1049  -36.2626   24.6319 H   0  0  0  0  0  0
  -27.2303  -37.1496   25.8878 H   0  0  0  0  0  0
  -20.9281  -29.8751   21.6985 H   0  0  0  0  0  0
  -26.0208  -38.2907   24.1393 H   0  0  0  0  0  0
  -28.6554  -26.3535   17.4483 H   0  0  0  0  0  0
  -29.0087  -24.1088   16.4102 H   0  0  0  0  0  0
  -28.4290  -24.3800   21.2800 H   0  0  0  0  0  0
  -31.3172  -17.4107   23.0901 H   0  0  0  0  0  0
  -32.3440  -16.4855   22.0039 H   0  0  0  0  0  0
  -33.1169  -18.4089   21.0673 H   0  0  0  0  0  0
  -32.0275  -19.3910   22.0360 H   0  0  0  0  0  0
  -29.6193  -17.6424   19.3166 H   0  0  0  0  0  0
  -31.2175  -16.9092   19.2260 H   0  0  0  0  0  0
  -29.4641  -17.3163   21.6803 H   0  0  0  0  0  0
  -29.7185  -21.8409   16.7586 H   0  0  0  0  0  0
  -28.4091  -21.0865   17.6531 H   0  0  0  0  0  0
  -32.5307  -20.2452   19.4014 H   0  0  0  0  0  0
  -32.5936  -18.7195   18.5547 H   0  0  0  0  0  0
  -30.2446  -19.2342   17.6204 H   0  0  0  0  0  0
  -31.4918  -20.3667   17.1288 H   0  0  0  0  0  0
  -29.1381  -15.1174   21.5734 H   0  0  0  0  0  0
  -30.4891  -19.4186   20.4753 H   0  0  0  0  0  0
  1 25  1  0  0  0
  1 30  2  0  0  0
  1 84  1  0  0  0
  2  3  1  0  0  0
  2 25  1  0  0  0
  2 87  1  0  0  0
  2 88  1  0  0  0
  3  4  1  0  0  0
  3 89  1  0  0  0
  3 90  1  0  0  0
  4  5  1  0  0  0
  4 91  1  0  0  0
  4 92  1  0  0  0
  5  6  1  0  0  0
  5 26  1  0  0  0
  5 93  1  0  0  0
  6 25  1  0  0  0
  6 94  1  0  0  0
  6 95  1  0  0  0
  7  8  2  0  0  0
  7 26  1  0  0  0
  7 29  1  0  0  0
  8  9  1  0  0  0
  8 22  1  0  0  0
  9 10  1  0  0  0
  9 27  2  0  0  0
 10 11  2  0  0  0
 10 15  1  0  0  0
 11 12  1  0  0  0
 11 96  1  0  0  0
 12 13  2  0  0  0
 12 97  1  0  0  0
 13 14  1  0  0  0
 13 31  1  0  0  0
 14 15  2  0  0  0
 14 98  1  0  0  0
 15 99  1  0  0  0
 16 17  2  0  0  0
 16 21  1  0  0  0
 16 31  1  0  0  0
 17 18  1  0  0  0
 17100  1  0  0  0
 18 19  2  0  0  0
 18101  1  0  0  0
 19 20  1  0  0  0
 19 24  1  0  0  0
 20 21  2  0  0  0
 20102  1  0  0  0
 21 23  1  0  0  0
 22 28  1  0  0  0
 22 32  2  0  0  0
 26 27  1  0  0  0
 28103  1  0  0  0
 28104  1  0  0  0
 29105  1  0  0  0
 29106  1  0  0  0
 33 34  1  0  0  0
 33 66  1  0  0  0
 33 70  2  0  0  0
 34 36  1  0  0  0
 34 59  1  0  0  0
 34107  1  0  0  0
 35 44  2  0  0  0
 35 45  1  0  0  0
 35 68  1  0  0  0
 36 56  1  0  0  0
 36108  1  0  0  0
 37 39  1  0  0  0
 37 47  1  0  0  0
 37 66  1  0  0  0
 37109  1  0  0  0
 38 43  2  0  0  0
 38 46  1  0  0  0
 38 47  1  0  0  0
 39 64  1  0  0  0
 39 67  2  0  0  0
 40 52  1  0  0  0
 40 53  2  0  0  0
 40 58  1  0  0  0
 41110  1  0  0  0
 41111  1  0  0  0
 41112  1  0  0  0
 41 48  1  0  0  0
 42 43  1  0  0  0
 42 66  1  0  0  0
 42113  1  0  0  0
 42114  1  0  0  0
 43 44  1  0  0  0
 44115  1  0  0  0
 45 46  2  0  0  0
 45116  1  0  0  0
 46117  1  0  0  0
 47118  1  0  0  0
 47119  1  0  0  0
 48 56  1  0  0  0
 48 65  1  0  0  0
 48120  1  0  0  0
 49 50  1  0  0  0
 49 53  1  0  0  0
 49 64  1  0  0  0
 49121  1  0  0  0
 50 51  1  0  0  0
 50122  1  0  0  0
 50123  1  0  0  0
 51 52  1  0  0  0
 51124  1  0  0  0
 51125  1  0  0  0
 52126  1  0  0  0
 52127  1  0  0  0
 53 54  1  0  0  0
 54 55  2  0  0  0
 54128  1  0  0  0
 55 57  1  0  0  0
 55129  1  0  0  0
 56 69  2  0  0  0
 57 58  2  0  0  0
 57130  1  0  0  0
 58131  1  0  0  0
 59 60  1  0  0  0
 59 61  1  0  0  0
 59 62  1  0  0  0
 60132  1  0  0  0
 60133  1  0  0  0
 60134  1  0  0  0
 61135  1  0  0  0
 61136  1  0  0  0
 61137  1  0  0  0
 62138  1  0  0  0
 62139  1  0  0  0
 62140  1  0  0  0
 63 65  1  0  0  0
 63141  1  0  0  0
 63142  1  0  0  0
 63143  1  0  0  0
 64144  1  0  0  0
 65145  1  0  0  0
 68 74  1  0  0  0
 71 72  2  0  0  0
 71 74  1  0  0  0
 71146  1  0  0  0
 72 75  1  0  0  0
 72147  1  0  0  0
 73 74  2  0  0  0
 73 83  1  0  0  0
 73148  1  0  0  0
 75 80  1  0  0  0
 75 83  2  0  0  0
 76 77  1  0  0  0
 76 79  1  0  0  0
 76149  1  0  0  0
 76150  1  0  0  0
 77 85  1  0  0  0
 77151  1  0  0  0
 77152  1  0  0  0
 78 79  1  0  0  0
 78 85  1  0  0  0
 78153  1  0  0  0
 78154  1  0  0  0
 79 84  1  0  0  0
 79155  1  0  0  0
 80 86  1  0  0  0
 80156  1  0  0  0
 80157  1  0  0  0
 81 82  1  0  0  0
 81158  1  0  0  0
 81159  1  0  0  0
 81 85  1  0  0  0
 82 86  1  0  0  0
 82160  1  0  0  0
 82161  1  0  0  0
 84162  1  0  0  0
 85163  1  0  0  0
M  CHG  1  85   1
M  ISO  4   1 100  68 101  74 101  84 100
M  END
> <chiral flag>
0

> <version>
0

> <s_m_source_file>
/data/baiqing/PycharmProjects/Reinvent-master-3.2/result/LINK_invent/BTK/process_docking_weight1_custom_sum_contain_oxygen_bond_distance_aromatic_linkinvent_7_9_3/rearranged_h_0130.sdf

> <i_m_source_file_index>
98

> <r_mmod_Potential_Energy-OPLS-2005>
-256.473754882812

> <r_mmod_Stretch_Energy-OPLS-2005>
32.3044395446777

> <r_mmod_Bend_Energy-OPLS-2005>
118.022239685059

> <r_mmod_Torsional_Energy-OPLS-2005>
265.925323486328

> <r_mmod_Improper_Torsional_Energy-OPLS-2005>
3.82287788391113

> <r_mmod_Van_der_Waal_Energy-OPLS-2005>
156.909378051758

> <r_mmod_Electrostatic_Energy-OPLS-2005>
-415.084259033203

> <r_mmod_Solvation_Energy-OPLS-2005>
-428.236999511719

> <b_mmod_Minimization_Converged-OPLS-2005>
0

> <r_mmod_RMS_Derivative-OPLS-2005>
2.59301209449768

$$$$
98
                    3D
 Structure written by MMmdl.
148156  0  0  1  0            999 V2000
  -30.6182  -14.7655   20.4689 C   0  0  0  0  0  0
  -30.4364  -12.4745   19.4681 C   0  0  0  0  0  0
  -29.5098  -12.5088   18.2330 C   0  0  0  0  0  0
  -28.0379  -12.3268   18.6515 C   0  0  0  0  0  0
  -27.6409  -13.2332   19.8471 C   0  0  2  0  0  0
  -28.6888  -13.1816   20.9798 C   0  0  0  0  0  0
  -25.2510  -13.8197   20.5697 C   0  0  0  0  0  0
  -24.1804  -13.0439   20.9213 C   0  0  0  0  0  0
  -24.6398  -11.6918   20.8752 C   0  0  0  0  0  0
  -23.9075  -10.4293   21.0408 C   0  0  0  0  0  0
  -24.3623   -9.4207   21.9185 C   0  0  0  0  0  0
  -23.6296   -8.2243   22.0754 C   0  0  0  0  0  0
  -22.4278   -8.0282   21.3544 C   0  0  0  0  0  0
  -21.9916   -9.0257   20.4647 C   0  0  0  0  0  0
  -22.7247  -10.2135   20.3057 C   0  0  0  0  0  0
  -21.6854   -6.0736   22.5279 C   0  0  0  0  0  0
  -21.4015   -6.5640   23.8212 C   0  0  0  0  0  0
  -21.3660   -5.6793   24.9174 C   0  0  0  0  0  0
  -21.6044   -4.3055   24.7225 C   0  0  0  0  0  0
  -21.8819   -3.8147   23.4346 C   0  0  0  0  0  0
  -21.9193   -4.6964   22.3402 C   0  0  0  0  0  0
  -22.7824  -13.5219   21.1870 C   0  0  0  0  0  0
  -22.1661   -4.2149   21.0980 F   0  0  0  0  0  0
  -21.5628   -3.4539   25.7738 F   0  0  0  0  0  0
  -29.9849  -13.5426   20.3904 N   0  0  0  0  0  0
  -26.2939  -12.9407   20.3278 N   0  0  0  0  0  0
  -25.9330  -11.6548   20.5754 N   0  0  0  0  0  0
  -22.0471  -12.8207   22.0425 N   0  0  0  0  0  0
  -25.4185  -15.1922   20.4104 N   0  0  0  0  0  0
  -31.8140  -14.8525   20.1795 O   0  0  0  0  0  0
  -21.6641   -6.8879   21.4241 O   0  0  0  0  0  0
  -22.3507  -14.5523   20.6716 O   0  0  0  0  0  0
  -24.6369  -31.8546   23.2004 C   0  0  0  0  0  0
  -25.9180  -32.4751   23.8349 C   0  0  1  0  0  0
  -27.2063  -27.2224   20.1177 C   0  0  0  0  0  0
  -25.5963  -33.8554   24.2262 N   0  0  0  0  0  0
  -23.4342  -30.4831   21.5459 C   0  0  2  0  0  0
  -24.8790  -28.9389   20.1093 C   0  0  0  0  0  0
  -22.7533  -29.4609   22.4898 C   0  0  0  0  0  0
  -18.0301  -28.1391   22.8482 C   0  0  0  0  0  0
  -24.1492  -36.7278   23.2638 C   0  0  0  0  0  0
  -25.9887  -30.7540   21.3908 C   0  0  0  0  0  0
  -26.0582  -29.3775   20.7251 C   0  0  0  0  0  0
  -27.2248  -28.5336   20.7209 C   0  0  0  0  0  0
  -25.9971  -26.8854   19.4559 C   0  0  0  0  0  0
  -24.8568  -27.7014   19.4634 C   0  0  0  0  0  0
  -23.6541  -29.8302   20.1595 C   0  0  0  0  0  0
  -25.4120  -36.3065   24.0323 C   0  0  1  0  0  0
  -20.5910  -28.3712   23.1249 C   0  0  2  0  0  0
  -20.6790  -26.9425   22.5398 C   0  0  0  0  0  0
  -19.5760  -26.6385   21.5209 C   0  0  0  0  0  0
  -18.1942  -26.7931   22.1626 C   0  0  0  0  0  0
  -19.1556  -28.8868   23.2860 C   0  0  0  0  0  0
  -18.9473  -30.1466   23.8883 C   0  0  0  0  0  0
  -17.6470  -30.6589   24.0561 C   0  0  0  0  0  0
  -25.9065  -34.9436   23.5091 C   0  0  0  0  0  0
  -16.5362  -29.9084   23.6334 C   0  0  0  0  0  0
  -16.7286  -28.6502   23.0356 C   0  0  0  0  0  0
  -26.4522  -31.6583   25.0751 C   0  0  0  0  0  0
  -25.3725  -31.3747   26.1455 C   0  0  0  0  0  0
  -27.0377  -30.2988   24.6280 C   0  0  0  0  0  0
  -27.6065  -32.4332   25.7530 C   0  0  0  0  0  0
  -27.5578  -37.1800   24.8467 C   0  0  0  0  0  0
  -21.4235  -29.3058   22.3638 N   0  0  0  0  0  0
  -26.4292  -37.3767   23.9406 N   0  0  0  0  0  0
  -24.7061  -31.0482   22.1008 N   0  0  0  0  0  0
  -23.4217  -28.8128   23.2994 O   0  0  0  0  0  0
  -28.2527  -26.2475   20.1878 O   0  0  0  0  0  0
  -26.5631  -34.8912   22.4656 O   0  0  0  0  0  0
  -23.5507  -32.1388   23.7270 O   0  0  0  0  0  0
  -28.7333  -22.4435   21.0652 C   0  0  0  0  0  0
  -28.7211  -23.5169   20.1655 C   0  0  0  0  0  0
  -29.3386  -21.2975   20.4071 C   0  0  0  0  0  0
  -27.8123  -24.8073   19.9732 C   0  0  0  0  0  0
  -29.5256  -18.6305   20.2240 C   0  0  0  0  0  0
  -30.2924  -17.3668   20.9154 C   0  0  0  0  0  0
  -29.7306  -21.6686   19.1993 N   0  0  0  0  0  0
  -29.5053  -19.9654   20.9552 N   0  0  0  0  0  0
  -29.8591  -15.9105   20.6854 N   0  0  0  0  0  0
  -29.3492  -23.0275   19.0426 O   0  0  0  0  0  0
  -31.4748  -12.6075   19.1598 H   0  0  0  0  0  0
  -30.3924  -11.5016   19.9601 H   0  0  0  0  0  0
  -29.7959  -11.7311   17.5235 H   0  0  0  0  0  0
  -29.6281  -13.4592   17.7102 H   0  0  0  0  0  0
  -27.9024  -11.2794   18.9234 H   0  0  0  0  0  0
  -27.3772  -12.5077   17.8029 H   0  0  0  0  0  0
  -27.6302  -14.2518   19.4585 H   0  0  0  0  0  0
  -28.7333  -12.1868   21.4254 H   0  0  0  0  0  0
  -28.4211  -13.8667   21.7858 H   0  0  0  0  0  0
  -25.2767   -9.5682   22.4762 H   0  0  0  0  0  0
  -24.0004   -7.4634   22.7474 H   0  0  0  0  0  0
  -21.0847   -8.8777   19.8952 H   0  0  0  0  0  0
  -22.3705  -10.9674   19.6167 H   0  0  0  0  0  0
  -21.2008   -7.6148   23.9715 H   0  0  0  0  0  0
  -21.1481   -6.0523   25.9077 H   0  0  0  0  0  0
  -22.0598   -2.7609   23.2846 H   0  0  0  0  0  0
  -22.4092  -11.9871   22.4815 H   0  0  0  0  0  0
  -21.1086  -13.1226   22.2630 H   0  0  0  0  0  0
  -24.6476  -15.8426   20.5175 H   0  0  0  0  0  0
  -26.2593  -15.6326   20.0600 H   0  0  0  0  0  0
  -26.7246  -32.5384   23.1085 H   0  0  0  0  0  0
  -25.0111  -33.9690   25.0408 H   0  0  0  0  0  0
  -22.7325  -31.3077   21.4042 H   0  0  0  0  0  0
  -23.3756  -35.9609   23.3301 H   0  0  0  0  0  0
  -24.3580  -36.8901   22.2053 H   0  0  0  0  0  0
  -23.7245  -37.6478   23.6665 H   0  0  0  0  0  0
  -26.1397  -31.5166   20.6255 H   0  0  0  0  0  0
  -26.8618  -30.7952   22.0302 H   0  0  0  0  0  0
  -28.1201  -28.8621   21.2300 H   0  0  0  0  0  0
  -25.8595  -25.9571   18.9274 H   0  0  0  0  0  0
  -23.9580  -27.3628   18.9662 H   0  0  0  0  0  0
  -23.7855  -30.6127   19.4113 H   0  0  0  0  0  0
  -22.7700  -29.2718   19.8466 H   0  0  0  0  0  0
  -25.1303  -36.1910   25.0816 H   0  0  0  0  0  0
  -21.0003  -28.3292   24.1370 H   0  0  0  0  0  0
  -20.5694  -26.2323   23.3608 H   0  0  0  0  0  0
  -21.6655  -26.7446   22.1188 H   0  0  0  0  0  0
  -19.6922  -25.6292   21.1247 H   0  0  0  0  0  0
  -19.6692  -27.3187   20.6732 H   0  0  0  0  0  0
  -17.4209  -26.6673   21.4032 H   0  0  0  0  0  0
  -18.0348  -26.0077   22.9027 H   0  0  0  0  0  0
  -19.7948  -30.7288   24.2245 H   0  0  0  0  0  0
  -17.5023  -31.6268   24.5165 H   0  0  0  0  0  0
  -15.5361  -30.2981   23.7666 H   0  0  0  0  0  0
  -15.8686  -28.0815   22.7080 H   0  0  0  0  0  0
  -24.5912  -30.7084   25.7780 H   0  0  0  0  0  0
  -24.8903  -32.2920   26.4843 H   0  0  0  0  0  0
  -25.8025  -30.8950   27.0256 H   0  0  0  0  0  0
  -26.2982  -29.6729   24.1273 H   0  0  0  0  0  0
  -27.3997  -29.7263   25.4830 H   0  0  0  0  0  0
  -27.8890  -30.4242   23.9585 H   0  0  0  0  0  0
  -27.2665  -33.3641   26.2080 H   0  0  0  0  0  0
  -28.3891  -32.6878   25.0371 H   0  0  0  0  0  0
  -28.0716  -31.8476   26.5470 H   0  0  0  0  0  0
  -28.2597  -38.0095   24.7507 H   0  0  0  0  0  0
  -28.1073  -36.2625   24.6303 H   0  0  0  0  0  0
  -27.2293  -37.1460   25.8869 H   0  0  0  0  0  0
  -20.9425  -29.8797   21.6853 H   0  0  0  0  0  0
  -26.0168  -38.2840   24.1402 H   0  0  0  0  0  0
  -28.2534  -22.4492   22.0326 H   0  0  0  0  0  0
  -26.9169  -24.6436   20.5745 H   0  0  0  0  0  0
  -27.5006  -24.7404   18.9318 H   0  0  0  0  0  0
  -28.4809  -18.3519   20.0795 H   0  0  0  0  0  0
  -29.9243  -18.7840   19.2199 H   0  0  0  0  0  0
  -30.2242  -17.5000   21.9955 H   0  0  0  0  0  0
  -31.3575  -17.4521   20.6946 H   0  0  0  0  0  0
  -29.2042  -19.8941   21.9221 H   0  0  0  0  0  0
  -28.8749  -15.7344   20.8203 H   0  0  0  0  0  0
  1 25  1  0  0  0
  1 30  2  0  0  0
  1 79  1  0  0  0
  2  3  1  0  0  0
  2 25  1  0  0  0
  2 81  1  0  0  0
  2 82  1  0  0  0
  3  4  1  0  0  0
  3 83  1  0  0  0
  3 84  1  0  0  0
  4  5  1  0  0  0
  4 85  1  0  0  0
  4 86  1  0  0  0
  5  6  1  0  0  0
  5 26  1  0  0  0
  5 87  1  0  0  0
  6 25  1  0  0  0
  6 88  1  0  0  0
  6 89  1  0  0  0
  7  8  2  0  0  0
  7 26  1  0  0  0
  7 29  1  0  0  0
  8  9  1  0  0  0
  8 22  1  0  0  0
  9 10  1  0  0  0
  9 27  2  0  0  0
 10 11  2  0  0  0
 10 15  1  0  0  0
 11 12  1  0  0  0
 11 90  1  0  0  0
 12 13  2  0  0  0
 12 91  1  0  0  0
 13 14  1  0  0  0
 13 31  1  0  0  0
 14 15  2  0  0  0
 14 92  1  0  0  0
 15 93  1  0  0  0
 16 17  2  0  0  0
 16 21  1  0  0  0
 16 31  1  0  0  0
 17 18  1  0  0  0
 17 94  1  0  0  0
 18 19  2  0  0  0
 18 95  1  0  0  0
 19 20  1  0  0  0
 19 24  1  0  0  0
 20 21  2  0  0  0
 20 96  1  0  0  0
 21 23  1  0  0  0
 22 28  1  0  0  0
 22 32  2  0  0  0
 26 27  1  0  0  0
 28 97  1  0  0  0
 28 98  1  0  0  0
 29 99  1  0  0  0
 29100  1  0  0  0
 33 34  1  0  0  0
 33 66  1  0  0  0
 33 70  2  0  0  0
 34 36  1  0  0  0
 34 59  1  0  0  0
 34101  1  0  0  0
 35 44  2  0  0  0
 35 45  1  0  0  0
 35 68  1  0  0  0
 36 56  1  0  0  0
 36102  1  0  0  0
 37 39  1  0  0  0
 37 47  1  0  0  0
 37 66  1  0  0  0
 37103  1  0  0  0
 38 43  2  0  0  0
 38 46  1  0  0  0
 38 47  1  0  0  0
 39 64  1  0  0  0
 39 67  2  0  0  0
 40 52  1  0  0  0
 40 53  2  0  0  0
 40 58  1  0  0  0
 41104  1  0  0  0
 41105  1  0  0  0
 41106  1  0  0  0
 41 48  1  0  0  0
 42 43  1  0  0  0
 42 66  1  0  0  0
 42107  1  0  0  0
 42108  1  0  0  0
 43 44  1  0  0  0
 44109  1  0  0  0
 45 46  2  0  0  0
 45110  1  0  0  0
 46111  1  0  0  0
 47112  1  0  0  0
 47113  1  0  0  0
 48 56  1  0  0  0
 48 65  1  0  0  0
 48114  1  0  0  0
 49 50  1  0  0  0
 49 53  1  0  0  0
 49 64  1  0  0  0
 49115  1  0  0  0
 50 51  1  0  0  0
 50116  1  0  0  0
 50117  1  0  0  0
 51 52  1  0  0  0
 51118  1  0  0  0
 51119  1  0  0  0
 52120  1  0  0  0
 52121  1  0  0  0
 53 54  1  0  0  0
 54 55  2  0  0  0
 54122  1  0  0  0
 55 57  1  0  0  0
 55123  1  0  0  0
 56 69  2  0  0  0
 57 58  2  0  0  0
 57124  1  0  0  0
 58125  1  0  0  0
 59 60  1  0  0  0
 59 61  1  0  0  0
 59 62  1  0  0  0
 60126  1  0  0  0
 60127  1  0  0  0
 60128  1  0  0  0
 61129  1  0  0  0
 61130  1  0  0  0
 61131  1  0  0  0
 62132  1  0  0  0
 62133  1  0  0  0
 62134  1  0  0  0
 63 65  1  0  0  0
 63135  1  0  0  0
 63136  1  0  0  0
 63137  1  0  0  0
 64138  1  0  0  0
 65139  1  0  0  0
 68 74  1  0  0  0
 71 72  2  0  0  0
 71 73  1  0  0  0
 71140  1  0  0  0
 72 74  1  0  0  0
 72 80  1  0  0  0
 73 77  2  0  0  0
 73 78  1  0  0  0
 74141  1  0  0  0
 74142  1  0  0  0
 75 76  1  0  0  0
 75 78  1  0  0  0
 75143  1  0  0  0
 75144  1  0  0  0
 76 79  1  0  0  0
 76145  1  0  0  0
 76146  1  0  0  0
 77 80  1  0  0  0
 78147  1  0  0  0
 79148  1  0  0  0
M  ISO  4   1 100  68 101  74 101  79 100
M  END
> <chiral flag>
0

> <version>
0

> <s_m_source_file>
/data/baiqing/PycharmProjects/Reinvent-master-3.2/result/LINK_invent/BTK/process_docking_weight1_custom_sum_contain_oxygen_bond_distance_aromatic_linkinvent_7_9_3/rearranged_h_0130.sdf

> <i_m_source_file_index>
99

> <r_mmod_Potential_Energy-OPLS-2005>
55.9462394714355

> <r_mmod_Stretch_Energy-OPLS-2005>
129.221374511719

> <r_mmod_Bend_Energy-OPLS-2005>
207.462356567383

> <r_mmod_Torsional_Energy-OPLS-2005>
217.6396484375

> <r_mmod_Improper_Torsional_Energy-OPLS-2005>
9.7079906463623

> <r_mmod_Van_der_Waal_Energy-OPLS-2005>
128.597366333008

> <r_mmod_Electrostatic_Energy-OPLS-2005>
-494.655609130859

> <r_mmod_Solvation_Energy-OPLS-2005>
-250.740005493164

> <b_mmod_Minimization_Converged-OPLS-2005>
0

> <r_mmod_RMS_Derivative-OPLS-2005>
0.0547844171524048

$$$$
99
                    3D
 Structure written by MMmdl.
166175  0  0  1  0            999 V2000
  -30.6626  -14.5407   20.5481 C   0  0  0  0  0  0
  -30.4352  -12.3382   19.4405 C   0  0  0  0  0  0
  -29.5069  -12.5071   18.2180 C   0  0  0  0  0  0
  -28.0256  -12.3663   18.6236 C   0  0  0  0  0  0
  -27.6624  -13.2095   19.8754 C   0  0  2  0  0  0
  -28.7049  -13.0067   20.9991 C   0  0  0  0  0  0
  -25.2582  -13.8150   20.5660 C   0  0  0  0  0  0
  -24.1848  -13.0430   20.9193 C   0  0  0  0  0  0
  -24.6408  -11.6901   20.8745 C   0  0  0  0  0  0
  -23.9070  -10.4287   21.0410 C   0  0  0  0  0  0
  -24.3619   -9.4203   21.9184 C   0  0  0  0  0  0
  -23.6288   -8.2241   22.0755 C   0  0  0  0  0  0
  -22.4270   -8.0286   21.3542 C   0  0  0  0  0  0
  -21.9904   -9.0261   20.4646 C   0  0  0  0  0  0
  -22.7239  -10.2136   20.3057 C   0  0  0  0  0  0
  -21.6858   -6.0738   22.5275 C   0  0  0  0  0  0
  -21.4024   -6.5644   23.8211 C   0  0  0  0  0  0
  -21.3653   -5.6787   24.9172 C   0  0  0  0  0  0
  -21.6038   -4.3052   24.7217 C   0  0  0  0  0  0
  -21.8822   -3.8147   23.4340 C   0  0  0  0  0  0
  -21.9195   -4.6964   22.3393 C   0  0  0  0  0  0
  -22.7869  -13.5234   21.1841 C   0  0  0  0  0  0
  -22.1665   -4.2155   21.0970 F   0  0  0  0  0  0
  -21.5613   -3.4533   25.7725 F   0  0  0  0  0  0
  -30.0328  -13.3326   20.4497 N   0  0  0  0  0  0
  -26.3030  -12.9331   20.3351 N   0  0  0  0  0  0
  -25.9340  -11.6493   20.5782 N   0  0  0  0  0  0
  -22.0500  -12.8240   22.0395 N   0  0  0  0  0  0
  -25.4253  -15.1860   20.3983 N   0  0  0  0  0  0
  -31.7992  -14.7319   20.1060 O   0  0  0  0  0  0
  -21.6636   -6.8881   21.4240 O   0  0  0  0  0  0
  -22.3556  -14.5534   20.6671 O   0  0  0  0  0  0
  -24.6179  -31.8644   23.2060 C   0  0  0  0  0  0
  -25.9059  -32.4797   23.8373 C   0  0  1  0  0  0
  -27.2410  -27.3895   20.1059 C   0  0  0  0  0  0
  -25.5910  -33.8595   24.2309 N   0  0  0  0  0  0
  -23.4089  -30.4862   21.5457 C   0  0  2  0  0  0
  -24.8566  -28.9437   20.1124 C   0  0  0  0  0  0
  -22.7424  -29.4641   22.4950 C   0  0  0  0  0  0
  -18.0284  -28.1379   22.8481 C   0  0  0  0  0  0
  -24.1485  -36.7296   23.2637 C   0  0  0  0  0  0
  -25.9412  -30.8152   21.3665 C   0  0  0  0  0  0
  -26.0169  -29.4460   20.7130 C   0  0  0  0  0  0
  -27.2069  -28.6761   20.7054 C   0  0  0  0  0  0
  -26.0579  -26.9117   19.4957 C   0  0  0  0  0  0
  -24.8744  -27.6779   19.5009 C   0  0  0  0  0  0
  -23.6203  -29.8162   20.1610 C   0  0  0  0  0  0
  -25.4108  -36.3092   24.0333 C   0  0  1  0  0  0
  -20.5873  -28.3675   23.1291 C   0  0  2  0  0  0
  -20.6771  -26.9407   22.5409 C   0  0  0  0  0  0
  -19.5753  -26.6385   21.5202 C   0  0  0  0  0  0
  -18.1932  -26.7927   22.1612 C   0  0  0  0  0  0
  -19.1531  -28.8845   23.2887 C   0  0  0  0  0  0
  -18.9461  -30.1442   23.8909 C   0  0  0  0  0  0
  -17.6463  -30.6579   24.0568 C   0  0  0  0  0  0
  -25.9040  -34.9461   23.5118 C   0  0  0  0  0  0
  -16.5353  -29.9082   23.6325 C   0  0  0  0  0  0
  -16.7272  -28.6502   23.0345 C   0  0  0  0  0  0
  -26.4480  -31.6585   25.0715 C   0  0  0  0  0  0
  -25.3746  -31.3710   26.1466 C   0  0  0  0  0  0
  -27.0309  -30.3019   24.6114 C   0  0  0  0  0  0
  -27.6059  -32.4308   25.7469 C   0  0  0  0  0  0
  -27.5578  -37.1805   24.8463 C   0  0  0  0  0  0
  -21.4152  -29.3033   22.3685 N   0  0  0  0  0  0
  -26.4295  -37.3780   23.9400 N   0  0  0  0  0  0
  -24.6740  -31.0708   22.0974 N   0  0  0  0  0  0
  -23.4174  -28.8199   23.3022 O   0  0  0  0  0  0
  -28.4231  -26.6579   20.1500 O   0  0  0  0  0  0
  -26.5604  -34.8918   22.4681 O   0  0  0  0  0  0
  -23.5361  -32.1418   23.7426 O   0  0  0  0  0  0
  -30.9960  -17.7808   20.6666 C   0  0  0  0  0  0
  -28.6325  -17.4912   20.2916 C   0  0  0  0  0  0
  -30.8955  -19.1411   20.2558 C   0  0  0  0  0  0
  -28.5172  -18.8307   19.8413 C   0  0  0  0  0  0
  -29.6566  -19.6860   19.7945 C   0  0  0  0  0  0
  -29.8703  -16.9267   20.6601 C   0  0  0  0  0  0
  -29.9867  -24.8838   19.6101 C   0  0  0  0  0  0
  -27.8643  -24.2234   20.6124 C   0  0  0  0  0  0
  -30.1845  -23.4493   19.0532 C   0  0  0  0  0  0
  -28.0495  -22.7642   20.0793 C   0  0  0  0  0  0
  -28.5036  -25.2839   19.6846 C   0  0  1  0  0  0
  -32.1668  -19.9764   20.2725 C   0  0  0  0  0  0
  -27.1527  -19.2830   19.3430 C   0  0  0  0  0  0
  -29.6037  -21.0587   19.0495 C   0  0  0  0  0  0
  -29.9006  -15.5407   21.0531 N   0  0  0  0  0  0
  -29.4670  -22.3650   19.7992 N   0  3  1  0  0  0
  -31.4790  -12.4511   19.1414 H   0  0  0  0  0  0
  -30.3520  -11.3315   19.8529 H   0  0  0  0  0  0
  -29.7551  -11.7715   17.4514 H   0  0  0  0  0  0
  -29.6717  -13.4867   17.7666 H   0  0  0  0  0  0
  -27.8340  -11.3107   18.8203 H   0  0  0  0  0  0
  -27.3815  -12.6396   17.7876 H   0  0  0  0  0  0
  -27.7000  -14.2556   19.5717 H   0  0  0  0  0  0
  -28.6942  -11.9718   21.3437 H   0  0  0  0  0  0
  -28.4588  -13.6054   21.8776 H   0  0  0  0  0  0
  -25.2775   -9.5670   22.4755 H   0  0  0  0  0  0
  -23.9994   -7.4634   22.7471 H   0  0  0  0  0  0
  -21.0832   -8.8782   19.8955 H   0  0  0  0  0  0
  -22.3703  -10.9676   19.6161 H   0  0  0  0  0  0
  -21.2035   -7.6150   23.9719 H   0  0  0  0  0  0
  -21.1462   -6.0516   25.9071 H   0  0  0  0  0  0
  -22.0608   -2.7608   23.2837 H   0  0  0  0  0  0
  -22.4107  -11.9901   22.4794 H   0  0  0  0  0  0
  -21.1118  -13.1278   22.2592 H   0  0  0  0  0  0
  -24.6455  -15.8301   20.4765 H   0  0  0  0  0  0
  -26.2426  -15.6022   19.9750 H   0  0  0  0  0  0
  -26.7128  -32.5495   23.1130 H   0  0  0  0  0  0
  -25.0072  -33.9754   25.0464 H   0  0  0  0  0  0
  -22.6994  -31.3040   21.4036 H   0  0  0  0  0  0
  -23.3742  -35.9635   23.3315 H   0  0  0  0  0  0
  -24.3576  -36.8894   22.2049 H   0  0  0  0  0  0
  -23.7242  -37.6506   23.6644 H   0  0  0  0  0  0
  -26.0629  -31.5798   20.5977 H   0  0  0  0  0  0
  -26.8253  -30.8662   21.9906 H   0  0  0  0  0  0
  -28.1010  -29.0607   21.1763 H   0  0  0  0  0  0
  -26.0245  -25.9446   19.0169 H   0  0  0  0  0  0
  -23.9814  -27.2856   19.0332 H   0  0  0  0  0  0
  -23.7311  -30.5916   19.4018 H   0  0  0  0  0  0
  -22.7429  -29.2388   19.8643 H   0  0  0  0  0  0
  -25.1283  -36.1959   25.0826 H   0  0  0  0  0  0
  -20.9971  -28.3258   24.1408 H   0  0  0  0  0  0
  -20.5657  -26.2290   23.3602 H   0  0  0  0  0  0
  -21.6644  -26.7433   22.1214 H   0  0  0  0  0  0
  -19.6918  -25.6299   21.1220 H   0  0  0  0  0  0
  -19.6693  -27.3200   20.6736 H   0  0  0  0  0  0
  -17.4200  -26.6668   21.4017 H   0  0  0  0  0  0
  -18.0339  -26.0064   22.9002 H   0  0  0  0  0  0
  -19.7938  -30.7255   24.2278 H   0  0  0  0  0  0
  -17.5019  -31.6255   24.5173 H   0  0  0  0  0  0
  -15.5355  -30.2993   23.7634 H   0  0  0  0  0  0
  -15.8672  -28.0820   22.7057 H   0  0  0  0  0  0
  -24.5899  -30.7078   25.7807 H   0  0  0  0  0  0
  -24.8967  -32.2876   26.4934 H   0  0  0  0  0  0
  -25.8094  -30.8861   27.0213 H   0  0  0  0  0  0
  -26.2857  -29.6776   24.1172 H   0  0  0  0  0  0
  -27.4069  -29.7261   25.4579 H   0  0  0  0  0  0
  -27.8696  -30.4324   23.9273 H   0  0  0  0  0  0
  -27.2687  -33.3605   26.2061 H   0  0  0  0  0  0
  -28.3856  -32.6868   25.0284 H   0  0  0  0  0  0
  -28.0740  -31.8424   26.5368 H   0  0  0  0  0  0
  -28.2606  -38.0094   24.7494 H   0  0  0  0  0  0
  -28.1063  -36.2620   24.6304 H   0  0  0  0  0  0
  -27.2293  -37.1475   25.8868 H   0  0  0  0  0  0
  -20.9318  -29.8754   21.6904 H   0  0  0  0  0  0
  -26.0176  -38.2854   24.1405 H   0  0  0  0  0  0
  -31.9541  -17.3863   20.9771 H   0  0  0  0  0  0
  -27.7528  -16.8654   20.3027 H   0  0  0  0  0  0
  -30.5223  -25.5901   18.9746 H   0  0  0  0  0  0
  -30.4457  -24.9640   20.5966 H   0  0  0  0  0  0
  -28.2954  -24.3021   21.6112 H   0  0  0  0  0  0
  -26.8007  -24.4251   20.7343 H   0  0  0  0  0  0
  -31.2516  -23.2238   19.0359 H   0  0  0  0  0  0
  -29.8530  -23.4397   18.0131 H   0  0  0  0  0  0
  -27.4619  -22.6604   19.1657 H   0  0  0  0  0  0
  -27.6274  -22.0683   20.8040 H   0  0  0  0  0  0
  -28.0828  -25.2160   18.6803 H   0  0  0  0  0  0
  -32.9251  -19.5216   20.9114 H   0  0  0  0  0  0
  -31.9823  -20.9765   20.6641 H   0  0  0  0  0  0
  -32.5887  -20.0636   19.2705 H   0  0  0  0  0  0
  -26.3810  -18.5459   19.5694 H   0  0  0  0  0  0
  -27.1618  -19.4209   18.2615 H   0  0  0  0  0  0
  -26.8441  -20.2133   19.8117 H   0  0  0  0  0  0
  -28.8457  -21.0246   18.2676 H   0  0  0  0  0  0
  -30.5281  -21.0938   18.4727 H   0  0  0  0  0  0
  -29.0288  -15.1934   21.4228 H   0  0  0  0  0  0
  -29.9363  -22.2486   20.6852 H   0  0  0  0  0  0
  1 25  1  0  0  0
  1 30  2  0  0  0
  1 85  1  0  0  0
  2  3  1  0  0  0
  2 25  1  0  0  0
  2 87  1  0  0  0
  2 88  1  0  0  0
  3  4  1  0  0  0
  3 89  1  0  0  0
  3 90  1  0  0  0
  4  5  1  0  0  0
  4 91  1  0  0  0
  4 92  1  0  0  0
  5  6  1  0  0  0
  5 26  1  0  0  0
  5 93  1  0  0  0
  6 25  1  0  0  0
  6 94  1  0  0  0
  6 95  1  0  0  0
  7  8  2  0  0  0
  7 26  1  0  0  0
  7 29  1  0  0  0
  8  9  1  0  0  0
  8 22  1  0  0  0
  9 10  1  0  0  0
  9 27  2  0  0  0
 10 11  2  0  0  0
 10 15  1  0  0  0
 11 12  1  0  0  0
 11 96  1  0  0  0
 12 13  2  0  0  0
 12 97  1  0  0  0
 13 14  1  0  0  0
 13 31  1  0  0  0
 14 15  2  0  0  0
 14 98  1  0  0  0
 15 99  1  0  0  0
 16 17  2  0  0  0
 16 21  1  0  0  0
 16 31  1  0  0  0
 17 18  1  0  0  0
 17100  1  0  0  0
 18 19  2  0  0  0
 18101  1  0  0  0
 19 20  1  0  0  0
 19 24  1  0  0  0
 20 21  2  0  0  0
 20102  1  0  0  0
 21 23  1  0  0  0
 22 28  1  0  0  0
 22 32  2  0  0  0
 26 27  1  0  0  0
 28103  1  0  0  0
 28104  1  0  0  0
 29105  1  0  0  0
 29106  1  0  0  0
 33 34  1  0  0  0
 33 66  1  0  0  0
 33 70  2  0  0  0
 34 36  1  0  0  0
 34 59  1  0  0  0
 34107  1  0  0  0
 35 44  2  0  0  0
 35 45  1  0  0  0
 35 68  1  0  0  0
 36 56  1  0  0  0
 36108  1  0  0  0
 37 39  1  0  0  0
 37 47  1  0  0  0
 37 66  1  0  0  0
 37109  1  0  0  0
 38 43  2  0  0  0
 38 46  1  0  0  0
 38 47  1  0  0  0
 39 64  1  0  0  0
 39 67  2  0  0  0
 40 52  1  0  0  0
 40 53  2  0  0  0
 40 58  1  0  0  0
 41110  1  0  0  0
 41111  1  0  0  0
 41112  1  0  0  0
 41 48  1  0  0  0
 42 43  1  0  0  0
 42 66  1  0  0  0
 42113  1  0  0  0
 42114  1  0  0  0
 43 44  1  0  0  0
 44115  1  0  0  0
 45 46  2  0  0  0
 45116  1  0  0  0
 46117  1  0  0  0
 47118  1  0  0  0
 47119  1  0  0  0
 48 56  1  0  0  0
 48 65  1  0  0  0
 48120  1  0  0  0
 49 50  1  0  0  0
 49 53  1  0  0  0
 49 64  1  0  0  0
 49121  1  0  0  0
 50 51  1  0  0  0
 50122  1  0  0  0
 50123  1  0  0  0
 51 52  1  0  0  0
 51124  1  0  0  0
 51125  1  0  0  0
 52126  1  0  0  0
 52127  1  0  0  0
 53 54  1  0  0  0
 54 55  2  0  0  0
 54128  1  0  0  0
 55 57  1  0  0  0
 55129  1  0  0  0
 56 69  2  0  0  0
 57 58  2  0  0  0
 57130  1  0  0  0
 58131  1  0  0  0
 59 60  1  0  0  0
 59 61  1  0  0  0
 59 62  1  0  0  0
 60132  1  0  0  0
 60133  1  0  0  0
 60134  1  0  0  0
 61135  1  0  0  0
 61136  1  0  0  0
 61137  1  0  0  0
 62138  1  0  0  0
 62139  1  0  0  0
 62140  1  0  0  0
 63 65  1  0  0  0
 63141  1  0  0  0
 63142  1  0  0  0
 63143  1  0  0  0
 64144  1  0  0  0
 65145  1  0  0  0
 68 81  1  0  0  0
 71 73  2  0  0  0
 71 76  1  0  0  0
 71146  1  0  0  0
 72 74  1  0  0  0
 72 76  2  0  0  0
 72147  1  0  0  0
 73 75  1  0  0  0
 73 82  1  0  0  0
 74 75  2  0  0  0
 74 83  1  0  0  0
 75 84  1  0  0  0
 76 85  1  0  0  0
 77 79  1  0  0  0
 77 81  1  0  0  0
 77148  1  0  0  0
 77149  1  0  0  0
 78 80  1  0  0  0
 78 81  1  0  0  0
 78150  1  0  0  0
 78151  1  0  0  0
 79 86  1  0  0  0
 79152  1  0  0  0
 79153  1  0  0  0
 80 86  1  0  0  0
 80154  1  0  0  0
 80155  1  0  0  0
 81156  1  0  0  0
 82157  1  0  0  0
 82158  1  0  0  0
 82159  1  0  0  0
 83160  1  0  0  0
 83161  1  0  0  0
 83162  1  0  0  0
 84163  1  0  0  0
 84164  1  0  0  0
 84 86  1  0  0  0
 85165  1  0  0  0
 86166  1  0  0  0
M  CHG  1  86   1
M  ISO  4   1 100  68 101  81 101  85 100
M  END
> <chiral flag>
0

> <version>
0

> <s_m_source_file>
/data/baiqing/PycharmProjects/Reinvent-master-3.2/result/LINK_invent/BTK/process_docking_weight1_custom_sum_contain_oxygen_bond_distance_aromatic_linkinvent_7_9_3/rearranged_h_0130.sdf

> <i_m_source_file_index>
100

> <r_mmod_Potential_Energy-OPLS-2005>
-104.782859802246

> <r_mmod_Stretch_Energy-OPLS-2005>
54.9197769165039

> <r_mmod_Bend_Energy-OPLS-2005>
132.860885620117

> <r_mmod_Torsional_Energy-OPLS-2005>
246.164855957031

> <r_mmod_Improper_Torsional_Energy-OPLS-2005>
6.78984022140503

> <r_mmod_Van_der_Waal_Energy-OPLS-2005>
148.326187133789

> <r_mmod_Electrostatic_Energy-OPLS-2005>
-272.454040527344

> <r_mmod_Solvation_Energy-OPLS-2005>
-442.904205322266

> <b_mmod_Minimization_Converged-OPLS-2005>
0

> <r_mmod_RMS_Derivative-OPLS-2005>
1.43103468418121

$$$$
