0
                    3D
 Structure written by MMmdl.
151159  0  0  1  0            999 V2000
  -30.6283  -14.7485   20.4499 C   0  0  0  0  0  0
  -30.4235  -12.4541   19.4798 C   0  0  0  0  0  0
  -29.5065  -12.5033   18.2385 C   0  0  0  0  0  0
  -28.0315  -12.3331   18.6491 C   0  0  0  0  0  0
  -27.6377  -13.2376   19.8472 C   0  0  2  0  0  0
  -28.6821  -13.1875   20.9839 C   0  0  0  0  0  0
  -25.2483  -13.8216   20.5695 C   0  0  0  0  0  0
  -24.1781  -13.0445   20.9188 C   0  0  0  0  0  0
  -24.6385  -11.6924   20.8744 C   0  0  0  0  0  0
  -23.9067  -10.4291   21.0406 C   0  0  0  0  0  0
  -24.3620   -9.4205   21.9177 C   0  0  0  0  0  0
  -23.6292   -8.2245   22.0756 C   0  0  0  0  0  0
  -22.4274   -8.0282   21.3549 C   0  0  0  0  0  0
  -21.9909   -9.0252   20.4647 C   0  0  0  0  0  0
  -22.7242  -10.2127   20.3052 C   0  0  0  0  0  0
  -21.6855   -6.0730   22.5274 C   0  0  0  0  0  0
  -21.4017   -6.5637   23.8206 C   0  0  0  0  0  0
  -21.3656   -5.6792   24.9171 C   0  0  0  0  0  0
  -21.6045   -4.3056   24.7225 C   0  0  0  0  0  0
  -21.8820   -3.8143   23.4348 C   0  0  0  0  0  0
  -21.9193   -4.6955   22.3402 C   0  0  0  0  0  0
  -22.7800  -13.5219   21.1854 C   0  0  0  0  0  0
  -22.1661   -4.2140   21.0978 F   0  0  0  0  0  0
  -21.5626   -3.4541   25.7739 F   0  0  0  0  0  0
  -29.9832  -13.5313   20.3987 N   0  0  0  0  0  0
  -26.2916  -12.9434   20.3281 N   0  0  0  0  0  0
  -25.9317  -11.6570   20.5757 N   0  0  0  0  0  0
  -22.0470  -12.8201   22.0424 N   0  0  0  0  0  0
  -25.4157  -15.1947   20.4135 N   0  0  0  0  0  0
  -31.8199  -14.7930   20.1379 O   0  0  0  0  0  0
  -21.6646   -6.8876   21.4239 O   0  0  0  0  0  0
  -22.3468  -14.5520   20.6701 O   0  0  0  0  0  0
  -24.6294  -31.8535   23.1964 C   0  0  0  0  0  0
  -25.9114  -32.4749   23.8305 C   0  0  1  0  0  0
  -27.2246  -27.2592   20.1242 C   0  0  0  0  0  0
  -25.5893  -33.8547   24.2231 N   0  0  0  0  0  0
  -23.4261  -30.4753   21.5392 C   0  0  2  0  0  0
  -24.8740  -28.9199   20.1043 C   0  0  0  0  0  0
  -22.7494  -29.4591   22.4907 C   0  0  0  0  0  0
  -18.0280  -28.1381   22.8485 C   0  0  0  0  0  0
  -24.1474  -36.7272   23.2650 C   0  0  0  0  0  0
  -25.9705  -30.7645   21.3757 C   0  0  0  0  0  0
  -26.0419  -29.3864   20.7182 C   0  0  0  0  0  0
  -27.2136  -28.5657   20.7213 C   0  0  0  0  0  0
  -26.0295  -26.8529   19.4897 C   0  0  0  0  0  0
  -24.8742  -27.6622   19.4794 C   0  0  0  0  0  0
  -23.6428  -29.8046   20.1556 C   0  0  0  0  0  0
  -25.4101  -36.3064   24.0330 C   0  0  1  0  0  0
  -20.5883  -28.3682   23.1272 C   0  0  2  0  0  0
  -20.6759  -26.9397   22.5417 C   0  0  0  0  0  0
  -19.5734  -26.6358   21.5228 C   0  0  0  0  0  0
  -18.1915  -26.7916   22.1631 C   0  0  0  0  0  0
  -19.1539  -28.8846   23.2871 C   0  0  0  0  0  0
  -18.9471  -30.1446   23.8891 C   0  0  0  0  0  0
  -17.6475  -30.6589   24.0556 C   0  0  0  0  0  0
  -25.9043  -34.9441   23.5096 C   0  0  0  0  0  0
  -16.5362  -29.9089   23.6336 C   0  0  0  0  0  0
  -16.7265  -28.6502   23.0361 C   0  0  0  0  0  0
  -26.4483  -31.6582   25.0697 C   0  0  0  0  0  0
  -25.3702  -31.3734   26.1412 C   0  0  0  0  0  0
  -27.0338  -30.3003   24.6174 C   0  0  0  0  0  0
  -27.6027  -32.4342   25.7469 C   0  0  0  0  0  0
  -27.5569  -37.1777   24.8470 C   0  0  0  0  0  0
  -21.4198  -29.3034   22.3656 N   0  0  0  0  0  0
  -26.4272  -37.3771   23.9428 N   0  0  0  0  0  0
  -24.6949  -31.0491   22.0938 N   0  0  0  0  0  0
  -23.4197  -28.8147   23.3013 O   0  0  0  0  0  0
  -28.3460  -26.4019   20.2137 O   0  0  0  0  0  0
  -26.5657  -34.8926   22.4686 O   0  0  0  0  0  0
  -23.5448  -32.1348   23.7261 O   0  0  0  0  0  0
  -31.5855  -17.7685   20.3568 C   0  0  0  0  0  0
  -29.6196  -19.8698   20.4533 C   0  0  0  0  0  0
  -30.2384  -17.3617   20.5206 C   0  0  0  0  0  0
  -31.9492  -19.1248   20.2334 C   0  0  0  0  0  0
  -29.2708  -18.4529   20.5779 C   0  0  0  0  0  0
  -30.9901  -20.1562   20.2747 C   0  0  0  0  0  0
  -28.3505  -23.7231   20.4745 C   0  0  0  0  0  0
  -28.5805  -21.0804   20.5921 C   0  0  0  0  0  0
  -28.4525  -25.0453   19.5685 C   0  0  0  0  0  0
  -29.8813  -15.9108   20.6425 N   0  0  0  0  0  0
  -28.8174  -22.4909   20.0289 N   0  0  0  0  0  0
  -27.8021  -23.8112   21.5753 O   0  0  0  0  0  0
  -33.2575  -19.4438   20.0852 F   0  0  0  0  0  0
  -27.9705  -18.1233   20.7661 F   0  0  0  0  0  0
  -31.4143  -21.4385   20.1631 F   0  0  0  0  0  0
  -31.4660  -12.5613   19.1769 H   0  0  0  0  0  0
  -30.3579  -11.4828   19.9728 H   0  0  0  0  0  0
  -29.7901  -11.7263   17.5273 H   0  0  0  0  0  0
  -29.6360  -13.4550   17.7207 H   0  0  0  0  0  0
  -27.8817  -11.2848   18.9109 H   0  0  0  0  0  0
  -27.3779  -12.5294   17.7980 H   0  0  0  0  0  0
  -27.6268  -14.2568   19.4597 H   0  0  0  0  0  0
  -28.7152  -12.1968   21.4392 H   0  0  0  0  0  0
  -28.4170  -13.8827   21.7816 H   0  0  0  0  0  0
  -25.2767   -9.5682   22.4746 H   0  0  0  0  0  0
  -23.9997   -7.4641   22.7476 H   0  0  0  0  0  0
  -21.0841   -8.8769   19.8956 H   0  0  0  0  0  0
  -22.3701  -10.9662   19.6157 H   0  0  0  0  0  0
  -21.2016   -7.6144   23.9707 H   0  0  0  0  0  0
  -21.1476   -6.0524   25.9072 H   0  0  0  0  0  0
  -22.0604   -2.7603   23.2852 H   0  0  0  0  0  0
  -22.4105  -11.9859   22.4790 H   0  0  0  0  0  0
  -21.1097  -13.1217   22.2680 H   0  0  0  0  0  0
  -24.6472  -15.8465   20.5291 H   0  0  0  0  0  0
  -26.2682  -15.6449   20.1065 H   0  0  0  0  0  0
  -26.7170  -32.5398   23.1033 H   0  0  0  0  0  0
  -24.9981  -33.9674   25.0336 H   0  0  0  0  0  0
  -22.7224  -31.2975   21.3918 H   0  0  0  0  0  0
  -23.3755  -35.9590   23.3308 H   0  0  0  0  0  0
  -24.3564  -36.8899   22.2069 H   0  0  0  0  0  0
  -23.7200  -37.6455   23.6682 H   0  0  0  0  0  0
  -26.1072  -31.5224   20.6035 H   0  0  0  0  0  0
  -26.8499  -30.8151   22.0059 H   0  0  0  0  0  0
  -28.1043  -28.9175   21.2227 H   0  0  0  0  0  0
  -25.9435  -25.8838   19.0245 H   0  0  0  0  0  0
  -23.9789  -27.2972   18.9957 H   0  0  0  0  0  0
  -23.7607  -30.5788   19.3967 H   0  0  0  0  0  0
  -22.7621  -29.2336   19.8557 H   0  0  0  0  0  0
  -25.1283  -36.1899   25.0821 H   0  0  0  0  0  0
  -20.9979  -28.3257   24.1388 H   0  0  0  0  0  0
  -20.5648  -26.2302   23.3624 H   0  0  0  0  0  0
  -21.6621  -26.7392   22.1219 H   0  0  0  0  0  0
  -19.6899  -25.6272   21.1247 H   0  0  0  0  0  0
  -19.6674  -27.3176   20.6775 H   0  0  0  0  0  0
  -17.4183  -26.6665   21.4036 H   0  0  0  0  0  0
  -18.0306  -26.0058   22.9028 H   0  0  0  0  0  0
  -19.7959  -30.7249   24.2258 H   0  0  0  0  0  0
  -17.5043  -31.6280   24.5144 H   0  0  0  0  0  0
  -15.5365  -30.3001   23.7668 H   0  0  0  0  0  0
  -15.8656  -28.0820   22.7099 H   0  0  0  0  0  0
  -24.5883  -30.7074   25.7738 H   0  0  0  0  0  0
  -24.8891  -32.2913   26.4806 H   0  0  0  0  0  0
  -25.8001  -30.8925   27.0208 H   0  0  0  0  0  0
  -26.2925  -29.6737   24.1201 H   0  0  0  0  0  0
  -27.4048  -29.7257   25.4675 H   0  0  0  0  0  0
  -27.8781  -30.4298   23.9398 H   0  0  0  0  0  0
  -27.2616  -33.3658   26.1997 H   0  0  0  0  0  0
  -28.3847  -32.6873   25.0297 H   0  0  0  0  0  0
  -28.0679  -31.8500   26.5418 H   0  0  0  0  0  0
  -28.2573  -38.0092   24.7539 H   0  0  0  0  0  0
  -28.1070  -36.2616   24.6256 H   0  0  0  0  0  0
  -27.2294  -37.1382   25.8876 H   0  0  0  0  0  0
  -20.9385  -29.8750   21.6854 H   0  0  0  0  0  0
  -26.0145  -38.2833   24.1469 H   0  0  0  0  0  0
  -32.3925  -17.0562   20.3288 H   0  0  0  0  0  0
  -28.3782  -21.1826   21.6593 H   0  0  0  0  0  0
  -27.6413  -20.7320   20.1607 H   0  0  0  0  0  0
  -27.7857  -24.9420   18.7150 H   0  0  0  0  0  0
  -29.4478  -25.0197   19.1247 H   0  0  0  0  0  0
  -28.9055  -15.7412   20.8326 H   0  0  0  0  0  0
  -29.2791  -22.5136   19.1300 H   0  0  0  0  0  0
  1 25  1  0  0  0
  1 30  2  0  0  0
  1 80  1  0  0  0
  2  3  1  0  0  0
  2 25  1  0  0  0
  2 86  1  0  0  0
  2 87  1  0  0  0
  3  4  1  0  0  0
  3 88  1  0  0  0
  3 89  1  0  0  0
  4  5  1  0  0  0
  4 90  1  0  0  0
  4 91  1  0  0  0
  5  6  1  0  0  0
  5 26  1  0  0  0
  5 92  1  0  0  0
  6 25  1  0  0  0
  6 93  1  0  0  0
  6 94  1  0  0  0
  7  8  2  0  0  0
  7 26  1  0  0  0
  7 29  1  0  0  0
  8  9  1  0  0  0
  8 22  1  0  0  0
  9 10  1  0  0  0
  9 27  2  0  0  0
 10 11  2  0  0  0
 10 15  1  0  0  0
 11 12  1  0  0  0
 11 95  1  0  0  0
 12 13  2  0  0  0
 12 96  1  0  0  0
 13 14  1  0  0  0
 13 31  1  0  0  0
 14 15  2  0  0  0
 14 97  1  0  0  0
 15 98  1  0  0  0
 16 17  2  0  0  0
 16 21  1  0  0  0
 16 31  1  0  0  0
 17 18  1  0  0  0
 17 99  1  0  0  0
 18 19  2  0  0  0
 18100  1  0  0  0
 19 20  1  0  0  0
 19 24  1  0  0  0
 20 21  2  0  0  0
 20101  1  0  0  0
 21 23  1  0  0  0
 22 28  1  0  0  0
 22 32  2  0  0  0
 26 27  1  0  0  0
 28102  1  0  0  0
 28103  1  0  0  0
 29104  1  0  0  0
 29105  1  0  0  0
 33 34  1  0  0  0
 33 66  1  0  0  0
 33 70  2  0  0  0
 34 36  1  0  0  0
 34 59  1  0  0  0
 34106  1  0  0  0
 35 44  2  0  0  0
 35 45  1  0  0  0
 35 68  1  0  0  0
 36 56  1  0  0  0
 36107  1  0  0  0
 37 39  1  0  0  0
 37 47  1  0  0  0
 37 66  1  0  0  0
 37108  1  0  0  0
 38 43  2  0  0  0
 38 46  1  0  0  0
 38 47  1  0  0  0
 39 64  1  0  0  0
 39 67  2  0  0  0
 40 52  1  0  0  0
 40 53  2  0  0  0
 40 58  1  0  0  0
 41109  1  0  0  0
 41110  1  0  0  0
 41111  1  0  0  0
 41 48  1  0  0  0
 42 43  1  0  0  0
 42 66  1  0  0  0
 42112  1  0  0  0
 42113  1  0  0  0
 43 44  1  0  0  0
 44114  1  0  0  0
 45 46  2  0  0  0
 45115  1  0  0  0
 46116  1  0  0  0
 47117  1  0  0  0
 47118  1  0  0  0
 48 56  1  0  0  0
 48 65  1  0  0  0
 48119  1  0  0  0
 49 50  1  0  0  0
 49 53  1  0  0  0
 49 64  1  0  0  0
 49120  1  0  0  0
 50 51  1  0  0  0
 50121  1  0  0  0
 50122  1  0  0  0
 51 52  1  0  0  0
 51123  1  0  0  0
 51124  1  0  0  0
 52125  1  0  0  0
 52126  1  0  0  0
 53 54  1  0  0  0
 54 55  2  0  0  0
 54127  1  0  0  0
 55 57  1  0  0  0
 55128  1  0  0  0
 56 69  2  0  0  0
 57 58  2  0  0  0
 57129  1  0  0  0
 58130  1  0  0  0
 59 60  1  0  0  0
 59 61  1  0  0  0
 59 62  1  0  0  0
 60131  1  0  0  0
 60132  1  0  0  0
 60133  1  0  0  0
 61134  1  0  0  0
 61135  1  0  0  0
 61136  1  0  0  0
 62137  1  0  0  0
 62138  1  0  0  0
 62139  1  0  0  0
 63 65  1  0  0  0
 63140  1  0  0  0
 63141  1  0  0  0
 63142  1  0  0  0
 64143  1  0  0  0
 65144  1  0  0  0
 68 79  1  0  0  0
 71 73  2  0  0  0
 71 74  1  0  0  0
 71145  1  0  0  0
 72 75  2  0  0  0
 72 76  1  0  0  0
 72 78  1  0  0  0
 73 75  1  0  0  0
 73 80  1  0  0  0
 74 76  2  0  0  0
 74 83  1  0  0  0
 75 84  1  0  0  0
 76 85  1  0  0  0
 77 79  1  0  0  0
 77 81  1  0  0  0
 77 82  2  0  0  0
 78 81  1  0  0  0
 78146  1  0  0  0
 78147  1  0  0  0
 79148  1  0  0  0
 79149  1  0  0  0
 80150  1  0  0  0
 81151  1  0  0  0
M  ISO  4   1 100  68 101  79 101  80 100
M  END
> <chiral flag>
0

> <version>
0

> <s_m_source_file>
/data/baiqing/PycharmProjects/Reinvent-master-3.2/result/LINK_invent/BTK/process_docking_weight1_custom_sum_contain_oxygen_bond_distance_aromatic_linkinvent_7_9_3/rearranged_h_0014.sdf

> <i_m_source_file_index>
1

> <r_mmod_Potential_Energy-OPLS-2005>
80.8640670776367

> <r_mmod_Stretch_Energy-OPLS-2005>
130.315124511719

> <r_mmod_Bend_Energy-OPLS-2005>
174.15461730957

> <r_mmod_Torsional_Energy-OPLS-2005>
202.607803344727

> <r_mmod_Improper_Torsional_Energy-OPLS-2005>
5.12441730499268

> <r_mmod_Van_der_Waal_Energy-OPLS-2005>
141.568725585938

> <r_mmod_Electrostatic_Energy-OPLS-2005>
-424.875030517578

> <r_mmod_Solvation_Energy-OPLS-2005>
-233.174194335938

> <b_mmod_Minimization_Converged-OPLS-2005>
0

> <r_mmod_RMS_Derivative-OPLS-2005>
1.37158119678497

$$$$
1
                    3D
 Structure written by MMmdl.
158165  0  0  1  0            999 V2000
  -30.7381  -14.3971   20.6745 C   0  0  0  0  0  0
  -30.4136  -12.3005   19.4001 C   0  0  0  0  0  0
  -29.4807  -12.5350   18.1958 C   0  0  0  0  0  0
  -28.0022  -12.3918   18.6094 C   0  0  0  0  0  0
  -27.6628  -13.2054   19.8878 C   0  0  2  0  0  0
  -28.7033  -12.9236   20.9932 C   0  0  0  0  0  0
  -25.2574  -13.8164   20.5721 C   0  0  0  0  0  0
  -24.1819  -13.0438   20.9190 C   0  0  0  0  0  0
  -24.6379  -11.6909   20.8747 C   0  0  0  0  0  0
  -23.9054  -10.4294   21.0405 C   0  0  0  0  0  0
  -24.3616   -9.4215   21.9180 C   0  0  0  0  0  0
  -23.6303   -8.2247   22.0749 C   0  0  0  0  0  0
  -22.4283   -8.0274   21.3542 C   0  0  0  0  0  0
  -21.9922   -9.0241   20.4642 C   0  0  0  0  0  0
  -22.7233  -10.2131   20.3057 C   0  0  0  0  0  0
  -21.6840   -6.0753   22.5285 C   0  0  0  0  0  0
  -21.4005   -6.5653   23.8220 C   0  0  0  0  0  0
  -21.3671   -5.6804   24.9182 C   0  0  0  0  0  0
  -21.6048   -4.3064   24.7224 C   0  0  0  0  0  0
  -21.8816   -3.8167   23.4340 C   0  0  0  0  0  0
  -21.9191   -4.6988   22.3403 C   0  0  0  0  0  0
  -22.7838  -13.5228   21.1867 C   0  0  0  0  0  0
  -22.1652   -4.2181   21.0974 F   0  0  0  0  0  0
  -21.5637   -3.4543   25.7735 F   0  0  0  0  0  0
  -30.0347  -13.2512   20.4585 N   0  0  0  0  0  0
  -26.3018  -12.9336   20.3447 N   0  0  0  0  0  0
  -25.9310  -11.6487   20.5800 N   0  0  0  0  0  0
  -22.0490  -12.8203   22.0418 N   0  0  0  0  0  0
  -25.4308  -15.1887   20.4144 N   0  0  0  0  0  0
  -31.8059  -14.6100   20.0858 O   0  0  0  0  0  0
  -21.6635   -6.8885   21.4245 O   0  0  0  0  0  0
  -22.3515  -14.5543   20.6733 O   0  0  0  0  0  0
  -24.6126  -31.8699   23.2122 C   0  0  0  0  0  0
  -25.9030  -32.4828   23.8399 C   0  0  1  0  0  0
  -27.2379  -27.4613   20.0813 C   0  0  0  0  0  0
  -25.5894  -33.8624   24.2334 N   0  0  0  0  0  0
  -23.3975  -30.4943   21.5526 C   0  0  2  0  0  0
  -24.8413  -28.9618   20.1155 C   0  0  0  0  0  0
  -22.7385  -29.4669   22.5008 C   0  0  0  0  0  0
  -18.0268  -28.1374   22.8499 C   0  0  0  0  0  0
  -24.1485  -36.7314   23.2637 C   0  0  0  0  0  0
  -25.9238  -30.8396   21.3636 C   0  0  0  0  0  0
  -25.9993  -29.4771   20.7093 C   0  0  0  0  0  0
  -27.1969  -28.7326   20.6918 C   0  0  0  0  0  0
  -26.0577  -26.9480   19.4930 C   0  0  0  0  0  0
  -24.8646  -27.6945   19.5073 C   0  0  0  0  0  0
  -23.6020  -29.8256   20.1669 C   0  0  0  0  0  0
  -25.4106  -36.3116   24.0338 C   0  0  1  0  0  0
  -20.5853  -28.3649   23.1329 C   0  0  2  0  0  0
  -20.6758  -26.9389   22.5418 C   0  0  0  0  0  0
  -19.5734  -26.6378   21.5213 C   0  0  0  0  0  0
  -18.1913  -26.7925   22.1621 C   0  0  0  0  0  0
  -19.1517  -28.8831   23.2912 C   0  0  0  0  0  0
  -18.9448  -30.1438   23.8918 C   0  0  0  0  0  0
  -17.6449  -30.6579   24.0570 C   0  0  0  0  0  0
  -25.9030  -34.9480   23.5135 C   0  0  0  0  0  0
  -16.5341  -29.9082   23.6330 C   0  0  0  0  0  0
  -16.7259  -28.6500   23.0349 C   0  0  0  0  0  0
  -26.4463  -31.6607   25.0727 C   0  0  0  0  0  0
  -25.3730  -31.3704   26.1478 C   0  0  0  0  0  0
  -27.0298  -30.3052   24.6100 C   0  0  0  0  0  0
  -27.6047  -32.4319   25.7483 C   0  0  0  0  0  0
  -27.5582  -37.1812   24.8464 C   0  0  0  0  0  0
  -21.4119  -29.3029   22.3744 N   0  0  0  0  0  0
  -26.4295  -37.3799   23.9410 N   0  0  0  0  0  0
  -24.6624  -31.0816   22.1011 N   0  0  0  0  0  0
  -23.4172  -28.8211   23.3036 O   0  0  0  0  0  0
  -28.4375  -26.7850   20.0832 O   0  0  0  0  0  0
  -26.5588  -34.8930   22.4693 O   0  0  0  0  0  0
  -23.5330  -32.1445   23.7535 O   0  0  0  0  0  0
  -30.0698  -16.7824   20.8666 C   0  0  0  0  0  0
  -29.8245  -24.8067   20.0133 C   0  0  0  0  0  0
  -32.2757  -17.5886   21.6882 C   0  0  0  0  0  0
  -30.2350  -15.4746   21.6673 C   0  0  0  0  0  0
  -28.4584  -25.4179   19.6716 C   0  0  0  0  0  0
  -31.2097  -21.3472   19.6223 C   0  0  0  0  0  0
  -30.7808  -20.1845   20.5389 C   0  0  0  0  0  0
  -31.1557  -22.7378   20.2829 C   0  0  0  0  0  0
  -31.1069  -18.8181   19.9008 C   0  0  0  0  0  0
  -29.9379  -23.4719   19.9466 N   0  0  0  0  0  0
  -31.0673  -17.7047   20.8614 N   0  0  0  0  0  0
  -29.0222  -16.9466   20.2299 O   0  0  0  0  0  0
  -30.7692  -25.5298   20.3454 O   0  0  0  0  0  0
  -31.4569  -12.3975   19.0955 H   0  0  0  0  0  0
  -30.3127  -11.2770   19.7648 H   0  0  0  0  0  0
  -29.7136  -11.8361   17.3913 H   0  0  0  0  0  0
  -29.6502  -13.5335   17.7903 H   0  0  0  0  0  0
  -27.8039  -11.3328   18.7790 H   0  0  0  0  0  0
  -27.3494  -12.6942   17.7884 H   0  0  0  0  0  0
  -27.7245  -14.2635   19.6308 H   0  0  0  0  0  0
  -28.6761  -11.8659   21.2585 H   0  0  0  0  0  0
  -28.4453  -13.4309   21.9182 H   0  0  0  0  0  0
  -25.2756   -9.5704   22.4756 H   0  0  0  0  0  0
  -24.0021   -7.4645   22.7464 H   0  0  0  0  0  0
  -21.0863   -8.8744   19.8940 H   0  0  0  0  0  0
  -22.3680  -10.9664   19.6168 H   0  0  0  0  0  0
  -21.1980   -7.6158   23.9732 H   0  0  0  0  0  0
  -21.1489   -6.0529   25.9084 H   0  0  0  0  0  0
  -22.0591   -2.7637   23.2823 H   0  0  0  0  0  0
  -22.4100  -11.9857   22.4786 H   0  0  0  0  0  0
  -21.1105  -13.1215   22.2625 H   0  0  0  0  0  0
  -24.6718  -15.8501   20.5356 H   0  0  0  0  0  0
  -26.3018  -15.6317   20.1456 H   0  0  0  0  0  0
  -26.7105  -32.5536   23.1164 H   0  0  0  0  0  0
  -25.0082  -33.9793   25.0506 H   0  0  0  0  0  0
  -22.6860  -31.3110   21.4157 H   0  0  0  0  0  0
  -23.3752  -35.9640   23.3306 H   0  0  0  0  0  0
  -24.3588  -36.8925   22.2050 H   0  0  0  0  0  0
  -23.7222  -37.6516   23.6649 H   0  0  0  0  0  0
  -26.0382  -31.6070   20.5973 H   0  0  0  0  0  0
  -26.8112  -30.8885   21.9826 H   0  0  0  0  0  0
  -28.0931  -29.1323   21.1461 H   0  0  0  0  0  0
  -26.0393  -25.9812   19.0118 H   0  0  0  0  0  0
  -23.9750  -27.2896   19.0447 H   0  0  0  0  0  0
  -23.7032  -30.5999   19.4057 H   0  0  0  0  0  0
  -22.7269  -29.2416   19.8752 H   0  0  0  0  0  0
  -25.1283  -36.1990   25.0831 H   0  0  0  0  0  0
  -20.9951  -28.3210   24.1446 H   0  0  0  0  0  0
  -20.5663  -26.2254   23.3601 H   0  0  0  0  0  0
  -21.6632  -26.7435   22.1207 H   0  0  0  0  0  0
  -19.6894  -25.6291   21.1237 H   0  0  0  0  0  0
  -19.6684  -27.3199   20.6753 H   0  0  0  0  0  0
  -17.4188  -26.6693   21.4016 H   0  0  0  0  0  0
  -18.0301  -26.0051   22.8999 H   0  0  0  0  0  0
  -19.7924  -30.7258   24.2286 H   0  0  0  0  0  0
  -17.5004  -31.6269   24.5151 H   0  0  0  0  0  0
  -15.5344  -30.2988   23.7645 H   0  0  0  0  0  0
  -15.8658  -28.0829   22.7045 H   0  0  0  0  0  0
  -24.5900  -30.7055   25.7812 H   0  0  0  0  0  0
  -24.8922  -32.2859   26.4941 H   0  0  0  0  0  0
  -25.8082  -30.8860   27.0229 H   0  0  0  0  0  0
  -26.2843  -29.6805   24.1162 H   0  0  0  0  0  0
  -27.4088  -29.7294   25.4556 H   0  0  0  0  0  0
  -27.8670  -30.4383   23.9239 H   0  0  0  0  0  0
  -27.2679  -33.3618   26.2076 H   0  0  0  0  0  0
  -28.3843  -32.6875   25.0295 H   0  0  0  0  0  0
  -28.0724  -31.8428   26.5381 H   0  0  0  0  0  0
  -28.2604  -38.0108   24.7528 H   0  0  0  0  0  0
  -28.1080  -36.2645   24.6277 H   0  0  0  0  0  0
  -27.2309  -37.1441   25.8870 H   0  0  0  0  0  0
  -20.9265  -29.8758   21.6983 H   0  0  0  0  0  0
  -26.0192  -38.2883   24.1409 H   0  0  0  0  0  0
  -32.0226  -17.5414   22.7480 H   0  0  0  0  0  0
  -32.9422  -18.4448   21.5696 H   0  0  0  0  0  0
  -32.8490  -16.6994   21.4257 H   0  0  0  0  0  0
  -29.2791  -15.2632   22.1310 H   0  0  0  0  0  0
  -30.9413  -15.5584   22.4904 H   0  0  0  0  0  0
  -27.6871  -24.8484   20.1914 H   0  0  0  0  0  0
  -28.2847  -25.3414   18.5969 H   0  0  0  0  0  0
  -30.6441  -21.3328   18.6895 H   0  0  0  0  0  0
  -32.2466  -21.1721   19.3315 H   0  0  0  0  0  0
  -29.7166  -20.2491   20.7725 H   0  0  0  0  0  0
  -31.3111  -20.2770   21.4882 H   0  0  0  0  0  0
  -32.0226  -23.3093   19.9454 H   0  0  0  0  0  0
  -31.2491  -22.6637   21.3677 H   0  0  0  0  0  0
  -32.1046  -18.8410   19.4601 H   0  0  0  0  0  0
  -30.4384  -18.6447   19.0553 H   0  0  0  0  0  0
  -29.1269  -22.9423   19.6550 H   0  0  0  0  0  0
  1 25  1  0  0  0
  1 30  2  0  0  0
  1 74  1  0  0  0
  2  3  1  0  0  0
  2 25  1  0  0  0
  2 84  1  0  0  0
  2 85  1  0  0  0
  3  4  1  0  0  0
  3 86  1  0  0  0
  3 87  1  0  0  0
  4  5  1  0  0  0
  4 88  1  0  0  0
  4 89  1  0  0  0
  5  6  1  0  0  0
  5 26  1  0  0  0
  5 90  1  0  0  0
  6 25  1  0  0  0
  6 91  1  0  0  0
  6 92  1  0  0  0
  7  8  2  0  0  0
  7 26  1  0  0  0
  7 29  1  0  0  0
  8  9  1  0  0  0
  8 22  1  0  0  0
  9 10  1  0  0  0
  9 27  2  0  0  0
 10 11  2  0  0  0
 10 15  1  0  0  0
 11 12  1  0  0  0
 11 93  1  0  0  0
 12 13  2  0  0  0
 12 94  1  0  0  0
 13 14  1  0  0  0
 13 31  1  0  0  0
 14 15  2  0  0  0
 14 95  1  0  0  0
 15 96  1  0  0  0
 16 17  2  0  0  0
 16 21  1  0  0  0
 16 31  1  0  0  0
 17 18  1  0  0  0
 17 97  1  0  0  0
 18 19  2  0  0  0
 18 98  1  0  0  0
 19 20  1  0  0  0
 19 24  1  0  0  0
 20 21  2  0  0  0
 20 99  1  0  0  0
 21 23  1  0  0  0
 22 28  1  0  0  0
 22 32  2  0  0  0
 26 27  1  0  0  0
 28100  1  0  0  0
 28101  1  0  0  0
 29102  1  0  0  0
 29103  1  0  0  0
 33 34  1  0  0  0
 33 66  1  0  0  0
 33 70  2  0  0  0
 34 36  1  0  0  0
 34 59  1  0  0  0
 34104  1  0  0  0
 35 44  2  0  0  0
 35 45  1  0  0  0
 35 68  1  0  0  0
 36 56  1  0  0  0
 36105  1  0  0  0
 37 39  1  0  0  0
 37 47  1  0  0  0
 37 66  1  0  0  0
 37106  1  0  0  0
 38 43  2  0  0  0
 38 46  1  0  0  0
 38 47  1  0  0  0
 39 64  1  0  0  0
 39 67  2  0  0  0
 40 52  1  0  0  0
 40 53  2  0  0  0
 40 58  1  0  0  0
 41107  1  0  0  0
 41108  1  0  0  0
 41109  1  0  0  0
 41 48  1  0  0  0
 42 43  1  0  0  0
 42 66  1  0  0  0
 42110  1  0  0  0
 42111  1  0  0  0
 43 44  1  0  0  0
 44112  1  0  0  0
 45 46  2  0  0  0
 45113  1  0  0  0
 46114  1  0  0  0
 47115  1  0  0  0
 47116  1  0  0  0
 48 56  1  0  0  0
 48 65  1  0  0  0
 48117  1  0  0  0
 49 50  1  0  0  0
 49 53  1  0  0  0
 49 64  1  0  0  0
 49118  1  0  0  0
 50 51  1  0  0  0
 50119  1  0  0  0
 50120  1  0  0  0
 51 52  1  0  0  0
 51121  1  0  0  0
 51122  1  0  0  0
 52123  1  0  0  0
 52124  1  0  0  0
 53 54  1  0  0  0
 54 55  2  0  0  0
 54125  1  0  0  0
 55 57  1  0  0  0
 55126  1  0  0  0
 56 69  2  0  0  0
 57 58  2  0  0  0
 57127  1  0  0  0
 58128  1  0  0  0
 59 60  1  0  0  0
 59 61  1  0  0  0
 59 62  1  0  0  0
 60129  1  0  0  0
 60130  1  0  0  0
 60131  1  0  0  0
 61132  1  0  0  0
 61133  1  0  0  0
 61134  1  0  0  0
 62135  1  0  0  0
 62136  1  0  0  0
 62137  1  0  0  0
 63 65  1  0  0  0
 63138  1  0  0  0
 63139  1  0  0  0
 63140  1  0  0  0
 64141  1  0  0  0
 65142  1  0  0  0
 68 75  1  0  0  0
 71 74  1  0  0  0
 71 81  1  0  0  0
 71 82  2  0  0  0
 72 75  1  0  0  0
 72 80  1  0  0  0
 72 83  2  0  0  0
 73 81  1  0  0  0
 73143  1  0  0  0
 73144  1  0  0  0
 73145  1  0  0  0
 74146  1  0  0  0
 74147  1  0  0  0
 75148  1  0  0  0
 75149  1  0  0  0
 76 77  1  0  0  0
 76 78  1  0  0  0
 76150  1  0  0  0
 76151  1  0  0  0
 77 79  1  0  0  0
 77152  1  0  0  0
 77153  1  0  0  0
 78 80  1  0  0  0
 78154  1  0  0  0
 78155  1  0  0  0
 79 81  1  0  0  0
 79156  1  0  0  0
 79157  1  0  0  0
 80158  1  0  0  0
M  ISO  4   1 100  68 101  74 100  75 101
M  END
> <chiral flag>
0

> <version>
0

> <s_m_source_file>
/data/baiqing/PycharmProjects/Reinvent-master-3.2/result/LINK_invent/BTK/process_docking_weight1_custom_sum_contain_oxygen_bond_distance_aromatic_linkinvent_7_9_3/rearranged_h_0014.sdf

> <i_m_source_file_index>
2

> <r_mmod_Potential_Energy-OPLS-2005>
-97.3666229248047

> <r_mmod_Stretch_Energy-OPLS-2005>
34.7279052734375

> <r_mmod_Bend_Energy-OPLS-2005>
99.8804702758789

> <r_mmod_Torsional_Energy-OPLS-2005>
200.975814819336

> <r_mmod_Improper_Torsional_Energy-OPLS-2005>
1.71161699295044

> <r_mmod_Van_der_Waal_Energy-OPLS-2005>
149.46223449707

> <r_mmod_Electrostatic_Energy-OPLS-2005>
-352.009338378906

> <r_mmod_Solvation_Energy-OPLS-2005>
-240.706985473633

> <b_mmod_Minimization_Converged-OPLS-2005>
0

> <r_mmod_RMS_Derivative-OPLS-2005>
1.75278520584106

$$$$
2
                    3D
 Structure written by MMmdl.
150158  0  0  1  0            999 V2000
  -30.2140  -15.8696   20.3208 C   0  0  0  0  0  0
  -30.4084  -13.2595   19.5353 C   0  0  0  0  0  0
  -29.5569  -12.7179   18.3435 C   0  0  0  0  0  0
  -28.1528  -12.3020   18.8060 C   0  0  0  0  0  0
  -27.5880  -13.3296   19.8096 C   0  0  2  0  0  0
  -28.5927  -13.7617   20.9107 C   0  0  0  0  0  0
  -25.2311  -13.8301   20.5876 C   0  0  0  0  0  0
  -24.1698  -13.0422   20.9290 C   0  0  0  0  0  0
  -24.6434  -11.6941   20.8766 C   0  0  0  0  0  0
  -23.9125  -10.4290   21.0385 C   0  0  0  0  0  0
  -24.3655   -9.4211   21.9173 C   0  0  0  0  0  0
  -23.6301   -8.2269   22.0772 C   0  0  0  0  0  0
  -22.4292   -8.0305   21.3559 C   0  0  0  0  0  0
  -21.9937   -9.0280   20.4664 C   0  0  0  0  0  0
  -22.7291  -10.2131   20.3040 C   0  0  0  0  0  0
  -21.6858   -6.0750   22.5273 C   0  0  0  0  0  0
  -21.4032   -6.5649   23.8214 C   0  0  0  0  0  0
  -21.3648   -5.6800   24.9172 C   0  0  0  0  0  0
  -21.6037   -4.3062   24.7219 C   0  0  0  0  0  0
  -21.8822   -3.8154   23.4344 C   0  0  0  0  0  0
  -21.9191   -4.6978   22.3401 C   0  0  0  0  0  0
  -22.7710  -13.5162   21.1895 C   0  0  0  0  0  0
  -22.1656   -4.2149   21.0978 F   0  0  0  0  0  0
  -21.5605   -3.4546   25.7733 F   0  0  0  0  0  0
  -29.7249  -14.4615   20.2340 N   0  0  0  0  0  0
  -26.2772  -12.9674   20.3300 N   0  0  0  0  0  0
  -25.9387  -11.6719   20.5687 N   0  0  0  0  0  0
  -22.0359  -12.8151   22.0442 N   0  0  0  0  0  0
  -25.3932  -15.2057   20.4446 N   0  0  0  0  0  0
  -31.4596  -15.7711   20.2321 O   0  0  0  0  0  0
  -21.6646   -6.8907   21.4247 O   0  0  0  0  0  0
  -22.3395  -14.5461   20.6717 O   0  0  0  0  0  0
  -24.7030  -31.7847   23.1329 C   0  0  0  0  0  0
  -25.9545  -32.4405   23.7934 C   0  0  1  0  0  0
  -27.2300  -26.5403   20.2312 C   0  0  0  0  0  0
  -25.6069  -33.8224   24.1860 N   0  0  0  0  0  0
  -23.5341  -30.3813   21.4895 C   0  0  2  0  0  0
  -24.9900  -28.6848   20.1197 C   0  0  0  0  0  0
  -22.7860  -29.4296   22.4628 C   0  0  0  0  0  0
  -18.0370  -28.1481   22.8492 C   0  0  0  0  0  0
  -24.1449  -36.7037   23.2647 C   0  0  0  0  0  0
  -26.1226  -30.4642   21.4196 C   0  0  0  0  0  0
  -26.1845  -29.0100   20.7740 C   0  0  0  0  0  0
  -27.2808  -27.9727   20.7907 C   0  0  0  0  0  0
  -26.0033  -26.4683   19.5090 C   0  0  0  0  0  0
  -24.9512  -27.4440   19.4614 C   0  0  0  0  0  0
  -23.7946  -29.6611   20.1347 C   0  0  0  0  0  0
  -25.4121  -36.2825   24.0269 C   0  0  1  0  0  0
  -20.6034  -28.3837   23.1109 C   0  0  2  0  0  0
  -20.6845  -26.9484   22.5422 C   0  0  0  0  0  0
  -19.5804  -26.6429   21.5254 C   0  0  0  0  0  0
  -18.1984  -26.8018   22.1653 C   0  0  0  0  0  0
  -19.1651  -28.8990   23.2787 C   0  0  0  0  0  0
  -18.9558  -30.1575   23.8841 C   0  0  0  0  0  0
  -17.6553  -30.6663   24.0583 C   0  0  0  0  0  0
  -25.9155  -34.9240   23.4903 C   0  0  0  0  0  0
  -16.5424  -29.9157   23.6403 C   0  0  0  0  0  0
  -16.7360  -28.6586   23.0429 C   0  0  0  0  0  0
  -26.4660  -31.6497   25.0615 C   0  0  0  0  0  0
  -25.3648  -31.3910   26.1172 C   0  0  0  0  0  0
  -27.0592  -30.2802   24.6630 C   0  0  0  0  0  0
  -27.6112  -32.4346   25.7443 C   0  0  0  0  0  0
  -27.5529  -37.1658   24.8478 C   0  0  0  0  0  0
  -21.4489  -29.3045   22.3367 N   0  0  0  0  0  0
  -26.4194  -37.3638   23.9476 N   0  0  0  0  0  0
  -24.8114  -30.9146   22.0649 N   0  0  0  0  0  0
  -23.4264  -28.7949   23.3060 O   0  0  0  0  0  0
  -28.1651  -25.2397   20.3121 O   0  0  0  0  0  0
  -26.5763  -34.8874   22.4505 O   0  0  0  0  0  0
  -23.6038  -32.0991   23.6205 O   0  0  0  0  0  0
  -28.4422  -20.0523   19.9945 C   0  0  0  0  0  0
  -28.7581  -21.6145   20.3044 C   0  0  0  0  0  0
  -29.3903  -18.9058   20.3521 C   0  0  0  0  0  0
  -27.1518  -19.7106   19.2978 C   0  0  0  0  0  0
  -32.0271  -20.3711   22.6854 C   0  0  0  0  0  0
  -27.9417  -23.4182   20.1378 C   0  0  0  0  0  0
  -31.5940  -19.4914   21.4972 C   0  0  0  0  0  0
  -29.9667  -21.2748   20.8658 N   0  0  0  0  0  0
  -30.3067  -19.8551   20.9077 N   0  0  0  0  0  0
  -29.4247  -17.2750   20.2747 N   0  0  0  0  0  0
  -31.3830  -13.5573   19.1518 H   0  0  0  0  0  0
  -30.6279  -12.4581   20.2421 H   0  0  0  0  0  0
  -30.0592  -11.8791   17.8611 H   0  0  0  0  0  0
  -29.4689  -13.4990   17.5876 H   0  0  0  0  0  0
  -28.2304  -11.3275   19.2931 H   0  0  0  0  0  0
  -27.4832  -12.1710   17.9532 H   0  0  0  0  0  0
  -27.4170  -14.2177   19.1980 H   0  0  0  0  0  0
  -28.9070  -12.9147   21.5222 H   0  0  0  0  0  0
  -28.1153  -14.4645   21.5945 H   0  0  0  0  0  0
  -25.2792   -9.5671   22.4771 H   0  0  0  0  0  0
  -23.9977   -7.4665   22.7501 H   0  0  0  0  0  0
  -21.0865   -8.8829   19.8971 H   0  0  0  0  0  0
  -22.3764  -10.9685   19.6153 H   0  0  0  0  0  0
  -21.2055   -7.6161   23.9708 H   0  0  0  0  0  0
  -21.1446   -6.0537   25.9069 H   0  0  0  0  0  0
  -22.0601   -2.7614   23.2844 H   0  0  0  0  0  0
  -22.3961  -11.9821   22.4859 H   0  0  0  0  0  0
  -21.0990  -13.1199   22.2618 H   0  0  0  0  0  0
  -24.6386  -15.8624   20.6087 H   0  0  0  0  0  0
  -26.2628  -15.6537   20.1964 H   0  0  0  0  0  0
  -26.7639  -32.4834   23.0656 H   0  0  0  0  0  0
  -25.0208  -33.9227   25.0019 H   0  0  0  0  0  0
  -22.8701  -31.2235   21.2861 H   0  0  0  0  0  0
  -23.3788  -35.9282   23.3230 H   0  0  0  0  0  0
  -24.3516  -36.8793   22.2082 H   0  0  0  0  0  0
  -23.7127  -37.6152   23.6771 H   0  0  0  0  0  0
  -26.3459  -31.1826   20.6278 H   0  0  0  0  0  0
  -26.9659  -30.5292   22.0948 H   0  0  0  0  0  0
  -28.1746  -28.2385   21.3356 H   0  0  0  0  0  0
  -25.8041  -25.5377   18.9955 H   0  0  0  0  0  0
  -24.0522  -27.1854   18.9161 H   0  0  0  0  0  0
  -23.9831  -30.4122   19.3678 H   0  0  0  0  0  0
  -22.8954  -29.1346   19.8111 H   0  0  0  0  0  0
  -25.1342  -36.1496   25.0741 H   0  0  0  0  0  0
  -21.0118  -28.3499   24.1236 H   0  0  0  0  0  0
  -20.5737  -26.2484   23.3716 H   0  0  0  0  0  0
  -21.6692  -26.7451   22.1194 H   0  0  0  0  0  0
  -19.6933  -25.6327   21.1345 H   0  0  0  0  0  0
  -19.6746  -27.3191   20.6737 H   0  0  0  0  0  0
  -17.4267  -26.6844   21.4031 H   0  0  0  0  0  0
  -18.0303  -26.0198   22.9067 H   0  0  0  0  0  0
  -19.8026  -30.7433   24.2168 H   0  0  0  0  0  0
  -17.5104  -31.6340   24.5197 H   0  0  0  0  0  0
  -15.5426  -30.3058   23.7747 H   0  0  0  0  0  0
  -15.8766  -28.0873   22.7175 H   0  0  0  0  0  0
  -24.5806  -30.7320   25.7441 H   0  0  0  0  0  0
  -24.8868  -32.3175   26.4337 H   0  0  0  0  0  0
  -25.7718  -30.9204   27.0122 H   0  0  0  0  0  0
  -26.3313  -29.6379   24.1650 H   0  0  0  0  0  0
  -27.4001  -29.7311   25.5427 H   0  0  0  0  0  0
  -27.9339  -30.3929   24.0214 H   0  0  0  0  0  0
  -27.2715  -33.3798   26.1689 H   0  0  0  0  0  0
  -28.4109  -32.6644   25.0384 H   0  0  0  0  0  0
  -28.0545  -31.8638   26.5617 H   0  0  0  0  0  0
  -28.2493  -38.0006   24.7605 H   0  0  0  0  0  0
  -28.1067  -36.2539   24.6182 H   0  0  0  0  0  0
  -27.2266  -37.1163   25.8880 H   0  0  0  0  0  0
  -20.9815  -29.8616   21.6332 H   0  0  0  0  0  0
  -25.9982  -38.2637   24.1599 H   0  0  0  0  0  0
  -26.6664  -20.5888   18.8733 H   0  0  0  0  0  0
  -26.4284  -19.2387   19.9631 H   0  0  0  0  0  0
  -27.3181  -19.0228   18.4701 H   0  0  0  0  0  0
  -32.9173  -19.9576   23.1604 H   0  0  0  0  0  0
  -31.2461  -20.4288   23.4441 H   0  0  0  0  0  0
  -32.2699  -21.3893   22.3759 H   0  0  0  0  0  0
  -27.0396  -23.3188   20.7412 H   0  0  0  0  0  0
  -27.5452  -23.3969   19.1227 H   0  0  0  0  0  0
  -31.5348  -18.4542   21.8276 H   0  0  0  0  0  0
  -32.3546  -19.5227   20.7171 H   0  0  0  0  0  0
  -28.4734  -16.9853   20.1114 H   0  0  0  0  0  0
  1 25  1  0  0  0
  1 30  2  0  0  0
  1 80  1  0  0  0
  2  3  1  0  0  0
  2 25  1  0  0  0
  2 81  1  0  0  0
  2 82  1  0  0  0
  3  4  1  0  0  0
  3 83  1  0  0  0
  3 84  1  0  0  0
  4  5  1  0  0  0
  4 85  1  0  0  0
  4 86  1  0  0  0
  5  6  1  0  0  0
  5 26  1  0  0  0
  5 87  1  0  0  0
  6 25  1  0  0  0
  6 88  1  0  0  0
  6 89  1  0  0  0
  7  8  2  0  0  0
  7 26  1  0  0  0
  7 29  1  0  0  0
  8  9  1  0  0  0
  8 22  1  0  0  0
  9 10  1  0  0  0
  9 27  2  0  0  0
 10 11  2  0  0  0
 10 15  1  0  0  0
 11 12  1  0  0  0
 11 90  1  0  0  0
 12 13  2  0  0  0
 12 91  1  0  0  0
 13 14  1  0  0  0
 13 31  1  0  0  0
 14 15  2  0  0  0
 14 92  1  0  0  0
 15 93  1  0  0  0
 16 17  2  0  0  0
 16 21  1  0  0  0
 16 31  1  0  0  0
 17 18  1  0  0  0
 17 94  1  0  0  0
 18 19  2  0  0  0
 18 95  1  0  0  0
 19 20  1  0  0  0
 19 24  1  0  0  0
 20 21  2  0  0  0
 20 96  1  0  0  0
 21 23  1  0  0  0
 22 28  1  0  0  0
 22 32  2  0  0  0
 26 27  1  0  0  0
 28 97  1  0  0  0
 28 98  1  0  0  0
 29 99  1  0  0  0
 29100  1  0  0  0
 33 34  1  0  0  0
 33 66  1  0  0  0
 33 70  2  0  0  0
 34 36  1  0  0  0
 34 59  1  0  0  0
 34101  1  0  0  0
 35 44  2  0  0  0
 35 45  1  0  0  0
 35 68  1  0  0  0
 36 56  1  0  0  0
 36102  1  0  0  0
 37 39  1  0  0  0
 37 47  1  0  0  0
 37 66  1  0  0  0
 37103  1  0  0  0
 38 43  2  0  0  0
 38 46  1  0  0  0
 38 47  1  0  0  0
 39 64  1  0  0  0
 39 67  2  0  0  0
 40 52  1  0  0  0
 40 53  2  0  0  0
 40 58  1  0  0  0
 41104  1  0  0  0
 41105  1  0  0  0
 41106  1  0  0  0
 41 48  1  0  0  0
 42 43  1  0  0  0
 42 66  1  0  0  0
 42107  1  0  0  0
 42108  1  0  0  0
 43 44  1  0  0  0
 44109  1  0  0  0
 45 46  2  0  0  0
 45110  1  0  0  0
 46111  1  0  0  0
 47112  1  0  0  0
 47113  1  0  0  0
 48 56  1  0  0  0
 48 65  1  0  0  0
 48114  1  0  0  0
 49 50  1  0  0  0
 49 53  1  0  0  0
 49 64  1  0  0  0
 49115  1  0  0  0
 50 51  1  0  0  0
 50116  1  0  0  0
 50117  1  0  0  0
 51 52  1  0  0  0
 51118  1  0  0  0
 51119  1  0  0  0
 52120  1  0  0  0
 52121  1  0  0  0
 53 54  1  0  0  0
 54 55  2  0  0  0
 54122  1  0  0  0
 55 57  1  0  0  0
 55123  1  0  0  0
 56 69  2  0  0  0
 57 58  2  0  0  0
 57124  1  0  0  0
 58125  1  0  0  0
 59 60  1  0  0  0
 59 61  1  0  0  0
 59 62  1  0  0  0
 60126  1  0  0  0
 60127  1  0  0  0
 60128  1  0  0  0
 61129  1  0  0  0
 61130  1  0  0  0
 61131  1  0  0  0
 62132  1  0  0  0
 62133  1  0  0  0
 62134  1  0  0  0
 63 65  1  0  0  0
 63135  1  0  0  0
 63136  1  0  0  0
 63137  1  0  0  0
 64138  1  0  0  0
 65139  1  0  0  0
 68 76  1  0  0  0
 71 72  1  0  0  0
 71 73  2  0  0  0
 71 74  1  0  0  0
 72 76  1  0  0  0
 72 78  2  0  0  0
 73 79  1  0  0  0
 73 80  1  0  0  0
 74140  1  0  0  0
 74141  1  0  0  0
 74142  1  0  0  0
 75 77  1  0  0  0
 75143  1  0  0  0
 75144  1  0  0  0
 75145  1  0  0  0
 76146  1  0  0  0
 76147  1  0  0  0
 77 79  1  0  0  0
 77148  1  0  0  0
 77149  1  0  0  0
 78 79  1  0  0  0
 80150  1  0  0  0
M  ISO  4   1 100  68 101  76 101  80 100
M  END
> <chiral flag>
0

> <version>
0

> <s_m_source_file>
/data/baiqing/PycharmProjects/Reinvent-master-3.2/result/LINK_invent/BTK/process_docking_weight1_custom_sum_contain_oxygen_bond_distance_aromatic_linkinvent_7_9_3/rearranged_h_0014.sdf

> <i_m_source_file_index>
3

> <r_mmod_Potential_Energy-OPLS-2005>
3125.62109375

> <r_mmod_Stretch_Energy-OPLS-2005>
1338.21545410156

> <r_mmod_Bend_Energy-OPLS-2005>
786.465881347656

> <r_mmod_Torsional_Energy-OPLS-2005>
222.285095214844

> <r_mmod_Improper_Torsional_Energy-OPLS-2005>
5.50820779800415

> <r_mmod_Van_der_Waal_Energy-OPLS-2005>
105.344581604004

> <r_mmod_Electrostatic_Energy-OPLS-2005>
-384.99560546875

> <r_mmod_Solvation_Energy-OPLS-2005>
-233.344329833984

> <b_mmod_Minimization_Converged-OPLS-2005>
0

> <r_mmod_RMS_Derivative-OPLS-2005>
4.78829145431519

$$$$
3
                    3D
 Structure written by MMmdl.
154162  0  0  1  0            999 V2000
  -30.6048  -14.7602   20.4675 C   0  0  0  0  0  0
  -30.4363  -12.4682   19.4639 C   0  0  0  0  0  0
  -29.5068  -12.5033   18.2305 C   0  0  0  0  0  0
  -28.0361  -12.3165   18.6528 C   0  0  0  0  0  0
  -27.6396  -13.2272   19.8455 C   0  0  2  0  0  0
  -28.6876  -13.1724   20.9774 C   0  0  0  0  0  0
  -25.2512  -13.8190   20.5677 C   0  0  0  0  0  0
  -24.1805  -13.0438   20.9208 C   0  0  0  0  0  0
  -24.6397  -11.6918   20.8761 C   0  0  0  0  0  0
  -23.9079  -10.4290   21.0422 C   0  0  0  0  0  0
  -24.3625   -9.4201   21.9195 C   0  0  0  0  0  0
  -23.6297   -8.2243   22.0760 C   0  0  0  0  0  0
  -22.4280   -8.0288   21.3552 C   0  0  0  0  0  0
  -21.9922   -9.0261   20.4648 C   0  0  0  0  0  0
  -22.7254  -10.2136   20.3062 C   0  0  0  0  0  0
  -21.6855   -6.0749   22.5279 C   0  0  0  0  0  0
  -21.4012   -6.5647   23.8213 C   0  0  0  0  0  0
  -21.3658   -5.6796   24.9174 C   0  0  0  0  0  0
  -21.6045   -4.3057   24.7217 C   0  0  0  0  0  0
  -21.8819   -3.8154   23.4335 C   0  0  0  0  0  0
  -21.9187   -4.6978   22.3397 C   0  0  0  0  0  0
  -22.7823  -13.5221   21.1860 C   0  0  0  0  0  0
  -22.1659   -4.2164   21.0974 F   0  0  0  0  0  0
  -21.5626   -3.4539   25.7729 F   0  0  0  0  0  0
  -29.9814  -13.5341   20.3850 N   0  0  0  0  0  0
  -26.2933  -12.9385   20.3271 N   0  0  0  0  0  0
  -25.9323  -11.6535   20.5765 N   0  0  0  0  0  0
  -22.0477  -12.8211   22.0416 N   0  0  0  0  0  0
  -25.4195  -15.1911   20.4069 N   0  0  0  0  0  0
  -31.8073  -14.8523   20.2052 O   0  0  0  0  0  0
  -21.6638   -6.8890   21.4243 O   0  0  0  0  0  0
  -22.3509  -14.5535   20.6713 O   0  0  0  0  0  0
  -24.6321  -31.8544   23.1954 C   0  0  0  0  0  0
  -25.9140  -32.4746   23.8302 C   0  0  1  0  0  0
  -27.2272  -27.2560   20.1464 C   0  0  0  0  0  0
  -25.5934  -33.8547   24.2245 N   0  0  0  0  0  0
  -23.4288  -30.4750   21.5387 C   0  0  2  0  0  0
  -24.8774  -28.9078   20.1226 C   0  0  0  0  0  0
  -22.7502  -29.4606   22.4910 C   0  0  0  0  0  0
  -18.0295  -28.1393   22.8478 C   0  0  0  0  0  0
  -24.1490  -36.7269   23.2643 C   0  0  0  0  0  0
  -25.9743  -30.7663   21.3728 C   0  0  0  0  0  0
  -26.0486  -29.3827   20.7279 C   0  0  0  0  0  0
  -27.2287  -28.5713   20.7229 C   0  0  0  0  0  0
  -26.0339  -26.8383   19.5275 C   0  0  0  0  0  0
  -24.8737  -27.6410   19.5138 C   0  0  0  0  0  0
  -23.6495  -29.7995   20.1591 C   0  0  0  0  0  0
  -25.4106  -36.3053   24.0336 C   0  0  1  0  0  0
  -20.5902  -28.3689   23.1272 C   0  0  2  0  0  0
  -20.6786  -26.9406   22.5409 C   0  0  0  0  0  0
  -19.5761  -26.6384   21.5217 C   0  0  0  0  0  0
  -18.1941  -26.7940   22.1620 C   0  0  0  0  0  0
  -19.1556  -28.8854   23.2876 C   0  0  0  0  0  0
  -18.9474  -30.1463   23.8881 C   0  0  0  0  0  0
  -17.6473  -30.6587   24.0562 C   0  0  0  0  0  0
  -25.9042  -34.9431   23.5086 C   0  0  0  0  0  0
  -16.5363  -29.9083   23.6336 C   0  0  0  0  0  0
  -16.7281  -28.6514   23.0334 C   0  0  0  0  0  0
  -26.4507  -31.6567   25.0689 C   0  0  0  0  0  0
  -25.3739  -31.3722   26.1415 C   0  0  0  0  0  0
  -27.0347  -30.2984   24.6158 C   0  0  0  0  0  0
  -27.6059  -32.4301   25.7473 C   0  0  0  0  0  0
  -27.5576  -37.1781   24.8466 C   0  0  0  0  0  0
  -21.4209  -29.3048   22.3660 N   0  0  0  0  0  0
  -26.4276  -37.3758   23.9425 N   0  0  0  0  0  0
  -24.6980  -31.0502   22.0925 N   0  0  0  0  0  0
  -23.4202  -28.8158   23.3020 O   0  0  0  0  0  0
  -28.3463  -26.4018   20.0575 O   0  0  0  0  0  0
  -26.5623  -34.8917   22.4661 O   0  0  0  0  0  0
  -23.5472  -32.1366   23.7248 O   0  0  0  0  0  0
  -31.1875  -17.6229   21.7228 C   0  0  0  0  0  0
  -29.6152  -19.8661   20.7617 C   0  0  0  0  0  0
  -30.1268  -17.3268   20.8419 C   0  0  0  0  0  0
  -31.4344  -18.9416   22.1543 C   0  0  0  0  0  0
  -30.6542  -20.0328   21.7098 C   0  0  0  0  0  0
  -29.3559  -18.4759   20.3676 C   0  0  0  0  0  0
  -28.1944  -23.6953   20.3440 C   0  0  0  0  0  0
  -30.5168  -22.9657   20.1404 C   0  0  0  0  0  0
  -28.7425  -21.1320   20.2582 C   0  0  0  0  0  0
  -28.4920  -25.1778   20.9156 C   0  0  0  0  0  0
  -29.8060  -15.8961   20.5648 N   0  0  0  0  0  0
  -29.1104  -22.6337   20.3857 N   0  0  0  0  0  0
  -27.0382  -23.4744   19.9725 O   0  0  0  0  0  0
  -32.4266  -19.1628   23.0499 F   0  0  0  0  0  0
  -30.9046  -21.2451   22.2528 F   0  0  0  0  0  0
  -28.0418  -18.1585   19.2922 Cl  0  0  0  0  0  0
  -31.4742  -12.6042   19.1565 H   0  0  0  0  0  0
  -30.3917  -11.4945   19.9546 H   0  0  0  0  0  0
  -29.7934  -11.7281   17.5183 H   0  0  0  0  0  0
  -29.6198  -13.4553   17.7098 H   0  0  0  0  0  0
  -27.9059  -11.2694   18.9304 H   0  0  0  0  0  0
  -27.3713  -12.4891   17.8058 H   0  0  0  0  0  0
  -27.6286  -14.2442   19.4540 H   0  0  0  0  0  0
  -28.7314  -12.1752   21.4187 H   0  0  0  0  0  0
  -28.4203  -13.8538   21.7872 H   0  0  0  0  0  0
  -25.2774   -9.5675   22.4766 H   0  0  0  0  0  0
  -24.0006   -7.4632   22.7475 H   0  0  0  0  0  0
  -21.0859   -8.8784   19.8944 H   0  0  0  0  0  0
  -22.3727  -10.9679   19.6164 H   0  0  0  0  0  0
  -21.2011   -7.6155   23.9724 H   0  0  0  0  0  0
  -21.1479   -6.0522   25.9078 H   0  0  0  0  0  0
  -22.0599   -2.7617   23.2826 H   0  0  0  0  0  0
  -22.4095  -11.9857   22.4775 H   0  0  0  0  0  0
  -21.1101  -13.1238   22.2648 H   0  0  0  0  0  0
  -24.6444  -15.8375   20.5078 H   0  0  0  0  0  0
  -26.2547  -15.6343   20.0490 H   0  0  0  0  0  0
  -26.7210  -32.5392   23.1045 H   0  0  0  0  0  0
  -25.0105  -33.9675   25.0408 H   0  0  0  0  0  0
  -22.7266  -31.2975   21.3870 H   0  0  0  0  0  0
  -23.3760  -35.9592   23.3277 H   0  0  0  0  0  0
  -24.3600  -36.8912   22.2067 H   0  0  0  0  0  0
  -23.7235  -37.6460   23.6673 H   0  0  0  0  0  0
  -26.1088  -31.5200   20.5954 H   0  0  0  0  0  0
  -26.8538  -30.8229   22.0021 H   0  0  0  0  0  0
  -28.1351  -28.9431   21.1784 H   0  0  0  0  0  0
  -26.0003  -25.8683   19.0500 H   0  0  0  0  0  0
  -23.9768  -27.2706   19.0371 H   0  0  0  0  0  0
  -23.7801  -30.5704   19.3993 H   0  0  0  0  0  0
  -22.7664  -29.2360   19.8519 H   0  0  0  0  0  0
  -25.1291  -36.1887   25.0830 H   0  0  0  0  0  0
  -20.9989  -28.3256   24.1395 H   0  0  0  0  0  0
  -20.5686  -26.2295   23.3612 H   0  0  0  0  0  0
  -21.6652  -26.7434   22.1200 H   0  0  0  0  0  0
  -19.6921  -25.6296   21.1238 H   0  0  0  0  0  0
  -19.6704  -27.3198   20.6753 H   0  0  0  0  0  0
  -17.4216  -26.6688   21.4018 H   0  0  0  0  0  0
  -18.0322  -26.0093   22.9017 H   0  0  0  0  0  0
  -19.7955  -30.7290   24.2226 H   0  0  0  0  0  0
  -17.5031  -31.6261   24.5169 H   0  0  0  0  0  0
  -15.5364  -30.2977   23.7678 H   0  0  0  0  0  0
  -15.8687  -28.0839   22.7027 H   0  0  0  0  0  0
  -24.5932  -30.7040   25.7760 H   0  0  0  0  0  0
  -24.8914  -32.2897   26.4790 H   0  0  0  0  0  0
  -25.8073  -30.8949   27.0214 H   0  0  0  0  0  0
  -26.2916  -29.6729   24.1197 H   0  0  0  0  0  0
  -27.4070  -29.7239   25.4651 H   0  0  0  0  0  0
  -27.8772  -30.4273   23.9363 H   0  0  0  0  0  0
  -27.2668  -33.3624   26.1999 H   0  0  0  0  0  0
  -28.3899  -32.6815   25.0317 H   0  0  0  0  0  0
  -28.0680  -31.8450   26.5436 H   0  0  0  0  0  0
  -28.2562  -38.0107   24.7529 H   0  0  0  0  0  0
  -28.1103  -36.2635   24.6251 H   0  0  0  0  0  0
  -27.2310  -37.1378   25.8876 H   0  0  0  0  0  0
  -20.9380  -29.8763   21.6863 H   0  0  0  0  0  0
  -26.0148  -38.2825   24.1442 H   0  0  0  0  0  0
  -31.7958  -16.8305   22.1317 H   0  0  0  0  0  0
  -30.6134  -23.7287   19.3656 H   0  0  0  0  0  0
  -31.0806  -22.1017   19.7878 H   0  0  0  0  0  0
  -30.9987  -23.3447   21.0418 H   0  0  0  0  0  0
  -27.7772  -21.0107   20.7511 H   0  0  0  0  0  0
  -28.5372  -20.9705   19.2002 H   0  0  0  0  0  0
  -29.5060  -25.1942   21.3134 H   0  0  0  0  0  0
  -27.8517  -25.3093   21.7887 H   0  0  0  0  0  0
  -28.8208  -15.7066   20.4733 H   0  0  0  0  0  0
  1 25  1  0  0  0
  1 30  2  0  0  0
  1 81  1  0  0  0
  2  3  1  0  0  0
  2 25  1  0  0  0
  2 87  1  0  0  0
  2 88  1  0  0  0
  3  4  1  0  0  0
  3 89  1  0  0  0
  3 90  1  0  0  0
  4  5  1  0  0  0
  4 91  1  0  0  0
  4 92  1  0  0  0
  5  6  1  0  0  0
  5 26  1  0  0  0
  5 93  1  0  0  0
  6 25  1  0  0  0
  6 94  1  0  0  0
  6 95  1  0  0  0
  7  8  2  0  0  0
  7 26  1  0  0  0
  7 29  1  0  0  0
  8  9  1  0  0  0
  8 22  1  0  0  0
  9 10  1  0  0  0
  9 27  2  0  0  0
 10 11  2  0  0  0
 10 15  1  0  0  0
 11 12  1  0  0  0
 11 96  1  0  0  0
 12 13  2  0  0  0
 12 97  1  0  0  0
 13 14  1  0  0  0
 13 31  1  0  0  0
 14 15  2  0  0  0
 14 98  1  0  0  0
 15 99  1  0  0  0
 16 17  2  0  0  0
 16 21  1  0  0  0
 16 31  1  0  0  0
 17 18  1  0  0  0
 17100  1  0  0  0
 18 19  2  0  0  0
 18101  1  0  0  0
 19 20  1  0  0  0
 19 24  1  0  0  0
 20 21  2  0  0  0
 20102  1  0  0  0
 21 23  1  0  0  0
 22 28  1  0  0  0
 22 32  2  0  0  0
 26 27  1  0  0  0
 28103  1  0  0  0
 28104  1  0  0  0
 29105  1  0  0  0
 29106  1  0  0  0
 33 34  1  0  0  0
 33 66  1  0  0  0
 33 70  2  0  0  0
 34 36  1  0  0  0
 34 59  1  0  0  0
 34107  1  0  0  0
 35 44  2  0  0  0
 35 45  1  0  0  0
 35 68  1  0  0  0
 36 56  1  0  0  0
 36108  1  0  0  0
 37 39  1  0  0  0
 37 47  1  0  0  0
 37 66  1  0  0  0
 37109  1  0  0  0
 38 43  2  0  0  0
 38 46  1  0  0  0
 38 47  1  0  0  0
 39 64  1  0  0  0
 39 67  2  0  0  0
 40 52  1  0  0  0
 40 53  2  0  0  0
 40 58  1  0  0  0
 41110  1  0  0  0
 41111  1  0  0  0
 41112  1  0  0  0
 41 48  1  0  0  0
 42 43  1  0  0  0
 42 66  1  0  0  0
 42113  1  0  0  0
 42114  1  0  0  0
 43 44  1  0  0  0
 44115  1  0  0  0
 45 46  2  0  0  0
 45116  1  0  0  0
 46117  1  0  0  0
 47118  1  0  0  0
 47119  1  0  0  0
 48 56  1  0  0  0
 48 65  1  0  0  0
 48120  1  0  0  0
 49 50  1  0  0  0
 49 53  1  0  0  0
 49 64  1  0  0  0
 49121  1  0  0  0
 50 51  1  0  0  0
 50122  1  0  0  0
 50123  1  0  0  0
 51 52  1  0  0  0
 51124  1  0  0  0
 51125  1  0  0  0
 52126  1  0  0  0
 52127  1  0  0  0
 53 54  1  0  0  0
 54 55  2  0  0  0
 54128  1  0  0  0
 55 57  1  0  0  0
 55129  1  0  0  0
 56 69  2  0  0  0
 57 58  2  0  0  0
 57130  1  0  0  0
 58131  1  0  0  0
 59 60  1  0  0  0
 59 61  1  0  0  0
 59 62  1  0  0  0
 60132  1  0  0  0
 60133  1  0  0  0
 60134  1  0  0  0
 61135  1  0  0  0
 61136  1  0  0  0
 61137  1  0  0  0
 62138  1  0  0  0
 62139  1  0  0  0
 62140  1  0  0  0
 63 65  1  0  0  0
 63141  1  0  0  0
 63142  1  0  0  0
 63143  1  0  0  0
 64144  1  0  0  0
 65145  1  0  0  0
 68 80  1  0  0  0
 71 73  2  0  0  0
 71 74  1  0  0  0
 71146  1  0  0  0
 72 75  1  0  0  0
 72 76  2  0  0  0
 72 79  1  0  0  0
 73 76  1  0  0  0
 73 81  1  0  0  0
 74 75  2  0  0  0
 74 84  1  0  0  0
 75 85  1  0  0  0
 76 86  1  0  0  0
 77 80  1  0  0  0
 77 82  1  0  0  0
 77 83  2  0  0  0
 78 82  1  0  0  0
 78147  1  0  0  0
 78148  1  0  0  0
 78149  1  0  0  0
 79 82  1  0  0  0
 79150  1  0  0  0
 79151  1  0  0  0
 80152  1  0  0  0
 80153  1  0  0  0
 81154  1  0  0  0
M  ISO  4   1 100  68 101  80 101  81 100
M  END
> <chiral flag>
0

> <version>
0

> <s_m_source_file>
/data/baiqing/PycharmProjects/Reinvent-master-3.2/result/LINK_invent/BTK/process_docking_weight1_custom_sum_contain_oxygen_bond_distance_aromatic_linkinvent_7_9_3/rearranged_h_0014.sdf

> <i_m_source_file_index>
4

> <r_mmod_Potential_Energy-OPLS-2005>
226.635513305664

> <r_mmod_Stretch_Energy-OPLS-2005>
141.730422973633

> <r_mmod_Bend_Energy-OPLS-2005>
182.048690795898

> <r_mmod_Torsional_Energy-OPLS-2005>
272.119812011719

> <r_mmod_Improper_Torsional_Energy-OPLS-2005>
9.90776824951172

> <r_mmod_Van_der_Waal_Energy-OPLS-2005>
132.942337036133

> <r_mmod_Electrostatic_Energy-OPLS-2005>
-378.701141357422

> <r_mmod_Solvation_Energy-OPLS-2005>
-219.782257080078

> <b_mmod_Minimization_Converged-OPLS-2005>
0

> <r_mmod_RMS_Derivative-OPLS-2005>
1.67190062999725

$$$$
4
                    3D
 Structure written by MMmdl.
168177  0  0  1  0            999 V2000
  -30.7008  -14.5474   20.5778 C   0  0  0  0  0  0
  -30.4209  -12.3609   19.4308 C   0  0  0  0  0  0
  -29.4908  -12.4939   18.2068 C   0  0  0  0  0  0
  -28.0187  -12.3099   18.6225 C   0  0  0  0  0  0
  -27.6510  -13.1738   19.8531 C   0  0  2  0  0  0
  -28.6996  -12.9959   20.9846 C   0  0  0  0  0  0
  -25.2571  -13.8053   20.5599 C   0  0  0  0  0  0
  -24.1822  -13.0383   20.9185 C   0  0  0  0  0  0
  -24.6358  -11.6844   20.8789 C   0  0  0  0  0  0
  -23.9027  -10.4248   21.0459 C   0  0  0  0  0  0
  -24.3592   -9.4154   21.9221 C   0  0  0  0  0  0
  -23.6265   -8.2193   22.0762 C   0  0  0  0  0  0
  -22.4248   -8.0250   21.3548 C   0  0  0  0  0  0
  -21.9891   -9.0222   20.4651 C   0  0  0  0  0  0
  -22.7216  -10.2100   20.3079 C   0  0  0  0  0  0
  -21.6830   -6.0712   22.5276 C   0  0  0  0  0  0
  -21.4000   -6.5626   23.8209 C   0  0  0  0  0  0
  -21.3664   -5.6787   24.9180 C   0  0  0  0  0  0
  -21.6051   -4.3050   24.7237 C   0  0  0  0  0  0
  -21.8818   -3.8133   23.4361 C   0  0  0  0  0  0
  -21.9183   -4.6944   22.3411 C   0  0  0  0  0  0
  -22.7860  -13.5220   21.1850 C   0  0  0  0  0  0
  -22.1652   -4.2131   21.0990 F   0  0  0  0  0  0
  -21.5644   -3.4541   25.7753 F   0  0  0  0  0  0
  -30.0077  -13.3703   20.4320 N   0  0  0  0  0  0
  -26.2958  -12.9158   20.3246 N   0  0  0  0  0  0
  -25.9261  -11.6366   20.5777 N   0  0  0  0  0  0
  -22.0494  -12.8222   22.0413 N   0  0  0  0  0  0
  -25.4274  -15.1759   20.3877 N   0  0  0  0  0  0
  -31.8344  -14.6507   20.0956 O   0  0  0  0  0  0
  -21.6618   -6.8848   21.4233 O   0  0  0  0  0  0
  -22.3570  -14.5535   20.6695 O   0  0  0  0  0  0
  -24.6143  -31.8652   23.2051 C   0  0  0  0  0  0
  -25.9030  -32.4796   23.8361 C   0  0  1  0  0  0
  -27.2394  -27.4015   20.1135 C   0  0  0  0  0  0
  -25.5878  -33.8590   24.2311 N   0  0  0  0  0  0
  -23.4054  -30.4845   21.5441 C   0  0  2  0  0  0
  -24.8546  -28.9360   20.1206 C   0  0  0  0  0  0
  -22.7421  -29.4632   22.4957 C   0  0  0  0  0  0
  -18.0278  -28.1369   22.8487 C   0  0  0  0  0  0
  -24.1501  -36.7308   23.2635 C   0  0  0  0  0  0
  -25.9355  -30.8173   21.3665 C   0  0  0  0  0  0
  -26.0123  -29.4455   20.7218 C   0  0  0  0  0  0
  -27.2046  -28.6841   20.7158 C   0  0  0  0  0  0
  -26.0667  -26.9087   19.5042 C   0  0  0  0  0  0
  -24.8767  -27.6671   19.5108 C   0  0  0  0  0  0
  -23.6189  -29.8085   20.1622 C   0  0  0  0  0  0
  -25.4106  -36.3090   24.0351 C   0  0  1  0  0  0
  -20.5868  -28.3650   23.1314 C   0  0  2  0  0  0
  -20.6774  -26.9382   22.5412 C   0  0  0  0  0  0
  -19.5751  -26.6373   21.5216 C   0  0  0  0  0  0
  -18.1928  -26.7915   22.1620 C   0  0  0  0  0  0
  -19.1530  -28.8823   23.2904 C   0  0  0  0  0  0
  -18.9462  -30.1433   23.8902 C   0  0  0  0  0  0
  -17.6463  -30.6574   24.0555 C   0  0  0  0  0  0
  -25.9033  -34.9467   23.5138 C   0  0  0  0  0  0
  -16.5351  -29.9074   23.6319 C   0  0  0  0  0  0
  -16.7267  -28.6496   23.0332 C   0  0  0  0  0  0
  -26.4450  -31.6556   25.0687 C   0  0  0  0  0  0
  -25.3722  -31.3667   26.1441 C   0  0  0  0  0  0
  -27.0252  -30.2985   24.6056 C   0  0  0  0  0  0
  -27.6041  -32.4245   25.7437 C   0  0  0  0  0  0
  -27.5603  -37.1791   24.8456 C   0  0  0  0  0  0
  -21.4145  -29.3017   22.3716 N   0  0  0  0  0  0
  -26.4294  -37.3781   23.9430 N   0  0  0  0  0  0
  -24.6695  -31.0731   22.0960 N   0  0  0  0  0  0
  -23.4188  -28.8196   23.3017 O   0  0  0  0  0  0
  -28.4318  -26.7069   20.0606 O   0  0  0  0  0  0
  -26.5606  -34.8927   22.4704 O   0  0  0  0  0  0
  -23.5329  -32.1408   23.7430 O   0  0  0  0  0  0
  -29.3487  -23.1884   19.2832 C   0  0  0  0  0  0
  -29.2705  -22.5240   20.5417 C   0  0  0  0  0  0
  -28.5262  -25.3245   20.1927 C   0  0  0  0  0  0
  -29.0021  -24.5519   19.1117 C   0  0  0  0  0  0
  -28.6979  -23.2996   21.5899 C   0  0  0  0  0  0
  -28.3362  -24.6649   21.4276 C   0  0  0  0  0  0
  -31.3279  -21.2391   20.3507 C   0  0  0  0  0  0
  -30.9167  -18.0474   21.1035 C   0  0  0  0  0  0
  -28.5898  -17.4013   20.5090 C   0  0  0  0  0  0
  -31.0510  -16.6757   21.8401 C   0  0  0  0  0  0
  -28.7933  -16.1236   21.3603 C   0  0  0  0  0  0
  -29.4582  -18.5981   20.9972 C   0  0  0  0  0  0
  -28.0001  -20.0664   19.5282 C   0  0  0  0  0  0
  -32.2963  -22.0925   21.1713 C   0  0  0  0  0  0
  -29.8691  -21.1271   20.8408 C   0  0  2  0  0  0
  -30.1788  -15.6164   21.2802 N   0  0  0  0  0  0
  -29.3262  -19.8814   20.1751 N   0  3  1  0  0  0
  -31.7017  -20.6745   19.3156 O   0  0  0  0  0  0
  -29.1935  -25.1354   17.9043 F   0  0  0  0  0  0
  -28.5620  -22.7400   22.8165 F   0  0  0  0  0  0
  -27.8711  -25.3610   22.4938 F   0  0  0  0  0  0
  -33.9951  -21.9377   20.6295 Cl  0  0  0  0  0  0
  -31.4618  -12.4632   19.1194 H   0  0  0  0  0  0
  -30.3483  -11.3570   19.8524 H   0  0  0  0  0  0
  -29.7587  -11.7561   17.4493 H   0  0  0  0  0  0
  -29.6259  -13.4716   17.7415 H   0  0  0  0  0  0
  -27.8652  -11.2548   18.8514 H   0  0  0  0  0  0
  -27.3574  -12.5382   17.7855 H   0  0  0  0  0  0
  -27.6728  -14.1908   19.4693 H   0  0  0  0  0  0
  -28.7200  -11.9530   21.3045 H   0  0  0  0  0  0
  -28.4552  -13.5429   21.8941 H   0  0  0  0  0  0
  -25.2739   -9.5622   22.4803 H   0  0  0  0  0  0
  -23.9969   -7.4577   22.7471 H   0  0  0  0  0  0
  -21.0826   -8.8736   19.8953 H   0  0  0  0  0  0
  -22.3682  -10.9646   19.6193 H   0  0  0  0  0  0
  -21.1976   -7.6130   23.9712 H   0  0  0  0  0  0
  -21.1502   -6.0522   25.9087 H   0  0  0  0  0  0
  -22.0601   -2.7595   23.2875 H   0  0  0  0  0  0
  -22.4081  -11.9869   22.4793 H   0  0  0  0  0  0
  -21.1127  -13.1273   22.2628 H   0  0  0  0  0  0
  -24.6532  -15.8254   20.4722 H   0  0  0  0  0  0
  -26.2610  -15.5999   20.0054 H   0  0  0  0  0  0
  -26.7092  -32.5502   23.1110 H   0  0  0  0  0  0
  -25.0013  -33.9741   25.0444 H   0  0  0  0  0  0
  -22.6948  -31.2999   21.3961 H   0  0  0  0  0  0
  -23.3779  -35.9625   23.3251 H   0  0  0  0  0  0
  -24.3628  -36.8954   22.2062 H   0  0  0  0  0  0
  -23.7240  -37.6501   23.6660 H   0  0  0  0  0  0
  -26.0592  -31.5799   20.5964 H   0  0  0  0  0  0
  -26.8202  -30.8670   21.9905 H   0  0  0  0  0  0
  -28.1027  -29.0787   21.1699 H   0  0  0  0  0  0
  -26.0756  -25.9449   19.0146 H   0  0  0  0  0  0
  -23.9883  -27.2730   19.0373 H   0  0  0  0  0  0
  -23.7289  -30.5782   19.3965 H   0  0  0  0  0  0
  -22.7436  -29.2274   19.8662 H   0  0  0  0  0  0
  -25.1276  -36.1942   25.0844 H   0  0  0  0  0  0
  -20.9959  -28.3211   24.1441 H   0  0  0  0  0  0
  -20.5686  -26.2255   23.3597 H   0  0  0  0  0  0
  -21.6640  -26.7426   22.1192 H   0  0  0  0  0  0
  -19.6918  -25.6294   21.1222 H   0  0  0  0  0  0
  -19.6698  -27.3206   20.6765 H   0  0  0  0  0  0
  -17.4201  -26.6667   21.4019 H   0  0  0  0  0  0
  -18.0315  -26.0048   22.8998 H   0  0  0  0  0  0
  -19.7948  -30.7253   24.2266 H   0  0  0  0  0  0
  -17.5019  -31.6255   24.5143 H   0  0  0  0  0  0
  -15.5352  -30.2974   23.7648 H   0  0  0  0  0  0
  -15.8668  -28.0825   22.7027 H   0  0  0  0  0  0
  -24.5909  -30.6983   25.7790 H   0  0  0  0  0  0
  -24.8891  -32.2817   26.4875 H   0  0  0  0  0  0
  -25.8081  -30.8853   27.0203 H   0  0  0  0  0  0
  -26.2769  -29.6770   24.1111 H   0  0  0  0  0  0
  -27.4014  -29.7181   25.4491 H   0  0  0  0  0  0
  -27.8622  -30.4289   23.9193 H   0  0  0  0  0  0
  -27.2695  -33.3557   26.2018 H   0  0  0  0  0  0
  -28.3849  -32.6767   25.0249 H   0  0  0  0  0  0
  -28.0699  -31.8347   26.5344 H   0  0  0  0  0  0
  -28.2551  -38.0158   24.7570 H   0  0  0  0  0  0
  -28.1169  -36.2688   24.6165 H   0  0  0  0  0  0
  -27.2340  -37.1285   25.8862 H   0  0  0  0  0  0
  -20.9296  -29.8749   21.6950 H   0  0  0  0  0  0
  -26.0183  -38.2855   24.1453 H   0  0  0  0  0  0
  -29.7557  -22.6779   18.4223 H   0  0  0  0  0  0
  -31.3429  -17.9415   20.1049 H   0  0  0  0  0  0
  -31.5486  -18.7609   21.6320 H   0  0  0  0  0  0
  -27.5302  -17.6555   20.5542 H   0  0  0  0  0  0
  -28.8139  -17.1668   19.4675 H   0  0  0  0  0  0
  -30.8014  -16.7987   22.8950 H   0  0  0  0  0  0
  -32.0989  -16.3710   21.8426 H   0  0  0  0  0  0
  -28.0368  -15.4214   21.0666 H   0  0  0  0  0  0
  -28.5570  -16.3338   22.4047 H   0  0  0  0  0  0
  -29.1086  -18.8318   22.0041 H   0  0  0  0  0  0
  -27.7450  -19.2236   18.8873 H   0  0  0  0  0  0
  -27.9848  -20.9256   18.8612 H   0  0  0  0  0  0
  -27.2093  -20.1930   20.2671 H   0  0  0  0  0  0
  -32.2476  -21.7977   22.2192 H   0  0  0  0  0  0
  -32.0182  -23.1433   21.1025 H   0  0  0  0  0  0
  -29.8717  -20.9602   21.9181 H   0  0  0  0  0  0
  -29.9807  -19.7762   19.4058 H   0  0  0  0  0  0
  1 25  1  0  0  0
  1 30  2  0  0  0
  1 86  1  0  0  0
  2  3  1  0  0  0
  2 25  1  0  0  0
  2 93  1  0  0  0
  2 94  1  0  0  0
  3  4  1  0  0  0
  3 95  1  0  0  0
  3 96  1  0  0  0
  4  5  1  0  0  0
  4 97  1  0  0  0
  4 98  1  0  0  0
  5  6  1  0  0  0
  5 26  1  0  0  0
  5 99  1  0  0  0
  6 25  1  0  0  0
  6100  1  0  0  0
  6101  1  0  0  0
  7  8  2  0  0  0
  7 26  1  0  0  0
  7 29  1  0  0  0
  8  9  1  0  0  0
  8 22  1  0  0  0
  9 10  1  0  0  0
  9 27  2  0  0  0
 10 11  2  0  0  0
 10 15  1  0  0  0
 11 12  1  0  0  0
 11102  1  0  0  0
 12 13  2  0  0  0
 12103  1  0  0  0
 13 14  1  0  0  0
 13 31  1  0  0  0
 14 15  2  0  0  0
 14104  1  0  0  0
 15105  1  0  0  0
 16 17  2  0  0  0
 16 21  1  0  0  0
 16 31  1  0  0  0
 17 18  1  0  0  0
 17106  1  0  0  0
 18 19  2  0  0  0
 18107  1  0  0  0
 19 20  1  0  0  0
 19 24  1  0  0  0
 20 21  2  0  0  0
 20108  1  0  0  0
 21 23  1  0  0  0
 22 28  1  0  0  0
 22 32  2  0  0  0
 26 27  1  0  0  0
 28109  1  0  0  0
 28110  1  0  0  0
 29111  1  0  0  0
 29112  1  0  0  0
 33 34  1  0  0  0
 33 66  1  0  0  0
 33 70  2  0  0  0
 34 36  1  0  0  0
 34 59  1  0  0  0
 34113  1  0  0  0
 35 44  2  0  0  0
 35 45  1  0  0  0
 35 68  1  0  0  0
 36 56  1  0  0  0
 36114  1  0  0  0
 37 39  1  0  0  0
 37 47  1  0  0  0
 37 66  1  0  0  0
 37115  1  0  0  0
 38 43  2  0  0  0
 38 46  1  0  0  0
 38 47  1  0  0  0
 39 64  1  0  0  0
 39 67  2  0  0  0
 40 52  1  0  0  0
 40 53  2  0  0  0
 40 58  1  0  0  0
 41116  1  0  0  0
 41117  1  0  0  0
 41118  1  0  0  0
 41 48  1  0  0  0
 42 43  1  0  0  0
 42 66  1  0  0  0
 42119  1  0  0  0
 42120  1  0  0  0
 43 44  1  0  0  0
 44121  1  0  0  0
 45 46  2  0  0  0
 45122  1  0  0  0
 46123  1  0  0  0
 47124  1  0  0  0
 47125  1  0  0  0
 48 56  1  0  0  0
 48 65  1  0  0  0
 48126  1  0  0  0
 49 50  1  0  0  0
 49 53  1  0  0  0
 49 64  1  0  0  0
 49127  1  0  0  0
 50 51  1  0  0  0
 50128  1  0  0  0
 50129  1  0  0  0
 51 52  1  0  0  0
 51130  1  0  0  0
 51131  1  0  0  0
 52132  1  0  0  0
 52133  1  0  0  0
 53 54  1  0  0  0
 54 55  2  0  0  0
 54134  1  0  0  0
 55 57  1  0  0  0
 55135  1  0  0  0
 56 69  2  0  0  0
 57 58  2  0  0  0
 57136  1  0  0  0
 58137  1  0  0  0
 59 60  1  0  0  0
 59 61  1  0  0  0
 59 62  1  0  0  0
 60138  1  0  0  0
 60139  1  0  0  0
 60140  1  0  0  0
 61141  1  0  0  0
 61142  1  0  0  0
 61143  1  0  0  0
 62144  1  0  0  0
 62145  1  0  0  0
 62146  1  0  0  0
 63 65  1  0  0  0
 63147  1  0  0  0
 63148  1  0  0  0
 63149  1  0  0  0
 64150  1  0  0  0
 65151  1  0  0  0
 68 73  1  0  0  0
 71 72  2  0  0  0
 71 74  1  0  0  0
 71152  1  0  0  0
 72 75  1  0  0  0
 72 85  1  0  0  0
 73 74  2  0  0  0
 73 76  1  0  0  0
 74 89  1  0  0  0
 75 76  2  0  0  0
 75 90  1  0  0  0
 76 91  1  0  0  0
 77 84  1  0  0  0
 77 88  2  0  0  0
 77 85  1  0  0  0
 78 80  1  0  0  0
 78153  1  0  0  0
 78154  1  0  0  0
 78 82  1  0  0  0
 79 81  1  0  0  0
 79 82  1  0  0  0
 79155  1  0  0  0
 79156  1  0  0  0
 80 86  1  0  0  0
 80157  1  0  0  0
 80158  1  0  0  0
 81 86  1  0  0  0
 81159  1  0  0  0
 81160  1  0  0  0
 82 87  1  0  0  0
 82161  1  0  0  0
 83162  1  0  0  0
 83163  1  0  0  0
 83164  1  0  0  0
 83 87  1  0  0  0
 84 92  1  0  0  0
 84165  1  0  0  0
 84166  1  0  0  0
 85 87  1  0  0  0
 85167  1  0  0  0
 87168  1  0  0  0
M  CHG  1  87   1
M  ISO  4   1 100  68 101  73 101  86 100
M  END
> <chiral flag>
0

> <version>
0

> <s_m_source_file>
/data/baiqing/PycharmProjects/Reinvent-master-3.2/result/LINK_invent/BTK/process_docking_weight1_custom_sum_contain_oxygen_bond_distance_aromatic_linkinvent_7_9_3/rearranged_h_0014.sdf

> <i_m_source_file_index>
5

> <r_mmod_Potential_Energy-OPLS-2005>
49.8657264709473

> <r_mmod_Stretch_Energy-OPLS-2005>
65.4765472412109

> <r_mmod_Bend_Energy-OPLS-2005>
159.001205444336

> <r_mmod_Torsional_Energy-OPLS-2005>
317.32177734375

> <r_mmod_Improper_Torsional_Energy-OPLS-2005>
4.31894588470459

> <r_mmod_Van_der_Waal_Energy-OPLS-2005>
171.20768737793

> <r_mmod_Electrostatic_Energy-OPLS-2005>
-213.263366699219

> <r_mmod_Solvation_Energy-OPLS-2005>
-474.451568603516

> <b_mmod_Minimization_Converged-OPLS-2005>
0

> <r_mmod_RMS_Derivative-OPLS-2005>
2.14411616325378

$$$$
5
                    3D
 Structure written by MMmdl.
156164  0  0  1  0            999 V2000
  -30.6154  -14.7861   20.4488 C   0  0  0  0  0  0
  -30.4296  -12.4820   19.4804 C   0  0  0  0  0  0
  -29.5110  -12.5095   18.2398 C   0  0  0  0  0  0
  -28.0384  -12.3289   18.6544 C   0  0  0  0  0  0
  -27.6365  -13.2400   19.8453 C   0  0  2  0  0  0
  -28.6821  -13.2060   20.9814 C   0  0  0  0  0  0
  -25.2484  -13.8214   20.5707 C   0  0  0  0  0  0
  -24.1786  -13.0445   20.9215 C   0  0  0  0  0  0
  -24.6391  -11.6926   20.8745 C   0  0  0  0  0  0
  -23.9068  -10.4297   21.0401 C   0  0  0  0  0  0
  -24.3617   -9.4210   21.9179 C   0  0  0  0  0  0
  -23.6291   -8.2244   22.0751 C   0  0  0  0  0  0
  -22.4271   -8.0283   21.3544 C   0  0  0  0  0  0
  -21.9909   -9.0258   20.4648 C   0  0  0  0  0  0
  -22.7240  -10.2138   20.3053 C   0  0  0  0  0  0
  -21.6857   -6.0731   22.5275 C   0  0  0  0  0  0
  -21.4020   -6.5635   23.8209 C   0  0  0  0  0  0
  -21.3660   -5.6787   24.9171 C   0  0  0  0  0  0
  -21.6044   -4.3049   24.7223 C   0  0  0  0  0  0
  -21.8820   -3.8143   23.4343 C   0  0  0  0  0  0
  -21.9195   -4.6959   22.3398 C   0  0  0  0  0  0
  -22.7804  -13.5219   21.1873 C   0  0  0  0  0  0
  -22.1661   -4.2145   21.0975 F   0  0  0  0  0  0
  -21.5628   -3.4533   25.7734 F   0  0  0  0  0  0
  -29.9767  -13.5630   20.3898 N   0  0  0  0  0  0
  -26.2915  -12.9438   20.3272 N   0  0  0  0  0  0
  -25.9324  -11.6572   20.5742 N   0  0  0  0  0  0
  -22.0453  -12.8211   22.0431 N   0  0  0  0  0  0
  -25.4142  -15.1940   20.4135 N   0  0  0  0  0  0
  -31.8116  -14.8330   20.1508 O   0  0  0  0  0  0
  -21.6642   -6.8876   21.4237 O   0  0  0  0  0  0
  -22.3479  -14.5519   20.6712 O   0  0  0  0  0  0
  -24.6340  -31.8528   23.1966 C   0  0  0  0  0  0
  -25.9156  -32.4737   23.8317 C   0  0  1  0  0  0
  -27.2114  -27.2283   20.1372 C   0  0  0  0  0  0
  -25.5943  -33.8542   24.2239 N   0  0  0  0  0  0
  -23.4316  -30.4751   21.5413 C   0  0  2  0  0  0
  -24.8768  -28.9151   20.1135 C   0  0  0  0  0  0
  -22.7512  -29.4589   22.4908 C   0  0  0  0  0  0
  -18.0294  -28.1387   22.8482 C   0  0  0  0  0  0
  -24.1492  -36.7275   23.2638 C   0  0  0  0  0  0
  -25.9802  -30.7545   21.3823 C   0  0  0  0  0  0
  -26.0503  -29.3737   20.7251 C   0  0  0  0  0  0
  -27.2213  -28.5444   20.7215 C   0  0  0  0  0  0
  -26.0173  -26.8478   19.4881 C   0  0  0  0  0  0
  -24.8672  -27.6616   19.4830 C   0  0  0  0  0  0
  -23.6513  -29.8084   20.1582 C   0  0  0  0  0  0
  -25.4119  -36.3057   24.0320 C   0  0  1  0  0  0
  -20.5899  -28.3700   23.1266 C   0  0  2  0  0  0
  -20.6785  -26.9415   22.5413 C   0  0  0  0  0  0
  -19.5762  -26.6381   21.5216 C   0  0  0  0  0  0
  -18.1939  -26.7930   22.1622 C   0  0  0  0  0  0
  -19.1547  -28.8863   23.2868 C   0  0  0  0  0  0
  -18.9466  -30.1463   23.8885 C   0  0  0  0  0  0
  -17.6465  -30.6590   24.0558 C   0  0  0  0  0  0
  -25.9062  -34.9429   23.5082 C   0  0  0  0  0  0
  -16.5357  -29.9082   23.6331 C   0  0  0  0  0  0
  -16.7279  -28.6501   23.0351 C   0  0  0  0  0  0
  -26.4507  -31.6576   25.0724 C   0  0  0  0  0  0
  -25.3715  -31.3755   26.1437 C   0  0  0  0  0  0
  -27.0349  -30.2978   24.6251 C   0  0  0  0  0  0
  -27.6055  -32.4322   25.7504 C   0  0  0  0  0  0
  -27.5579  -37.1792   24.8459 C   0  0  0  0  0  0
  -21.4217  -29.3042   22.3651 N   0  0  0  0  0  0
  -26.4287  -37.3762   23.9405 N   0  0  0  0  0  0
  -24.7011  -31.0465   22.0959 N   0  0  0  0  0  0
  -23.4198  -28.8132   23.3020 O   0  0  0  0  0  0
  -28.3065  -26.3264   20.1629 O   0  0  0  0  0  0
  -26.5636  -34.8910   22.4653 O   0  0  0  0  0  0
  -23.5482  -32.1365   23.7245 O   0  0  0  0  0  0
  -31.5954  -17.7406   20.9457 C   0  0  0  0  0  0
  -32.0267  -19.0775   21.0573 C   0  0  0  0  0  0
  -29.7709  -19.9604   20.5692 C   0  0  0  0  0  0
  -30.2545  -17.4064   20.6499 C   0  0  0  0  0  0
  -31.1358  -20.1577   20.8878 C   0  0  0  0  0  0
  -29.3520  -18.5519   20.4678 C   0  0  0  0  0  0
  -29.1860  -23.8181   19.7443 C   0  0  0  0  0  0
  -33.4784  -19.3699   21.3897 C   0  0  0  0  0  0
  -30.1436  -24.6158   18.8822 C   0  0  0  0  0  0
  -28.8399  -21.2812   20.4484 C   0  0  0  0  0  0
  -28.1018  -24.8281   20.3692 C   0  0  0  0  0  0
  -29.4407  -22.5101   19.7761 N   0  0  0  0  0  0
  -29.8602  -15.9556   20.6024 N   0  0  0  0  0  0
  -31.6232  -21.4088   21.0715 F   0  0  0  0  0  0
  -27.6932  -18.2015   20.1323 Cl  0  0  0  0  0  0
  -31.4710  -12.6005   19.1768 H   0  0  0  0  0  0
  -30.3757  -11.5150   19.9824 H   0  0  0  0  0  0
  -29.8013  -11.7281   17.5366 H   0  0  0  0  0  0
  -29.6318  -13.4572   17.7125 H   0  0  0  0  0  0
  -27.9028  -11.2823   18.9296 H   0  0  0  0  0  0
  -27.3804  -12.5067   17.8026 H   0  0  0  0  0  0
  -27.6201  -14.2548   19.4477 H   0  0  0  0  0  0
  -28.7285  -12.2180   21.4417 H   0  0  0  0  0  0
  -28.4124  -13.9043   21.7755 H   0  0  0  0  0  0
  -25.2764   -9.5690   22.4749 H   0  0  0  0  0  0
  -24.0007   -7.4636   22.7469 H   0  0  0  0  0  0
  -21.0839   -8.8776   19.8953 H   0  0  0  0  0  0
  -22.3696  -10.9672   19.6159 H   0  0  0  0  0  0
  -21.2015   -7.6143   23.9711 H   0  0  0  0  0  0
  -21.1481   -6.0517   25.9074 H   0  0  0  0  0  0
  -22.0598   -2.7605   23.2841 H   0  0  0  0  0  0
  -22.4077  -11.9887   22.4839 H   0  0  0  0  0  0
  -21.1069  -13.1232   22.2635 H   0  0  0  0  0  0
  -24.6437  -15.8426   20.5320 H   0  0  0  0  0  0
  -26.2572  -15.6451   20.0841 H   0  0  0  0  0  0
  -26.7220  -32.5369   23.1050 H   0  0  0  0  0  0
  -25.0081  -33.9675   25.0379 H   0  0  0  0  0  0
  -22.7290  -31.2981   21.3941 H   0  0  0  0  0  0
  -23.3753  -35.9606   23.3297 H   0  0  0  0  0  0
  -24.3580  -36.8904   22.2053 H   0  0  0  0  0  0
  -23.7251  -37.6476   23.6670 H   0  0  0  0  0  0
  -26.1250  -31.5134   20.6123 H   0  0  0  0  0  0
  -26.8554  -30.8019   22.0188 H   0  0  0  0  0  0
  -28.1213  -28.8914   21.2095 H   0  0  0  0  0  0
  -25.9497  -25.9016   18.9733 H   0  0  0  0  0  0
  -23.9714  -27.3098   18.9899 H   0  0  0  0  0  0
  -23.7822  -30.5843   19.4031 H   0  0  0  0  0  0
  -22.7678  -29.2465   19.8506 H   0  0  0  0  0  0
  -25.1304  -36.1895   25.0813 H   0  0  0  0  0  0
  -20.9987  -28.3284   24.1389 H   0  0  0  0  0  0
  -20.5690  -26.2307   23.3619 H   0  0  0  0  0  0
  -21.6653  -26.7441   22.1205 H   0  0  0  0  0  0
  -19.6923  -25.6289   21.1255 H   0  0  0  0  0  0
  -19.6704  -27.3180   20.6736 H   0  0  0  0  0  0
  -17.4212  -26.6673   21.4023 H   0  0  0  0  0  0
  -18.0336  -26.0077   22.9023 H   0  0  0  0  0  0
  -19.7942  -30.7282   24.2250 H   0  0  0  0  0  0
  -17.5018  -31.6269   24.5161 H   0  0  0  0  0  0
  -15.5356  -30.2976   23.7669 H   0  0  0  0  0  0
  -15.8679  -28.0815   22.7069 H   0  0  0  0  0  0
  -24.5891  -30.7100   25.7771 H   0  0  0  0  0  0
  -24.8901  -32.2934   26.4820 H   0  0  0  0  0  0
  -25.8013  -30.8964   27.0241 H   0  0  0  0  0  0
  -26.2942  -29.6728   24.1247 H   0  0  0  0  0  0
  -27.3968  -29.7248   25.4798 H   0  0  0  0  0  0
  -27.8850  -30.4225   23.9541 H   0  0  0  0  0  0
  -27.2654  -33.3624   26.2068 H   0  0  0  0  0  0
  -28.3872  -32.6881   25.0340 H   0  0  0  0  0  0
  -28.0713  -31.8455   26.5431 H   0  0  0  0  0  0
  -28.2589  -38.0096   24.7505 H   0  0  0  0  0  0
  -28.1082  -36.2624   24.6281 H   0  0  0  0  0  0
  -27.2296  -37.1439   25.8862 H   0  0  0  0  0  0
  -20.9407  -29.8751   21.6843 H   0  0  0  0  0  0
  -26.0160  -38.2832   24.1408 H   0  0  0  0  0  0
  -32.3266  -16.9675   21.1229 H   0  0  0  0  0  0
  -34.0815  -18.4620   21.4195 H   0  0  0  0  0  0
  -33.5509  -19.8587   22.3616 H   0  0  0  0  0  0
  -33.9118  -20.0354   20.6422 H   0  0  0  0  0  0
  -29.5956  -25.1403   18.0991 H   0  0  0  0  0  0
  -30.8852  -23.9747   18.4045 H   0  0  0  0  0  0
  -30.6728  -25.3516   19.4875 H   0  0  0  0  0  0
  -28.5060  -21.5418   21.4536 H   0  0  0  0  0  0
  -27.9375  -20.9980   19.9059 H   0  0  0  0  0  0
  -28.0807  -24.6597   21.4459 H   0  0  0  0  0  0
  -27.1272  -24.5006   20.0154 H   0  0  0  0  0  0
  -28.8672  -15.7951   20.6691 H   0  0  0  0  0  0
  1 25  1  0  0  0
  1 30  2  0  0  0
  1 83  1  0  0  0
  2  3  1  0  0  0
  2 25  1  0  0  0
  2 86  1  0  0  0
  2 87  1  0  0  0
  3  4  1  0  0  0
  3 88  1  0  0  0
  3 89  1  0  0  0
  4  5  1  0  0  0
  4 90  1  0  0  0
  4 91  1  0  0  0
  5  6  1  0  0  0
  5 26  1  0  0  0
  5 92  1  0  0  0
  6 25  1  0  0  0
  6 93  1  0  0  0
  6 94  1  0  0  0
  7  8  2  0  0  0
  7 26  1  0  0  0
  7 29  1  0  0  0
  8  9  1  0  0  0
  8 22  1  0  0  0
  9 10  1  0  0  0
  9 27  2  0  0  0
 10 11  2  0  0  0
 10 15  1  0  0  0
 11 12  1  0  0  0
 11 95  1  0  0  0
 12 13  2  0  0  0
 12 96  1  0  0  0
 13 14  1  0  0  0
 13 31  1  0  0  0
 14 15  2  0  0  0
 14 97  1  0  0  0
 15 98  1  0  0  0
 16 17  2  0  0  0
 16 21  1  0  0  0
 16 31  1  0  0  0
 17 18  1  0  0  0
 17 99  1  0  0  0
 18 19  2  0  0  0
 18100  1  0  0  0
 19 20  1  0  0  0
 19 24  1  0  0  0
 20 21  2  0  0  0
 20101  1  0  0  0
 21 23  1  0  0  0
 22 28  1  0  0  0
 22 32  2  0  0  0
 26 27  1  0  0  0
 28102  1  0  0  0
 28103  1  0  0  0
 29104  1  0  0  0
 29105  1  0  0  0
 33 34  1  0  0  0
 33 66  1  0  0  0
 33 70  2  0  0  0
 34 36  1  0  0  0
 34 59  1  0  0  0
 34106  1  0  0  0
 35 44  2  0  0  0
 35 45  1  0  0  0
 35 68  1  0  0  0
 36 56  1  0  0  0
 36107  1  0  0  0
 37 39  1  0  0  0
 37 47  1  0  0  0
 37 66  1  0  0  0
 37108  1  0  0  0
 38 43  2  0  0  0
 38 46  1  0  0  0
 38 47  1  0  0  0
 39 64  1  0  0  0
 39 67  2  0  0  0
 40 52  1  0  0  0
 40 53  2  0  0  0
 40 58  1  0  0  0
 41109  1  0  0  0
 41110  1  0  0  0
 41111  1  0  0  0
 41 48  1  0  0  0
 42 43  1  0  0  0
 42 66  1  0  0  0
 42112  1  0  0  0
 42113  1  0  0  0
 43 44  1  0  0  0
 44114  1  0  0  0
 45 46  2  0  0  0
 45115  1  0  0  0
 46116  1  0  0  0
 47117  1  0  0  0
 47118  1  0  0  0
 48 56  1  0  0  0
 48 65  1  0  0  0
 48119  1  0  0  0
 49 50  1  0  0  0
 49 53  1  0  0  0
 49 64  1  0  0  0
 49120  1  0  0  0
 50 51  1  0  0  0
 50121  1  0  0  0
 50122  1  0  0  0
 51 52  1  0  0  0
 51123  1  0  0  0
 51124  1  0  0  0
 52125  1  0  0  0
 52126  1  0  0  0
 53 54  1  0  0  0
 54 55  2  0  0  0
 54127  1  0  0  0
 55 57  1  0  0  0
 55128  1  0  0  0
 56 69  2  0  0  0
 57 58  2  0  0  0
 57129  1  0  0  0
 58130  1  0  0  0
 59 60  1  0  0  0
 59 61  1  0  0  0
 59 62  1  0  0  0
 60131  1  0  0  0
 60132  1  0  0  0
 60133  1  0  0  0
 61134  1  0  0  0
 61135  1  0  0  0
 61136  1  0  0  0
 62137  1  0  0  0
 62138  1  0  0  0
 62139  1  0  0  0
 63 65  1  0  0  0
 63140  1  0  0  0
 63141  1  0  0  0
 63142  1  0  0  0
 64143  1  0  0  0
 65144  1  0  0  0
 68 81  1  0  0  0
 71 72  2  0  0  0
 71 74  1  0  0  0
 71145  1  0  0  0
 72 75  1  0  0  0
 72 78  1  0  0  0
 73 75  2  0  0  0
 73 76  1  0  0  0
 73 80  1  0  0  0
 74 76  2  0  0  0
 74 83  1  0  0  0
 75 84  1  0  0  0
 76 85  1  0  0  0
 77 79  1  0  0  0
 77 81  1  0  0  0
 77 82  2  0  0  0
 78146  1  0  0  0
 78147  1  0  0  0
 78148  1  0  0  0
 79149  1  0  0  0
 79150  1  0  0  0
 79151  1  0  0  0
 80 82  1  0  0  0
 80152  1  0  0  0
 80153  1  0  0  0
 81154  1  0  0  0
 81155  1  0  0  0
 83156  1  0  0  0
M  ISO  4   1 100  68 101  81 101  83 100
M  END
> <chiral flag>
0

> <version>
0

> <s_m_source_file>
/data/baiqing/PycharmProjects/Reinvent-master-3.2/result/LINK_invent/BTK/process_docking_weight1_custom_sum_contain_oxygen_bond_distance_aromatic_linkinvent_7_9_3/rearranged_h_0014.sdf

> <i_m_source_file_index>
6

> <r_mmod_Potential_Energy-OPLS-2005>
255.101959228516

> <r_mmod_Stretch_Energy-OPLS-2005>
157.756317138672

> <r_mmod_Bend_Energy-OPLS-2005>
220.758712768555

> <r_mmod_Torsional_Energy-OPLS-2005>
217.994171142578

> <r_mmod_Improper_Torsional_Energy-OPLS-2005>
5.53645944595337

> <r_mmod_Van_der_Waal_Energy-OPLS-2005>
140.734649658203

> <r_mmod_Electrostatic_Energy-OPLS-2005>
-390.752105712891

> <r_mmod_Solvation_Energy-OPLS-2005>
-200.19465637207

> <b_mmod_Minimization_Converged-OPLS-2005>
0

> <r_mmod_RMS_Derivative-OPLS-2005>
0.728828847408295

$$$$
6
                    3D
 Structure written by MMmdl.
165173  0  0  1  0            999 V2000
  -30.6070  -14.6466   20.5061 C   0  0  0  0  0  0
  -30.4421  -12.3957   19.4551 C   0  0  0  0  0  0
  -29.5096  -12.5132   18.2268 C   0  0  0  0  0  0
  -28.0304  -12.3567   18.6375 C   0  0  0  0  0  0
  -27.6571  -13.2166   19.8744 C   0  0  2  0  0  0
  -28.7015  -13.0555   21.0021 C   0  0  0  0  0  0
  -25.2587  -13.8162   20.5715 C   0  0  0  0  0  0
  -24.1839  -13.0423   20.9195 C   0  0  0  0  0  0
  -24.6409  -11.6898   20.8737 C   0  0  0  0  0  0
  -23.9063  -10.4284   21.0394 C   0  0  0  0  0  0
  -24.3607   -9.4199   21.9175 C   0  0  0  0  0  0
  -23.6284   -8.2235   22.0740 C   0  0  0  0  0  0
  -22.4265   -8.0273   21.3535 C   0  0  0  0  0  0
  -21.9902   -9.0246   20.4635 C   0  0  0  0  0  0
  -22.7230  -10.2131   20.3044 C   0  0  0  0  0  0
  -21.6857   -6.0727   22.5268 C   0  0  0  0  0  0
  -21.4018   -6.5629   23.8202 C   0  0  0  0  0  0
  -21.3667   -5.6781   24.9167 C   0  0  0  0  0  0
  -21.6047   -4.3041   24.7219 C   0  0  0  0  0  0
  -21.8824   -3.8136   23.4337 C   0  0  0  0  0  0
  -21.9192   -4.6955   22.3393 C   0  0  0  0  0  0
  -22.7860  -13.5216   21.1847 C   0  0  0  0  0  0
  -22.1663   -4.2139   21.0974 F   0  0  0  0  0  0
  -21.5632   -3.4525   25.7736 F   0  0  0  0  0  0
  -30.0171  -13.4088   20.4434 N   0  0  0  0  0  0
  -26.3014  -12.9345   20.3382 N   0  0  0  0  0  0
  -25.9340  -11.6497   20.5775 N   0  0  0  0  0  0
  -22.0497  -12.8218   22.0414 N   0  0  0  0  0  0
  -25.4310  -15.1882   20.4163 N   0  0  0  0  0  0
  -31.7513  -14.8342   20.0814 O   0  0  0  0  0  0
  -21.6637   -6.8864   21.4228 O   0  0  0  0  0  0
  -22.3545  -14.5522   20.6689 O   0  0  0  0  0  0
  -24.6253  -31.8566   23.2036 C   0  0  0  0  0  0
  -25.9099  -32.4765   23.8360 C   0  0  1  0  0  0
  -27.2289  -27.3226   20.1245 C   0  0  0  0  0  0
  -25.5918  -33.8565   24.2291 N   0  0  0  0  0  0
  -23.4193  -30.4799   21.5453 C   0  0  2  0  0  0
  -24.8676  -28.9301   20.1172 C   0  0  0  0  0  0
  -22.7457  -29.4614   22.4947 C   0  0  0  0  0  0
  -18.0285  -28.1370   22.8473 C   0  0  0  0  0  0
  -24.1494  -36.7285   23.2642 C   0  0  0  0  0  0
  -25.9585  -30.7923   21.3701 C   0  0  0  0  0  0
  -26.0351  -29.4181   20.7168 C   0  0  0  0  0  0
  -27.2216  -28.6268   20.7078 C   0  0  0  0  0  0
  -26.0410  -26.8836   19.5014 C   0  0  0  0  0  0
  -24.8714  -27.6683   19.5012 C   0  0  0  0  0  0
  -23.6339  -29.8083   20.1638 C   0  0  0  0  0  0
  -25.4115  -36.3076   24.0335 C   0  0  1  0  0  0
  -20.5878  -28.3679   23.1270 C   0  0  2  0  0  0
  -20.6780  -26.9402   22.5401 C   0  0  0  0  0  0
  -19.5774  -26.6379   21.5188 C   0  0  0  0  0  0
  -18.1945  -26.7920   22.1589 C   0  0  0  0  0  0
  -19.1535  -28.8838   23.2876 C   0  0  0  0  0  0
  -18.9465  -30.1431   23.8903 C   0  0  0  0  0  0
  -17.6472  -30.6580   24.0555 C   0  0  0  0  0  0
  -25.9041  -34.9440   23.5115 C   0  0  0  0  0  0
  -16.5361  -29.9075   23.6331 C   0  0  0  0  0  0
  -16.7273  -28.6484   23.0365 C   0  0  0  0  0  0
  -26.4510  -31.6563   25.0712 C   0  0  0  0  0  0
  -25.3780  -31.3664   26.1463 C   0  0  0  0  0  0
  -27.0349  -30.2998   24.6123 C   0  0  0  0  0  0
  -27.6076  -32.4295   25.7475 C   0  0  0  0  0  0
  -27.5583  -37.1795   24.8469 C   0  0  0  0  0  0
  -21.4167  -29.3047   22.3680 N   0  0  0  0  0  0
  -26.4298  -37.3766   23.9408 N   0  0  0  0  0  0
  -24.6865  -31.0583   22.0972 N   0  0  0  0  0  0
  -23.4176  -28.8143   23.3022 O   0  0  0  0  0  0
  -28.3579  -26.4927   20.1183 O   0  0  0  0  0  0
  -26.5595  -34.8904   22.4675 O   0  0  0  0  0  0
  -23.5418  -32.1366   23.7366 O   0  0  0  0  0  0
  -29.6908  -17.9835   21.8307 C   0  0  0  0  0  0
  -29.3989  -19.3760   21.7117 C   0  0  0  0  0  0
  -29.3903  -19.1431   19.3015 C   0  0  0  0  0  0
  -29.1870  -19.9920   20.4422 C   0  0  0  0  0  0
  -29.6333  -17.7240   19.4341 C   0  0  0  0  0  0
  -29.7870  -17.1142   20.7162 C   0  0  0  0  0  0
  -29.2661  -20.1813   22.9954 C   0  0  0  0  0  0
  -29.2891  -19.7597   17.9065 C   0  0  0  0  0  0
  -29.6401  -16.8247   18.1979 C   0  0  0  0  0  0
  -28.6539  -25.1399   22.0726 C   0  0  0  0  0  0
  -28.5640  -21.4544   20.3104 C   0  0  0  0  0  0
  -29.0450  -23.9995   19.7743 C   0  0  0  0  0  0
  -28.2289  -25.0940   20.5994 C   0  0  1  0  0  0
  -29.8102  -15.6670   20.9592 N   0  0  0  0  0  0
  -29.4502  -22.6727   20.4246 N   0  3  0  0  0  0
  -31.4830  -12.5295   19.1531 H   0  0  0  0  0  0
  -30.3831  -11.3958   19.8888 H   0  0  0  0  0  0
  -29.7681  -11.7563   17.4853 H   0  0  0  0  0  0
  -29.6573  -13.4794   17.7406 H   0  0  0  0  0  0
  -27.8603  -11.3019   18.8574 H   0  0  0  0  0  0
  -27.3755  -12.5997   17.7994 H   0  0  0  0  0  0
  -27.6793  -14.2564   19.5501 H   0  0  0  0  0  0
  -28.7160  -12.0281   21.3687 H   0  0  0  0  0  0
  -28.4457  -13.6687   21.8670 H   0  0  0  0  0  0
  -25.2750   -9.5677   22.4752 H   0  0  0  0  0  0
  -23.9993   -7.4624   22.7454 H   0  0  0  0  0  0
  -21.0827   -8.8749   19.8944 H   0  0  0  0  0  0
  -22.3661  -10.9665   19.6153 H   0  0  0  0  0  0
  -21.2016   -7.6140   23.9704 H   0  0  0  0  0  0
  -21.1491   -6.0513   25.9071 H   0  0  0  0  0  0
  -22.0608   -2.7596   23.2835 H   0  0  0  0  0  0
  -22.4119  -11.9890   22.4819 H   0  0  0  0  0  0
  -21.1110  -13.1242   22.2609 H   0  0  0  0  0  0
  -24.6682  -15.8434   20.5480 H   0  0  0  0  0  0
  -26.2873  -15.6322   20.1088 H   0  0  0  0  0  0
  -26.7156  -32.5448   23.1102 H   0  0  0  0  0  0
  -25.0128  -33.9713   25.0480 H   0  0  0  0  0  0
  -22.7158  -31.3022   21.4000 H   0  0  0  0  0  0
  -23.3758  -35.9615   23.3297 H   0  0  0  0  0  0
  -24.3607  -36.8913   22.2066 H   0  0  0  0  0  0
  -23.7244  -37.6485   23.6658 H   0  0  0  0  0  0
  -26.0852  -31.5544   20.6001 H   0  0  0  0  0  0
  -26.8400  -30.8465   21.9964 H   0  0  0  0  0  0
  -28.1214  -29.0007   21.1768 H   0  0  0  0  0  0
  -26.0077  -25.9214   19.0110 H   0  0  0  0  0  0
  -23.9756  -27.2921   19.0266 H   0  0  0  0  0  0
  -23.7513  -30.5804   19.4031 H   0  0  0  0  0  0
  -22.7550  -29.2354   19.8626 H   0  0  0  0  0  0
  -25.1298  -36.1936   25.0827 H   0  0  0  0  0  0
  -20.9971  -28.3251   24.1385 H   0  0  0  0  0  0
  -20.5661  -26.2281   23.3594 H   0  0  0  0  0  0
  -21.6654  -26.7429   22.1207 H   0  0  0  0  0  0
  -19.6940  -25.6285   21.1221 H   0  0  0  0  0  0
  -19.6723  -27.3174   20.6715 H   0  0  0  0  0  0
  -17.4222  -26.6647   21.3990 H   0  0  0  0  0  0
  -18.0372  -26.0057   22.8979 H   0  0  0  0  0  0
  -19.7946  -30.7226   24.2291 H   0  0  0  0  0  0
  -17.5036  -31.6266   24.5152 H   0  0  0  0  0  0
  -15.5364  -30.2985   23.7675 H   0  0  0  0  0  0
  -15.8660  -28.0800   22.7118 H   0  0  0  0  0  0
  -24.5990  -30.6951   25.7824 H   0  0  0  0  0  0
  -24.8936  -32.2812   26.4880 H   0  0  0  0  0  0
  -25.8171  -30.8887   27.0234 H   0  0  0  0  0  0
  -26.2898  -29.6733   24.1205 H   0  0  0  0  0  0
  -27.4145  -29.7247   25.4577 H   0  0  0  0  0  0
  -27.8721  -30.4310   23.9266 H   0  0  0  0  0  0
  -27.2691  -33.3612   26.2015 H   0  0  0  0  0  0
  -28.3900  -32.6823   25.0305 H   0  0  0  0  0  0
  -28.0719  -31.8443   26.5423 H   0  0  0  0  0  0
  -28.2591  -38.0102   24.7527 H   0  0  0  0  0  0
  -28.1084  -36.2630   24.6285 H   0  0  0  0  0  0
  -27.2292  -37.1445   25.8870 H   0  0  0  0  0  0
  -20.9332  -29.8803   21.6924 H   0  0  0  0  0  0
  -26.0174  -38.2832   24.1423 H   0  0  0  0  0  0
  -29.7857  -17.5566   22.8192 H   0  0  0  0  0  0
  -29.5225  -19.5841   23.8716 H   0  0  0  0  0  0
  -28.2451  -20.5344   23.1366 H   0  0  0  0  0  0
  -29.9385  -21.0395   22.9888 H   0  0  0  0  0  0
  -28.2729  -19.6768   17.5200 H   0  0  0  0  0  0
  -29.9652  -19.2804   17.1987 H   0  0  0  0  0  0
  -29.5745  -20.8108   17.8992 H   0  0  0  0  0  0
  -30.6627  -16.5942   17.8983 H   0  0  0  0  0  0
  -29.1194  -17.2553   17.3442 H   0  0  0  0  0  0
  -29.1233  -15.8867   18.3959 H   0  0  0  0  0  0
  -29.7156  -25.3642   22.1716 H   0  0  0  0  0  0
  -28.4523  -24.1934   22.5739 H   0  0  0  0  0  0
  -28.1000  -25.9106   22.6090 H   0  0  0  0  0  0
  -27.7794  -21.5575   21.0591 H   0  0  0  0  0  0
  -28.0176  -21.5167   19.3700 H   0  0  0  0  0  0
  -29.9886  -24.4718   19.4995 H   0  0  0  0  0  0
  -28.5435  -23.8074   18.8251 H   0  0  0  0  0  0
  -27.1843  -24.7835   20.5855 H   0  0  0  0  0  0
  -29.0044  -15.3294   21.4621 H   0  0  0  0  0  0
  -30.3079  -22.4044   19.9696 H   0  0  0  0  0  0
  -29.6905  -22.8232   21.3912 H   0  0  0  0  0  0
  1 25  1  0  0  0
  1 30  2  0  0  0
  1 84  1  0  0  0
  2  3  1  0  0  0
  2 25  1  0  0  0
  2 86  1  0  0  0
  2 87  1  0  0  0
  3  4  1  0  0  0
  3 88  1  0  0  0
  3 89  1  0  0  0
  4  5  1  0  0  0
  4 90  1  0  0  0
  4 91  1  0  0  0
  5  6  1  0  0  0
  5 26  1  0  0  0
  5 92  1  0  0  0
  6 25  1  0  0  0
  6 93  1  0  0  0
  6 94  1  0  0  0
  7  8  2  0  0  0
  7 26  1  0  0  0
  7 29  1  0  0  0
  8  9  1  0  0  0
  8 22  1  0  0  0
  9 10  1  0  0  0
  9 27  2  0  0  0
 10 11  2  0  0  0
 10 15  1  0  0  0
 11 12  1  0  0  0
 11 95  1  0  0  0
 12 13  2  0  0  0
 12 96  1  0  0  0
 13 14  1  0  0  0
 13 31  1  0  0  0
 14 15  2  0  0  0
 14 97  1  0  0  0
 15 98  1  0  0  0
 16 17  2  0  0  0
 16 21  1  0  0  0
 16 31  1  0  0  0
 17 18  1  0  0  0
 17 99  1  0  0  0
 18 19  2  0  0  0
 18100  1  0  0  0
 19 20  1  0  0  0
 19 24  1  0  0  0
 20 21  2  0  0  0
 20101  1  0  0  0
 21 23  1  0  0  0
 22 28  1  0  0  0
 22 32  2  0  0  0
 26 27  1  0  0  0
 28102  1  0  0  0
 28103  1  0  0  0
 29104  1  0  0  0
 29105  1  0  0  0
 33 34  1  0  0  0
 33 66  1  0  0  0
 33 70  2  0  0  0
 34 36  1  0  0  0
 34 59  1  0  0  0
 34106  1  0  0  0
 35 44  2  0  0  0
 35 45  1  0  0  0
 35 68  1  0  0  0
 36 56  1  0  0  0
 36107  1  0  0  0
 37 39  1  0  0  0
 37 47  1  0  0  0
 37 66  1  0  0  0
 37108  1  0  0  0
 38 43  2  0  0  0
 38 46  1  0  0  0
 38 47  1  0  0  0
 39 64  1  0  0  0
 39 67  2  0  0  0
 40 52  1  0  0  0
 40 53  2  0  0  0
 40 58  1  0  0  0
 41109  1  0  0  0
 41110  1  0  0  0
 41111  1  0  0  0
 41 48  1  0  0  0
 42 43  1  0  0  0
 42 66  1  0  0  0
 42112  1  0  0  0
 42113  1  0  0  0
 43 44  1  0  0  0
 44114  1  0  0  0
 45 46  2  0  0  0
 45115  1  0  0  0
 46116  1  0  0  0
 47117  1  0  0  0
 47118  1  0  0  0
 48 56  1  0  0  0
 48 65  1  0  0  0
 48119  1  0  0  0
 49 50  1  0  0  0
 49 53  1  0  0  0
 49 64  1  0  0  0
 49120  1  0  0  0
 50 51  1  0  0  0
 50121  1  0  0  0
 50122  1  0  0  0
 51 52  1  0  0  0
 51123  1  0  0  0
 51124  1  0  0  0
 52125  1  0  0  0
 52126  1  0  0  0
 53 54  1  0  0  0
 54 55  2  0  0  0
 54127  1  0  0  0
 55 57  1  0  0  0
 55128  1  0  0  0
 56 69  2  0  0  0
 57 58  2  0  0  0
 57129  1  0  0  0
 58130  1  0  0  0
 59 60  1  0  0  0
 59 61  1  0  0  0
 59 62  1  0  0  0
 60131  1  0  0  0
 60132  1  0  0  0
 60133  1  0  0  0
 61134  1  0  0  0
 61135  1  0  0  0
 61136  1  0  0  0
 62137  1  0  0  0
 62138  1  0  0  0
 62139  1  0  0  0
 63 65  1  0  0  0
 63140  1  0  0  0
 63141  1  0  0  0
 63142  1  0  0  0
 64143  1  0  0  0
 65144  1  0  0  0
 68 83  1  0  0  0
 71 72  2  0  0  0
 71 76  1  0  0  0
 71145  1  0  0  0
 72 74  1  0  0  0
 72 77  1  0  0  0
 73 74  2  0  0  0
 73 75  1  0  0  0
 73 78  1  0  0  0
 74 81  1  0  0  0
 75 76  2  0  0  0
 75 79  1  0  0  0
 76 84  1  0  0  0
 77146  1  0  0  0
 77147  1  0  0  0
 77148  1  0  0  0
 78149  1  0  0  0
 78150  1  0  0  0
 78151  1  0  0  0
 79152  1  0  0  0
 79153  1  0  0  0
 79154  1  0  0  0
 80155  1  0  0  0
 80156  1  0  0  0
 80157  1  0  0  0
 80 83  1  0  0  0
 81 85  1  0  0  0
 81158  1  0  0  0
 81159  1  0  0  0
 82 83  1  0  0  0
 82 85  1  0  0  0
 82160  1  0  0  0
 82161  1  0  0  0
 83162  1  0  0  0
 84163  1  0  0  0
 85164  1  0  0  0
 85165  1  0  0  0
M  CHG  1  85   1
M  ISO  4   1 100  68 101  83 101  84 100
M  END
> <chiral flag>
0

> <version>
0

> <s_m_source_file>
/data/baiqing/PycharmProjects/Reinvent-master-3.2/result/LINK_invent/BTK/process_docking_weight1_custom_sum_contain_oxygen_bond_distance_aromatic_linkinvent_7_9_3/rearranged_h_0014.sdf

> <i_m_source_file_index>
7

> <r_mmod_Potential_Energy-OPLS-2005>
-71.915885925293

> <r_mmod_Stretch_Energy-OPLS-2005>
89.1125946044922

> <r_mmod_Bend_Energy-OPLS-2005>
147.406372070312

> <r_mmod_Torsional_Energy-OPLS-2005>
269.691711425781

> <r_mmod_Improper_Torsional_Energy-OPLS-2005>
5.39834928512573

> <r_mmod_Van_der_Waal_Energy-OPLS-2005>
140.525787353516

> <r_mmod_Electrostatic_Energy-OPLS-2005>
-324.710754394531

> <r_mmod_Solvation_Energy-OPLS-2005>
-445.563842773438

> <b_mmod_Minimization_Converged-OPLS-2005>
0

> <r_mmod_RMS_Derivative-OPLS-2005>
1.99852228164673

$$$$
7
                    3D
 Structure written by MMmdl.
151159  0  0  1  0            999 V2000
  -30.5199  -15.0491   20.4154 C   0  0  0  0  0  0
  -30.4375  -12.6589   19.5053 C   0  0  0  0  0  0
  -29.5229  -12.5429   18.2636 C   0  0  0  0  0  0
  -28.0613  -12.3095   18.6869 C   0  0  0  0  0  0
  -27.6224  -13.2582   19.8323 C   0  0  2  0  0  0
  -28.6641  -13.3389   20.9684 C   0  0  0  0  0  0
  -25.2431  -13.8230   20.5727 C   0  0  0  0  0  0
  -24.1764  -13.0439   20.9245 C   0  0  0  0  0  0
  -24.6396  -11.6930   20.8763 C   0  0  0  0  0  0
  -23.9085  -10.4293   21.0410 C   0  0  0  0  0  0
  -24.3632   -9.4206   21.9186 C   0  0  0  0  0  0
  -23.6302   -8.2243   22.0754 C   0  0  0  0  0  0
  -22.4283   -8.0284   21.3545 C   0  0  0  0  0  0
  -21.9924   -9.0259   20.4647 C   0  0  0  0  0  0
  -22.7258  -10.2135   20.3058 C   0  0  0  0  0  0
  -21.6855   -6.0739   22.5279 C   0  0  0  0  0  0
  -21.4016   -6.5642   23.8213 C   0  0  0  0  0  0
  -21.3659   -5.6794   24.9175 C   0  0  0  0  0  0
  -21.6044   -4.3056   24.7225 C   0  0  0  0  0  0
  -21.8819   -3.8149   23.4345 C   0  0  0  0  0  0
  -21.9193   -4.6966   22.3402 C   0  0  0  0  0  0
  -22.7782  -13.5201   21.1894 C   0  0  0  0  0  0
  -22.1662   -4.2152   21.0980 F   0  0  0  0  0  0
  -21.5628   -3.4539   25.7737 F   0  0  0  0  0  0
  -29.9239  -13.7796   20.3553 N   0  0  0  0  0  0
  -26.2857  -12.9480   20.3239 N   0  0  0  0  0  0
  -25.9330  -11.6600   20.5740 N   0  0  0  0  0  0
  -22.0436  -12.8184   22.0448 N   0  0  0  0  0  0
  -25.4063  -15.1963   20.4147 N   0  0  0  0  0  0
  -31.7260  -15.0719   20.1443 O   0  0  0  0  0  0
  -21.6643   -6.8883   21.4242 O   0  0  0  0  0  0
  -22.3462  -14.5502   20.6734 O   0  0  0  0  0  0
  -24.6505  -31.8369   23.1821 C   0  0  0  0  0  0
  -25.9245  -32.4657   23.8236 C   0  0  1  0  0  0
  -27.2154  -27.0617   20.1627 C   0  0  0  0  0  0
  -25.5965  -33.8466   24.2148 N   0  0  0  0  0  0
  -23.4581  -30.4539   21.5288 C   0  0  2  0  0  0
  -24.9091  -28.8679   20.1094 C   0  0  0  0  0  0
  -22.7604  -29.4510   22.4829 C   0  0  0  0  0  0
  -18.0312  -28.1401   22.8474 C   0  0  0  0  0  0
  -24.1493  -36.7237   23.2644 C   0  0  0  0  0  0
  -26.0193  -30.6866   21.3925 C   0  0  0  0  0  0
  -26.0891  -29.2907   20.7342 C   0  0  0  0  0  0
  -27.2415  -28.4053   20.7413 C   0  0  0  0  0  0
  -26.0093  -26.7607   19.4918 C   0  0  0  0  0  0
  -24.8866  -27.6193   19.4703 C   0  0  0  0  0  0
  -23.6892  -29.7793   20.1501 C   0  0  0  0  0  0
  -25.4129  -36.3009   24.0309 C   0  0  1  0  0  0
  -20.5929  -28.3733   23.1218 C   0  0  2  0  0  0
  -20.6793  -26.9429   22.5404 C   0  0  0  0  0  0
  -19.5766  -26.6380   21.5214 C   0  0  0  0  0  0
  -18.1949  -26.7937   22.1624 C   0  0  0  0  0  0
  -19.1570  -28.8887   23.2836 C   0  0  0  0  0  0
  -18.9484  -30.1480   23.8865 C   0  0  0  0  0  0
  -17.6479  -30.6594   24.0557 C   0  0  0  0  0  0
  -25.9084  -34.9387   23.5042 C   0  0  0  0  0  0
  -16.5369  -29.9085   23.6340 C   0  0  0  0  0  0
  -16.7295  -28.6504   23.0360 C   0  0  0  0  0  0
  -26.4540  -31.6554   25.0711 C   0  0  0  0  0  0
  -25.3702  -31.3768   26.1391 C   0  0  0  0  0  0
  -27.0418  -30.2939   24.6351 C   0  0  0  0  0  0
  -27.6053  -32.4338   25.7504 C   0  0  0  0  0  0
  -27.5572  -37.1778   24.8467 C   0  0  0  0  0  0
  -21.4288  -29.3046   22.3579 N   0  0  0  0  0  0
  -26.4285  -37.3730   23.9406 N   0  0  0  0  0  0
  -24.7296  -31.0157   22.0890 N   0  0  0  0  0  0
  -23.4213  -28.8067   23.3014 O   0  0  0  0  0  0
  -28.2387  -26.0229   20.2461 O   0  0  0  0  0  0
  -26.5678  -34.8897   22.4626 O   0  0  0  0  0  0
  -23.5606  -32.1278   23.6996 O   0  0  0  0  0  0
  -30.6934  -20.6057   21.3971 C   0  0  0  0  0  0
  -31.4560  -19.5153   21.8740 C   0  0  0  0  0  0
  -29.5279  -20.4620   20.6170 C   0  0  0  0  0  0
  -30.0404  -17.7963   20.7528 C   0  0  0  0  0  0
  -31.1313  -18.1583   21.5983 C   0  0  0  0  0  0
  -29.2411  -19.0065   20.3103 C   0  0  0  0  0  0
  -28.9628  -23.2051   20.4415 C   0  0  0  0  0  0
  -32.6559  -19.8375   22.7544 C   0  0  0  0  0  0
  -27.9273  -24.4758   20.0317 C   0  0  0  0  0  0
  -28.7488  -21.7791   20.2470 N   0  0  0  0  0  0
  -29.7477  -16.2690   20.5162 N   0  0  0  0  0  0
  -30.0196  -23.5771   20.9555 O   0  0  0  0  0  0
  -32.0601  -16.9589   22.4408 Cl  0  0  0  0  0  0
  -27.8350  -18.6871   19.3607 Cl  0  0  0  0  0  0
  -31.4673  -12.8260   19.1864 H   0  0  0  0  0  0
  -30.4512  -11.7232   20.0665 H   0  0  0  0  0  0
  -29.8607  -11.7325   17.6162 H   0  0  0  0  0  0
  -29.5917  -13.4575   17.6726 H   0  0  0  0  0  0
  -27.9777  -11.2735   19.0174 H   0  0  0  0  0  0
  -27.3948  -12.4106   17.8296 H   0  0  0  0  0  0
  -27.5678  -14.2482   19.3786 H   0  0  0  0  0  0
  -28.7787  -12.3781   21.4724 H   0  0  0  0  0  0
  -28.3459  -14.0539   21.7288 H   0  0  0  0  0  0
  -25.2774   -9.5682   22.4765 H   0  0  0  0  0  0
  -24.0009   -7.4634   22.7474 H   0  0  0  0  0  0
  -21.0855   -8.8782   19.8951 H   0  0  0  0  0  0
  -22.3716  -10.9677   19.6169 H   0  0  0  0  0  0
  -21.2009   -7.6150   23.9717 H   0  0  0  0  0  0
  -21.1481   -6.0524   25.9078 H   0  0  0  0  0  0
  -22.0597   -2.7611   23.2845 H   0  0  0  0  0  0
  -22.4067  -11.9853   22.4840 H   0  0  0  0  0  0
  -21.1049  -13.1195   22.2651 H   0  0  0  0  0  0
  -24.6310  -15.8409   20.5239 H   0  0  0  0  0  0
  -26.2383  -15.6414   20.0518 H   0  0  0  0  0  0
  -26.7311  -32.5237   23.0958 H   0  0  0  0  0  0
  -25.0082  -33.9568   25.0276 H   0  0  0  0  0  0
  -22.7645  -31.2821   21.3691 H   0  0  0  0  0  0
  -23.3761  -35.9563   23.3295 H   0  0  0  0  0  0
  -24.3572  -36.8885   22.2061 H   0  0  0  0  0  0
  -23.7245  -37.6426   23.6695 H   0  0  0  0  0  0
  -26.1851  -31.4371   20.6185 H   0  0  0  0  0  0
  -26.8854  -30.7378   22.0406 H   0  0  0  0  0  0
  -28.1367  -28.7232   21.2571 H   0  0  0  0  0  0
  -25.8971  -25.8069   18.9986 H   0  0  0  0  0  0
  -23.9878  -27.2912   18.9664 H   0  0  0  0  0  0
  -23.8327  -30.5522   19.3942 H   0  0  0  0  0  0
  -22.8020  -29.2262   19.8367 H   0  0  0  0  0  0
  -25.1323  -36.1824   25.0802 H   0  0  0  0  0  0
  -21.0020  -28.3330   24.1340 H   0  0  0  0  0  0
  -20.5681  -26.2350   23.3631 H   0  0  0  0  0  0
  -21.6658  -26.7424   22.1205 H   0  0  0  0  0  0
  -19.6927  -25.6283   21.1264 H   0  0  0  0  0  0
  -19.6703  -27.3172   20.6729 H   0  0  0  0  0  0
  -17.4217  -26.6680   21.4029 H   0  0  0  0  0  0
  -18.0348  -26.0087   22.9029 H   0  0  0  0  0  0
  -19.7959  -30.7307   24.2219 H   0  0  0  0  0  0
  -17.5031  -31.6271   24.5166 H   0  0  0  0  0  0
  -15.5368  -30.2976   23.7682 H   0  0  0  0  0  0
  -15.8697  -28.0812   22.7093 H   0  0  0  0  0  0
  -24.5894  -30.7102   25.7709 H   0  0  0  0  0  0
  -24.8877  -32.2957   26.4730 H   0  0  0  0  0  0
  -25.7967  -30.8998   27.0224 H   0  0  0  0  0  0
  -26.3056  -29.6644   24.1341 H   0  0  0  0  0  0
  -27.3982  -29.7265   25.4958 H   0  0  0  0  0  0
  -27.8985  -30.4155   23.9719 H   0  0  0  0  0  0
  -27.2634  -33.3665   26.2002 H   0  0  0  0  0  0
  -28.3906  -32.6857   25.0363 H   0  0  0  0  0  0
  -28.0676  -31.8518   26.5486 H   0  0  0  0  0  0
  -28.2586  -38.0077   24.7504 H   0  0  0  0  0  0
  -28.1072  -36.2605   24.6309 H   0  0  0  0  0  0
  -27.2287  -37.1441   25.8870 H   0  0  0  0  0  0
  -20.9514  -29.8747   21.6737 H   0  0  0  0  0  0
  -26.0145  -38.2795   24.1405 H   0  0  0  0  0  0
  -31.0207  -21.5884   21.6916 H   0  0  0  0  0  0
  -32.8443  -20.9096   22.8156 H   0  0  0  0  0  0
  -33.5592  -19.3713   22.3595 H   0  0  0  0  0  0
  -32.4952  -19.4725   23.7694 H   0  0  0  0  0  0
  -26.9936  -24.2676   20.5549 H   0  0  0  0  0  0
  -27.7050  -24.3441   18.9728 H   0  0  0  0  0  0
  -27.8749  -21.5948   19.7724 H   0  0  0  0  0  0
  -28.7608  -16.0795   20.4466 H   0  0  0  0  0  0
  1 25  1  0  0  0
  1 30  2  0  0  0
  1 81  1  0  0  0
  2  3  1  0  0  0
  2 25  1  0  0  0
  2 85  1  0  0  0
  2 86  1  0  0  0
  3  4  1  0  0  0
  3 87  1  0  0  0
  3 88  1  0  0  0
  4  5  1  0  0  0
  4 89  1  0  0  0
  4 90  1  0  0  0
  5  6  1  0  0  0
  5 26  1  0  0  0
  5 91  1  0  0  0
  6 25  1  0  0  0
  6 92  1  0  0  0
  6 93  1  0  0  0
  7  8  2  0  0  0
  7 26  1  0  0  0
  7 29  1  0  0  0
  8  9  1  0  0  0
  8 22  1  0  0  0
  9 10  1  0  0  0
  9 27  2  0  0  0
 10 11  2  0  0  0
 10 15  1  0  0  0
 11 12  1  0  0  0
 11 94  1  0  0  0
 12 13  2  0  0  0
 12 95  1  0  0  0
 13 14  1  0  0  0
 13 31  1  0  0  0
 14 15  2  0  0  0
 14 96  1  0  0  0
 15 97  1  0  0  0
 16 17  2  0  0  0
 16 21  1  0  0  0
 16 31  1  0  0  0
 17 18  1  0  0  0
 17 98  1  0  0  0
 18 19  2  0  0  0
 18 99  1  0  0  0
 19 20  1  0  0  0
 19 24  1  0  0  0
 20 21  2  0  0  0
 20100  1  0  0  0
 21 23  1  0  0  0
 22 28  1  0  0  0
 22 32  2  0  0  0
 26 27  1  0  0  0
 28101  1  0  0  0
 28102  1  0  0  0
 29103  1  0  0  0
 29104  1  0  0  0
 33 34  1  0  0  0
 33 66  1  0  0  0
 33 70  2  0  0  0
 34 36  1  0  0  0
 34 59  1  0  0  0
 34105  1  0  0  0
 35 44  2  0  0  0
 35 45  1  0  0  0
 35 68  1  0  0  0
 36 56  1  0  0  0
 36106  1  0  0  0
 37 39  1  0  0  0
 37 47  1  0  0  0
 37 66  1  0  0  0
 37107  1  0  0  0
 38 43  2  0  0  0
 38 46  1  0  0  0
 38 47  1  0  0  0
 39 64  1  0  0  0
 39 67  2  0  0  0
 40 52  1  0  0  0
 40 53  2  0  0  0
 40 58  1  0  0  0
 41108  1  0  0  0
 41109  1  0  0  0
 41110  1  0  0  0
 41 48  1  0  0  0
 42 43  1  0  0  0
 42 66  1  0  0  0
 42111  1  0  0  0
 42112  1  0  0  0
 43 44  1  0  0  0
 44113  1  0  0  0
 45 46  2  0  0  0
 45114  1  0  0  0
 46115  1  0  0  0
 47116  1  0  0  0
 47117  1  0  0  0
 48 56  1  0  0  0
 48 65  1  0  0  0
 48118  1  0  0  0
 49 50  1  0  0  0
 49 53  1  0  0  0
 49 64  1  0  0  0
 49119  1  0  0  0
 50 51  1  0  0  0
 50120  1  0  0  0
 50121  1  0  0  0
 51 52  1  0  0  0
 51122  1  0  0  0
 51123  1  0  0  0
 52124  1  0  0  0
 52125  1  0  0  0
 53 54  1  0  0  0
 54 55  2  0  0  0
 54126  1  0  0  0
 55 57  1  0  0  0
 55127  1  0  0  0
 56 69  2  0  0  0
 57 58  2  0  0  0
 57128  1  0  0  0
 58129  1  0  0  0
 59 60  1  0  0  0
 59 61  1  0  0  0
 59 62  1  0  0  0
 60130  1  0  0  0
 60131  1  0  0  0
 60132  1  0  0  0
 61133  1  0  0  0
 61134  1  0  0  0
 61135  1  0  0  0
 62136  1  0  0  0
 62137  1  0  0  0
 62138  1  0  0  0
 63 65  1  0  0  0
 63139  1  0  0  0
 63140  1  0  0  0
 63141  1  0  0  0
 64142  1  0  0  0
 65143  1  0  0  0
 68 79  1  0  0  0
 71 72  2  0  0  0
 71 73  1  0  0  0
 71144  1  0  0  0
 72 75  1  0  0  0
 72 78  1  0  0  0
 73 76  2  0  0  0
 73 80  1  0  0  0
 74 75  2  0  0  0
 74 76  1  0  0  0
 74 81  1  0  0  0
 75 83  1  0  0  0
 76 84  1  0  0  0
 77 79  1  0  0  0
 77 80  1  0  0  0
 77 82  2  0  0  0
 78145  1  0  0  0
 78146  1  0  0  0
 78147  1  0  0  0
 79148  1  0  0  0
 79149  1  0  0  0
 80150  1  0  0  0
 81151  1  0  0  0
M  ISO  4   1 100  68 101  79 101  81 100
M  END
> <chiral flag>
0

> <version>
0

> <s_m_source_file>
/data/baiqing/PycharmProjects/Reinvent-master-3.2/result/LINK_invent/BTK/process_docking_weight1_custom_sum_contain_oxygen_bond_distance_aromatic_linkinvent_7_9_3/rearranged_h_0014.sdf

> <i_m_source_file_index>
8

> <r_mmod_Potential_Energy-OPLS-2005>
610.295471191406

> <r_mmod_Stretch_Energy-OPLS-2005>
355.824615478516

> <r_mmod_Bend_Energy-OPLS-2005>
274.385009765625

> <r_mmod_Torsional_Energy-OPLS-2005>
228.461090087891

> <r_mmod_Improper_Torsional_Energy-OPLS-2005>
6.61769390106201

> <r_mmod_Van_der_Waal_Energy-OPLS-2005>
141.548126220703

> <r_mmod_Electrostatic_Energy-OPLS-2005>
-424.98193359375

> <r_mmod_Solvation_Energy-OPLS-2005>
-240.263977050781

> <b_mmod_Minimization_Converged-OPLS-2005>
0

> <r_mmod_RMS_Derivative-OPLS-2005>
0.143039166927338

$$$$
8
                    3D
 Structure written by MMmdl.
151159  0  0  1  0            999 V2000
  -30.5223  -15.0453   20.4094 C   0  0  0  0  0  0
  -30.4393  -12.6545   19.5050 C   0  0  0  0  0  0
  -29.5234  -12.5370   18.2645 C   0  0  0  0  0  0
  -28.0621  -12.3049   18.6895 C   0  0  0  0  0  0
  -27.6234  -13.2566   19.8324 C   0  0  2  0  0  0
  -28.6654  -13.3375   20.9680 C   0  0  0  0  0  0
  -25.2435  -13.8228   20.5726 C   0  0  0  0  0  0
  -24.1766  -13.0440   20.9244 C   0  0  0  0  0  0
  -24.6398  -11.6930   20.8766 C   0  0  0  0  0  0
  -23.9086  -10.4294   21.0414 C   0  0  0  0  0  0
  -24.3632   -9.4206   21.9188 C   0  0  0  0  0  0
  -23.6302   -8.2243   22.0755 C   0  0  0  0  0  0
  -22.4283   -8.0284   21.3546 C   0  0  0  0  0  0
  -21.9926   -9.0260   20.4647 C   0  0  0  0  0  0
  -22.7259  -10.2136   20.3059 C   0  0  0  0  0  0
  -21.6856   -6.0740   22.5281 C   0  0  0  0  0  0
  -21.4014   -6.5642   23.8213 C   0  0  0  0  0  0
  -21.3657   -5.6794   24.9175 C   0  0  0  0  0  0
  -21.6045   -4.3057   24.7225 C   0  0  0  0  0  0
  -21.8818   -3.8150   23.4344 C   0  0  0  0  0  0
  -21.9193   -4.6967   22.3402 C   0  0  0  0  0  0
  -22.7784  -13.5202   21.1891 C   0  0  0  0  0  0
  -22.1662   -4.2151   21.0979 F   0  0  0  0  0  0
  -21.5627   -3.4540   25.7737 F   0  0  0  0  0  0
  -29.9265  -13.7755   20.3548 N   0  0  0  0  0  0
  -26.2864  -12.9475   20.3246 N   0  0  0  0  0  0
  -25.9331  -11.6598   20.5748 N   0  0  0  0  0  0
  -22.0438  -12.8186   22.0447 N   0  0  0  0  0  0
  -25.4073  -15.1958   20.4136 N   0  0  0  0  0  0
  -31.7318  -15.0618   20.1563 O   0  0  0  0  0  0
  -21.6644   -6.8883   21.4242 O   0  0  0  0  0  0
  -22.3466  -14.5504   20.6733 O   0  0  0  0  0  0
  -24.6497  -31.8383   23.1829 C   0  0  0  0  0  0
  -25.9240  -32.4664   23.8243 C   0  0  1  0  0  0
  -27.2135  -27.0690   20.1618 C   0  0  0  0  0  0
  -25.5963  -33.8473   24.2157 N   0  0  0  0  0  0
  -23.4567  -30.4561   21.5300 C   0  0  2  0  0  0
  -24.9068  -28.8718   20.1097 C   0  0  0  0  0  0
  -22.7600  -29.4520   22.4840 C   0  0  0  0  0  0
  -18.0309  -28.1403   22.8482 C   0  0  0  0  0  0
  -24.1487  -36.7238   23.2645 C   0  0  0  0  0  0
  -26.0176  -30.6906   21.3914 C   0  0  0  0  0  0
  -26.0871  -29.2950   20.7343 C   0  0  0  0  0  0
  -27.2401  -28.4110   20.7414 C   0  0  0  0  0  0
  -26.0068  -26.7673   19.4915 C   0  0  0  0  0  0
  -24.8833  -27.6239   19.4710 C   0  0  0  0  0  0
  -23.6867  -29.7826   20.1506 C   0  0  0  0  0  0
  -25.4124  -36.3011   24.0312 C   0  0  1  0  0  0
  -20.5927  -28.3733   23.1225 C   0  0  2  0  0  0
  -20.6790  -26.9428   22.5406 C   0  0  0  0  0  0
  -19.5762  -26.6383   21.5217 C   0  0  0  0  0  0
  -18.1943  -26.7944   22.1625 C   0  0  0  0  0  0
  -19.1568  -28.8889   23.2843 C   0  0  0  0  0  0
  -18.9484  -30.1486   23.8867 C   0  0  0  0  0  0
  -17.6479  -30.6600   24.0562 C   0  0  0  0  0  0
  -25.9082  -34.9391   23.5047 C   0  0  0  0  0  0
  -16.5369  -29.9092   23.6343 C   0  0  0  0  0  0
  -16.7292  -28.6510   23.0366 C   0  0  0  0  0  0
  -26.4537  -31.6559   25.0714 C   0  0  0  0  0  0
  -25.3704  -31.3782   26.1399 C   0  0  0  0  0  0
  -27.0415  -30.2948   24.6344 C   0  0  0  0  0  0
  -27.6053  -32.4344   25.7507 C   0  0  0  0  0  0
  -27.5569  -37.1777   24.8469 C   0  0  0  0  0  0
  -21.4283  -29.3049   22.3592 N   0  0  0  0  0  0
  -26.4279  -37.3732   23.9411 N   0  0  0  0  0  0
  -24.7285  -31.0183   22.0892 N   0  0  0  0  0  0
  -23.4214  -28.8072   23.3015 O   0  0  0  0  0  0
  -28.2352  -26.0301   20.2441 O   0  0  0  0  0  0
  -26.5671  -34.8901   22.4628 O   0  0  0  0  0  0
  -23.5602  -32.1281   23.7013 O   0  0  0  0  0  0
  -30.8051  -20.6155   21.0129 C   0  0  0  0  0  0
  -31.6514  -19.5300   21.3290 C   0  0  0  0  0  0
  -29.4989  -20.4533   20.4926 C   0  0  0  0  0  0
  -30.0485  -17.7917   20.6082 C   0  0  0  0  0  0
  -31.2968  -18.1757   21.1530 C   0  0  0  0  0  0
  -29.1654  -18.9813   20.3064 C   0  0  0  0  0  0
  -28.9162  -23.1864   20.3954 C   0  0  0  0  0  0
  -27.3268  -21.4550   19.6480 C   0  0  0  0  0  0
  -27.8997  -24.4909   20.0327 C   0  0  0  0  0  0
  -29.7437  -16.2601   20.4839 N   0  0  0  0  0  0
  -28.6471  -21.7572   20.2073 N   0  0  0  0  0  0
  -29.9964  -23.5401   20.8754 O   0  0  0  0  0  0
  -32.1831  -17.2452   21.5757 F   0  0  0  0  0  0
  -27.9383  -18.6748   19.8210 F   0  0  0  0  0  0
  -31.4685  -12.8218   19.1840 H   0  0  0  0  0  0
  -30.4546  -11.7196   20.0674 H   0  0  0  0  0  0
  -29.8598  -11.7240   17.6197 H   0  0  0  0  0  0
  -29.5925  -13.4496   17.6707 H   0  0  0  0  0  0
  -27.9801  -11.2703   19.0246 H   0  0  0  0  0  0
  -27.3944  -12.4012   17.8327 H   0  0  0  0  0  0
  -27.5695  -14.2459   19.3772 H   0  0  0  0  0  0
  -28.7791  -12.3771   21.4728 H   0  0  0  0  0  0
  -28.3484  -14.0534   21.7282 H   0  0  0  0  0  0
  -25.2774   -9.5679   22.4769 H   0  0  0  0  0  0
  -24.0007   -7.4632   22.7475 H   0  0  0  0  0  0
  -21.0857   -8.8784   19.8952 H   0  0  0  0  0  0
  -22.3720  -10.9678   19.6171 H   0  0  0  0  0  0
  -21.2007   -7.6150   23.9717 H   0  0  0  0  0  0
  -21.1479   -6.0524   25.9076 H   0  0  0  0  0  0
  -22.0598   -2.7612   23.2845 H   0  0  0  0  0  0
  -22.4064  -11.9853   22.4836 H   0  0  0  0  0  0
  -21.1052  -13.1198   22.2649 H   0  0  0  0  0  0
  -24.6329  -15.8417   20.5213 H   0  0  0  0  0  0
  -26.2416  -15.6410   20.0552 H   0  0  0  0  0  0
  -26.7310  -32.5247   23.0972 H   0  0  0  0  0  0
  -25.0092  -33.9579   25.0295 H   0  0  0  0  0  0
  -22.7628  -31.2843   21.3721 H   0  0  0  0  0  0
  -23.3754  -35.9561   23.3290 H   0  0  0  0  0  0
  -24.3573  -36.8888   22.2063 H   0  0  0  0  0  0
  -23.7234  -37.6425   23.6697 H   0  0  0  0  0  0
  -26.1814  -31.4400   20.6156 H   0  0  0  0  0  0
  -26.8852  -30.7436   22.0373 H   0  0  0  0  0  0
  -28.1353  -28.7288   21.2572 H   0  0  0  0  0  0
  -25.8908  -25.8147   18.9972 H   0  0  0  0  0  0
  -23.9837  -27.2955   18.9688 H   0  0  0  0  0  0
  -23.8297  -30.5562   19.3952 H   0  0  0  0  0  0
  -22.7987  -29.2302   19.8373 H   0  0  0  0  0  0
  -25.1315  -36.1825   25.0802 H   0  0  0  0  0  0
  -21.0021  -28.3320   24.1345 H   0  0  0  0  0  0
  -20.5684  -26.2345   23.3633 H   0  0  0  0  0  0
  -21.6656  -26.7428   22.1203 H   0  0  0  0  0  0
  -19.6918  -25.6285   21.1268 H   0  0  0  0  0  0
  -19.6697  -27.3180   20.6736 H   0  0  0  0  0  0
  -17.4215  -26.6697   21.4023 H   0  0  0  0  0  0
  -18.0330  -26.0094   22.9027 H   0  0  0  0  0  0
  -19.7959  -30.7317   24.2211 H   0  0  0  0  0  0
  -17.5033  -31.6275   24.5173 H   0  0  0  0  0  0
  -15.5370  -30.2987   23.7691 H   0  0  0  0  0  0
  -15.8689  -28.0823   22.7098 H   0  0  0  0  0  0
  -24.5893  -30.7112   25.7732 H   0  0  0  0  0  0
  -24.8881  -32.2977   26.4727 H   0  0  0  0  0  0
  -25.7974  -30.9030   27.0239 H   0  0  0  0  0  0
  -26.3051  -29.6660   24.1328 H   0  0  0  0  0  0
  -27.3983  -29.7263   25.4942 H   0  0  0  0  0  0
  -27.8973  -30.4175   23.9705 H   0  0  0  0  0  0
  -27.2636  -33.3682   26.1986 H   0  0  0  0  0  0
  -28.3917  -32.6845   25.0372 H   0  0  0  0  0  0
  -28.0658  -31.8531   26.5507 H   0  0  0  0  0  0
  -28.2583  -38.0076   24.7510 H   0  0  0  0  0  0
  -28.1066  -36.2608   24.6298 H   0  0  0  0  0  0
  -27.2291  -37.1427   25.8873 H   0  0  0  0  0  0
  -20.9503  -29.8763   21.6765 H   0  0  0  0  0  0
  -26.0135  -38.2793   24.1420 H   0  0  0  0  0  0
  -31.2133  -21.5925   21.2074 H   0  0  0  0  0  0
  -32.6234  -19.7465   21.7481 H   0  0  0  0  0  0
  -27.4361  -20.8606   18.7409 H   0  0  0  0  0  0
  -26.7184  -22.3145   19.3753 H   0  0  0  0  0  0
  -26.7463  -20.8737   20.3649 H   0  0  0  0  0  0
  -26.9759  -24.3009   20.5799 H   0  0  0  0  0  0
  -27.6542  -24.3814   18.9765 H   0  0  0  0  0  0
  -28.7551  -16.0687   20.4628 H   0  0  0  0  0  0
  1 25  1  0  0  0
  1 30  2  0  0  0
  1 80  1  0  0  0
  2  3  1  0  0  0
  2 25  1  0  0  0
  2 85  1  0  0  0
  2 86  1  0  0  0
  3  4  1  0  0  0
  3 87  1  0  0  0
  3 88  1  0  0  0
  4  5  1  0  0  0
  4 89  1  0  0  0
  4 90  1  0  0  0
  5  6  1  0  0  0
  5 26  1  0  0  0
  5 91  1  0  0  0
  6 25  1  0  0  0
  6 92  1  0  0  0
  6 93  1  0  0  0
  7  8  2  0  0  0
  7 26  1  0  0  0
  7 29  1  0  0  0
  8  9  1  0  0  0
  8 22  1  0  0  0
  9 10  1  0  0  0
  9 27  2  0  0  0
 10 11  2  0  0  0
 10 15  1  0  0  0
 11 12  1  0  0  0
 11 94  1  0  0  0
 12 13  2  0  0  0
 12 95  1  0  0  0
 13 14  1  0  0  0
 13 31  1  0  0  0
 14 15  2  0  0  0
 14 96  1  0  0  0
 15 97  1  0  0  0
 16 17  2  0  0  0
 16 21  1  0  0  0
 16 31  1  0  0  0
 17 18  1  0  0  0
 17 98  1  0  0  0
 18 19  2  0  0  0
 18 99  1  0  0  0
 19 20  1  0  0  0
 19 24  1  0  0  0
 20 21  2  0  0  0
 20100  1  0  0  0
 21 23  1  0  0  0
 22 28  1  0  0  0
 22 32  2  0  0  0
 26 27  1  0  0  0
 28101  1  0  0  0
 28102  1  0  0  0
 29103  1  0  0  0
 29104  1  0  0  0
 33 34  1  0  0  0
 33 66  1  0  0  0
 33 70  2  0  0  0
 34 36  1  0  0  0
 34 59  1  0  0  0
 34105  1  0  0  0
 35 44  2  0  0  0
 35 45  1  0  0  0
 35 68  1  0  0  0
 36 56  1  0  0  0
 36106  1  0  0  0
 37 39  1  0  0  0
 37 47  1  0  0  0
 37 66  1  0  0  0
 37107  1  0  0  0
 38 43  2  0  0  0
 38 46  1  0  0  0
 38 47  1  0  0  0
 39 64  1  0  0  0
 39 67  2  0  0  0
 40 52  1  0  0  0
 40 53  2  0  0  0
 40 58  1  0  0  0
 41108  1  0  0  0
 41109  1  0  0  0
 41110  1  0  0  0
 41 48  1  0  0  0
 42 43  1  0  0  0
 42 66  1  0  0  0
 42111  1  0  0  0
 42112  1  0  0  0
 43 44  1  0  0  0
 44113  1  0  0  0
 45 46  2  0  0  0
 45114  1  0  0  0
 46115  1  0  0  0
 47116  1  0  0  0
 47117  1  0  0  0
 48 56  1  0  0  0
 48 65  1  0  0  0
 48118  1  0  0  0
 49 50  1  0  0  0
 49 53  1  0  0  0
 49 64  1  0  0  0
 49119  1  0  0  0
 50 51  1  0  0  0
 50120  1  0  0  0
 50121  1  0  0  0
 51 52  1  0  0  0
 51122  1  0  0  0
 51123  1  0  0  0
 52124  1  0  0  0
 52125  1  0  0  0
 53 54  1  0  0  0
 54 55  2  0  0  0
 54126  1  0  0  0
 55 57  1  0  0  0
 55127  1  0  0  0
 56 69  2  0  0  0
 57 58  2  0  0  0
 57128  1  0  0  0
 58129  1  0  0  0
 59 60  1  0  0  0
 59 61  1  0  0  0
 59 62  1  0  0  0
 60130  1  0  0  0
 60131  1  0  0  0
 60132  1  0  0  0
 61133  1  0  0  0
 61134  1  0  0  0
 61135  1  0  0  0
 62136  1  0  0  0
 62137  1  0  0  0
 62138  1  0  0  0
 63 65  1  0  0  0
 63139  1  0  0  0
 63140  1  0  0  0
 63141  1  0  0  0
 64142  1  0  0  0
 65143  1  0  0  0
 68 79  1  0  0  0
 71 72  2  0  0  0
 71 73  1  0  0  0
 71144  1  0  0  0
 72 75  1  0  0  0
 72145  1  0  0  0
 73 76  2  0  0  0
 73 81  1  0  0  0
 74 75  2  0  0  0
 74 76  1  0  0  0
 74 80  1  0  0  0
 75 83  1  0  0  0
 76 84  1  0  0  0
 77 79  1  0  0  0
 77 81  1  0  0  0
 77 82  2  0  0  0
 78 81  1  0  0  0
 78146  1  0  0  0
 78147  1  0  0  0
 78148  1  0  0  0
 79149  1  0  0  0
 79150  1  0  0  0
 80151  1  0  0  0
M  ISO  4   1 100  68 101  79 101  80 100
M  END
> <chiral flag>
0

> <version>
0

> <s_m_source_file>
/data/baiqing/PycharmProjects/Reinvent-master-3.2/result/LINK_invent/BTK/process_docking_weight1_custom_sum_contain_oxygen_bond_distance_aromatic_linkinvent_7_9_3/rearranged_h_0014.sdf

> <i_m_source_file_index>
9

> <r_mmod_Potential_Energy-OPLS-2005>
673.103759765625

> <r_mmod_Stretch_Energy-OPLS-2005>
360.484161376953

> <r_mmod_Bend_Energy-OPLS-2005>
274.991821289062

> <r_mmod_Torsional_Energy-OPLS-2005>
240.521881103516

> <r_mmod_Improper_Torsional_Energy-OPLS-2005>
6.20059251785278

> <r_mmod_Van_der_Waal_Energy-OPLS-2005>
146.072479248047

> <r_mmod_Electrostatic_Energy-OPLS-2005>
-388.773071289062

> <r_mmod_Solvation_Energy-OPLS-2005>
-230.120666503906

> <b_mmod_Minimization_Converged-OPLS-2005>
0

> <r_mmod_RMS_Derivative-OPLS-2005>
0.690559983253479

$$$$
9
                    3D
 Structure written by MMmdl.
159166  0  0  1  0            999 V2000
  -30.6193  -14.6869   20.4847 C   0  0  0  0  0  0
  -30.4377  -12.4269   19.4471 C   0  0  0  0  0  0
  -29.5072  -12.5080   18.2186 C   0  0  0  0  0  0
  -28.0296  -12.3440   18.6316 C   0  0  0  0  0  0
  -27.6460  -13.2250   19.8520 C   0  0  2  0  0  0
  -28.6958  -13.1138   20.9789 C   0  0  0  0  0  0
  -25.2511  -13.8181   20.5680 C   0  0  0  0  0  0
  -24.1808  -13.0422   20.9223 C   0  0  0  0  0  0
  -24.6401  -11.6906   20.8741 C   0  0  0  0  0  0
  -23.9072  -10.4277   21.0395 C   0  0  0  0  0  0
  -24.3633   -9.4197   21.9172 C   0  0  0  0  0  0
  -23.6308   -8.2232   22.0732 C   0  0  0  0  0  0
  -22.4277   -8.0269   21.3527 C   0  0  0  0  0  0
  -21.9920   -9.0236   20.4625 C   0  0  0  0  0  0
  -22.7242  -10.2125   20.3029 C   0  0  0  0  0  0
  -21.6859   -6.0722   22.5280 C   0  0  0  0  0  0
  -21.4018   -6.5638   23.8209 C   0  0  0  0  0  0
  -21.3663   -5.6780   24.9174 C   0  0  0  0  0  0
  -21.6054   -4.3038   24.7225 C   0  0  0  0  0  0
  -21.8827   -3.8136   23.4341 C   0  0  0  0  0  0
  -21.9193   -4.6950   22.3400 C   0  0  0  0  0  0
  -22.7819  -13.5194   21.1886 C   0  0  0  0  0  0
  -22.1655   -4.2141   21.0970 F   0  0  0  0  0  0
  -21.5633   -3.4533   25.7741 F   0  0  0  0  0  0
  -29.9979  -13.4665   20.3973 N   0  0  0  0  0  0
  -26.2951  -12.9388   20.3282 N   0  0  0  0  0  0
  -25.9334  -11.6534   20.5770 N   0  0  0  0  0  0
  -22.0465  -12.8186   22.0441 N   0  0  0  0  0  0
  -25.4177  -15.1916   20.4110 N   0  0  0  0  0  0
  -31.8095  -14.8171   20.1845 O   0  0  0  0  0  0
  -21.6643   -6.8861   21.4234 O   0  0  0  0  0  0
  -22.3489  -14.5466   20.6682 O   0  0  0  0  0  0
  -24.6306  -31.8590   23.2002 C   0  0  0  0  0  0
  -25.9142  -32.4777   23.8339 C   0  0  1  0  0  0
  -27.2178  -27.2861   20.1127 C   0  0  0  0  0  0
  -25.5954  -33.8577   24.2272 N   0  0  0  0  0  0
  -23.4242  -30.4839   21.5466 C   0  0  2  0  0  0
  -24.8674  -28.9379   20.1092 C   0  0  0  0  0  0
  -22.7495  -29.4629   22.4947 C   0  0  0  0  0  0
  -18.0301  -28.1383   22.8483 C   0  0  0  0  0  0
  -24.1498  -36.7290   23.2638 C   0  0  0  0  0  0
  -25.9703  -30.7768   21.3780 C   0  0  0  0  0  0
  -26.0414  -29.4037   20.7152 C   0  0  0  0  0  0
  -27.2192  -28.5917   20.7040 C   0  0  0  0  0  0
  -26.0139  -26.8839   19.4853 C   0  0  0  0  0  0
  -24.8582  -27.6839   19.4848 C   0  0  0  0  0  0
  -23.6382  -29.8218   20.1620 C   0  0  0  0  0  0
  -25.4122  -36.3088   24.0334 C   0  0  1  0  0  0
  -20.5904  -28.3700   23.1275 C   0  0  2  0  0  0
  -20.6803  -26.9421   22.5411 C   0  0  0  0  0  0
  -19.5780  -26.6381   21.5217 C   0  0  0  0  0  0
  -18.1948  -26.7933   22.1612 C   0  0  0  0  0  0
  -19.1549  -28.8858   23.2880 C   0  0  0  0  0  0
  -18.9466  -30.1460   23.8894 C   0  0  0  0  0  0
  -17.6464  -30.6590   24.0559 C   0  0  0  0  0  0
  -25.9057  -34.9459   23.5109 C   0  0  0  0  0  0
  -16.5354  -29.9083   23.6333 C   0  0  0  0  0  0
  -16.7277  -28.6493   23.0358 C   0  0  0  0  0  0
  -26.4494  -31.6594   25.0725 C   0  0  0  0  0  0
  -25.3702  -31.3736   26.1433 C   0  0  0  0  0  0
  -27.0347  -30.3022   24.6199 C   0  0  0  0  0  0
  -27.6061  -32.4328   25.7484 C   0  0  0  0  0  0
  -27.5599  -37.1798   24.8456 C   0  0  0  0  0  0
  -21.4200  -29.3049   22.3659 N   0  0  0  0  0  0
  -26.4301  -37.3788   23.9411 N   0  0  0  0  0  0
  -24.6945  -31.0563   22.0982 N   0  0  0  0  0  0
  -23.4200  -28.8171   23.3041 O   0  0  0  0  0  0
  -28.3206  -26.4027   20.1639 O   0  0  0  0  0  0
  -26.5615  -34.8931   22.4670 O   0  0  0  0  0  0
  -23.5463  -32.1404   23.7318 O   0  0  0  0  0  0
  -29.5966  -21.2508   20.5052 C   0  0  0  0  0  0
  -26.5543  -21.7272   17.0533 C   0  0  0  0  0  0
  -29.1027  -19.7753   20.8733 C   0  0  0  0  0  0
  -27.8143  -21.8280   17.9209 C   0  0  0  0  0  0
  -29.6588  -18.4400   20.1609 C   0  0  0  0  0  0
  -27.5093  -22.0253   19.4186 C   0  0  0  0  0  0
  -30.1727  -17.2171   21.0753 C   0  0  0  0  0  0
  -29.1401  -23.7862   20.2841 C   0  0  0  0  0  0
  -28.0488  -24.9405   20.0070 C   0  0  0  0  0  0
  -29.8223  -15.7801   20.7357 N   0  0  0  0  0  0
  -28.7504  -22.3021   20.1632 N   0  0  0  0  0  0
  -30.7996  -21.4725   20.6650 O   0  0  0  0  0  0
  -31.4755  -12.5640   19.1397 H   0  0  0  0  0  0
  -30.3876  -11.4394   19.9067 H   0  0  0  0  0  0
  -29.7777  -11.7445   17.4882 H   0  0  0  0  0  0
  -29.6433  -13.4682   17.7199 H   0  0  0  0  0  0
  -27.8664  -11.2912   18.8641 H   0  0  0  0  0  0
  -27.3782  -12.5686   17.7867 H   0  0  0  0  0  0
  -27.6505  -14.2561   19.4978 H   0  0  0  0  0  0
  -28.7242  -12.0992   21.3778 H   0  0  0  0  0  0
  -28.4442  -13.7644   21.8176 H   0  0  0  0  0  0
  -25.2795   -9.5679   22.4742 H   0  0  0  0  0  0
  -24.0028   -7.4614   22.7449 H   0  0  0  0  0  0
  -21.0844   -8.8724   19.8945 H   0  0  0  0  0  0
  -22.3672  -10.9644   19.6124 H   0  0  0  0  0  0
  -21.2007   -7.6141   23.9710 H   0  0  0  0  0  0
  -21.1487   -6.0510   25.9071 H   0  0  0  0  0  0
  -22.0609   -2.7599   23.2842 H   0  0  0  0  0  0
  -22.4117  -11.9897   22.4896 H   0  0  0  0  0  0
  -21.1037  -13.1131   22.2576 H   0  0  0  0  0  0
  -24.6467  -15.8388   20.5315 H   0  0  0  0  0  0
  -26.2577  -15.6401   20.0683 H   0  0  0  0  0  0
  -26.7208  -32.5426   23.1078 H   0  0  0  0  0  0
  -25.0132  -33.9707   25.0440 H   0  0  0  0  0  0
  -22.7217  -31.3085   21.4060 H   0  0  0  0  0  0
  -23.3786  -35.9598   23.3273 H   0  0  0  0  0  0
  -24.3593  -36.8934   22.2057 H   0  0  0  0  0  0
  -23.7218  -37.6473   23.6667 H   0  0  0  0  0  0
  -26.1111  -31.5408   20.6127 H   0  0  0  0  0  0
  -26.8479  -30.8190   22.0113 H   0  0  0  0  0  0
  -28.1186  -28.9440   21.1902 H   0  0  0  0  0  0
  -25.9219  -25.9281   18.9955 H   0  0  0  0  0  0
  -23.9579  -27.3205   19.0068 H   0  0  0  0  0  0
  -23.7570  -30.6008   19.4083 H   0  0  0  0  0  0
  -22.7549  -29.2564   19.8579 H   0  0  0  0  0  0
  -25.1305  -36.1946   25.0830 H   0  0  0  0  0  0
  -20.9987  -28.3280   24.1401 H   0  0  0  0  0  0
  -20.5728  -26.2299   23.3610 H   0  0  0  0  0  0
  -21.6668  -26.7470   22.1187 H   0  0  0  0  0  0
  -19.6941  -25.6282   21.1269 H   0  0  0  0  0  0
  -19.6734  -27.3179   20.6738 H   0  0  0  0  0  0
  -17.4229  -26.6697   21.4001 H   0  0  0  0  0  0
  -18.0334  -26.0068   22.8998 H   0  0  0  0  0  0
  -19.7939  -30.7291   24.2262 H   0  0  0  0  0  0
  -17.5009  -31.6275   24.5156 H   0  0  0  0  0  0
  -15.5354  -30.2981   23.7661 H   0  0  0  0  0  0
  -15.8678  -28.0810   22.7084 H   0  0  0  0  0  0
  -24.5882  -30.7088   25.7728 H   0  0  0  0  0  0
  -24.8881  -32.2907   26.4844 H   0  0  0  0  0  0
  -25.8000  -30.8900   27.0217 H   0  0  0  0  0  0
  -26.2927  -29.6759   24.1227 H   0  0  0  0  0  0
  -27.4049  -29.7292   25.4709 H   0  0  0  0  0  0
  -27.8798  -30.4310   23.9430 H   0  0  0  0  0  0
  -27.2689  -33.3643   26.2045 H   0  0  0  0  0  0
  -28.3871  -32.6864   25.0299 H   0  0  0  0  0  0
  -28.0731  -31.8458   26.5406 H   0  0  0  0  0  0
  -28.2591  -38.0122   24.7566 H   0  0  0  0  0  0
  -28.1133  -36.2668   24.6217 H   0  0  0  0  0  0
  -27.2326  -37.1358   25.8857 H   0  0  0  0  0  0
  -20.9384  -29.8730   21.6828 H   0  0  0  0  0  0
  -26.0196  -38.2868   24.1427 H   0  0  0  0  0  0
  -26.8190  -21.5676   16.0068 H   0  0  0  0  0  0
  -25.9620  -22.6415   17.1036 H   0  0  0  0  0  0
  -25.9179  -20.8988   17.3661 H   0  0  0  0  0  0
  -28.0180  -19.7208   20.8976 H   0  0  0  0  0  0
  -29.3649  -19.6867   21.9275 H   0  0  0  0  0  0
  -28.4255  -22.6555   17.5568 H   0  0  0  0  0  0
  -28.4134  -20.9262   17.7866 H   0  0  0  0  0  0
  -30.4620  -18.7127   19.4753 H   0  0  0  0  0  0
  -28.8655  -18.0663   19.5132 H   0  0  0  0  0  0
  -26.9909  -21.1491   19.8016 H   0  0  0  0  0  0
  -26.7708  -22.8110   19.5525 H   0  0  0  0  0  0
  -29.7757  -17.3666   22.0797 H   0  0  0  0  0  0
  -31.2542  -17.3009   21.1897 H   0  0  0  0  0  0
  -29.5393  -23.9367   21.2876 H   0  0  0  0  0  0
  -29.9802  -23.9569   19.6095 H   0  0  0  0  0  0
  -27.1973  -24.7193   20.6524 H   0  0  0  0  0  0
  -27.7224  -24.7975   18.9772 H   0  0  0  0  0  0
  -28.8507  -15.5413   20.8710 H   0  0  0  0  0  0
  1 25  1  0  0  0
  1 30  2  0  0  0
  1 80  1  0  0  0
  2  3  1  0  0  0
  2 25  1  0  0  0
  2 83  1  0  0  0
  2 84  1  0  0  0
  3  4  1  0  0  0
  3 85  1  0  0  0
  3 86  1  0  0  0
  4  5  1  0  0  0
  4 87  1  0  0  0
  4 88  1  0  0  0
  5  6  1  0  0  0
  5 26  1  0  0  0
  5 89  1  0  0  0
  6 25  1  0  0  0
  6 90  1  0  0  0
  6 91  1  0  0  0
  7  8  2  0  0  0
  7 26  1  0  0  0
  7 29  1  0  0  0
  8  9  1  0  0  0
  8 22  1  0  0  0
  9 10  1  0  0  0
  9 27  2  0  0  0
 10 11  2  0  0  0
 10 15  1  0  0  0
 11 12  1  0  0  0
 11 92  1  0  0  0
 12 13  2  0  0  0
 12 93  1  0  0  0
 13 14  1  0  0  0
 13 31  1  0  0  0
 14 15  2  0  0  0
 14 94  1  0  0  0
 15 95  1  0  0  0
 16 17  2  0  0  0
 16 21  1  0  0  0
 16 31  1  0  0  0
 17 18  1  0  0  0
 17 96  1  0  0  0
 18 19  2  0  0  0
 18 97  1  0  0  0
 19 20  1  0  0  0
 19 24  1  0  0  0
 20 21  2  0  0  0
 20 98  1  0  0  0
 21 23  1  0  0  0
 22 28  1  0  0  0
 22 32  2  0  0  0
 26 27  1  0  0  0
 28 99  1  0  0  0
 28100  1  0  0  0
 29101  1  0  0  0
 29102  1  0  0  0
 33 34  1  0  0  0
 33 66  1  0  0  0
 33 70  2  0  0  0
 34 36  1  0  0  0
 34 59  1  0  0  0
 34103  1  0  0  0
 35 44  2  0  0  0
 35 45  1  0  0  0
 35 68  1  0  0  0
 36 56  1  0  0  0
 36104  1  0  0  0
 37 39  1  0  0  0
 37 47  1  0  0  0
 37 66  1  0  0  0
 37105  1  0  0  0
 38 43  2  0  0  0
 38 46  1  0  0  0
 38 47  1  0  0  0
 39 64  1  0  0  0
 39 67  2  0  0  0
 40 52  1  0  0  0
 40 53  2  0  0  0
 40 58  1  0  0  0
 41106  1  0  0  0
 41107  1  0  0  0
 41108  1  0  0  0
 41 48  1  0  0  0
 42 43  1  0  0  0
 42 66  1  0  0  0
 42109  1  0  0  0
 42110  1  0  0  0
 43 44  1  0  0  0
 44111  1  0  0  0
 45 46  2  0  0  0
 45112  1  0  0  0
 46113  1  0  0  0
 47114  1  0  0  0
 47115  1  0  0  0
 48 56  1  0  0  0
 48 65  1  0  0  0
 48116  1  0  0  0
 49 50  1  0  0  0
 49 53  1  0  0  0
 49 64  1  0  0  0
 49117  1  0  0  0
 50 51  1  0  0  0
 50118  1  0  0  0
 50119  1  0  0  0
 51 52  1  0  0  0
 51120  1  0  0  0
 51121  1  0  0  0
 52122  1  0  0  0
 52123  1  0  0  0
 53 54  1  0  0  0
 54 55  2  0  0  0
 54124  1  0  0  0
 55 57  1  0  0  0
 55125  1  0  0  0
 56 69  2  0  0  0
 57 58  2  0  0  0
 57126  1  0  0  0
 58127  1  0  0  0
 59 60  1  0  0  0
 59 61  1  0  0  0
 59 62  1  0  0  0
 60128  1  0  0  0
 60129  1  0  0  0
 60130  1  0  0  0
 61131  1  0  0  0
 61132  1  0  0  0
 61133  1  0  0  0
 62134  1  0  0  0
 62135  1  0  0  0
 62136  1  0  0  0
 63 65  1  0  0  0
 63137  1  0  0  0
 63138  1  0  0  0
 63139  1  0  0  0
 64140  1  0  0  0
 65141  1  0  0  0
 68 79  1  0  0  0
 71 73  1  0  0  0
 71 81  1  0  0  0
 71 82  2  0  0  0
 72 74  1  0  0  0
 72142  1  0  0  0
 72143  1  0  0  0
 72144  1  0  0  0
 73 75  1  0  0  0
 73145  1  0  0  0
 73146  1  0  0  0
 74 76  1  0  0  0
 74147  1  0  0  0
 74148  1  0  0  0
 75 77  1  0  0  0
 75149  1  0  0  0
 75150  1  0  0  0
 76 81  1  0  0  0
 76151  1  0  0  0
 76152  1  0  0  0
 77 80  1  0  0  0
 77153  1  0  0  0
 77154  1  0  0  0
 78 79  1  0  0  0
 78 81  1  0  0  0
 78155  1  0  0  0
 78156  1  0  0  0
 79157  1  0  0  0
 79158  1  0  0  0
 80159  1  0  0  0
M  ISO  4   1 100  68 101  79 101  80 100
M  END
> <chiral flag>
0

> <version>
0

> <s_m_source_file>
/data/baiqing/PycharmProjects/Reinvent-master-3.2/result/LINK_invent/BTK/process_docking_weight1_custom_sum_contain_oxygen_bond_distance_aromatic_linkinvent_7_9_3/rearranged_h_0014.sdf

> <i_m_source_file_index>
10

> <r_mmod_Potential_Energy-OPLS-2005>
136.318801879883

> <r_mmod_Stretch_Energy-OPLS-2005>
110.876289367676

> <r_mmod_Bend_Energy-OPLS-2005>
168.441482543945

> <r_mmod_Torsional_Energy-OPLS-2005>
265.824981689453

> <r_mmod_Improper_Torsional_Energy-OPLS-2005>
5.91672515869141

> <r_mmod_Van_der_Waal_Energy-OPLS-2005>
132.399200439453

> <r_mmod_Electrostatic_Energy-OPLS-2005>
-379.384124755859

> <r_mmod_Solvation_Energy-OPLS-2005>
-235.073547363281

> <b_mmod_Minimization_Converged-OPLS-2005>
0

> <r_mmod_RMS_Derivative-OPLS-2005>
2.62395858764648

$$$$
10
                    3D
 Structure written by MMmdl.
152160  0  0  1  0            999 V2000
  -30.6179  -14.7082   20.4480 C   0  0  0  0  0  0
  -30.4247  -12.4219   19.4866 C   0  0  0  0  0  0
  -29.5091  -12.5004   18.2449 C   0  0  0  0  0  0
  -28.0337  -12.3302   18.6517 C   0  0  0  0  0  0
  -27.6423  -13.2286   19.8551 C   0  0  2  0  0  0
  -28.6827  -13.1522   20.9950 C   0  0  0  0  0  0
  -25.2503  -13.8213   20.5683 C   0  0  0  0  0  0
  -24.1788  -13.0464   20.9198 C   0  0  0  0  0  0
  -24.6375  -11.6935   20.8750 C   0  0  0  0  0  0
  -23.9056  -10.4305   21.0418 C   0  0  0  0  0  0
  -24.3611   -9.4214   21.9185 C   0  0  0  0  0  0
  -23.6292   -8.2246   22.0751 C   0  0  0  0  0  0
  -22.4276   -8.0281   21.3542 C   0  0  0  0  0  0
  -21.9914   -9.0254   20.4643 C   0  0  0  0  0  0
  -22.7237  -10.2136   20.3054 C   0  0  0  0  0  0
  -21.6853   -6.0741   22.5279 C   0  0  0  0  0  0
  -21.4019   -6.5642   23.8216 C   0  0  0  0  0  0
  -21.3660   -5.6796   24.9179 C   0  0  0  0  0  0
  -21.6038   -4.3059   24.7227 C   0  0  0  0  0  0
  -21.8819   -3.8153   23.4352 C   0  0  0  0  0  0
  -21.9193   -4.6968   22.3408 C   0  0  0  0  0  0
  -22.7808  -13.5235   21.1868 C   0  0  0  0  0  0
  -22.1654   -4.2153   21.0986 F   0  0  0  0  0  0
  -21.5632   -3.4542   25.7743 F   0  0  0  0  0  0
  -29.9950  -13.4828   20.4256 N   0  0  0  0  0  0
  -26.2927  -12.9404   20.3293 N   0  0  0  0  0  0
  -25.9303  -11.6555   20.5768 N   0  0  0  0  0  0
  -22.0463  -12.8206   22.0424 N   0  0  0  0  0  0
  -25.4235  -15.1924   20.4079 N   0  0  0  0  0  0
  -31.8020  -14.8050   20.1138 O   0  0  0  0  0  0
  -21.6644   -6.8878   21.4238 O   0  0  0  0  0  0
  -22.3480  -14.5543   20.6726 O   0  0  0  0  0  0
  -24.6303  -31.8576   23.2003 C   0  0  0  0  0  0
  -25.9135  -32.4768   23.8331 C   0  0  1  0  0  0
  -27.2105  -27.2638   20.1321 C   0  0  0  0  0  0
  -25.5931  -33.8565   24.2269 N   0  0  0  0  0  0
  -23.4268  -30.4843   21.5428 C   0  0  2  0  0  0
  -24.8724  -28.9363   20.1062 C   0  0  0  0  0  0
  -22.7512  -29.4619   22.4887 C   0  0  0  0  0  0
  -18.0306  -28.1383   22.8472 C   0  0  0  0  0  0
  -24.1496  -36.7282   23.2646 C   0  0  0  0  0  0
  -25.9721  -30.7745   21.3771 C   0  0  0  0  0  0
  -26.0436  -29.3963   20.7204 C   0  0  0  0  0  0
  -27.2158  -28.5713   20.7240 C   0  0  0  0  0  0
  -26.0178  -26.8829   19.4733 C   0  0  0  0  0  0
  -24.8642  -27.6875   19.4713 C   0  0  0  0  0  0
  -23.6444  -29.8239   20.1563 C   0  0  0  0  0  0
  -25.4120  -36.3073   24.0342 C   0  0  1  0  0  0
  -20.5910  -28.3699   23.1254 C   0  0  2  0  0  0
  -20.6800  -26.9415   22.5405 C   0  0  0  0  0  0
  -19.5779  -26.6386   21.5205 C   0  0  0  0  0  0
  -18.1953  -26.7925   22.1612 C   0  0  0  0  0  0
  -19.1555  -28.8858   23.2856 C   0  0  0  0  0  0
  -18.9477  -30.1455   23.8880 C   0  0  0  0  0  0
  -17.6476  -30.6575   24.0557 C   0  0  0  0  0  0
  -25.9061  -34.9445   23.5107 C   0  0  0  0  0  0
  -16.5370  -29.9080   23.6328 C   0  0  0  0  0  0
  -16.7290  -28.6503   23.0340 C   0  0  0  0  0  0
  -26.4498  -31.6583   25.0702 C   0  0  0  0  0  0
  -25.3713  -31.3735   26.1417 C   0  0  0  0  0  0
  -27.0356  -30.3018   24.6151 C   0  0  0  0  0  0
  -27.6063  -32.4312   25.7467 C   0  0  0  0  0  0
  -27.5581  -37.1797   24.8470 C   0  0  0  0  0  0
  -21.4217  -29.3045   22.3638 N   0  0  0  0  0  0
  -26.4290  -37.3777   23.9415 N   0  0  0  0  0  0
  -24.6958  -31.0568   22.0968 N   0  0  0  0  0  0
  -23.4221  -28.8151   23.2974 O   0  0  0  0  0  0
  -28.2896  -26.3509   20.2179 O   0  0  0  0  0  0
  -26.5628  -34.8922   22.4677 O   0  0  0  0  0  0
  -23.5457  -32.1380   23.7316 O   0  0  0  0  0  0
  -30.3264  -18.4967   18.0257 C   0  0  0  0  0  0
  -29.9370  -17.1714   20.0588 C   0  0  0  0  0  0
  -29.5897  -19.7207   20.0320 C   0  0  0  0  0  0
  -30.2908  -17.2580   18.6906 C   0  0  0  0  0  0
  -29.9977  -19.7026   18.6730 C   0  0  0  0  0  0
  -29.5692  -18.4236   20.7029 C   0  0  0  0  0  0
  -28.9550  -23.6804   20.5138 C   0  0  0  0  0  0
  -28.5638  -22.1705   20.0762 C   0  0  0  0  0  0
  -28.0137  -24.8885   19.9944 C   0  0  0  0  0  0
  -29.8580  -15.8351   20.6997 N   0  0  0  0  0  0
  -29.2812  -20.9812   20.6909 N   0  0  0  0  0  0
  -30.5598  -16.1415   17.9706 F   0  0  0  0  0  0
  -30.1095  -20.8517   17.9634 F   0  0  0  0  0  0
  -29.1830  -18.3819   22.0026 F   0  0  0  0  0  0
  -31.4710  -12.5261   19.1943 H   0  0  0  0  0  0
  -30.3448  -11.4433   19.9634 H   0  0  0  0  0  0
  -29.7867  -11.7342   17.5201 H   0  0  0  0  0  0
  -29.6431  -13.4630   17.7466 H   0  0  0  0  0  0
  -27.8828  -11.2799   18.9069 H   0  0  0  0  0  0
  -27.3784  -12.5298   17.8032 H   0  0  0  0  0  0
  -27.6431  -14.2508   19.4749 H   0  0  0  0  0  0
  -28.7024  -12.1546   21.4361 H   0  0  0  0  0  0
  -28.4193  -13.8370   21.8026 H   0  0  0  0  0  0
  -25.2758   -9.5697   22.4757 H   0  0  0  0  0  0
  -24.0007   -7.4639   22.7470 H   0  0  0  0  0  0
  -21.0849   -8.8766   19.8942 H   0  0  0  0  0  0
  -22.3692  -10.9671   19.6158 H   0  0  0  0  0  0
  -21.2009   -7.6146   23.9720 H   0  0  0  0  0  0
  -21.1480   -6.0528   25.9081 H   0  0  0  0  0  0
  -22.0596   -2.7614   23.2855 H   0  0  0  0  0  0
  -22.4087  -11.9851   22.4782 H   0  0  0  0  0  0
  -21.1076  -13.1211   22.2672 H   0  0  0  0  0  0
  -24.6583  -15.8508   20.5043 H   0  0  0  0  0  0
  -26.2765  -15.6242   20.0776 H   0  0  0  0  0  0
  -26.7211  -32.5431   23.1083 H   0  0  0  0  0  0
  -25.0070  -33.9704   25.0404 H   0  0  0  0  0  0
  -22.7218  -31.3060   21.4020 H   0  0  0  0  0  0
  -23.3748  -35.9620   23.3319 H   0  0  0  0  0  0
  -24.3596  -36.8886   22.2058 H   0  0  0  0  0  0
  -23.7251  -37.6494   23.6644 H   0  0  0  0  0  0
  -26.1048  -31.5356   20.6061 H   0  0  0  0  0  0
  -26.8535  -30.8296   22.0036 H   0  0  0  0  0  0
  -28.1078  -28.9145   21.2280 H   0  0  0  0  0  0
  -25.9367  -25.9338   18.9647 H   0  0  0  0  0  0
  -23.9692  -27.3331   18.9788 H   0  0  0  0  0  0
  -23.7719  -30.6038   19.4051 H   0  0  0  0  0  0
  -22.7609  -29.2617   19.8456 H   0  0  0  0  0  0
  -25.1302  -36.1933   25.0837 H   0  0  0  0  0  0
  -21.0012  -28.3288   24.1365 H   0  0  0  0  0  0
  -20.5736  -26.2297   23.3609 H   0  0  0  0  0  0
  -21.6668  -26.7463   22.1177 H   0  0  0  0  0  0
  -19.6952  -25.6301   21.1230 H   0  0  0  0  0  0
  -19.6713  -27.3200   20.6739 H   0  0  0  0  0  0
  -17.4227  -26.6665   21.4003 H   0  0  0  0  0  0
  -18.0344  -26.0062   22.9004 H   0  0  0  0  0  0
  -19.7965  -30.7259   24.2235 H   0  0  0  0  0  0
  -17.5051  -31.6259   24.5153 H   0  0  0  0  0  0
  -15.5376  -30.2977   23.7671 H   0  0  0  0  0  0
  -15.8690  -28.0832   22.7040 H   0  0  0  0  0  0
  -24.5904  -30.7065   25.7746 H   0  0  0  0  0  0
  -24.8861  -32.2895   26.4787 H   0  0  0  0  0  0
  -25.8017  -30.8955   27.0226 H   0  0  0  0  0  0
  -26.2934  -29.6752   24.1182 H   0  0  0  0  0  0
  -27.4093  -29.7294   25.4645 H   0  0  0  0  0  0
  -27.8782  -30.4345   23.9364 H   0  0  0  0  0  0
  -27.2699  -33.3641   26.2016 H   0  0  0  0  0  0
  -28.3873  -32.6826   25.0273 H   0  0  0  0  0  0
  -28.0711  -31.8427   26.5398 H   0  0  0  0  0  0
  -28.2595  -38.0100   24.7518 H   0  0  0  0  0  0
  -28.1082  -36.2623   24.6289 H   0  0  0  0  0  0
  -27.2293  -37.1437   25.8876 H   0  0  0  0  0  0
  -20.9389  -29.8781   21.6860 H   0  0  0  0  0  0
  -26.0168  -38.2854   24.1427 H   0  0  0  0  0  0
  -30.6114  -18.5209   16.9848 H   0  0  0  0  0  0
  -29.9780  -23.8749   20.1932 H   0  0  0  0  0  0
  -28.9803  -23.7262   21.6029 H   0  0  0  0  0  0
  -28.5783  -22.1129   18.9898 H   0  0  0  0  0  0
  -27.5123  -22.0362   20.3303 H   0  0  0  0  0  0
  -27.0391  -24.6716   20.4333 H   0  0  0  0  0  0
  -27.8979  -24.7541   18.9178 H   0  0  0  0  0  0
  -29.0142  -15.6722   21.2271 H   0  0  0  0  0  0
  -29.1087  -20.8615   21.6862 H   0  0  0  0  0  0
  1 25  1  0  0  0
  1 30  2  0  0  0
  1 80  1  0  0  0
  2  3  1  0  0  0
  2 25  1  0  0  0
  2 85  1  0  0  0
  2 86  1  0  0  0
  3  4  1  0  0  0
  3 87  1  0  0  0
  3 88  1  0  0  0
  4  5  1  0  0  0
  4 89  1  0  0  0
  4 90  1  0  0  0
  5  6  1  0  0  0
  5 26  1  0  0  0
  5 91  1  0  0  0
  6 25  1  0  0  0
  6 92  1  0  0  0
  6 93  1  0  0  0
  7  8  2  0  0  0
  7 26  1  0  0  0
  7 29  1  0  0  0
  8  9  1  0  0  0
  8 22  1  0  0  0
  9 10  1  0  0  0
  9 27  2  0  0  0
 10 11  2  0  0  0
 10 15  1  0  0  0
 11 12  1  0  0  0
 11 94  1  0  0  0
 12 13  2  0  0  0
 12 95  1  0  0  0
 13 14  1  0  0  0
 13 31  1  0  0  0
 14 15  2  0  0  0
 14 96  1  0  0  0
 15 97  1  0  0  0
 16 17  2  0  0  0
 16 21  1  0  0  0
 16 31  1  0  0  0
 17 18  1  0  0  0
 17 98  1  0  0  0
 18 19  2  0  0  0
 18 99  1  0  0  0
 19 20  1  0  0  0
 19 24  1  0  0  0
 20 21  2  0  0  0
 20100  1  0  0  0
 21 23  1  0  0  0
 22 28  1  0  0  0
 22 32  2  0  0  0
 26 27  1  0  0  0
 28101  1  0  0  0
 28102  1  0  0  0
 29103  1  0  0  0
 29104  1  0  0  0
 33 34  1  0  0  0
 33 66  1  0  0  0
 33 70  2  0  0  0
 34 36  1  0  0  0
 34 59  1  0  0  0
 34105  1  0  0  0
 35 44  2  0  0  0
 35 45  1  0  0  0
 35 68  1  0  0  0
 36 56  1  0  0  0
 36106  1  0  0  0
 37 39  1  0  0  0
 37 47  1  0  0  0
 37 66  1  0  0  0
 37107  1  0  0  0
 38 43  2  0  0  0
 38 46  1  0  0  0
 38 47  1  0  0  0
 39 64  1  0  0  0
 39 67  2  0  0  0
 40 52  1  0  0  0
 40 53  2  0  0  0
 40 58  1  0  0  0
 41108  1  0  0  0
 41109  1  0  0  0
 41110  1  0  0  0
 41 48  1  0  0  0
 42 43  1  0  0  0
 42 66  1  0  0  0
 42111  1  0  0  0
 42112  1  0  0  0
 43 44  1  0  0  0
 44113  1  0  0  0
 45 46  2  0  0  0
 45114  1  0  0  0
 46115  1  0  0  0
 47116  1  0  0  0
 47117  1  0  0  0
 48 56  1  0  0  0
 48 65  1  0  0  0
 48118  1  0  0  0
 49 50  1  0  0  0
 49 53  1  0  0  0
 49 64  1  0  0  0
 49119  1  0  0  0
 50 51  1  0  0  0
 50120  1  0  0  0
 50121  1  0  0  0
 51 52  1  0  0  0
 51122  1  0  0  0
 51123  1  0  0  0
 52124  1  0  0  0
 52125  1  0  0  0
 53 54  1  0  0  0
 54 55  2  0  0  0
 54126  1  0  0  0
 55 57  1  0  0  0
 55127  1  0  0  0
 56 69  2  0  0  0
 57 58  2  0  0  0
 57128  1  0  0  0
 58129  1  0  0  0
 59 60  1  0  0  0
 59 61  1  0  0  0
 59 62  1  0  0  0
 60130  1  0  0  0
 60131  1  0  0  0
 60132  1  0  0  0
 61133  1  0  0  0
 61134  1  0  0  0
 61135  1  0  0  0
 62136  1  0  0  0
 62137  1  0  0  0
 62138  1  0  0  0
 63 65  1  0  0  0
 63139  1  0  0  0
 63140  1  0  0  0
 63141  1  0  0  0
 64142  1  0  0  0
 65143  1  0  0  0
 68 79  1  0  0  0
 71 74  2  0  0  0
 71 75  1  0  0  0
 71144  1  0  0  0
 72 74  1  0  0  0
 72 76  2  0  0  0
 72 80  1  0  0  0
 73 75  2  0  0  0
 73 76  1  0  0  0
 73 81  1  0  0  0
 74 82  1  0  0  0
 75 83  1  0  0  0
 76 84  1  0  0  0
 77 78  1  0  0  0
 77 79  1  0  0  0
 77145  1  0  0  0
 77146  1  0  0  0
 78 81  1  0  0  0
 78147  1  0  0  0
 78148  1  0  0  0
 79149  1  0  0  0
 79150  1  0  0  0
 80151  1  0  0  0
 81152  1  0  0  0
M  ISO  4   1 100  68 101  79 101  80 100
M  END
> <chiral flag>
0

> <version>
0

> <s_m_source_file>
/data/baiqing/PycharmProjects/Reinvent-master-3.2/result/LINK_invent/BTK/process_docking_weight1_custom_sum_contain_oxygen_bond_distance_aromatic_linkinvent_7_9_3/rearranged_h_0014.sdf

> <i_m_source_file_index>
11

> <r_mmod_Potential_Energy-OPLS-2005>
139.255661010742

> <r_mmod_Stretch_Energy-OPLS-2005>
116.956077575684

> <r_mmod_Bend_Energy-OPLS-2005>
158.672592163086

> <r_mmod_Torsional_Energy-OPLS-2005>
232.234298706055

> <r_mmod_Improper_Torsional_Energy-OPLS-2005>
6.86407804489136

> <r_mmod_Van_der_Waal_Energy-OPLS-2005>
149.051116943359

> <r_mmod_Electrostatic_Energy-OPLS-2005>
-384.604187011719

> <r_mmod_Solvation_Energy-OPLS-2005>
-219.958740234375

> <b_mmod_Minimization_Converged-OPLS-2005>
0

> <r_mmod_RMS_Derivative-OPLS-2005>
2.131591796875

$$$$
11
                    3D
 Structure written by MMmdl.
157165  0  0  1  0            999 V2000
  -30.4136  -15.0796   20.3759 C   0  0  0  0  0  0
  -30.4356  -12.6743   19.4872 C   0  0  0  0  0  0
  -29.5170  -12.5297   18.2536 C   0  0  0  0  0  0
  -28.0531  -12.2977   18.6751 C   0  0  0  0  0  0
  -27.6071  -13.2456   19.8179 C   0  0  2  0  0  0
  -28.6459  -13.3309   20.9505 C   0  0  0  0  0  0
  -25.2401  -13.8217   20.5735 C   0  0  0  0  0  0
  -24.1704  -13.0445   20.9243 C   0  0  0  0  0  0
  -24.6323  -11.6917   20.8766 C   0  0  0  0  0  0
  -23.9031  -10.4305   21.0426 C   0  0  0  0  0  0
  -24.3597   -9.4219   21.9218 C   0  0  0  0  0  0
  -23.6280   -8.2264   22.0782 C   0  0  0  0  0  0
  -22.4256   -8.0303   21.3574 C   0  0  0  0  0  0
  -21.9886   -9.0274   20.4667 C   0  0  0  0  0  0
  -22.7207  -10.2156   20.3088 C   0  0  0  0  0  0
  -21.6851   -6.0739   22.5273 C   0  0  0  0  0  0
  -21.4023   -6.5664   23.8203 C   0  0  0  0  0  0
  -21.3645   -5.6815   24.9170 C   0  0  0  0  0  0
  -21.6035   -4.3071   24.7213 C   0  0  0  0  0  0
  -21.8813   -3.8152   23.4343 C   0  0  0  0  0  0
  -21.9193   -4.6979   22.3391 C   0  0  0  0  0  0
  -22.7735  -13.5240   21.1867 C   0  0  0  0  0  0
  -22.1649   -4.2168   21.0968 F   0  0  0  0  0  0
  -21.5600   -3.4538   25.7720 F   0  0  0  0  0  0
  -29.8888  -13.7864   20.3194 N   0  0  0  0  0  0
  -26.2759  -12.9387   20.3191 N   0  0  0  0  0  0
  -25.9231  -11.6521   20.5724 N   0  0  0  0  0  0
  -22.0386  -12.8288   22.0451 N   0  0  0  0  0  0
  -25.4095  -15.1954   20.4180 N   0  0  0  0  0  0
  -31.6476  -15.1628   20.2582 O   0  0  0  0  0  0
  -21.6638   -6.8888   21.4240 O   0  0  0  0  0  0
  -22.3461  -14.5570   20.6698 O   0  0  0  0  0  0
  -24.6538  -31.8345   23.1830 C   0  0  0  0  0  0
  -25.9277  -32.4635   23.8250 C   0  0  1  0  0  0
  -27.1681  -27.0271   20.1719 C   0  0  0  0  0  0
  -25.5971  -33.8450   24.2153 N   0  0  0  0  0  0
  -23.4574  -30.4589   21.5350 C   0  0  2  0  0  0
  -24.8917  -28.8651   20.1196 C   0  0  0  0  0  0
  -22.7618  -29.4502   22.4856 C   0  0  0  0  0  0
  -18.0317  -28.1385   22.8505 C   0  0  0  0  0  0
  -24.1474  -36.7230   23.2662 C   0  0  0  0  0  0
  -26.0215  -30.6753   21.3928 C   0  0  0  0  0  0
  -26.0801  -29.2777   20.7380 C   0  0  0  0  0  0
  -27.2272  -28.3842   20.7253 C   0  0  0  0  0  0
  -25.9534  -26.7306   19.5226 C   0  0  0  0  0  0
  -24.8454  -27.6087   19.4932 C   0  0  0  0  0  0
  -23.6843  -29.7928   20.1556 C   0  0  0  0  0  0
  -25.4116  -36.3006   24.0319 C   0  0  1  0  0  0
  -20.5932  -28.3708   23.1239 C   0  0  2  0  0  0
  -20.6789  -26.9404   22.5418 C   0  0  0  0  0  0
  -19.5750  -26.6362   21.5240 C   0  0  0  0  0  0
  -18.1940  -26.7926   22.1658 C   0  0  0  0  0  0
  -19.1574  -28.8870   23.2867 C   0  0  0  0  0  0
  -18.9491  -30.1474   23.8880 C   0  0  0  0  0  0
  -17.6486  -30.6587   24.0553 C   0  0  0  0  0  0
  -25.9079  -34.9380   23.5050 C   0  0  0  0  0  0
  -16.5378  -29.9077   23.6330 C   0  0  0  0  0  0
  -16.7302  -28.6490   23.0366 C   0  0  0  0  0  0
  -26.4546  -31.6547   25.0751 C   0  0  0  0  0  0
  -25.3695  -31.3801   26.1436 C   0  0  0  0  0  0
  -27.0419  -30.2928   24.6410 C   0  0  0  0  0  0
  -27.6046  -32.4346   25.7539 C   0  0  0  0  0  0
  -27.5539  -37.1807   24.8500 C   0  0  0  0  0  0
  -21.4302  -29.3036   22.3617 N   0  0  0  0  0  0
  -26.4290  -37.3704   23.9391 N   0  0  0  0  0  0
  -24.7332  -31.0123   22.0902 N   0  0  0  0  0  0
  -23.4223  -28.8046   23.3033 O   0  0  0  0  0  0
  -28.1988  -25.9995   20.0843 O   0  0  0  0  0  0
  -26.5678  -34.8878   22.4639 O   0  0  0  0  0  0
  -23.5644  -32.1265   23.7017 O   0  0  0  0  0  0
  -28.7995  -20.2807   21.9555 C   0  0  0  0  0  0
  -29.0456  -19.0808   22.6711 C   0  0  0  0  0  0
  -29.0882  -19.0049   19.9148 C   0  0  0  0  0  0
  -28.8351  -20.3722   20.5500 C   0  0  0  0  0  0
  -29.4176  -17.7079   20.6437 C   0  0  0  0  0  0
  -29.3787  -17.8521   22.0484 C   0  0  0  0  0  0
  -27.8933  -23.0011   20.2614 C   0  0  0  0  0  0
  -28.9299  -19.1075   24.1858 C   0  0  0  0  0  0
  -28.8660  -18.8693   18.4185 C   0  0  0  0  0  0
  -29.6063  -22.0966   18.8155 C   0  0  0  0  0  0
  -28.2627  -24.5774   20.8099 C   0  0  0  0  0  0
  -29.5506  -16.2232   20.1605 N   0  0  0  0  0  0
  -28.7582  -21.8544   19.9869 N   0  0  0  0  0  0
  -26.6811  -22.8148   20.1022 O   0  0  0  0  0  0
  -29.5816  -16.7546   22.8201 F   0  0  0  0  0  0
  -31.4557  -12.8872   19.1661 H   0  0  0  0  0  0
  -30.4780  -11.7427   20.0536 H   0  0  0  0  0  0
  -29.8497  -11.7100   17.6182 H   0  0  0  0  0  0
  -29.5784  -13.4313   17.6468 H   0  0  0  0  0  0
  -27.9621  -11.2605   19.0003 H   0  0  0  0  0  0
  -27.3928  -12.4092   17.8143 H   0  0  0  0  0  0
  -27.5430  -14.2328   19.3601 H   0  0  0  0  0  0
  -28.7725  -12.3734   21.4555 H   0  0  0  0  0  0
  -28.3300  -14.0499   21.7118 H   0  0  0  0  0  0
  -25.2733   -9.5698   22.4799 H   0  0  0  0  0  0
  -23.9953   -7.4666   22.7528 H   0  0  0  0  0  0
  -21.0803   -8.8811   19.9002 H   0  0  0  0  0  0
  -22.3651  -10.9713   19.6217 H   0  0  0  0  0  0
  -21.2043   -7.6172   23.9719 H   0  0  0  0  0  0
  -21.1456   -6.0538   25.9072 H   0  0  0  0  0  0
  -22.0603   -2.7614   23.2832 H   0  0  0  0  0  0
  -22.3951  -11.9890   22.4790 H   0  0  0  0  0  0
  -21.1052  -13.1406   22.2721 H   0  0  0  0  0  0
  -24.6451  -15.8515   20.5449 H   0  0  0  0  0  0
  -26.2513  -15.6389   20.0771 H   0  0  0  0  0  0
  -26.7349  -32.5184   23.0961 H   0  0  0  0  0  0
  -25.0025  -33.9523   25.0245 H   0  0  0  0  0  0
  -22.7664  -31.2901   21.3846 H   0  0  0  0  0  0
  -23.3687  -35.9627   23.3431 H   0  0  0  0  0  0
  -24.3510  -36.8743   22.2057 H   0  0  0  0  0  0
  -23.7303  -37.6490   23.6620 H   0  0  0  0  0  0
  -26.1992  -31.4229   20.6195 H   0  0  0  0  0  0
  -26.8855  -30.7161   22.0428 H   0  0  0  0  0  0
  -28.1536  -28.7124   21.1749 H   0  0  0  0  0  0
  -25.8497  -25.7714   19.0300 H   0  0  0  0  0  0
  -23.9392  -27.2922   18.9905 H   0  0  0  0  0  0
  -23.8495  -30.5710   19.4115 H   0  0  0  0  0  0
  -22.7865  -29.2658   19.8279 H   0  0  0  0  0  0
  -25.1313  -36.1839   25.0816 H   0  0  0  0  0  0
  -21.0039  -28.3290   24.1357 H   0  0  0  0  0  0
  -20.5672  -26.2330   23.3647 H   0  0  0  0  0  0
  -21.6645  -26.7381   22.1209 H   0  0  0  0  0  0
  -19.6883  -25.6265   21.1279 H   0  0  0  0  0  0
  -19.6657  -27.3165   20.6762 H   0  0  0  0  0  0
  -17.4201  -26.6690   21.4072 H   0  0  0  0  0  0
  -18.0312  -26.0073   22.9050 H   0  0  0  0  0  0
  -19.7959  -30.7300   24.2241 H   0  0  0  0  0  0
  -17.5023  -31.6265   24.5142 H   0  0  0  0  0  0
  -15.5367  -30.2962   23.7646 H   0  0  0  0  0  0
  -15.8712  -28.0782   22.7096 H   0  0  0  0  0  0
  -24.5855  -30.7156   25.7778 H   0  0  0  0  0  0
  -24.8910  -32.3014   26.4784 H   0  0  0  0  0  0
  -25.7955  -30.9032   27.0270 H   0  0  0  0  0  0
  -26.3067  -29.6639   24.1374 H   0  0  0  0  0  0
  -27.3936  -29.7264   25.5039 H   0  0  0  0  0  0
  -27.9011  -30.4146   23.9810 H   0  0  0  0  0  0
  -27.2612  -33.3676   26.2018 H   0  0  0  0  0  0
  -28.3901  -32.6853   25.0400 H   0  0  0  0  0  0
  -28.0647  -31.8539   26.5536 H   0  0  0  0  0  0
  -28.2670  -37.9977   24.7336 H   0  0  0  0  0  0
  -28.0901  -36.2500   24.6583 H   0  0  0  0  0  0
  -27.2228  -37.1774   25.8896 H   0  0  0  0  0  0
  -20.9530  -29.8780   21.6815 H   0  0  0  0  0  0
  -26.0149  -38.2800   24.1259 H   0  0  0  0  0  0
  -28.6009  -21.1767   22.5249 H   0  0  0  0  0  0
  -28.9338  -20.1325   24.5611 H   0  0  0  0  0  0
  -29.7543  -18.5695   24.6530 H   0  0  0  0  0  0
  -27.9998  -18.6318   24.4983 H   0  0  0  0  0  0
  -29.6449  -19.3649   17.8448 H   0  0  0  0  0  0
  -27.8992  -19.2984   18.1514 H   0  0  0  0  0  0
  -28.8354  -17.8209   18.1134 H   0  0  0  0  0  0
  -30.5635  -21.5885   18.9250 H   0  0  0  0  0  0
  -29.8230  -23.1534   18.6472 H   0  0  0  0  0  0
  -29.1281  -21.7200   17.9094 H   0  0  0  0  0  0
  -29.2678  -24.5085   21.2223 H   0  0  0  0  0  0
  -27.6330  -24.7060   21.6947 H   0  0  0  0  0  0
  -28.6626  -15.8853   19.8281 H   0  0  0  0  0  0
  1 25  1  0  0  0
  1 30  2  0  0  0
  1 82  1  0  0  0
  2  3  1  0  0  0
  2 25  1  0  0  0
  2 86  1  0  0  0
  2 87  1  0  0  0
  3  4  1  0  0  0
  3 88  1  0  0  0
  3 89  1  0  0  0
  4  5  1  0  0  0
  4 90  1  0  0  0
  4 91  1  0  0  0
  5  6  1  0  0  0
  5 26  1  0  0  0
  5 92  1  0  0  0
  6 25  1  0  0  0
  6 93  1  0  0  0
  6 94  1  0  0  0
  7  8  2  0  0  0
  7 26  1  0  0  0
  7 29  1  0  0  0
  8  9  1  0  0  0
  8 22  1  0  0  0
  9 10  1  0  0  0
  9 27  2  0  0  0
 10 11  2  0  0  0
 10 15  1  0  0  0
 11 12  1  0  0  0
 11 95  1  0  0  0
 12 13  2  0  0  0
 12 96  1  0  0  0
 13 14  1  0  0  0
 13 31  1  0  0  0
 14 15  2  0  0  0
 14 97  1  0  0  0
 15 98  1  0  0  0
 16 17  2  0  0  0
 16 21  1  0  0  0
 16 31  1  0  0  0
 17 18  1  0  0  0
 17 99  1  0  0  0
 18 19  2  0  0  0
 18100  1  0  0  0
 19 20  1  0  0  0
 19 24  1  0  0  0
 20 21  2  0  0  0
 20101  1  0  0  0
 21 23  1  0  0  0
 22 28  1  0  0  0
 22 32  2  0  0  0
 26 27  1  0  0  0
 28102  1  0  0  0
 28103  1  0  0  0
 29104  1  0  0  0
 29105  1  0  0  0
 33 34  1  0  0  0
 33 66  1  0  0  0
 33 70  2  0  0  0
 34 36  1  0  0  0
 34 59  1  0  0  0
 34106  1  0  0  0
 35 44  2  0  0  0
 35 45  1  0  0  0
 35 68  1  0  0  0
 36 56  1  0  0  0
 36107  1  0  0  0
 37 39  1  0  0  0
 37 47  1  0  0  0
 37 66  1  0  0  0
 37108  1  0  0  0
 38 43  2  0  0  0
 38 46  1  0  0  0
 38 47  1  0  0  0
 39 64  1  0  0  0
 39 67  2  0  0  0
 40 52  1  0  0  0
 40 53  2  0  0  0
 40 58  1  0  0  0
 41109  1  0  0  0
 41110  1  0  0  0
 41111  1  0  0  0
 41 48  1  0  0  0
 42 43  1  0  0  0
 42 66  1  0  0  0
 42112  1  0  0  0
 42113  1  0  0  0
 43 44  1  0  0  0
 44114  1  0  0  0
 45 46  2  0  0  0
 45115  1  0  0  0
 46116  1  0  0  0
 47117  1  0  0  0
 47118  1  0  0  0
 48 56  1  0  0  0
 48 65  1  0  0  0
 48119  1  0  0  0
 49 50  1  0  0  0
 49 53  1  0  0  0
 49 64  1  0  0  0
 49120  1  0  0  0
 50 51  1  0  0  0
 50121  1  0  0  0
 50122  1  0  0  0
 51 52  1  0  0  0
 51123  1  0  0  0
 51124  1  0  0  0
 52125  1  0  0  0
 52126  1  0  0  0
 53 54  1  0  0  0
 54 55  2  0  0  0
 54127  1  0  0  0
 55 57  1  0  0  0
 55128  1  0  0  0
 56 69  2  0  0  0
 57 58  2  0  0  0
 57129  1  0  0  0
 58130  1  0  0  0
 59 60  1  0  0  0
 59 61  1  0  0  0
 59 62  1  0  0  0
 60131  1  0  0  0
 60132  1  0  0  0
 60133  1  0  0  0
 61134  1  0  0  0
 61135  1  0  0  0
 61136  1  0  0  0
 62137  1  0  0  0
 62138  1  0  0  0
 62139  1  0  0  0
 63 65  1  0  0  0
 63140  1  0  0  0
 63141  1  0  0  0
 63142  1  0  0  0
 64143  1  0  0  0
 65144  1  0  0  0
 68 81  1  0  0  0
 71 72  2  0  0  0
 71 74  1  0  0  0
 71145  1  0  0  0
 72 76  1  0  0  0
 72 78  1  0  0  0
 73 74  2  0  0  0
 73 75  1  0  0  0
 73 79  1  0  0  0
 74 83  1  0  0  0
 75 76  2  0  0  0
 75 82  1  0  0  0
 76 85  1  0  0  0
 77 81  1  0  0  0
 77 83  1  0  0  0
 77 84  2  0  0  0
 78146  1  0  0  0
 78147  1  0  0  0
 78148  1  0  0  0
 79149  1  0  0  0
 79150  1  0  0  0
 79151  1  0  0  0
 80 83  1  0  0  0
 80152  1  0  0  0
 80153  1  0  0  0
 80154  1  0  0  0
 81155  1  0  0  0
 81156  1  0  0  0
 82157  1  0  0  0
M  ISO  4   1 100  68 101  81 101  82 100
M  END
> <chiral flag>
0

> <version>
0

> <s_m_source_file>
/data/baiqing/PycharmProjects/Reinvent-master-3.2/result/LINK_invent/BTK/process_docking_weight1_custom_sum_contain_oxygen_bond_distance_aromatic_linkinvent_7_9_3/rearranged_h_0014.sdf

> <i_m_source_file_index>
12

> <r_mmod_Potential_Energy-OPLS-2005>
980.144897460938

> <r_mmod_Stretch_Energy-OPLS-2005>
383.128387451172

> <r_mmod_Bend_Energy-OPLS-2005>
360.019561767578

> <r_mmod_Torsional_Energy-OPLS-2005>
380.537231445312

> <r_mmod_Improper_Torsional_Energy-OPLS-2005>
15.8186941146851

> <r_mmod_Van_der_Waal_Energy-OPLS-2005>
118.866981506348

> <r_mmod_Electrostatic_Energy-OPLS-2005>
-364.664855957031

> <r_mmod_Solvation_Energy-OPLS-2005>
-220.074615478516

> <b_mmod_Minimization_Converged-OPLS-2005>
0

> <r_mmod_RMS_Derivative-OPLS-2005>
6.90465450286865

$$$$
12
                    3D
 Structure written by MMmdl.
154162  0  0  1  0            999 V2000
  -30.5218  -15.0467   20.4154 C   0  0  0  0  0  0
  -30.4374  -12.6569   19.5072 C   0  0  0  0  0  0
  -29.5241  -12.5441   18.2648 C   0  0  0  0  0  0
  -28.0624  -12.3114   18.6871 C   0  0  0  0  0  0
  -27.6229  -13.2589   19.8336 C   0  0  2  0  0  0
  -28.6644  -13.3384   20.9699 C   0  0  0  0  0  0
  -25.2431  -13.8227   20.5726 C   0  0  0  0  0  0
  -24.1761  -13.0434   20.9228 C   0  0  0  0  0  0
  -24.6393  -11.6926   20.8750 C   0  0  0  0  0  0
  -23.9085  -10.4291   21.0401 C   0  0  0  0  0  0
  -24.3631   -9.4207   21.9180 C   0  0  0  0  0  0
  -23.6298   -8.2247   22.0753 C   0  0  0  0  0  0
  -22.4281   -8.0287   21.3542 C   0  0  0  0  0  0
  -21.9916   -9.0260   20.4647 C   0  0  0  0  0  0
  -22.7251  -10.2135   20.3054 C   0  0  0  0  0  0
  -21.6855   -6.0735   22.5275 C   0  0  0  0  0  0
  -21.4019   -6.5639   23.8210 C   0  0  0  0  0  0
  -21.3661   -5.6791   24.9171 C   0  0  0  0  0  0
  -21.6046   -4.3054   24.7222 C   0  0  0  0  0  0
  -21.8819   -3.8145   23.4343 C   0  0  0  0  0  0
  -21.9193   -4.6961   22.3397 C   0  0  0  0  0  0
  -22.7783  -13.5204   21.1889 C   0  0  0  0  0  0
  -22.1661   -4.2146   21.0973 F   0  0  0  0  0  0
  -21.5623   -3.4538   25.7735 F   0  0  0  0  0  0
  -29.9245  -13.7779   20.3571 N   0  0  0  0  0  0
  -26.2860  -12.9477   20.3243 N   0  0  0  0  0  0
  -25.9332  -11.6596   20.5741 N   0  0  0  0  0  0
  -22.0437  -12.8193   22.0445 N   0  0  0  0  0  0
  -25.4071  -15.1962   20.4167 N   0  0  0  0  0  0
  -31.7290  -15.0629   20.1479 O   0  0  0  0  0  0
  -21.6645   -6.8882   21.4238 O   0  0  0  0  0  0
  -22.3467  -14.5509   20.6737 O   0  0  0  0  0  0
  -24.6498  -31.8380   23.1830 C   0  0  0  0  0  0
  -25.9241  -32.4658   23.8243 C   0  0  1  0  0  0
  -27.2117  -27.0661   20.1618 C   0  0  0  0  0  0
  -25.5962  -33.8468   24.2157 N   0  0  0  0  0  0
  -23.4566  -30.4559   21.5291 C   0  0  2  0  0  0
  -24.9069  -28.8714   20.1088 C   0  0  0  0  0  0
  -22.7604  -29.4516   22.4823 C   0  0  0  0  0  0
  -18.0315  -28.1410   22.8469 C   0  0  0  0  0  0
  -24.1491  -36.7235   23.2642 C   0  0  0  0  0  0
  -26.0183  -30.6888   21.3932 C   0  0  0  0  0  0
  -26.0874  -29.2941   20.7335 C   0  0  0  0  0  0
  -27.2400  -28.4093   20.7399 C   0  0  0  0  0  0
  -26.0057  -26.7650   19.4912 C   0  0  0  0  0  0
  -24.8834  -27.6233   19.4698 C   0  0  0  0  0  0
  -23.6876  -29.7832   20.1497 C   0  0  0  0  0  0
  -25.4126  -36.3006   24.0309 C   0  0  1  0  0  0
  -20.5932  -28.3739   23.1213 C   0  0  2  0  0  0
  -20.6794  -26.9431   22.5401 C   0  0  0  0  0  0
  -19.5768  -26.6386   21.5209 C   0  0  0  0  0  0
  -18.1952  -26.7945   22.1621 C   0  0  0  0  0  0
  -19.1573  -28.8891   23.2834 C   0  0  0  0  0  0
  -18.9487  -30.1484   23.8868 C   0  0  0  0  0  0
  -17.6480  -30.6594   24.0561 C   0  0  0  0  0  0
  -25.9086  -34.9384   23.5048 C   0  0  0  0  0  0
  -16.5373  -29.9084   23.6337 C   0  0  0  0  0  0
  -16.7300  -28.6506   23.0355 C   0  0  0  0  0  0
  -26.4539  -31.6556   25.0717 C   0  0  0  0  0  0
  -25.3703  -31.3772   26.1398 C   0  0  0  0  0  0
  -27.0412  -30.2935   24.6363 C   0  0  0  0  0  0
  -27.6060  -32.4338   25.7506 C   0  0  0  0  0  0
  -27.5577  -37.1772   24.8463 C   0  0  0  0  0  0
  -21.4285  -29.3048   22.3569 N   0  0  0  0  0  0
  -26.4283  -37.3724   23.9410 N   0  0  0  0  0  0
  -24.7283  -31.0175   22.0893 N   0  0  0  0  0  0
  -23.4216  -28.8073   23.3000 O   0  0  0  0  0  0
  -28.2332  -26.0276   20.2460 O   0  0  0  0  0  0
  -26.5679  -34.8894   22.4631 O   0  0  0  0  0  0
  -23.5599  -32.1289   23.7005 O   0  0  0  0  0  0
  -31.4593  -19.5350   21.8150 C   0  0  0  0  0  0
  -30.6884  -20.6238   21.3693 C   0  0  0  0  0  0
  -31.1514  -18.1792   21.5570 C   0  0  0  0  0  0
  -29.2202  -19.0103   20.3162 C   0  0  0  0  0  0
  -29.5100  -20.4710   20.6128 C   0  0  0  0  0  0
  -30.0387  -17.8024   20.7465 C   0  0  0  0  0  0
  -28.9496  -23.2137   20.4444 C   0  0  0  0  0  0
  -32.0472  -17.1715   22.2617 C   0  0  0  0  0  0
  -27.9674  -18.7272   19.5097 C   0  0  0  0  0  0
  -27.9153  -24.4833   20.0368 C   0  0  0  0  0  0
  -28.7277  -21.7885   20.2554 N   0  0  0  0  0  0
  -29.7527  -16.2711   20.5272 N   0  0  0  0  0  0
  -30.0094  -23.5870   20.9525 O   0  0  0  0  0  0
  -31.4671  -12.8226   19.1876 H   0  0  0  0  0  0
  -30.4504  -11.7208   20.0675 H   0  0  0  0  0  0
  -29.8606  -11.7346   17.6163 H   0  0  0  0  0  0
  -29.5960  -13.4605   17.6769 H   0  0  0  0  0  0
  -27.9786  -11.2748   19.0158 H   0  0  0  0  0  0
  -27.3978  -12.4147   17.8282 H   0  0  0  0  0  0
  -27.5689  -14.2504   19.3826 H   0  0  0  0  0  0
  -28.7776  -12.3776   21.4745 H   0  0  0  0  0  0
  -28.3476  -14.0534   21.7307 H   0  0  0  0  0  0
  -25.2772   -9.5682   22.4764 H   0  0  0  0  0  0
  -23.9998   -7.4640   22.7480 H   0  0  0  0  0  0
  -21.0840   -8.8791   19.8959 H   0  0  0  0  0  0
  -22.3706  -10.9681   19.6173 H   0  0  0  0  0  0
  -21.2018   -7.6149   23.9712 H   0  0  0  0  0  0
  -21.1480   -6.0522   25.9076 H   0  0  0  0  0  0
  -22.0596   -2.7605   23.2846 H   0  0  0  0  0  0
  -22.4063  -11.9853   22.4824 H   0  0  0  0  0  0
  -21.1060  -13.1222   22.2670 H   0  0  0  0  0  0
  -24.6332  -15.8426   20.5308 H   0  0  0  0  0  0
  -26.2463  -15.6429   20.0739 H   0  0  0  0  0  0
  -26.7306  -32.5241   23.0966 H   0  0  0  0  0  0
  -25.0064  -33.9567   25.0274 H   0  0  0  0  0  0
  -22.7619  -31.2833   21.3705 H   0  0  0  0  0  0
  -23.3762  -35.9558   23.3284 H   0  0  0  0  0  0
  -24.3567  -36.8890   22.2059 H   0  0  0  0  0  0
  -23.7242  -37.6420   23.6701 H   0  0  0  0  0  0
  -26.1858  -31.4402   20.6202 H   0  0  0  0  0  0
  -26.8836  -30.7380   22.0426 H   0  0  0  0  0  0
  -28.1361  -28.7268   21.2541 H   0  0  0  0  0  0
  -25.8922  -25.8110   18.9988 H   0  0  0  0  0  0
  -23.9838  -27.2954   18.9666 H   0  0  0  0  0  0
  -23.8331  -30.5577   19.3958 H   0  0  0  0  0  0
  -22.7994  -29.2325   19.8343 H   0  0  0  0  0  0
  -25.1313  -36.1821   25.0798 H   0  0  0  0  0  0
  -21.0027  -28.3344   24.1335 H   0  0  0  0  0  0
  -20.5678  -26.2353   23.3628 H   0  0  0  0  0  0
  -21.6660  -26.7422   22.1206 H   0  0  0  0  0  0
  -19.6927  -25.6290   21.1252 H   0  0  0  0  0  0
  -19.6708  -27.3180   20.6725 H   0  0  0  0  0  0
  -17.4216  -26.6685   21.4034 H   0  0  0  0  0  0
  -18.0359  -26.0102   22.9031 H   0  0  0  0  0  0
  -19.7960  -30.7311   24.2231 H   0  0  0  0  0  0
  -17.5028  -31.6266   24.5178 H   0  0  0  0  0  0
  -15.5370  -30.2974   23.7682 H   0  0  0  0  0  0
  -15.8702  -28.0813   22.7089 H   0  0  0  0  0  0
  -24.5879  -30.7127   25.7713 H   0  0  0  0  0  0
  -24.8901  -32.2964   26.4761 H   0  0  0  0  0  0
  -25.7961  -30.8977   27.0219 H   0  0  0  0  0  0
  -26.3047  -29.6640   24.1354 H   0  0  0  0  0  0
  -27.3966  -29.7261   25.4977 H   0  0  0  0  0  0
  -27.8981  -30.4138   23.9730 H   0  0  0  0  0  0
  -27.2644  -33.3660   26.2015 H   0  0  0  0  0  0
  -28.3904  -32.6865   25.0360 H   0  0  0  0  0  0
  -28.0692  -31.8513   26.5480 H   0  0  0  0  0  0
  -28.2575  -38.0087   24.7509 H   0  0  0  0  0  0
  -28.1091  -36.2612   24.6284 H   0  0  0  0  0  0
  -27.2292  -37.1403   25.8866 H   0  0  0  0  0  0
  -20.9517  -29.8736   21.6713 H   0  0  0  0  0  0
  -26.0144  -38.2785   24.1429 H   0  0  0  0  0  0
  -32.3231  -19.7674   22.4223 H   0  0  0  0  0  0
  -31.0310  -21.5999   21.6713 H   0  0  0  0  0  0
  -32.5375  -17.6192   23.1269 H   0  0  0  0  0  0
  -32.8339  -16.8227   21.5939 H   0  0  0  0  0  0
  -31.4838  -16.3217   22.6441 H   0  0  0  0  0  0
  -27.8236  -19.4845   18.7387 H   0  0  0  0  0  0
  -27.0926  -18.7287   20.1601 H   0  0  0  0  0  0
  -28.0213  -17.7600   19.0104 H   0  0  0  0  0  0
  -26.9830  -24.2792   20.5641 H   0  0  0  0  0  0
  -27.6888  -24.3493   18.9789 H   0  0  0  0  0  0
  -27.8446  -21.6146   19.7941 H   0  0  0  0  0  0
  -28.7664  -16.0677   20.4854 H   0  0  0  0  0  0
  1 25  1  0  0  0
  1 30  2  0  0  0
  1 82  1  0  0  0
  2  3  1  0  0  0
  2 25  1  0  0  0
  2 84  1  0  0  0
  2 85  1  0  0  0
  3  4  1  0  0  0
  3 86  1  0  0  0
  3 87  1  0  0  0
  4  5  1  0  0  0
  4 88  1  0  0  0
  4 89  1  0  0  0
  5  6  1  0  0  0
  5 26  1  0  0  0
  5 90  1  0  0  0
  6 25  1  0  0  0
  6 91  1  0  0  0
  6 92  1  0  0  0
  7  8  2  0  0  0
  7 26  1  0  0  0
  7 29  1  0  0  0
  8  9  1  0  0  0
  8 22  1  0  0  0
  9 10  1  0  0  0
  9 27  2  0  0  0
 10 11  2  0  0  0
 10 15  1  0  0  0
 11 12  1  0  0  0
 11 93  1  0  0  0
 12 13  2  0  0  0
 12 94  1  0  0  0
 13 14  1  0  0  0
 13 31  1  0  0  0
 14 15  2  0  0  0
 14 95  1  0  0  0
 15 96  1  0  0  0
 16 17  2  0  0  0
 16 21  1  0  0  0
 16 31  1  0  0  0
 17 18  1  0  0  0
 17 97  1  0  0  0
 18 19  2  0  0  0
 18 98  1  0  0  0
 19 20  1  0  0  0
 19 24  1  0  0  0
 20 21  2  0  0  0
 20 99  1  0  0  0
 21 23  1  0  0  0
 22 28  1  0  0  0
 22 32  2  0  0  0
 26 27  1  0  0  0
 28100  1  0  0  0
 28101  1  0  0  0
 29102  1  0  0  0
 29103  1  0  0  0
 33 34  1  0  0  0
 33 66  1  0  0  0
 33 70  2  0  0  0
 34 36  1  0  0  0
 34 59  1  0  0  0
 34104  1  0  0  0
 35 44  2  0  0  0
 35 45  1  0  0  0
 35 68  1  0  0  0
 36 56  1  0  0  0
 36105  1  0  0  0
 37 39  1  0  0  0
 37 47  1  0  0  0
 37 66  1  0  0  0
 37106  1  0  0  0
 38 43  2  0  0  0
 38 46  1  0  0  0
 38 47  1  0  0  0
 39 64  1  0  0  0
 39 67  2  0  0  0
 40 52  1  0  0  0
 40 53  2  0  0  0
 40 58  1  0  0  0
 41107  1  0  0  0
 41108  1  0  0  0
 41109  1  0  0  0
 41 48  1  0  0  0
 42 43  1  0  0  0
 42 66  1  0  0  0
 42110  1  0  0  0
 42111  1  0  0  0
 43 44  1  0  0  0
 44112  1  0  0  0
 45 46  2  0  0  0
 45113  1  0  0  0
 46114  1  0  0  0
 47115  1  0  0  0
 47116  1  0  0  0
 48 56  1  0  0  0
 48 65  1  0  0  0
 48117  1  0  0  0
 49 50  1  0  0  0
 49 53  1  0  0  0
 49 64  1  0  0  0
 49118  1  0  0  0
 50 51  1  0  0  0
 50119  1  0  0  0
 50120  1  0  0  0
 51 52  1  0  0  0
 51121  1  0  0  0
 51122  1  0  0  0
 52123  1  0  0  0
 52124  1  0  0  0
 53 54  1  0  0  0
 54 55  2  0  0  0
 54125  1  0  0  0
 55 57  1  0  0  0
 55126  1  0  0  0
 56 69  2  0  0  0
 57 58  2  0  0  0
 57127  1  0  0  0
 58128  1  0  0  0
 59 60  1  0  0  0
 59 61  1  0  0  0
 59 62  1  0  0  0
 60129  1  0  0  0
 60130  1  0  0  0
 60131  1  0  0  0
 61132  1  0  0  0
 61133  1  0  0  0
 61134  1  0  0  0
 62135  1  0  0  0
 62136  1  0  0  0
 62137  1  0  0  0
 63 65  1  0  0  0
 63138  1  0  0  0
 63139  1  0  0  0
 63140  1  0  0  0
 64141  1  0  0  0
 65142  1  0  0  0
 68 80  1  0  0  0
 71 72  2  0  0  0
 71 73  1  0  0  0
 71143  1  0  0  0
 72 75  1  0  0  0
 72144  1  0  0  0
 73 76  2  0  0  0
 73 78  1  0  0  0
 74 75  2  0  0  0
 74 76  1  0  0  0
 74 79  1  0  0  0
 75 81  1  0  0  0
 76 82  1  0  0  0
 77 80  1  0  0  0
 77 81  1  0  0  0
 77 83  2  0  0  0
 78145  1  0  0  0
 78146  1  0  0  0
 78147  1  0  0  0
 79148  1  0  0  0
 79149  1  0  0  0
 79150  1  0  0  0
 80151  1  0  0  0
 80152  1  0  0  0
 81153  1  0  0  0
 82154  1  0  0  0
M  ISO  4   1 100  68 101  80 101  82 100
M  END
> <chiral flag>
0

> <version>
0

> <s_m_source_file>
/data/baiqing/PycharmProjects/Reinvent-master-3.2/result/LINK_invent/BTK/process_docking_weight1_custom_sum_contain_oxygen_bond_distance_aromatic_linkinvent_7_9_3/rearranged_h_0014.sdf

> <i_m_source_file_index>
13

> <r_mmod_Potential_Energy-OPLS-2005>
628.337036132812

> <r_mmod_Stretch_Energy-OPLS-2005>
356.706787109375

> <r_mmod_Bend_Energy-OPLS-2005>
278.723541259766

> <r_mmod_Torsional_Energy-OPLS-2005>
226.626983642578

> <r_mmod_Improper_Torsional_Energy-OPLS-2005>
5.81391286849976

> <r_mmod_Van_der_Waal_Energy-OPLS-2005>
139.589828491211

> <r_mmod_Electrostatic_Energy-OPLS-2005>
-399.006134033203

> <r_mmod_Solvation_Energy-OPLS-2005>
-245.497177124023

> <b_mmod_Minimization_Converged-OPLS-2005>
0

> <r_mmod_RMS_Derivative-OPLS-2005>
0.975064039230347

$$$$
13
                    3D
 Structure written by MMmdl.
159167  0  0  1  0            999 V2000
  -30.6460  -14.7172   20.4472 C   0  0  0  0  0  0
  -30.4184  -12.4338   19.4774 C   0  0  0  0  0  0
  -29.5044  -12.4987   18.2363 C   0  0  0  0  0  0
  -28.0300  -12.3335   18.6486 C   0  0  0  0  0  0
  -27.6379  -13.2365   19.8491 C   0  0  2  0  0  0
  -28.6818  -13.1804   20.9859 C   0  0  0  0  0  0
  -25.2479  -13.8207   20.5695 C   0  0  0  0  0  0
  -24.1779  -13.0443   20.9201 C   0  0  0  0  0  0
  -24.6380  -11.6927   20.8752 C   0  0  0  0  0  0
  -23.9059  -10.4297   21.0409 C   0  0  0  0  0  0
  -24.3615   -9.4212   21.9182 C   0  0  0  0  0  0
  -23.6298   -8.2244   22.0753 C   0  0  0  0  0  0
  -22.4280   -8.0279   21.3545 C   0  0  0  0  0  0
  -21.9910   -9.0247   20.4641 C   0  0  0  0  0  0
  -22.7235  -10.2129   20.3055 C   0  0  0  0  0  0
  -21.6853   -6.0734   22.5277 C   0  0  0  0  0  0
  -21.4014   -6.5637   23.8210 C   0  0  0  0  0  0
  -21.3664   -5.6790   24.9174 C   0  0  0  0  0  0
  -21.6047   -4.3052   24.7223 C   0  0  0  0  0  0
  -21.8821   -3.8144   23.4343 C   0  0  0  0  0  0
  -21.9191   -4.6961   22.3401 C   0  0  0  0  0  0
  -22.7799  -13.5216   21.1862 C   0  0  0  0  0  0
  -22.1660   -4.2147   21.0977 F   0  0  0  0  0  0
  -21.5633   -3.4535   25.7736 F   0  0  0  0  0  0
  -29.9856  -13.5107   20.3995 N   0  0  0  0  0  0
  -26.2913  -12.9427   20.3286 N   0  0  0  0  0  0
  -25.9311  -11.6562   20.5760 N   0  0  0  0  0  0
  -22.0449  -12.8209   22.0426 N   0  0  0  0  0  0
  -25.4146  -15.1932   20.4127 N   0  0  0  0  0  0
  -31.8417  -14.7381   20.1548 O   0  0  0  0  0  0
  -21.6646   -6.8879   21.4240 O   0  0  0  0  0  0
  -22.3476  -14.5516   20.6706 O   0  0  0  0  0  0
  -24.6295  -31.8545   23.1975 C   0  0  0  0  0  0
  -25.9130  -32.4745   23.8320 C   0  0  1  0  0  0
  -27.2237  -27.2760   20.1214 C   0  0  0  0  0  0
  -25.5931  -33.8547   24.2246 N   0  0  0  0  0  0
  -23.4247  -30.4765   21.5405 C   0  0  2  0  0  0
  -24.8707  -28.9219   20.1088 C   0  0  0  0  0  0
  -22.7489  -29.4596   22.4917 C   0  0  0  0  0  0
  -18.0283  -28.1388   22.8487 C   0  0  0  0  0  0
  -24.1484  -36.7282   23.2641 C   0  0  0  0  0  0
  -25.9686  -30.7726   21.3727 C   0  0  0  0  0  0
  -26.0392  -29.3956   20.7160 C   0  0  0  0  0  0
  -27.2146  -28.5834   20.7121 C   0  0  0  0  0  0
  -26.0270  -26.8567   19.4983 C   0  0  0  0  0  0
  -24.8689  -27.6603   19.4917 C   0  0  0  0  0  0
  -23.6401  -29.8068   20.1565 C   0  0  0  0  0  0
  -25.4113  -36.3062   24.0323 C   0  0  1  0  0  0
  -20.5887  -28.3688   23.1280 C   0  0  2  0  0  0
  -20.6777  -26.9405   22.5411 C   0  0  0  0  0  0
  -19.5745  -26.6381   21.5218 C   0  0  0  0  0  0
  -18.1927  -26.7932   22.1627 C   0  0  0  0  0  0
  -19.1538  -28.8859   23.2874 C   0  0  0  0  0  0
  -18.9459  -30.1464   23.8883 C   0  0  0  0  0  0
  -17.6457  -30.6587   24.0565 C   0  0  0  0  0  0
  -25.9053  -34.9433   23.5088 C   0  0  0  0  0  0
  -16.5348  -29.9085   23.6334 C   0  0  0  0  0  0
  -16.7268  -28.6503   23.0354 C   0  0  0  0  0  0
  -26.4506  -31.6578   25.0710 C   0  0  0  0  0  0
  -25.3734  -31.3737   26.1437 C   0  0  0  0  0  0
  -27.0365  -30.2995   24.6202 C   0  0  0  0  0  0
  -27.6051  -32.4333   25.7486 C   0  0  0  0  0  0
  -27.5574  -37.1796   24.8463 C   0  0  0  0  0  0
  -21.4197  -29.3034   22.3670 N   0  0  0  0  0  0
  -26.4286  -37.3762   23.9407 N   0  0  0  0  0  0
  -24.6935  -31.0531   22.0933 N   0  0  0  0  0  0
  -23.4203  -28.8138   23.3005 O   0  0  0  0  0  0
  -28.3568  -26.4402   20.1960 O   0  0  0  0  0  0
  -26.5616  -34.8912   22.4650 O   0  0  0  0  0  0
  -23.5453  -32.1354   23.7288 O   0  0  0  0  0  0
  -31.5928  -17.6843   20.0131 C   0  0  0  0  0  0
  -31.9972  -19.0238   19.8533 C   0  0  0  0  0  0
  -29.7572  -19.8496   20.4650 C   0  0  0  0  0  0
  -30.2877  -17.3261   20.4260 C   0  0  0  0  0  0
  -31.1058  -20.0926   20.0940 C   0  0  0  0  0  0
  -29.3774  -18.4452   20.6344 C   0  0  0  0  0  0
  -33.4322  -19.3047   19.4346 C   0  0  0  0  0  0
  -26.8499  -23.5696   21.0407 C   0  0  0  0  0  0
  -28.8170  -21.0987   20.8132 C   0  0  0  0  0  0
  -28.4409  -25.0481   19.6455 C   0  0  0  0  0  0
  -28.3105  -23.7285   20.5762 C   0  0  2  0  0  0
  -29.9162  -15.8901   20.6202 N   0  0  0  0  0  0
  -28.8505  -22.4012   19.9902 N   0  3  0  0  0  0
  -31.7220  -21.7092   19.9619 Cl  0  0  0  0  0  0
  -27.7714  -18.0652   21.1491 Cl  0  0  0  0  0  0
  -31.4629  -12.5301   19.1762 H   0  0  0  0  0  0
  -30.3401  -11.4606   19.9643 H   0  0  0  0  0  0
  -29.7822  -11.7231   17.5208 H   0  0  0  0  0  0
  -29.6417  -13.4524   17.7245 H   0  0  0  0  0  0
  -27.8819  -11.2858   18.9122 H   0  0  0  0  0  0
  -27.3733  -12.5266   17.7994 H   0  0  0  0  0  0
  -27.6294  -14.2570   19.4650 H   0  0  0  0  0  0
  -28.7091  -12.1898   21.4423 H   0  0  0  0  0  0
  -28.4229  -13.8791   21.7832 H   0  0  0  0  0  0
  -25.2757   -9.5692   22.4754 H   0  0  0  0  0  0
  -24.0008   -7.4637   22.7473 H   0  0  0  0  0  0
  -21.0840   -8.8757   19.8949 H   0  0  0  0  0  0
  -22.3685  -10.9663   19.6164 H   0  0  0  0  0  0
  -21.2008   -7.6146   23.9713 H   0  0  0  0  0  0
  -21.1484   -6.0521   25.9078 H   0  0  0  0  0  0
  -22.0597   -2.7605   23.2841 H   0  0  0  0  0  0
  -22.4074  -11.9876   22.4817 H   0  0  0  0  0  0
  -21.1062  -13.1222   22.2627 H   0  0  0  0  0  0
  -24.6484  -15.8449   20.5409 H   0  0  0  0  0  0
  -26.2670  -15.6441   20.1081 H   0  0  0  0  0  0
  -26.7197  -32.5394   23.1065 H   0  0  0  0  0  0
  -25.0103  -33.9685   25.0408 H   0  0  0  0  0  0
  -22.7200  -31.2979   21.3941 H   0  0  0  0  0  0
  -23.3743  -35.9617   23.3298 H   0  0  0  0  0  0
  -24.3581  -36.8909   22.2058 H   0  0  0  0  0  0
  -23.7244  -37.6485   23.6669 H   0  0  0  0  0  0
  -26.1064  -31.5328   20.6023 H   0  0  0  0  0  0
  -26.8481  -30.8217   22.0038 H   0  0  0  0  0  0
  -28.1115  -28.9433   21.1965 H   0  0  0  0  0  0
  -25.9445  -25.8871   19.0333 H   0  0  0  0  0  0
  -23.9696  -27.2895   19.0195 H   0  0  0  0  0  0
  -23.7596  -30.5809   19.3977 H   0  0  0  0  0  0
  -22.7591  -29.2362   19.8560 H   0  0  0  0  0  0
  -25.1299  -36.1905   25.0816 H   0  0  0  0  0  0
  -20.9978  -28.3258   24.1401 H   0  0  0  0  0  0
  -20.5688  -26.2285   23.3608 H   0  0  0  0  0  0
  -21.6645  -26.7433   22.1197 H   0  0  0  0  0  0
  -19.6897  -25.6293   21.1242 H   0  0  0  0  0  0
  -19.6692  -27.3197   20.6753 H   0  0  0  0  0  0
  -17.4201  -26.6684   21.4023 H   0  0  0  0  0  0
  -18.0308  -26.0079   22.9023 H   0  0  0  0  0  0
  -19.7936  -30.7289   24.2237 H   0  0  0  0  0  0
  -17.5008  -31.6262   24.5173 H   0  0  0  0  0  0
  -15.5348  -30.2984   23.7668 H   0  0  0  0  0  0
  -15.8665  -28.0823   22.7071 H   0  0  0  0  0  0
  -24.5902  -30.7088   25.7778 H   0  0  0  0  0  0
  -24.8937  -32.2914   26.4846 H   0  0  0  0  0  0
  -25.8056  -30.8929   27.0222 H   0  0  0  0  0  0
  -26.2955  -29.6728   24.1226 H   0  0  0  0  0  0
  -27.4050  -29.7270   25.4726 H   0  0  0  0  0  0
  -27.8824  -30.4269   23.9444 H   0  0  0  0  0  0
  -27.2641  -33.3638   26.2037 H   0  0  0  0  0  0
  -28.3875  -32.6891   25.0330 H   0  0  0  0  0  0
  -28.0706  -31.8484   26.5429 H   0  0  0  0  0  0
  -28.2588  -38.0095   24.7510 H   0  0  0  0  0  0
  -28.1073  -36.2628   24.6289 H   0  0  0  0  0  0
  -27.2292  -37.1442   25.8865 H   0  0  0  0  0  0
  -20.9367  -29.8758   21.6886 H   0  0  0  0  0  0
  -26.0158  -38.2830   24.1413 H   0  0  0  0  0  0
  -32.3447  -16.9405   19.8154 H   0  0  0  0  0  0
  -33.9961  -18.3868   19.2674 H   0  0  0  0  0  0
  -33.9511  -19.8751   20.2054 H   0  0  0  0  0  0
  -33.4552  -19.8791   18.5082 H   0  0  0  0  0  0
  -26.4757  -24.4965   21.4768 H   0  0  0  0  0  0
  -26.7452  -22.7962   21.8015 H   0  0  0  0  0  0
  -26.1928  -23.3129   20.2089 H   0  0  0  0  0  0
  -29.0572  -21.3632   21.8434 H   0  0  0  0  0  0
  -27.7808  -20.7633   20.8339 H   0  0  0  0  0  0
  -27.8130  -24.9375   18.7634 H   0  0  0  0  0  0
  -29.4494  -25.0153   19.2329 H   0  0  0  0  0  0
  -28.9178  -23.9228   21.4615 H   0  0  0  0  0  0
  -28.9476  -15.7420   20.8593 H   0  0  0  0  0  0
  -28.3974  -22.2131   19.1090 H   0  0  0  0  0  0
  -29.8295  -22.5500   19.7815 H   0  0  0  0  0  0
  1 25  1  0  0  0
  1 30  2  0  0  0
  1 82  1  0  0  0
  2  3  1  0  0  0
  2 25  1  0  0  0
  2 86  1  0  0  0
  2 87  1  0  0  0
  3  4  1  0  0  0
  3 88  1  0  0  0
  3 89  1  0  0  0
  4  5  1  0  0  0
  4 90  1  0  0  0
  4 91  1  0  0  0
  5  6  1  0  0  0
  5 26  1  0  0  0
  5 92  1  0  0  0
  6 25  1  0  0  0
  6 93  1  0  0  0
  6 94  1  0  0  0
  7  8  2  0  0  0
  7 26  1  0  0  0
  7 29  1  0  0  0
  8  9  1  0  0  0
  8 22  1  0  0  0
  9 10  1  0  0  0
  9 27  2  0  0  0
 10 11  2  0  0  0
 10 15  1  0  0  0
 11 12  1  0  0  0
 11 95  1  0  0  0
 12 13  2  0  0  0
 12 96  1  0  0  0
 13 14  1  0  0  0
 13 31  1  0  0  0
 14 15  2  0  0  0
 14 97  1  0  0  0
 15 98  1  0  0  0
 16 17  2  0  0  0
 16 21  1  0  0  0
 16 31  1  0  0  0
 17 18  1  0  0  0
 17 99  1  0  0  0
 18 19  2  0  0  0
 18100  1  0  0  0
 19 20  1  0  0  0
 19 24  1  0  0  0
 20 21  2  0  0  0
 20101  1  0  0  0
 21 23  1  0  0  0
 22 28  1  0  0  0
 22 32  2  0  0  0
 26 27  1  0  0  0
 28102  1  0  0  0
 28103  1  0  0  0
 29104  1  0  0  0
 29105  1  0  0  0
 33 34  1  0  0  0
 33 66  1  0  0  0
 33 70  2  0  0  0
 34 36  1  0  0  0
 34 59  1  0  0  0
 34106  1  0  0  0
 35 44  2  0  0  0
 35 45  1  0  0  0
 35 68  1  0  0  0
 36 56  1  0  0  0
 36107  1  0  0  0
 37 39  1  0  0  0
 37 47  1  0  0  0
 37 66  1  0  0  0
 37108  1  0  0  0
 38 43  2  0  0  0
 38 46  1  0  0  0
 38 47  1  0  0  0
 39 64  1  0  0  0
 39 67  2  0  0  0
 40 52  1  0  0  0
 40 53  2  0  0  0
 40 58  1  0  0  0
 41109  1  0  0  0
 41110  1  0  0  0
 41111  1  0  0  0
 41 48  1  0  0  0
 42 43  1  0  0  0
 42 66  1  0  0  0
 42112  1  0  0  0
 42113  1  0  0  0
 43 44  1  0  0  0
 44114  1  0  0  0
 45 46  2  0  0  0
 45115  1  0  0  0
 46116  1  0  0  0
 47117  1  0  0  0
 47118  1  0  0  0
 48 56  1  0  0  0
 48 65  1  0  0  0
 48119  1  0  0  0
 49 50  1  0  0  0
 49 53  1  0  0  0
 49 64  1  0  0  0
 49120  1  0  0  0
 50 51  1  0  0  0
 50121  1  0  0  0
 50122  1  0  0  0
 51 52  1  0  0  0
 51123  1  0  0  0
 51124  1  0  0  0
 52125  1  0  0  0
 52126  1  0  0  0
 53 54  1  0  0  0
 54 55  2  0  0  0
 54127  1  0  0  0
 55 57  1  0  0  0
 55128  1  0  0  0
 56 69  2  0  0  0
 57 58  2  0  0  0
 57129  1  0  0  0
 58130  1  0  0  0
 59 60  1  0  0  0
 59 61  1  0  0  0
 59 62  1  0  0  0
 60131  1  0  0  0
 60132  1  0  0  0
 60133  1  0  0  0
 61134  1  0  0  0
 61135  1  0  0  0
 61136  1  0  0  0
 62137  1  0  0  0
 62138  1  0  0  0
 62139  1  0  0  0
 63 65  1  0  0  0
 63140  1  0  0  0
 63141  1  0  0  0
 63142  1  0  0  0
 64143  1  0  0  0
 65144  1  0  0  0
 68 80  1  0  0  0
 71 72  2  0  0  0
 71 74  1  0  0  0
 71145  1  0  0  0
 72 75  1  0  0  0
 72 77  1  0  0  0
 73 75  2  0  0  0
 73 76  1  0  0  0
 73 79  1  0  0  0
 74 76  2  0  0  0
 74 82  1  0  0  0
 75 84  1  0  0  0
 76 85  1  0  0  0
 77146  1  0  0  0
 77147  1  0  0  0
 77148  1  0  0  0
 78149  1  0  0  0
 78150  1  0  0  0
 78151  1  0  0  0
 78 81  1  0  0  0
 79 83  1  0  0  0
 79152  1  0  0  0
 79153  1  0  0  0
 80 81  1  0  0  0
 80154  1  0  0  0
 80155  1  0  0  0
 81 83  1  0  0  0
 81156  1  0  0  0
 82157  1  0  0  0
 83158  1  0  0  0
 83159  1  0  0  0
M  CHG  1  83   1
M  ISO  4   1 100  68 101  80 101  82 100
M  END
> <chiral flag>
0

> <version>
0

> <s_m_source_file>
/data/baiqing/PycharmProjects/Reinvent-master-3.2/result/LINK_invent/BTK/process_docking_weight1_custom_sum_contain_oxygen_bond_distance_aromatic_linkinvent_7_9_3/rearranged_h_0014.sdf

> <i_m_source_file_index>
14

> <r_mmod_Potential_Energy-OPLS-2005>
-46.2703666687012

> <r_mmod_Stretch_Energy-OPLS-2005>
125.045333862305

> <r_mmod_Bend_Energy-OPLS-2005>
174.729095458984

> <r_mmod_Torsional_Energy-OPLS-2005>
206.457931518555

> <r_mmod_Improper_Torsional_Energy-OPLS-2005>
4.85166072845459

> <r_mmod_Van_der_Waal_Energy-OPLS-2005>
149.508834838867

> <r_mmod_Electrostatic_Energy-OPLS-2005>
-337.751220703125

> <r_mmod_Solvation_Energy-OPLS-2005>
-443.147369384766

> <b_mmod_Minimization_Converged-OPLS-2005>
0

> <r_mmod_RMS_Derivative-OPLS-2005>
0.955882012844086

$$$$
14
                    3D
 Structure written by MMmdl.
167175  0  0  1  0            999 V2000
  -30.5867  -14.7548   20.4660 C   0  0  0  0  0  0
  -30.4658  -12.4707   19.4710 C   0  0  0  0  0  0
  -29.5151  -12.4952   18.2581 C   0  0  0  0  0  0
  -28.0507  -12.2970   18.6977 C   0  0  0  0  0  0
  -27.6539  -13.1782   19.9102 C   0  0  2  0  0  0
  -28.7197  -13.1153   21.0288 C   0  0  0  0  0  0
  -25.2540  -13.8028   20.5753 C   0  0  0  0  0  0
  -24.1766  -13.0391   20.9173 C   0  0  0  0  0  0
  -24.6304  -11.6833   20.8820 C   0  0  0  0  0  0
  -23.8936  -10.4283   21.0448 C   0  0  0  0  0  0
  -24.3539   -9.4227   21.9209 C   0  0  0  0  0  0
  -23.6284   -8.2233   22.0742 C   0  0  0  0  0  0
  -22.4273   -8.0263   21.3517 C   0  0  0  0  0  0
  -21.9869   -9.0203   20.4611 C   0  0  0  0  0  0
  -22.7126  -10.2119   20.3066 C   0  0  0  0  0  0
  -21.6851   -6.0757   22.5265 C   0  0  0  0  0  0
  -21.4006   -6.5661   23.8199 C   0  0  0  0  0  0
  -21.3635   -5.6797   24.9156 C   0  0  0  0  0  0
  -21.6055   -4.3057   24.7220 C   0  0  0  0  0  0
  -21.8821   -3.8157   23.4337 C   0  0  0  0  0  0
  -21.9223   -4.6991   22.3410 C   0  0  0  0  0  0
  -22.7792  -13.5231   21.1796 C   0  0  0  0  0  0
  -22.1680   -4.2178   21.0989 F   0  0  0  0  0  0
  -21.5635   -3.4540   25.7730 F   0  0  0  0  0  0
  -30.0100  -13.5050   20.4326 N   0  0  0  0  0  0
  -26.2995  -12.9133   20.3671 N   0  0  0  0  0  0
  -25.9257  -11.6320   20.5982 N   0  0  0  0  0  0
  -22.0454  -12.8241   22.0352 N   0  0  0  0  0  0
  -25.4320  -15.1763   20.4258 N   0  0  0  0  0  0
  -31.7321  -14.9220   20.0409 O   0  0  0  0  0  0
  -21.6655   -6.8871   21.4209 O   0  0  0  0  0  0
  -22.3520  -14.5573   20.6664 O   0  0  0  0  0  0
  -24.6281  -31.8562   23.1961 C   0  0  0  0  0  0
  -25.9110  -32.4756   23.8332 C   0  0  1  0  0  0
  -27.2383  -27.2815   20.1672 C   0  0  0  0  0  0
  -25.5950  -33.8568   24.2251 N   0  0  0  0  0  0
  -23.4247  -30.4830   21.5307 C   0  0  2  0  0  0
  -24.8797  -28.9294   20.1070 C   0  0  0  0  0  0
  -22.7424  -29.4711   22.4850 C   0  0  0  0  0  0
  -18.0248  -28.1476   22.8430 C   0  0  0  0  0  0
  -24.1478  -36.7274   23.2622 C   0  0  0  0  0  0
  -25.9658  -30.7805   21.3751 C   0  0  0  0  0  0
  -26.0448  -29.4027   20.7223 C   0  0  0  0  0  0
  -27.2230  -28.5920   20.7436 C   0  0  0  0  0  0
  -26.0550  -26.8781   19.5047 C   0  0  0  0  0  0
  -24.8918  -27.6745   19.4778 C   0  0  0  0  0  0
  -23.6449  -29.8070   20.1496 C   0  0  0  0  0  0
  -25.4108  -36.3067   24.0293 C   0  0  1  0  0  0
  -20.5851  -28.3845   23.1213 C   0  0  2  0  0  0
  -20.6725  -26.9528   22.5485 C   0  0  0  0  0  0
  -19.5775  -26.6451   21.5249 C   0  0  0  0  0  0
  -18.1967  -26.7999   22.1644 C   0  0  0  0  0  0
  -19.1487  -28.8937   23.2848 C   0  0  0  0  0  0
  -18.9403  -30.1525   23.8901 C   0  0  0  0  0  0
  -17.6393  -30.6576   24.0639 C   0  0  0  0  0  0
  -25.9076  -34.9440   23.5060 C   0  0  0  0  0  0
  -16.5295  -29.9131   23.6310 C   0  0  0  0  0  0
  -16.7236  -28.6599   23.0238 C   0  0  0  0  0  0
  -26.4478  -31.6584   25.0738 C   0  0  0  0  0  0
  -25.3685  -31.3785   26.1453 C   0  0  0  0  0  0
  -27.0331  -30.2965   24.6322 C   0  0  0  0  0  0
  -27.6010  -32.4361   25.7550 C   0  0  0  0  0  0
  -27.5558  -37.1802   24.8444 C   0  0  0  0  0  0
  -21.4140  -29.3180   22.3512 N   0  0  0  0  0  0
  -26.4267  -37.3778   23.9377 N   0  0  0  0  0  0
  -24.6900  -31.0587   22.0916 N   0  0  0  0  0  0
  -23.4030  -28.8252   23.3025 O   0  0  0  0  0  0
  -28.3453  -26.4074   20.2898 O   0  0  0  0  0  0
  -26.5640  -34.8903   22.4625 O   0  0  0  0  0  0
  -23.5434  -32.1375   23.7249 O   0  0  0  0  0  0
  -28.2838  -19.6086   19.4148 C   0  0  0  0  0  0
  -28.0677  -18.4002   18.7405 C   0  0  0  0  0  0
  -29.1810  -19.6897   20.4888 C   0  0  0  0  0  0
  -28.7249  -17.2004   19.0927 C   0  0  0  0  0  0
  -29.5071  -17.1484   20.2868 C   0  0  0  0  0  0
  -29.7309  -18.4257   20.9602 C   0  0  0  0  0  0
  -29.4238  -17.3164   15.8158 C   0  0  0  0  0  0
  -28.1776  -16.9065   16.1147 C   0  0  0  0  0  0
  -28.0052  -15.8289   17.0787 C   0  0  0  0  0  0
  -26.9243  -17.4843   15.4688 C   0  0  0  0  0  0
  -29.1412  -23.9973   22.3730 C   0  0  0  0  0  0
  -29.4729  -21.1316   21.0980 C   0  0  0  0  0  0
  -28.1405  -24.9281   20.1518 C   0  0  0  0  0  0
  -29.1001  -23.8164   20.8442 C   0  0  2  0  0  0
  -28.4790  -16.0199   18.3294 N   0  0  0  0  0  0
  -29.8073  -15.8167   20.8882 N   0  0  0  0  0  0
  -28.7583  -22.3527   20.4796 N   0  3  0  0  0  0
  -27.4128  -14.7888   16.7987 O   0  0  0  0  0  0
  -30.6629  -18.4302   22.4159 Cl  0  0  0  0  0  0
  -31.4898  -12.6513   19.1336 H   0  0  0  0  0  0
  -30.4791  -11.4893   19.9488 H   0  0  0  0  0  0
  -29.7960  -11.7178   17.5472 H   0  0  0  0  0  0
  -29.6286  -13.4395   17.7325 H   0  0  0  0  0  0
  -27.9316  -11.2494   18.9668 H   0  0  0  0  0  0
  -27.3673  -12.4698   17.8688 H   0  0  0  0  0  0
  -27.6226  -14.1948   19.5676 H   0  0  0  0  0  0
  -28.7958  -12.1138   21.4524 H   0  0  0  0  0  0
  -28.4589  -13.7663   21.8627 H   0  0  0  0  0  0
  -25.2700   -9.5795   22.4751 H   0  0  0  0  0  0
  -24.0063   -7.4647   22.7440 H   0  0  0  0  0  0
  -21.0821   -8.8658   19.8925 H   0  0  0  0  0  0
  -22.3516  -10.9652   19.6184 H   0  0  0  0  0  0
  -21.1948   -7.6152   23.9703 H   0  0  0  0  0  0
  -21.1444   -6.0524   25.9045 H   0  0  0  0  0  0
  -22.0636   -2.7628   23.2815 H   0  0  0  0  0  0
  -22.4064  -11.9886   22.4719 H   0  0  0  0  0  0
  -21.1051  -13.1172   22.2494 H   0  0  0  0  0  0
  -24.6732  -15.8344   20.5589 H   0  0  0  0  0  0
  -26.2962  -15.6293   20.1614 H   0  0  0  0  0  0
  -26.7182  -32.5407   23.1076 H   0  0  0  0  0  0
  -25.0007  -33.9713   25.0335 H   0  0  0  0  0  0
  -22.7260  -31.3073   21.3740 H   0  0  0  0  0  0
  -23.3739  -35.9616   23.3320 H   0  0  0  0  0  0
  -24.3560  -36.8877   22.2039 H   0  0  0  0  0  0
  -23.7240  -37.6475   23.6645 H   0  0  0  0  0  0
  -26.1079  -31.5479   20.6147 H   0  0  0  0  0  0
  -26.8408  -30.8316   22.0108 H   0  0  0  0  0  0
  -28.1052  -28.9528   21.2517 H   0  0  0  0  0  0
  -25.9925  -25.9184   19.0150 H   0  0  0  0  0  0
  -24.0112  -27.3073   18.9708 H   0  0  0  0  0  0
  -23.7575  -30.5674   19.3717 H   0  0  0  0  0  0
  -22.7694  -29.2219   19.8590 H   0  0  0  0  0  0
  -25.1316  -36.1884   25.0793 H   0  0  0  0  0  0
  -20.9974  -28.3501   24.1345 H   0  0  0  0  0  0
  -20.5405  -26.2469   23.3724 H   0  0  0  0  0  0
  -21.6605  -26.7536   22.1314 H   0  0  0  0  0  0
  -19.7006  -25.6344   21.1381 H   0  0  0  0  0  0
  -19.6796  -27.3186   20.6720 H   0  0  0  0  0  0
  -17.4236  -26.6685   21.4067 H   0  0  0  0  0  0
  -18.0383  -26.0169   22.9068 H   0  0  0  0  0  0
  -19.7826  -30.7408   24.2286 H   0  0  0  0  0  0
  -17.4976  -31.6194   24.5373 H   0  0  0  0  0  0
  -15.5316  -30.3011   23.7780 H   0  0  0  0  0  0
  -15.8715  -28.0901   22.6840 H   0  0  0  0  0  0
  -24.5833  -30.7189   25.7782 H   0  0  0  0  0  0
  -24.8923  -32.2988   26.4854 H   0  0  0  0  0  0
  -25.7977  -30.8961   27.0255 H   0  0  0  0  0  0
  -26.2969  -29.6703   24.1293 H   0  0  0  0  0  0
  -27.3877  -29.7265   25.4946 H   0  0  0  0  0  0
  -27.8920  -30.4193   23.9709 H   0  0  0  0  0  0
  -27.2567  -33.3638   26.2153 H   0  0  0  0  0  0
  -28.3820  -32.6968   25.0394 H   0  0  0  0  0  0
  -28.0676  -31.8477   26.5456 H   0  0  0  0  0  0
  -28.2588  -38.0097   24.7482 H   0  0  0  0  0  0
  -28.1052  -36.2623   24.6300 H   0  0  0  0  0  0
  -27.2282  -37.1495   25.8854 H   0  0  0  0  0  0
  -20.9446  -29.8780   21.6525 H   0  0  0  0  0  0
  -26.0134  -38.2854   24.1388 H   0  0  0  0  0  0
  -27.7392  -20.4723   19.0677 H   0  0  0  0  0  0
  -27.3343  -18.4214   17.9509 H   0  0  0  0  0  0
  -30.2878  -16.8602   16.2791 H   0  0  0  0  0  0
  -29.6116  -18.0988   15.0981 H   0  0  0  0  0  0
  -27.0322  -18.5436   15.2274 H   0  0  0  0  0  0
  -26.0698  -17.3762   16.1419 H   0  0  0  0  0  0
  -26.6868  -16.9452   14.5539 H   0  0  0  0  0  0
  -29.8852  -23.3437   22.8328 H   0  0  0  0  0  0
  -28.1844  -23.7740   22.8417 H   0  0  0  0  0  0
  -29.4072  -25.0161   22.6537 H   0  0  0  0  0  0
  -29.2378  -21.0775   22.1591 H   0  0  0  0  0  0
  -30.5504  -21.2831   21.0352 H   0  0  0  0  0  0
  -27.1252  -24.6933   20.4779 H   0  0  0  0  0  0
  -28.1665  -24.7354   19.0788 H   0  0  0  0  0  0
  -30.1156  -24.0036   20.4808 H   0  0  0  0  0  0
  -28.5223  -15.1621   18.8529 H   0  0  0  0  0  0
  -29.0536  -15.5007   21.4868 H   0  0  0  0  0  0
  -27.7737  -22.2224   20.6626 H   0  0  0  0  0  0
  -28.8798  -22.2687   19.4828 H   0  0  0  0  0  0
  1 25  1  0  0  0
  1 30  2  0  0  0
  1 86  1  0  0  0
  2  3  1  0  0  0
  2 25  1  0  0  0
  2 90  1  0  0  0
  2 91  1  0  0  0
  3  4  1  0  0  0
  3 92  1  0  0  0
  3 93  1  0  0  0
  4  5  1  0  0  0
  4 94  1  0  0  0
  4 95  1  0  0  0
  5  6  1  0  0  0
  5 26  1  0  0  0
  5 96  1  0  0  0
  6 25  1  0  0  0
  6 97  1  0  0  0
  6 98  1  0  0  0
  7  8  2  0  0  0
  7 26  1  0  0  0
  7 29  1  0  0  0
  8  9  1  0  0  0
  8 22  1  0  0  0
  9 10  1  0  0  0
  9 27  2  0  0  0
 10 11  2  0  0  0
 10 15  1  0  0  0
 11 12  1  0  0  0
 11 99  1  0  0  0
 12 13  2  0  0  0
 12100  1  0  0  0
 13 14  1  0  0  0
 13 31  1  0  0  0
 14 15  2  0  0  0
 14101  1  0  0  0
 15102  1  0  0  0
 16 17  2  0  0  0
 16 21  1  0  0  0
 16 31  1  0  0  0
 17 18  1  0  0  0
 17103  1  0  0  0
 18 19  2  0  0  0
 18104  1  0  0  0
 19 20  1  0  0  0
 19 24  1  0  0  0
 20 21  2  0  0  0
 20105  1  0  0  0
 21 23  1  0  0  0
 22 28  1  0  0  0
 22 32  2  0  0  0
 26 27  1  0  0  0
 28106  1  0  0  0
 28107  1  0  0  0
 29108  1  0  0  0
 29109  1  0  0  0
 33 34  1  0  0  0
 33 66  1  0  0  0
 33 70  2  0  0  0
 34 36  1  0  0  0
 34 59  1  0  0  0
 34110  1  0  0  0
 35 44  2  0  0  0
 35 45  1  0  0  0
 35 68  1  0  0  0
 36 56  1  0  0  0
 36111  1  0  0  0
 37 39  1  0  0  0
 37 47  1  0  0  0
 37 66  1  0  0  0
 37112  1  0  0  0
 38 43  2  0  0  0
 38 46  1  0  0  0
 38 47  1  0  0  0
 39 64  1  0  0  0
 39 67  2  0  0  0
 40 52  1  0  0  0
 40 53  2  0  0  0
 40 58  1  0  0  0
 41113  1  0  0  0
 41114  1  0  0  0
 41115  1  0  0  0
 41 48  1  0  0  0
 42 43  1  0  0  0
 42 66  1  0  0  0
 42116  1  0  0  0
 42117  1  0  0  0
 43 44  1  0  0  0
 44118  1  0  0  0
 45 46  2  0  0  0
 45119  1  0  0  0
 46120  1  0  0  0
 47121  1  0  0  0
 47122  1  0  0  0
 48 56  1  0  0  0
 48 65  1  0  0  0
 48123  1  0  0  0
 49 50  1  0  0  0
 49 53  1  0  0  0
 49 64  1  0  0  0
 49124  1  0  0  0
 50 51  1  0  0  0
 50125  1  0  0  0
 50126  1  0  0  0
 51 52  1  0  0  0
 51127  1  0  0  0
 51128  1  0  0  0
 52129  1  0  0  0
 52130  1  0  0  0
 53 54  1  0  0  0
 54 55  2  0  0  0
 54131  1  0  0  0
 55 57  1  0  0  0
 55132  1  0  0  0
 56 69  2  0  0  0
 57 58  2  0  0  0
 57133  1  0  0  0
 58134  1  0  0  0
 59 60  1  0  0  0
 59 61  1  0  0  0
 59 62  1  0  0  0
 60135  1  0  0  0
 60136  1  0  0  0
 60137  1  0  0  0
 61138  1  0  0  0
 61139  1  0  0  0
 61140  1  0  0  0
 62141  1  0  0  0
 62142  1  0  0  0
 62143  1  0  0  0
 63 65  1  0  0  0
 63144  1  0  0  0
 63145  1  0  0  0
 63146  1  0  0  0
 64147  1  0  0  0
 65148  1  0  0  0
 68 83  1  0  0  0
 71 72  2  0  0  0
 71 73  1  0  0  0
 71149  1  0  0  0
 72 74  1  0  0  0
 72150  1  0  0  0
 73 76  2  0  0  0
 73 82  1  0  0  0
 74 75  2  0  0  0
 74 85  1  0  0  0
 75 76  1  0  0  0
 75 86  1  0  0  0
 76 89  1  0  0  0
 77 78  2  0  0  0
 77151  1  0  0  0
 77152  1  0  0  0
 78 79  1  0  0  0
 78 80  1  0  0  0
 79 85  1  0  0  0
 79 88  2  0  0  0
 80153  1  0  0  0
 80154  1  0  0  0
 80155  1  0  0  0
 81156  1  0  0  0
 81157  1  0  0  0
 81158  1  0  0  0
 81 84  1  0  0  0
 82 87  1  0  0  0
 82159  1  0  0  0
 82160  1  0  0  0
 83 84  1  0  0  0
 83161  1  0  0  0
 83162  1  0  0  0
 84 87  1  0  0  0
 84163  1  0  0  0
 85164  1  0  0  0
 86165  1  0  0  0
 87166  1  0  0  0
 87167  1  0  0  0
M  CHG  1  87   1
M  ISO  4   1 100  68 101  83 101  86 100
M  END
> <chiral flag>
0

> <version>
0

> <s_m_source_file>
/data/baiqing/PycharmProjects/Reinvent-master-3.2/result/LINK_invent/BTK/process_docking_weight1_custom_sum_contain_oxygen_bond_distance_aromatic_linkinvent_7_9_3/rearranged_h_0014.sdf

> <i_m_source_file_index>
15

> <r_mmod_Potential_Energy-OPLS-2005>
-8.52522850036621

> <r_mmod_Stretch_Energy-OPLS-2005>
123.375839233398

> <r_mmod_Bend_Energy-OPLS-2005>
178.708404541016

> <r_mmod_Torsional_Energy-OPLS-2005>
314.308410644531

> <r_mmod_Improper_Torsional_Energy-OPLS-2005>
7.07726526260376

> <r_mmod_Van_der_Waal_Energy-OPLS-2005>
143.872497558594

> <r_mmod_Electrostatic_Energy-OPLS-2005>
-367.231079101562

> <r_mmod_Solvation_Energy-OPLS-2005>
-496.970336914062

> <b_mmod_Minimization_Converged-OPLS-2005>
0

> <r_mmod_RMS_Derivative-OPLS-2005>
8.25517463684082

$$$$
15
                    3D
 Structure written by MMmdl.
154162  0  0  1  0            999 V2000
  -30.4729  -15.2338   20.3607 C   0  0  0  0  0  0
  -30.4465  -12.7916   19.4912 C   0  0  0  0  0  0
  -29.5242  -12.5474   18.2709 C   0  0  0  0  0  0
  -28.0817  -12.2469   18.7215 C   0  0  0  0  0  0
  -27.6078  -13.2231   19.8216 C   0  0  2  0  0  0
  -28.6625  -13.4168   20.9396 C   0  0  0  0  0  0
  -25.2325  -13.8047   20.5675 C   0  0  0  0  0  0
  -24.1683  -13.0312   20.9281 C   0  0  0  0  0  0
  -24.6327  -11.6818   20.8840 C   0  0  0  0  0  0
  -23.9018  -10.4218   21.0456 C   0  0  0  0  0  0
  -24.3583   -9.4141   21.9219 C   0  0  0  0  0  0
  -23.6262   -8.2183   22.0764 C   0  0  0  0  0  0
  -22.4250   -8.0237   21.3542 C   0  0  0  0  0  0
  -21.9883   -9.0212   20.4651 C   0  0  0  0  0  0
  -22.7210  -10.2086   20.3075 C   0  0  0  0  0  0
  -21.6832   -6.0709   22.5275 C   0  0  0  0  0  0
  -21.4000   -6.5618   23.8206 C   0  0  0  0  0  0
  -21.3657   -5.6774   24.9171 C   0  0  0  0  0  0
  -21.6049   -4.3038   24.7225 C   0  0  0  0  0  0
  -21.8823   -3.8127   23.4345 C   0  0  0  0  0  0
  -21.9190   -4.6939   22.3399 C   0  0  0  0  0  0
  -22.7716  -13.5125   21.1927 C   0  0  0  0  0  0
  -22.1660   -4.2128   21.0976 F   0  0  0  0  0  0
  -21.5636   -3.4521   25.7737 F   0  0  0  0  0  0
  -29.8852  -13.9359   20.2920 N   0  0  0  0  0  0
  -26.2778  -12.9259   20.3281 N   0  0  0  0  0  0
  -25.9256  -11.6425   20.5848 N   0  0  0  0  0  0
  -22.0358  -12.8140   22.0492 N   0  0  0  0  0  0
  -25.3726  -15.1753   20.3891 N   0  0  0  0  0  0
  -31.7078  -15.2082   20.2581 O   0  0  0  0  0  0
  -21.6611   -6.8845   21.4234 O   0  0  0  0  0  0
  -22.3421  -14.5440   20.6769 O   0  0  0  0  0  0
  -24.6569  -31.8308   23.1757 C   0  0  0  0  0  0
  -25.9273  -32.4634   23.8212 C   0  0  1  0  0  0
  -27.2328  -27.0010   20.1787 C   0  0  0  0  0  0
  -25.5962  -33.8443   24.2123 N   0  0  0  0  0  0
  -23.4690  -30.4432   21.5238 C   0  0  2  0  0  0
  -24.9234  -28.8396   20.1177 C   0  0  0  0  0  0
  -22.7636  -29.4481   22.4816 C   0  0  0  0  0  0
  -18.0311  -28.1415   22.8479 C   0  0  0  0  0  0
  -24.1483  -36.7226   23.2644 C   0  0  0  0  0  0
  -26.0338  -30.6616   21.3938 C   0  0  0  0  0  0
  -26.1061  -29.2564   20.7416 C   0  0  0  0  0  0
  -27.2583  -28.3590   20.7454 C   0  0  0  0  0  0
  -26.0187  -26.7163   19.5137 C   0  0  0  0  0  0
  -24.9003  -27.5870   19.4844 C   0  0  0  0  0  0
  -23.7058  -29.7594   20.1497 C   0  0  0  0  0  0
  -25.4124  -36.2995   24.0305 C   0  0  1  0  0  0
  -20.5937  -28.3749   23.1211 C   0  0  2  0  0  0
  -20.6791  -26.9437   22.5409 C   0  0  0  0  0  0
  -19.5764  -26.6388   21.5221 C   0  0  0  0  0  0
  -18.1944  -26.7951   22.1627 C   0  0  0  0  0  0
  -19.1575  -28.8900   23.2834 C   0  0  0  0  0  0
  -18.9484  -30.1493   23.8867 C   0  0  0  0  0  0
  -17.6483  -30.6605   24.0562 C   0  0  0  0  0  0
  -25.9087  -34.9376   23.5035 C   0  0  0  0  0  0
  -16.5371  -29.9096   23.6345 C   0  0  0  0  0  0
  -16.7296  -28.6514   23.0369 C   0  0  0  0  0  0
  -26.4542  -31.6552   25.0711 C   0  0  0  0  0  0
  -25.3691  -31.3795   26.1388 C   0  0  0  0  0  0
  -27.0416  -30.2927   24.6380 C   0  0  0  0  0  0
  -27.6057  -32.4338   25.7509 C   0  0  0  0  0  0
  -27.5565  -37.1779   24.8468 C   0  0  0  0  0  0
  -21.4311  -29.3056   22.3572 N   0  0  0  0  0  0
  -26.4278  -37.3721   23.9403 N   0  0  0  0  0  0
  -24.7409  -31.0040   22.0856 N   0  0  0  0  0  0
  -23.4207  -28.8048   23.3034 O   0  0  0  0  0  0
  -28.2739  -25.9534   20.2146 O   0  0  0  0  0  0
  -26.5686  -34.8895   22.4621 O   0  0  0  0  0  0
  -23.5655  -32.1237   23.6898 O   0  0  0  0  0  0
  -29.1790  -23.1328   20.0319 C   0  0  0  0  0  0
  -29.0471  -19.1272   21.4071 C   0  0  0  0  0  0
  -30.1679  -19.1595   19.3021 C   0  0  0  0  0  0
  -28.3996  -20.5910   20.8982 C   0  0  0  0  0  0
  -30.3370  -20.7834   19.5770 C   0  0  0  0  0  0
  -30.0226  -18.1405   20.5306 C   0  0  0  0  0  0
  -28.3489  -16.4784   19.8771 C   0  0  0  0  0  0
  -28.0178  -24.3534   20.3444 C   0  0  0  0  0  0
  -29.2277  -21.6577   20.1835 N   0  0  0  0  0  0
  -29.7269  -16.5251   20.3440 N   0  0  0  0  0  0
  -30.1924  -23.6208   19.5197 O   0  0  0  0  0  0
  -31.4552  -13.0110   19.1389 H   0  0  0  0  0  0
  -30.5368  -11.8908   20.1007 H   0  0  0  0  0  0
  -29.9073  -11.7257   17.6640 H   0  0  0  0  0  0
  -29.5296  -13.4298   17.6297 H   0  0  0  0  0  0
  -28.0607  -11.2272   19.1079 H   0  0  0  0  0  0
  -27.4017  -12.2663   17.8695 H   0  0  0  0  0  0
  -27.4867  -14.1475   19.2767 H   0  0  0  0  0  0
  -28.8501  -12.4809   21.4678 H   0  0  0  0  0  0
  -28.3110  -14.1173   21.6974 H   0  0  0  0  0  0
  -25.2723   -9.5617   22.4801 H   0  0  0  0  0  0
  -23.9969   -7.4562   22.7469 H   0  0  0  0  0  0
  -21.0821   -8.8730   19.8950 H   0  0  0  0  0  0
  -22.3680  -10.9633   19.6187 H   0  0  0  0  0  0
  -21.1978   -7.6125   23.9698 H   0  0  0  0  0  0
  -21.1485   -6.0508   25.9076 H   0  0  0  0  0  0
  -22.0609   -2.7588   23.2846 H   0  0  0  0  0  0
  -22.3971  -11.9791   22.4862 H   0  0  0  0  0  0
  -21.0986  -13.1184   22.2725 H   0  0  0  0  0  0
  -24.5857  -15.8077   20.4831 H   0  0  0  0  0  0
  -26.1977  -15.6224   20.0139 H   0  0  0  0  0  0
  -26.7348  -32.5204   23.0943 H   0  0  0  0  0  0
  -25.0080  -33.9537   25.0253 H   0  0  0  0  0  0
  -22.7796  -31.2734   21.3573 H   0  0  0  0  0  0
  -23.3748  -35.9555   23.3308 H   0  0  0  0  0  0
  -24.3561  -36.8859   22.2060 H   0  0  0  0  0  0
  -23.7239  -37.6418   23.6689 H   0  0  0  0  0  0
  -26.2007  -31.4046   20.6127 H   0  0  0  0  0  0
  -26.8985  -30.7233   22.0423 H   0  0  0  0  0  0
  -28.1595  -28.6819   21.2480 H   0  0  0  0  0  0
  -25.9070  -25.7643   19.0171 H   0  0  0  0  0  0
  -24.0018  -27.2632   18.9773 H   0  0  0  0  0  0
  -23.8584  -30.5283   19.3913 H   0  0  0  0  0  0
  -22.8172  -29.2097   19.8345 H   0  0  0  0  0  0
  -25.1323  -36.1805   25.0797 H   0  0  0  0  0  0
  -21.0032  -28.3346   24.1333 H   0  0  0  0  0  0
  -20.5670  -26.2369   23.3645 H   0  0  0  0  0  0
  -21.6657  -26.7421   22.1220 H   0  0  0  0  0  0
  -19.6915  -25.6284   21.1278 H   0  0  0  0  0  0
  -19.6699  -27.3181   20.6735 H   0  0  0  0  0  0
  -17.4218  -26.6705   21.4026 H   0  0  0  0  0  0
  -18.0333  -26.0101   22.9030 H   0  0  0  0  0  0
  -19.7957  -30.7324   24.2219 H   0  0  0  0  0  0
  -17.5030  -31.6280   24.5174 H   0  0  0  0  0  0
  -15.5371  -30.2993   23.7682 H   0  0  0  0  0  0
  -15.8696  -28.0821   22.7107 H   0  0  0  0  0  0
  -24.5889  -30.7111   25.7726 H   0  0  0  0  0  0
  -24.8854  -32.2994   26.4687 H   0  0  0  0  0  0
  -25.7950  -30.9068   27.0246 H   0  0  0  0  0  0
  -26.3058  -29.6643   24.1351 H   0  0  0  0  0  0
  -27.3938  -29.7248   25.4999 H   0  0  0  0  0  0
  -27.9006  -30.4131   23.9778 H   0  0  0  0  0  0
  -27.2638  -33.3675   26.1985 H   0  0  0  0  0  0
  -28.3924  -32.6836   25.0379 H   0  0  0  0  0  0
  -28.0656  -31.8523   26.5506 H   0  0  0  0  0  0
  -28.2597  -38.0063   24.7491 H   0  0  0  0  0  0
  -28.1047  -36.2593   24.6325 H   0  0  0  0  0  0
  -27.2285  -37.1465   25.8873 H   0  0  0  0  0  0
  -20.9550  -29.8757   21.6721 H   0  0  0  0  0  0
  -26.0133  -38.2780   24.1404 H   0  0  0  0  0  0
  -28.2157  -18.5303   21.7835 H   0  0  0  0  0  0
  -29.6087  -19.3612   22.3125 H   0  0  0  0  0  0
  -31.0259  -18.8329   18.7123 H   0  0  0  0  0  0
  -29.3132  -19.0280   18.6373 H   0  0  0  0  0  0
  -27.9357  -21.0718   21.7602 H   0  0  0  0  0  0
  -27.5717  -20.3653   20.2259 H   0  0  0  0  0  0
  -30.5995  -21.2299   18.6169 H   0  0  0  0  0  0
  -31.2202  -20.9269   20.2015 H   0  0  0  0  0  0
  -30.9906  -18.1491   21.0340 H   0  0  0  0  0  0
  -27.7495  -15.9586   20.6147 H   0  0  0  0  0  0
  -28.3042  -16.0038   18.8981 H   0  0  0  0  0  0
  -27.8803  -17.4523   19.7394 H   0  0  0  0  0  0
  -27.6663  -24.1806   21.3615 H   0  0  0  0  0  0
  -27.1722  -24.1018   19.7068 H   0  0  0  0  0  0
  1 25  1  0  0  0
  1 30  2  0  0  0
  1 80  1  0  0  0
  2  3  1  0  0  0
  2 25  1  0  0  0
  2 82  1  0  0  0
  2 83  1  0  0  0
  3  4  1  0  0  0
  3 84  1  0  0  0
  3 85  1  0  0  0
  4  5  1  0  0  0
  4 86  1  0  0  0
  4 87  1  0  0  0
  5  6  1  0  0  0
  5 26  1  0  0  0
  5 88  1  0  0  0
  6 25  1  0  0  0
  6 89  1  0  0  0
  6 90  1  0  0  0
  7  8  2  0  0  0
  7 26  1  0  0  0
  7 29  1  0  0  0
  8  9  1  0  0  0
  8 22  1  0  0  0
  9 10  1  0  0  0
  9 27  2  0  0  0
 10 11  2  0  0  0
 10 15  1  0  0  0
 11 12  1  0  0  0
 11 91  1  0  0  0
 12 13  2  0  0  0
 12 92  1  0  0  0
 13 14  1  0  0  0
 13 31  1  0  0  0
 14 15  2  0  0  0
 14 93  1  0  0  0
 15 94  1  0  0  0
 16 17  2  0  0  0
 16 21  1  0  0  0
 16 31  1  0  0  0
 17 18  1  0  0  0
 17 95  1  0  0  0
 18 19  2  0  0  0
 18 96  1  0  0  0
 19 20  1  0  0  0
 19 24  1  0  0  0
 20 21  2  0  0  0
 20 97  1  0  0  0
 21 23  1  0  0  0
 22 28  1  0  0  0
 22 32  2  0  0  0
 26 27  1  0  0  0
 28 98  1  0  0  0
 28 99  1  0  0  0
 29100  1  0  0  0
 29101  1  0  0  0
 33 34  1  0  0  0
 33 66  1  0  0  0
 33 70  2  0  0  0
 34 36  1  0  0  0
 34 59  1  0  0  0
 34102  1  0  0  0
 35 44  2  0  0  0
 35 45  1  0  0  0
 35 68  1  0  0  0
 36 56  1  0  0  0
 36103  1  0  0  0
 37 39  1  0  0  0
 37 47  1  0  0  0
 37 66  1  0  0  0
 37104  1  0  0  0
 38 43  2  0  0  0
 38 46  1  0  0  0
 38 47  1  0  0  0
 39 64  1  0  0  0
 39 67  2  0  0  0
 40 52  1  0  0  0
 40 53  2  0  0  0
 40 58  1  0  0  0
 41105  1  0  0  0
 41106  1  0  0  0
 41107  1  0  0  0
 41 48  1  0  0  0
 42 43  1  0  0  0
 42 66  1  0  0  0
 42108  1  0  0  0
 42109  1  0  0  0
 43 44  1  0  0  0
 44110  1  0  0  0
 45 46  2  0  0  0
 45111  1  0  0  0
 46112  1  0  0  0
 47113  1  0  0  0
 47114  1  0  0  0
 48 56  1  0  0  0
 48 65  1  0  0  0
 48115  1  0  0  0
 49 50  1  0  0  0
 49 53  1  0  0  0
 49 64  1  0  0  0
 49116  1  0  0  0
 50 51  1  0  0  0
 50117  1  0  0  0
 50118  1  0  0  0
 51 52  1  0  0  0
 51119  1  0  0  0
 51120  1  0  0  0
 52121  1  0  0  0
 52122  1  0  0  0
 53 54  1  0  0  0
 54 55  2  0  0  0
 54123  1  0  0  0
 55 57  1  0  0  0
 55124  1  0  0  0
 56 69  2  0  0  0
 57 58  2  0  0  0
 57125  1  0  0  0
 58126  1  0  0  0
 59 60  1  0  0  0
 59 61  1  0  0  0
 59 62  1  0  0  0
 60127  1  0  0  0
 60128  1  0  0  0
 60129  1  0  0  0
 61130  1  0  0  0
 61131  1  0  0  0
 61132  1  0  0  0
 62133  1  0  0  0
 62134  1  0  0  0
 62135  1  0  0  0
 63 65  1  0  0  0
 63136  1  0  0  0
 63137  1  0  0  0
 63138  1  0  0  0
 64139  1  0  0  0
 65140  1  0  0  0
 68 78  1  0  0  0
 71 78  1  0  0  0
 71 79  1  0  0  0
 71 81  2  0  0  0
 72 74  1  0  0  0
 72 76  1  0  0  0
 72141  1  0  0  0
 72142  1  0  0  0
 73 75  1  0  0  0
 73 76  1  0  0  0
 73143  1  0  0  0
 73144  1  0  0  0
 74 79  1  0  0  0
 74145  1  0  0  0
 74146  1  0  0  0
 75 79  1  0  0  0
 75147  1  0  0  0
 75148  1  0  0  0
 76 80  1  0  0  0
 76149  1  0  0  0
 77 80  1  0  0  0
 77150  1  0  0  0
 77151  1  0  0  0
 77152  1  0  0  0
 78153  1  0  0  0
 78154  1  0  0  0
M  ISO  4   1 100  68 101  78 101  80 100
M  END
> <chiral flag>
0

> <version>
0

> <s_m_source_file>
/data/baiqing/PycharmProjects/Reinvent-master-3.2/result/LINK_invent/BTK/process_docking_weight1_custom_sum_contain_oxygen_bond_distance_aromatic_linkinvent_7_9_3/rearranged_h_0014.sdf

> <i_m_source_file_index>
16

> <r_mmod_Potential_Energy-OPLS-2005>
1286.48303222656

> <r_mmod_Stretch_Energy-OPLS-2005>
446.173431396484

> <r_mmod_Bend_Energy-OPLS-2005>
429.163360595703

> <r_mmod_Torsional_Energy-OPLS-2005>
361.626983642578

> <r_mmod_Improper_Torsional_Energy-OPLS-2005>
4.54030799865723

> <r_mmod_Van_der_Waal_Energy-OPLS-2005>
133.830108642578

> <r_mmod_Electrostatic_Energy-OPLS-2005>
-238.483932495117

> <r_mmod_Solvation_Energy-OPLS-2005>
-241.286529541016

> <b_mmod_Minimization_Converged-OPLS-2005>
0

> <r_mmod_RMS_Derivative-OPLS-2005>
1.16314709186554

$$$$
16
                    3D
 Structure written by MMmdl.
149157  0  0  1  0            999 V2000
  -30.5249  -15.0089   20.3860 C   0  0  0  0  0  0
  -30.4348  -12.6217   19.5117 C   0  0  0  0  0  0
  -29.5265  -12.5358   18.2632 C   0  0  0  0  0  0
  -28.0574  -12.3233   18.6740 C   0  0  0  0  0  0
  -27.6244  -13.2589   19.8336 C   0  0  2  0  0  0
  -28.6639  -13.3148   20.9727 C   0  0  0  0  0  0
  -25.2431  -13.8232   20.5716 C   0  0  0  0  0  0
  -24.1761  -13.0448   20.9245 C   0  0  0  0  0  0
  -24.6389  -11.6932   20.8757 C   0  0  0  0  0  0
  -23.9076  -10.4304   21.0413 C   0  0  0  0  0  0
  -24.3628   -9.4216   21.9184 C   0  0  0  0  0  0
  -23.6304   -8.2251   22.0748 C   0  0  0  0  0  0
  -22.4286   -8.0288   21.3539 C   0  0  0  0  0  0
  -21.9919   -9.0263   20.4649 C   0  0  0  0  0  0
  -22.7248  -10.2144   20.3059 C   0  0  0  0  0  0
  -21.6861   -6.0740   22.5278 C   0  0  0  0  0  0
  -21.4015   -6.5639   23.8213 C   0  0  0  0  0  0
  -21.3660   -5.6791   24.9171 C   0  0  0  0  0  0
  -21.6047   -4.3055   24.7224 C   0  0  0  0  0  0
  -21.8817   -3.8145   23.4347 C   0  0  0  0  0  0
  -21.9190   -4.6965   22.3399 C   0  0  0  0  0  0
  -22.7782  -13.5214   21.1898 C   0  0  0  0  0  0
  -22.1663   -4.2148   21.0980 F   0  0  0  0  0  0
  -21.5629   -3.4539   25.7738 F   0  0  0  0  0  0
  -29.9334  -13.7397   20.3687 N   0  0  0  0  0  0
  -26.2861  -12.9483   20.3226 N   0  0  0  0  0  0
  -25.9323  -11.6601   20.5720 N   0  0  0  0  0  0
  -22.0425  -12.8203   22.0456 N   0  0  0  0  0  0
  -25.4087  -15.1964   20.4128 N   0  0  0  0  0  0
  -31.7398  -15.0256   20.1615 O   0  0  0  0  0  0
  -21.6640   -6.8885   21.4240 O   0  0  0  0  0  0
  -22.3461  -14.5512   20.6735 O   0  0  0  0  0  0
  -24.6489  -31.8400   23.1840 C   0  0  0  0  0  0
  -25.9240  -32.4668   23.8252 C   0  0  1  0  0  0
  -27.2053  -27.0755   20.1645 C   0  0  0  0  0  0
  -25.5966  -33.8477   24.2160 N   0  0  0  0  0  0
  -23.4547  -30.4572   21.5326 C   0  0  2  0  0  0
  -24.9007  -28.8716   20.1135 C   0  0  0  0  0  0
  -22.7600  -29.4528   22.4869 C   0  0  0  0  0  0
  -18.0311  -28.1395   22.8475 C   0  0  0  0  0  0
  -24.1493  -36.7241   23.2645 C   0  0  0  0  0  0
  -26.0152  -30.6898   21.3955 C   0  0  0  0  0  0
  -26.0809  -29.2965   20.7374 C   0  0  0  0  0  0
  -27.2343  -28.4163   20.7412 C   0  0  0  0  0  0
  -26.0013  -26.7685   19.4952 C   0  0  0  0  0  0
  -24.8770  -27.6231   19.4753 C   0  0  0  0  0  0
  -23.6825  -29.7831   20.1538 C   0  0  0  0  0  0
  -25.4132  -36.3019   24.0310 C   0  0  1  0  0  0
  -20.5928  -28.3725   23.1230 C   0  0  2  0  0  0
  -20.6796  -26.9427   22.5402 C   0  0  0  0  0  0
  -19.5769  -26.6381   21.5215 C   0  0  0  0  0  0
  -18.1952  -26.7934   22.1624 C   0  0  0  0  0  0
  -19.1566  -28.8884   23.2839 C   0  0  0  0  0  0
  -18.9481  -30.1481   23.8860 C   0  0  0  0  0  0
  -17.6474  -30.6593   24.0559 C   0  0  0  0  0  0
  -25.9086  -34.9396   23.5046 C   0  0  0  0  0  0
  -16.5369  -29.9078   23.6342 C   0  0  0  0  0  0
  -16.7295  -28.6499   23.0364 C   0  0  0  0  0  0
  -26.4526  -31.6564   25.0729 C   0  0  0  0  0  0
  -25.3677  -31.3781   26.1403 C   0  0  0  0  0  0
  -27.0410  -30.2947   24.6379 C   0  0  0  0  0  0
  -27.6047  -32.4351   25.7512 C   0  0  0  0  0  0
  -27.5577  -37.1784   24.8470 C   0  0  0  0  0  0
  -21.4290  -29.3041   22.3603 N   0  0  0  0  0  0
  -26.4295  -37.3734   23.9400 N   0  0  0  0  0  0
  -24.7267  -31.0198   22.0906 N   0  0  0  0  0  0
  -23.4215  -28.8087   23.3053 O   0  0  0  0  0  0
  -28.2488  -26.0623   20.1957 O   0  0  0  0  0  0
  -26.5688  -34.8906   22.4636 O   0  0  0  0  0  0
  -23.5594  -32.1315   23.7022 O   0  0  0  0  0  0
  -29.2146  -18.9538   20.5479 C   0  0  0  0  0  0
  -31.1531  -19.3176   18.6464 C   0  0  0  0  0  0
  -29.9537  -17.7140   20.1075 C   0  0  0  0  0  0
  -29.4247  -20.3705   20.0712 C   0  0  0  0  0  0
  -30.9077  -18.0031   19.0995 C   0  0  0  0  0  0
  -30.4588  -20.4560   19.1066 C   0  0  0  0  0  0
  -28.9544  -23.1577   20.0244 C   0  0  0  0  0  0
  -27.9755  -24.5144   20.4086 C   0  0  0  0  0  0
  -29.7530  -16.2196   20.5180 N   0  0  0  0  0  0
  -28.7065  -21.6438   20.4486 N   0  0  0  0  0  0
  -31.5902  -17.0103   18.4862 F   0  0  0  0  0  0
  -30.7995  -21.6530   18.5704 F   0  0  0  0  0  0
  -31.4711  -12.7732   19.2056 H   0  0  0  0  0  0
  -30.4253  -11.6803   20.0632 H   0  0  0  0  0  0
  -29.8555  -11.7258   17.6111 H   0  0  0  0  0  0
  -29.6167  -13.4536   17.6804 H   0  0  0  0  0  0
  -27.9511  -11.2828   18.9816 H   0  0  0  0  0  0
  -27.4002  -12.4562   17.8139 H   0  0  0  0  0  0
  -27.5793  -14.2574   19.3974 H   0  0  0  0  0  0
  -28.7614  -12.3466   21.4675 H   0  0  0  0  0  0
  -28.3529  -14.0242   21.7418 H   0  0  0  0  0  0
  -25.2770   -9.5695   22.4756 H   0  0  0  0  0  0
  -24.0018   -7.4636   22.7454 H   0  0  0  0  0  0
  -21.0853   -8.8780   19.8951 H   0  0  0  0  0  0
  -22.3700  -10.9681   19.6170 H   0  0  0  0  0  0
  -21.2006   -7.6146   23.9715 H   0  0  0  0  0  0
  -21.1488   -6.0520   25.9075 H   0  0  0  0  0  0
  -22.0593   -2.7609   23.2841 H   0  0  0  0  0  0
  -22.4060  -11.9897   22.4882 H   0  0  0  0  0  0
  -21.1033  -13.1203   22.2621 H   0  0  0  0  0  0
  -24.6352  -15.8441   20.5172 H   0  0  0  0  0  0
  -26.2426  -15.6345   20.0439 H   0  0  0  0  0  0
  -26.7313  -32.5243   23.0984 H   0  0  0  0  0  0
  -25.0066  -33.9575   25.0276 H   0  0  0  0  0  0
  -22.7594  -31.2849   21.3758 H   0  0  0  0  0  0
  -23.3761  -35.9567   23.3314 H   0  0  0  0  0  0
  -24.3567  -36.8872   22.2057 H   0  0  0  0  0  0
  -23.7248  -37.6435   23.6686 H   0  0  0  0  0  0
  -26.1892  -31.4406   20.6242 H   0  0  0  0  0  0
  -26.8786  -30.7328   22.0474 H   0  0  0  0  0  0
  -28.1331  -28.7359   21.2484 H   0  0  0  0  0  0
  -25.9015  -25.8229   18.9833 H   0  0  0  0  0  0
  -23.9794  -27.2959   18.9675 H   0  0  0  0  0  0
  -23.8257  -30.5556   19.3975 H   0  0  0  0  0  0
  -22.7938  -29.2309   19.8428 H   0  0  0  0  0  0
  -25.1325  -36.1844   25.0802 H   0  0  0  0  0  0
  -21.0004  -28.3319   24.1360 H   0  0  0  0  0  0
  -20.5702  -26.2344   23.3626 H   0  0  0  0  0  0
  -21.6664  -26.7447   22.1198 H   0  0  0  0  0  0
  -19.6933  -25.6285   21.1266 H   0  0  0  0  0  0
  -19.6699  -27.3176   20.6730 H   0  0  0  0  0  0
  -17.4223  -26.6683   21.4026 H   0  0  0  0  0  0
  -18.0345  -26.0082   22.9024 H   0  0  0  0  0  0
  -19.7956  -30.7312   24.2209 H   0  0  0  0  0  0
  -17.5026  -31.6265   24.5169 H   0  0  0  0  0  0
  -15.5365  -30.2965   23.7686 H   0  0  0  0  0  0
  -15.8700  -28.0801   22.7100 H   0  0  0  0  0  0
  -24.5841  -30.7159   25.7702 H   0  0  0  0  0  0
  -24.8879  -32.2973   26.4774 H   0  0  0  0  0  0
  -25.7912  -30.8964   27.0225 H   0  0  0  0  0  0
  -26.3056  -29.6652   24.1355 H   0  0  0  0  0  0
  -27.3958  -29.7276   25.4997 H   0  0  0  0  0  0
  -27.8993  -30.4171   23.9768 H   0  0  0  0  0  0
  -27.2627  -33.3668   26.2036 H   0  0  0  0  0  0
  -28.3870  -32.6893   25.0346 H   0  0  0  0  0  0
  -28.0709  -31.8521   26.5466 H   0  0  0  0  0  0
  -28.2604  -38.0070   24.7500 H   0  0  0  0  0  0
  -28.1064  -36.2601   24.6323 H   0  0  0  0  0  0
  -27.2295  -37.1469   25.8873 H   0  0  0  0  0  0
  -20.9527  -29.8710   21.6725 H   0  0  0  0  0  0
  -26.0162  -38.2810   24.1365 H   0  0  0  0  0  0
  -28.4418  -18.8067   21.2875 H   0  0  0  0  0  0
  -31.8998  -19.4569   17.8810 H   0  0  0  0  0  0
  -29.9623  -23.3959   20.3650 H   0  0  0  0  0  0
  -29.0205  -23.1545   18.9362 H   0  0  0  0  0  0
  -27.7942  -24.4390   21.4809 H   0  0  0  0  0  0
  -27.0073  -24.2889   19.9679 H   0  0  0  0  0  0
  -28.8274  -16.0288   20.8689 H   0  0  0  0  0  0
  -27.9494  -21.5242   21.1158 H   0  0  0  0  0  0
  1 25  1  0  0  0
  1 30  2  0  0  0
  1 79  1  0  0  0
  2  3  1  0  0  0
  2 25  1  0  0  0
  2 83  1  0  0  0
  2 84  1  0  0  0
  3  4  1  0  0  0
  3 85  1  0  0  0
  3 86  1  0  0  0
  4  5  1  0  0  0
  4 87  1  0  0  0
  4 88  1  0  0  0
  5  6  1  0  0  0
  5 26  1  0  0  0
  5 89  1  0  0  0
  6 25  1  0  0  0
  6 90  1  0  0  0
  6 91  1  0  0  0
  7  8  2  0  0  0
  7 26  1  0  0  0
  7 29  1  0  0  0
  8  9  1  0  0  0
  8 22  1  0  0  0
  9 10  1  0  0  0
  9 27  2  0  0  0
 10 11  2  0  0  0
 10 15  1  0  0  0
 11 12  1  0  0  0
 11 92  1  0  0  0
 12 13  2  0  0  0
 12 93  1  0  0  0
 13 14  1  0  0  0
 13 31  1  0  0  0
 14 15  2  0  0  0
 14 94  1  0  0  0
 15 95  1  0  0  0
 16 17  2  0  0  0
 16 21  1  0  0  0
 16 31  1  0  0  0
 17 18  1  0  0  0
 17 96  1  0  0  0
 18 19  2  0  0  0
 18 97  1  0  0  0
 19 20  1  0  0  0
 19 24  1  0  0  0
 20 21  2  0  0  0
 20 98  1  0  0  0
 21 23  1  0  0  0
 22 28  1  0  0  0
 22 32  2  0  0  0
 26 27  1  0  0  0
 28 99  1  0  0  0
 28100  1  0  0  0
 29101  1  0  0  0
 29102  1  0  0  0
 33 34  1  0  0  0
 33 66  1  0  0  0
 33 70  2  0  0  0
 34 36  1  0  0  0
 34 59  1  0  0  0
 34103  1  0  0  0
 35 44  2  0  0  0
 35 45  1  0  0  0
 35 68  1  0  0  0
 36 56  1  0  0  0
 36104  1  0  0  0
 37 39  1  0  0  0
 37 47  1  0  0  0
 37 66  1  0  0  0
 37105  1  0  0  0
 38 43  2  0  0  0
 38 46  1  0  0  0
 38 47  1  0  0  0
 39 64  1  0  0  0
 39 67  2  0  0  0
 40 52  1  0  0  0
 40 53  2  0  0  0
 40 58  1  0  0  0
 41106  1  0  0  0
 41107  1  0  0  0
 41108  1  0  0  0
 41 48  1  0  0  0
 42 43  1  0  0  0
 42 66  1  0  0  0
 42109  1  0  0  0
 42110  1  0  0  0
 43 44  1  0  0  0
 44111  1  0  0  0
 45 46  2  0  0  0
 45112  1  0  0  0
 46113  1  0  0  0
 47114  1  0  0  0
 47115  1  0  0  0
 48 56  1  0  0  0
 48 65  1  0  0  0
 48116  1  0  0  0
 49 50  1  0  0  0
 49 53  1  0  0  0
 49 64  1  0  0  0
 49117  1  0  0  0
 50 51  1  0  0  0
 50118  1  0  0  0
 50119  1  0  0  0
 51 52  1  0  0  0
 51120  1  0  0  0
 51121  1  0  0  0
 52122  1  0  0  0
 52123  1  0  0  0
 53 54  1  0  0  0
 54 55  2  0  0  0
 54124  1  0  0  0
 55 57  1  0  0  0
 55125  1  0  0  0
 56 69  2  0  0  0
 57 58  2  0  0  0
 57126  1  0  0  0
 58127  1  0  0  0
 59 60  1  0  0  0
 59 61  1  0  0  0
 59 62  1  0  0  0
 60128  1  0  0  0
 60129  1  0  0  0
 60130  1  0  0  0
 61131  1  0  0  0
 61132  1  0  0  0
 61133  1  0  0  0
 62134  1  0  0  0
 62135  1  0  0  0
 62136  1  0  0  0
 63 65  1  0  0  0
 63137  1  0  0  0
 63138  1  0  0  0
 63139  1  0  0  0
 64140  1  0  0  0
 65141  1  0  0  0
 68 78  1  0  0  0
 71 73  2  0  0  0
 71 74  1  0  0  0
 71142  1  0  0  0
 72 75  2  0  0  0
 72 76  1  0  0  0
 72143  1  0  0  0
 73 75  1  0  0  0
 73 79  1  0  0  0
 74 76  2  0  0  0
 74 80  1  0  0  0
 75 81  1  0  0  0
 76 82  1  0  0  0
 77 78  1  0  0  0
 77 80  1  0  0  0
 77144  1  0  0  0
 77145  1  0  0  0
 78146  1  0  0  0
 78147  1  0  0  0
 79148  1  0  0  0
 80149  1  0  0  0
M  ISO  4   1 100  68 101  78 101  79 100
M  END
> <chiral flag>
0

> <version>
0

> <s_m_source_file>
/data/baiqing/PycharmProjects/Reinvent-master-3.2/result/LINK_invent/BTK/process_docking_weight1_custom_sum_contain_oxygen_bond_distance_aromatic_linkinvent_7_9_3/rearranged_h_0014.sdf

> <i_m_source_file_index>
17

> <r_mmod_Potential_Energy-OPLS-2005>
613.06884765625

> <r_mmod_Stretch_Energy-OPLS-2005>
322.203186035156

> <r_mmod_Bend_Energy-OPLS-2005>
281.899627685547

> <r_mmod_Torsional_Energy-OPLS-2005>
221.047897338867

> <r_mmod_Improper_Torsional_Energy-OPLS-2005>
3.35637235641479

> <r_mmod_Van_der_Waal_Energy-OPLS-2005>
139.487014770508

> <r_mmod_Electrostatic_Energy-OPLS-2005>
-362.452911376953

> <r_mmod_Solvation_Energy-OPLS-2005>
-232.600357055664

> <b_mmod_Minimization_Converged-OPLS-2005>
0

> <r_mmod_RMS_Derivative-OPLS-2005>
1.53565406799316

$$$$
17
                    3D
 Structure written by MMmdl.
152160  0  0  1  0            999 V2000
  -30.6115  -14.8545   20.4718 C   0  0  0  0  0  0
  -30.4441  -12.5311   19.4921 C   0  0  0  0  0  0
  -29.5199  -12.5261   18.2518 C   0  0  0  0  0  0
  -28.0513  -12.3223   18.6686 C   0  0  0  0  0  0
  -27.6415  -13.2387   19.8498 C   0  0  2  0  0  0
  -28.6868  -13.1988   20.9831 C   0  0  0  0  0  0
  -25.2519  -13.8205   20.5723 C   0  0  0  0  0  0
  -24.1795  -13.0428   20.9203 C   0  0  0  0  0  0
  -24.6400  -11.6919   20.8748 C   0  0  0  0  0  0
  -23.9080  -10.4288   21.0397 C   0  0  0  0  0  0
  -24.3634   -9.4208   21.9180 C   0  0  0  0  0  0
  -23.6302   -8.2246   22.0751 C   0  0  0  0  0  0
  -22.4276   -8.0293   21.3547 C   0  0  0  0  0  0
  -21.9928   -9.0246   20.4647 C   0  0  0  0  0  0
  -22.7254  -10.2124   20.3045 C   0  0  0  0  0  0
  -21.6849   -6.0738   22.5271 C   0  0  0  0  0  0
  -21.4013   -6.5628   23.8209 C   0  0  0  0  0  0
  -21.3660   -5.6780   24.9169 C   0  0  0  0  0  0
  -21.6028   -4.3058   24.7218 C   0  0  0  0  0  0
  -21.8821   -3.8150   23.4355 C   0  0  0  0  0  0
  -21.9190   -4.6962   22.3408 C   0  0  0  0  0  0
  -22.7827  -13.5202   21.1880 C   0  0  0  0  0  0
  -22.1657   -4.2149   21.0984 F   0  0  0  0  0  0
  -21.5627   -3.4543   25.7733 F   0  0  0  0  0  0
  -29.9838  -13.6084   20.4147 N   0  0  0  0  0  0
  -26.2945  -12.9413   20.3291 N   0  0  0  0  0  0
  -25.9343  -11.6543   20.5747 N   0  0  0  0  0  0
  -22.0480  -12.8175   22.0440 N   0  0  0  0  0  0
  -25.4239  -15.1931   20.4221 N   0  0  0  0  0  0
  -31.7702  -14.9416   20.0447 O   0  0  0  0  0  0
  -21.6637   -6.8885   21.4233 O   0  0  0  0  0  0
  -22.3511  -14.5509   20.6730 O   0  0  0  0  0  0
  -24.6376  -31.8458   23.1906 C   0  0  0  0  0  0
  -25.9172  -32.4700   23.8258 C   0  0  1  0  0  0
  -27.2248  -27.1881   20.1420 C   0  0  0  0  0  0
  -25.5953  -33.8507   24.2168 N   0  0  0  0  0  0
  -23.4402  -30.4671   21.5325 C   0  0  2  0  0  0
  -24.8921  -28.9047   20.1048 C   0  0  0  0  0  0
  -22.7535  -29.4554   22.4831 C   0  0  0  0  0  0
  -18.0275  -28.1416   22.8481 C   0  0  0  0  0  0
  -24.1472  -36.7239   23.2630 C   0  0  0  0  0  0
  -25.9945  -30.7332   21.3869 C   0  0  0  0  0  0
  -26.0655  -29.3513   20.7283 C   0  0  0  0  0  0
  -27.2321  -28.5092   20.7310 C   0  0  0  0  0  0
  -26.0290  -26.8347   19.4743 C   0  0  0  0  0  0
  -24.8841  -27.6562   19.4649 C   0  0  0  0  0  0
  -23.6639  -29.7980   20.1499 C   0  0  0  0  0  0
  -25.4093  -36.3005   24.0312 C   0  0  1  0  0  0
  -20.5904  -28.3720   23.1251 C   0  0  2  0  0  0
  -20.6769  -26.9424   22.5414 C   0  0  0  0  0  0
  -19.5730  -26.6383   21.5230 C   0  0  0  0  0  0
  -18.1898  -26.7954   22.1621 C   0  0  0  0  0  0
  -19.1542  -28.8887   23.2854 C   0  0  0  0  0  0
  -18.9469  -30.1495   23.8872 C   0  0  0  0  0  0
  -17.6465  -30.6614   24.0574 C   0  0  0  0  0  0
  -25.9074  -34.9402   23.5038 C   0  0  0  0  0  0
  -16.5361  -29.9109   23.6377 C   0  0  0  0  0  0
  -16.7269  -28.6533   23.0365 C   0  0  0  0  0  0
  -26.4509  -31.6586   25.0707 C   0  0  0  0  0  0
  -25.3701  -31.3811   26.1422 C   0  0  0  0  0  0
  -27.0385  -30.2973   24.6306 C   0  0  0  0  0  0
  -27.6027  -32.4405   25.7458 C   0  0  0  0  0  0
  -27.5587  -37.1700   24.8416 C   0  0  0  0  0  0
  -21.4231  -29.3042   22.3604 N   0  0  0  0  0  0
  -26.4222  -37.3761   23.9480 N   0  0  0  0  0  0
  -24.7091  -31.0362   22.0910 N   0  0  0  0  0  0
  -23.4200  -28.8065   23.2939 O   0  0  0  0  0  0
  -28.2912  -26.2385   20.2311 O   0  0  0  0  0  0
  -26.5642  -34.8909   22.4609 O   0  0  0  0  0  0
  -23.5507  -32.1315   23.7155 O   0  0  0  0  0  0
  -28.8470  -18.2231   19.6365 C   0  0  0  0  0  0
  -30.2200  -20.2174   21.0116 C   0  0  0  0  0  0
  -29.8139  -17.7325   20.5653 C   0  0  0  0  0  0
  -29.1919  -20.6997   20.1393 C   0  0  0  0  0  0
  -28.5590  -19.6233   19.4325 C   0  0  0  0  0  0
  -30.5112  -18.8080   21.2190 C   0  0  0  0  0  0
  -29.8462  -16.2245   21.0837 C   0  0  0  0  0  0
  -28.7949  -23.3787   22.0594 C   0  0  0  0  0  0
  -28.0527  -24.7449   19.9728 C   0  0  0  0  0  0
  -28.9698  -23.4721   20.5304 C   0  0  2  0  0  0
  -28.7397  -22.0869   19.8956 N   0  0  0  0  0  0
  -29.2503  -16.0527   22.1516 O   0  0  0  0  0  0
  -27.5906  -19.9422   18.5395 F   0  0  0  0  0  0
  -31.4765  -18.4933   22.1171 F   0  0  0  0  0  0
  -31.4815  -12.6651   19.1830 H   0  0  0  0  0  0
  -30.4189  -11.5637   19.9964 H   0  0  0  0  0  0
  -29.8233  -11.7365   17.5640 H   0  0  0  0  0  0
  -29.6228  -13.4647   17.7080 H   0  0  0  0  0  0
  -27.9392  -11.2792   18.9642 H   0  0  0  0  0  0
  -27.3862  -12.4681   17.8167 H   0  0  0  0  0  0
  -27.6255  -14.2537   19.4536 H   0  0  0  0  0  0
  -28.7561  -12.1969   21.4081 H   0  0  0  0  0  0
  -28.3739  -13.8347   21.8076 H   0  0  0  0  0  0
  -25.2774   -9.5661   22.4756 H   0  0  0  0  0  0
  -23.9994   -7.4627   22.7465 H   0  0  0  0  0  0
  -21.0858   -8.8777   19.8946 H   0  0  0  0  0  0
  -22.3727  -10.9665   19.6155 H   0  0  0  0  0  0
  -21.2008   -7.6137   23.9710 H   0  0  0  0  0  0
  -21.1467   -6.0516   25.9061 H   0  0  0  0  0  0
  -22.0600   -2.7610   23.2846 H   0  0  0  0  0  0
  -22.4102  -11.9835   22.4803 H   0  0  0  0  0  0
  -21.1104  -13.1198   22.2662 H   0  0  0  0  0  0
  -24.6664  -15.8558   20.5540 H   0  0  0  0  0  0
  -26.2930  -15.6371   20.1568 H   0  0  0  0  0  0
  -26.7229  -32.5296   23.0974 H   0  0  0  0  0  0
  -25.0145  -33.9638   25.0335 H   0  0  0  0  0  0
  -22.7403  -31.2913   21.3762 H   0  0  0  0  0  0
  -23.3787  -35.9515   23.3153 H   0  0  0  0  0  0
  -24.3590  -36.9011   22.2078 H   0  0  0  0  0  0
  -23.7165  -37.6357   23.6764 H   0  0  0  0  0  0
  -26.1558  -31.4933   20.6207 H   0  0  0  0  0  0
  -26.8639  -30.7716   22.0320 H   0  0  0  0  0  0
  -28.1274  -28.8402   21.2414 H   0  0  0  0  0  0
  -25.9464  -25.8878   18.9644 H   0  0  0  0  0  0
  -23.9924  -27.3136   18.9578 H   0  0  0  0  0  0
  -23.7910  -30.5732   19.3928 H   0  0  0  0  0  0
  -22.7816  -29.2332   19.8382 H   0  0  0  0  0  0
  -25.1246  -36.1779   25.0798 H   0  0  0  0  0  0
  -21.0012  -28.3335   24.1368 H   0  0  0  0  0  0
  -20.5686  -26.2330   23.3612 H   0  0  0  0  0  0
  -21.6623  -26.7428   22.1178 H   0  0  0  0  0  0
  -19.6892  -25.6286   21.1256 H   0  0  0  0  0  0
  -19.6702  -27.3192   20.6750 H   0  0  0  0  0  0
  -17.4172  -26.6734   21.4004 H   0  0  0  0  0  0
  -18.0280  -26.0098   22.9017 H   0  0  0  0  0  0
  -19.7948  -30.7317   24.2212 H   0  0  0  0  0  0
  -17.5019  -31.6290   24.5177 H   0  0  0  0  0  0
  -15.5358  -30.2986   23.7748 H   0  0  0  0  0  0
  -15.8664  -28.0873   22.7081 H   0  0  0  0  0  0
  -24.5862  -30.7179   25.7745 H   0  0  0  0  0  0
  -24.8942  -32.3028   26.4786 H   0  0  0  0  0  0
  -25.8003  -30.9018   27.0225 H   0  0  0  0  0  0
  -26.3019  -29.6675   24.1323 H   0  0  0  0  0  0
  -27.3975  -29.7296   25.4890 H   0  0  0  0  0  0
  -27.8908  -30.4160   23.9626 H   0  0  0  0  0  0
  -27.2612  -33.3778   26.1855 H   0  0  0  0  0  0
  -28.3906  -32.6873   25.0333 H   0  0  0  0  0  0
  -28.0593  -31.8663   26.5516 H   0  0  0  0  0  0
  -28.2391  -38.0186   24.7765 H   0  0  0  0  0  0
  -28.1287  -36.2770   24.5849 H   0  0  0  0  0  0
  -27.2372  -37.0851   25.8800 H   0  0  0  0  0  0
  -20.9410  -29.8830   21.6863 H   0  0  0  0  0  0
  -26.0059  -38.2753   24.1734 H   0  0  0  0  0  0
  -28.2428  -17.5072   19.0998 H   0  0  0  0  0  0
  -30.8003  -20.9371   21.5686 H   0  0  0  0  0  0
  -28.8924  -24.3591   22.5289 H   0  0  0  0  0  0
  -29.5366  -22.7274   22.5237 H   0  0  0  0  0  0
  -27.8058  -22.9987   22.3259 H   0  0  0  0  0  0
  -27.0414  -24.5232   20.3200 H   0  0  0  0  0  0
  -28.0020  -24.6475   18.8870 H   0  0  0  0  0  0
  -30.0086  -23.7326   20.3198 H   0  0  0  0  0  0
  -28.0734  -22.1160   19.1274 H   0  0  0  0  0  0
  1 25  1  0  0  0
  1 30  2  0  0  0
  1 77  1  0  0  0
  2  3  1  0  0  0
  2 25  1  0  0  0
  2 85  1  0  0  0
  2 86  1  0  0  0
  3  4  1  0  0  0
  3 87  1  0  0  0
  3 88  1  0  0  0
  4  5  1  0  0  0
  4 89  1  0  0  0
  4 90  1  0  0  0
  5  6  1  0  0  0
  5 26  1  0  0  0
  5 91  1  0  0  0
  6 25  1  0  0  0
  6 92  1  0  0  0
  6 93  1  0  0  0
  7  8  2  0  0  0
  7 26  1  0  0  0
  7 29  1  0  0  0
  8  9  1  0  0  0
  8 22  1  0  0  0
  9 10  1  0  0  0
  9 27  2  0  0  0
 10 11  2  0  0  0
 10 15  1  0  0  0
 11 12  1  0  0  0
 11 94  1  0  0  0
 12 13  2  0  0  0
 12 95  1  0  0  0
 13 14  1  0  0  0
 13 31  1  0  0  0
 14 15  2  0  0  0
 14 96  1  0  0  0
 15 97  1  0  0  0
 16 17  2  0  0  0
 16 21  1  0  0  0
 16 31  1  0  0  0
 17 18  1  0  0  0
 17 98  1  0  0  0
 18 19  2  0  0  0
 18 99  1  0  0  0
 19 20  1  0  0  0
 19 24  1  0  0  0
 20 21  2  0  0  0
 20100  1  0  0  0
 21 23  1  0  0  0
 22 28  1  0  0  0
 22 32  2  0  0  0
 26 27  1  0  0  0
 28101  1  0  0  0
 28102  1  0  0  0
 29103  1  0  0  0
 29104  1  0  0  0
 33 34  1  0  0  0
 33 66  1  0  0  0
 33 70  2  0  0  0
 34 36  1  0  0  0
 34 59  1  0  0  0
 34105  1  0  0  0
 35 44  2  0  0  0
 35 45  1  0  0  0
 35 68  1  0  0  0
 36 56  1  0  0  0
 36106  1  0  0  0
 37 39  1  0  0  0
 37 47  1  0  0  0
 37 66  1  0  0  0
 37107  1  0  0  0
 38 43  2  0  0  0
 38 46  1  0  0  0
 38 47  1  0  0  0
 39 64  1  0  0  0
 39 67  2  0  0  0
 40 52  1  0  0  0
 40 53  2  0  0  0
 40 58  1  0  0  0
 41108  1  0  0  0
 41109  1  0  0  0
 41110  1  0  0  0
 41 48  1  0  0  0
 42 43  1  0  0  0
 42 66  1  0  0  0
 42111  1  0  0  0
 42112  1  0  0  0
 43 44  1  0  0  0
 44113  1  0  0  0
 45 46  2  0  0  0
 45114  1  0  0  0
 46115  1  0  0  0
 47116  1  0  0  0
 47117  1  0  0  0
 48 56  1  0  0  0
 48 65  1  0  0  0
 48118  1  0  0  0
 49 50  1  0  0  0
 49 53  1  0  0  0
 49 64  1  0  0  0
 49119  1  0  0  0
 50 51  1  0  0  0
 50120  1  0  0  0
 50121  1  0  0  0
 51 52  1  0  0  0
 51122  1  0  0  0
 51123  1  0  0  0
 52124  1  0  0  0
 52125  1  0  0  0
 53 54  1  0  0  0
 54 55  2  0  0  0
 54126  1  0  0  0
 55 57  1  0  0  0
 55127  1  0  0  0
 56 69  2  0  0  0
 57 58  2  0  0  0
 57128  1  0  0  0
 58129  1  0  0  0
 59 60  1  0  0  0
 59 61  1  0  0  0
 59 62  1  0  0  0
 60130  1  0  0  0
 60131  1  0  0  0
 60132  1  0  0  0
 61133  1  0  0  0
 61134  1  0  0  0
 61135  1  0  0  0
 62136  1  0  0  0
 62137  1  0  0  0
 62138  1  0  0  0
 63 65  1  0  0  0
 63139  1  0  0  0
 63140  1  0  0  0
 63141  1  0  0  0
 64142  1  0  0  0
 65143  1  0  0  0
 68 79  1  0  0  0
 71 73  2  0  0  0
 71 75  1  0  0  0
 71144  1  0  0  0
 72 74  1  0  0  0
 72 76  2  0  0  0
 72145  1  0  0  0
 73 76  1  0  0  0
 73 77  1  0  0  0
 74 75  2  0  0  0
 74 81  1  0  0  0
 75 83  1  0  0  0
 76 84  1  0  0  0
 77 82  2  0  0  0
 78146  1  0  0  0
 78147  1  0  0  0
 78148  1  0  0  0
 78 80  1  0  0  0
 79 80  1  0  0  0
 79149  1  0  0  0
 79150  1  0  0  0
 80 81  1  0  0  0
 80151  1  0  0  0
 81152  1  0  0  0
M  ISO  4   1 100  68 101  77 100  79 101
M  END
> <chiral flag>
0

> <version>
0

> <s_m_source_file>
/data/baiqing/PycharmProjects/Reinvent-master-3.2/result/LINK_invent/BTK/process_docking_weight1_custom_sum_contain_oxygen_bond_distance_aromatic_linkinvent_7_9_3/rearranged_h_0014.sdf

> <i_m_source_file_index>
18

> <r_mmod_Potential_Energy-OPLS-2005>
493.071746826172

> <r_mmod_Stretch_Energy-OPLS-2005>
191.978240966797

> <r_mmod_Bend_Energy-OPLS-2005>
254.172821044922

> <r_mmod_Torsional_Energy-OPLS-2005>
201.836822509766

> <r_mmod_Improper_Torsional_Energy-OPLS-2005>
4.75821685791016

> <r_mmod_Van_der_Waal_Energy-OPLS-2005>
132.675827026367

> <r_mmod_Electrostatic_Energy-OPLS-2005>
-227.698104858398

> <r_mmod_Solvation_Energy-OPLS-2005>
-201.491836547852

> <b_mmod_Minimization_Converged-OPLS-2005>
0

> <r_mmod_RMS_Derivative-OPLS-2005>
4.17981147766113

$$$$
18
                    3D
 Structure written by MMmdl.
154162  0  0  1  0            999 V2000
  -30.6285  -14.7393   20.4320 C   0  0  0  0  0  0
  -30.4253  -12.4428   19.4746 C   0  0  0  0  0  0
  -29.5049  -12.4958   18.2366 C   0  0  0  0  0  0
  -28.0332  -12.3231   18.6552 C   0  0  0  0  0  0
  -27.6404  -13.2330   19.8492 C   0  0  2  0  0  0
  -28.6869  -13.1840   20.9840 C   0  0  0  0  0  0
  -25.2507  -13.8207   20.5701 C   0  0  0  0  0  0
  -24.1805  -13.0450   20.9230 C   0  0  0  0  0  0
  -24.6395  -11.6929   20.8768 C   0  0  0  0  0  0
  -23.9070  -10.4298   21.0414 C   0  0  0  0  0  0
  -24.3617   -9.4208   21.9190 C   0  0  0  0  0  0
  -23.6295   -8.2240   22.0752 C   0  0  0  0  0  0
  -22.4280   -8.0276   21.3538 C   0  0  0  0  0  0
  -21.9916   -9.0256   20.4643 C   0  0  0  0  0  0
  -22.7243  -10.2136   20.3060 C   0  0  0  0  0  0
  -21.6851   -6.0735   22.5281 C   0  0  0  0  0  0
  -21.4015   -6.5637   23.8215 C   0  0  0  0  0  0
  -21.3662   -5.6791   24.9173 C   0  0  0  0  0  0
  -21.6041   -4.3055   24.7226 C   0  0  0  0  0  0
  -21.8821   -3.8146   23.4345 C   0  0  0  0  0  0
  -21.9195   -4.6964   22.3399 C   0  0  0  0  0  0
  -22.7822  -13.5223   21.1883 C   0  0  0  0  0  0
  -22.1662   -4.2144   21.0980 F   0  0  0  0  0  0
  -21.5628   -3.4542   25.7739 F   0  0  0  0  0  0
  -29.9880  -13.5205   20.3936 N   0  0  0  0  0  0
  -26.2936  -12.9416   20.3296 N   0  0  0  0  0  0
  -25.9328  -11.6559   20.5780 N   0  0  0  0  0  0
  -22.0469  -12.8203   22.0427 N   0  0  0  0  0  0
  -25.4194  -15.1923   20.4060 N   0  0  0  0  0  0
  -31.8281  -14.7823   20.1505 O   0  0  0  0  0  0
  -21.6641   -6.8874   21.4238 O   0  0  0  0  0  0
  -22.3508  -14.5530   20.6726 O   0  0  0  0  0  0
  -24.6306  -31.8532   23.1968 C   0  0  0  0  0  0
  -25.9132  -32.4726   23.8323 C   0  0  1  0  0  0
  -27.2217  -27.2593   20.1231 C   0  0  0  0  0  0
  -25.5935  -33.8531   24.2245 N   0  0  0  0  0  0
  -23.4272  -30.4753   21.5378 C   0  0  2  0  0  0
  -24.8727  -28.9166   20.1063 C   0  0  0  0  0  0
  -22.7494  -29.4603   22.4892 C   0  0  0  0  0  0
  -18.0300  -28.1385   22.8461 C   0  0  0  0  0  0
  -24.1494  -36.7272   23.2642 C   0  0  0  0  0  0
  -25.9718  -30.7627   21.3777 C   0  0  0  0  0  0
  -26.0419  -29.3861   20.7160 C   0  0  0  0  0  0
  -27.2151  -28.5679   20.7143 C   0  0  0  0  0  0
  -26.0254  -26.8474   19.4962 C   0  0  0  0  0  0
  -24.8692  -27.6552   19.4869 C   0  0  0  0  0  0
  -23.6441  -29.8048   20.1543 C   0  0  0  0  0  0
  -25.4121  -36.3049   24.0325 C   0  0  1  0  0  0
  -20.5899  -28.3703   23.1237 C   0  0  2  0  0  0
  -20.6788  -26.9422   22.5386 C   0  0  0  0  0  0
  -19.5770  -26.6387   21.5184 C   0  0  0  0  0  0
  -18.1949  -26.7923   22.1594 C   0  0  0  0  0  0
  -19.1553  -28.8858   23.2840 C   0  0  0  0  0  0
  -18.9481  -30.1453   23.8872 C   0  0  0  0  0  0
  -17.6485  -30.6589   24.0556 C   0  0  0  0  0  0
  -25.9058  -34.9418   23.5089 C   0  0  0  0  0  0
  -16.5369  -29.9089   23.6333 C   0  0  0  0  0  0
  -16.7288  -28.6501   23.0353 C   0  0  0  0  0  0
  -26.4505  -31.6570   25.0726 C   0  0  0  0  0  0
  -25.3733  -31.3709   26.1451 C   0  0  0  0  0  0
  -27.0376  -30.2990   24.6233 C   0  0  0  0  0  0
  -27.6048  -32.4336   25.7497 C   0  0  0  0  0  0
  -27.5579  -37.1793   24.8468 C   0  0  0  0  0  0
  -21.4208  -29.3043   22.3618 N   0  0  0  0  0  0
  -26.4292  -37.3755   23.9407 N   0  0  0  0  0  0
  -24.6953  -31.0497   22.0933 N   0  0  0  0  0  0
  -23.4187  -28.8170   23.3016 O   0  0  0  0  0  0
  -28.3431  -26.4036   20.2155 O   0  0  0  0  0  0
  -26.5639  -34.8895   22.4662 O   0  0  0  0  0  0
  -23.5460  -32.1362   23.7268 O   0  0  0  0  0  0
  -31.4391  -17.7441   19.8711 C   0  0  0  0  0  0
  -29.2311  -18.4509   20.5970 C   0  0  0  0  0  0
  -29.5516  -19.8619   20.3420 C   0  0  0  0  0  0
  -30.1696  -17.3507   20.3618 C   0  0  0  0  0  0
  -31.7759  -19.0926   19.6466 C   0  0  0  0  0  0
  -30.8560  -20.1318   19.8727 C   0  0  0  0  0  0
  -28.2760  -23.7230   20.4439 C   0  0  0  0  0  0
  -27.8507  -18.1182   21.1444 C   0  0  0  0  0  0
  -28.5659  -21.0979   20.6054 C   0  0  0  0  0  0
  -28.4546  -25.0530   19.5630 C   0  0  0  0  0  0
  -29.8655  -15.8978   20.5865 N   0  0  0  0  0  0
  -28.8046  -22.5038   20.0412 N   0  0  0  0  0  0
  -27.6124  -23.7914   21.4811 O   0  0  0  0  0  0
  -33.0200  -19.3978   19.2047 F   0  0  0  0  0  0
  -31.2552  -21.4055   19.6401 F   0  0  0  0  0  0
  -31.4676  -12.5490   19.1701 H   0  0  0  0  0  0
  -30.3575  -11.4701   19.9649 H   0  0  0  0  0  0
  -29.7816  -11.7193   17.5223 H   0  0  0  0  0  0
  -29.6326  -13.4485   17.7200 H   0  0  0  0  0  0
  -27.8937  -11.2766   18.9302 H   0  0  0  0  0  0
  -27.3715  -12.5041   17.8072 H   0  0  0  0  0  0
  -27.6310  -14.2504   19.4573 H   0  0  0  0  0  0
  -28.7192  -12.1957   21.4446 H   0  0  0  0  0  0
  -28.4289  -13.8847   21.7795 H   0  0  0  0  0  0
  -25.2758   -9.5684   22.4772 H   0  0  0  0  0  0
  -24.0003   -7.4628   22.7470 H   0  0  0  0  0  0
  -21.0847   -8.8775   19.8946 H   0  0  0  0  0  0
  -22.3700  -10.9676   19.6174 H   0  0  0  0  0  0
  -21.2008   -7.6147   23.9711 H   0  0  0  0  0  0
  -21.1481   -6.0522   25.9072 H   0  0  0  0  0  0
  -22.0597   -2.7609   23.2849 H   0  0  0  0  0  0
  -22.4091  -11.9854   22.4796 H   0  0  0  0  0  0
  -21.1081  -13.1210   22.2636 H   0  0  0  0  0  0
  -24.6425  -15.8380   20.4916 H   0  0  0  0  0  0
  -26.2465  -15.6202   20.0128 H   0  0  0  0  0  0
  -26.7193  -32.5365   23.1058 H   0  0  0  0  0  0
  -25.0078  -33.9665   25.0384 H   0  0  0  0  0  0
  -22.7250  -31.2980   21.3906 H   0  0  0  0  0  0
  -23.3752  -35.9606   23.3293 H   0  0  0  0  0  0
  -24.3592  -36.8912   22.2060 H   0  0  0  0  0  0
  -23.7239  -37.6464   23.6678 H   0  0  0  0  0  0
  -26.1214  -31.5266   20.6133 H   0  0  0  0  0  0
  -26.8444  -30.8037   22.0182 H   0  0  0  0  0  0
  -28.1106  -28.9209   21.2065 H   0  0  0  0  0  0
  -25.9418  -25.8716   19.0424 H   0  0  0  0  0  0
  -23.9687  -27.2866   19.0135 H   0  0  0  0  0  0
  -23.7657  -30.5789   19.3957 H   0  0  0  0  0  0
  -22.7610  -29.2380   19.8524 H   0  0  0  0  0  0
  -25.1298  -36.1902   25.0816 H   0  0  0  0  0  0
  -20.9986  -28.3301   24.1357 H   0  0  0  0  0  0
  -20.5693  -26.2324   23.3596 H   0  0  0  0  0  0
  -21.6660  -26.7463   22.1181 H   0  0  0  0  0  0
  -19.6947  -25.6294   21.1230 H   0  0  0  0  0  0
  -19.6707  -27.3171   20.6689 H   0  0  0  0  0  0
  -17.4218  -26.6645   21.4002 H   0  0  0  0  0  0
  -18.0372  -26.0070   22.9002 H   0  0  0  0  0  0
  -19.7969  -30.7252   24.2244 H   0  0  0  0  0  0
  -17.5061  -31.6270   24.5160 H   0  0  0  0  0  0
  -15.5377  -30.2993   23.7686 H   0  0  0  0  0  0
  -15.8678  -28.0822   22.7091 H   0  0  0  0  0  0
  -24.5915  -30.7044   25.7785 H   0  0  0  0  0  0
  -24.8911  -32.2868   26.4878 H   0  0  0  0  0  0
  -25.8064  -30.8895   27.0231 H   0  0  0  0  0  0
  -26.2970  -29.6706   24.1271 H   0  0  0  0  0  0
  -27.4066  -29.7279   25.4764 H   0  0  0  0  0  0
  -27.8843  -30.4258   23.9480 H   0  0  0  0  0  0
  -27.2643  -33.3651   26.2032 H   0  0  0  0  0  0
  -28.3875  -32.6882   25.0337 H   0  0  0  0  0  0
  -28.0700  -31.8498   26.5451 H   0  0  0  0  0  0
  -28.2589  -38.0098   24.7522 H   0  0  0  0  0  0
  -28.1086  -36.2629   24.6293 H   0  0  0  0  0  0
  -27.2300  -37.1437   25.8872 H   0  0  0  0  0  0
  -20.9416  -29.8740   21.6781 H   0  0  0  0  0  0
  -26.0168  -38.2828   24.1405 H   0  0  0  0  0  0
  -32.2102  -17.0262   19.6479 H   0  0  0  0  0  0
  -27.5606  -18.8261   21.9201 H   0  0  0  0  0  0
  -27.8081  -17.1277   21.5963 H   0  0  0  0  0  0
  -27.1047  -18.1571   20.3509 H   0  0  0  0  0  0
  -28.4682  -21.1903   21.6875 H   0  0  0  0  0  0
  -27.5789  -20.7946   20.2536 H   0  0  0  0  0  0
  -27.8267  -24.9845   18.6769 H   0  0  0  0  0  0
  -29.4706  -25.0079   19.1704 H   0  0  0  0  0  0
  -28.9068  -15.7010   20.8250 H   0  0  0  0  0  0
  -29.3780  -22.5333   19.2081 H   0  0  0  0  0  0
  1 25  1  0  0  0
  1 30  2  0  0  0
  1 81  1  0  0  0
  2  3  1  0  0  0
  2 25  1  0  0  0
  2 86  1  0  0  0
  2 87  1  0  0  0
  3  4  1  0  0  0
  3 88  1  0  0  0
  3 89  1  0  0  0
  4  5  1  0  0  0
  4 90  1  0  0  0
  4 91  1  0  0  0
  5  6  1  0  0  0
  5 26  1  0  0  0
  5 92  1  0  0  0
  6 25  1  0  0  0
  6 93  1  0  0  0
  6 94  1  0  0  0
  7  8  2  0  0  0
  7 26  1  0  0  0
  7 29  1  0  0  0
  8  9  1  0  0  0
  8 22  1  0  0  0
  9 10  1  0  0  0
  9 27  2  0  0  0
 10 11  2  0  0  0
 10 15  1  0  0  0
 11 12  1  0  0  0
 11 95  1  0  0  0
 12 13  2  0  0  0
 12 96  1  0  0  0
 13 14  1  0  0  0
 13 31  1  0  0  0
 14 15  2  0  0  0
 14 97  1  0  0  0
 15 98  1  0  0  0
 16 17  2  0  0  0
 16 21  1  0  0  0
 16 31  1  0  0  0
 17 18  1  0  0  0
 17 99  1  0  0  0
 18 19  2  0  0  0
 18100  1  0  0  0
 19 20  1  0  0  0
 19 24  1  0  0  0
 20 21  2  0  0  0
 20101  1  0  0  0
 21 23  1  0  0  0
 22 28  1  0  0  0
 22 32  2  0  0  0
 26 27  1  0  0  0
 28102  1  0  0  0
 28103  1  0  0  0
 29104  1  0  0  0
 29105  1  0  0  0
 33 34  1  0  0  0
 33 66  1  0  0  0
 33 70  2  0  0  0
 34 36  1  0  0  0
 34 59  1  0  0  0
 34106  1  0  0  0
 35 44  2  0  0  0
 35 45  1  0  0  0
 35 68  1  0  0  0
 36 56  1  0  0  0
 36107  1  0  0  0
 37 39  1  0  0  0
 37 47  1  0  0  0
 37 66  1  0  0  0
 37108  1  0  0  0
 38 43  2  0  0  0
 38 46  1  0  0  0
 38 47  1  0  0  0
 39 64  1  0  0  0
 39 67  2  0  0  0
 40 52  1  0  0  0
 40 53  2  0  0  0
 40 58  1  0  0  0
 41109  1  0  0  0
 41110  1  0  0  0
 41111  1  0  0  0
 41 48  1  0  0  0
 42 43  1  0  0  0
 42 66  1  0  0  0
 42112  1  0  0  0
 42113  1  0  0  0
 43 44  1  0  0  0
 44114  1  0  0  0
 45 46  2  0  0  0
 45115  1  0  0  0
 46116  1  0  0  0
 47117  1  0  0  0
 47118  1  0  0  0
 48 56  1  0  0  0
 48 65  1  0  0  0
 48119  1  0  0  0
 49 50  1  0  0  0
 49 53  1  0  0  0
 49 64  1  0  0  0
 49120  1  0  0  0
 50 51  1  0  0  0
 50121  1  0  0  0
 50122  1  0  0  0
 51 52  1  0  0  0
 51123  1  0  0  0
 51124  1  0  0  0
 52125  1  0  0  0
 52126  1  0  0  0
 53 54  1  0  0  0
 54 55  2  0  0  0
 54127  1  0  0  0
 55 57  1  0  0  0
 55128  1  0  0  0
 56 69  2  0  0  0
 57 58  2  0  0  0
 57129  1  0  0  0
 58130  1  0  0  0
 59 60  1  0  0  0
 59 61  1  0  0  0
 59 62  1  0  0  0
 60131  1  0  0  0
 60132  1  0  0  0
 60133  1  0  0  0
 61134  1  0  0  0
 61135  1  0  0  0
 61136  1  0  0  0
 62137  1  0  0  0
 62138  1  0  0  0
 62139  1  0  0  0
 63 65  1  0  0  0
 63140  1  0  0  0
 63141  1  0  0  0
 63142  1  0  0  0
 64143  1  0  0  0
 65144  1  0  0  0
 68 80  1  0  0  0
 71 74  2  0  0  0
 71 75  1  0  0  0
 71145  1  0  0  0
 72 73  2  0  0  0
 72 74  1  0  0  0
 72 78  1  0  0  0
 73 76  1  0  0  0
 73 79  1  0  0  0
 74 81  1  0  0  0
 75 76  2  0  0  0
 75 84  1  0  0  0
 76 85  1  0  0  0
 77 80  1  0  0  0
 77 82  1  0  0  0
 77 83  2  0  0  0
 78146  1  0  0  0
 78147  1  0  0  0
 78148  1  0  0  0
 79 82  1  0  0  0
 79149  1  0  0  0
 79150  1  0  0  0
 80151  1  0  0  0
 80152  1  0  0  0
 81153  1  0  0  0
 82154  1  0  0  0
M  ISO  4   1 100  68 101  80 101  81 100
M  END
> <chiral flag>
0

> <version>
0

> <s_m_source_file>
/data/baiqing/PycharmProjects/Reinvent-master-3.2/result/LINK_invent/BTK/process_docking_weight1_custom_sum_contain_oxygen_bond_distance_aromatic_linkinvent_7_9_3/rearranged_h_0014.sdf

> <i_m_source_file_index>
19

> <r_mmod_Potential_Energy-OPLS-2005>
107.827896118164

> <r_mmod_Stretch_Energy-OPLS-2005>
131.594573974609

> <r_mmod_Bend_Energy-OPLS-2005>
172.071807861328

> <r_mmod_Torsional_Energy-OPLS-2005>
204.021041870117

> <r_mmod_Improper_Torsional_Energy-OPLS-2005>
5.12553119659424

> <r_mmod_Van_der_Waal_Energy-OPLS-2005>
142.382736206055

> <r_mmod_Electrostatic_Energy-OPLS-2005>
-396.0673828125

> <r_mmod_Solvation_Energy-OPLS-2005>
-235.647827148438

> <b_mmod_Minimization_Converged-OPLS-2005>
0

> <r_mmod_RMS_Derivative-OPLS-2005>
1.60662448406219

$$$$
19
                    3D
 Structure written by MMmdl.
161169  0  0  1  0            999 V2000
  -30.7466  -14.3710   20.7056 C   0  0  0  0  0  0
  -30.4359  -12.2959   19.3941 C   0  0  0  0  0  0
  -29.4970  -12.5184   18.1928 C   0  0  0  0  0  0
  -28.0180  -12.3776   18.6061 C   0  0  0  0  0  0
  -27.6720  -13.1998   19.8734 C   0  0  2  0  0  0
  -28.7072  -12.9290   20.9880 C   0  0  0  0  0  0
  -25.2635  -13.8174   20.5665 C   0  0  0  0  0  0
  -24.1878  -13.0466   20.9178 C   0  0  0  0  0  0
  -24.6418  -11.6929   20.8731 C   0  0  0  0  0  0
  -23.9076  -10.4312   21.0402 C   0  0  0  0  0  0
  -24.3603   -9.4222   21.9184 C   0  0  0  0  0  0
  -23.6271   -8.2258   22.0751 C   0  0  0  0  0  0
  -22.4242   -8.0297   21.3551 C   0  0  0  0  0  0
  -21.9886   -9.0281   20.4652 C   0  0  0  0  0  0
  -22.7240  -10.2149   20.3060 C   0  0  0  0  0  0
  -21.6855   -6.0723   22.5278 C   0  0  0  0  0  0
  -21.4022   -6.5619   23.8216 C   0  0  0  0  0  0
  -21.3668   -5.6768   24.9182 C   0  0  0  0  0  0
  -21.6044   -4.3034   24.7224 C   0  0  0  0  0  0
  -21.8826   -3.8127   23.4348 C   0  0  0  0  0  0
  -21.9196   -4.6953   22.3404 C   0  0  0  0  0  0
  -22.7891  -13.5277   21.1825 C   0  0  0  0  0  0
  -22.1659   -4.2135   21.0984 F   0  0  0  0  0  0
  -21.5625   -3.4523   25.7741 F   0  0  0  0  0  0
  -30.0598  -13.2234   20.4694 N   0  0  0  0  0  0
  -26.3067  -12.9328   20.3314 N   0  0  0  0  0  0
  -25.9329  -11.6494   20.5701 N   0  0  0  0  0  0
  -22.0491  -12.8305   22.0371 N   0  0  0  0  0  0
  -25.4361  -15.1888   20.4072 N   0  0  0  0  0  0
  -31.7123  -14.7422   20.0320 O   0  0  0  0  0  0
  -21.6637   -6.8870   21.4236 O   0  0  0  0  0  0
  -22.3591  -14.5583   20.6676 O   0  0  0  0  0  0
  -24.6119  -31.8709   23.2131 C   0  0  0  0  0  0
  -25.9027  -32.4835   23.8434 C   0  0  1  0  0  0
  -27.2307  -27.4549   20.0906 C   0  0  0  0  0  0
  -25.5896  -33.8635   24.2359 N   0  0  0  0  0  0
  -23.3998  -30.4965   21.5511 C   0  0  2  0  0  0
  -24.8441  -28.9626   20.1202 C   0  0  0  0  0  0
  -22.7411  -29.4679   22.4974 C   0  0  0  0  0  0
  -18.0283  -28.1387   22.8487 C   0  0  0  0  0  0
  -24.1481  -36.7332   23.2645 C   0  0  0  0  0  0
  -25.9264  -30.8421   21.3624 C   0  0  0  0  0  0
  -26.0024  -29.4762   20.7136 C   0  0  0  0  0  0
  -27.2005  -28.7291   20.6961 C   0  0  0  0  0  0
  -26.0551  -26.9522   19.4899 C   0  0  0  0  0  0
  -24.8618  -27.6970   19.5082 C   0  0  0  0  0  0
  -23.6092  -29.8311   20.1646 C   0  0  0  0  0  0
  -25.4101  -36.3120   24.0344 C   0  0  1  0  0  0
  -20.5874  -28.3668   23.1321 C   0  0  2  0  0  0
  -20.6767  -26.9402   22.5418 C   0  0  0  0  0  0
  -19.5749  -26.6384   21.5216 C   0  0  0  0  0  0
  -18.1926  -26.7937   22.1620 C   0  0  0  0  0  0
  -19.1533  -28.8843   23.2904 C   0  0  0  0  0  0
  -18.9459  -30.1447   23.8911 C   0  0  0  0  0  0
  -17.6459  -30.6580   24.0578 C   0  0  0  0  0  0
  -25.9028  -34.9483   23.5151 C   0  0  0  0  0  0
  -16.5350  -29.9086   23.6321 C   0  0  0  0  0  0
  -16.7274  -28.6514   23.0327 C   0  0  0  0  0  0
  -26.4487  -31.6600   25.0743 C   0  0  0  0  0  0
  -25.3795  -31.3670   26.1524 C   0  0  0  0  0  0
  -27.0314  -30.3059   24.6062 C   0  0  0  0  0  0
  -27.6061  -32.4336   25.7491 C   0  0  0  0  0  0
  -27.5577  -37.1826   24.8464 C   0  0  0  0  0  0
  -21.4141  -29.3049   22.3730 N   0  0  0  0  0  0
  -26.4285  -37.3803   23.9412 N   0  0  0  0  0  0
  -24.6644  -31.0840   22.1008 N   0  0  0  0  0  0
  -23.4194  -28.8205   23.2996 O   0  0  0  0  0  0
  -28.4103  -26.7485   20.0630 O   0  0  0  0  0  0
  -26.5578  -34.8927   22.4698 O   0  0  0  0  0  0
  -23.5324  -32.1427   23.7546 O   0  0  0  0  0  0
  -28.7689  -18.7073   22.8836 C   0  0  0  0  0  0
  -29.5265  -18.6402   21.6938 C   0  0  0  0  0  0
  -28.5955  -17.5751   23.6963 C   0  0  0  0  0  0
  -29.9242  -16.2494   22.1206 C   0  0  0  0  0  0
  -30.1003  -17.4016   21.3036 C   0  0  0  0  0  0
  -29.1674  -16.3520   23.3067 C   0  0  0  0  0  0
  -29.6959  -19.8624   20.8789 C   0  0  0  0  0  0
  -29.9464  -21.1179   21.3311 C   0  0  0  0  0  0
  -29.9294  -22.2155   20.3596 C   0  0  0  0  0  0
  -27.7839  -17.6811   24.9722 C   0  0  0  0  0  0
  -30.2557  -21.4334   22.7985 C   0  0  0  0  0  0
  -29.7057  -24.7188   20.2854 C   0  0  0  0  0  0
  -28.3301  -25.3806   20.4636 C   0  0  0  0  0  0
  -30.4261  -14.9428   21.8707 N   0  0  0  0  0  0
  -29.7480  -23.4115   20.9392 N   0  0  0  0  0  0
  -30.0578  -22.0936   19.1389 O   0  0  0  0  0  0
  -30.8070  -17.3402   20.1494 F   0  0  0  0  0  0
  -28.9818  -15.2456   24.0697 F   0  0  0  0  0  0
  -31.4780  -12.4184   19.0899 H   0  0  0  0  0  0
  -30.3536  -11.2704   19.7565 H   0  0  0  0  0  0
  -29.7314  -11.8036   17.4025 H   0  0  0  0  0  0
  -29.6724  -13.5089   17.7685 H   0  0  0  0  0  0
  -27.8197  -11.3199   18.7843 H   0  0  0  0  0  0
  -27.3725  -12.6757   17.7798 H   0  0  0  0  0  0
  -27.7343  -14.2548   19.6026 H   0  0  0  0  0  0
  -28.6658  -11.8828   21.2993 H   0  0  0  0  0  0
  -28.4392  -13.5024   21.8749 H   0  0  0  0  0  0
  -25.2754   -9.5694   22.4753 H   0  0  0  0  0  0
  -23.9985   -7.4649   22.7467 H   0  0  0  0  0  0
  -21.0811   -8.8834   19.8953 H   0  0  0  0  0  0
  -22.3730  -10.9688   19.6160 H   0  0  0  0  0  0
  -21.2025   -7.6124   23.9722 H   0  0  0  0  0  0
  -21.1468   -6.0489   25.9082 H   0  0  0  0  0  0
  -22.0593   -2.7584   23.2865 H   0  0  0  0  0  0
  -22.4046  -11.9998   22.4849 H   0  0  0  0  0  0
  -21.1121  -13.1400   22.2530 H   0  0  0  0  0  0
  -24.6720  -15.8457   20.5214 H   0  0  0  0  0  0
  -26.2878  -15.6259   20.0778 H   0  0  0  0  0  0
  -26.7095  -32.5565   23.1205 H   0  0  0  0  0  0
  -25.0077  -33.9807   25.0526 H   0  0  0  0  0  0
  -22.6884  -31.3129   21.4129 H   0  0  0  0  0  0
  -23.3728  -35.9684   23.3324 H   0  0  0  0  0  0
  -24.3570  -36.8931   22.2056 H   0  0  0  0  0  0
  -23.7252  -37.6554   23.6644 H   0  0  0  0  0  0
  -26.0344  -31.6047   20.5894 H   0  0  0  0  0  0
  -26.8178  -30.9006   21.9740 H   0  0  0  0  0  0
  -28.0976  -29.1229   21.1522 H   0  0  0  0  0  0
  -26.0517  -26.0003   18.9797 H   0  0  0  0  0  0
  -23.9708  -27.3010   19.0420 H   0  0  0  0  0  0
  -23.7276  -30.6071   19.4071 H   0  0  0  0  0  0
  -22.7332  -29.2553   19.8621 H   0  0  0  0  0  0
  -25.1269  -36.2002   25.0837 H   0  0  0  0  0  0
  -20.9979  -28.3233   24.1441 H   0  0  0  0  0  0
  -20.5675  -26.2274   23.3603 H   0  0  0  0  0  0
  -21.6641  -26.7440   22.1220 H   0  0  0  0  0  0
  -19.6905  -25.6297   21.1238 H   0  0  0  0  0  0
  -19.6697  -27.3202   20.6757 H   0  0  0  0  0  0
  -17.4202  -26.6702   21.4009 H   0  0  0  0  0  0
  -18.0313  -26.0070   22.9007 H   0  0  0  0  0  0
  -19.7928  -30.7269   24.2278 H   0  0  0  0  0  0
  -17.5011  -31.6262   24.5187 H   0  0  0  0  0  0
  -15.5351  -30.3001   23.7632 H   0  0  0  0  0  0
  -15.8677  -28.0854   22.7007 H   0  0  0  0  0  0
  -24.5943  -30.7038   25.7885 H   0  0  0  0  0  0
  -24.9019  -32.2805   26.5070 H   0  0  0  0  0  0
  -25.8202  -30.8786   27.0222 H   0  0  0  0  0  0
  -26.2817  -29.6814   24.1190 H   0  0  0  0  0  0
  -27.4200  -29.7304   25.4471 H   0  0  0  0  0  0
  -27.8604  -30.4417   23.9113 H   0  0  0  0  0  0
  -27.2664  -33.3614   26.2111 H   0  0  0  0  0  0
  -28.3833  -32.6943   25.0294 H   0  0  0  0  0  0
  -28.0775  -31.8449   26.5370 H   0  0  0  0  0  0
  -28.2605  -38.0113   24.7487 H   0  0  0  0  0  0
  -28.1053  -36.2637   24.6297 H   0  0  0  0  0  0
  -27.2297  -37.1510   25.8872 H   0  0  0  0  0  0
  -20.9287  -29.8798   21.6984 H   0  0  0  0  0  0
  -26.0175  -38.2884   24.1408 H   0  0  0  0  0  0
  -28.3016  -19.6366   23.1739 H   0  0  0  0  0  0
  -29.5458  -19.7081   19.8189 H   0  0  0  0  0  0
  -27.7999  -18.6975   25.3661 H   0  0  0  0  0  0
  -28.1839  -17.0205   25.7422 H   0  0  0  0  0  0
  -26.7469  -17.4041   24.7842 H   0  0  0  0  0  0
  -30.6447  -20.5604   23.3219 H   0  0  0  0  0  0
  -29.3669  -21.7816   23.3248 H   0  0  0  0  0  0
  -31.0310  -22.1947   22.8897 H   0  0  0  0  0  0
  -30.4749  -25.3448   20.7395 H   0  0  0  0  0  0
  -29.9526  -24.6548   19.2233 H   0  0  0  0  0  0
  -28.0254  -25.3429   21.5114 H   0  0  0  0  0  0
  -27.5943  -24.8153   19.8929 H   0  0  0  0  0  0
  -30.0266  -14.2806   22.5194 H   0  0  0  0  0  0
  -29.6285  -23.4007   21.9438 H   0  0  0  0  0  0
  1 25  1  0  0  0
  1 30  2  0  0  0
  1 84  1  0  0  0
  2  3  1  0  0  0
  2 25  1  0  0  0
  2 89  1  0  0  0
  2 90  1  0  0  0
  3  4  1  0  0  0
  3 91  1  0  0  0
  3 92  1  0  0  0
  4  5  1  0  0  0
  4 93  1  0  0  0
  4 94  1  0  0  0
  5  6  1  0  0  0
  5 26  1  0  0  0
  5 95  1  0  0  0
  6 25  1  0  0  0
  6 96  1  0  0  0
  6 97  1  0  0  0
  7  8  2  0  0  0
  7 26  1  0  0  0
  7 29  1  0  0  0
  8  9  1  0  0  0
  8 22  1  0  0  0
  9 10  1  0  0  0
  9 27  2  0  0  0
 10 11  2  0  0  0
 10 15  1  0  0  0
 11 12  1  0  0  0
 11 98  1  0  0  0
 12 13  2  0  0  0
 12 99  1  0  0  0
 13 14  1  0  0  0
 13 31  1  0  0  0
 14 15  2  0  0  0
 14100  1  0  0  0
 15101  1  0  0  0
 16 17  2  0  0  0
 16 21  1  0  0  0
 16 31  1  0  0  0
 17 18  1  0  0  0
 17102  1  0  0  0
 18 19  2  0  0  0
 18103  1  0  0  0
 19 20  1  0  0  0
 19 24  1  0  0  0
 20 21  2  0  0  0
 20104  1  0  0  0
 21 23  1  0  0  0
 22 28  1  0  0  0
 22 32  2  0  0  0
 26 27  1  0  0  0
 28105  1  0  0  0
 28106  1  0  0  0
 29107  1  0  0  0
 29108  1  0  0  0
 33 34  1  0  0  0
 33 66  1  0  0  0
 33 70  2  0  0  0
 34 36  1  0  0  0
 34 59  1  0  0  0
 34109  1  0  0  0
 35 44  2  0  0  0
 35 45  1  0  0  0
 35 68  1  0  0  0
 36 56  1  0  0  0
 36110  1  0  0  0
 37 39  1  0  0  0
 37 47  1  0  0  0
 37 66  1  0  0  0
 37111  1  0  0  0
 38 43  2  0  0  0
 38 46  1  0  0  0
 38 47  1  0  0  0
 39 64  1  0  0  0
 39 67  2  0  0  0
 40 52  1  0  0  0
 40 53  2  0  0  0
 40 58  1  0  0  0
 41112  1  0  0  0
 41113  1  0  0  0
 41114  1  0  0  0
 41 48  1  0  0  0
 42 43  1  0  0  0
 42 66  1  0  0  0
 42115  1  0  0  0
 42116  1  0  0  0
 43 44  1  0  0  0
 44117  1  0  0  0
 45 46  2  0  0  0
 45118  1  0  0  0
 46119  1  0  0  0
 47120  1  0  0  0
 47121  1  0  0  0
 48 56  1  0  0  0
 48 65  1  0  0  0
 48122  1  0  0  0
 49 50  1  0  0  0
 49 53  1  0  0  0
 49 64  1  0  0  0
 49123  1  0  0  0
 50 51  1  0  0  0
 50124  1  0  0  0
 50125  1  0  0  0
 51 52  1  0  0  0
 51126  1  0  0  0
 51127  1  0  0  0
 52128  1  0  0  0
 52129  1  0  0  0
 53 54  1  0  0  0
 54 55  2  0  0  0
 54130  1  0  0  0
 55 57  1  0  0  0
 55131  1  0  0  0
 56 69  2  0  0  0
 57 58  2  0  0  0
 57132  1  0  0  0
 58133  1  0  0  0
 59 60  1  0  0  0
 59 61  1  0  0  0
 59 62  1  0  0  0
 60134  1  0  0  0
 60135  1  0  0  0
 60136  1  0  0  0
 61137  1  0  0  0
 61138  1  0  0  0
 61139  1  0  0  0
 62140  1  0  0  0
 62141  1  0  0  0
 62142  1  0  0  0
 63 65  1  0  0  0
 63143  1  0  0  0
 63144  1  0  0  0
 63145  1  0  0  0
 64146  1  0  0  0
 65147  1  0  0  0
 68 83  1  0  0  0
 71 72  2  0  0  0
 71 73  1  0  0  0
 71148  1  0  0  0
 72 75  1  0  0  0
 72 77  1  0  0  0
 73 76  2  0  0  0
 73 80  1  0  0  0
 74 75  2  0  0  0
 74 76  1  0  0  0
 74 84  1  0  0  0
 75 87  1  0  0  0
 76 88  1  0  0  0
 77 78  2  0  0  0
 77149  1  0  0  0
 78 79  1  0  0  0
 78 81  1  0  0  0
 79 85  1  0  0  0
 79 86  2  0  0  0
 80150  1  0  0  0
 80151  1  0  0  0
 80152  1  0  0  0
 81153  1  0  0  0
 81154  1  0  0  0
 81155  1  0  0  0
 82 83  1  0  0  0
 82 85  1  0  0  0
 82156  1  0  0  0
 82157  1  0  0  0
 83158  1  0  0  0
 83159  1  0  0  0
 84160  1  0  0  0
 85161  1  0  0  0
M  ISO  4   1 100  68 101  83 101  84 100
M  END
> <chiral flag>
0

> <version>
0

> <s_m_source_file>
/data/baiqing/PycharmProjects/Reinvent-master-3.2/result/LINK_invent/BTK/process_docking_weight1_custom_sum_contain_oxygen_bond_distance_aromatic_linkinvent_7_9_3/rearranged_h_0014.sdf

> <i_m_source_file_index>
20

> <r_mmod_Potential_Energy-OPLS-2005>
-149.590255737305

> <r_mmod_Stretch_Energy-OPLS-2005>
35.8423500061035

> <r_mmod_Bend_Energy-OPLS-2005>
102.604881286621

> <r_mmod_Torsional_Energy-OPLS-2005>
265.588287353516

> <r_mmod_Improper_Torsional_Energy-OPLS-2005>
8.16322898864746

> <r_mmod_Van_der_Waal_Energy-OPLS-2005>
166.331817626953

> <r_mmod_Electrostatic_Energy-OPLS-2005>
-509.1845703125

> <r_mmod_Solvation_Energy-OPLS-2005>
-227.52229309082

> <b_mmod_Minimization_Converged-OPLS-2005>
0

> <r_mmod_RMS_Derivative-OPLS-2005>
2.84767007827759

$$$$
20
                    3D
 Structure written by MMmdl.
177185  0  0  1  0            999 V2000
  -30.7676  -14.3162   20.7553 C   0  0  0  0  0  0
  -30.4253  -12.2936   19.3750 C   0  0  0  0  0  0
  -29.4833  -12.5456   18.1835 C   0  0  0  0  0  0
  -28.0089  -12.3901   18.6008 C   0  0  0  0  0  0
  -27.6697  -13.1963   19.8803 C   0  0  2  0  0  0
  -28.7017  -12.9026   20.9889 C   0  0  0  0  0  0
  -25.2622  -13.8145   20.5657 C   0  0  0  0  0  0
  -24.1856  -13.0437   20.9151 C   0  0  0  0  0  0
  -24.6389  -11.6895   20.8703 C   0  0  0  0  0  0
  -23.9048  -10.4290   21.0388 C   0  0  0  0  0  0
  -24.3603   -9.4214   21.9173 C   0  0  0  0  0  0
  -23.6282   -8.2248   22.0752 C   0  0  0  0  0  0
  -22.4267   -8.0279   21.3541 C   0  0  0  0  0  0
  -21.9892   -9.0249   20.4645 C   0  0  0  0  0  0
  -22.7216  -10.2130   20.3047 C   0  0  0  0  0  0
  -21.6852   -6.0730   22.5280 C   0  0  0  0  0  0
  -21.4012   -6.5635   23.8213 C   0  0  0  0  0  0
  -21.3661   -5.6788   24.9175 C   0  0  0  0  0  0
  -21.6044   -4.3050   24.7225 C   0  0  0  0  0  0
  -21.8821   -3.8143   23.4346 C   0  0  0  0  0  0
  -21.9194   -4.6958   22.3402 C   0  0  0  0  0  0
  -22.7883  -13.5247   21.1830 C   0  0  0  0  0  0
  -22.1663   -4.2142   21.0979 F   0  0  0  0  0  0
  -21.5629   -3.4536   25.7739 F   0  0  0  0  0  0
  -30.0548  -13.1975   20.4720 N   0  0  0  0  0  0
  -26.3056  -12.9292   20.3352 N   0  0  0  0  0  0
  -25.9309  -11.6460   20.5720 N   0  0  0  0  0  0
  -22.0514  -12.8245   22.0387 N   0  0  0  0  0  0
  -25.4366  -15.1859   20.4081 N   0  0  0  0  0  0
  -31.7288  -14.7046   20.0792 O   0  0  0  0  0  0
  -21.6638   -6.8873   21.4240 O   0  0  0  0  0  0
  -22.3573  -14.5557   20.6687 O   0  0  0  0  0  0
  -24.6067  -31.8717   23.2151 C   0  0  0  0  0  0
  -25.8983  -32.4854   23.8427 C   0  0  1  0  0  0
  -27.2475  -27.4841   20.0947 C   0  0  0  0  0  0
  -25.5853  -33.8651   24.2361 N   0  0  0  0  0  0
  -23.3958  -30.4938   21.5523 C   0  0  2  0  0  0
  -24.8490  -28.9641   20.1220 C   0  0  0  0  0  0
  -22.7379  -29.4657   22.4991 C   0  0  0  0  0  0
  -18.0268  -28.1369   22.8513 C   0  0  0  0  0  0
  -24.1485  -36.7317   23.2639 C   0  0  0  0  0  0
  -25.9189  -30.8507   21.3654 C   0  0  0  0  0  0
  -26.0014  -29.4840   20.7252 C   0  0  0  0  0  0
  -27.2029  -28.7466   20.7248 C   0  0  0  0  0  0
  -26.0833  -26.9715   19.4860 C   0  0  0  0  0  0
  -24.8793  -27.7009   19.5056 C   0  0  0  0  0  0
  -23.6086  -29.8263   20.1669 C   0  0  0  0  0  0
  -25.4109  -36.3128   24.0346 C   0  0  1  0  0  0
  -20.5862  -28.3636   23.1342 C   0  0  2  0  0  0
  -20.6757  -26.9379   22.5430 C   0  0  0  0  0  0
  -19.5743  -26.6389   21.5217 C   0  0  0  0  0  0
  -18.1920  -26.7927   22.1628 C   0  0  0  0  0  0
  -19.1522  -28.8822   23.2925 C   0  0  0  0  0  0
  -18.9453  -30.1437   23.8930 C   0  0  0  0  0  0
  -17.6458  -30.6588   24.0576 C   0  0  0  0  0  0
  -25.9015  -34.9489   23.5150 C   0  0  0  0  0  0
  -16.5348  -29.9101   23.6327 C   0  0  0  0  0  0
  -16.7257  -28.6514   23.0347 C   0  0  0  0  0  0
  -26.4444  -31.6615   25.0721 C   0  0  0  0  0  0
  -25.3714  -31.3728   26.1467 C   0  0  0  0  0  0
  -27.0281  -30.3074   24.6060 C   0  0  0  0  0  0
  -27.6040  -32.4311   25.7466 C   0  0  0  0  0  0
  -27.5588  -37.1815   24.8468 C   0  0  0  0  0  0
  -21.4109  -29.3020   22.3750 N   0  0  0  0  0  0
  -26.4307  -37.3801   23.9409 N   0  0  0  0  0  0
  -24.6583  -31.0849   22.1047 N   0  0  0  0  0  0
  -23.4172  -28.8174   23.2996 O   0  0  0  0  0  0
  -28.3940  -26.7388   19.9945 O   0  0  0  0  0  0
  -26.5581  -34.8928   22.4714 O   0  0  0  0  0  0
  -23.5275  -32.1448   23.7569 O   0  0  0  0  0  0
  -30.6079  -17.2961   21.7524 C   0  0  0  0  0  0
  -30.9115  -18.2364   22.7847 C   0  0  0  0  0  0
  -30.7173  -16.0986   22.4079 C   0  0  0  0  0  0
  -30.2217  -17.5812   20.3213 C   0  0  0  0  0  0
  -29.8540  -15.3230   25.6437 C   0  0  0  0  0  0
  -32.3631  -15.6956   25.7460 C   0  0  0  0  0  0
  -34.2918  -21.6349   22.5694 C   0  0  0  0  0  0
  -30.9762  -19.7360   22.6981 C   0  0  0  0  0  0
  -30.8269  -24.8546   22.1056 C   0  0  0  0  0  0
  -31.7329  -23.6728   21.7181 C   0  0  0  0  0  0
  -30.1851  -25.4871   20.8628 C   0  0  0  0  0  0
  -31.9808  -22.6826   22.8664 C   0  0  0  0  0  0
  -29.1953  -26.6202   21.1616 C   0  0  0  0  0  0
  -31.1617  -15.3756   24.8381 C   0  0  0  0  0  0
  -32.7765  -21.4352   22.4016 C   0  0  2  0  0  0
  -31.1734  -17.6505   23.9493 N   0  0  0  0  0  0
  -31.0428  -16.3219   23.7301 N   0  0  0  0  0  0
  -30.4227  -14.8707   21.9245 N   0  0  0  0  0  0
  -32.3268  -20.1946   23.0737 N   0  3  0  0  0  0
  -31.4655  -12.4225   19.0686 H   0  0  0  0  0  0
  -30.3432  -11.2591   19.7117 H   0  0  0  0  0  0
  -29.7156  -11.8576   17.3696 H   0  0  0  0  0  0
  -29.6503  -13.5502   17.7918 H   0  0  0  0  0  0
  -27.8165  -11.3297   18.7673 H   0  0  0  0  0  0
  -27.3543  -12.6924   17.7831 H   0  0  0  0  0  0
  -27.7396  -14.2551   19.6297 H   0  0  0  0  0  0
  -28.6569  -11.8504   21.2743 H   0  0  0  0  0  0
  -28.4307  -13.4527   21.8901 H   0  0  0  0  0  0
  -25.2752   -9.5694   22.4738 H   0  0  0  0  0  0
  -23.9996   -7.4643   22.7470 H   0  0  0  0  0  0
  -21.0826   -8.8761   19.8953 H   0  0  0  0  0  0
  -22.3672  -10.9661   19.6151 H   0  0  0  0  0  0
  -21.2002   -7.6144   23.9712 H   0  0  0  0  0  0
  -21.1478   -6.0519   25.9077 H   0  0  0  0  0  0
  -22.0597   -2.7604   23.2849 H   0  0  0  0  0  0
  -22.4111  -11.9904   22.4784 H   0  0  0  0  0  0
  -21.1132  -13.1277   22.2576 H   0  0  0  0  0  0
  -24.6747  -15.8457   20.5226 H   0  0  0  0  0  0
  -26.2988  -15.6240   20.1075 H   0  0  0  0  0  0
  -26.7049  -32.5601   23.1194 H   0  0  0  0  0  0
  -25.0004  -33.9834   25.0508 H   0  0  0  0  0  0
  -22.6847  -31.3109   21.4139 H   0  0  0  0  0  0
  -23.3747  -35.9648   23.3323 H   0  0  0  0  0  0
  -24.3585  -36.8901   22.2047 H   0  0  0  0  0  0
  -23.7239  -37.6536   23.6629 H   0  0  0  0  0  0
  -26.0194  -31.6142   20.5929 H   0  0  0  0  0  0
  -26.8101  -30.9143   21.9771 H   0  0  0  0  0  0
  -28.0903  -29.1660   21.1793 H   0  0  0  0  0  0
  -26.1156  -26.0077   18.9978 H   0  0  0  0  0  0
  -23.9934  -27.2978   19.0343 H   0  0  0  0  0  0
  -23.7188  -30.6006   19.4066 H   0  0  0  0  0  0
  -22.7368  -29.2419   19.8676 H   0  0  0  0  0  0
  -25.1296  -36.1991   25.0842 H   0  0  0  0  0  0
  -20.9958  -28.3178   24.1457 H   0  0  0  0  0  0
  -20.5654  -26.2229   23.3598 H   0  0  0  0  0  0
  -21.6628  -26.7426   22.1225 H   0  0  0  0  0  0
  -19.6891  -25.6302   21.1235 H   0  0  0  0  0  0
  -19.6692  -27.3216   20.6761 H   0  0  0  0  0  0
  -17.4194  -26.6681   21.4019 H   0  0  0  0  0  0
  -18.0317  -26.0070   22.9023 H   0  0  0  0  0  0
  -19.7928  -30.7253   24.2298 H   0  0  0  0  0  0
  -17.5018  -31.6271   24.5169 H   0  0  0  0  0  0
  -15.5353  -30.3019   23.7632 H   0  0  0  0  0  0
  -15.8656  -28.0855   22.7030 H   0  0  0  0  0  0
  -24.5859  -30.7113   25.7799 H   0  0  0  0  0  0
  -24.8934  -32.2900   26.4924 H   0  0  0  0  0  0
  -25.8048  -30.8877   27.0215 H   0  0  0  0  0  0
  -26.2831  -29.6832   24.1116 H   0  0  0  0  0  0
  -27.4094  -29.7303   25.4491 H   0  0  0  0  0  0
  -27.8631  -30.4443   23.9187 H   0  0  0  0  0  0
  -27.2690  -33.3600   26.2093 H   0  0  0  0  0  0
  -28.3818  -32.6880   25.0261 H   0  0  0  0  0  0
  -28.0728  -31.8389   26.5334 H   0  0  0  0  0  0
  -28.2619  -38.0099   24.7512 H   0  0  0  0  0  0
  -28.1073  -36.2635   24.6306 H   0  0  0  0  0  0
  -27.2302  -37.1478   25.8868 H   0  0  0  0  0  0
  -20.9226  -29.8773   21.7031 H   0  0  0  0  0  0
  -26.0196  -38.2878   24.1416 H   0  0  0  0  0  0
  -29.7228  -18.5433   20.2095 H   0  0  0  0  0  0
  -29.5306  -16.8372   19.9250 H   0  0  0  0  0  0
  -31.0911  -17.5926   19.6637 H   0  0  0  0  0  0
  -29.9205  -14.5968   26.4543 H   0  0  0  0  0  0
  -29.0121  -15.0354   25.0131 H   0  0  0  0  0  0
  -29.6226  -16.2934   26.0856 H   0  0  0  0  0  0
  -32.4889  -14.9286   26.5108 H   0  0  0  0  0  0
  -32.2374  -16.6506   26.2580 H   0  0  0  0  0  0
  -33.2887  -15.7426   25.1715 H   0  0  0  0  0  0
  -34.6357  -22.4968   21.9985 H   0  0  0  0  0  0
  -34.8493  -20.7695   22.2100 H   0  0  0  0  0  0
  -34.5650  -21.7963   23.6121 H   0  0  0  0  0  0
  -30.2297  -20.1930   23.3482 H   0  0  0  0  0  0
  -30.7347  -20.0570   21.6855 H   0  0  0  0  0  0
  -31.3962  -25.5955   22.6698 H   0  0  0  0  0  0
  -30.0305  -24.5090   22.7667 H   0  0  0  0  0  0
  -32.6803  -24.0454   21.3245 H   0  0  0  0  0  0
  -31.2603  -23.1257   20.9003 H   0  0  0  0  0  0
  -29.6482  -24.7018   20.3287 H   0  0  0  0  0  0
  -30.9532  -25.8471   20.1766 H   0  0  0  0  0  0
  -31.0085  -22.3923   23.2623 H   0  0  0  0  0  0
  -32.4941  -23.1782   23.6924 H   0  0  0  0  0  0
  -29.7227  -27.5478   21.3896 H   0  0  0  0  0  0
  -28.5645  -26.3649   22.0144 H   0  0  0  0  0  0
  -31.3356  -14.3882   24.4076 H   0  0  0  0  0  0
  -32.6047  -21.2811   21.3351 H   0  0  0  0  0  0
  -29.8140  -14.3092   22.4983 H   0  0  0  0  0  0
  -32.9384  -19.4413   22.8064 H   0  0  0  0  0  0
  -32.3729  -20.2672   24.0769 H   0  0  0  0  0  0
  1 25  1  0  0  0
  1 30  2  0  0  0
  1 88  1  0  0  0
  2  3  1  0  0  0
  2 25  1  0  0  0
  2 90  1  0  0  0
  2 91  1  0  0  0
  3  4  1  0  0  0
  3 92  1  0  0  0
  3 93  1  0  0  0
  4  5  1  0  0  0
  4 94  1  0  0  0
  4 95  1  0  0  0
  5  6  1  0  0  0
  5 26  1  0  0  0
  5 96  1  0  0  0
  6 25  1  0  0  0
  6 97  1  0  0  0
  6 98  1  0  0  0
  7  8  2  0  0  0
  7 26  1  0  0  0
  7 29  1  0  0  0
  8  9  1  0  0  0
  8 22  1  0  0  0
  9 10  1  0  0  0
  9 27  2  0  0  0
 10 11  2  0  0  0
 10 15  1  0  0  0
 11 12  1  0  0  0
 11 99  1  0  0  0
 12 13  2  0  0  0
 12100  1  0  0  0
 13 14  1  0  0  0
 13 31  1  0  0  0
 14 15  2  0  0  0
 14101  1  0  0  0
 15102  1  0  0  0
 16 17  2  0  0  0
 16 21  1  0  0  0
 16 31  1  0  0  0
 17 18  1  0  0  0
 17103  1  0  0  0
 18 19  2  0  0  0
 18104  1  0  0  0
 19 20  1  0  0  0
 19 24  1  0  0  0
 20 21  2  0  0  0
 20105  1  0  0  0
 21 23  1  0  0  0
 22 28  1  0  0  0
 22 32  2  0  0  0
 26 27  1  0  0  0
 28106  1  0  0  0
 28107  1  0  0  0
 29108  1  0  0  0
 29109  1  0  0  0
 33 34  1  0  0  0
 33 66  1  0  0  0
 33 70  2  0  0  0
 34 36  1  0  0  0
 34 59  1  0  0  0
 34110  1  0  0  0
 35 44  2  0  0  0
 35 45  1  0  0  0
 35 68  1  0  0  0
 36 56  1  0  0  0
 36111  1  0  0  0
 37 39  1  0  0  0
 37 47  1  0  0  0
 37 66  1  0  0  0
 37112  1  0  0  0
 38 43  2  0  0  0
 38 46  1  0  0  0
 38 47  1  0  0  0
 39 64  1  0  0  0
 39 67  2  0  0  0
 40 52  1  0  0  0
 40 53  2  0  0  0
 40 58  1  0  0  0
 41113  1  0  0  0
 41114  1  0  0  0
 41115  1  0  0  0
 41 48  1  0  0  0
 42 43  1  0  0  0
 42 66  1  0  0  0
 42116  1  0  0  0
 42117  1  0  0  0
 43 44  1  0  0  0
 44118  1  0  0  0
 45 46  2  0  0  0
 45119  1  0  0  0
 46120  1  0  0  0
 47121  1  0  0  0
 47122  1  0  0  0
 48 56  1  0  0  0
 48 65  1  0  0  0
 48123  1  0  0  0
 49 50  1  0  0  0
 49 53  1  0  0  0
 49 64  1  0  0  0
 49124  1  0  0  0
 50 51  1  0  0  0
 50125  1  0  0  0
 50126  1  0  0  0
 51 52  1  0  0  0
 51127  1  0  0  0
 51128  1  0  0  0
 52129  1  0  0  0
 52130  1  0  0  0
 53 54  1  0  0  0
 54 55  2  0  0  0
 54131  1  0  0  0
 55 57  1  0  0  0
 55132  1  0  0  0
 56 69  2  0  0  0
 57 58  2  0  0  0
 57133  1  0  0  0
 58134  1  0  0  0
 59 60  1  0  0  0
 59 61  1  0  0  0
 59 62  1  0  0  0
 60135  1  0  0  0
 60136  1  0  0  0
 60137  1  0  0  0
 61138  1  0  0  0
 61139  1  0  0  0
 61140  1  0  0  0
 62141  1  0  0  0
 62142  1  0  0  0
 62143  1  0  0  0
 63 65  1  0  0  0
 63144  1  0  0  0
 63145  1  0  0  0
 63146  1  0  0  0
 64147  1  0  0  0
 65148  1  0  0  0
 68 83  1  0  0  0
 71 72  1  0  0  0
 71 73  2  0  0  0
 71 74  1  0  0  0
 72 78  1  0  0  0
 72 86  2  0  0  0
 73 87  1  0  0  0
 73 88  1  0  0  0
 74149  1  0  0  0
 74150  1  0  0  0
 74151  1  0  0  0
 75152  1  0  0  0
 75153  1  0  0  0
 75154  1  0  0  0
 75 84  1  0  0  0
 76 84  1  0  0  0
 76155  1  0  0  0
 76156  1  0  0  0
 76157  1  0  0  0
 77158  1  0  0  0
 77159  1  0  0  0
 77160  1  0  0  0
 77 85  1  0  0  0
 78 89  1  0  0  0
 78161  1  0  0  0
 78162  1  0  0  0
 79 80  1  0  0  0
 79 81  1  0  0  0
 79163  1  0  0  0
 79164  1  0  0  0
 80 82  1  0  0  0
 80165  1  0  0  0
 80166  1  0  0  0
 81 83  1  0  0  0
 81167  1  0  0  0
 81168  1  0  0  0
 82 85  1  0  0  0
 82169  1  0  0  0
 82170  1  0  0  0
 83171  1  0  0  0
 83172  1  0  0  0
 84 87  1  0  0  0
 84173  1  0  0  0
 85 89  1  0  0  0
 85174  1  0  0  0
 86 87  1  0  0  0
 88175  1  0  0  0
 89176  1  0  0  0
 89177  1  0  0  0
M  CHG  1  89   1
M  ISO  4   1 100  68 101  83 101  88 100
M  END
> <chiral flag>
0

> <version>
0

> <s_m_source_file>
/data/baiqing/PycharmProjects/Reinvent-master-3.2/result/LINK_invent/BTK/process_docking_weight1_custom_sum_contain_oxygen_bond_distance_aromatic_linkinvent_7_9_3/rearranged_h_0014.sdf

> <i_m_source_file_index>
21

> <r_mmod_Potential_Energy-OPLS-2005>
-310.755920410156

> <r_mmod_Stretch_Energy-OPLS-2005>
30.5266017913818

> <r_mmod_Bend_Energy-OPLS-2005>
104.981796264648

> <r_mmod_Torsional_Energy-OPLS-2005>
267.760162353516

> <r_mmod_Improper_Torsional_Energy-OPLS-2005>
3.90129995346069

> <r_mmod_Van_der_Waal_Energy-OPLS-2005>
129.390380859375

> <r_mmod_Electrostatic_Energy-OPLS-2005>
-425.496978759766

> <r_mmod_Solvation_Energy-OPLS-2005>
-429.2724609375

> <b_mmod_Minimization_Converged-OPLS-2005>
0

> <r_mmod_RMS_Derivative-OPLS-2005>
1.80557131767273

$$$$
21
                    3D
 Structure written by MMmdl.
155163  0  0  1  0            999 V2000
  -30.6225  -14.7480   20.4661 C   0  0  0  0  0  0
  -30.4264  -12.4589   19.4772 C   0  0  0  0  0  0
  -29.5076  -12.5080   18.2374 C   0  0  0  0  0  0
  -28.0325  -12.3370   18.6483 C   0  0  0  0  0  0
  -27.6384  -13.2371   19.8505 C   0  0  2  0  0  0
  -28.6826  -13.1794   20.9867 C   0  0  0  0  0  0
  -25.2479  -13.8208   20.5695 C   0  0  0  0  0  0
  -24.1781  -13.0442   20.9200 C   0  0  0  0  0  0
  -24.6390  -11.6924   20.8748 C   0  0  0  0  0  0
  -23.9074  -10.4295   21.0411 C   0  0  0  0  0  0
  -24.3623   -9.4208   21.9185 C   0  0  0  0  0  0
  -23.6296   -8.2244   22.0756 C   0  0  0  0  0  0
  -22.4281   -8.0283   21.3547 C   0  0  0  0  0  0
  -21.9916   -9.0257   20.4646 C   0  0  0  0  0  0
  -22.7247  -10.2135   20.3056 C   0  0  0  0  0  0
  -21.6853   -6.0741   22.5278 C   0  0  0  0  0  0
  -21.4015   -6.5643   23.8212 C   0  0  0  0  0  0
  -21.3654   -5.6792   24.9171 C   0  0  0  0  0  0
  -21.6041   -4.3056   24.7222 C   0  0  0  0  0  0
  -21.8819   -3.8150   23.4343 C   0  0  0  0  0  0
  -21.9195   -4.6968   22.3400 C   0  0  0  0  0  0
  -22.7800  -13.5215   21.1866 C   0  0  0  0  0  0
  -22.1661   -4.2155   21.0976 F   0  0  0  0  0  0
  -21.5626   -3.4539   25.7734 F   0  0  0  0  0  0
  -29.9824  -13.5290   20.4021 N   0  0  0  0  0  0
  -26.2916  -12.9429   20.3293 N   0  0  0  0  0  0
  -25.9324  -11.6565   20.5762 N   0  0  0  0  0  0
  -22.0459  -12.8204   22.0431 N   0  0  0  0  0  0
  -25.4131  -15.1934   20.4126 N   0  0  0  0  0  0
  -31.8120  -14.8064   20.1445 O   0  0  0  0  0  0
  -21.6643   -6.8885   21.4241 O   0  0  0  0  0  0
  -22.3477  -14.5523   20.6719 O   0  0  0  0  0  0
  -24.6312  -31.8537   23.1951 C   0  0  0  0  0  0
  -25.9129  -32.4747   23.8305 C   0  0  1  0  0  0
  -27.2244  -27.2577   20.1205 C   0  0  0  0  0  0
  -25.5913  -33.8548   24.2235 N   0  0  0  0  0  0
  -23.4278  -30.4737   21.5393 C   0  0  2  0  0  0
  -24.8744  -28.9183   20.1063 C   0  0  0  0  0  0
  -22.7502  -29.4584   22.4908 C   0  0  0  0  0  0
  -18.0286  -28.1386   22.8487 C   0  0  0  0  0  0
  -24.1474  -36.7266   23.2650 C   0  0  0  0  0  0
  -25.9727  -30.7643   21.3739 C   0  0  0  0  0  0
  -26.0440  -29.3861   20.7161 C   0  0  0  0  0  0
  -27.2172  -28.5668   20.7128 C   0  0  0  0  0  0
  -26.0257  -26.8495   19.4947 C   0  0  0  0  0  0
  -24.8712  -27.6584   19.4866 C   0  0  0  0  0  0
  -23.6439  -29.8037   20.1558 C   0  0  0  0  0  0
  -25.4103  -36.3063   24.0335 C   0  0  1  0  0  0
  -20.5891  -28.3689   23.1268 C   0  0  2  0  0  0
  -20.6765  -26.9403   22.5413 C   0  0  0  0  0  0
  -19.5741  -26.6373   21.5219 C   0  0  0  0  0  0
  -18.1921  -26.7928   22.1630 C   0  0  0  0  0  0
  -19.1545  -28.8855   23.2874 C   0  0  0  0  0  0
  -18.9470  -30.1457   23.8897 C   0  0  0  0  0  0
  -17.6473  -30.6593   24.0558 C   0  0  0  0  0  0
  -25.9049  -34.9442   23.5094 C   0  0  0  0  0  0
  -16.5358  -29.9091   23.6334 C   0  0  0  0  0  0
  -16.7273  -28.6503   23.0366 C   0  0  0  0  0  0
  -26.4492  -31.6585   25.0707 C   0  0  0  0  0  0
  -25.3704  -31.3737   26.1422 C   0  0  0  0  0  0
  -27.0356  -30.3012   24.6186 C   0  0  0  0  0  0
  -27.6037  -32.4343   25.7481 C   0  0  0  0  0  0
  -27.5566  -37.1785   24.8474 C   0  0  0  0  0  0
  -21.4210  -29.3033   22.3658 N   0  0  0  0  0  0
  -26.4272  -37.3769   23.9426 N   0  0  0  0  0  0
  -24.6966  -31.0493   22.0925 N   0  0  0  0  0  0
  -23.4203  -28.8134   23.3014 O   0  0  0  0  0  0
  -28.3464  -26.3998   20.2061 O   0  0  0  0  0  0
  -26.5646  -34.8929   22.4677 O   0  0  0  0  0  0
  -23.5459  -32.1357   23.7242 O   0  0  0  0  0  0
  -31.5859  -17.7375   20.8147 C   0  0  0  0  0  0
  -29.6530  -19.8717   20.5919 C   0  0  0  0  0  0
  -30.2352  -17.3534   20.6666 C   0  0  0  0  0  0
  -31.9926  -19.0951   20.8496 C   0  0  0  0  0  0
  -29.2818  -18.4529   20.5696 C   0  0  0  0  0  0
  -31.0401  -20.1383   20.7436 C   0  0  0  0  0  0
  -28.3832  -23.7237   20.4788 C   0  0  0  0  0  0
  -34.3038  -18.4763   21.2008 C   0  0  0  0  0  0
  -28.5876  -21.0786   20.5914 C   0  0  0  0  0  0
  -28.4481  -25.0417   19.5621 C   0  0  0  0  0  0
  -29.8661  -15.9015   20.6702 N   0  0  0  0  0  0
  -28.8179  -22.4859   20.0156 N   0  0  0  0  0  0
  -27.8931  -23.8223   21.6058 O   0  0  0  0  0  0
  -33.3119  -19.4774   21.0059 O   0  0  0  0  0  0
  -27.6107  -18.0263   20.4451 Cl  0  0  0  0  0  0
  -31.6371  -21.7604   20.8712 Cl  0  0  0  0  0  0
  -31.4681  -12.5757   19.1737 H   0  0  0  0  0  0
  -30.3670  -11.4853   19.9662 H   0  0  0  0  0  0
  -29.7903  -11.7312   17.5260 H   0  0  0  0  0  0
  -29.6361  -13.4598   17.7198 H   0  0  0  0  0  0
  -27.8829  -11.2878   18.9058 H   0  0  0  0  0  0
  -27.3782  -12.5357   17.7982 H   0  0  0  0  0  0
  -27.6290  -14.2579   19.4676 H   0  0  0  0  0  0
  -28.7190  -12.1850   21.4341 H   0  0  0  0  0  0
  -28.4171  -13.8679   21.7903 H   0  0  0  0  0  0
  -25.2771   -9.5686   22.4759 H   0  0  0  0  0  0
  -24.0006   -7.4639   22.7477 H   0  0  0  0  0  0
  -21.0849   -8.8773   19.8954 H   0  0  0  0  0  0
  -22.3705  -10.9672   19.6163 H   0  0  0  0  0  0
  -21.2006   -7.6152   23.9718 H   0  0  0  0  0  0
  -21.1471   -6.0522   25.9075 H   0  0  0  0  0  0
  -22.0604   -2.7614   23.2839 H   0  0  0  0  0  0
  -22.4080  -11.9855   22.4796 H   0  0  0  0  0  0
  -21.1084  -13.1231   22.2669 H   0  0  0  0  0  0
  -24.6415  -15.8406   20.5309 H   0  0  0  0  0  0
  -26.2611  -15.6504   20.1034 H   0  0  0  0  0  0
  -26.7187  -32.5391   23.1037 H   0  0  0  0  0  0
  -25.0018  -33.9678   25.0350 H   0  0  0  0  0  0
  -22.7247  -31.2955   21.3912 H   0  0  0  0  0  0
  -23.3753  -35.9582   23.3314 H   0  0  0  0  0  0
  -24.3550  -36.8891   22.2065 H   0  0  0  0  0  0
  -23.7211  -37.6461   23.6666 H   0  0  0  0  0  0
  -26.1109  -31.5221   20.6012 H   0  0  0  0  0  0
  -26.8511  -30.8130   22.0061 H   0  0  0  0  0  0
  -28.1138  -28.9217   21.2012 H   0  0  0  0  0  0
  -25.9331  -25.8789   19.0347 H   0  0  0  0  0  0
  -23.9725  -27.2905   19.0120 H   0  0  0  0  0  0
  -23.7623  -30.5772   19.3961 H   0  0  0  0  0  0
  -22.7625  -29.2334   19.8564 H   0  0  0  0  0  0
  -25.1281  -36.1904   25.0825 H   0  0  0  0  0  0
  -20.9976  -28.3258   24.1392 H   0  0  0  0  0  0
  -20.5647  -26.2304   23.3624 H   0  0  0  0  0  0
  -21.6629  -26.7406   22.1214 H   0  0  0  0  0  0
  -19.6896  -25.6282   21.1254 H   0  0  0  0  0  0
  -19.6677  -27.3177   20.6748 H   0  0  0  0  0  0
  -17.4185  -26.6683   21.4036 H   0  0  0  0  0  0
  -18.0312  -26.0071   22.9028 H   0  0  0  0  0  0
  -19.7953  -30.7266   24.2268 H   0  0  0  0  0  0
  -17.5033  -31.6279   24.5155 H   0  0  0  0  0  0
  -15.5360  -30.3002   23.7662 H   0  0  0  0  0  0
  -15.8669  -28.0817   22.7103 H   0  0  0  0  0  0
  -24.5878  -30.7088   25.7740 H   0  0  0  0  0  0
  -24.8894  -32.2916   26.4821 H   0  0  0  0  0  0
  -25.8008  -30.8925   27.0215 H   0  0  0  0  0  0
  -26.2947  -29.6754   24.1199 H   0  0  0  0  0  0
  -27.4056  -29.7270   25.4692 H   0  0  0  0  0  0
  -27.8802  -30.4314   23.9416 H   0  0  0  0  0  0
  -27.2631  -33.3660   26.2009 H   0  0  0  0  0  0
  -28.3862  -32.6888   25.0317 H   0  0  0  0  0  0
  -28.0681  -31.8506   26.5441 H   0  0  0  0  0  0
  -28.2585  -38.0085   24.7525 H   0  0  0  0  0  0
  -28.1065  -36.2618   24.6283 H   0  0  0  0  0  0
  -27.2292  -37.1410   25.8883 H   0  0  0  0  0  0
  -20.9401  -29.8759   21.6863 H   0  0  0  0  0  0
  -26.0155  -38.2840   24.1446 H   0  0  0  0  0  0
  -32.3308  -16.9705   20.9271 H   0  0  0  0  0  0
  -34.1162  -17.8979   22.1068 H   0  0  0  0  0  0
  -35.2751  -18.9564   21.3161 H   0  0  0  0  0  0
  -34.3719  -17.8007   20.3467 H   0  0  0  0  0  0
  -28.2824  -21.2000   21.6311 H   0  0  0  0  0  0
  -27.6965  -20.7143   20.0817 H   0  0  0  0  0  0
  -27.7559  -24.9243   18.7315 H   0  0  0  0  0  0
  -29.4290  -25.0255   19.0871 H   0  0  0  0  0  0
  -28.8812  -15.7269   20.7995 H   0  0  0  0  0  0
  -29.2333  -22.5009   19.0936 H   0  0  0  0  0  0
  1 25  1  0  0  0
  1 30  2  0  0  0
  1 81  1  0  0  0
  2  3  1  0  0  0
  2 25  1  0  0  0
  2 87  1  0  0  0
  2 88  1  0  0  0
  3  4  1  0  0  0
  3 89  1  0  0  0
  3 90  1  0  0  0
  4  5  1  0  0  0
  4 91  1  0  0  0
  4 92  1  0  0  0
  5  6  1  0  0  0
  5 26  1  0  0  0
  5 93  1  0  0  0
  6 25  1  0  0  0
  6 94  1  0  0  0
  6 95  1  0  0  0
  7  8  2  0  0  0
  7 26  1  0  0  0
  7 29  1  0  0  0
  8  9  1  0  0  0
  8 22  1  0  0  0
  9 10  1  0  0  0
  9 27  2  0  0  0
 10 11  2  0  0  0
 10 15  1  0  0  0
 11 12  1  0  0  0
 11 96  1  0  0  0
 12 13  2  0  0  0
 12 97  1  0  0  0
 13 14  1  0  0  0
 13 31  1  0  0  0
 14 15  2  0  0  0
 14 98  1  0  0  0
 15 99  1  0  0  0
 16 17  2  0  0  0
 16 21  1  0  0  0
 16 31  1  0  0  0
 17 18  1  0  0  0
 17100  1  0  0  0
 18 19  2  0  0  0
 18101  1  0  0  0
 19 20  1  0  0  0
 19 24  1  0  0  0
 20 21  2  0  0  0
 20102  1  0  0  0
 21 23  1  0  0  0
 22 28  1  0  0  0
 22 32  2  0  0  0
 26 27  1  0  0  0
 28103  1  0  0  0
 28104  1  0  0  0
 29105  1  0  0  0
 29106  1  0  0  0
 33 34  1  0  0  0
 33 66  1  0  0  0
 33 70  2  0  0  0
 34 36  1  0  0  0
 34 59  1  0  0  0
 34107  1  0  0  0
 35 44  2  0  0  0
 35 45  1  0  0  0
 35 68  1  0  0  0
 36 56  1  0  0  0
 36108  1  0  0  0
 37 39  1  0  0  0
 37 47  1  0  0  0
 37 66  1  0  0  0
 37109  1  0  0  0
 38 43  2  0  0  0
 38 46  1  0  0  0
 38 47  1  0  0  0
 39 64  1  0  0  0
 39 67  2  0  0  0
 40 52  1  0  0  0
 40 53  2  0  0  0
 40 58  1  0  0  0
 41110  1  0  0  0
 41111  1  0  0  0
 41112  1  0  0  0
 41 48  1  0  0  0
 42 43  1  0  0  0
 42 66  1  0  0  0
 42113  1  0  0  0
 42114  1  0  0  0
 43 44  1  0  0  0
 44115  1  0  0  0
 45 46  2  0  0  0
 45116  1  0  0  0
 46117  1  0  0  0
 47118  1  0  0  0
 47119  1  0  0  0
 48 56  1  0  0  0
 48 65  1  0  0  0
 48120  1  0  0  0
 49 50  1  0  0  0
 49 53  1  0  0  0
 49 64  1  0  0  0
 49121  1  0  0  0
 50 51  1  0  0  0
 50122  1  0  0  0
 50123  1  0  0  0
 51 52  1  0  0  0
 51124  1  0  0  0
 51125  1  0  0  0
 52126  1  0  0  0
 52127  1  0  0  0
 53 54  1  0  0  0
 54 55  2  0  0  0
 54128  1  0  0  0
 55 57  1  0  0  0
 55129  1  0  0  0
 56 69  2  0  0  0
 57 58  2  0  0  0
 57130  1  0  0  0
 58131  1  0  0  0
 59 60  1  0  0  0
 59 61  1  0  0  0
 59 62  1  0  0  0
 60132  1  0  0  0
 60133  1  0  0  0
 60134  1  0  0  0
 61135  1  0  0  0
 61136  1  0  0  0
 61137  1  0  0  0
 62138  1  0  0  0
 62139  1  0  0  0
 62140  1  0  0  0
 63 65  1  0  0  0
 63141  1  0  0  0
 63142  1  0  0  0
 63143  1  0  0  0
 64144  1  0  0  0
 65145  1  0  0  0
 68 80  1  0  0  0
 71 73  2  0  0  0
 71 74  1  0  0  0
 71146  1  0  0  0
 72 75  2  0  0  0
 72 76  1  0  0  0
 72 79  1  0  0  0
 73 75  1  0  0  0
 73 81  1  0  0  0
 74 76  2  0  0  0
 74 84  1  0  0  0
 75 85  1  0  0  0
 76 86  1  0  0  0
 77 80  1  0  0  0
 77 82  1  0  0  0
 77 83  2  0  0  0
 78 84  1  0  0  0
 78147  1  0  0  0
 78148  1  0  0  0
 78149  1  0  0  0
 79 82  1  0  0  0
 79150  1  0  0  0
 79151  1  0  0  0
 80152  1  0  0  0
 80153  1  0  0  0
 81154  1  0  0  0
 82155  1  0  0  0
M  ISO  4   1 100  68 101  80 101  81 100
M  END
> <chiral flag>
0

> <version>
0

> <s_m_source_file>
/data/baiqing/PycharmProjects/Reinvent-master-3.2/result/LINK_invent/BTK/process_docking_weight1_custom_sum_contain_oxygen_bond_distance_aromatic_linkinvent_7_9_3/rearranged_h_0014.sdf

> <i_m_source_file_index>
22

> <r_mmod_Potential_Energy-OPLS-2005>
108.244430541992

> <r_mmod_Stretch_Energy-OPLS-2005>
135.251251220703

> <r_mmod_Bend_Energy-OPLS-2005>
186.436340332031

> <r_mmod_Torsional_Energy-OPLS-2005>
204.906127929688

> <r_mmod_Improper_Torsional_Energy-OPLS-2005>
5.78253269195557

> <r_mmod_Van_der_Waal_Energy-OPLS-2005>
149.999710083008

> <r_mmod_Electrostatic_Energy-OPLS-2005>
-413.3359375

> <r_mmod_Solvation_Energy-OPLS-2005>
-245.427871704102

> <b_mmod_Minimization_Converged-OPLS-2005>
0

> <r_mmod_RMS_Derivative-OPLS-2005>
1.21704638004303

$$$$
22
                    3D
 Structure written by MMmdl.
156164  0  0  1  0            999 V2000
  -30.6192  -14.8388   20.4666 C   0  0  0  0  0  0
  -30.4477  -12.5185   19.5170 C   0  0  0  0  0  0
  -29.5285  -12.5194   18.2752 C   0  0  0  0  0  0
  -28.0518  -12.3384   18.6748 C   0  0  0  0  0  0
  -27.6424  -13.2516   19.8588 C   0  0  2  0  0  0
  -28.6825  -13.2302   21.0015 C   0  0  0  0  0  0
  -25.2460  -13.8269   20.5701 C   0  0  0  0  0  0
  -24.1759  -13.0518   20.9180 C   0  0  0  0  0  0
  -24.6372  -11.6982   20.8754 C   0  0  0  0  0  0
  -23.9051  -10.4330   21.0407 C   0  0  0  0  0  0
  -24.3599   -9.4234   21.9190 C   0  0  0  0  0  0
  -23.6290   -8.2263   22.0754 C   0  0  0  0  0  0
  -22.4279   -8.0280   21.3538 C   0  0  0  0  0  0
  -21.9891   -9.0257   20.4647 C   0  0  0  0  0  0
  -22.7200  -10.2153   20.3064 C   0  0  0  0  0  0
  -21.6858   -6.0724   22.5283 C   0  0  0  0  0  0
  -21.3992   -6.5629   23.8207 C   0  0  0  0  0  0
  -21.3649   -5.6781   24.9179 C   0  0  0  0  0  0
  -21.6046   -4.3049   24.7227 C   0  0  0  0  0  0
  -21.8823   -3.8134   23.4360 C   0  0  0  0  0  0
  -21.9201   -4.6951   22.3408 C   0  0  0  0  0  0
  -22.7755  -13.5270   21.1855 C   0  0  0  0  0  0
  -22.1689   -4.2133   21.0992 F   0  0  0  0  0  0
  -21.5636   -3.4535   25.7752 F   0  0  0  0  0  0
  -29.9924  -13.5981   20.4357 N   0  0  0  0  0  0
  -26.2938  -12.9516   20.3314 N   0  0  0  0  0  0
  -25.9308  -11.6646   20.5734 N   0  0  0  0  0  0
  -22.0397  -12.8274   22.0404 N   0  0  0  0  0  0
  -25.4134  -15.2029   20.4153 N   0  0  0  0  0  0
  -31.7982  -14.8997   20.0950 O   0  0  0  0  0  0
  -21.6657   -6.8872   21.4244 O   0  0  0  0  0  0
  -22.3439  -14.5587   20.6696 O   0  0  0  0  0  0
  -24.6290  -31.8515   23.1940 C   0  0  0  0  0  0
  -25.9114  -32.4747   23.8278 C   0  0  1  0  0  0
  -27.2129  -27.2231   20.1419 C   0  0  0  0  0  0
  -25.5902  -33.8543   24.2214 N   0  0  0  0  0  0
  -23.4232  -30.4731   21.5383 C   0  0  2  0  0  0
  -24.8705  -28.9076   20.0998 C   0  0  0  0  0  0
  -22.7489  -29.4606   22.4948 C   0  0  0  0  0  0
  -18.0317  -28.1353   22.8489 C   0  0  0  0  0  0
  -24.1478  -36.7282   23.2641 C   0  0  0  0  0  0
  -25.9660  -30.7520   21.3748 C   0  0  0  0  0  0
  -26.0369  -29.3690   20.7213 C   0  0  0  0  0  0
  -27.1991  -28.5323   20.7408 C   0  0  0  0  0  0
  -26.0225  -26.8254   19.4976 C   0  0  0  0  0  0
  -24.8701  -27.6453   19.4798 C   0  0  0  0  0  0
  -23.6346  -29.7936   20.1552 C   0  0  0  0  0  0
  -25.4118  -36.3077   24.0319 C   0  0  1  0  0  0
  -20.5904  -28.3719   23.1304 C   0  0  2  0  0  0
  -20.6853  -26.9417   22.5482 C   0  0  0  0  0  0
  -19.5845  -26.6307   21.5301 C   0  0  0  0  0  0
  -18.1996  -26.7879   22.1653 C   0  0  0  0  0  0
  -19.1548  -28.8872   23.2869 C   0  0  0  0  0  0
  -18.9441  -30.1490   23.8866 C   0  0  0  0  0  0
  -17.6430  -30.6617   24.0473 C   0  0  0  0  0  0
  -25.9068  -34.9446   23.5092 C   0  0  0  0  0  0
  -16.5345  -29.9059   23.6258 C   0  0  0  0  0  0
  -16.7308  -28.6436   23.0362 C   0  0  0  0  0  0
  -26.4469  -31.6606   25.0699 C   0  0  0  0  0  0
  -25.3656  -31.3770   26.1403 C   0  0  0  0  0  0
  -27.0339  -30.3027   24.6218 C   0  0  0  0  0  0
  -27.6034  -32.4353   25.7465 C   0  0  0  0  0  0
  -27.5585  -37.1794   24.8470 C   0  0  0  0  0  0
  -21.4197  -29.3050   22.3675 N   0  0  0  0  0  0
  -26.4305  -37.3777   23.9410 N   0  0  0  0  0  0
  -24.6920  -31.0450   22.0929 N   0  0  0  0  0  0
  -23.4179  -28.8139   23.3038 O   0  0  0  0  0  0
  -28.3133  -26.3391   20.2804 O   0  0  0  0  0  0
  -26.5666  -34.8931   22.4665 O   0  0  0  0  0  0
  -23.5453  -32.1362   23.7250 O   0  0  0  0  0  0
  -29.7601  -19.9461   18.9799 C   0  0  0  0  0  0
  -29.5083  -19.9446   20.3671 C   0  0  0  0  0  0
  -29.5947  -18.6110   20.9886 C   0  0  0  0  0  0
  -30.1366  -18.7490   18.3314 C   0  0  0  0  0  0
  -29.9459  -17.3898   20.2516 C   0  0  0  0  0  0
  -29.2353  -21.2752   21.1469 C   0  0  0  0  0  0
  -28.8052  -22.6140   21.0079 C   0  0  0  0  0  0
  -30.4997  -18.7507   16.8594 C   0  0  0  0  0  0
  -28.7642  -23.4905   22.2580 C   0  0  0  0  0  0
  -28.2297  -23.4835   19.8106 C   0  0  0  0  0  0
  -28.5710  -25.0688   19.5080 C   0  0  0  0  0  0
  -30.2270  -17.5408   18.9356 N   0  0  0  0  0  0
  -29.9117  -15.9995   20.8163 N   0  0  0  0  0  0
  -29.3699  -18.5185   22.3223 F   0  0  0  0  0  0
  -31.4768  -12.6573   19.1846 H   0  0  0  0  0  0
  -30.4415  -11.5524   20.0239 H   0  0  0  0  0  0
  -29.8375  -11.7372   17.5810 H   0  0  0  0  0  0
  -29.6502  -13.4624   17.7423 H   0  0  0  0  0  0
  -27.9030  -11.2899   18.9420 H   0  0  0  0  0  0
  -27.4069  -12.5304   17.8177 H   0  0  0  0  0  0
  -27.6302  -14.2688   19.4636 H   0  0  0  0  0  0
  -28.7178  -12.2408   21.4579 H   0  0  0  0  0  0
  -28.3822  -13.9247   21.7881 H   0  0  0  0  0  0
  -25.2731   -9.5733   22.4777 H   0  0  0  0  0  0
  -24.0018   -7.4638   22.7454 H   0  0  0  0  0  0
  -21.0829   -8.8740   19.8939 H   0  0  0  0  0  0
  -22.3617  -10.9698   19.6180 H   0  0  0  0  0  0
  -21.1967   -7.6132   23.9700 H   0  0  0  0  0  0
  -21.1464   -6.0526   25.9077 H   0  0  0  0  0  0
  -22.0611   -2.7598   23.2877 H   0  0  0  0  0  0
  -22.4032  -11.9937   22.4761 H   0  0  0  0  0  0
  -21.0995  -13.1230   22.2604 H   0  0  0  0  0  0
  -24.6355  -15.8490   20.5011 H   0  0  0  0  0  0
  -26.2700  -15.6542   20.1208 H   0  0  0  0  0  0
  -26.7166  -32.5381   23.0993 H   0  0  0  0  0  0
  -24.9941  -33.9658   25.0293 H   0  0  0  0  0  0
  -22.7189  -31.2957   21.3946 H   0  0  0  0  0  0
  -23.3763  -35.9598   23.3308 H   0  0  0  0  0  0
  -24.3557  -36.8905   22.2059 H   0  0  0  0  0  0
  -23.7220  -37.6468   23.6670 H   0  0  0  0  0  0
  -26.1009  -31.5083   20.5985 H   0  0  0  0  0  0
  -26.8443  -30.8073   22.0067 H   0  0  0  0  0  0
  -28.0787  -28.8684   21.2705 H   0  0  0  0  0  0
  -25.9515  -25.8390   19.0655 H   0  0  0  0  0  0
  -23.9712  -27.2848   18.9995 H   0  0  0  0  0  0
  -23.7191  -30.5610   19.3850 H   0  0  0  0  0  0
  -22.7544  -29.2087   19.8819 H   0  0  0  0  0  0
  -25.1306  -36.1910   25.0819 H   0  0  0  0  0  0
  -20.9992  -28.3348   24.1430 H   0  0  0  0  0  0
  -20.5763  -26.2340   23.3710 H   0  0  0  0  0  0
  -21.6729  -26.7461   22.1291 H   0  0  0  0  0  0
  -19.7006  -25.6181   21.1407 H   0  0  0  0  0  0
  -19.6796  -27.3050   20.6769 H   0  0  0  0  0  0
  -17.4285  -26.6611   21.4033 H   0  0  0  0  0  0
  -18.0379  -26.0042   22.9051 H   0  0  0  0  0  0
  -19.7905  -30.7322   24.2205 H   0  0  0  0  0  0
  -17.4968  -31.6341   24.4988 H   0  0  0  0  0  0
  -15.5322  -30.2950   23.7534 H   0  0  0  0  0  0
  -15.8724  -28.0708   22.7092 H   0  0  0  0  0  0
  -24.5832  -30.7135   25.7687 H   0  0  0  0  0  0
  -24.8841  -32.2951   26.4788 H   0  0  0  0  0  0
  -25.7921  -30.8938   27.0202 H   0  0  0  0  0  0
  -26.2939  -29.6761   24.1224 H   0  0  0  0  0  0
  -27.3993  -29.7318   25.4767 H   0  0  0  0  0  0
  -27.8817  -30.4319   23.9487 H   0  0  0  0  0  0
  -27.2646  -33.3656   26.2029 H   0  0  0  0  0  0
  -28.3824  -32.6901   25.0270 H   0  0  0  0  0  0
  -28.0706  -31.8477   26.5375 H   0  0  0  0  0  0
  -28.2612  -38.0081   24.7520 H   0  0  0  0  0  0
  -28.1065  -36.2617   24.6291 H   0  0  0  0  0  0
  -27.2299  -37.1442   25.8870 H   0  0  0  0  0  0
  -20.9344  -29.8758   21.6901 H   0  0  0  0  0  0
  -26.0183  -38.2852   24.1401 H   0  0  0  0  0  0
  -29.7220  -20.8690   18.4188 H   0  0  0  0  0  0
  -29.5135  -21.0792   22.1715 H   0  0  0  0  0  0
  -29.6268  -18.9338   16.2324 H   0  0  0  0  0  0
  -31.2426  -19.5207   16.6536 H   0  0  0  0  0  0
  -30.9304  -17.7921   16.5622 H   0  0  0  0  0  0
  -27.7382  -23.8087   22.4432 H   0  0  0  0  0  0
  -29.3643  -24.3941   22.1200 H   0  0  0  0  0  0
  -29.1049  -22.9971   23.1698 H   0  0  0  0  0  0
  -28.5291  -22.9323   18.9208 H   0  0  0  0  0  0
  -27.1452  -23.3854   19.8402 H   0  0  0  0  0  0
  -28.1576  -25.2589   18.5179 H   0  0  0  0  0  0
  -29.6487  -25.0969   19.3341 H   0  0  0  0  0  0
  -29.0918  -15.8306   21.3746 H   0  0  0  0  0  0
  1 25  1  0  0  0
  1 30  2  0  0  0
  1 83  1  0  0  0
  2  3  1  0  0  0
  2 25  1  0  0  0
  2 85  1  0  0  0
  2 86  1  0  0  0
  3  4  1  0  0  0
  3 87  1  0  0  0
  3 88  1  0  0  0
  4  5  1  0  0  0
  4 89  1  0  0  0
  4 90  1  0  0  0
  5  6  1  0  0  0
  5 26  1  0  0  0
  5 91  1  0  0  0
  6 25  1  0  0  0
  6 92  1  0  0  0
  6 93  1  0  0  0
  7  8  2  0  0  0
  7 26  1  0  0  0
  7 29  1  0  0  0
  8  9  1  0  0  0
  8 22  1  0  0  0
  9 10  1  0  0  0
  9 27  2  0  0  0
 10 11  2  0  0  0
 10 15  1  0  0  0
 11 12  1  0  0  0
 11 94  1  0  0  0
 12 13  2  0  0  0
 12 95  1  0  0  0
 13 14  1  0  0  0
 13 31  1  0  0  0
 14 15  2  0  0  0
 14 96  1  0  0  0
 15 97  1  0  0  0
 16 17  2  0  0  0
 16 21  1  0  0  0
 16 31  1  0  0  0
 17 18  1  0  0  0
 17 98  1  0  0  0
 18 19  2  0  0  0
 18 99  1  0  0  0
 19 20  1  0  0  0
 19 24  1  0  0  0
 20 21  2  0  0  0
 20100  1  0  0  0
 21 23  1  0  0  0
 22 28  1  0  0  0
 22 32  2  0  0  0
 26 27  1  0  0  0
 28101  1  0  0  0
 28102  1  0  0  0
 29103  1  0  0  0
 29104  1  0  0  0
 33 34  1  0  0  0
 33 66  1  0  0  0
 33 70  2  0  0  0
 34 36  1  0  0  0
 34 59  1  0  0  0
 34105  1  0  0  0
 35 44  2  0  0  0
 35 45  1  0  0  0
 35 68  1  0  0  0
 36 56  1  0  0  0
 36106  1  0  0  0
 37 39  1  0  0  0
 37 47  1  0  0  0
 37 66  1  0  0  0
 37107  1  0  0  0
 38 43  2  0  0  0
 38 46  1  0  0  0
 38 47  1  0  0  0
 39 64  1  0  0  0
 39 67  2  0  0  0
 40 52  1  0  0  0
 40 53  2  0  0  0
 40 58  1  0  0  0
 41108  1  0  0  0
 41109  1  0  0  0
 41110  1  0  0  0
 41 48  1  0  0  0
 42 43  1  0  0  0
 42 66  1  0  0  0
 42111  1  0  0  0
 42112  1  0  0  0
 43 44  1  0  0  0
 44113  1  0  0  0
 45 46  2  0  0  0
 45114  1  0  0  0
 46115  1  0  0  0
 47116  1  0  0  0
 47117  1  0  0  0
 48 56  1  0  0  0
 48 65  1  0  0  0
 48118  1  0  0  0
 49 50  1  0  0  0
 49 53  1  0  0  0
 49 64  1  0  0  0
 49119  1  0  0  0
 50 51  1  0  0  0
 50120  1  0  0  0
 50121  1  0  0  0
 51 52  1  0  0  0
 51122  1  0  0  0
 51123  1  0  0  0
 52124  1  0  0  0
 52125  1  0  0  0
 53 54  1  0  0  0
 54 55  2  0  0  0
 54126  1  0  0  0
 55 57  1  0  0  0
 55127  1  0  0  0
 56 69  2  0  0  0
 57 58  2  0  0  0
 57128  1  0  0  0
 58129  1  0  0  0
 59 60  1  0  0  0
 59 61  1  0  0  0
 59 62  1  0  0  0
 60130  1  0  0  0
 60131  1  0  0  0
 60132  1  0  0  0
 61133  1  0  0  0
 61134  1  0  0  0
 61135  1  0  0  0
 62136  1  0  0  0
 62137  1  0  0  0
 62138  1  0  0  0
 63 65  1  0  0  0
 63139  1  0  0  0
 63140  1  0  0  0
 63141  1  0  0  0
 64142  1  0  0  0
 65143  1  0  0  0
 68 81  1  0  0  0
 71 72  2  0  0  0
 71 74  1  0  0  0
 71144  1  0  0  0
 72 73  1  0  0  0
 72 76  1  0  0  0
 73 75  2  0  0  0
 73 84  1  0  0  0
 74 78  1  0  0  0
 74 82  2  0  0  0
 75 82  1  0  0  0
 75 83  1  0  0  0
 76 77  2  0  0  0
 76145  1  0  0  0
 77 79  1  0  0  0
 77 80  1  0  0  0
 78146  1  0  0  0
 78147  1  0  0  0
 78148  1  0  0  0
 79149  1  0  0  0
 79150  1  0  0  0
 79151  1  0  0  0
 80 81  1  0  0  0
 80152  1  0  0  0
 80153  1  0  0  0
 81154  1  0  0  0
 81155  1  0  0  0
 83156  1  0  0  0
M  ISO  4   1 100  68 101  81 101  83 100
M  END
> <chiral flag>
0

> <version>
0

> <s_m_source_file>
/data/baiqing/PycharmProjects/Reinvent-master-3.2/result/LINK_invent/BTK/process_docking_weight1_custom_sum_contain_oxygen_bond_distance_aromatic_linkinvent_7_9_3/rearranged_h_0014.sdf

> <i_m_source_file_index>
23

> <r_mmod_Potential_Energy-OPLS-2005>
247.668640136719

> <r_mmod_Stretch_Energy-OPLS-2005>
159.731414794922

> <r_mmod_Bend_Energy-OPLS-2005>
280.678497314453

> <r_mmod_Torsional_Energy-OPLS-2005>
231.421142578125

> <r_mmod_Improper_Torsional_Energy-OPLS-2005>
4.7162971496582

> <r_mmod_Van_der_Waal_Energy-OPLS-2005>
130.329360961914

> <r_mmod_Electrostatic_Energy-OPLS-2005>
-465.39599609375

> <r_mmod_Solvation_Energy-OPLS-2005>
-214.568725585938

> <b_mmod_Minimization_Converged-OPLS-2005>
0

> <r_mmod_RMS_Derivative-OPLS-2005>
6.09143209457397

$$$$
23
                    3D
 Structure written by MMmdl.
163171  0  0  1  0            999 V2000
  -30.7281  -14.5056   20.4984 C   0  0  0  0  0  0
  -30.4085  -12.3106   19.4407 C   0  0  0  0  0  0
  -29.4910  -12.4835   18.2134 C   0  0  0  0  0  0
  -28.0134  -12.3516   18.6279 C   0  0  0  0  0  0
  -27.6530  -13.2210   19.8630 C   0  0  2  0  0  0
  -28.6997  -13.0717   20.9912 C   0  0  0  0  0  0
  -25.2555  -13.8201   20.5699 C   0  0  0  0  0  0
  -24.1826  -13.0455   20.9211 C   0  0  0  0  0  0
  -24.6400  -11.6928   20.8760 C   0  0  0  0  0  0
  -23.9072  -10.4301   21.0412 C   0  0  0  0  0  0
  -24.3626   -9.4213   21.9189 C   0  0  0  0  0  0
  -23.6296   -8.2249   22.0756 C   0  0  0  0  0  0
  -22.4276   -8.0290   21.3548 C   0  0  0  0  0  0
  -21.9919   -9.0268   20.4649 C   0  0  0  0  0  0
  -22.7249  -10.2143   20.3060 C   0  0  0  0  0  0
  -21.6855   -6.0741   22.5280 C   0  0  0  0  0  0
  -21.4012   -6.5642   23.8214 C   0  0  0  0  0  0
  -21.3654   -5.6796   24.9177 C   0  0  0  0  0  0
  -21.6047   -4.3059   24.7228 C   0  0  0  0  0  0
  -21.8816   -3.8150   23.4347 C   0  0  0  0  0  0
  -21.9189   -4.6968   22.3403 C   0  0  0  0  0  0
  -22.7839  -13.5241   21.1865 C   0  0  0  0  0  0
  -22.1659   -4.2152   21.0980 F   0  0  0  0  0  0
  -21.5630   -3.4540   25.7737 F   0  0  0  0  0  0
  -30.0250  -13.3430   20.4185 N   0  0  0  0  0  0
  -26.2991  -12.9397   20.3346 N   0  0  0  0  0  0
  -25.9332  -11.6540   20.5789 N   0  0  0  0  0  0
  -22.0477  -12.8225   22.0411 N   0  0  0  0  0  0
  -25.4259  -15.1923   20.4088 N   0  0  0  0  0  0
  -31.9151  -14.5504   20.1764 O   0  0  0  0  0  0
  -21.6642   -6.8888   21.4242 O   0  0  0  0  0  0
  -22.3518  -14.5541   20.6707 O   0  0  0  0  0  0
  -24.6166  -31.8673   23.2100 C   0  0  0  0  0  0
  -25.9056  -32.4814   23.8395 C   0  0  1  0  0  0
  -27.2256  -27.4242   20.1060 C   0  0  0  0  0  0
  -25.5935  -33.8612   24.2332 N   0  0  0  0  0  0
  -23.4043  -30.4912   21.5502 C   0  0  2  0  0  0
  -24.8511  -28.9620   20.1087 C   0  0  0  0  0  0
  -22.7422  -29.4654   22.4985 C   0  0  0  0  0  0
  -18.0273  -28.1356   22.8471 C   0  0  0  0  0  0
  -24.1496  -36.7314   23.2639 C   0  0  0  0  0  0
  -25.9343  -30.8331   21.3640 C   0  0  0  0  0  0
  -26.0119  -29.4679   20.7086 C   0  0  0  0  0  0
  -27.2064  -28.7080   20.6998 C   0  0  0  0  0  0
  -26.0536  -26.9469   19.4801 C   0  0  0  0  0  0
  -24.8679  -27.7021   19.4876 C   0  0  0  0  0  0
  -23.6118  -29.8264   20.1632 C   0  0  0  0  0  0
  -25.4111  -36.3099   24.0339 C   0  0  1  0  0  0
  -20.5868  -28.3652   23.1304 C   0  0  2  0  0  0
  -20.6765  -26.9389   22.5408 C   0  0  0  0  0  0
  -19.5746  -26.6371   21.5194 C   0  0  0  0  0  0
  -18.1922  -26.7898   22.1606 C   0  0  0  0  0  0
  -19.1525  -28.8813   23.2881 C   0  0  0  0  0  0
  -18.9452  -30.1412   23.8906 C   0  0  0  0  0  0
  -17.6461  -30.6566   24.0546 C   0  0  0  0  0  0
  -25.9053  -34.9470   23.5124 C   0  0  0  0  0  0
  -16.5349  -29.9066   23.6314 C   0  0  0  0  0  0
  -16.7266  -28.6476   23.0344 C   0  0  0  0  0  0
  -26.4477  -31.6589   25.0718 C   0  0  0  0  0  0
  -25.3742  -31.3706   26.1460 C   0  0  0  0  0  0
  -27.0298  -30.3036   24.6081 C   0  0  0  0  0  0
  -27.6055  -32.4307   25.7483 C   0  0  0  0  0  0
  -27.5579  -37.1798   24.8455 C   0  0  0  0  0  0
  -21.4150  -29.3019   22.3711 N   0  0  0  0  0  0
  -26.4292  -37.3784   23.9410 N   0  0  0  0  0  0
  -24.6698  -31.0781   22.1001 N   0  0  0  0  0  0
  -23.4188  -28.8203   23.3037 O   0  0  0  0  0  0
  -28.3619  -26.6406   20.1341 O   0  0  0  0  0  0
  -26.5596  -34.8910   22.4674 O   0  0  0  0  0  0
  -23.5355  -32.1415   23.7507 O   0  0  0  0  0  0
  -31.4815  -17.3525   19.6892 C   0  0  0  0  0  0
  -31.9423  -18.6689   19.5453 C   0  0  0  0  0  0
  -31.2961  -19.7306   20.2224 C   0  0  0  0  0  0
  -30.0954  -19.4666   20.9572 C   0  0  0  0  0  0
  -29.6914  -18.0975   21.1476 C   0  0  0  0  0  0
  -30.4085  -17.0180   20.5460 C   0  0  0  0  0  0
  -28.6651  -22.8077   20.4732 C   0  0  0  0  0  0
  -33.1572  -18.8959   18.6546 C   0  0  0  0  0  0
  -31.9383  -21.1175   20.1612 C   0  0  0  0  0  0
  -28.4689  -17.7754   22.0076 C   0  0  0  0  0  0
  -29.2164  -20.5918   21.5820 C   0  0  0  0  0  0
  -29.1462  -24.2546   20.2148 C   0  0  0  0  0  0
  -28.1744  -25.3412   20.7414 C   0  0  0  0  0  0
  -30.0197  -15.6350   20.7591 N   0  0  0  0  0  0
  -29.4457  -22.0028   21.2166 N   0  0  0  0  0  0
  -27.6037  -22.4210   19.9808 O   0  0  0  0  0  0
  -31.4556  -12.3760   19.1389 H   0  0  0  0  0  0
  -30.2874  -11.3189   19.8785 H   0  0  0  0  0  0
  -29.7347  -11.7382   17.4552 H   0  0  0  0  0  0
  -29.6596  -13.4579   17.7522 H   0  0  0  0  0  0
  -27.8304  -11.2997   18.8499 H   0  0  0  0  0  0
  -27.3628  -12.6003   17.7888 H   0  0  0  0  0  0
  -27.6765  -14.2575   19.5265 H   0  0  0  0  0  0
  -28.6781  -12.0620   21.4039 H   0  0  0  0  0  0
  -28.4754  -13.7425   21.8220 H   0  0  0  0  0  0
  -25.2767   -9.5682   22.4770 H   0  0  0  0  0  0
  -24.0002   -7.4635   22.7471 H   0  0  0  0  0  0
  -21.0856   -8.8791   19.8954 H   0  0  0  0  0  0
  -22.3714  -10.9687   19.6174 H   0  0  0  0  0  0
  -21.2003   -7.6148   23.9719 H   0  0  0  0  0  0
  -21.1483   -6.0524   25.9079 H   0  0  0  0  0  0
  -22.0598   -2.7612   23.2848 H   0  0  0  0  0  0
  -22.4090  -11.9891   22.4802 H   0  0  0  0  0  0
  -21.1091  -13.1255   22.2613 H   0  0  0  0  0  0
  -24.6584  -15.8466   20.5146 H   0  0  0  0  0  0
  -26.2702  -15.6268   20.0579 H   0  0  0  0  0  0
  -26.7140  -32.5521   23.1176 H   0  0  0  0  0  0
  -25.0091  -33.9784   25.0480 H   0  0  0  0  0  0
  -22.6929  -31.3078   21.4126 H   0  0  0  0  0  0
  -23.3751  -35.9655   23.3299 H   0  0  0  0  0  0
  -24.3607  -36.8925   22.2054 H   0  0  0  0  0  0
  -23.7242  -37.6520   23.6653 H   0  0  0  0  0  0
  -26.0489  -31.6021   20.5991 H   0  0  0  0  0  0
  -26.8221  -30.8841   21.9815 H   0  0  0  0  0  0
  -28.1020  -29.0899   21.1694 H   0  0  0  0  0  0
  -26.0525  -25.9852   18.9871 H   0  0  0  0  0  0
  -23.9806  -27.3118   19.0102 H   0  0  0  0  0  0
  -23.7152  -30.6013   19.4030 H   0  0  0  0  0  0
  -22.7367  -29.2426   19.8711 H   0  0  0  0  0  0
  -25.1282  -36.1973   25.0831 H   0  0  0  0  0  0
  -20.9946  -28.3221   24.1428 H   0  0  0  0  0  0
  -20.5657  -26.2262   23.3598 H   0  0  0  0  0  0
  -21.6634  -26.7418   22.1208 H   0  0  0  0  0  0
  -19.6922  -25.6286   21.1216 H   0  0  0  0  0  0
  -19.6699  -27.3180   20.6721 H   0  0  0  0  0  0
  -17.4193  -26.6635   21.4010 H   0  0  0  0  0  0
  -18.0326  -26.0032   22.8993 H   0  0  0  0  0  0
  -19.7940  -30.7193   24.2309 H   0  0  0  0  0  0
  -17.5023  -31.6257   24.5121 H   0  0  0  0  0  0
  -15.5348  -30.2965   23.7628 H   0  0  0  0  0  0
  -15.8662  -28.0792   22.7066 H   0  0  0  0  0  0
  -24.5923  -30.7053   25.7792 H   0  0  0  0  0  0
  -24.8924  -32.2861   26.4900 H   0  0  0  0  0  0
  -25.8084  -30.8876   27.0222 H   0  0  0  0  0  0
  -26.2828  -29.6812   24.1138 H   0  0  0  0  0  0
  -27.4075  -29.7263   25.4532 H   0  0  0  0  0  0
  -27.8672  -30.4363   23.9225 H   0  0  0  0  0  0
  -27.2681  -33.3603   26.2084 H   0  0  0  0  0  0
  -28.3850  -32.6871   25.0297 H   0  0  0  0  0  0
  -28.0738  -31.8407   26.5371 H   0  0  0  0  0  0
  -28.2573  -38.0115   24.7511 H   0  0  0  0  0  0
  -28.1093  -36.2641   24.6268 H   0  0  0  0  0  0
  -27.2307  -37.1424   25.8861 H   0  0  0  0  0  0
  -20.9310  -29.8769   21.6958 H   0  0  0  0  0  0
  -26.0185  -38.2866   24.1415 H   0  0  0  0  0  0
  -32.0056  -16.5978   19.1268 H   0  0  0  0  0  0
  -33.3716  -18.0239   18.0359 H   0  0  0  0  0  0
  -34.0427  -19.0926   19.2600 H   0  0  0  0  0  0
  -32.9999  -19.7364   17.9781 H   0  0  0  0  0  0
  -32.9838  -21.1047   19.8606 H   0  0  0  0  0  0
  -31.9467  -21.5787   21.1483 H   0  0  0  0  0  0
  -31.4095  -21.7619   19.4590 H   0  0  0  0  0  0
  -28.3718  -18.4530   22.8547 H   0  0  0  0  0  0
  -28.5112  -16.7777   22.4416 H   0  0  0  0  0  0
  -27.5593  -17.8444   21.4098 H   0  0  0  0  0  0
  -29.3289  -20.5360   22.6649 H   0  0  0  0  0  0
  -28.1711  -20.3516   21.3813 H   0  0  0  0  0  0
  -29.2413  -24.3632   19.1345 H   0  0  0  0  0  0
  -30.1446  -24.4133   20.6247 H   0  0  0  0  0  0
  -28.3288  -25.4587   21.8145 H   0  0  0  0  0  0
  -27.1518  -24.9774   20.6425 H   0  0  0  0  0  0
  -29.0811  -15.4811   21.0895 H   0  0  0  0  0  0
  -30.2890  -22.4144   21.5912 H   0  0  0  0  0  0
  1 25  1  0  0  0
  1 30  2  0  0  0
  1 84  1  0  0  0
  2  3  1  0  0  0
  2 25  1  0  0  0
  2 87  1  0  0  0
  2 88  1  0  0  0
  3  4  1  0  0  0
  3 89  1  0  0  0
  3 90  1  0  0  0
  4  5  1  0  0  0
  4 91  1  0  0  0
  4 92  1  0  0  0
  5  6  1  0  0  0
  5 26  1  0  0  0
  5 93  1  0  0  0
  6 25  1  0  0  0
  6 94  1  0  0  0
  6 95  1  0  0  0
  7  8  2  0  0  0
  7 26  1  0  0  0
  7 29  1  0  0  0
  8  9  1  0  0  0
  8 22  1  0  0  0
  9 10  1  0  0  0
  9 27  2  0  0  0
 10 11  2  0  0  0
 10 15  1  0  0  0
 11 12  1  0  0  0
 11 96  1  0  0  0
 12 13  2  0  0  0
 12 97  1  0  0  0
 13 14  1  0  0  0
 13 31  1  0  0  0
 14 15  2  0  0  0
 14 98  1  0  0  0
 15 99  1  0  0  0
 16 17  2  0  0  0
 16 21  1  0  0  0
 16 31  1  0  0  0
 17 18  1  0  0  0
 17100  1  0  0  0
 18 19  2  0  0  0
 18101  1  0  0  0
 19 20  1  0  0  0
 19 24  1  0  0  0
 20 21  2  0  0  0
 20102  1  0  0  0
 21 23  1  0  0  0
 22 28  1  0  0  0
 22 32  2  0  0  0
 26 27  1  0  0  0
 28103  1  0  0  0
 28104  1  0  0  0
 29105  1  0  0  0
 29106  1  0  0  0
 33 34  1  0  0  0
 33 66  1  0  0  0
 33 70  2  0  0  0
 34 36  1  0  0  0
 34 59  1  0  0  0
 34107  1  0  0  0
 35 44  2  0  0  0
 35 45  1  0  0  0
 35 68  1  0  0  0
 36 56  1  0  0  0
 36108  1  0  0  0
 37 39  1  0  0  0
 37 47  1  0  0  0
 37 66  1  0  0  0
 37109  1  0  0  0
 38 43  2  0  0  0
 38 46  1  0  0  0
 38 47  1  0  0  0
 39 64  1  0  0  0
 39 67  2  0  0  0
 40 52  1  0  0  0
 40 53  2  0  0  0
 40 58  1  0  0  0
 41110  1  0  0  0
 41111  1  0  0  0
 41112  1  0  0  0
 41 48  1  0  0  0
 42 43  1  0  0  0
 42 66  1  0  0  0
 42113  1  0  0  0
 42114  1  0  0  0
 43 44  1  0  0  0
 44115  1  0  0  0
 45 46  2  0  0  0
 45116  1  0  0  0
 46117  1  0  0  0
 47118  1  0  0  0
 47119  1  0  0  0
 48 56  1  0  0  0
 48 65  1  0  0  0
 48120  1  0  0  0
 49 50  1  0  0  0
 49 53  1  0  0  0
 49 64  1  0  0  0
 49121  1  0  0  0
 50 51  1  0  0  0
 50122  1  0  0  0
 50123  1  0  0  0
 51 52  1  0  0  0
 51124  1  0  0  0
 51125  1  0  0  0
 52126  1  0  0  0
 52127  1  0  0  0
 53 54  1  0  0  0
 54 55  2  0  0  0
 54128  1  0  0  0
 55 57  1  0  0  0
 55129  1  0  0  0
 56 69  2  0  0  0
 57 58  2  0  0  0
 57130  1  0  0  0
 58131  1  0  0  0
 59 60  1  0  0  0
 59 61  1  0  0  0
 59 62  1  0  0  0
 60132  1  0  0  0
 60133  1  0  0  0
 60134  1  0  0  0
 61135  1  0  0  0
 61136  1  0  0  0
 61137  1  0  0  0
 62138  1  0  0  0
 62139  1  0  0  0
 62140  1  0  0  0
 63 65  1  0  0  0
 63141  1  0  0  0
 63142  1  0  0  0
 63143  1  0  0  0
 64144  1  0  0  0
 65145  1  0  0  0
 68 83  1  0  0  0
 71 72  2  0  0  0
 71 76  1  0  0  0
 71146  1  0  0  0
 72 73  1  0  0  0
 72 78  1  0  0  0
 73 74  2  0  0  0
 73 79  1  0  0  0
 74 75  1  0  0  0
 74 81  1  0  0  0
 75 76  2  0  0  0
 75 80  1  0  0  0
 76 84  1  0  0  0
 77 82  1  0  0  0
 77 85  1  0  0  0
 77 86  2  0  0  0
 78147  1  0  0  0
 78148  1  0  0  0
 78149  1  0  0  0
 79150  1  0  0  0
 79151  1  0  0  0
 79152  1  0  0  0
 80153  1  0  0  0
 80154  1  0  0  0
 80155  1  0  0  0
 81 85  1  0  0  0
 81156  1  0  0  0
 81157  1  0  0  0
 82 83  1  0  0  0
 82158  1  0  0  0
 82159  1  0  0  0
 83160  1  0  0  0
 83161  1  0  0  0
 84162  1  0  0  0
 85163  1  0  0  0
M  ISO  4   1 100  68 101  83 101  84 100
M  END
> <chiral flag>
0

> <version>
0

> <s_m_source_file>
/data/baiqing/PycharmProjects/Reinvent-master-3.2/result/LINK_invent/BTK/process_docking_weight1_custom_sum_contain_oxygen_bond_distance_aromatic_linkinvent_7_9_3/rearranged_h_0014.sdf

> <i_m_source_file_index>
24

> <r_mmod_Potential_Energy-OPLS-2005>
-94.054557800293

> <r_mmod_Stretch_Energy-OPLS-2005>
50.5737953186035

> <r_mmod_Bend_Energy-OPLS-2005>
109.072311401367

> <r_mmod_Torsional_Energy-OPLS-2005>
236.033874511719

> <r_mmod_Improper_Torsional_Energy-OPLS-2005>
4.3580174446106

> <r_mmod_Van_der_Waal_Energy-OPLS-2005>
181.899978637695

> <r_mmod_Electrostatic_Energy-OPLS-2005>
-467.582275390625

> <r_mmod_Solvation_Energy-OPLS-2005>
-232.788696289062

> <b_mmod_Minimization_Converged-OPLS-2005>
0

> <r_mmod_RMS_Derivative-OPLS-2005>
1.67745840549469

$$$$
24
                    3D
 Structure written by MMmdl.
154162  0  0  1  0            999 V2000
  -30.5896  -14.7548   20.5273 C   0  0  0  0  0  0
  -30.4499  -12.4724   19.4796 C   0  0  0  0  0  0
  -29.5183  -12.5314   18.2456 C   0  0  0  0  0  0
  -28.0449  -12.3460   18.6543 C   0  0  0  0  0  0
  -27.6543  -13.2266   19.8694 C   0  0  2  0  0  0
  -28.6968  -13.1158   21.0062 C   0  0  0  0  0  0
  -25.2492  -13.8102   20.5550 C   0  0  0  0  0  0
  -24.1812  -13.0390   20.9187 C   0  0  0  0  0  0
  -24.6417  -11.6877   20.8771 C   0  0  0  0  0  0
  -23.9079  -10.4267   21.0427 C   0  0  0  0  0  0
  -24.3619   -9.4180   21.9202 C   0  0  0  0  0  0
  -23.6289   -8.2219   22.0761 C   0  0  0  0  0  0
  -22.4275   -8.0266   21.3543 C   0  0  0  0  0  0
  -21.9917   -9.0246   20.4650 C   0  0  0  0  0  0
  -22.7252  -10.2122   20.3073 C   0  0  0  0  0  0
  -21.6845   -6.0731   22.5277 C   0  0  0  0  0  0
  -21.4009   -6.5640   23.8210 C   0  0  0  0  0  0
  -21.3658   -5.6795   24.9173 C   0  0  0  0  0  0
  -21.6043   -4.3057   24.7225 C   0  0  0  0  0  0
  -21.8819   -3.8147   23.4347 C   0  0  0  0  0  0
  -21.9191   -4.6961   22.3402 C   0  0  0  0  0  0
  -22.7839  -13.5195   21.1844 C   0  0  0  0  0  0
  -22.1664   -4.2152   21.0978 F   0  0  0  0  0  0
  -21.5631   -3.4542   25.7735 F   0  0  0  0  0  0
  -30.0090  -13.5010   20.4554 N   0  0  0  0  0  0
  -26.2999  -12.9353   20.3335 N   0  0  0  0  0  0
  -25.9367  -11.6502   20.5822 N   0  0  0  0  0  0
  -22.0488  -12.8205   22.0417 N   0  0  0  0  0  0
  -25.4032  -15.1764   20.3632 N   0  0  0  0  0  0
  -31.6905  -14.9531   20.0055 O   0  0  0  0  0  0
  -21.6632   -6.8871   21.4237 O   0  0  0  0  0  0
  -22.3529  -14.5506   20.6691 O   0  0  0  0  0  0
  -24.6341  -31.8542   23.1971 C   0  0  0  0  0  0
  -25.9152  -32.4751   23.8333 C   0  0  1  0  0  0
  -27.2289  -27.2446   20.1319 C   0  0  0  0  0  0
  -25.5933  -33.8550   24.2260 N   0  0  0  0  0  0
  -23.4330  -30.4770   21.5408 C   0  0  2  0  0  0
  -24.8828  -28.9231   20.1121 C   0  0  0  0  0  0
  -22.7525  -29.4599   22.4902 C   0  0  0  0  0  0
  -18.0296  -28.1386   22.8485 C   0  0  0  0  0  0
  -24.1487  -36.7280   23.2642 C   0  0  0  0  0  0
  -25.9816  -30.7628   21.3801 C   0  0  0  0  0  0
  -26.0566  -29.3836   20.7219 C   0  0  0  0  0  0
  -27.2318  -28.5589   20.7187 C   0  0  0  0  0  0
  -26.0262  -26.8607   19.4911 C   0  0  0  0  0  0
  -24.8742  -27.6694   19.4858 C   0  0  0  0  0  0
  -23.6538  -29.8116   20.1576 C   0  0  0  0  0  0
  -25.4113  -36.3069   24.0333 C   0  0  1  0  0  0
  -20.5903  -28.3704   23.1257 C   0  0  2  0  0  0
  -20.6777  -26.9415   22.5403 C   0  0  0  0  0  0
  -19.5746  -26.6379   21.5211 C   0  0  0  0  0  0
  -18.1931  -26.7926   22.1629 C   0  0  0  0  0  0
  -19.1552  -28.8860   23.2865 C   0  0  0  0  0  0
  -18.9470  -30.1458   23.8889 C   0  0  0  0  0  0
  -17.6467  -30.6583   24.0559 C   0  0  0  0  0  0
  -25.9054  -34.9438   23.5101 C   0  0  0  0  0  0
  -16.5358  -29.9081   23.6327 C   0  0  0  0  0  0
  -16.7282  -28.6498   23.0353 C   0  0  0  0  0  0
  -26.4507  -31.6575   25.0729 C   0  0  0  0  0  0
  -25.3714  -31.3739   26.1442 C   0  0  0  0  0  0
  -27.0361  -30.2987   24.6230 C   0  0  0  0  0  0
  -27.6059  -32.4317   25.7502 C   0  0  0  0  0  0
  -27.5579  -37.1798   24.8469 C   0  0  0  0  0  0
  -21.4227  -29.3052   22.3648 N   0  0  0  0  0  0
  -26.4290  -37.3767   23.9412 N   0  0  0  0  0  0
  -24.7020  -31.0500   22.0952 N   0  0  0  0  0  0
  -23.4215  -28.8137   23.3008 O   0  0  0  0  0  0
  -28.3162  -26.3286   20.1955 O   0  0  0  0  0  0
  -26.5629  -34.8916   22.4672 O   0  0  0  0  0  0
  -23.5482  -32.1364   23.7251 O   0  0  0  0  0  0
  -27.9577  -17.0617   21.3736 C   0  0  0  0  0  0
  -27.1619  -18.2187   21.3873 C   0  0  0  0  0  0
  -29.0689  -19.6282   20.6885 C   0  0  0  0  0  0
  -29.3145  -17.0676   21.0071 C   0  0  0  0  0  0
  -27.6901  -19.4777   21.0262 C   0  0  0  0  0  0
  -29.8679  -18.3847   20.6798 C   0  0  0  0  0  0
  -29.1410  -23.7382   20.3392 C   0  0  0  0  0  0
  -25.7135  -18.0933   21.8379 C   0  0  0  0  0  0
  -29.6839  -21.1008   20.4192 C   0  0  0  0  0  0
  -28.0163  -24.8516   20.0386 C   0  0  0  0  0  0
  -29.9242  -15.7261   21.2538 N   0  0  0  0  0  0
  -28.8421  -22.3818   20.2533 N   0  0  0  0  0  0
  -30.2804  -24.1064   20.6319 O   0  0  0  0  0  0
  -26.5750  -20.8081   21.0467 Cl  0  0  0  0  0  0
  -31.5554  -18.4938   20.3292 Cl  0  0  0  0  0  0
  -31.4863  -12.6222   19.1726 H   0  0  0  0  0  0
  -30.4193  -11.4820   19.9363 H   0  0  0  0  0  0
  -29.8021  -11.7660   17.5216 H   0  0  0  0  0  0
  -29.6387  -13.4900   17.7390 H   0  0  0  0  0  0
  -27.9005  -11.2934   18.8997 H   0  0  0  0  0  0
  -27.3877  -12.5537   17.8089 H   0  0  0  0  0  0
  -27.6632  -14.2583   19.5168 H   0  0  0  0  0  0
  -28.7346  -12.0961   21.3923 H   0  0  0  0  0  0
  -28.4072  -13.7380   21.8532 H   0  0  0  0  0  0
  -25.2761   -9.5653   22.4783 H   0  0  0  0  0  0
  -23.9991   -7.4610   22.7484 H   0  0  0  0  0  0
  -21.0847   -8.8771   19.8955 H   0  0  0  0  0  0
  -22.3714  -10.9667   19.6189 H   0  0  0  0  0  0
  -21.1999   -7.6149   23.9715 H   0  0  0  0  0  0
  -21.1483   -6.0525   25.9076 H   0  0  0  0  0  0
  -22.0598   -2.7610   23.2845 H   0  0  0  0  0  0
  -22.4101  -11.9857   22.4788 H   0  0  0  0  0  0
  -21.1117  -13.1248   22.2642 H   0  0  0  0  0  0
  -24.6102  -15.8042   20.4195 H   0  0  0  0  0  0
  -26.2218  -15.6057   19.9533 H   0  0  0  0  0  0
  -26.7226  -32.5409   23.1084 H   0  0  0  0  0  0
  -25.0070  -33.9676   25.0401 H   0  0  0  0  0  0
  -22.7309  -31.3000   21.3931 H   0  0  0  0  0  0
  -23.3753  -35.9609   23.3300 H   0  0  0  0  0  0
  -24.3578  -36.8904   22.2057 H   0  0  0  0  0  0
  -23.7236  -37.6480   23.6664 H   0  0  0  0  0  0
  -26.1208  -31.5214   20.6090 H   0  0  0  0  0  0
  -26.8582  -30.8142   22.0143 H   0  0  0  0  0  0
  -28.1288  -28.9070   21.2119 H   0  0  0  0  0  0
  -25.9355  -25.9062   18.9963 H   0  0  0  0  0  0
  -23.9763  -27.3100   19.0018 H   0  0  0  0  0  0
  -23.7811  -30.5873   19.4016 H   0  0  0  0  0  0
  -22.7724  -29.2457   19.8512 H   0  0  0  0  0  0
  -25.1293  -36.1917   25.0826 H   0  0  0  0  0  0
  -20.9996  -28.3278   24.1375 H   0  0  0  0  0  0
  -20.5659  -26.2318   23.3615 H   0  0  0  0  0  0
  -21.6647  -26.7414   22.1207 H   0  0  0  0  0  0
  -19.6901  -25.6286   21.1245 H   0  0  0  0  0  0
  -19.6675  -27.3186   20.6737 H   0  0  0  0  0  0
  -17.4196  -26.6671   21.4035 H   0  0  0  0  0  0
  -18.0332  -26.0070   22.9028 H   0  0  0  0  0  0
  -19.7946  -30.7274   24.2260 H   0  0  0  0  0  0
  -17.5019  -31.6261   24.5164 H   0  0  0  0  0  0
  -15.5357  -30.2979   23.7647 H   0  0  0  0  0  0
  -15.8687  -28.0808   22.7076 H   0  0  0  0  0  0
  -24.5894  -30.7085   25.7769 H   0  0  0  0  0  0
  -24.8896  -32.2911   26.4835 H   0  0  0  0  0  0
  -25.8010  -30.8936   27.0241 H   0  0  0  0  0  0
  -26.2957  -29.6732   24.1230 H   0  0  0  0  0  0
  -27.4018  -29.7256   25.4760 H   0  0  0  0  0  0
  -27.8844  -30.4266   23.9502 H   0  0  0  0  0  0
  -27.2673  -33.3631   26.2054 H   0  0  0  0  0  0
  -28.3881  -32.6853   25.0334 H   0  0  0  0  0  0
  -28.0715  -31.8454   26.5435 H   0  0  0  0  0  0
  -28.2599  -38.0092   24.7509 H   0  0  0  0  0  0
  -28.1070  -36.2623   24.6301 H   0  0  0  0  0  0
  -27.2297  -37.1459   25.8872 H   0  0  0  0  0  0
  -20.9418  -29.8797   21.6869 H   0  0  0  0  0  0
  -26.0171  -38.2846   24.1398 H   0  0  0  0  0  0
  -27.5054  -16.1361   21.6970 H   0  0  0  0  0  0
  -25.5205  -17.1276   22.3056 H   0  0  0  0  0  0
  -25.0407  -18.2010   20.9869 H   0  0  0  0  0  0
  -25.4597  -18.8536   22.5772 H   0  0  0  0  0  0
  -30.2995  -21.0228   19.5225 H   0  0  0  0  0  0
  -30.3875  -21.2869   21.2314 H   0  0  0  0  0  0
  -27.1625  -24.6066   20.6719 H   0  0  0  0  0  0
  -27.7095  -24.6746   19.0078 H   0  0  0  0  0  0
  -29.3212  -15.2105   21.8754 H   0  0  0  0  0  0
  -27.8681  -22.1905   20.0516 H   0  0  0  0  0  0
  1 25  1  0  0  0
  1 30  2  0  0  0
  1 81  1  0  0  0
  2  3  1  0  0  0
  2 25  1  0  0  0
  2 86  1  0  0  0
  2 87  1  0  0  0
  3  4  1  0  0  0
  3 88  1  0  0  0
  3 89  1  0  0  0
  4  5  1  0  0  0
  4 90  1  0  0  0
  4 91  1  0  0  0
  5  6  1  0  0  0
  5 26  1  0  0  0
  5 92  1  0  0  0
  6 25  1  0  0  0
  6 93  1  0  0  0
  6 94  1  0  0  0
  7  8  2  0  0  0
  7 26  1  0  0  0
  7 29  1  0  0  0
  8  9  1  0  0  0
  8 22  1  0  0  0
  9 10  1  0  0  0
  9 27  2  0  0  0
 10 11  2  0  0  0
 10 15  1  0  0  0
 11 12  1  0  0  0
 11 95  1  0  0  0
 12 13  2  0  0  0
 12 96  1  0  0  0
 13 14  1  0  0  0
 13 31  1  0  0  0
 14 15  2  0  0  0
 14 97  1  0  0  0
 15 98  1  0  0  0
 16 17  2  0  0  0
 16 21  1  0  0  0
 16 31  1  0  0  0
 17 18  1  0  0  0
 17 99  1  0  0  0
 18 19  2  0  0  0
 18100  1  0  0  0
 19 20  1  0  0  0
 19 24  1  0  0  0
 20 21  2  0  0  0
 20101  1  0  0  0
 21 23  1  0  0  0
 22 28  1  0  0  0
 22 32  2  0  0  0
 26 27  1  0  0  0
 28102  1  0  0  0
 28103  1  0  0  0
 29104  1  0  0  0
 29105  1  0  0  0
 33 34  1  0  0  0
 33 66  1  0  0  0
 33 70  2  0  0  0
 34 36  1  0  0  0
 34 59  1  0  0  0
 34106  1  0  0  0
 35 44  2  0  0  0
 35 45  1  0  0  0
 35 68  1  0  0  0
 36 56  1  0  0  0
 36107  1  0  0  0
 37 39  1  0  0  0
 37 47  1  0  0  0
 37 66  1  0  0  0
 37108  1  0  0  0
 38 43  2  0  0  0
 38 46  1  0  0  0
 38 47  1  0  0  0
 39 64  1  0  0  0
 39 67  2  0  0  0
 40 52  1  0  0  0
 40 53  2  0  0  0
 40 58  1  0  0  0
 41109  1  0  0  0
 41110  1  0  0  0
 41111  1  0  0  0
 41 48  1  0  0  0
 42 43  1  0  0  0
 42 66  1  0  0  0
 42112  1  0  0  0
 42113  1  0  0  0
 43 44  1  0  0  0
 44114  1  0  0  0
 45 46  2  0  0  0
 45115  1  0  0  0
 46116  1  0  0  0
 47117  1  0  0  0
 47118  1  0  0  0
 48 56  1  0  0  0
 48 65  1  0  0  0
 48119  1  0  0  0
 49 50  1  0  0  0
 49 53  1  0  0  0
 49 64  1  0  0  0
 49120  1  0  0  0
 50 51  1  0  0  0
 50121  1  0  0  0
 50122  1  0  0  0
 51 52  1  0  0  0
 51123  1  0  0  0
 51124  1  0  0  0
 52125  1  0  0  0
 52126  1  0  0  0
 53 54  1  0  0  0
 54 55  2  0  0  0
 54127  1  0  0  0
 55 57  1  0  0  0
 55128  1  0  0  0
 56 69  2  0  0  0
 57 58  2  0  0  0
 57129  1  0  0  0
 58130  1  0  0  0
 59 60  1  0  0  0
 59 61  1  0  0  0
 59 62  1  0  0  0
 60131  1  0  0  0
 60132  1  0  0  0
 60133  1  0  0  0
 61134  1  0  0  0
 61135  1  0  0  0
 61136  1  0  0  0
 62137  1  0  0  0
 62138  1  0  0  0
 62139  1  0  0  0
 63 65  1  0  0  0
 63140  1  0  0  0
 63141  1  0  0  0
 63142  1  0  0  0
 64143  1  0  0  0
 65144  1  0  0  0
 68 80  1  0  0  0
 71 72  2  0  0  0
 71 74  1  0  0  0
 71145  1  0  0  0
 72 75  1  0  0  0
 72 78  1  0  0  0
 73 75  2  0  0  0
 73 76  1  0  0  0
 73 79  1  0  0  0
 74 76  2  0  0  0
 74 81  1  0  0  0
 75 84  1  0  0  0
 76 85  1  0  0  0
 77 80  1  0  0  0
 77 82  1  0  0  0
 77 83  2  0  0  0
 78146  1  0  0  0
 78147  1  0  0  0
 78148  1  0  0  0
 79 82  1  0  0  0
 79149  1  0  0  0
 79150  1  0  0  0
 80151  1  0  0  0
 80152  1  0  0  0
 81153  1  0  0  0
 82154  1  0  0  0
M  ISO  4   1 100  68 101  80 101  81 100
M  END
> <chiral flag>
0

> <version>
0

> <s_m_source_file>
/data/baiqing/PycharmProjects/Reinvent-master-3.2/result/LINK_invent/BTK/process_docking_weight1_custom_sum_contain_oxygen_bond_distance_aromatic_linkinvent_7_9_3/rearranged_h_0014.sdf

> <i_m_source_file_index>
25

> <r_mmod_Potential_Energy-OPLS-2005>
170.904769897461

> <r_mmod_Stretch_Energy-OPLS-2005>
147.138198852539

> <r_mmod_Bend_Energy-OPLS-2005>
213.049514770508

> <r_mmod_Torsional_Energy-OPLS-2005>
233.076934814453

> <r_mmod_Improper_Torsional_Energy-OPLS-2005>
7.80666208267212

> <r_mmod_Van_der_Waal_Energy-OPLS-2005>
143.932510375977

> <r_mmod_Electrostatic_Energy-OPLS-2005>
-417.063232421875

> <r_mmod_Solvation_Energy-OPLS-2005>
-250.244659423828

> <b_mmod_Minimization_Converged-OPLS-2005>
0

> <r_mmod_RMS_Derivative-OPLS-2005>
0.870290219783783

$$$$
25
                    3D
 Structure written by MMmdl.
157165  0  0  1  0            999 V2000
  -30.6577  -14.7977   20.5035 C   0  0  0  0  0  0
  -30.4251  -12.5147   19.4734 C   0  0  0  0  0  0
  -29.5029  -12.5342   18.2395 C   0  0  0  0  0  0
  -28.0296  -12.3648   18.6527 C   0  0  0  0  0  0
  -27.6435  -13.2567   19.8636 C   0  0  2  0  0  0
  -28.6937  -13.2077   20.9985 C   0  0  0  0  0  0
  -25.2493  -13.8240   20.5773 C   0  0  0  0  0  0
  -24.1791  -13.0458   20.9248 C   0  0  0  0  0  0
  -24.6405  -11.6947   20.8755 C   0  0  0  0  0  0
  -23.9084  -10.4303   21.0378 C   0  0  0  0  0  0
  -24.3636   -9.4221   21.9153 C   0  0  0  0  0  0
  -23.6317   -8.2247   22.0717 C   0  0  0  0  0  0
  -22.4292   -8.0269   21.3522 C   0  0  0  0  0  0
  -21.9926   -9.0235   20.4616 C   0  0  0  0  0  0
  -22.7251  -10.2121   20.3026 C   0  0  0  0  0  0
  -21.6878   -6.0718   22.5269 C   0  0  0  0  0  0
  -21.4019   -6.5630   23.8194 C   0  0  0  0  0  0
  -21.3663   -5.6785   24.9162 C   0  0  0  0  0  0
  -21.6049   -4.3051   24.7222 C   0  0  0  0  0  0
  -21.8826   -3.8129   23.4351 C   0  0  0  0  0  0
  -21.9208   -4.6937   22.3402 C   0  0  0  0  0  0
  -22.7790  -13.5188   21.1903 C   0  0  0  0  0  0
  -22.1672   -4.2109   21.0982 F   0  0  0  0  0  0
  -21.5646   -3.4550   25.7747 F   0  0  0  0  0  0
  -29.9885  -13.5831   20.4166 N   0  0  0  0  0  0
  -26.2964  -12.9508   20.3405 N   0  0  0  0  0  0
  -25.9364  -11.6617   20.5835 N   0  0  0  0  0  0
  -22.0467  -12.8118   22.0444 N   0  0  0  0  0  0
  -25.4181  -15.1949   20.4155 N   0  0  0  0  0  0
  -31.7681  -14.8780   19.9649 O   0  0  0  0  0  0
  -21.6659   -6.8864   21.4229 O   0  0  0  0  0  0
  -22.3443  -14.5488   20.6775 O   0  0  0  0  0  0
  -24.6342  -31.8461   23.1912 C   0  0  0  0  0  0
  -25.9138  -32.4693   23.8300 C   0  0  1  0  0  0
  -27.2386  -27.2137   20.1292 C   0  0  0  0  0  0
  -25.5865  -33.8508   24.2177 N   0  0  0  0  0  0
  -23.4362  -30.4628   21.5329 C   0  0  2  0  0  0
  -24.8894  -28.8977   20.0986 C   0  0  0  0  0  0
  -22.7501  -29.4575   22.4875 C   0  0  0  0  0  0
  -18.0321  -28.1391   22.8506 C   0  0  0  0  0  0
  -24.1475  -36.7274   23.2659 C   0  0  0  0  0  0
  -25.9830  -30.7415   21.3812 C   0  0  0  0  0  0
  -26.0544  -29.3590   20.7213 C   0  0  0  0  0  0
  -27.2245  -28.5274   20.7283 C   0  0  0  0  0  0
  -26.0549  -26.8304   19.4667 C   0  0  0  0  0  0
  -24.8994  -27.6474   19.4565 C   0  0  0  0  0  0
  -23.6541  -29.7836   20.1514 C   0  0  0  0  0  0
  -25.4111  -36.3039   24.0314 C   0  0  1  0  0  0
  -20.5908  -28.3720   23.1246 C   0  0  2  0  0  0
  -20.6786  -26.9405   22.5417 C   0  0  0  0  0  0
  -19.5745  -26.6357   21.5236 C   0  0  0  0  0  0
  -18.1949  -26.7937   22.1633 C   0  0  0  0  0  0
  -19.1568  -28.8858   23.2877 C   0  0  0  0  0  0
  -18.9460  -30.1463   23.8888 C   0  0  0  0  0  0
  -17.6460  -30.6568   24.0585 C   0  0  0  0  0  0
  -25.9048  -34.9398   23.5075 C   0  0  0  0  0  0
  -16.5357  -29.9062   23.6327 C   0  0  0  0  0  0
  -16.7306  -28.6497   23.0376 C   0  0  0  0  0  0
  -26.4488  -31.6588   25.0754 C   0  0  0  0  0  0
  -25.3682  -31.3771   26.1458 C   0  0  0  0  0  0
  -27.0336  -30.2980   24.6328 C   0  0  0  0  0  0
  -27.6001  -32.4399   25.7528 C   0  0  0  0  0  0
  -27.5555  -37.1788   24.8459 C   0  0  0  0  0  0
  -21.4210  -29.3048   22.3601 N   0  0  0  0  0  0
  -26.4266  -37.3752   23.9394 N   0  0  0  0  0  0
  -24.7035  -31.0386   22.0895 N   0  0  0  0  0  0
  -23.4172  -28.8149   23.3043 O   0  0  0  0  0  0
  -28.3314  -26.3123   20.2794 O   0  0  0  0  0  0
  -26.5702  -34.8885   22.4688 O   0  0  0  0  0  0
  -23.5477  -32.1284   23.7163 O   0  0  0  0  0  0
  -27.9196  -19.5690   21.5047 C   0  0  0  0  0  0
  -28.3227  -17.1920   22.0045 C   0  0  0  0  0  0
  -27.5819  -18.3799   22.1868 C   0  0  0  0  0  0
  -29.0005  -19.6232   20.6047 C   0  0  0  0  0  0
  -29.4389  -17.1094   21.1435 C   0  0  0  0  0  0
  -29.7670  -18.3656   20.4439 C   0  0  0  0  0  0
  -28.2128  -23.5226   20.0910 C   0  0  0  0  0  0
  -26.4017  -18.3775   23.1406 C   0  0  0  0  0  0
  -31.1281  -15.9588   22.5070 C   0  0  0  0  0  0
  -29.1324  -20.9870   19.7350 C   0  0  0  0  0  0
  -28.5859  -25.0141   19.5287 C   0  0  0  0  0  0
  -29.1421  -22.4759   20.2045 N   0  0  0  0  0  0
  -30.2412  -15.8447   21.3396 N   0  0  0  0  0  0
  -27.0209  -23.2793   20.2856 O   0  0  0  0  0  0
  -31.1475  -18.3680   19.4064 Cl  0  0  0  0  0  0
  -31.4612  -12.6343   19.1507 H   0  0  0  0  0  0
  -30.3935  -11.5407   19.9623 H   0  0  0  0  0  0
  -29.7885  -11.7401   17.5489 H   0  0  0  0  0  0
  -29.6328  -13.4731   17.6965 H   0  0  0  0  0  0
  -27.8779  -11.3169   18.9113 H   0  0  0  0  0  0
  -27.3715  -12.5707   17.8082 H   0  0  0  0  0  0
  -27.6347  -14.2825   19.4940 H   0  0  0  0  0  0
  -28.7473  -12.2077   21.4332 H   0  0  0  0  0  0
  -28.4247  -13.8822   21.8119 H   0  0  0  0  0  0
  -25.2769   -9.5709   22.4748 H   0  0  0  0  0  0
  -24.0036   -7.4642   22.7430 H   0  0  0  0  0  0
  -21.0858   -8.8742   19.8924 H   0  0  0  0  0  0
  -22.3682  -10.9659   19.6150 H   0  0  0  0  0  0
  -21.1987   -7.6135   23.9695 H   0  0  0  0  0  0
  -21.1502   -6.0517   25.9072 H   0  0  0  0  0  0
  -22.0606   -2.7586   23.2876 H   0  0  0  0  0  0
  -22.4110  -11.9769   22.4795 H   0  0  0  0  0  0
  -21.1062  -13.1043   22.2657 H   0  0  0  0  0  0
  -24.6541  -15.8556   20.5113 H   0  0  0  0  0  0
  -26.2796  -15.6284   20.1093 H   0  0  0  0  0  0
  -26.7206  -32.5307   23.1032 H   0  0  0  0  0  0
  -24.9834  -33.9609   25.0198 H   0  0  0  0  0  0
  -22.7360  -31.2872   21.3841 H   0  0  0  0  0  0
  -23.3707  -35.9635   23.3324 H   0  0  0  0  0  0
  -24.3553  -36.8900   22.2072 H   0  0  0  0  0  0
  -23.7237  -37.6471   23.6716 H   0  0  0  0  0  0
  -26.1346  -31.4998   20.6134 H   0  0  0  0  0  0
  -26.8532  -30.7878   22.0263 H   0  0  0  0  0  0
  -28.1129  -28.8710   21.2415 H   0  0  0  0  0  0
  -25.9976  -25.8654   18.9871 H   0  0  0  0  0  0
  -24.0111  -27.2935   18.9511 H   0  0  0  0  0  0
  -23.7597  -30.5520   19.3854 H   0  0  0  0  0  0
  -22.7752  -29.2051   19.8611 H   0  0  0  0  0  0
  -25.1295  -36.1880   25.0805 H   0  0  0  0  0  0
  -21.0009  -28.3286   24.1349 H   0  0  0  0  0  0
  -20.5701  -26.2345   23.3656 H   0  0  0  0  0  0
  -21.6640  -26.7403   22.1207 H   0  0  0  0  0  0
  -19.6858  -25.6275   21.1273 H   0  0  0  0  0  0
  -19.6677  -27.3154   20.6753 H   0  0  0  0  0  0
  -17.4214  -26.6714   21.4026 H   0  0  0  0  0  0
  -18.0303  -26.0080   22.9022 H   0  0  0  0  0  0
  -19.7946  -30.7297   24.2193 H   0  0  0  0  0  0
  -17.5007  -31.6230   24.5241 H   0  0  0  0  0  0
  -15.5359  -30.2993   23.7634 H   0  0  0  0  0  0
  -15.8707  -28.0813   22.7099 H   0  0  0  0  0  0
  -24.5863  -30.7113   25.7788 H   0  0  0  0  0  0
  -24.8849  -32.2948   26.4844 H   0  0  0  0  0  0
  -25.7967  -30.8981   27.0271 H   0  0  0  0  0  0
  -26.2932  -29.6734   24.1300 H   0  0  0  0  0  0
  -27.3898  -29.7283   25.4919 H   0  0  0  0  0  0
  -27.8887  -30.4211   23.9667 H   0  0  0  0  0  0
  -27.2559  -33.3717   26.2054 H   0  0  0  0  0  0
  -28.3835  -32.6936   25.0373 H   0  0  0  0  0  0
  -28.0668  -31.8576   26.5488 H   0  0  0  0  0  0
  -28.2588  -38.0066   24.7471 H   0  0  0  0  0  0
  -28.1024  -36.2586   24.6330 H   0  0  0  0  0  0
  -27.2274  -37.1502   25.8863 H   0  0  0  0  0  0
  -20.9453  -29.8709   21.6708 H   0  0  0  0  0  0
  -26.0131  -38.2817   24.1392 H   0  0  0  0  0  0
  -27.3116  -20.4522   21.6427 H   0  0  0  0  0  0
  -28.0608  -16.3257   22.5981 H   0  0  0  0  0  0
  -25.5411  -18.8802   22.6989 H   0  0  0  0  0  0
  -26.6546  -18.8868   24.0714 H   0  0  0  0  0  0
  -26.1033  -17.3608   23.3932 H   0  0  0  0  0  0
  -31.5679  -15.0038   22.8059 H   0  0  0  0  0  0
  -31.9529  -16.6407   22.2892 H   0  0  0  0  0  0
  -30.6022  -16.3438   23.3815 H   0  0  0  0  0  0
  -28.3179  -20.9253   19.0123 H   0  0  0  0  0  0
  -30.0288  -20.8769   19.1246 H   0  0  0  0  0  0
  -28.1478  -25.0968   18.5333 H   0  0  0  0  0  0
  -29.6600  -25.0108   19.3407 H   0  0  0  0  0  0
  -30.0890  -22.8325   20.2218 H   0  0  0  0  0  0
  1 25  1  0  0  0
  1 30  2  0  0  0
  1 83  1  0  0  0
  2  3  1  0  0  0
  2 25  1  0  0  0
  2 86  1  0  0  0
  2 87  1  0  0  0
  3  4  1  0  0  0
  3 88  1  0  0  0
  3 89  1  0  0  0
  4  5  1  0  0  0
  4 90  1  0  0  0
  4 91  1  0  0  0
  5  6  1  0  0  0
  5 26  1  0  0  0
  5 92  1  0  0  0
  6 25  1  0  0  0
  6 93  1  0  0  0
  6 94  1  0  0  0
  7  8  2  0  0  0
  7 26  1  0  0  0
  7 29  1  0  0  0
  8  9  1  0  0  0
  8 22  1  0  0  0
  9 10  1  0  0  0
  9 27  2  0  0  0
 10 11  2  0  0  0
 10 15  1  0  0  0
 11 12  1  0  0  0
 11 95  1  0  0  0
 12 13  2  0  0  0
 12 96  1  0  0  0
 13 14  1  0  0  0
 13 31  1  0  0  0
 14 15  2  0  0  0
 14 97  1  0  0  0
 15 98  1  0  0  0
 16 17  2  0  0  0
 16 21  1  0  0  0
 16 31  1  0  0  0
 17 18  1  0  0  0
 17 99  1  0  0  0
 18 19  2  0  0  0
 18100  1  0  0  0
 19 20  1  0  0  0
 19 24  1  0  0  0
 20 21  2  0  0  0
 20101  1  0  0  0
 21 23  1  0  0  0
 22 28  1  0  0  0
 22 32  2  0  0  0
 26 27  1  0  0  0
 28102  1  0  0  0
 28103  1  0  0  0
 29104  1  0  0  0
 29105  1  0  0  0
 33 34  1  0  0  0
 33 66  1  0  0  0
 33 70  2  0  0  0
 34 36  1  0  0  0
 34 59  1  0  0  0
 34106  1  0  0  0
 35 44  2  0  0  0
 35 45  1  0  0  0
 35 68  1  0  0  0
 36 56  1  0  0  0
 36107  1  0  0  0
 37 39  1  0  0  0
 37 47  1  0  0  0
 37 66  1  0  0  0
 37108  1  0  0  0
 38 43  2  0  0  0
 38 46  1  0  0  0
 38 47  1  0  0  0
 39 64  1  0  0  0
 39 67  2  0  0  0
 40 52  1  0  0  0
 40 53  2  0  0  0
 40 58  1  0  0  0
 41109  1  0  0  0
 41110  1  0  0  0
 41111  1  0  0  0
 41 48  1  0  0  0
 42 43  1  0  0  0
 42 66  1  0  0  0
 42112  1  0  0  0
 42113  1  0  0  0
 43 44  1  0  0  0
 44114  1  0  0  0
 45 46  2  0  0  0
 45115  1  0  0  0
 46116  1  0  0  0
 47117  1  0  0  0
 47118  1  0  0  0
 48 56  1  0  0  0
 48 65  1  0  0  0
 48119  1  0  0  0
 49 50  1  0  0  0
 49 53  1  0  0  0
 49 64  1  0  0  0
 49120  1  0  0  0
 50 51  1  0  0  0
 50121  1  0  0  0
 50122  1  0  0  0
 51 52  1  0  0  0
 51123  1  0  0  0
 51124  1  0  0  0
 52125  1  0  0  0
 52126  1  0  0  0
 53 54  1  0  0  0
 54 55  2  0  0  0
 54127  1  0  0  0
 55 57  1  0  0  0
 55128  1  0  0  0
 56 69  2  0  0  0
 57 58  2  0  0  0
 57129  1  0  0  0
 58130  1  0  0  0
 59 60  1  0  0  0
 59 61  1  0  0  0
 59 62  1  0  0  0
 60131  1  0  0  0
 60132  1  0  0  0
 60133  1  0  0  0
 61134  1  0  0  0
 61135  1  0  0  0
 61136  1  0  0  0
 62137  1  0  0  0
 62138  1  0  0  0
 62139  1  0  0  0
 63 65  1  0  0  0
 63140  1  0  0  0
 63141  1  0  0  0
 63142  1  0  0  0
 64143  1  0  0  0
 65144  1  0  0  0
 68 81  1  0  0  0
 71 73  2  0  0  0
 71 74  1  0  0  0
 71145  1  0  0  0
 72 73  1  0  0  0
 72 75  2  0  0  0
 72146  1  0  0  0
 73 78  1  0  0  0
 74 76  2  0  0  0
 74 80  1  0  0  0
 75 76  1  0  0  0
 75 83  1  0  0  0
 76 85  1  0  0  0
 77 81  1  0  0  0
 77 82  1  0  0  0
 77 84  2  0  0  0
 78147  1  0  0  0
 78148  1  0  0  0
 78149  1  0  0  0
 79 83  1  0  0  0
 79150  1  0  0  0
 79151  1  0  0  0
 79152  1  0  0  0
 80 82  1  0  0  0
 80153  1  0  0  0
 80154  1  0  0  0
 81155  1  0  0  0
 81156  1  0  0  0
 82157  1  0  0  0
M  ISO  4   1 100  68 101  81 101  83 100
M  END
> <chiral flag>
0

> <version>
0

> <s_m_source_file>
/data/baiqing/PycharmProjects/Reinvent-master-3.2/result/LINK_invent/BTK/process_docking_weight1_custom_sum_contain_oxygen_bond_distance_aromatic_linkinvent_7_9_3/rearranged_h_0014.sdf

> <i_m_source_file_index>
26

> <r_mmod_Potential_Energy-OPLS-2005>
468.896240234375

> <r_mmod_Stretch_Energy-OPLS-2005>
182.090576171875

> <r_mmod_Bend_Energy-OPLS-2005>
281.356140136719

> <r_mmod_Torsional_Energy-OPLS-2005>
327.3935546875

> <r_mmod_Improper_Torsional_Energy-OPLS-2005>
13.1404781341553

> <r_mmod_Van_der_Waal_Energy-OPLS-2005>
119.721328735352

> <r_mmod_Electrostatic_Energy-OPLS-2005>
-343.152496337891

> <r_mmod_Solvation_Energy-OPLS-2005>
-225.664443969727

> <b_mmod_Minimization_Converged-OPLS-2005>
0

> <r_mmod_RMS_Derivative-OPLS-2005>
4.45725440979004

$$$$
26
                    3D
 Structure written by MMmdl.
159167  0  0  1  0            999 V2000
  -30.6994  -14.5362   20.4894 C   0  0  0  0  0  0
  -30.4071  -12.3242   19.4476 C   0  0  0  0  0  0
  -29.4916  -12.4863   18.2171 C   0  0  0  0  0  0
  -28.0133  -12.3500   18.6281 C   0  0  0  0  0  0
  -27.6494  -13.2202   19.8613 C   0  0  2  0  0  0
  -28.6928  -13.0778   20.9922 C   0  0  0  0  0  0
  -25.2533  -13.8193   20.5678 C   0  0  0  0  0  0
  -24.1813  -13.0446   20.9184 C   0  0  0  0  0  0
  -24.6393  -11.6918   20.8751 C   0  0  0  0  0  0
  -23.9073  -10.4297   21.0410 C   0  0  0  0  0  0
  -24.3629   -9.4204   21.9180 C   0  0  0  0  0  0
  -23.6304   -8.2241   22.0749 C   0  0  0  0  0  0
  -22.4285   -8.0287   21.3542 C   0  0  0  0  0  0
  -21.9924   -9.0255   20.4637 C   0  0  0  0  0  0
  -22.7253  -10.2134   20.3050 C   0  0  0  0  0  0
  -21.6849   -6.0746   22.5276 C   0  0  0  0  0  0
  -21.4014   -6.5644   23.8212 C   0  0  0  0  0  0
  -21.3661   -5.6789   24.9173 C   0  0  0  0  0  0
  -21.6044   -4.3054   24.7216 C   0  0  0  0  0  0
  -21.8821   -3.8153   23.4333 C   0  0  0  0  0  0
  -21.9191   -4.6974   22.3394 C   0  0  0  0  0  0
  -22.7832  -13.5219   21.1856 C   0  0  0  0  0  0
  -22.1657   -4.2163   21.0971 F   0  0  0  0  0  0
  -21.5633   -3.4534   25.7725 F   0  0  0  0  0  0
  -30.0154  -13.3598   20.4208 N   0  0  0  0  0  0
  -26.2966  -12.9383   20.3331 N   0  0  0  0  0  0
  -25.9318  -11.6532   20.5776 N   0  0  0  0  0  0
  -22.0501  -12.8191   22.0413 N   0  0  0  0  0  0
  -25.4251  -15.1914   20.4085 N   0  0  0  0  0  0
  -31.8858  -14.5923   20.1660 O   0  0  0  0  0  0
  -21.6640   -6.8892   21.4240 O   0  0  0  0  0  0
  -22.3504  -14.5524   20.6712 O   0  0  0  0  0  0
  -24.6175  -31.8639   23.2090 C   0  0  0  0  0  0
  -25.9053  -32.4793   23.8395 C   0  0  1  0  0  0
  -27.2308  -27.3951   20.1042 C   0  0  0  0  0  0
  -25.5864  -33.8590   24.2306 N   0  0  0  0  0  0
  -23.4082  -30.4893   21.5481 C   0  0  2  0  0  0
  -24.8541  -28.9519   20.1118 C   0  0  0  0  0  0
  -22.7450  -29.4643   22.4958 C   0  0  0  0  0  0
  -18.0301  -28.1378   22.8509 C   0  0  0  0  0  0
  -24.1483  -36.7336   23.2642 C   0  0  0  0  0  0
  -25.9411  -30.8192   21.3683 C   0  0  0  0  0  0
  -26.0156  -29.4518   20.7119 C   0  0  0  0  0  0
  -27.2044  -28.6803   20.7047 C   0  0  0  0  0  0
  -26.0474  -26.9215   19.4918 C   0  0  0  0  0  0
  -24.8665  -27.6880   19.4986 C   0  0  0  0  0  0
  -23.6200  -29.8254   20.1612 C   0  0  0  0  0  0
  -25.4098  -36.3096   24.0328 C   0  0  1  0  0  0
  -20.5896  -28.3662   23.1316 C   0  0  2  0  0  0
  -20.6791  -26.9391   22.5426 C   0  0  0  0  0  0
  -19.5763  -26.6392   21.5219 C   0  0  0  0  0  0
  -18.1944  -26.7935   22.1636 C   0  0  0  0  0  0
  -19.1554  -28.8834   23.2913 C   0  0  0  0  0  0
  -18.9482  -30.1444   23.8915 C   0  0  0  0  0  0
  -17.6484  -30.6592   24.0569 C   0  0  0  0  0  0
  -25.9031  -34.9455   23.5133 C   0  0  0  0  0  0
  -16.5372  -29.9096   23.6324 C   0  0  0  0  0  0
  -16.7292  -28.6511   23.0351 C   0  0  0  0  0  0
  -26.4470  -31.6580   25.0743 C   0  0  0  0  0  0
  -25.3728  -31.3672   26.1489 C   0  0  0  0  0  0
  -27.0298  -30.3013   24.6131 C   0  0  0  0  0  0
  -27.6053  -32.4274   25.7521 C   0  0  0  0  0  0
  -27.5578  -37.1812   24.8459 C   0  0  0  0  0  0
  -21.4175  -29.3022   22.3706 N   0  0  0  0  0  0
  -26.4288  -37.3771   23.9401 N   0  0  0  0  0  0
  -24.6734  -31.0731   22.0994 N   0  0  0  0  0  0
  -23.4216  -28.8181   23.2998 O   0  0  0  0  0  0
  -28.3972  -26.6452   20.1622 O   0  0  0  0  0  0
  -26.5639  -34.8915   22.4720 O   0  0  0  0  0  0
  -23.5356  -32.1387   23.7469 O   0  0  0  0  0  0
  -31.4216  -17.4121   19.6607 C   0  0  0  0  0  0
  -31.7772  -18.7550   19.4463 C   0  0  0  0  0  0
  -29.8485  -19.4951   20.7728 C   0  0  0  0  0  0
  -30.3150  -17.0517   20.4694 C   0  0  0  0  0  0
  -31.0084  -19.7920   20.0115 C   0  0  0  0  0  0
  -29.5147  -18.1143   20.9969 C   0  0  0  0  0  0
  -33.0146  -19.0712   18.6214 C   0  0  0  0  0  0
  -29.0727  -20.6680   21.4354 C   0  0  0  0  0  0
  -27.6310  -24.2012   20.4309 C   0  0  0  0  0  0
  -28.4016  -23.1002   21.2404 C   0  0  0  0  0  0
  -28.4511  -25.2866   19.6570 C   0  0  0  0  0  0
  -29.9737  -15.6618   20.7379 N   0  0  0  0  0  0
  -28.6382  -21.7933   20.5421 N   0  3  0  0  0  0
  -31.5246  -21.4303   19.7691 Cl  0  0  0  0  0  0
  -28.1344  -17.6878   21.9528 Cl  0  0  0  0  0  0
  -31.4547  -12.3941   19.1501 H   0  0  0  0  0  0
  -30.2893  -11.3321   19.8860 H   0  0  0  0  0  0
  -29.7373  -11.7405   17.4596 H   0  0  0  0  0  0
  -29.6567  -13.4604   17.7542 H   0  0  0  0  0  0
  -27.8300  -11.2977   18.8498 H   0  0  0  0  0  0
  -27.3638  -12.5976   17.7878 H   0  0  0  0  0  0
  -27.6698  -14.2557   19.5209 H   0  0  0  0  0  0
  -28.6748  -12.0694   21.4075 H   0  0  0  0  0  0
  -28.4634  -13.7494   21.8203 H   0  0  0  0  0  0
  -25.2780   -9.5673   22.4745 H   0  0  0  0  0  0
  -24.0013   -7.4630   22.7462 H   0  0  0  0  0  0
  -21.0864   -8.8779   19.8932 H   0  0  0  0  0  0
  -22.3727  -10.9675   19.6157 H   0  0  0  0  0  0
  -21.2007   -7.6151   23.9723 H   0  0  0  0  0  0
  -21.1480   -6.0516   25.9078 H   0  0  0  0  0  0
  -22.0600   -2.7616   23.2823 H   0  0  0  0  0  0
  -22.4150  -11.9849   22.4767 H   0  0  0  0  0  0
  -21.1108  -13.1177   22.2637 H   0  0  0  0  0  0
  -24.6637  -15.8501   20.5280 H   0  0  0  0  0  0
  -26.2841  -15.6312   20.1049 H   0  0  0  0  0  0
  -26.7137  -32.5497   23.1173 H   0  0  0  0  0  0
  -24.9858  -33.9720   25.0340 H   0  0  0  0  0  0
  -22.6986  -31.3067   21.4081 H   0  0  0  0  0  0
  -23.3714  -35.9702   23.3290 H   0  0  0  0  0  0
  -24.3585  -36.8978   22.2063 H   0  0  0  0  0  0
  -23.7273  -37.6547   23.6687 H   0  0  0  0  0  0
  -26.0635  -31.5860   20.6020 H   0  0  0  0  0  0
  -26.8250  -30.8676   21.9929 H   0  0  0  0  0  0
  -28.0993  -29.0599   21.1785 H   0  0  0  0  0  0
  -26.0102  -25.9538   19.0154 H   0  0  0  0  0  0
  -23.9718  -27.2974   19.0343 H   0  0  0  0  0  0
  -23.7373  -30.6028   19.4056 H   0  0  0  0  0  0
  -22.7412  -29.2527   19.8584 H   0  0  0  0  0  0
  -25.1264  -36.1957   25.0819 H   0  0  0  0  0  0
  -21.0004  -28.3257   24.1432 H   0  0  0  0  0  0
  -20.5718  -26.2255   23.3614 H   0  0  0  0  0  0
  -21.6653  -26.7447   22.1185 H   0  0  0  0  0  0
  -19.6921  -25.6312   21.1222 H   0  0  0  0  0  0
  -19.6708  -27.3234   20.6775 H   0  0  0  0  0  0
  -17.4207  -26.6687   21.4055 H   0  0  0  0  0  0
  -18.0342  -26.0072   22.9024 H   0  0  0  0  0  0
  -19.7963  -30.7249   24.2291 H   0  0  0  0  0  0
  -17.5050  -31.6279   24.5169 H   0  0  0  0  0  0
  -15.5376  -30.3002   23.7643 H   0  0  0  0  0  0
  -15.8697  -28.0844   22.7035 H   0  0  0  0  0  0
  -24.5954  -30.6944   25.7847 H   0  0  0  0  0  0
  -24.8847  -32.2800   26.4915 H   0  0  0  0  0  0
  -25.8096  -30.8898   27.0272 H   0  0  0  0  0  0
  -26.2847  -29.6788   24.1158 H   0  0  0  0  0  0
  -27.4020  -29.7237   25.4604 H   0  0  0  0  0  0
  -27.8712  -30.4316   23.9318 H   0  0  0  0  0  0
  -27.2701  -33.3570   26.2131 H   0  0  0  0  0  0
  -28.3882  -32.6809   25.0363 H   0  0  0  0  0  0
  -28.0700  -31.8351   26.5415 H   0  0  0  0  0  0
  -28.2569  -38.0133   24.7490 H   0  0  0  0  0  0
  -28.1091  -36.2648   24.6281 H   0  0  0  0  0  0
  -27.2298  -37.1457   25.8866 H   0  0  0  0  0  0
  -20.9340  -29.8731   21.6919 H   0  0  0  0  0  0
  -26.0173  -38.2853   24.1392 H   0  0  0  0  0  0
  -32.0413  -16.6696   19.1863 H   0  0  0  0  0  0
  -33.4937  -18.1678   18.2428 H   0  0  0  0  0  0
  -33.7472  -19.6046   19.2280 H   0  0  0  0  0  0
  -32.7591  -19.6967   17.7658 H   0  0  0  0  0  0
  -29.7341  -21.0693   22.2041 H   0  0  0  0  0  0
  -28.1936  -20.3116   21.9691 H   0  0  0  0  0  0
  -26.9927  -24.7304   21.1393 H   0  0  0  0  0  0
  -26.9314  -23.7222   19.7458 H   0  0  0  0  0  0
  -27.8002  -22.8752   22.1228 H   0  0  0  0  0  0
  -29.3418  -23.4995   21.6242 H   0  0  0  0  0  0
  -28.1659  -25.2891   18.6044 H   0  0  0  0  0  0
  -29.5020  -24.9957   19.6556 H   0  0  0  0  0  0
  -29.0400  -15.5096   21.0881 H   0  0  0  0  0  0
  -27.8037  -21.5061   20.0556 H   0  0  0  0  0  0
  -29.3726  -21.9297   19.8631 H   0  0  0  0  0  0
  1 25  1  0  0  0
  1 30  2  0  0  0
  1 82  1  0  0  0
  2  3  1  0  0  0
  2 25  1  0  0  0
  2 86  1  0  0  0
  2 87  1  0  0  0
  3  4  1  0  0  0
  3 88  1  0  0  0
  3 89  1  0  0  0
  4  5  1  0  0  0
  4 90  1  0  0  0
  4 91  1  0  0  0
  5  6  1  0  0  0
  5 26  1  0  0  0
  5 92  1  0  0  0
  6 25  1  0  0  0
  6 93  1  0  0  0
  6 94  1  0  0  0
  7  8  2  0  0  0
  7 26  1  0  0  0
  7 29  1  0  0  0
  8  9  1  0  0  0
  8 22  1  0  0  0
  9 10  1  0  0  0
  9 27  2  0  0  0
 10 11  2  0  0  0
 10 15  1  0  0  0
 11 12  1  0  0  0
 11 95  1  0  0  0
 12 13  2  0  0  0
 12 96  1  0  0  0
 13 14  1  0  0  0
 13 31  1  0  0  0
 14 15  2  0  0  0
 14 97  1  0  0  0
 15 98  1  0  0  0
 16 17  2  0  0  0
 16 21  1  0  0  0
 16 31  1  0  0  0
 17 18  1  0  0  0
 17 99  1  0  0  0
 18 19  2  0  0  0
 18100  1  0  0  0
 19 20  1  0  0  0
 19 24  1  0  0  0
 20 21  2  0  0  0
 20101  1  0  0  0
 21 23  1  0  0  0
 22 28  1  0  0  0
 22 32  2  0  0  0
 26 27  1  0  0  0
 28102  1  0  0  0
 28103  1  0  0  0
 29104  1  0  0  0
 29105  1  0  0  0
 33 34  1  0  0  0
 33 66  1  0  0  0
 33 70  2  0  0  0
 34 36  1  0  0  0
 34 59  1  0  0  0
 34106  1  0  0  0
 35 44  2  0  0  0
 35 45  1  0  0  0
 35 68  1  0  0  0
 36 56  1  0  0  0
 36107  1  0  0  0
 37 39  1  0  0  0
 37 47  1  0  0  0
 37 66  1  0  0  0
 37108  1  0  0  0
 38 43  2  0  0  0
 38 46  1  0  0  0
 38 47  1  0  0  0
 39 64  1  0  0  0
 39 67  2  0  0  0
 40 52  1  0  0  0
 40 53  2  0  0  0
 40 58  1  0  0  0
 41109  1  0  0  0
 41110  1  0  0  0
 41111  1  0  0  0
 41 48  1  0  0  0
 42 43  1  0  0  0
 42 66  1  0  0  0
 42112  1  0  0  0
 42113  1  0  0  0
 43 44  1  0  0  0
 44114  1  0  0  0
 45 46  2  0  0  0
 45115  1  0  0  0
 46116  1  0  0  0
 47117  1  0  0  0
 47118  1  0  0  0
 48 56  1  0  0  0
 48 65  1  0  0  0
 48119  1  0  0  0
 49 50  1  0  0  0
 49 53  1  0  0  0
 49 64  1  0  0  0
 49120  1  0  0  0
 50 51  1  0  0  0
 50121  1  0  0  0
 50122  1  0  0  0
 51 52  1  0  0  0
 51123  1  0  0  0
 51124  1  0  0  0
 52125  1  0  0  0
 52126  1  0  0  0
 53 54  1  0  0  0
 54 55  2  0  0  0
 54127  1  0  0  0
 55 57  1  0  0  0
 55128  1  0  0  0
 56 69  2  0  0  0
 57 58  2  0  0  0
 57129  1  0  0  0
 58130  1  0  0  0
 59 60  1  0  0  0
 59 61  1  0  0  0
 59 62  1  0  0  0
 60131  1  0  0  0
 60132  1  0  0  0
 60133  1  0  0  0
 61134  1  0  0  0
 61135  1  0  0  0
 61136  1  0  0  0
 62137  1  0  0  0
 62138  1  0  0  0
 62139  1  0  0  0
 63 65  1  0  0  0
 63140  1  0  0  0
 63141  1  0  0  0
 63142  1  0  0  0
 64143  1  0  0  0
 65144  1  0  0  0
 68 81  1  0  0  0
 71 72  2  0  0  0
 71 74  1  0  0  0
 71145  1  0  0  0
 72 75  1  0  0  0
 72 77  1  0  0  0
 73 75  2  0  0  0
 73 76  1  0  0  0
 73 78  1  0  0  0
 74 76  2  0  0  0
 74 82  1  0  0  0
 75 84  1  0  0  0
 76 85  1  0  0  0
 77146  1  0  0  0
 77147  1  0  0  0
 77148  1  0  0  0
 78 83  1  0  0  0
 78149  1  0  0  0
 78150  1  0  0  0
 79 80  1  0  0  0
 79 81  1  0  0  0
 79151  1  0  0  0
 79152  1  0  0  0
 80 83  1  0  0  0
 80153  1  0  0  0
 80154  1  0  0  0
 81155  1  0  0  0
 81156  1  0  0  0
 82157  1  0  0  0
 83158  1  0  0  0
 83159  1  0  0  0
M  CHG  1  83   1
M  ISO  4   1 100  68 101  81 101  82 100
M  END
> <chiral flag>
0

> <version>
0

> <s_m_source_file>
/data/baiqing/PycharmProjects/Reinvent-master-3.2/result/LINK_invent/BTK/process_docking_weight1_custom_sum_contain_oxygen_bond_distance_aromatic_linkinvent_7_9_3/rearranged_h_0014.sdf

> <i_m_source_file_index>
27

> <r_mmod_Potential_Energy-OPLS-2005>
-243.393463134766

> <r_mmod_Stretch_Energy-OPLS-2005>
54.1435813903809

> <r_mmod_Bend_Energy-OPLS-2005>
121.677604675293

> <r_mmod_Torsional_Energy-OPLS-2005>
224.516372680664

> <r_mmod_Improper_Torsional_Energy-OPLS-2005>
4.62114810943604

> <r_mmod_Van_der_Waal_Energy-OPLS-2005>
163.301574707031

> <r_mmod_Electrostatic_Energy-OPLS-2005>
-371.979400634766

> <r_mmod_Solvation_Energy-OPLS-2005>
-466.893035888672

> <b_mmod_Minimization_Converged-OPLS-2005>
0

> <r_mmod_RMS_Derivative-OPLS-2005>
1.45584833621979

$$$$
27
                    3D
 Structure written by MMmdl.
175183  0  0  1  0            999 V2000
  -30.7565  -14.4483   20.4885 C   0  0  0  0  0  0
  -30.4003  -12.2689   19.4378 C   0  0  0  0  0  0
  -29.4914  -12.4777   18.2122 C   0  0  0  0  0  0
  -28.0140  -12.3457   18.6238 C   0  0  0  0  0  0
  -27.6547  -13.2111   19.8627 C   0  0  2  0  0  0
  -28.7018  -13.0630   20.9923 C   0  0  0  0  0  0
  -25.2533  -13.8110   20.5662 C   0  0  0  0  0  0
  -24.1802  -13.0381   20.9187 C   0  0  0  0  0  0
  -24.6388  -11.6879   20.8725 C   0  0  0  0  0  0
  -23.9043  -10.4269   21.0378 C   0  0  0  0  0  0
  -24.3594   -9.4194   21.9165 C   0  0  0  0  0  0
  -23.6267   -8.2234   22.0745 C   0  0  0  0  0  0
  -22.4242   -8.0274   21.3538 C   0  0  0  0  0  0
  -21.9890   -9.0244   20.4641 C   0  0  0  0  0  0
  -22.7213  -10.2117   20.3040 C   0  0  0  0  0  0
  -21.6858   -6.0730   22.5276 C   0  0  0  0  0  0
  -21.4027   -6.5627   23.8204 C   0  0  0  0  0  0
  -21.3658   -5.6769   24.9164 C   0  0  0  0  0  0
  -21.6051   -4.3037   24.7211 C   0  0  0  0  0  0
  -21.8820   -3.8130   23.4322 C   0  0  0  0  0  0
  -21.9194   -4.6954   22.3391 C   0  0  0  0  0  0
  -22.7834  -13.5194   21.1846 C   0  0  0  0  0  0
  -22.1658   -4.2130   21.0974 F   0  0  0  0  0  0
  -21.5621   -3.4522   25.7731 F   0  0  0  0  0  0
  -30.0323  -13.3008   20.4157 N   0  0  0  0  0  0
  -26.2996  -12.9330   20.3338 N   0  0  0  0  0  0
  -25.9335  -11.6488   20.5789 N   0  0  0  0  0  0
  -22.0487  -12.8207   22.0428 N   0  0  0  0  0  0
  -25.4146  -15.1798   20.4022 N   0  0  0  0  0  0
  -31.9585  -14.4861   20.2132 O   0  0  0  0  0  0
  -21.6630   -6.8847   21.4225 O   0  0  0  0  0  0
  -22.3533  -14.5494   20.6688 O   0  0  0  0  0  0
  -24.6113  -31.8712   23.2146 C   0  0  0  0  0  0
  -25.9024  -32.4850   23.8441 C   0  0  1  0  0  0
  -27.2489  -27.4722   20.0863 C   0  0  0  0  0  0
  -25.5885  -33.8649   24.2373 N   0  0  0  0  0  0
  -23.3981  -30.4955   21.5537 C   0  0  2  0  0  0
  -24.8458  -28.9602   20.1216 C   0  0  0  0  0  0
  -22.7389  -29.4681   22.5006 C   0  0  0  0  0  0
  -18.0278  -28.1358   22.8494 C   0  0  0  0  0  0
  -24.1481  -36.7331   23.2637 C   0  0  0  0  0  0
  -25.9222  -30.8465   21.3632 C   0  0  0  0  0  0
  -26.0016  -29.4817   20.7134 C   0  0  0  0  0  0
  -27.2023  -28.7432   20.6945 C   0  0  0  0  0  0
  -26.0679  -26.9498   19.5040 C   0  0  0  0  0  0
  -24.8703  -27.6918   19.5189 C   0  0  0  0  0  0
  -23.6079  -29.8270   20.1676 C   0  0  0  0  0  0
  -25.4096  -36.3137   24.0350 C   0  0  1  0  0  0
  -20.5868  -28.3652   23.1315 C   0  0  2  0  0  0
  -20.6778  -26.9392   22.5402 C   0  0  0  0  0  0
  -19.5750  -26.6380   21.5203 C   0  0  0  0  0  0
  -18.1933  -26.7904   22.1630 C   0  0  0  0  0  0
  -19.1528  -28.8812   23.2914 C   0  0  0  0  0  0
  -18.9458  -30.1416   23.8936 C   0  0  0  0  0  0
  -17.6464  -30.6569   24.0568 C   0  0  0  0  0  0
  -25.9019  -34.9494   23.5149 C   0  0  0  0  0  0
  -16.5352  -29.9078   23.6312 C   0  0  0  0  0  0
  -16.7265  -28.6493   23.0338 C   0  0  0  0  0  0
  -26.4483  -31.6611   25.0745 C   0  0  0  0  0  0
  -25.3768  -31.3672   26.1496 C   0  0  0  0  0  0
  -27.0320  -30.3066   24.6095 C   0  0  0  0  0  0
  -27.6072  -32.4314   25.7499 C   0  0  0  0  0  0
  -27.5575  -37.1824   24.8457 C   0  0  0  0  0  0
  -21.4121  -29.3066   22.3769 N   0  0  0  0  0  0
  -26.4283  -37.3811   23.9415 N   0  0  0  0  0  0
  -24.6620  -31.0856   22.1031 N   0  0  0  0  0  0
  -23.4201  -28.8165   23.2977 O   0  0  0  0  0  0
  -28.4552  -26.8013   20.0876 O   0  0  0  0  0  0
  -26.5566  -34.8931   22.4703 O   0  0  0  0  0  0
  -23.5300  -32.1425   23.7567 O   0  0  0  0  0  0
  -30.4428  -16.2050   22.8089 C   0  0  0  0  0  0
  -30.2164  -17.0191   23.9306 C   0  0  0  0  0  0
  -28.6282  -17.3205   21.6042 C   0  0  0  0  0  0
  -28.4096  -18.1628   22.7332 C   0  0  0  0  0  0
  -29.6822  -16.3515   21.6242 C   0  0  0  0  0  0
  -29.2125  -18.0067   23.8924 C   0  0  0  0  0  0
  -27.0416  -22.6402   21.0098 C   0  0  0  0  0  0
  -31.0843  -16.8411   25.1639 C   0  0  0  0  0  0
  -27.7237  -17.4709   20.3774 C   0  0  0  0  0  0
  -25.7081  -21.7249   22.9540 C   0  0  0  0  0  0
  -25.4571  -20.7047   20.6729 C   0  0  0  0  0  0
  -30.2599  -16.3949   19.2153 C   0  0  0  0  0  0
  -27.2893  -19.2122   22.7250 C   0  0  0  0  0  0
  -27.8710  -24.9481   21.5578 C   0  0  0  0  0  0
  -28.4372  -25.3774   20.1792 C   0  0  0  0  0  0
  -26.4683  -21.3500   21.6572 C   0  0  0  0  0  0
  -27.6998  -23.5095   21.7975 N   0  0  0  0  0  0
  -30.0489  -15.6048   20.4482 N   0  0  0  0  0  0
  -27.6039  -20.4215   21.9190 N   0  3  0  0  0  0
  -26.8435  -22.8685   19.8176 O   0  0  0  0  0  0
  -28.9841  -19.0174   25.2826 Cl  0  0  0  0  0  0
  -31.4494  -12.3159   19.1432 H   0  0  0  0  0  0
  -30.2563  -11.2735   19.8607 H   0  0  0  0  0  0
  -29.7324  -11.7523   17.4354 H   0  0  0  0  0  0
  -29.6690  -13.4616   17.7756 H   0  0  0  0  0  0
  -27.8294  -11.2929   18.8415 H   0  0  0  0  0  0
  -27.3636  -12.6024   17.7866 H   0  0  0  0  0  0
  -27.6786  -14.2477   19.5302 H   0  0  0  0  0  0
  -28.6597  -12.0672   21.4390 H   0  0  0  0  0  0
  -28.4890  -13.7659   21.7999 H   0  0  0  0  0  0
  -25.2756   -9.5679   22.4716 H   0  0  0  0  0  0
  -23.9994   -7.4632   22.7472 H   0  0  0  0  0  0
  -21.0822   -8.8753   19.8951 H   0  0  0  0  0  0
  -22.3682  -10.9639   19.6133 H   0  0  0  0  0  0
  -21.2036   -7.6132   23.9703 H   0  0  0  0  0  0
  -21.1472   -6.0504   25.9062 H   0  0  0  0  0  0
  -22.0603   -2.7594   23.2838 H   0  0  0  0  0  0
  -22.4092  -11.9878   22.4827 H   0  0  0  0  0  0
  -21.1111  -13.1238   22.2589 H   0  0  0  0  0  0
  -24.6418  -15.8303   20.4929 H   0  0  0  0  0  0
  -26.2702  -15.6110   20.0818 H   0  0  0  0  0  0
  -26.7101  -32.5592   23.1217 H   0  0  0  0  0  0
  -25.0083  -33.9830   25.0549 H   0  0  0  0  0  0
  -22.6842  -31.3110   21.4147 H   0  0  0  0  0  0
  -23.3746  -35.9664   23.3307 H   0  0  0  0  0  0
  -24.3556  -36.8926   22.2045 H   0  0  0  0  0  0
  -23.7231  -37.6539   23.6633 H   0  0  0  0  0  0
  -26.0239  -31.6134   20.5953 H   0  0  0  0  0  0
  -26.8130  -30.9061   21.9754 H   0  0  0  0  0  0
  -28.0931  -29.1381   21.1623 H   0  0  0  0  0  0
  -26.0521  -25.9832   19.0243 H   0  0  0  0  0  0
  -23.9788  -27.2869   19.0621 H   0  0  0  0  0  0
  -23.7221  -30.6032   19.4096 H   0  0  0  0  0  0
  -22.7322  -29.2511   19.8631 H   0  0  0  0  0  0
  -25.1271  -36.2009   25.0842 H   0  0  0  0  0  0
  -20.9958  -28.3207   24.1427 H   0  0  0  0  0  0
  -20.5667  -26.2257   23.3590 H   0  0  0  0  0  0
  -21.6650  -26.7433   22.1196 H   0  0  0  0  0  0
  -19.6918  -25.6301   21.1206 H   0  0  0  0  0  0
  -19.6679  -27.3206   20.6745 H   0  0  0  0  0  0
  -17.4199  -26.6618   21.4053 H   0  0  0  0  0  0
  -18.0371  -26.0053   22.9030 H   0  0  0  0  0  0
  -19.7938  -30.7209   24.2338 H   0  0  0  0  0  0
  -17.5020  -31.6240   24.5188 H   0  0  0  0  0  0
  -15.5355  -30.2989   23.7624 H   0  0  0  0  0  0
  -15.8665  -28.0817   22.7039 H   0  0  0  0  0  0
  -24.5939  -30.7033   25.7818 H   0  0  0  0  0  0
  -24.8976  -32.2813   26.5005 H   0  0  0  0  0  0
  -25.8140  -30.8794   27.0216 H   0  0  0  0  0  0
  -26.2875  -29.6829   24.1137 H   0  0  0  0  0  0
  -27.4083  -29.7290   25.4549 H   0  0  0  0  0  0
  -27.8707  -30.4397   23.9259 H   0  0  0  0  0  0
  -27.2710  -33.3570   26.2171 H   0  0  0  0  0  0
  -28.3840  -32.6935   25.0308 H   0  0  0  0  0  0
  -28.0808  -31.8390   26.5331 H   0  0  0  0  0  0
  -28.2607  -38.0107   24.7501 H   0  0  0  0  0  0
  -28.1056  -36.2644   24.6291 H   0  0  0  0  0  0
  -27.2287  -37.1478   25.8855 H   0  0  0  0  0  0
  -20.9259  -29.8874   21.7083 H   0  0  0  0  0  0
  -26.0186  -38.2891   24.1429 H   0  0  0  0  0  0
  -31.2568  -15.4957   22.8614 H   0  0  0  0  0  0
  -31.8133  -16.0420   25.0326 H   0  0  0  0  0  0
  -30.4687  -16.5867   26.0266 H   0  0  0  0  0  0
  -31.6315  -17.7593   25.3809 H   0  0  0  0  0  0
  -26.6748  -17.5749   20.6396 H   0  0  0  0  0  0
  -27.7593  -16.6024   19.7253 H   0  0  0  0  0  0
  -28.0121  -18.3444   19.7927 H   0  0  0  0  0  0
  -24.9927  -22.5291   22.7728 H   0  0  0  0  0  0
  -26.3805  -22.0556   23.7466 H   0  0  0  0  0  0
  -25.1279  -20.8892   23.3455 H   0  0  0  0  0  0
  -24.6674  -21.4114   20.4098 H   0  0  0  0  0  0
  -24.9602  -19.8289   21.0871 H   0  0  0  0  0  0
  -25.9346  -20.3986   19.7417 H   0  0  0  0  0  0
  -30.2070  -17.4670   19.4030 H   0  0  0  0  0  0
  -29.5078  -16.1324   18.4717 H   0  0  0  0  0  0
  -31.2279  -16.2417   18.7370 H   0  0  0  0  0  0
  -27.0394  -19.5250   23.7356 H   0  0  0  0  0  0
  -26.3758  -18.7304   22.3881 H   0  0  0  0  0  0
  -26.9091  -25.4224   21.7530 H   0  0  0  0  0  0
  -28.5377  -25.3342   22.3282 H   0  0  0  0  0  0
  -27.9081  -24.9693   19.3241 H   0  0  0  0  0  0
  -29.4622  -25.0169   20.0875 H   0  0  0  0  0  0
  -27.8560  -23.2301   22.7574 H   0  0  0  0  0  0
  -27.9697  -20.1442   21.0233 H   0  0  0  0  0  0
  -28.3433  -20.9319   22.3744 H   0  0  0  0  0  0
  1 25  1  0  0  0
  1 30  2  0  0  0
  1 88  1  0  0  0
  2  3  1  0  0  0
  2 25  1  0  0  0
  2 92  1  0  0  0
  2 93  1  0  0  0
  3  4  1  0  0  0
  3 94  1  0  0  0
  3 95  1  0  0  0
  4  5  1  0  0  0
  4 96  1  0  0  0
  4 97  1  0  0  0
  5  6  1  0  0  0
  5 26  1  0  0  0
  5 98  1  0  0  0
  6 25  1  0  0  0
  6 99  1  0  0  0
  6100  1  0  0  0
  7  8  2  0  0  0
  7 26  1  0  0  0
  7 29  1  0  0  0
  8  9  1  0  0  0
  8 22  1  0  0  0
  9 10  1  0  0  0
  9 27  2  0  0  0
 10 11  2  0  0  0
 10 15  1  0  0  0
 11 12  1  0  0  0
 11101  1  0  0  0
 12 13  2  0  0  0
 12102  1  0  0  0
 13 14  1  0  0  0
 13 31  1  0  0  0
 14 15  2  0  0  0
 14103  1  0  0  0
 15104  1  0  0  0
 16 17  2  0  0  0
 16 21  1  0  0  0
 16 31  1  0  0  0
 17 18  1  0  0  0
 17105  1  0  0  0
 18 19  2  0  0  0
 18106  1  0  0  0
 19 20  1  0  0  0
 19 24  1  0  0  0
 20 21  2  0  0  0
 20107  1  0  0  0
 21 23  1  0  0  0
 22 28  1  0  0  0
 22 32  2  0  0  0
 26 27  1  0  0  0
 28108  1  0  0  0
 28109  1  0  0  0
 29110  1  0  0  0
 29111  1  0  0  0
 33 34  1  0  0  0
 33 66  1  0  0  0
 33 70  2  0  0  0
 34 36  1  0  0  0
 34 59  1  0  0  0
 34112  1  0  0  0
 35 44  2  0  0  0
 35 45  1  0  0  0
 35 68  1  0  0  0
 36 56  1  0  0  0
 36113  1  0  0  0
 37 39  1  0  0  0
 37 47  1  0  0  0
 37 66  1  0  0  0
 37114  1  0  0  0
 38 43  2  0  0  0
 38 46  1  0  0  0
 38 47  1  0  0  0
 39 64  1  0  0  0
 39 67  2  0  0  0
 40 52  1  0  0  0
 40 53  2  0  0  0
 40 58  1  0  0  0
 41115  1  0  0  0
 41116  1  0  0  0
 41117  1  0  0  0
 41 48  1  0  0  0
 42 43  1  0  0  0
 42 66  1  0  0  0
 42118  1  0  0  0
 42119  1  0  0  0
 43 44  1  0  0  0
 44120  1  0  0  0
 45 46  2  0  0  0
 45121  1  0  0  0
 46122  1  0  0  0
 47123  1  0  0  0
 47124  1  0  0  0
 48 56  1  0  0  0
 48 65  1  0  0  0
 48125  1  0  0  0
 49 50  1  0  0  0
 49 53  1  0  0  0
 49 64  1  0  0  0
 49126  1  0  0  0
 50 51  1  0  0  0
 50127  1  0  0  0
 50128  1  0  0  0
 51 52  1  0  0  0
 51129  1  0  0  0
 51130  1  0  0  0
 52131  1  0  0  0
 52132  1  0  0  0
 53 54  1  0  0  0
 54 55  2  0  0  0
 54133  1  0  0  0
 55 57  1  0  0  0
 55134  1  0  0  0
 56 69  2  0  0  0
 57 58  2  0  0  0
 57135  1  0  0  0
 58136  1  0  0  0
 59 60  1  0  0  0
 59 61  1  0  0  0
 59 62  1  0  0  0
 60137  1  0  0  0
 60138  1  0  0  0
 60139  1  0  0  0
 61140  1  0  0  0
 61141  1  0  0  0
 61142  1  0  0  0
 62143  1  0  0  0
 62144  1  0  0  0
 62145  1  0  0  0
 63 65  1  0  0  0
 63146  1  0  0  0
 63147  1  0  0  0
 63148  1  0  0  0
 64149  1  0  0  0
 65150  1  0  0  0
 68 85  1  0  0  0
 71 72  2  0  0  0
 71 75  1  0  0  0
 71151  1  0  0  0
 72 76  1  0  0  0
 72 78  1  0  0  0
 73 74  1  0  0  0
 73 75  2  0  0  0
 73 79  1  0  0  0
 74 76  2  0  0  0
 74 83  1  0  0  0
 75 88  1  0  0  0
 76 91  1  0  0  0
 77 86  1  0  0  0
 77 87  1  0  0  0
 77 90  2  0  0  0
 78152  1  0  0  0
 78153  1  0  0  0
 78154  1  0  0  0
 79155  1  0  0  0
 79156  1  0  0  0
 79157  1  0  0  0
 80158  1  0  0  0
 80159  1  0  0  0
 80160  1  0  0  0
 80 86  1  0  0  0
 81 86  1  0  0  0
 81161  1  0  0  0
 81162  1  0  0  0
 81163  1  0  0  0
 82 88  1  0  0  0
 82164  1  0  0  0
 82165  1  0  0  0
 82166  1  0  0  0
 83 89  1  0  0  0
 83167  1  0  0  0
 83168  1  0  0  0
 84 85  1  0  0  0
 84 87  1  0  0  0
 84169  1  0  0  0
 84170  1  0  0  0
 85171  1  0  0  0
 85172  1  0  0  0
 86 89  1  0  0  0
 87173  1  0  0  0
 89174  1  0  0  0
 89175  1  0  0  0
M  CHG  1  89   1
M  ISO  4   1 100  68 101  85 101  88 100
M  END
> <chiral flag>
0

> <version>
0

> <s_m_source_file>
/data/baiqing/PycharmProjects/Reinvent-master-3.2/result/LINK_invent/BTK/process_docking_weight1_custom_sum_contain_oxygen_bond_distance_aromatic_linkinvent_7_9_3/rearranged_h_0014.sdf

> <i_m_source_file_index>
28

> <r_mmod_Potential_Energy-OPLS-2005>
-156.218185424805

> <r_mmod_Stretch_Energy-OPLS-2005>
44.1616706848145

> <r_mmod_Bend_Energy-OPLS-2005>
114.84107208252

> <r_mmod_Torsional_Energy-OPLS-2005>
298.805389404297

> <r_mmod_Improper_Torsional_Energy-OPLS-2005>
15.5773773193359

> <r_mmod_Van_der_Waal_Energy-OPLS-2005>
186.867553710938

> <r_mmod_Electrostatic_Energy-OPLS-2005>
-373.114471435547

> <r_mmod_Solvation_Energy-OPLS-2005>
-466.716339111328

> <b_mmod_Minimization_Converged-OPLS-2005>
0

> <r_mmod_RMS_Derivative-OPLS-2005>
3.90713357925415

$$$$
28
                    3D
 Structure written by MMmdl.
179186  0  0  1  0            999 V2000
  -30.6652  -14.5889   20.5329 C   0  0  0  0  0  0
  -30.4356  -12.3816   19.4244 C   0  0  0  0  0  0
  -29.5023  -12.5213   18.2032 C   0  0  0  0  0  0
  -28.0235  -12.3704   18.6183 C   0  0  0  0  0  0
  -27.6576  -13.2243   19.8642 C   0  0  2  0  0  0
  -28.7075  -13.0585   20.9862 C   0  0  0  0  0  0
  -25.2576  -13.8184   20.5667 C   0  0  0  0  0  0
  -24.1848  -13.0444   20.9196 C   0  0  0  0  0  0
  -24.6439  -11.6936   20.8780 C   0  0  0  0  0  0
  -23.9112  -10.4312   21.0460 C   0  0  0  0  0  0
  -24.3652   -9.4209   21.9222 C   0  0  0  0  0  0
  -23.6325   -8.2244   22.0783 C   0  0  0  0  0  0
  -22.4298   -8.0300   21.3570 C   0  0  0  0  0  0
  -21.9946   -9.0277   20.4662 C   0  0  0  0  0  0
  -22.7291  -10.2152   20.3087 C   0  0  0  0  0  0
  -21.6844   -6.0758   22.5295 C   0  0  0  0  0  0
  -21.3998   -6.5651   23.8233 C   0  0  0  0  0  0
  -21.3655   -5.6793   24.9189 C   0  0  0  0  0  0
  -21.6042   -4.3063   24.7232 C   0  0  0  0  0  0
  -21.8813   -3.8165   23.4350 C   0  0  0  0  0  0
  -21.9187   -4.6991   22.3408 C   0  0  0  0  0  0
  -22.7858  -13.5249   21.1823 C   0  0  0  0  0  0
  -22.1649   -4.2173   21.0992 F   0  0  0  0  0  0
  -21.5648   -3.4544   25.7745 F   0  0  0  0  0  0
  -30.0232  -13.3903   20.4175 N   0  0  0  0  0  0
  -26.3036  -12.9392   20.3341 N   0  0  0  0  0  0
  -25.9371  -11.6539   20.5773 N   0  0  0  0  0  0
  -22.0462  -12.8288   22.0398 N   0  0  0  0  0  0
  -25.4238  -15.1892   20.4053 N   0  0  0  0  0  0
  -31.8205  -14.7536   20.1268 O   0  0  0  0  0  0
  -21.6641   -6.8912   21.4263 O   0  0  0  0  0  0
  -22.3568  -14.5546   20.6644 O   0  0  0  0  0  0
  -24.6180  -31.8650   23.2043 C   0  0  0  0  0  0
  -25.9051  -32.4809   23.8367 C   0  0  1  0  0  0
  -27.2646  -27.4044   20.1059 C   0  0  0  0  0  0
  -25.5929  -33.8610   24.2322 N   0  0  0  0  0  0
  -23.4118  -30.4730   21.5497 C   0  0  2  0  0  0
  -24.8685  -28.9246   20.1347 C   0  0  0  0  0  0
  -22.7429  -29.4577   22.5046 C   0  0  0  0  0  0
  -18.0262  -28.1373   22.8482 C   0  0  0  0  0  0
  -24.1513  -36.7285   23.2620 C   0  0  0  0  0  0
  -25.9398  -30.8191   21.3610 C   0  0  0  0  0  0
  -26.0282  -29.4459   20.7190 C   0  0  0  0  0  0
  -27.2318  -28.6948   20.6958 C   0  0  0  0  0  0
  -26.0800  -26.9036   19.5186 C   0  0  0  0  0  0
  -24.8860  -27.6530   19.5356 C   0  0  0  0  0  0
  -23.6290  -29.7883   20.1741 C   0  0  0  0  0  0
  -25.4131  -36.3069   24.0318 C   0  0  1  0  0  0
  -20.5850  -28.3625   23.1359 C   0  0  2  0  0  0
  -20.6765  -26.9373   22.5429 C   0  0  0  0  0  0
  -19.5770  -26.6362   21.5210 C   0  0  0  0  0  0
  -18.1926  -26.7933   22.1583 C   0  0  0  0  0  0
  -19.1511  -28.8824   23.2909 C   0  0  0  0  0  0
  -18.9432  -30.1445   23.8887 C   0  0  0  0  0  0
  -17.6437  -30.6585   24.0543 C   0  0  0  0  0  0
  -25.9045  -34.9451   23.5096 C   0  0  0  0  0  0
  -16.5328  -29.9068   23.6353 C   0  0  0  0  0  0
  -16.7250  -28.6494   23.0360 C   0  0  0  0  0  0
  -26.4504  -31.6583   25.0683 C   0  0  0  0  0  0
  -25.3767  -31.3682   26.1417 C   0  0  0  0  0  0
  -27.0323  -30.3031   24.6018 C   0  0  0  0  0  0
  -27.6084  -32.4285   25.7469 C   0  0  0  0  0  0
  -27.5596  -37.1785   24.8453 C   0  0  0  0  0  0
  -21.4145  -29.3006   22.3797 N   0  0  0  0  0  0
  -26.4305  -37.3754   23.9400 N   0  0  0  0  0  0
  -24.6742  -31.0678   22.0975 N   0  0  0  0  0  0
  -23.4188  -28.8126   23.3098 O   0  0  0  0  0  0
  -28.4549  -26.6895   20.0602 O   0  0  0  0  0  0
  -26.5569  -34.8910   22.4630 O   0  0  0  0  0  0
  -23.5357  -32.1415   23.7404 O   0  0  0  0  0  0
  -26.9220  -21.6118   23.0695 C   0  0  0  0  0  0
  -29.4645  -18.1089   20.4198 C   0  0  0  0  0  0
  -29.2199  -21.9396   20.4638 C   0  0  0  0  0  0
  -27.2354  -21.5252   24.5557 C   0  0  0  0  0  0
  -26.2782  -19.2780   20.3576 C   0  0  0  0  0  0
  -31.3815  -25.9525   19.0168 C   0  0  0  0  0  0
  -31.4506  -24.8573   21.2256 C   0  0  0  0  0  0
  -31.8719  -23.5303   19.1321 C   0  0  0  0  0  0
  -28.2132  -22.6356   18.3266 C   0  0  0  0  0  0
  -30.3190  -17.0567   21.1844 C   0  0  0  0  0  0
  -28.4663  -25.2855   20.4358 C   0  0  0  0  0  0
  -28.5777  -20.5063   20.3129 C   0  0  2  0  0  0
  -27.1173  -20.4618   20.8696 C   0  0  2  0  0  0
  -29.4444  -24.3803   19.5944 C   0  0  1  0  0  0
  -31.0013  -24.6481   19.7615 C   0  0  0  0  0  0
  -29.3854  -19.3838   20.8866 N   0  0  0  0  0  0
  -27.1047  -20.5036   22.3380 N   0  0  0  0  0  0
  -29.9212  -15.6324   20.9800 N   0  0  0  0  0  0
  -28.9906  -22.9367   19.5433 N   0  0  0  0  0  0
  -26.5594  -22.6845   22.5820 O   0  0  0  0  0  0
  -28.8762  -17.7579   19.3979 O   0  0  0  0  0  0
  -29.8961  -22.1279   21.4756 O   0  0  0  0  0  0
  -31.4762  -12.5012   19.1157 H   0  0  0  0  0  0
  -30.3645  -11.3829   19.8532 H   0  0  0  0  0  0
  -29.7649  -11.7799   17.4462 H   0  0  0  0  0  0
  -29.6492  -13.4945   17.7346 H   0  0  0  0  0  0
  -27.8473  -11.3142   18.8245 H   0  0  0  0  0  0
  -27.3687  -12.6264   17.7834 H   0  0  0  0  0  0
  -27.6830  -14.2677   19.5475 H   0  0  0  0  0  0
  -28.7147  -12.0336   21.3597 H   0  0  0  0  0  0
  -28.4687  -13.6874   21.8442 H   0  0  0  0  0  0
  -25.2807   -9.5665   22.4789 H   0  0  0  0  0  0
  -24.0025   -7.4630   22.7508 H   0  0  0  0  0  0
  -21.0867   -8.8806   19.8976 H   0  0  0  0  0  0
  -22.3776  -10.9689   19.6192 H   0  0  0  0  0  0
  -21.1965   -7.6151   23.9748 H   0  0  0  0  0  0
  -21.1490   -6.0522   25.9097 H   0  0  0  0  0  0
  -22.0600   -2.7636   23.2831 H   0  0  0  0  0  0
  -22.4035  -11.9957   22.4805 H   0  0  0  0  0  0
  -21.1083  -13.1365   22.2544 H   0  0  0  0  0  0
  -24.6454  -15.8308   20.5096 H   0  0  0  0  0  0
  -26.2560  -15.6358   20.0414 H   0  0  0  0  0  0
  -26.7116  -32.5569   23.1135 H   0  0  0  0  0  0
  -25.0225  -33.9812   25.0566 H   0  0  0  0  0  0
  -22.6994  -31.2845   21.3915 H   0  0  0  0  0  0
  -23.3780  -35.9608   23.3253 H   0  0  0  0  0  0
  -24.3593  -36.8927   22.2029 H   0  0  0  0  0  0
  -23.7289  -37.6483   23.6677 H   0  0  0  0  0  0
  -26.0414  -31.5749   20.5807 H   0  0  0  0  0  0
  -26.8280  -30.8880   21.9766 H   0  0  0  0  0  0
  -28.1350  -29.0988   21.1351 H   0  0  0  0  0  0
  -26.0779  -25.9379   19.0324 H   0  0  0  0  0  0
  -23.9890  -27.2452   19.0898 H   0  0  0  0  0  0
  -23.7435  -30.5507   19.4029 H   0  0  0  0  0  0
  -22.7611  -29.1927   19.8856 H   0  0  0  0  0  0
  -25.1338  -36.1867   25.0812 H   0  0  0  0  0  0
  -20.9892  -28.3126   24.1497 H   0  0  0  0  0  0
  -20.5655  -26.2201   23.3577 H   0  0  0  0  0  0
  -21.6641  -26.7434   22.1210 H   0  0  0  0  0  0
  -19.6923  -25.6261   21.1271 H   0  0  0  0  0  0
  -19.6779  -27.3138   20.6725 H   0  0  0  0  0  0
  -17.4226  -26.6691   21.3959 H   0  0  0  0  0  0
  -18.0307  -26.0074   22.8965 H   0  0  0  0  0  0
  -19.7909  -30.7271   24.2235 H   0  0  0  0  0  0
  -17.4995  -31.6274   24.5114 H   0  0  0  0  0  0
  -15.5327  -30.2949   23.7726 H   0  0  0  0  0  0
  -15.8643  -28.0810   22.7094 H   0  0  0  0  0  0
  -24.5952  -30.7029   25.7730 H   0  0  0  0  0  0
  -24.8963  -32.2843   26.4870 H   0  0  0  0  0  0
  -25.8112  -30.8838   27.0170 H   0  0  0  0  0  0
  -26.2830  -29.6773   24.1149 H   0  0  0  0  0  0
  -27.4189  -29.7279   25.4438 H   0  0  0  0  0  0
  -27.8638  -30.4353   23.9084 H   0  0  0  0  0  0
  -27.2716  -33.3573   26.2090 H   0  0  0  0  0  0
  -28.3917  -32.6841   25.0319 H   0  0  0  0  0  0
  -28.0736  -31.8368   26.5365 H   0  0  0  0  0  0
  -28.2570  -38.0121   24.7532 H   0  0  0  0  0  0
  -28.1148  -36.2651   24.6260 H   0  0  0  0  0  0
  -27.2312  -37.1379   25.8851 H   0  0  0  0  0  0
  -20.9277  -29.8745   21.7053 H   0  0  0  0  0  0
  -26.0172  -38.2813   24.1426 H   0  0  0  0  0  0
  -28.1774  -20.9994   24.7135 H   0  0  0  0  0  0
  -26.4445  -21.0024   25.0935 H   0  0  0  0  0  0
  -27.3420  -22.5239   24.9801 H   0  0  0  0  0  0
  -26.3534  -19.1908   19.2725 H   0  0  0  0  0  0
  -25.2219  -19.4053   20.5974 H   0  0  0  0  0  0
  -26.5957  -18.3300   20.7892 H   0  0  0  0  0  0
  -32.4602  -26.1264   19.0272 H   0  0  0  0  0  0
  -30.9200  -26.8276   19.4723 H   0  0  0  0  0  0
  -31.0798  -25.9346   17.9691 H   0  0  0  0  0  0
  -32.5160  -25.0867   21.2709 H   0  0  0  0  0  0
  -31.3050  -23.9888   21.8607 H   0  0  0  0  0  0
  -30.9320  -25.6948   21.6931 H   0  0  0  0  0  0
  -32.9094  -23.8503   19.0187 H   0  0  0  0  0  0
  -31.5199  -23.2426   18.1420 H   0  0  0  0  0  0
  -31.9082  -22.6307   19.7440 H   0  0  0  0  0  0
  -27.2873  -22.1139   18.5562 H   0  0  0  0  0  0
  -28.8044  -22.0119   17.6552 H   0  0  0  0  0  0
  -27.8966  -23.5054   17.7494 H   0  0  0  0  0  0
  -30.2547  -17.2702   22.2508 H   0  0  0  0  0  0
  -31.3612  -17.2129   20.9082 H   0  0  0  0  0  0
  -28.7327  -25.2372   21.4895 H   0  0  0  0  0  0
  -27.4649  -24.8599   20.3893 H   0  0  0  0  0  0
  -28.5352  -20.3026   19.2445 H   0  0  0  0  0  0
  -26.5991  -21.3482   20.5029 H   0  0  0  0  0  0
  -29.2798  -24.7475   18.5834 H   0  0  0  0  0  0
  -29.9002  -19.6170   21.7257 H   0  0  0  0  0  0
  -27.3755  -19.6576   22.8224 H   0  0  0  0  0  0
  -28.9545  -15.4266   21.1750 H   0  0  0  0  0  0
  1 25  1  0  0  0
  1 30  2  0  0  0
  1 88  1  0  0  0
  2  3  1  0  0  0
  2 25  1  0  0  0
  2 93  1  0  0  0
  2 94  1  0  0  0
  3  4  1  0  0  0
  3 95  1  0  0  0
  3 96  1  0  0  0
  4  5  1  0  0  0
  4 97  1  0  0  0
  4 98  1  0  0  0
  5  6  1  0  0  0
  5 26  1  0  0  0
  5 99  1  0  0  0
  6 25  1  0  0  0
  6100  1  0  0  0
  6101  1  0  0  0
  7  8  2  0  0  0
  7 26  1  0  0  0
  7 29  1  0  0  0
  8  9  1  0  0  0
  8 22  1  0  0  0
  9 10  1  0  0  0
  9 27  2  0  0  0
 10 11  2  0  0  0
 10 15  1  0  0  0
 11 12  1  0  0  0
 11102  1  0  0  0
 12 13  2  0  0  0
 12103  1  0  0  0
 13 14  1  0  0  0
 13 31  1  0  0  0
 14 15  2  0  0  0
 14104  1  0  0  0
 15105  1  0  0  0
 16 17  2  0  0  0
 16 21  1  0  0  0
 16 31  1  0  0  0
 17 18  1  0  0  0
 17106  1  0  0  0
 18 19  2  0  0  0
 18107  1  0  0  0
 19 20  1  0  0  0
 19 24  1  0  0  0
 20 21  2  0  0  0
 20108  1  0  0  0
 21 23  1  0  0  0
 22 28  1  0  0  0
 22 32  2  0  0  0
 26 27  1  0  0  0
 28109  1  0  0  0
 28110  1  0  0  0
 29111  1  0  0  0
 29112  1  0  0  0
 33 34  1  0  0  0
 33 66  1  0  0  0
 33 70  2  0  0  0
 34 36  1  0  0  0
 34 59  1  0  0  0
 34113  1  0  0  0
 35 44  2  0  0  0
 35 45  1  0  0  0
 35 68  1  0  0  0
 36 56  1  0  0  0
 36114  1  0  0  0
 37 39  1  0  0  0
 37 47  1  0  0  0
 37 66  1  0  0  0
 37115  1  0  0  0
 38 43  2  0  0  0
 38 46  1  0  0  0
 38 47  1  0  0  0
 39 64  1  0  0  0
 39 67  2  0  0  0
 40 52  1  0  0  0
 40 53  2  0  0  0
 40 58  1  0  0  0
 41116  1  0  0  0
 41117  1  0  0  0
 41118  1  0  0  0
 41 48  1  0  0  0
 42 43  1  0  0  0
 42 66  1  0  0  0
 42119  1  0  0  0
 42120  1  0  0  0
 43 44  1  0  0  0
 44121  1  0  0  0
 45 46  2  0  0  0
 45122  1  0  0  0
 46123  1  0  0  0
 47124  1  0  0  0
 47125  1  0  0  0
 48 56  1  0  0  0
 48 65  1  0  0  0
 48126  1  0  0  0
 49 50  1  0  0  0
 49 53  1  0  0  0
 49 64  1  0  0  0
 49127  1  0  0  0
 50 51  1  0  0  0
 50128  1  0  0  0
 50129  1  0  0  0
 51 52  1  0  0  0
 51130  1  0  0  0
 51131  1  0  0  0
 52132  1  0  0  0
 52133  1  0  0  0
 53 54  1  0  0  0
 54 55  2  0  0  0
 54134  1  0  0  0
 55 57  1  0  0  0
 55135  1  0  0  0
 56 69  2  0  0  0
 57 58  2  0  0  0
 57136  1  0  0  0
 58137  1  0  0  0
 59 60  1  0  0  0
 59 61  1  0  0  0
 59 62  1  0  0  0
 60138  1  0  0  0
 60139  1  0  0  0
 60140  1  0  0  0
 61141  1  0  0  0
 61142  1  0  0  0
 61143  1  0  0  0
 62144  1  0  0  0
 62145  1  0  0  0
 62146  1  0  0  0
 63 65  1  0  0  0
 63147  1  0  0  0
 63148  1  0  0  0
 63149  1  0  0  0
 64150  1  0  0  0
 65151  1  0  0  0
 68 81  1  0  0  0
 71 74  1  0  0  0
 71 87  1  0  0  0
 71 90  2  0  0  0
 72 80  1  0  0  0
 72 86  1  0  0  0
 72 91  2  0  0  0
 73 82  1  0  0  0
 73 89  1  0  0  0
 73 92  2  0  0  0
 74152  1  0  0  0
 74153  1  0  0  0
 74154  1  0  0  0
 75155  1  0  0  0
 75156  1  0  0  0
 75157  1  0  0  0
 75 83  1  0  0  0
 76158  1  0  0  0
 76159  1  0  0  0
 76160  1  0  0  0
 76 85  1  0  0  0
 77 85  1  0  0  0
 77161  1  0  0  0
 77162  1  0  0  0
 77163  1  0  0  0
 78 85  1  0  0  0
 78164  1  0  0  0
 78165  1  0  0  0
 78166  1  0  0  0
 79 89  1  0  0  0
 79167  1  0  0  0
 79168  1  0  0  0
 79169  1  0  0  0
 80 88  1  0  0  0
 80170  1  0  0  0
 80171  1  0  0  0
 81172  1  0  0  0
 81173  1  0  0  0
 81 84  1  0  0  0
 82 83  1  0  0  0
 82 86  1  0  0  0
 82174  1  0  0  0
 83 87  1  0  0  0
 83175  1  0  0  0
 84 85  1  0  0  0
 84 89  1  0  0  0
 84176  1  0  0  0
 86177  1  0  0  0
 87178  1  0  0  0
 88179  1  0  0  0
M  ISO  4   1 100  68 101  81 101  88 100
M  END
> <chiral flag>
0

> <version>
0

> <s_m_source_file>
/data/baiqing/PycharmProjects/Reinvent-master-3.2/result/LINK_invent/BTK/process_docking_weight1_custom_sum_contain_oxygen_bond_distance_aromatic_linkinvent_7_9_3/rearranged_h_0014.sdf

> <i_m_source_file_index>
29

> <r_mmod_Potential_Energy-OPLS-2005>
-244.896408081055

> <r_mmod_Stretch_Energy-OPLS-2005>
69.4437026977539

> <r_mmod_Bend_Energy-OPLS-2005>
144.791976928711

> <r_mmod_Torsional_Energy-OPLS-2005>
264.356719970703

> <r_mmod_Improper_Torsional_Energy-OPLS-2005>
3.92580628395081

> <r_mmod_Van_der_Waal_Energy-OPLS-2005>
138.352447509766

> <r_mmod_Electrostatic_Energy-OPLS-2005>
-639.865966796875

> <r_mmod_Solvation_Energy-OPLS-2005>
-251.859756469727

> <b_mmod_Minimization_Converged-OPLS-2005>
0

> <r_mmod_RMS_Derivative-OPLS-2005>
4.15282678604126

$$$$
29
                    3D
 Structure written by MMmdl.
155163  0  0  1  0            999 V2000
  -30.5131  -15.0162   20.4067 C   0  0  0  0  0  0
  -30.4384  -12.6319   19.4929 C   0  0  0  0  0  0
  -29.5214  -12.5374   18.2515 C   0  0  0  0  0  0
  -28.0547  -12.3168   18.6709 C   0  0  0  0  0  0
  -27.6247  -13.2535   19.8305 C   0  0  2  0  0  0
  -28.6694  -13.3071   20.9637 C   0  0  0  0  0  0
  -25.2450  -13.8208   20.5734 C   0  0  0  0  0  0
  -24.1779  -13.0429   20.9238 C   0  0  0  0  0  0
  -24.6397  -11.6917   20.8747 C   0  0  0  0  0  0
  -23.9080  -10.4289   21.0405 C   0  0  0  0  0  0
  -24.3631   -9.4206   21.9187 C   0  0  0  0  0  0
  -23.6301   -8.2244   22.0751 C   0  0  0  0  0  0
  -22.4281   -8.0283   21.3544 C   0  0  0  0  0  0
  -21.9923   -9.0253   20.4643 C   0  0  0  0  0  0
  -22.7250  -10.2131   20.3051 C   0  0  0  0  0  0
  -21.6856   -6.0735   22.5280 C   0  0  0  0  0  0
  -21.4017   -6.5640   23.8213 C   0  0  0  0  0  0
  -21.3658   -5.6793   24.9177 C   0  0  0  0  0  0
  -21.6046   -4.3055   24.7226 C   0  0  0  0  0  0
  -21.8815   -3.8146   23.4346 C   0  0  0  0  0  0
  -21.9196   -4.6964   22.3405 C   0  0  0  0  0  0
  -22.7802  -13.5195   21.1881 C   0  0  0  0  0  0
  -22.1666   -4.2151   21.0982 F   0  0  0  0  0  0
  -21.5626   -3.4537   25.7737 F   0  0  0  0  0  0
  -29.9284  -13.7450   20.3500 N   0  0  0  0  0  0
  -26.2871  -12.9456   20.3222 N   0  0  0  0  0  0
  -25.9333  -11.6577   20.5721 N   0  0  0  0  0  0
  -22.0447  -12.8190   22.0431 N   0  0  0  0  0  0
  -25.4073  -15.1939   20.4172 N   0  0  0  0  0  0
  -31.7247  -15.0549   20.1675 O   0  0  0  0  0  0
  -21.6643   -6.8878   21.4241 O   0  0  0  0  0  0
  -22.3492  -14.5503   20.6725 O   0  0  0  0  0  0
  -24.6476  -31.8379   23.1831 C   0  0  0  0  0  0
  -25.9224  -32.4666   23.8237 C   0  0  1  0  0  0
  -27.2126  -27.0840   20.1508 C   0  0  0  0  0  0
  -25.5959  -33.8471   24.2156 N   0  0  0  0  0  0
  -23.4538  -30.4561   21.5294 C   0  0  2  0  0  0
  -24.9052  -28.8758   20.1064 C   0  0  0  0  0  0
  -22.7589  -29.4504   22.4819 C   0  0  0  0  0  0
  -18.0315  -28.1399   22.8475 C   0  0  0  0  0  0
  -24.1487  -36.7241   23.2643 C   0  0  0  0  0  0
  -26.0140  -30.6947   21.3897 C   0  0  0  0  0  0
  -26.0839  -29.3014   20.7295 C   0  0  0  0  0  0
  -27.2373  -28.4226   20.7342 C   0  0  0  0  0  0
  -26.0090  -26.7742   19.4791 C   0  0  0  0  0  0
  -24.8838  -27.6293   19.4638 C   0  0  0  0  0  0
  -23.6837  -29.7829   20.1489 C   0  0  0  0  0  0
  -25.4125  -36.3013   24.0308 C   0  0  1  0  0  0
  -20.5922  -28.3714   23.1231 C   0  0  2  0  0  0
  -20.6784  -26.9407   22.5405 C   0  0  0  0  0  0
  -19.5760  -26.6370   21.5212 C   0  0  0  0  0  0
  -18.1946  -26.7939   22.1624 C   0  0  0  0  0  0
  -19.1571  -28.8875   23.2855 C   0  0  0  0  0  0
  -18.9483  -30.1477   23.8872 C   0  0  0  0  0  0
  -17.6479  -30.6591   24.0553 C   0  0  0  0  0  0
  -25.9082  -34.9392   23.5046 C   0  0  0  0  0  0
  -16.5372  -29.9078   23.6338 C   0  0  0  0  0  0
  -16.7298  -28.6506   23.0353 C   0  0  0  0  0  0
  -26.4527  -31.6559   25.0702 C   0  0  0  0  0  0
  -25.3690  -31.3772   26.1377 C   0  0  0  0  0  0
  -27.0385  -30.2952   24.6307 C   0  0  0  0  0  0
  -27.6058  -32.4325   25.7497 C   0  0  0  0  0  0
  -27.5570  -37.1783   24.8467 C   0  0  0  0  0  0
  -21.4270  -29.3042   22.3591 N   0  0  0  0  0  0
  -26.4279  -37.3739   23.9405 N   0  0  0  0  0  0
  -24.7256  -31.0180   22.0894 N   0  0  0  0  0  0
  -23.4227  -28.8038   23.2966 O   0  0  0  0  0  0
  -28.2461  -26.0632   20.2332 O   0  0  0  0  0  0
  -26.5669  -34.8899   22.4627 O   0  0  0  0  0  0
  -23.5585  -32.1271   23.7028 O   0  0  0  0  0  0
  -30.5932  -20.5694   21.1518 C   0  0  0  0  0  0
  -31.4383  -19.5047   21.5555 C   0  0  0  0  0  0
  -29.3624  -20.3697   20.4913 C   0  0  0  0  0  0
  -29.9715  -17.7367   20.6187 C   0  0  0  0  0  0
  -31.1405  -18.1413   21.3044 C   0  0  0  0  0  0
  -29.0939  -18.8977   20.2366 C   0  0  0  0  0  0
  -32.7035  -19.8340   22.3258 C   0  0  0  0  0  0
  -27.1145  -21.4075   20.1707 C   0  0  0  0  0  0
  -28.9323  -23.1512   20.4491 C   0  0  0  0  0  0
  -27.9780  -24.5172   20.0212 C   0  0  0  0  0  0
  -29.7093  -16.2096   20.4487 N   0  0  0  0  0  0
  -28.5589  -21.6246   20.2012 N   0  0  0  0  0  0
  -31.9935  -17.2094   21.7927 F   0  0  0  0  0  0
  -27.9555  -18.5581   19.5847 F   0  0  0  0  0  0
  -31.4707  -12.7945   19.1798 H   0  0  0  0  0  0
  -30.4393  -11.6893   20.0422 H   0  0  0  0  0  0
  -29.8489  -11.7306   17.5934 H   0  0  0  0  0  0
  -29.6026  -13.4568   17.6685 H   0  0  0  0  0  0
  -27.9550  -11.2757   18.9822 H   0  0  0  0  0  0
  -27.3920  -12.4413   17.8138 H   0  0  0  0  0  0
  -27.5747  -14.2509   19.3933 H   0  0  0  0  0  0
  -28.7811  -12.3340   21.4447 H   0  0  0  0  0  0
  -28.3632  -14.0063   21.7440 H   0  0  0  0  0  0
  -25.2768   -9.5690   22.4768 H   0  0  0  0  0  0
  -24.0007   -7.4637   22.7474 H   0  0  0  0  0  0
  -21.0853   -8.8769   19.8951 H   0  0  0  0  0  0
  -22.3698  -10.9676   19.6164 H   0  0  0  0  0  0
  -21.2005   -7.6149   23.9717 H   0  0  0  0  0  0
  -21.1487   -6.0524   25.9081 H   0  0  0  0  0  0
  -22.0595   -2.7607   23.2845 H   0  0  0  0  0  0
  -22.4075  -11.9864   22.4842 H   0  0  0  0  0  0
  -21.1052  -13.1204   22.2612 H   0  0  0  0  0  0
  -24.6280  -15.8326   20.5343 H   0  0  0  0  0  0
  -26.2306  -15.6457   20.0426 H   0  0  0  0  0  0
  -26.7261  -32.5249   23.0936 H   0  0  0  0  0  0
  -25.0059  -33.9585   25.0268 H   0  0  0  0  0  0
  -22.7607  -31.2859   21.3710 H   0  0  0  0  0  0
  -23.3759  -35.9563   23.3300 H   0  0  0  0  0  0
  -24.3558  -36.8881   22.2058 H   0  0  0  0  0  0
  -23.7240  -37.6433   23.6689 H   0  0  0  0  0  0
  -26.1726  -31.4463   20.6152 H   0  0  0  0  0  0
  -26.8848  -30.7477   22.0321 H   0  0  0  0  0  0
  -28.1328  -28.7452   21.2474 H   0  0  0  0  0  0
  -25.9035  -25.8217   18.9807 H   0  0  0  0  0  0
  -23.9829  -27.3086   18.9602 H   0  0  0  0  0  0
  -23.8260  -30.5565   19.3941 H   0  0  0  0  0  0
  -22.7997  -29.2260   19.8330 H   0  0  0  0  0  0
  -25.1317  -36.1826   25.0800 H   0  0  0  0  0  0
  -21.0033  -28.3290   24.1344 H   0  0  0  0  0  0
  -20.5661  -26.2309   23.3618 H   0  0  0  0  0  0
  -21.6646  -26.7382   22.1208 H   0  0  0  0  0  0
  -19.6911  -25.6275   21.1253 H   0  0  0  0  0  0
  -19.6717  -27.3167   20.6737 H   0  0  0  0  0  0
  -17.4212  -26.6687   21.4038 H   0  0  0  0  0  0
  -18.0351  -26.0100   22.9037 H   0  0  0  0  0  0
  -19.7957  -30.7307   24.2231 H   0  0  0  0  0  0
  -17.5027  -31.6271   24.5151 H   0  0  0  0  0  0
  -15.5371  -30.2966   23.7683 H   0  0  0  0  0  0
  -15.8704  -28.0816   22.7070 H   0  0  0  0  0  0
  -24.5895  -30.7088   25.7693 H   0  0  0  0  0  0
  -24.8842  -32.2956   26.4709 H   0  0  0  0  0  0
  -25.7950  -30.9012   27.0215 H   0  0  0  0  0  0
  -26.2997  -29.6690   24.1295 H   0  0  0  0  0  0
  -27.3962  -29.7251   25.4894 H   0  0  0  0  0  0
  -27.8922  -30.4187   23.9640 H   0  0  0  0  0  0
  -27.2656  -33.3650   26.2010 H   0  0  0  0  0  0
  -28.3910  -32.6842   25.0354 H   0  0  0  0  0  0
  -28.0667  -31.8481   26.5472 H   0  0  0  0  0  0
  -28.2582  -38.0088   24.7508 H   0  0  0  0  0  0
  -28.1070  -36.2617   24.6297 H   0  0  0  0  0  0
  -27.2279  -37.1422   25.8868 H   0  0  0  0  0  0
  -20.9474  -29.8775   21.6786 H   0  0  0  0  0  0
  -26.0141  -38.2792   24.1441 H   0  0  0  0  0  0
  -30.8980  -21.5759   21.3955 H   0  0  0  0  0  0
  -32.8389  -20.9100   22.4358 H   0  0  0  0  0  0
  -33.5776  -19.4299   21.8148 H   0  0  0  0  0  0
  -32.6611  -19.3978   23.3245 H   0  0  0  0  0  0
  -26.8130  -20.3661   20.1116 H   0  0  0  0  0  0
  -26.6671  -21.9207   19.3176 H   0  0  0  0  0  0
  -26.6597  -21.8095   21.0769 H   0  0  0  0  0  0
  -29.1253  -23.2386   21.5187 H   0  0  0  0  0  0
  -29.9047  -23.2982   19.9783 H   0  0  0  0  0  0
  -27.0056  -24.3364   20.4819 H   0  0  0  0  0  0
  -27.8041  -24.4170   18.9504 H   0  0  0  0  0  0
  -28.7274  -15.9995   20.3750 H   0  0  0  0  0  0
  1 25  1  0  0  0
  1 30  2  0  0  0
  1 81  1  0  0  0
  2  3  1  0  0  0
  2 25  1  0  0  0
  2 85  1  0  0  0
  2 86  1  0  0  0
  3  4  1  0  0  0
  3 87  1  0  0  0
  3 88  1  0  0  0
  4  5  1  0  0  0
  4 89  1  0  0  0
  4 90  1  0  0  0
  5  6  1  0  0  0
  5 26  1  0  0  0
  5 91  1  0  0  0
  6 25  1  0  0  0
  6 92  1  0  0  0
  6 93  1  0  0  0
  7  8  2  0  0  0
  7 26  1  0  0  0
  7 29  1  0  0  0
  8  9  1  0  0  0
  8 22  1  0  0  0
  9 10  1  0  0  0
  9 27  2  0  0  0
 10 11  2  0  0  0
 10 15  1  0  0  0
 11 12  1  0  0  0
 11 94  1  0  0  0
 12 13  2  0  0  0
 12 95  1  0  0  0
 13 14  1  0  0  0
 13 31  1  0  0  0
 14 15  2  0  0  0
 14 96  1  0  0  0
 15 97  1  0  0  0
 16 17  2  0  0  0
 16 21  1  0  0  0
 16 31  1  0  0  0
 17 18  1  0  0  0
 17 98  1  0  0  0
 18 19  2  0  0  0
 18 99  1  0  0  0
 19 20  1  0  0  0
 19 24  1  0  0  0
 20 21  2  0  0  0
 20100  1  0  0  0
 21 23  1  0  0  0
 22 28  1  0  0  0
 22 32  2  0  0  0
 26 27  1  0  0  0
 28101  1  0  0  0
 28102  1  0  0  0
 29103  1  0  0  0
 29104  1  0  0  0
 33 34  1  0  0  0
 33 66  1  0  0  0
 33 70  2  0  0  0
 34 36  1  0  0  0
 34 59  1  0  0  0
 34105  1  0  0  0
 35 44  2  0  0  0
 35 45  1  0  0  0
 35 68  1  0  0  0
 36 56  1  0  0  0
 36106  1  0  0  0
 37 39  1  0  0  0
 37 47  1  0  0  0
 37 66  1  0  0  0
 37107  1  0  0  0
 38 43  2  0  0  0
 38 46  1  0  0  0
 38 47  1  0  0  0
 39 64  1  0  0  0
 39 67  2  0  0  0
 40 52  1  0  0  0
 40 53  2  0  0  0
 40 58  1  0  0  0
 41108  1  0  0  0
 41109  1  0  0  0
 41110  1  0  0  0
 41 48  1  0  0  0
 42 43  1  0  0  0
 42 66  1  0  0  0
 42111  1  0  0  0
 42112  1  0  0  0
 43 44  1  0  0  0
 44113  1  0  0  0
 45 46  2  0  0  0
 45114  1  0  0  0
 46115  1  0  0  0
 47116  1  0  0  0
 47117  1  0  0  0
 48 56  1  0  0  0
 48 65  1  0  0  0
 48118  1  0  0  0
 49 50  1  0  0  0
 49 53  1  0  0  0
 49 64  1  0  0  0
 49119  1  0  0  0
 50 51  1  0  0  0
 50120  1  0  0  0
 50121  1  0  0  0
 51 52  1  0  0  0
 51122  1  0  0  0
 51123  1  0  0  0
 52124  1  0  0  0
 52125  1  0  0  0
 53 54  1  0  0  0
 54 55  2  0  0  0
 54126  1  0  0  0
 55 57  1  0  0  0
 55127  1  0  0  0
 56 69  2  0  0  0
 57 58  2  0  0  0
 57128  1  0  0  0
 58129  1  0  0  0
 59 60  1  0  0  0
 59 61  1  0  0  0
 59 62  1  0  0  0
 60130  1  0  0  0
 60131  1  0  0  0
 60132  1  0  0  0
 61133  1  0  0  0
 61134  1  0  0  0
 61135  1  0  0  0
 62136  1  0  0  0
 62137  1  0  0  0
 62138  1  0  0  0
 63 65  1  0  0  0
 63139  1  0  0  0
 63140  1  0  0  0
 63141  1  0  0  0
 64142  1  0  0  0
 65143  1  0  0  0
 68 80  1  0  0  0
 71 72  2  0  0  0
 71 73  1  0  0  0
 71144  1  0  0  0
 72 75  1  0  0  0
 72 77  1  0  0  0
 73 76  2  0  0  0
 73 82  1  0  0  0
 74 75  2  0  0  0
 74 76  1  0  0  0
 74 81  1  0  0  0
 75 83  1  0  0  0
 76 84  1  0  0  0
 77145  1  0  0  0
 77146  1  0  0  0
 77147  1  0  0  0
 78 82  1  0  0  0
 78148  1  0  0  0
 78149  1  0  0  0
 78150  1  0  0  0
 79 80  1  0  0  0
 79 82  1  0  0  0
 79151  1  0  0  0
 79152  1  0  0  0
 80153  1  0  0  0
 80154  1  0  0  0
 81155  1  0  0  0
M  ISO  4   1 100  68 101  80 101  81 100
M  END
> <chiral flag>
0

> <version>
0

> <s_m_source_file>
/data/baiqing/PycharmProjects/Reinvent-master-3.2/result/LINK_invent/BTK/process_docking_weight1_custom_sum_contain_oxygen_bond_distance_aromatic_linkinvent_7_9_3/rearranged_h_0014.sdf

> <i_m_source_file_index>
30

> <r_mmod_Potential_Energy-OPLS-2005>
629.017150878906

> <r_mmod_Stretch_Energy-OPLS-2005>
326.050842285156

> <r_mmod_Bend_Energy-OPLS-2005>
278.905822753906

> <r_mmod_Torsional_Energy-OPLS-2005>
212.903213500977

> <r_mmod_Improper_Torsional_Energy-OPLS-2005>
8.57528781890869

> <r_mmod_Van_der_Waal_Energy-OPLS-2005>
137.705123901367

> <r_mmod_Electrostatic_Energy-OPLS-2005>
-351.903015136719

> <r_mmod_Solvation_Energy-OPLS-2005>
-226.28466796875

> <b_mmod_Minimization_Converged-OPLS-2005>
0

> <r_mmod_RMS_Derivative-OPLS-2005>
2.11220216751099

$$$$
30
                    3D
 Structure written by MMmdl.
145152  0  0  1  0            999 V2000
  -30.2614  -15.6153   20.2990 C   0  0  0  0  0  0
  -30.4279  -13.0534   19.5469 C   0  0  0  0  0  0
  -29.5543  -12.6705   18.3157 C   0  0  0  0  0  0
  -28.1324  -12.2957   18.7591 C   0  0  0  0  0  0
  -27.5974  -13.3028   19.8023 C   0  0  2  0  0  0
  -28.6054  -13.6283   20.9253 C   0  0  0  0  0  0
  -25.2378  -13.8266   20.5753 C   0  0  0  0  0  0
  -24.1751  -13.0437   20.9228 C   0  0  0  0  0  0
  -24.6435  -11.6933   20.8707 C   0  0  0  0  0  0
  -23.9128  -10.4287   21.0376 C   0  0  0  0  0  0
  -24.3670   -9.4224   21.9180 C   0  0  0  0  0  0
  -23.6315   -8.2269   22.0780 C   0  0  0  0  0  0
  -22.4301   -8.0301   21.3559 C   0  0  0  0  0  0
  -21.9947   -9.0262   20.4652 C   0  0  0  0  0  0
  -22.7296  -10.2128   20.3039 C   0  0  0  0  0  0
  -21.6869   -6.0753   22.5283 C   0  0  0  0  0  0
  -21.4030   -6.5642   23.8224 C   0  0  0  0  0  0
  -21.3675   -5.6794   24.9170 C   0  0  0  0  0  0
  -21.6049   -4.3053   24.7223 C   0  0  0  0  0  0
  -21.8813   -3.8154   23.4334 C   0  0  0  0  0  0
  -21.9201   -4.6973   22.3404 C   0  0  0  0  0  0
  -22.7775  -13.5180   21.1863 C   0  0  0  0  0  0
  -22.1669   -4.2163   21.0978 F   0  0  0  0  0  0
  -21.5631   -3.4539   25.7734 F   0  0  0  0  0  0
  -29.8011  -14.2289   20.2969 N   0  0  0  0  0  0
  -26.2791  -12.9578   20.3135 N   0  0  0  0  0  0
  -25.9374  -11.6658   20.5595 N   0  0  0  0  0  0
  -22.0444  -12.8174   22.0424 N   0  0  0  0  0  0
  -25.4022  -15.2001   20.4275 N   0  0  0  0  0  0
  -31.4943  -15.5839   20.1105 O   0  0  0  0  0  0
  -21.6661   -6.8898   21.4256 O   0  0  0  0  0  0
  -22.3464  -14.5503   20.6712 O   0  0  0  0  0  0
  -24.6813  -31.8016   23.1511 C   0  0  0  0  0  0
  -25.9417  -32.4479   23.8047 C   0  0  1  0  0  0
  -27.2169  -26.7132   20.2116 C   0  0  0  0  0  0
  -25.5993  -33.8300   24.1944 N   0  0  0  0  0  0
  -23.5046  -30.4053   21.5054 C   0  0  2  0  0  0
  -24.9578  -28.7442   20.1208 C   0  0  0  0  0  0
  -22.7746  -29.4357   22.4727 C   0  0  0  0  0  0
  -18.0339  -28.1428   22.8450 C   0  0  0  0  0  0
  -24.1502  -36.7184   23.2643 C   0  0  0  0  0  0
  -26.0835  -30.5413   21.4065 C   0  0  0  0  0  0
  -26.1500  -29.1037   20.7619 C   0  0  0  0  0  0
  -27.2652  -28.1161   20.7741 C   0  0  0  0  0  0
  -25.9925  -26.5604   19.5140 C   0  0  0  0  0  0
  -24.9146  -27.4959   19.4771 C   0  0  0  0  0  0
  -23.7542  -29.6992   20.1423 C   0  0  0  0  0  0
  -25.4144  -36.2915   24.0282 C   0  0  1  0  0  0
  -20.5973  -28.3785   23.1133 C   0  0  2  0  0  0
  -20.6803  -26.9448   22.5391 C   0  0  0  0  0  0
  -19.5800  -26.6380   21.5195 C   0  0  0  0  0  0
  -18.1977  -26.7955   22.1606 C   0  0  0  0  0  0
  -19.1603  -28.8928   23.2779 C   0  0  0  0  0  0
  -18.9519  -30.1507   23.8833 C   0  0  0  0  0  0
  -17.6513  -30.6601   24.0563 C   0  0  0  0  0  0
  -25.9121  -34.9295   23.4944 C   0  0  0  0  0  0
  -16.5399  -29.9084   23.6363 C   0  0  0  0  0  0
  -16.7328  -28.6518   23.0360 C   0  0  0  0  0  0
  -26.4600  -31.6490   25.0640 C   0  0  0  0  0  0
  -25.3674  -31.3799   26.1253 C   0  0  0  0  0  0
  -27.0495  -30.2837   24.6467 C   0  0  0  0  0  0
  -27.6079  -32.4295   25.7466 C   0  0  0  0  0  0
  -27.5583  -37.1746   24.8459 C   0  0  0  0  0  0
  -21.4397  -29.3045   22.3463 N   0  0  0  0  0  0
  -26.4285  -37.3673   23.9403 N   0  0  0  0  0  0
  -24.7811  -30.9475   22.0753 N   0  0  0  0  0  0
  -23.4205  -28.7970   23.3077 O   0  0  0  0  0  0
  -28.1774  -25.4991   20.2734 O   0  0  0  0  0  0
  -26.5769  -34.8869   22.4569 O   0  0  0  0  0  0
  -23.5839  -32.1084   23.6495 O   0  0  0  0  0  0
  -28.9491  -22.2360   20.2809 C   0  0  0  0  0  0
  -27.3105  -20.3411   20.0477 C   0  0  0  0  0  0
  -29.3542  -17.2564   20.3657 C   0  0  0  0  0  0
  -27.8936  -23.7700   20.1919 C   0  0  0  0  0  0
  -29.6408  -19.1735   20.2960 C   0  0  0  0  0  0
  -28.7148  -20.6920   20.2410 N   0  0  0  0  0  0
  -30.1422  -22.5268   20.4066 O   0  0  0  0  0  0
  -31.4303  -13.3104   19.2045 H   0  0  0  0  0  0
  -30.5551  -12.1930   20.2066 H   0  0  0  0  0  0
  -30.0074  -11.8498   17.7553 H   0  0  0  0  0  0
  -29.5096  -13.5181   17.6280 H   0  0  0  0  0  0
  -28.1750  -11.2972   19.1997 H   0  0  0  0  0  0
  -27.4653  -12.2332   17.8981 H   0  0  0  0  0  0
  -27.4612  -14.2260   19.2350 H   0  0  0  0  0  0
  -28.8505  -12.7467   21.5207 H   0  0  0  0  0  0
  -28.1701  -14.3576   21.6128 H   0  0  0  0  0  0
  -25.2827   -9.5696   22.4746 H   0  0  0  0  0  0
  -24.0022   -7.4680   22.7515 H   0  0  0  0  0  0
  -21.0895   -8.8770   19.8945 H   0  0  0  0  0  0
  -22.3775  -10.9647   19.6119 H   0  0  0  0  0  0
  -21.2028   -7.6154   23.9723 H   0  0  0  0  0  0
  -21.1509   -6.0525   25.9076 H   0  0  0  0  0  0
  -22.0579   -2.7614   23.2831 H   0  0  0  0  0  0
  -22.4093  -11.9832   22.4787 H   0  0  0  0  0  0
  -21.1062  -13.1172   22.2616 H   0  0  0  0  0  0
  -24.6372  -15.8526   20.5546 H   0  0  0  0  0  0
  -26.2559  -15.6435   20.1167 H   0  0  0  0  0  0
  -26.7484  -32.4959   23.0745 H   0  0  0  0  0  0
  -25.0045  -33.9337   25.0029 H   0  0  0  0  0  0
  -22.8307  -31.2432   21.3159 H   0  0  0  0  0  0
  -23.3784  -35.9493   23.3229 H   0  0  0  0  0  0
  -24.3599  -36.8922   22.2081 H   0  0  0  0  0  0
  -23.7244  -37.6334   23.6764 H   0  0  0  0  0  0
  -26.2624  -31.2639   20.6092 H   0  0  0  0  0  0
  -26.9448  -30.6272   22.0585 H   0  0  0  0  0  0
  -28.1614  -28.3976   21.3061 H   0  0  0  0  0  0
  -25.8251  -25.6157   19.0172 H   0  0  0  0  0  0
  -24.0088  -27.2069   18.9594 H   0  0  0  0  0  0
  -23.9293  -30.4557   19.3763 H   0  0  0  0  0  0
  -22.8580  -29.1615   19.8260 H   0  0  0  0  0  0
  -25.1353  -36.1685   25.0778 H   0  0  0  0  0  0
  -21.0054  -28.3406   24.1269 H   0  0  0  0  0  0
  -20.5632  -26.2430   23.3655 H   0  0  0  0  0  0
  -21.6667  -26.7388   22.1238 H   0  0  0  0  0  0
  -19.6945  -25.6269   21.1282 H   0  0  0  0  0  0
  -19.6721  -27.3145   20.6690 H   0  0  0  0  0  0
  -17.4232  -26.6696   21.4012 H   0  0  0  0  0  0
  -18.0388  -26.0103   22.9021 H   0  0  0  0  0  0
  -19.7992  -30.7341   24.2163 H   0  0  0  0  0  0
  -17.5065  -31.6272   24.5179 H   0  0  0  0  0  0
  -15.5396  -30.2968   23.7708 H   0  0  0  0  0  0
  -15.8746  -28.0815   22.7095 H   0  0  0  0  0  0
  -24.5933  -30.7053   25.7576 H   0  0  0  0  0  0
  -24.8762  -32.3000   26.4418 H   0  0  0  0  0  0
  -25.7854  -30.9170   27.0201 H   0  0  0  0  0  0
  -26.3177  -29.6483   24.1465 H   0  0  0  0  0  0
  -27.3974  -29.7244   25.5165 H   0  0  0  0  0  0
  -27.9140  -30.3982   23.9929 H   0  0  0  0  0  0
  -27.2685  -33.3698   26.1819 H   0  0  0  0  0  0
  -28.4026  -32.6665   25.0381 H   0  0  0  0  0  0
  -28.0579  -31.8538   26.5565 H   0  0  0  0  0  0
  -28.2536  -38.0104   24.7547 H   0  0  0  0  0  0
  -28.1143  -36.2629   24.6222 H   0  0  0  0  0  0
  -27.2313  -37.1309   25.8864 H   0  0  0  0  0  0
  -20.9687  -29.8718   21.6551 H   0  0  0  0  0  0
  -26.0115  -38.2723   24.1417 H   0  0  0  0  0  0
  -27.0842  -20.2576   18.9838 H   0  0  0  0  0  0
  -26.6370  -21.0842   20.4814 H   0  0  0  0  0  0
  -27.0757  -19.3824   20.5085 H   0  0  0  0  0  0
  -28.6170  -17.0975   19.5766 H   0  0  0  0  0  0
  -28.7706  -17.1281   21.2760 H   0  0  0  0  0  0
  -27.1603  -23.5978   20.9795 H   0  0  0  0  0  0
  -27.3158  -23.6439   19.2775 H   0  0  0  0  0  0
  -30.3046  -19.2951   19.4400 H   0  0  0  0  0  0
  -30.2873  -19.3552   21.1545 H   0  0  0  0  0  0
  1 25  1  0  0  0
  1 30  2  0  0  0
  1 73  1  0  0  0
  2  3  1  0  0  0
  2 25  1  0  0  0
  2 78  1  0  0  0
  2 79  1  0  0  0
  3  4  1  0  0  0
  3 80  1  0  0  0
  3 81  1  0  0  0
  4  5  1  0  0  0
  4 82  1  0  0  0
  4 83  1  0  0  0
  5  6  1  0  0  0
  5 26  1  0  0  0
  5 84  1  0  0  0
  6 25  1  0  0  0
  6 85  1  0  0  0
  6 86  1  0  0  0
  7  8  2  0  0  0
  7 26  1  0  0  0
  7 29  1  0  0  0
  8  9  1  0  0  0
  8 22  1  0  0  0
  9 10  1  0  0  0
  9 27  2  0  0  0
 10 11  2  0  0  0
 10 15  1  0  0  0
 11 12  1  0  0  0
 11 87  1  0  0  0
 12 13  2  0  0  0
 12 88  1  0  0  0
 13 14  1  0  0  0
 13 31  1  0  0  0
 14 15  2  0  0  0
 14 89  1  0  0  0
 15 90  1  0  0  0
 16 17  2  0  0  0
 16 21  1  0  0  0
 16 31  1  0  0  0
 17 18  1  0  0  0
 17 91  1  0  0  0
 18 19  2  0  0  0
 18 92  1  0  0  0
 19 20  1  0  0  0
 19 24  1  0  0  0
 20 21  2  0  0  0
 20 93  1  0  0  0
 21 23  1  0  0  0
 22 28  1  0  0  0
 22 32  2  0  0  0
 26 27  1  0  0  0
 28 94  1  0  0  0
 28 95  1  0  0  0
 29 96  1  0  0  0
 29 97  1  0  0  0
 33 34  1  0  0  0
 33 66  1  0  0  0
 33 70  2  0  0  0
 34 36  1  0  0  0
 34 59  1  0  0  0
 34 98  1  0  0  0
 35 44  2  0  0  0
 35 45  1  0  0  0
 35 68  1  0  0  0
 36 56  1  0  0  0
 36 99  1  0  0  0
 37 39  1  0  0  0
 37 47  1  0  0  0
 37 66  1  0  0  0
 37100  1  0  0  0
 38 43  2  0  0  0
 38 46  1  0  0  0
 38 47  1  0  0  0
 39 64  1  0  0  0
 39 67  2  0  0  0
 40 52  1  0  0  0
 40 53  2  0  0  0
 40 58  1  0  0  0
 41101  1  0  0  0
 41102  1  0  0  0
 41103  1  0  0  0
 41 48  1  0  0  0
 42 43  1  0  0  0
 42 66  1  0  0  0
 42104  1  0  0  0
 42105  1  0  0  0
 43 44  1  0  0  0
 44106  1  0  0  0
 45 46  2  0  0  0
 45107  1  0  0  0
 46108  1  0  0  0
 47109  1  0  0  0
 47110  1  0  0  0
 48 56  1  0  0  0
 48 65  1  0  0  0
 48111  1  0  0  0
 49 50  1  0  0  0
 49 53  1  0  0  0
 49 64  1  0  0  0
 49112  1  0  0  0
 50 51  1  0  0  0
 50113  1  0  0  0
 50114  1  0  0  0
 51 52  1  0  0  0
 51115  1  0  0  0
 51116  1  0  0  0
 52117  1  0  0  0
 52118  1  0  0  0
 53 54  1  0  0  0
 54 55  2  0  0  0
 54119  1  0  0  0
 55 57  1  0  0  0
 55120  1  0  0  0
 56 69  2  0  0  0
 57 58  2  0  0  0
 57121  1  0  0  0
 58122  1  0  0  0
 59 60  1  0  0  0
 59 61  1  0  0  0
 59 62  1  0  0  0
 60123  1  0  0  0
 60124  1  0  0  0
 60125  1  0  0  0
 61126  1  0  0  0
 61127  1  0  0  0
 61128  1  0  0  0
 62129  1  0  0  0
 62130  1  0  0  0
 62131  1  0  0  0
 63 65  1  0  0  0
 63132  1  0  0  0
 63133  1  0  0  0
 63134  1  0  0  0
 64135  1  0  0  0
 65136  1  0  0  0
 68 74  1  0  0  0
 71 74  1  0  0  0
 71 76  1  0  0  0
 71 77  2  0  0  0
 72 76  1  0  0  0
 72137  1  0  0  0
 72138  1  0  0  0
 72139  1  0  0  0
 73 75  1  0  0  0
 73140  1  0  0  0
 73141  1  0  0  0
 74142  1  0  0  0
 74143  1  0  0  0
 75 76  1  0  0  0
 75144  1  0  0  0
 75145  1  0  0  0
M  ISO  4   1 100  68 101  73 100  74 101
M  END
> <chiral flag>
0

> <version>
0

> <s_m_source_file>
/data/baiqing/PycharmProjects/Reinvent-master-3.2/result/LINK_invent/BTK/process_docking_weight1_custom_sum_contain_oxygen_bond_distance_aromatic_linkinvent_7_9_3/rearranged_h_0014.sdf

> <i_m_source_file_index>
31

> <r_mmod_Potential_Energy-OPLS-2005>
2401.71044921875

> <r_mmod_Stretch_Energy-OPLS-2005>
1121.98571777344

> <r_mmod_Bend_Energy-OPLS-2005>
601.274475097656

> <r_mmod_Torsional_Energy-OPLS-2005>
213.833404541016

> <r_mmod_Improper_Torsional_Energy-OPLS-2005>
2.78256916999817

> <r_mmod_Van_der_Waal_Energy-OPLS-2005>
107.334243774414

> <r_mmod_Electrostatic_Energy-OPLS-2005>
-281.175384521484

> <r_mmod_Solvation_Energy-OPLS-2005>
-244.536071777344

> <b_mmod_Minimization_Converged-OPLS-2005>
0

> <r_mmod_RMS_Derivative-OPLS-2005>
3.85551071166992

$$$$
31
                    3D
 Structure written by MMmdl.
160168  0  0  1  0            999 V2000
  -30.5925  -14.6979   20.4961 C   0  0  0  0  0  0
  -30.4505  -12.4275   19.4595 C   0  0  0  0  0  0
  -29.5158  -12.5074   18.2306 C   0  0  0  0  0  0
  -28.0393  -12.3364   18.6428 C   0  0  0  0  0  0
  -27.6557  -13.2138   19.8635 C   0  0  2  0  0  0
  -28.7012  -13.0861   20.9945 C   0  0  0  0  0  0
  -25.2589  -13.8151   20.5670 C   0  0  0  0  0  0
  -24.1855  -13.0435   20.9196 C   0  0  0  0  0  0
  -24.6417  -11.6899   20.8763 C   0  0  0  0  0  0
  -23.9076  -10.4289   21.0420 C   0  0  0  0  0  0
  -24.3626   -9.4199   21.9194 C   0  0  0  0  0  0
  -23.6300   -8.2234   22.0755 C   0  0  0  0  0  0
  -22.4282   -8.0278   21.3540 C   0  0  0  0  0  0
  -21.9921   -9.0247   20.4640 C   0  0  0  0  0  0
  -22.7251  -10.2128   20.3059 C   0  0  0  0  0  0
  -21.6847   -6.0738   22.5280 C   0  0  0  0  0  0
  -21.3999   -6.5637   23.8217 C   0  0  0  0  0  0
  -21.3666   -5.6787   24.9178 C   0  0  0  0  0  0
  -21.6053   -4.3055   24.7220 C   0  0  0  0  0  0
  -21.8821   -3.8146   23.4343 C   0  0  0  0  0  0
  -21.9190   -4.6965   22.3400 C   0  0  0  0  0  0
  -22.7880  -13.5236   21.1839 C   0  0  0  0  0  0
  -22.1658   -4.2154   21.0974 F   0  0  0  0  0  0
  -21.5643   -3.4538   25.7728 F   0  0  0  0  0  0
  -30.0122  -13.4520   20.4313 N   0  0  0  0  0  0
  -26.3013  -12.9331   20.3314 N   0  0  0  0  0  0
  -25.9345  -11.6496   20.5776 N   0  0  0  0  0  0
  -22.0503  -12.8234   22.0396 N   0  0  0  0  0  0
  -25.4321  -15.1858   20.4016 N   0  0  0  0  0  0
  -31.7532  -14.8791   20.1141 O   0  0  0  0  0  0
  -21.6636   -6.8879   21.4239 O   0  0  0  0  0  0
  -22.3580  -14.5548   20.6691 O   0  0  0  0  0  0
  -24.6294  -31.8516   23.1992 C   0  0  0  0  0  0
  -25.9120  -32.4731   23.8322 C   0  0  1  0  0  0
  -27.2273  -27.2768   20.1337 C   0  0  0  0  0  0
  -25.5929  -33.8533   24.2267 N   0  0  0  0  0  0
  -23.4262  -30.4740   21.5387 C   0  0  2  0  0  0
  -24.8746  -28.9211   20.1092 C   0  0  0  0  0  0
  -22.7500  -29.4566   22.4894 C   0  0  0  0  0  0
  -18.0270  -28.1398   22.8504 C   0  0  0  0  0  0
  -24.1485  -36.7289   23.2637 C   0  0  0  0  0  0
  -25.9674  -30.7710   21.3743 C   0  0  0  0  0  0
  -26.0407  -29.3912   20.7280 C   0  0  0  0  0  0
  -27.2146  -28.5777   20.7353 C   0  0  0  0  0  0
  -26.0427  -26.8735   19.4773 C   0  0  0  0  0  0
  -24.8809  -27.6707   19.4732 C   0  0  0  0  0  0
  -23.6444  -29.8047   20.1543 C   0  0  0  0  0  0
  -25.4097  -36.3053   24.0339 C   0  0  1  0  0  0
  -20.5880  -28.3686   23.1299 C   0  0  2  0  0  0
  -20.6767  -26.9400   22.5437 C   0  0  0  0  0  0
  -19.5738  -26.6367   21.5249 C   0  0  0  0  0  0
  -18.1909  -26.7945   22.1643 C   0  0  0  0  0  0
  -19.1527  -28.8858   23.2905 C   0  0  0  0  0  0
  -18.9458  -30.1469   23.8908 C   0  0  0  0  0  0
  -17.6455  -30.6607   24.0561 C   0  0  0  0  0  0
  -25.9033  -34.9424   23.5107 C   0  0  0  0  0  0
  -16.5341  -29.9114   23.6326 C   0  0  0  0  0  0
  -16.7253  -28.6529   23.0352 C   0  0  0  0  0  0
  -26.4502  -31.6547   25.0699 C   0  0  0  0  0  0
  -25.3727  -31.3721   26.1424 C   0  0  0  0  0  0
  -27.0354  -30.2973   24.6156 C   0  0  0  0  0  0
  -27.6052  -32.4269   25.7486 C   0  0  0  0  0  0
  -27.5580  -37.1790   24.8455 C   0  0  0  0  0  0
  -21.4196  -29.3050   22.3698 N   0  0  0  0  0  0
  -26.4263  -37.3762   23.9430 N   0  0  0  0  0  0
  -24.6925  -31.0511   22.0943 N   0  0  0  0  0  0
  -23.4228  -28.8073   23.2941 O   0  0  0  0  0  0
  -28.3502  -26.4248   20.2012 O   0  0  0  0  0  0
  -26.5599  -34.8911   22.4671 O   0  0  0  0  0  0
  -23.5453  -32.1294   23.7332 O   0  0  0  0  0  0
  -30.7897  -18.0800   20.4480 C   0  0  0  0  0  0
  -28.4439  -17.8315   20.8245 C   0  0  0  0  0  0
  -30.6047  -19.5045   20.2950 C   0  0  0  0  0  0
  -29.3151  -20.1331   20.3730 C   0  0  0  0  0  0
  -29.7047  -17.1907   20.6977 C   0  0  0  0  0  0
  -28.2458  -19.2373   20.6753 C   0  0  0  0  0  0
  -29.1015  -24.0177   20.9563 C   0  0  0  0  0  0
  -31.8280  -20.3587   20.0131 C   0  0  0  0  0  0
  -29.6475  -24.8377   22.1076 C   0  0  0  0  0  0
  -26.6863  -20.4910   21.9117 C   0  0  0  0  0  0
  -29.0282  -21.6639   19.9878 C   0  0  0  0  0  0
  -28.2423  -24.9399   19.9911 C   0  0  0  0  0  0
  -29.3954  -22.7318   20.9671 N   0  0  0  0  0  0
  -29.7473  -15.7221   20.8648 N   0  0  0  0  0  0
  -26.9554  -19.6913   20.7666 O   0  0  0  0  0  0
  -31.4880  -12.5724   19.1535 H   0  0  0  0  0  0
  -30.4101  -11.4356   19.9111 H   0  0  0  0  0  0
  -29.7901  -11.7442   17.5012 H   0  0  0  0  0  0
  -29.6469  -13.4680   17.7316 H   0  0  0  0  0  0
  -27.8892  -11.2840   18.8857 H   0  0  0  0  0  0
  -27.3804  -12.5505   17.8003 H   0  0  0  0  0  0
  -27.6701  -14.2452   19.5125 H   0  0  0  0  0  0
  -28.7292  -12.0660   21.3818 H   0  0  0  0  0  0
  -28.4363  -13.7166   21.8449 H   0  0  0  0  0  0
  -25.2771   -9.5678   22.4776 H   0  0  0  0  0  0
  -24.0010   -7.4625   22.7478 H   0  0  0  0  0  0
  -21.0855   -8.8775   19.8941 H   0  0  0  0  0  0
  -22.3721  -10.9675   19.6177 H   0  0  0  0  0  0
  -21.1977   -7.6143   23.9725 H   0  0  0  0  0  0
  -21.1489   -6.0511   25.9083 H   0  0  0  0  0  0
  -22.0597   -2.7610   23.2834 H   0  0  0  0  0  0
  -22.4095  -11.9897   22.4803 H   0  0  0  0  0  0
  -21.1121  -13.1274   22.2556 H   0  0  0  0  0  0
  -24.6603  -15.8374   20.4875 H   0  0  0  0  0  0
  -26.2578  -15.6061   19.9973 H   0  0  0  0  0  0
  -26.7183  -32.5382   23.1065 H   0  0  0  0  0  0
  -25.0112  -33.9646   25.0444 H   0  0  0  0  0  0
  -22.7247  -31.2967   21.3912 H   0  0  0  0  0  0
  -23.3738  -35.9626   23.3232 H   0  0  0  0  0  0
  -24.3596  -36.8958   22.2064 H   0  0  0  0  0  0
  -23.7246  -37.6486   23.6678 H   0  0  0  0  0  0
  -26.0894  -31.5194   20.5895 H   0  0  0  0  0  0
  -26.8556  -30.8369   21.9912 H   0  0  0  0  0  0
  -28.1018  -28.9233   21.2480 H   0  0  0  0  0  0
  -25.9886  -25.9274   18.9591 H   0  0  0  0  0  0
  -23.9918  -27.3121   18.9711 H   0  0  0  0  0  0
  -23.7683  -30.5745   19.3909 H   0  0  0  0  0  0
  -22.7670  -29.2297   19.8510 H   0  0  0  0  0  0
  -25.1283  -36.1876   25.0829 H   0  0  0  0  0  0
  -20.9970  -28.3224   24.1415 H   0  0  0  0  0  0
  -20.5671  -26.2275   23.3631 H   0  0  0  0  0  0
  -21.6631  -26.7421   22.1206 H   0  0  0  0  0  0
  -19.6886  -25.6271   21.1282 H   0  0  0  0  0  0
  -19.6688  -27.3174   20.6778 H   0  0  0  0  0  0
  -17.4191  -26.6687   21.4033 H   0  0  0  0  0  0
  -18.0277  -26.0105   22.9048 H   0  0  0  0  0  0
  -19.7934  -30.7287   24.2271 H   0  0  0  0  0  0
  -17.5009  -31.6284   24.5173 H   0  0  0  0  0  0
  -15.5349  -30.3034   23.7654 H   0  0  0  0  0  0
  -15.8638  -28.0867   22.7065 H   0  0  0  0  0  0
  -24.5901  -30.7069   25.7766 H   0  0  0  0  0  0
  -24.8928  -32.2917   26.4784 H   0  0  0  0  0  0
  -25.8033  -30.8942   27.0236 H   0  0  0  0  0  0
  -26.2947  -29.6710   24.1175 H   0  0  0  0  0  0
  -27.4077  -29.7227   25.4651 H   0  0  0  0  0  0
  -27.8794  -30.4276   23.9376 H   0  0  0  0  0  0
  -27.2661  -33.3574   26.2049 H   0  0  0  0  0  0
  -28.3889  -32.6800   25.0332 H   0  0  0  0  0  0
  -28.0687  -31.8389   26.5418 H   0  0  0  0  0  0
  -28.2541  -38.0140   24.7546 H   0  0  0  0  0  0
  -28.1137  -36.2674   24.6204 H   0  0  0  0  0  0
  -27.2321  -37.1347   25.8862 H   0  0  0  0  0  0
  -20.9355  -29.8847   21.6985 H   0  0  0  0  0  0
  -26.0128  -38.2820   24.1474 H   0  0  0  0  0  0
  -31.7857  -17.6662   20.3618 H   0  0  0  0  0  0
  -27.5728  -17.2258   21.0295 H   0  0  0  0  0  0
  -32.7518  -19.8030   20.1785 H   0  0  0  0  0  0
  -31.8482  -21.2305   20.6682 H   0  0  0  0  0  0
  -31.8232  -20.7064   18.9797 H   0  0  0  0  0  0
  -28.8255  -25.2741   22.6760 H   0  0  0  0  0  0
  -30.2777  -25.6450   21.7334 H   0  0  0  0  0  0
  -30.2458  -24.2264   22.7830 H   0  0  0  0  0  0
  -27.5733  -20.9524   22.3477 H   0  0  0  0  0  0
  -26.2135  -19.8847   22.6844 H   0  0  0  0  0  0
  -25.9947  -21.2873   21.6387 H   0  0  0  0  0  0
  -27.9729  -21.7611   19.7310 H   0  0  0  0  0  0
  -29.5478  -21.8541   19.0474 H   0  0  0  0  0  0
  -27.2143  -24.6001   20.1032 H   0  0  0  0  0  0
  -28.5345  -24.7232   18.9633 H   0  0  0  0  0  0
  -28.8662  -15.3372   21.1697 H   0  0  0  0  0  0
  1 25  1  0  0  0
  1 30  2  0  0  0
  1 84  1  0  0  0
  2  3  1  0  0  0
  2 25  1  0  0  0
  2 86  1  0  0  0
  2 87  1  0  0  0
  3  4  1  0  0  0
  3 88  1  0  0  0
  3 89  1  0  0  0
  4  5  1  0  0  0
  4 90  1  0  0  0
  4 91  1  0  0  0
  5  6  1  0  0  0
  5 26  1  0  0  0
  5 92  1  0  0  0
  6 25  1  0  0  0
  6 93  1  0  0  0
  6 94  1  0  0  0
  7  8  2  0  0  0
  7 26  1  0  0  0
  7 29  1  0  0  0
  8  9  1  0  0  0
  8 22  1  0  0  0
  9 10  1  0  0  0
  9 27  2  0  0  0
 10 11  2  0  0  0
 10 15  1  0  0  0
 11 12  1  0  0  0
 11 95  1  0  0  0
 12 13  2  0  0  0
 12 96  1  0  0  0
 13 14  1  0  0  0
 13 31  1  0  0  0
 14 15  2  0  0  0
 14 97  1  0  0  0
 15 98  1  0  0  0
 16 17  2  0  0  0
 16 21  1  0  0  0
 16 31  1  0  0  0
 17 18  1  0  0  0
 17 99  1  0  0  0
 18 19  2  0  0  0
 18100  1  0  0  0
 19 20  1  0  0  0
 19 24  1  0  0  0
 20 21  2  0  0  0
 20101  1  0  0  0
 21 23  1  0  0  0
 22 28  1  0  0  0
 22 32  2  0  0  0
 26 27  1  0  0  0
 28102  1  0  0  0
 28103  1  0  0  0
 29104  1  0  0  0
 29105  1  0  0  0
 33 34  1  0  0  0
 33 66  1  0  0  0
 33 70  2  0  0  0
 34 36  1  0  0  0
 34 59  1  0  0  0
 34106  1  0  0  0
 35 44  2  0  0  0
 35 45  1  0  0  0
 35 68  1  0  0  0
 36 56  1  0  0  0
 36107  1  0  0  0
 37 39  1  0  0  0
 37 47  1  0  0  0
 37 66  1  0  0  0
 37108  1  0  0  0
 38 43  2  0  0  0
 38 46  1  0  0  0
 38 47  1  0  0  0
 39 64  1  0  0  0
 39 67  2  0  0  0
 40 52  1  0  0  0
 40 53  2  0  0  0
 40 58  1  0  0  0
 41109  1  0  0  0
 41110  1  0  0  0
 41111  1  0  0  0
 41 48  1  0  0  0
 42 43  1  0  0  0
 42 66  1  0  0  0
 42112  1  0  0  0
 42113  1  0  0  0
 43 44  1  0  0  0
 44114  1  0  0  0
 45 46  2  0  0  0
 45115  1  0  0  0
 46116  1  0  0  0
 47117  1  0  0  0
 47118  1  0  0  0
 48 56  1  0  0  0
 48 65  1  0  0  0
 48119  1  0  0  0
 49 50  1  0  0  0
 49 53  1  0  0  0
 49 64  1  0  0  0
 49120  1  0  0  0
 50 51  1  0  0  0
 50121  1  0  0  0
 50122  1  0  0  0
 51 52  1  0  0  0
 51123  1  0  0  0
 51124  1  0  0  0
 52125  1  0  0  0
 52126  1  0  0  0
 53 54  1  0  0  0
 54 55  2  0  0  0
 54127  1  0  0  0
 55 57  1  0  0  0
 55128  1  0  0  0
 56 69  2  0  0  0
 57 58  2  0  0  0
 57129  1  0  0  0
 58130  1  0  0  0
 59 60  1  0  0  0
 59 61  1  0  0  0
 59 62  1  0  0  0
 60131  1  0  0  0
 60132  1  0  0  0
 60133  1  0  0  0
 61134  1  0  0  0
 61135  1  0  0  0
 61136  1  0  0  0
 62137  1  0  0  0
 62138  1  0  0  0
 62139  1  0  0  0
 63 65  1  0  0  0
 63140  1  0  0  0
 63141  1  0  0  0
 63142  1  0  0  0
 64143  1  0  0  0
 65144  1  0  0  0
 68 82  1  0  0  0
 71 73  2  0  0  0
 71 75  1  0  0  0
 71145  1  0  0  0
 72 75  2  0  0  0
 72 76  1  0  0  0
 72146  1  0  0  0
 73 74  1  0  0  0
 73 78  1  0  0  0
 74 76  2  0  0  0
 74 81  1  0  0  0
 75 84  1  0  0  0
 76 85  1  0  0  0
 77 79  1  0  0  0
 77 82  1  0  0  0
 77 83  2  0  0  0
 78147  1  0  0  0
 78148  1  0  0  0
 78149  1  0  0  0
 79150  1  0  0  0
 79151  1  0  0  0
 79152  1  0  0  0
 80 85  1  0  0  0
 80153  1  0  0  0
 80154  1  0  0  0
 80155  1  0  0  0
 81 83  1  0  0  0
 81156  1  0  0  0
 81157  1  0  0  0
 82158  1  0  0  0
 82159  1  0  0  0
 84160  1  0  0  0
M  ISO  4   1 100  68 101  82 101  84 100
M  END
> <chiral flag>
0

> <version>
0

> <s_m_source_file>
/data/baiqing/PycharmProjects/Reinvent-master-3.2/result/LINK_invent/BTK/process_docking_weight1_custom_sum_contain_oxygen_bond_distance_aromatic_linkinvent_7_9_3/rearranged_h_0014.sdf

> <i_m_source_file_index>
32

> <r_mmod_Potential_Energy-OPLS-2005>
183.320404052734

> <r_mmod_Stretch_Energy-OPLS-2005>
107.573013305664

> <r_mmod_Bend_Energy-OPLS-2005>
189.817504882812

> <r_mmod_Torsional_Energy-OPLS-2005>
242.536804199219

> <r_mmod_Improper_Torsional_Energy-OPLS-2005>
5.10260772705078

> <r_mmod_Van_der_Waal_Energy-OPLS-2005>
135.774353027344

> <r_mmod_Electrostatic_Energy-OPLS-2005>
-354.293518066406

> <r_mmod_Solvation_Energy-OPLS-2005>
-211.598495483398

> <b_mmod_Minimization_Converged-OPLS-2005>
0

> <r_mmod_RMS_Derivative-OPLS-2005>
2.45719981193542

$$$$
32
                    3D
 Structure written by MMmdl.
144152  0  0  1  0            999 V2000
  -30.0947  -16.1346   20.2921 C   0  0  0  0  0  0
  -30.3819  -13.4587   19.5501 C   0  0  0  0  0  0
  -29.5698  -12.7990   18.3808 C   0  0  0  0  0  0
  -28.1864  -12.3306   18.8441 C   0  0  0  0  0  0
  -27.5832  -13.3625   19.8145 C   0  0  2  0  0  0
  -28.5605  -13.8961   20.9035 C   0  0  0  0  0  0
  -25.2249  -13.8363   20.5876 C   0  0  0  0  0  0
  -24.1691  -13.0443   20.9331 C   0  0  0  0  0  0
  -24.6468  -11.6977   20.8761 C   0  0  0  0  0  0
  -23.9174  -10.4303   21.0375 C   0  0  0  0  0  0
  -24.3689   -9.4212   21.9167 C   0  0  0  0  0  0
  -23.6337   -8.2259   22.0748 C   0  0  0  0  0  0
  -22.4315   -8.0301   21.3548 C   0  0  0  0  0  0
  -21.9974   -9.0276   20.4639 C   0  0  0  0  0  0
  -22.7331  -10.2143   20.3036 C   0  0  0  0  0  0
  -21.6865   -6.0749   22.5281 C   0  0  0  0  0  0
  -21.4023   -6.5646   23.8216 C   0  0  0  0  0  0
  -21.3665   -5.6796   24.9174 C   0  0  0  0  0  0
  -21.6043   -4.3059   24.7223 C   0  0  0  0  0  0
  -21.8818   -3.8157   23.4342 C   0  0  0  0  0  0
  -21.9198   -4.6974   22.3398 C   0  0  0  0  0  0
  -22.7692  -13.5125   21.1945 C   0  0  0  0  0  0
  -22.1665   -4.2154   21.0975 F   0  0  0  0  0  0
  -21.5626   -3.4542   25.7737 F   0  0  0  0  0  0
  -29.6508  -14.6746   20.2223 N   0  0  0  0  0  0
  -26.2766  -12.9802   20.3330 N   0  0  0  0  0  0
  -25.9435  -11.6809   20.5678 N   0  0  0  0  0  0
  -22.0371  -12.8083   22.0489 N   0  0  0  0  0  0
  -25.3757  -15.2114   20.4310 N   0  0  0  0  0  0
  -31.3419  -16.0083   20.1738 O   0  0  0  0  0  0
  -21.6664   -6.8904   21.4250 O   0  0  0  0  0  0
  -22.3347  -14.5416   20.6773 O   0  0  0  0  0  0
  -24.7160  -31.7588   23.1240 C   0  0  0  0  0  0
  -25.9573  -32.4264   23.7911 C   0  0  1  0  0  0
  -27.2412  -26.3527   20.2504 C   0  0  0  0  0  0
  -25.6006  -33.8113   24.1757 N   0  0  0  0  0  0
  -23.5580  -30.3442   21.4865 C   0  0  2  0  0  0
  -25.0169  -28.6086   20.1309 C   0  0  0  0  0  0
  -22.7908  -29.4095   22.4638 C   0  0  0  0  0  0
  -18.0352  -28.1445   22.8425 C   0  0  0  0  0  0
  -24.1512  -36.7082   23.2671 C   0  0  0  0  0  0
  -26.1496  -30.3747   21.4420 C   0  0  0  0  0  0
  -26.2087  -28.8989   20.8029 C   0  0  0  0  0  0
  -27.2852  -27.8100   20.8204 C   0  0  0  0  0  0
  -26.0149  -26.3631   19.5079 C   0  0  0  0  0  0
  -24.9796  -27.3702   19.4582 C   0  0  0  0  0  0
  -23.8296  -29.6059   20.1376 C   0  0  0  0  0  0
  -25.4184  -36.2784   24.0249 C   0  0  1  0  0  0
  -20.6000  -28.3818   23.1079 C   0  0  2  0  0  0
  -20.6804  -26.9448   22.5411 C   0  0  0  0  0  0
  -19.5784  -26.6363   21.5225 C   0  0  0  0  0  0
  -18.1964  -26.7959   22.1613 C   0  0  0  0  0  0
  -19.1627  -28.8965   23.2717 C   0  0  0  0  0  0
  -18.9522  -30.1534   23.8787 C   0  0  0  0  0  0
  -17.6509  -30.6610   24.0545 C   0  0  0  0  0  0
  -25.9161  -34.9171   23.4867 C   0  0  0  0  0  0
  -16.5397  -29.9086   23.6359 C   0  0  0  0  0  0
  -16.7329  -28.6516   23.0362 C   0  0  0  0  0  0
  -26.4649  -31.6445   25.0673 C   0  0  0  0  0  0
  -25.3625  -31.3851   26.1223 C   0  0  0  0  0  0
  -27.0627  -30.2743   24.6803 C   0  0  0  0  0  0
  -27.6036  -32.4382   25.7517 C   0  0  0  0  0  0
  -27.5527  -37.1754   24.8500 C   0  0  0  0  0  0
  -21.4528  -29.2991   22.3369 N   0  0  0  0  0  0
  -26.4308  -37.3547   23.9325 N   0  0  0  0  0  0
  -24.8359  -30.8678   22.0693 N   0  0  0  0  0  0
  -23.4185  -28.7755   23.3144 O   0  0  0  0  0  0
  -28.2103  -25.0123   20.2711 O   0  0  0  0  0  0
  -26.5852  -34.8803   22.4518 O   0  0  0  0  0  0
  -23.6111  -32.0831   23.5973 O   0  0  0  0  0  0
  -29.9014  -20.7784   20.1587 C   0  0  0  0  0  0
  -27.8305  -20.4022   20.4249 C   0  0  0  0  0  0
  -29.0806  -19.4830   20.3029 C   0  0  0  0  0  0
  -28.3706  -23.2672   20.2632 C   0  0  0  0  0  0
  -29.6143  -22.3487   20.1447 C   0  0  0  0  0  0
  -27.5273  -21.9815   20.4048 C   0  0  0  0  0  0
  -26.5644  -19.5797   20.6118 C   0  0  0  0  0  0
  -29.2846  -17.6006   20.3279 N   0  0  0  0  0  0
  -30.7547  -23.0661   19.9919 F   0  0  0  0  0  0
  -26.2104  -22.2743   20.5447 F   0  0  0  0  0  0
  -31.3309  -13.7945   19.1313 H   0  0  0  0  0  0
  -30.6673  -12.7089   20.2897 H   0  0  0  0  0  0
  -30.1257  -11.9666   17.9474 H   0  0  0  0  0  0
  -29.4502  -13.5340   17.5836 H   0  0  0  0  0  0
  -28.3027  -11.3764   19.3589 H   0  0  0  0  0  0
  -27.5273  -12.1520   17.9938 H   0  0  0  0  0  0
  -27.3837  -14.2186   19.1685 H   0  0  0  0  0  0
  -28.9302  -13.0973   21.5482 H   0  0  0  0  0  0
  -28.0320  -14.5838   21.5647 H   0  0  0  0  0  0
  -25.2824   -9.5680   22.4761 H   0  0  0  0  0  0
  -24.0030   -7.4651   22.7475 H   0  0  0  0  0  0
  -21.0905   -8.8810   19.8944 H   0  0  0  0  0  0
  -22.3789  -10.9684   19.6147 H   0  0  0  0  0  0
  -21.2020   -7.6155   23.9721 H   0  0  0  0  0  0
  -21.1486   -6.0525   25.9076 H   0  0  0  0  0  0
  -22.0592   -2.7619   23.2842 H   0  0  0  0  0  0
  -22.4039  -11.9769   22.4883 H   0  0  0  0  0  0
  -21.0966  -13.1045   22.2678 H   0  0  0  0  0  0
  -24.5971  -15.8527   20.5349 H   0  0  0  0  0  0
  -26.2060  -15.6520   20.0597 H   0  0  0  0  0  0
  -26.7689  -32.4651   23.0645 H   0  0  0  0  0  0
  -24.9992  -33.9107   24.9800 H   0  0  0  0  0  0
  -22.9037  -31.1902   21.2659 H   0  0  0  0  0  0
  -23.3734  -35.9467   23.3426 H   0  0  0  0  0  0
  -24.3511  -36.8671   22.2062 H   0  0  0  0  0  0
  -23.7366  -37.6317   23.6721 H   0  0  0  0  0  0
  -26.3845  -31.0727   20.6376 H   0  0  0  0  0  0
  -26.9914  -30.4580   22.1162 H   0  0  0  0  0  0
  -28.1820  -28.0560   21.3714 H   0  0  0  0  0  0
  -25.8013  -25.4536   18.9647 H   0  0  0  0  0  0
  -24.0925  -27.1342   18.8871 H   0  0  0  0  0  0
  -24.0321  -30.3496   19.3662 H   0  0  0  0  0  0
  -22.9275  -29.0874   19.8082 H   0  0  0  0  0  0
  -25.1444  -36.1536   25.0751 H   0  0  0  0  0  0
  -21.0053  -28.3471   24.1219 H   0  0  0  0  0  0
  -20.5634  -26.2461   23.3705 H   0  0  0  0  0  0
  -21.6663  -26.7339   22.1254 H   0  0  0  0  0  0
  -19.6947  -25.6250   21.1317 H   0  0  0  0  0  0
  -19.6742  -27.3123   20.6717 H   0  0  0  0  0  0
  -17.4235  -26.6689   21.4013 H   0  0  0  0  0  0
  -18.0342  -26.0141   22.9048 H   0  0  0  0  0  0
  -19.7998  -30.7368   24.2118 H   0  0  0  0  0  0
  -17.5058  -31.6279   24.5166 H   0  0  0  0  0  0
  -15.5390  -30.2948   23.7757 H   0  0  0  0  0  0
  -15.8726  -28.0801   22.7135 H   0  0  0  0  0  0
  -24.5874  -30.7144   25.7498 H   0  0  0  0  0  0
  -24.8758  -32.3098   26.4328 H   0  0  0  0  0  0
  -25.7730  -30.9221   27.0207 H   0  0  0  0  0  0
  -26.3394  -29.6259   24.1850 H   0  0  0  0  0  0
  -27.3973  -29.7319   25.5655 H   0  0  0  0  0  0
  -27.9410  -30.3793   24.0436 H   0  0  0  0  0  0
  -27.2537  -33.3791   26.1779 H   0  0  0  0  0  0
  -28.4016  -32.6766   25.0473 H   0  0  0  0  0  0
  -28.0520  -31.8726   26.5698 H   0  0  0  0  0  0
  -28.2670  -37.9904   24.7269 H   0  0  0  0  0  0
  -28.0891  -36.2421   24.6731 H   0  0  0  0  0  0
  -27.2177  -37.1865   25.8884 H   0  0  0  0  0  0
  -20.9925  -29.8588   21.6324 H   0  0  0  0  0  0
  -26.0129  -38.2633   24.1134 H   0  0  0  0  0  0
  -30.9536  -20.5699   20.0341 H   0  0  0  0  0  0
  -26.7807  -18.5816   20.9920 H   0  0  0  0  0  0
  -26.0372  -19.4747   19.6633 H   0  0  0  0  0  0
  -25.8873  -20.0468   21.3284 H   0  0  0  0  0  0
  -28.3412  -17.2477   20.4078 H   0  0  0  0  0  0
  1 25  1  0  0  0
  1 30  2  0  0  0
  1 78  1  0  0  0
  2  3  1  0  0  0
  2 25  1  0  0  0
  2 81  1  0  0  0
  2 82  1  0  0  0
  3  4  1  0  0  0
  3 83  1  0  0  0
  3 84  1  0  0  0
  4  5  1  0  0  0
  4 85  1  0  0  0
  4 86  1  0  0  0
  5  6  1  0  0  0
  5 26  1  0  0  0
  5 87  1  0  0  0
  6 25  1  0  0  0
  6 88  1  0  0  0
  6 89  1  0  0  0
  7  8  2  0  0  0
  7 26  1  0  0  0
  7 29  1  0  0  0
  8  9  1  0  0  0
  8 22  1  0  0  0
  9 10  1  0  0  0
  9 27  2  0  0  0
 10 11  2  0  0  0
 10 15  1  0  0  0
 11 12  1  0  0  0
 11 90  1  0  0  0
 12 13  2  0  0  0
 12 91  1  0  0  0
 13 14  1  0  0  0
 13 31  1  0  0  0
 14 15  2  0  0  0
 14 92  1  0  0  0
 15 93  1  0  0  0
 16 17  2  0  0  0
 16 21  1  0  0  0
 16 31  1  0  0  0
 17 18  1  0  0  0
 17 94  1  0  0  0
 18 19  2  0  0  0
 18 95  1  0  0  0
 19 20  1  0  0  0
 19 24  1  0  0  0
 20 21  2  0  0  0
 20 96  1  0  0  0
 21 23  1  0  0  0
 22 28  1  0  0  0
 22 32  2  0  0  0
 26 27  1  0  0  0
 28 97  1  0  0  0
 28 98  1  0  0  0
 29 99  1  0  0  0
 29100  1  0  0  0
 33 34  1  0  0  0
 33 66  1  0  0  0
 33 70  2  0  0  0
 34 36  1  0  0  0
 34 59  1  0  0  0
 34101  1  0  0  0
 35 44  2  0  0  0
 35 45  1  0  0  0
 35 68  1  0  0  0
 36 56  1  0  0  0
 36102  1  0  0  0
 37 39  1  0  0  0
 37 47  1  0  0  0
 37 66  1  0  0  0
 37103  1  0  0  0
 38 43  2  0  0  0
 38 46  1  0  0  0
 38 47  1  0  0  0
 39 64  1  0  0  0
 39 67  2  0  0  0
 40 52  1  0  0  0
 40 53  2  0  0  0
 40 58  1  0  0  0
 41104  1  0  0  0
 41105  1  0  0  0
 41106  1  0  0  0
 41 48  1  0  0  0
 42 43  1  0  0  0
 42 66  1  0  0  0
 42107  1  0  0  0
 42108  1  0  0  0
 43 44  1  0  0  0
 44109  1  0  0  0
 45 46  2  0  0  0
 45110  1  0  0  0
 46111  1  0  0  0
 47112  1  0  0  0
 47113  1  0  0  0
 48 56  1  0  0  0
 48 65  1  0  0  0
 48114  1  0  0  0
 49 50  1  0  0  0
 49 53  1  0  0  0
 49 64  1  0  0  0
 49115  1  0  0  0
 50 51  1  0  0  0
 50116  1  0  0  0
 50117  1  0  0  0
 51 52  1  0  0  0
 51118  1  0  0  0
 51119  1  0  0  0
 52120  1  0  0  0
 52121  1  0  0  0
 53 54  1  0  0  0
 54 55  2  0  0  0
 54122  1  0  0  0
 55 57  1  0  0  0
 55123  1  0  0  0
 56 69  2  0  0  0
 57 58  2  0  0  0
 57124  1  0  0  0
 58125  1  0  0  0
 59 60  1  0  0  0
 59 61  1  0  0  0
 59 62  1  0  0  0
 60126  1  0  0  0
 60127  1  0  0  0
 60128  1  0  0  0
 61129  1  0  0  0
 61130  1  0  0  0
 61131  1  0  0  0
 62132  1  0  0  0
 62133  1  0  0  0
 62134  1  0  0  0
 63 65  1  0  0  0
 63135  1  0  0  0
 63136  1  0  0  0
 63137  1  0  0  0
 64138  1  0  0  0
 65139  1  0  0  0
 68 74  1  0  0  0
 71 73  2  0  0  0
 71 75  1  0  0  0
 71140  1  0  0  0
 72 73  1  0  0  0
 72 76  2  0  0  0
 72 77  1  0  0  0
 73 78  1  0  0  0
 74 75  2  0  0  0
 74 76  1  0  0  0
 75 79  1  0  0  0
 76 80  1  0  0  0
 77141  1  0  0  0
 77142  1  0  0  0
 77143  1  0  0  0
 78144  1  0  0  0
M  ISO  4   1 100  68 101  74 101  78 100
M  END
> <chiral flag>
0

> <version>
0

> <s_m_source_file>
/data/baiqing/PycharmProjects/Reinvent-master-3.2/result/LINK_invent/BTK/process_docking_weight1_custom_sum_contain_oxygen_bond_distance_aromatic_linkinvent_7_9_3/rearranged_h_0014.sdf

> <i_m_source_file_index>
33

> <r_mmod_Potential_Energy-OPLS-2005>
4250.0673828125

> <r_mmod_Stretch_Energy-OPLS-2005>
1629.91662597656

> <r_mmod_Bend_Energy-OPLS-2005>
1014.64031982422

> <r_mmod_Torsional_Energy-OPLS-2005>
214.132339477539

> <r_mmod_Improper_Torsional_Energy-OPLS-2005>
3.83714509010315

> <r_mmod_Van_der_Waal_Energy-OPLS-2005>
142.944732666016

> <r_mmod_Electrostatic_Energy-OPLS-2005>
-331.186004638672

> <r_mmod_Solvation_Energy-OPLS-2005>
-214.540588378906

> <b_mmod_Minimization_Converged-OPLS-2005>
0

> <r_mmod_RMS_Derivative-OPLS-2005>
1.43089151382446

$$$$
33
                    3D
 Structure written by MMmdl.
155163  0  0  1  0            999 V2000
  -30.6173  -14.6321   20.5149 C   0  0  0  0  0  0
  -30.4419  -12.3894   19.4524 C   0  0  0  0  0  0
  -29.5096  -12.5106   18.2257 C   0  0  0  0  0  0
  -28.0318  -12.3483   18.6359 C   0  0  0  0  0  0
  -27.6569  -13.2133   19.8684 C   0  0  2  0  0  0
  -28.7003  -13.0508   20.9972 C   0  0  0  0  0  0
  -25.2573  -13.8162   20.5681 C   0  0  0  0  0  0
  -24.1833  -13.0433   20.9179 C   0  0  0  0  0  0
  -24.6397  -11.6903   20.8736 C   0  0  0  0  0  0
  -23.9064  -10.4289   21.0405 C   0  0  0  0  0  0
  -24.3616   -9.4206   21.9183 C   0  0  0  0  0  0
  -23.6292   -8.2242   22.0753 C   0  0  0  0  0  0
  -22.4274   -8.0281   21.3544 C   0  0  0  0  0  0
  -21.9910   -9.0253   20.4646 C   0  0  0  0  0  0
  -22.7237  -10.2131   20.3054 C   0  0  0  0  0  0
  -21.6852   -6.0738   22.5281 C   0  0  0  0  0  0
  -21.4013   -6.5642   23.8215 C   0  0  0  0  0  0
  -21.3659   -5.6793   24.9176 C   0  0  0  0  0  0
  -21.6043   -4.3054   24.7227 C   0  0  0  0  0  0
  -21.8819   -3.8148   23.4347 C   0  0  0  0  0  0
  -21.9193   -4.6965   22.3403 C   0  0  0  0  0  0
  -22.7857  -13.5232   21.1848 C   0  0  0  0  0  0
  -22.1662   -4.2151   21.0979 F   0  0  0  0  0  0
  -21.5629   -3.4536   25.7739 F   0  0  0  0  0  0
  -30.0192  -13.4006   20.4420 N   0  0  0  0  0  0
  -26.3005  -12.9339   20.3337 N   0  0  0  0  0  0
  -25.9326  -11.6495   20.5760 N   0  0  0  0  0  0
  -22.0497  -12.8224   22.0405 N   0  0  0  0  0  0
  -25.4288  -15.1881   20.4093 N   0  0  0  0  0  0
  -31.7590  -14.8218   20.0838 O   0  0  0  0  0  0
  -21.6638   -6.8879   21.4242 O   0  0  0  0  0  0
  -22.3540  -14.5539   20.6701 O   0  0  0  0  0  0
  -24.6252  -31.8608   23.2030 C   0  0  0  0  0  0
  -25.9100  -32.4785   23.8360 C   0  0  1  0  0  0
  -27.2247  -27.3236   20.1114 C   0  0  0  0  0  0
  -25.5916  -33.8586   24.2285 N   0  0  0  0  0  0
  -23.4189  -30.4851   21.5458 C   0  0  2  0  0  0
  -24.8649  -28.9431   20.1091 C   0  0  0  0  0  0
  -22.7470  -29.4634   22.4937 C   0  0  0  0  0  0
  -18.0290  -28.1390   22.8494 C   0  0  0  0  0  0
  -24.1487  -36.7293   23.2639 C   0  0  0  0  0  0
  -25.9603  -30.7914   21.3755 C   0  0  0  0  0  0
  -26.0335  -29.4197   20.7164 C   0  0  0  0  0  0
  -27.2146  -28.6204   20.7114 C   0  0  0  0  0  0
  -26.0343  -26.9068   19.4691 C   0  0  0  0  0  0
  -24.8669  -27.6913   19.4775 C   0  0  0  0  0  0
  -23.6325  -29.8220   20.1602 C   0  0  0  0  0  0
  -25.4114  -36.3088   24.0333 C   0  0  1  0  0  0
  -20.5891  -28.3689   23.1286 C   0  0  2  0  0  0
  -20.6782  -26.9415   22.5409 C   0  0  0  0  0  0
  -19.5756  -26.6387   21.5215 C   0  0  0  0  0  0
  -18.1935  -26.7936   22.1626 C   0  0  0  0  0  0
  -19.1544  -28.8856   23.2886 C   0  0  0  0  0  0
  -18.9468  -30.1461   23.8902 C   0  0  0  0  0  0
  -17.6469  -30.6595   24.0568 C   0  0  0  0  0  0
  -25.9049  -34.9457   23.5110 C   0  0  0  0  0  0
  -16.5359  -29.9095   23.6335 C   0  0  0  0  0  0
  -16.7279  -28.6510   23.0357 C   0  0  0  0  0  0
  -26.4486  -31.6591   25.0728 C   0  0  0  0  0  0
  -25.3719  -31.3735   26.1455 C   0  0  0  0  0  0
  -27.0329  -30.3019   24.6173 C   0  0  0  0  0  0
  -27.6047  -32.4325   25.7496 C   0  0  0  0  0  0
  -27.5582  -37.1803   24.8468 C   0  0  0  0  0  0
  -21.4184  -29.3045   22.3676 N   0  0  0  0  0  0
  -26.4294  -37.3782   23.9413 N   0  0  0  0  0  0
  -24.6868  -31.0626   22.0979 N   0  0  0  0  0  0
  -23.4196  -28.8174   23.3015 O   0  0  0  0  0  0
  -28.3431  -26.4747   20.1746 O   0  0  0  0  0  0
  -26.5617  -34.8924   22.4678 O   0  0  0  0  0  0
  -23.5417  -32.1404   23.7361 O   0  0  0  0  0  0
  -30.6532  -17.8645   19.9585 C   0  0  0  0  0  0
  -28.9474  -19.2726   21.7015 C   0  0  0  0  0  0
  -29.8730  -17.1047   20.8705 C   0  0  0  0  0  0
  -29.7472  -20.0382   20.8054 C   0  0  0  0  0  0
  -30.5867  -19.2928   19.9238 C   0  0  0  0  0  0
  -29.0083  -17.8443   21.7164 C   0  0  0  0  0  0
  -28.0338  -19.9800   22.6924 C   0  0  0  0  0  0
  -29.1880  -23.9728   20.5004 C   0  0  0  0  0  0
  -28.9387  -22.4260   20.1822 C   0  0  0  0  0  0
  -28.1478  -25.0265   19.9246 C   0  0  0  0  0  0
  -29.8275  -15.6461   20.9788 N   0  0  0  0  0  0
  -29.8282  -21.4715   20.9077 N   0  0  0  0  0  0
  -31.3839  -19.9585   19.0519 F   0  0  0  0  0  0
  -28.2273  -17.1509   22.5815 F   0  0  0  0  0  0
  -31.4824  -12.5200   19.1504 H   0  0  0  0  0  0
  -30.3810  -11.3897   19.8850 H   0  0  0  0  0  0
  -29.7732  -11.7622   17.4770 H   0  0  0  0  0  0
  -29.6528  -13.4816   17.7488 H   0  0  0  0  0  0
  -27.8674  -11.2943   18.8626 H   0  0  0  0  0  0
  -27.3777  -12.5828   17.7955 H   0  0  0  0  0  0
  -27.6811  -14.2517   19.5375 H   0  0  0  0  0  0
  -28.7094  -12.0225   21.3619 H   0  0  0  0  0  0
  -28.4407  -13.6649   21.8607 H   0  0  0  0  0  0
  -25.2763   -9.5683   22.4755 H   0  0  0  0  0  0
  -24.0005   -7.4633   22.7470 H   0  0  0  0  0  0
  -21.0843   -8.8772   19.8950 H   0  0  0  0  0  0
  -22.3699  -10.9670   19.6160 H   0  0  0  0  0  0
  -21.2004   -7.6150   23.9720 H   0  0  0  0  0  0
  -21.1480   -6.0521   25.9081 H   0  0  0  0  0  0
  -22.0598   -2.7611   23.2846 H   0  0  0  0  0  0
  -22.4112  -11.9885   22.4792 H   0  0  0  0  0  0
  -21.1113  -13.1249   22.2606 H   0  0  0  0  0  0
  -24.6652  -15.8446   20.5279 H   0  0  0  0  0  0
  -26.2861  -15.6301   20.1033 H   0  0  0  0  0  0
  -26.7168  -32.5454   23.1109 H   0  0  0  0  0  0
  -25.0073  -33.9737   25.0434 H   0  0  0  0  0  0
  -22.7133  -31.3061   21.4042 H   0  0  0  0  0  0
  -23.3753  -35.9621   23.3306 H   0  0  0  0  0  0
  -24.3583  -36.8905   22.2053 H   0  0  0  0  0  0
  -23.7234  -37.6496   23.6654 H   0  0  0  0  0  0
  -26.0942  -31.5555   20.6086 H   0  0  0  0  0  0
  -26.8404  -30.8376   22.0049 H   0  0  0  0  0  0
  -28.1085  -28.9800   21.2020 H   0  0  0  0  0  0
  -25.9743  -25.9572   18.9595 H   0  0  0  0  0  0
  -23.9730  -27.3235   18.9927 H   0  0  0  0  0  0
  -23.7508  -30.5993   19.4045 H   0  0  0  0  0  0
  -22.7528  -29.2507   19.8583 H   0  0  0  0  0  0
  -25.1293  -36.1944   25.0825 H   0  0  0  0  0  0
  -20.9992  -28.3265   24.1403 H   0  0  0  0  0  0
  -20.5691  -26.2300   23.3609 H   0  0  0  0  0  0
  -21.6651  -26.7453   22.1197 H   0  0  0  0  0  0
  -19.6918  -25.6296   21.1247 H   0  0  0  0  0  0
  -19.6695  -27.3201   20.6747 H   0  0  0  0  0  0
  -17.4207  -26.6690   21.4025 H   0  0  0  0  0  0
  -18.0335  -26.0078   22.9021 H   0  0  0  0  0  0
  -19.7945  -30.7280   24.2264 H   0  0  0  0  0  0
  -17.5027  -31.6273   24.5171 H   0  0  0  0  0  0
  -15.5363  -30.3002   23.7655 H   0  0  0  0  0  0
  -15.8678  -28.0832   22.7071 H   0  0  0  0  0  0
  -24.5896  -30.7079   25.7792 H   0  0  0  0  0  0
  -24.8909  -32.2906   26.4868 H   0  0  0  0  0  0
  -25.8046  -30.8927   27.0237 H   0  0  0  0  0  0
  -26.2903  -29.6773   24.1194 H   0  0  0  0  0  0
  -27.4038  -29.7268   25.4666 H   0  0  0  0  0  0
  -27.8766  -30.4321   23.9392 H   0  0  0  0  0  0
  -27.2659  -33.3629   26.2070 H   0  0  0  0  0  0
  -28.3858  -32.6876   25.0322 H   0  0  0  0  0  0
  -28.0709  -31.8449   26.5416 H   0  0  0  0  0  0
  -28.2601  -38.0098   24.7518 H   0  0  0  0  0  0
  -28.1074  -36.2631   24.6291 H   0  0  0  0  0  0
  -27.2304  -37.1452   25.8872 H   0  0  0  0  0  0
  -20.9361  -29.8761   21.6882 H   0  0  0  0  0  0
  -26.0175  -38.2857   24.1411 H   0  0  0  0  0  0
  -31.3184  -17.3629   19.2724 H   0  0  0  0  0  0
  -28.6235  -20.4494   23.4796 H   0  0  0  0  0  0
  -27.3302  -19.2937   23.1625 H   0  0  0  0  0  0
  -27.4458  -20.7519   22.1975 H   0  0  0  0  0  0
  -30.1833  -24.2444   20.1479 H   0  0  0  0  0  0
  -29.2122  -24.1026   21.5827 H   0  0  0  0  0  0
  -29.0446  -22.2591   19.1091 H   0  0  0  0  0  0
  -27.9031  -22.1811   20.4215 H   0  0  0  0  0  0
  -27.1835  -24.7242   20.3345 H   0  0  0  0  0  0
  -28.0814  -24.8858   18.8450 H   0  0  0  0  0  0
  -28.9953  -15.3135   21.4437 H   0  0  0  0  0  0
  -29.9386  -21.7557   21.8765 H   0  0  0  0  0  0
  1 25  1  0  0  0
  1 30  2  0  0  0
  1 81  1  0  0  0
  2  3  1  0  0  0
  2 25  1  0  0  0
  2 85  1  0  0  0
  2 86  1  0  0  0
  3  4  1  0  0  0
  3 87  1  0  0  0
  3 88  1  0  0  0
  4  5  1  0  0  0
  4 89  1  0  0  0
  4 90  1  0  0  0
  5  6  1  0  0  0
  5 26  1  0  0  0
  5 91  1  0  0  0
  6 25  1  0  0  0
  6 92  1  0  0  0
  6 93  1  0  0  0
  7  8  2  0  0  0
  7 26  1  0  0  0
  7 29  1  0  0  0
  8  9  1  0  0  0
  8 22  1  0  0  0
  9 10  1  0  0  0
  9 27  2  0  0  0
 10 11  2  0  0  0
 10 15  1  0  0  0
 11 12  1  0  0  0
 11 94  1  0  0  0
 12 13  2  0  0  0
 12 95  1  0  0  0
 13 14  1  0  0  0
 13 31  1  0  0  0
 14 15  2  0  0  0
 14 96  1  0  0  0
 15 97  1  0  0  0
 16 17  2  0  0  0
 16 21  1  0  0  0
 16 31  1  0  0  0
 17 18  1  0  0  0
 17 98  1  0  0  0
 18 19  2  0  0  0
 18 99  1  0  0  0
 19 20  1  0  0  0
 19 24  1  0  0  0
 20 21  2  0  0  0
 20100  1  0  0  0
 21 23  1  0  0  0
 22 28  1  0  0  0
 22 32  2  0  0  0
 26 27  1  0  0  0
 28101  1  0  0  0
 28102  1  0  0  0
 29103  1  0  0  0
 29104  1  0  0  0
 33 34  1  0  0  0
 33 66  1  0  0  0
 33 70  2  0  0  0
 34 36  1  0  0  0
 34 59  1  0  0  0
 34105  1  0  0  0
 35 44  2  0  0  0
 35 45  1  0  0  0
 35 68  1  0  0  0
 36 56  1  0  0  0
 36106  1  0  0  0
 37 39  1  0  0  0
 37 47  1  0  0  0
 37 66  1  0  0  0
 37107  1  0  0  0
 38 43  2  0  0  0
 38 46  1  0  0  0
 38 47  1  0  0  0
 39 64  1  0  0  0
 39 67  2  0  0  0
 40 52  1  0  0  0
 40 53  2  0  0  0
 40 58  1  0  0  0
 41108  1  0  0  0
 41109  1  0  0  0
 41110  1  0  0  0
 41 48  1  0  0  0
 42 43  1  0  0  0
 42 66  1  0  0  0
 42111  1  0  0  0
 42112  1  0  0  0
 43 44  1  0  0  0
 44113  1  0  0  0
 45 46  2  0  0  0
 45114  1  0  0  0
 46115  1  0  0  0
 47116  1  0  0  0
 47117  1  0  0  0
 48 56  1  0  0  0
 48 65  1  0  0  0
 48118  1  0  0  0
 49 50  1  0  0  0
 49 53  1  0  0  0
 49 64  1  0  0  0
 49119  1  0  0  0
 50 51  1  0  0  0
 50120  1  0  0  0
 50121  1  0  0  0
 51 52  1  0  0  0
 51122  1  0  0  0
 51123  1  0  0  0
 52124  1  0  0  0
 52125  1  0  0  0
 53 54  1  0  0  0
 54 55  2  0  0  0
 54126  1  0  0  0
 55 57  1  0  0  0
 55127  1  0  0  0
 56 69  2  0  0  0
 57 58  2  0  0  0
 57128  1  0  0  0
 58129  1  0  0  0
 59 60  1  0  0  0
 59 61  1  0  0  0
 59 62  1  0  0  0
 60130  1  0  0  0
 60131  1  0  0  0
 60132  1  0  0  0
 61133  1  0  0  0
 61134  1  0  0  0
 61135  1  0  0  0
 62136  1  0  0  0
 62137  1  0  0  0
 62138  1  0  0  0
 63 65  1  0  0  0
 63139  1  0  0  0
 63140  1  0  0  0
 63141  1  0  0  0
 64142  1  0  0  0
 65143  1  0  0  0
 68 80  1  0  0  0
 71 73  2  0  0  0
 71 75  1  0  0  0
 71144  1  0  0  0
 72 74  1  0  0  0
 72 76  2  0  0  0
 72 77  1  0  0  0
 73 76  1  0  0  0
 73 81  1  0  0  0
 74 75  2  0  0  0
 74 82  1  0  0  0
 75 83  1  0  0  0
 76 84  1  0  0  0
 77145  1  0  0  0
 77146  1  0  0  0
 77147  1  0  0  0
 78 79  1  0  0  0
 78 80  1  0  0  0
 78148  1  0  0  0
 78149  1  0  0  0
 79 82  1  0  0  0
 79150  1  0  0  0
 79151  1  0  0  0
 80152  1  0  0  0
 80153  1  0  0  0
 81154  1  0  0  0
 82155  1  0  0  0
M  ISO  4   1 100  68 101  80 101  81 100
M  END
> <chiral flag>
0

> <version>
0

> <s_m_source_file>
/data/baiqing/PycharmProjects/Reinvent-master-3.2/result/LINK_invent/BTK/process_docking_weight1_custom_sum_contain_oxygen_bond_distance_aromatic_linkinvent_7_9_3/rearranged_h_0014.sdf

> <i_m_source_file_index>
34

> <r_mmod_Potential_Energy-OPLS-2005>
69.7553024291992

> <r_mmod_Stretch_Energy-OPLS-2005>
76.826057434082

> <r_mmod_Bend_Energy-OPLS-2005>
140.8349609375

> <r_mmod_Torsional_Energy-OPLS-2005>
232.054595947266

> <r_mmod_Improper_Torsional_Energy-OPLS-2005>
7.94092988967896

> <r_mmod_Van_der_Waal_Energy-OPLS-2005>
146.141677856445

> <r_mmod_Electrostatic_Energy-OPLS-2005>
-370.678558349609

> <r_mmod_Solvation_Energy-OPLS-2005>
-210.091201782227

> <b_mmod_Minimization_Converged-OPLS-2005>
0

> <r_mmod_RMS_Derivative-OPLS-2005>
0.639433562755585

$$$$
34
                    3D
 Structure written by MMmdl.
157165  0  0  1  0            999 V2000
  -30.6533  -14.5529   20.5300 C   0  0  0  0  0  0
  -30.4362  -12.3401   19.4441 C   0  0  0  0  0  0
  -29.5052  -12.4982   18.2218 C   0  0  0  0  0  0
  -28.0261  -12.3472   18.6304 C   0  0  0  0  0  0
  -27.6606  -13.1906   19.8799 C   0  0  2  0  0  0
  -28.7067  -13.0098   21.0045 C   0  0  0  0  0  0
  -25.2615  -13.8115   20.5706 C   0  0  0  0  0  0
  -24.1846  -13.0416   20.9187 C   0  0  0  0  0  0
  -24.6378  -11.6873   20.8752 C   0  0  0  0  0  0
  -23.9032  -10.4278   21.0418 C   0  0  0  0  0  0
  -24.3605   -9.4203   21.9191 C   0  0  0  0  0  0
  -23.6291   -8.2235   22.0748 C   0  0  0  0  0  0
  -22.4269   -8.0274   21.3541 C   0  0  0  0  0  0
  -21.9896   -9.0246   20.4643 C   0  0  0  0  0  0
  -22.7215  -10.2130   20.3058 C   0  0  0  0  0  0
  -21.6850   -6.0736   22.5281 C   0  0  0  0  0  0
  -21.4010   -6.5641   23.8216 C   0  0  0  0  0  0
  -21.3658   -5.6794   24.9179 C   0  0  0  0  0  0
  -21.6047   -4.3060   24.7224 C   0  0  0  0  0  0
  -21.8824   -3.8149   23.4346 C   0  0  0  0  0  0
  -21.9195   -4.6966   22.3404 C   0  0  0  0  0  0
  -22.7879  -13.5238   21.1854 C   0  0  0  0  0  0
  -22.1662   -4.2160   21.0976 F   0  0  0  0  0  0
  -21.5632   -3.4534   25.7733 F   0  0  0  0  0  0
  -30.0317  -13.3391   20.4498 N   0  0  0  0  0  0
  -26.3029  -12.9234   20.3409 N   0  0  0  0  0  0
  -25.9302  -11.6414   20.5805 N   0  0  0  0  0  0
  -22.0514  -12.8227   22.0406 N   0  0  0  0  0  0
  -25.4369  -15.1839   20.4130 N   0  0  0  0  0  0
  -31.7792  -14.7516   20.0653 O   0  0  0  0  0  0
  -21.6634   -6.8873   21.4239 O   0  0  0  0  0  0
  -22.3575  -14.5551   20.6711 O   0  0  0  0  0  0
  -24.6196  -31.8634   23.2059 C   0  0  0  0  0  0
  -25.9071  -32.4797   23.8364 C   0  0  1  0  0  0
  -27.2362  -27.3863   20.1065 C   0  0  0  0  0  0
  -25.5897  -33.8594   24.2292 N   0  0  0  0  0  0
  -23.4094  -30.4882   21.5454 C   0  0  2  0  0  0
  -24.8568  -28.9493   20.1105 C   0  0  0  0  0  0
  -22.7433  -29.4653   22.4949 C   0  0  0  0  0  0
  -18.0279  -28.1390   22.8491 C   0  0  0  0  0  0
  -24.1482  -36.7315   23.2636 C   0  0  0  0  0  0
  -25.9427  -30.8178   21.3643 C   0  0  0  0  0  0
  -26.0196  -29.4484   20.7104 C   0  0  0  0  0  0
  -27.2093  -28.6758   20.7018 C   0  0  0  0  0  0
  -26.0546  -26.9241   19.4810 C   0  0  0  0  0  0
  -24.8723  -27.6890   19.4910 C   0  0  0  0  0  0
  -23.6209  -29.8210   20.1603 C   0  0  0  0  0  0
  -25.4100  -36.3096   24.0334 C   0  0  1  0  0  0
  -20.5870  -28.3680   23.1299 C   0  0  2  0  0  0
  -20.6766  -26.9409   22.5413 C   0  0  0  0  0  0
  -19.5743  -26.6389   21.5214 C   0  0  0  0  0  0
  -18.1923  -26.7933   22.1632 C   0  0  0  0  0  0
  -19.1528  -28.8852   23.2897 C   0  0  0  0  0  0
  -18.9460  -30.1459   23.8908 C   0  0  0  0  0  0
  -17.6461  -30.6591   24.0572 C   0  0  0  0  0  0
  -25.9035  -34.9464   23.5116 C   0  0  0  0  0  0
  -16.5351  -29.9098   23.6324 C   0  0  0  0  0  0
  -16.7269  -28.6518   23.0338 C   0  0  0  0  0  0
  -26.4482  -31.6586   25.0708 C   0  0  0  0  0  0
  -25.3741  -31.3709   26.1453 C   0  0  0  0  0  0
  -27.0316  -30.3017   24.6119 C   0  0  0  0  0  0
  -27.6043  -32.4314   25.7479 C   0  0  0  0  0  0
  -27.5578  -37.1804   24.8462 C   0  0  0  0  0  0
  -21.4153  -29.3041   22.3693 N   0  0  0  0  0  0
  -26.4285  -37.3786   23.9416 N   0  0  0  0  0  0
  -24.6757  -31.0711   22.0969 N   0  0  0  0  0  0
  -23.4186  -28.8192   23.3005 O   0  0  0  0  0  0
  -28.3977  -26.6200   20.1633 O   0  0  0  0  0  0
  -26.5609  -34.8930   22.4686 O   0  0  0  0  0  0
  -23.5382  -32.1396   23.7437 O   0  0  0  0  0  0
  -28.9278  -19.4349   19.5523 C   0  0  0  0  0  0
  -28.7361  -17.0054   19.4854 C   0  0  0  0  0  0
  -28.3429  -18.2737   19.0174 C   0  0  0  0  0  0
  -29.9155  -19.3506   20.5536 C   0  0  0  0  0  0
  -29.7033  -16.8661   20.5066 C   0  0  0  0  0  0
  -30.3002  -18.0518   21.0357 C   0  0  0  0  0  0
  -29.7268  -22.9271   20.2375 C   0  0  0  0  0  0
  -27.2760  -18.3986   17.9474 C   0  0  0  0  0  0
  -30.5910  -20.6584   21.0300 C   0  0  0  0  0  0
  -29.3669  -24.3555   20.7489 C   0  0  0  0  0  0
  -28.3368  -25.1845   19.9108 C   0  0  0  0  0  0
  -29.9124  -15.5520   21.0645 N   0  0  0  0  0  0
  -29.7855  -21.9075   21.1274 N   0  0  0  0  0  0
  -30.0406  -22.7679   19.0569 O   0  0  0  0  0  0
  -31.4862  -17.8986   22.2877 Cl  0  0  0  0  0  0
  -31.4791  -12.4537   19.1436 H   0  0  0  0  0  0
  -30.3566  -11.3348   19.8609 H   0  0  0  0  0  0
  -29.7571  -11.7581   17.4612 H   0  0  0  0  0  0
  -29.6623  -13.4752   17.7629 H   0  0  0  0  0  0
  -27.8434  -11.2902   18.8310 H   0  0  0  0  0  0
  -27.3771  -12.6124   17.7952 H   0  0  0  0  0  0
  -27.6839  -14.2266   19.5668 H   0  0  0  0  0  0
  -28.7034  -11.9798   21.3649 H   0  0  0  0  0  0
  -28.4542  -13.6184   21.8731 H   0  0  0  0  0  0
  -25.2754   -9.5685   22.4758 H   0  0  0  0  0  0
  -24.0015   -7.4619   22.7455 H   0  0  0  0  0  0
  -21.0835   -8.8759   19.8943 H   0  0  0  0  0  0
  -22.3678  -10.9673   19.6169 H   0  0  0  0  0  0
  -21.1991   -7.6148   23.9720 H   0  0  0  0  0  0
  -21.1480   -6.0522   25.9083 H   0  0  0  0  0  0
  -22.0604   -2.7611   23.2838 H   0  0  0  0  0  0
  -22.4113  -11.9874   22.4782 H   0  0  0  0  0  0
  -21.1141  -13.1274   22.2625 H   0  0  0  0  0  0
  -24.6756  -15.8430   20.5320 H   0  0  0  0  0  0
  -26.2983  -15.6272   20.1235 H   0  0  0  0  0  0
  -26.7142  -32.5494   23.1124 H   0  0  0  0  0  0
  -25.0015  -33.9733   25.0417 H   0  0  0  0  0  0
  -22.7012  -31.3071   21.4028 H   0  0  0  0  0  0
  -23.3734  -35.9657   23.3292 H   0  0  0  0  0  0
  -24.3582  -36.8940   22.2053 H   0  0  0  0  0  0
  -23.7244  -37.6522   23.6658 H   0  0  0  0  0  0
  -26.0585  -31.5833   20.5956 H   0  0  0  0  0  0
  -26.8299  -30.8718   21.9839 H   0  0  0  0  0  0
  -28.1047  -29.0565   21.1730 H   0  0  0  0  0  0
  -26.0199  -25.9695   18.9779 H   0  0  0  0  0  0
  -23.9810  -27.3012   19.0171 H   0  0  0  0  0  0
  -23.7356  -30.5957   19.4009 H   0  0  0  0  0  0
  -22.7431  -29.2452   19.8609 H   0  0  0  0  0  0
  -25.1276  -36.1948   25.0826 H   0  0  0  0  0  0
  -20.9978  -28.3254   24.1412 H   0  0  0  0  0  0
  -20.5660  -26.2293   23.3607 H   0  0  0  0  0  0
  -21.6636  -26.7443   22.1205 H   0  0  0  0  0  0
  -19.6897  -25.6301   21.1239 H   0  0  0  0  0  0
  -19.6676  -27.3203   20.6747 H   0  0  0  0  0  0
  -17.4186  -26.6680   21.4040 H   0  0  0  0  0  0
  -18.0332  -26.0076   22.9033 H   0  0  0  0  0  0
  -19.7937  -30.7277   24.2273 H   0  0  0  0  0  0
  -17.5017  -31.6271   24.5175 H   0  0  0  0  0  0
  -15.5352  -30.3009   23.7643 H   0  0  0  0  0  0
  -15.8669  -28.0855   22.7025 H   0  0  0  0  0  0
  -24.5905  -30.7064   25.7798 H   0  0  0  0  0  0
  -24.8949  -32.2874   26.4901 H   0  0  0  0  0  0
  -25.8093  -30.8877   27.0208 H   0  0  0  0  0  0
  -26.2873  -29.6766   24.1171 H   0  0  0  0  0  0
  -27.4060  -29.7267   25.4598 H   0  0  0  0  0  0
  -27.8719  -30.4311   23.9294 H   0  0  0  0  0  0
  -27.2642  -33.3597   26.2080 H   0  0  0  0  0  0
  -28.3846  -32.6899   25.0309 H   0  0  0  0  0  0
  -28.0718  -31.8423   26.5377 H   0  0  0  0  0  0
  -28.2587  -38.0109   24.7519 H   0  0  0  0  0  0
  -28.1082  -36.2640   24.6266 H   0  0  0  0  0  0
  -27.2306  -37.1436   25.8868 H   0  0  0  0  0  0
  -20.9312  -29.8775   21.6926 H   0  0  0  0  0  0
  -26.0167  -38.2861   24.1425 H   0  0  0  0  0  0
  -28.6285  -20.4008   19.1715 H   0  0  0  0  0  0
  -28.2683  -16.1386   19.0532 H   0  0  0  0  0  0
  -27.5954  -19.0873   17.1646 H   0  0  0  0  0  0
  -26.3510  -18.7790   18.3824 H   0  0  0  0  0  0
  -27.0568  -17.4375   17.4808 H   0  0  0  0  0  0
  -31.4478  -20.8354   20.3775 H   0  0  0  0  0  0
  -31.0135  -20.5010   22.0213 H   0  0  0  0  0  0
  -30.3068  -24.9071   20.7655 H   0  0  0  0  0  0
  -29.0368  -24.3055   21.7869 H   0  0  0  0  0  0
  -27.3566  -24.7759   20.1548 H   0  0  0  0  0  0
  -28.4910  -25.0216   18.8432 H   0  0  0  0  0  0
  -29.1005  -15.1890   21.5393 H   0  0  0  0  0  0
  -29.4643  -22.1241   22.0623 H   0  0  0  0  0  0
  1 25  1  0  0  0
  1 30  2  0  0  0
  1 82  1  0  0  0
  2  3  1  0  0  0
  2 25  1  0  0  0
  2 86  1  0  0  0
  2 87  1  0  0  0
  3  4  1  0  0  0
  3 88  1  0  0  0
  3 89  1  0  0  0
  4  5  1  0  0  0
  4 90  1  0  0  0
  4 91  1  0  0  0
  5  6  1  0  0  0
  5 26  1  0  0  0
  5 92  1  0  0  0
  6 25  1  0  0  0
  6 93  1  0  0  0
  6 94  1  0  0  0
  7  8  2  0  0  0
  7 26  1  0  0  0
  7 29  1  0  0  0
  8  9  1  0  0  0
  8 22  1  0  0  0
  9 10  1  0  0  0
  9 27  2  0  0  0
 10 11  2  0  0  0
 10 15  1  0  0  0
 11 12  1  0  0  0
 11 95  1  0  0  0
 12 13  2  0  0  0
 12 96  1  0  0  0
 13 14  1  0  0  0
 13 31  1  0  0  0
 14 15  2  0  0  0
 14 97  1  0  0  0
 15 98  1  0  0  0
 16 17  2  0  0  0
 16 21  1  0  0  0
 16 31  1  0  0  0
 17 18  1  0  0  0
 17 99  1  0  0  0
 18 19  2  0  0  0
 18100  1  0  0  0
 19 20  1  0  0  0
 19 24  1  0  0  0
 20 21  2  0  0  0
 20101  1  0  0  0
 21 23  1  0  0  0
 22 28  1  0  0  0
 22 32  2  0  0  0
 26 27  1  0  0  0
 28102  1  0  0  0
 28103  1  0  0  0
 29104  1  0  0  0
 29105  1  0  0  0
 33 34  1  0  0  0
 33 66  1  0  0  0
 33 70  2  0  0  0
 34 36  1  0  0  0
 34 59  1  0  0  0
 34106  1  0  0  0
 35 44  2  0  0  0
 35 45  1  0  0  0
 35 68  1  0  0  0
 36 56  1  0  0  0
 36107  1  0  0  0
 37 39  1  0  0  0
 37 47  1  0  0  0
 37 66  1  0  0  0
 37108  1  0  0  0
 38 43  2  0  0  0
 38 46  1  0  0  0
 38 47  1  0  0  0
 39 64  1  0  0  0
 39 67  2  0  0  0
 40 52  1  0  0  0
 40 53  2  0  0  0
 40 58  1  0  0  0
 41109  1  0  0  0
 41110  1  0  0  0
 41111  1  0  0  0
 41 48  1  0  0  0
 42 43  1  0  0  0
 42 66  1  0  0  0
 42112  1  0  0  0
 42113  1  0  0  0
 43 44  1  0  0  0
 44114  1  0  0  0
 45 46  2  0  0  0
 45115  1  0  0  0
 46116  1  0  0  0
 47117  1  0  0  0
 47118  1  0  0  0
 48 56  1  0  0  0
 48 65  1  0  0  0
 48119  1  0  0  0
 49 50  1  0  0  0
 49 53  1  0  0  0
 49 64  1  0  0  0
 49120  1  0  0  0
 50 51  1  0  0  0
 50121  1  0  0  0
 50122  1  0  0  0
 51 52  1  0  0  0
 51123  1  0  0  0
 51124  1  0  0  0
 52125  1  0  0  0
 52126  1  0  0  0
 53 54  1  0  0  0
 54 55  2  0  0  0
 54127  1  0  0  0
 55 57  1  0  0  0
 55128  1  0  0  0
 56 69  2  0  0  0
 57 58  2  0  0  0
 57129  1  0  0  0
 58130  1  0  0  0
 59 60  1  0  0  0
 59 61  1  0  0  0
 59 62  1  0  0  0
 60131  1  0  0  0
 60132  1  0  0  0
 60133  1  0  0  0
 61134  1  0  0  0
 61135  1  0  0  0
 61136  1  0  0  0
 62137  1  0  0  0
 62138  1  0  0  0
 62139  1  0  0  0
 63 65  1  0  0  0
 63140  1  0  0  0
 63141  1  0  0  0
 63142  1  0  0  0
 64143  1  0  0  0
 65144  1  0  0  0
 68 81  1  0  0  0
 71 73  2  0  0  0
 71 74  1  0  0  0
 71145  1  0  0  0
 72 73  1  0  0  0
 72 75  2  0  0  0
 72146  1  0  0  0
 73 78  1  0  0  0
 74 76  2  0  0  0
 74 79  1  0  0  0
 75 76  1  0  0  0
 75 82  1  0  0  0
 76 85  1  0  0  0
 77 80  1  0  0  0
 77 83  1  0  0  0
 77 84  2  0  0  0
 78147  1  0  0  0
 78148  1  0  0  0
 78149  1  0  0  0
 79 83  1  0  0  0
 79150  1  0  0  0
 79151  1  0  0  0
 80 81  1  0  0  0
 80152  1  0  0  0
 80153  1  0  0  0
 81154  1  0  0  0
 81155  1  0  0  0
 82156  1  0  0  0
 83157  1  0  0  0
M  ISO  4   1 100  68 101  81 101  82 100
M  END
> <chiral flag>
0

> <version>
0

> <s_m_source_file>
/data/baiqing/PycharmProjects/Reinvent-master-3.2/result/LINK_invent/BTK/process_docking_weight1_custom_sum_contain_oxygen_bond_distance_aromatic_linkinvent_7_9_3/rearranged_h_0014.sdf

> <i_m_source_file_index>
35

> <r_mmod_Potential_Energy-OPLS-2005>
-99.2827072143555

> <r_mmod_Stretch_Energy-OPLS-2005>
52.5897178649902

> <r_mmod_Bend_Energy-OPLS-2005>
115.004768371582

> <r_mmod_Torsional_Energy-OPLS-2005>
247.16862487793

> <r_mmod_Improper_Torsional_Energy-OPLS-2005>
7.68802547454834

> <r_mmod_Van_der_Waal_Energy-OPLS-2005>
143.519271850586

> <r_mmod_Electrostatic_Energy-OPLS-2005>
-448.028259277344

> <r_mmod_Solvation_Energy-OPLS-2005>
-241.67692565918

> <b_mmod_Minimization_Converged-OPLS-2005>
0

> <r_mmod_RMS_Derivative-OPLS-2005>
1.36949253082275

$$$$
35
                    3D
 Structure written by MMmdl.
159167  0  0  1  0            999 V2000
  -30.7782  -14.5877   20.4643 C   0  0  0  0  0  0
  -30.4038  -12.3564   19.4893 C   0  0  0  0  0  0
  -29.5037  -12.4609   18.2437 C   0  0  0  0  0  0
  -28.0295  -12.3184   18.6591 C   0  0  0  0  0  0
  -27.6458  -13.2349   19.8529 C   0  0  2  0  0  0
  -28.6960  -13.1943   20.9913 C   0  0  0  0  0  0
  -25.2523  -13.8210   20.5751 C   0  0  0  0  0  0
  -24.1787  -13.0464   20.9224 C   0  0  0  0  0  0
  -24.6358  -11.6927   20.8730 C   0  0  0  0  0  0
  -23.9028  -10.4306   21.0401 C   0  0  0  0  0  0
  -24.3582   -9.4221   21.9181 C   0  0  0  0  0  0
  -23.6259   -8.2258   22.0754 C   0  0  0  0  0  0
  -22.4254   -8.0277   21.3548 C   0  0  0  0  0  0
  -21.9879   -9.0239   20.4655 C   0  0  0  0  0  0
  -22.7194  -10.2130   20.3059 C   0  0  0  0  0  0
  -21.6866   -6.0707   22.5263 C   0  0  0  0  0  0
  -21.4029   -6.5613   23.8195 C   0  0  0  0  0  0
  -21.3664   -5.6770   24.9158 C   0  0  0  0  0  0
  -21.6062   -4.3036   24.7223 C   0  0  0  0  0  0
  -21.8811   -3.8125   23.4341 C   0  0  0  0  0  0
  -21.9192   -4.6932   22.3394 C   0  0  0  0  0  0
  -22.7806  -13.5259   21.1834 C   0  0  0  0  0  0
  -22.1662   -4.2114   21.0963 F   0  0  0  0  0  0
  -21.5617   -3.4519   25.7732 F   0  0  0  0  0  0
  -30.0152  -13.4510   20.4030 N   0  0  0  0  0  0
  -26.2953  -12.9423   20.3342 N   0  0  0  0  0  0
  -25.9298  -11.6559   20.5777 N   0  0  0  0  0  0
  -22.0412  -12.8285   22.0389 N   0  0  0  0  0  0
  -25.4217  -15.1937   20.4186 N   0  0  0  0  0  0
  -31.9716  -14.5415   20.1506 O   0  0  0  0  0  0
  -21.6644   -6.8852   21.4225 O   0  0  0  0  0  0
  -22.3502  -14.5550   20.6633 O   0  0  0  0  0  0
  -24.6223  -31.8630   23.2047 C   0  0  0  0  0  0
  -25.9069  -32.4814   23.8373 C   0  0  1  0  0  0
  -27.2187  -27.3356   20.0924 C   0  0  0  0  0  0
  -25.5852  -33.8602   24.2281 N   0  0  0  0  0  0
  -23.4171  -30.4859   21.5498 C   0  0  2  0  0  0
  -24.8617  -28.9493   20.1113 C   0  0  0  0  0  0
  -22.7481  -29.4620   22.4972 C   0  0  0  0  0  0
  -18.0268  -28.1399   22.8484 C   0  0  0  0  0  0
  -24.1465  -36.7348   23.2639 C   0  0  0  0  0  0
  -25.9581  -30.7948   21.3758 C   0  0  0  0  0  0
  -26.0306  -29.4226   20.7187 C   0  0  0  0  0  0
  -27.2112  -28.6225   20.7110 C   0  0  0  0  0  0
  -26.0270  -26.9267   19.4465 C   0  0  0  0  0  0
  -24.8580  -27.7037   19.4730 C   0  0  0  0  0  0
  -23.6294  -29.8250   20.1639 C   0  0  0  0  0  0
  -25.4086  -36.3110   24.0327 C   0  0  1  0  0  0
  -20.5874  -28.3679   23.1307 C   0  0  2  0  0  0
  -20.6758  -26.9403   22.5430 C   0  0  0  0  0  0
  -19.5734  -26.6388   21.5228 C   0  0  0  0  0  0
  -18.1910  -26.7938   22.1628 C   0  0  0  0  0  0
  -19.1529  -28.8854   23.2878 C   0  0  0  0  0  0
  -18.9461  -30.1456   23.8891 C   0  0  0  0  0  0
  -17.6465  -30.6594   24.0576 C   0  0  0  0  0  0
  -25.9020  -34.9472   23.5114 C   0  0  0  0  0  0
  -16.5348  -29.9110   23.6338 C   0  0  0  0  0  0
  -16.7258  -28.6530   23.0350 C   0  0  0  0  0  0
  -26.4435  -31.6627   25.0766 C   0  0  0  0  0  0
  -25.3649  -31.3819   26.1507 C   0  0  0  0  0  0
  -27.0279  -30.3055   24.6244 C   0  0  0  0  0  0
  -27.5989  -32.4366   25.7548 C   0  0  0  0  0  0
  -27.5574  -37.1841   24.8438 C   0  0  0  0  0  0
  -21.4191  -29.3024   22.3720 N   0  0  0  0  0  0
  -26.4279  -37.3794   23.9384 N   0  0  0  0  0  0
  -24.6851  -31.0631   22.1013 N   0  0  0  0  0  0
  -23.4223  -28.8154   23.3036 O   0  0  0  0  0  0
  -28.3316  -26.4828   20.1373 O   0  0  0  0  0  0
  -26.5624  -34.8924   22.4700 O   0  0  0  0  0  0
  -23.5376  -32.1454   23.7343 O   0  0  0  0  0  0
  -31.0283  -19.6398   20.5581 C   0  0  0  0  0  0
  -28.8294  -18.8040   20.0604 C   0  0  0  0  0  0
  -30.1776  -18.5151   20.3537 C   0  0  0  0  0  0
  -30.5964  -20.9882   20.3977 C   0  0  0  0  0  0
  -29.2317  -21.2769   20.1021 C   0  0  0  0  0  0
  -28.3690  -20.1468   19.9468 C   0  0  0  0  0  0
  -30.7682  -17.1309   20.2747 C   0  0  0  0  0  0
  -31.6649  -22.0709   20.4598 C   0  0  0  0  0  0
  -29.0777  -23.9844   21.8965 C   0  0  0  0  0  0
  -28.1007  -25.0574   19.8262 C   0  0  0  0  0  0
  -29.0761  -23.9318   20.3618 C   0  0  2  0  0  0
  -28.6630  -22.5781   19.8866 N   0  0  0  0  0  0
  -30.1633  -15.9257   20.6035 N   0  0  0  0  0  0
  -32.0119  -17.1452   19.7749 N   0  3  0  0  0  0
  -26.7035  -20.3944   19.5435 Cl  0  0  0  0  0  0
  -31.4545  -12.3856   19.1957 H   0  0  0  0  0  0
  -30.2722  -11.3962   19.9902 H   0  0  0  0  0  0
  -29.7684  -11.6839   17.5247 H   0  0  0  0  0  0
  -29.6646  -13.4139   17.7411 H   0  0  0  0  0  0
  -27.8767  -11.2750   18.9375 H   0  0  0  0  0  0
  -27.3748  -12.5057   17.8080 H   0  0  0  0  0  0
  -27.6408  -14.2525   19.4581 H   0  0  0  0  0  0
  -28.6955  -12.2267   21.4945 H   0  0  0  0  0  0
  -28.4619  -13.9363   21.7578 H   0  0  0  0  0  0
  -25.2709   -9.5694   22.4770 H   0  0  0  0  0  0
  -23.9958   -7.4656   22.7482 H   0  0  0  0  0  0
  -21.0800   -8.8753   19.8964 H   0  0  0  0  0  0
  -22.3630  -10.9664   19.6180 H   0  0  0  0  0  0
  -21.2045   -7.6128   23.9682 H   0  0  0  0  0  0
  -21.1499   -6.0507   25.9051 H   0  0  0  0  0  0
  -22.0592   -2.7586   23.2840 H   0  0  0  0  0  0
  -22.3984  -11.9993   22.4907 H   0  0  0  0  0  0
  -21.1038  -13.1348   22.2543 H   0  0  0  0  0  0
  -24.6521  -15.8456   20.5274 H   0  0  0  0  0  0
  -26.2603  -15.6294   20.0557 H   0  0  0  0  0  0
  -26.7154  -32.5498   23.1146 H   0  0  0  0  0  0
  -24.9905  -33.9718   25.0365 H   0  0  0  0  0  0
  -22.7091  -31.3051   21.4086 H   0  0  0  0  0  0
  -23.3682  -35.9724   23.3292 H   0  0  0  0  0  0
  -24.3556  -36.8979   22.2058 H   0  0  0  0  0  0
  -23.7262  -37.6565   23.6665 H   0  0  0  0  0  0
  -26.0847  -31.5563   20.6053 H   0  0  0  0  0  0
  -26.8430  -30.8486   21.9994 H   0  0  0  0  0  0
  -28.1090  -28.9731   21.2019 H   0  0  0  0  0  0
  -25.9581  -25.9915   18.9137 H   0  0  0  0  0  0
  -23.9640  -27.3391   18.9880 H   0  0  0  0  0  0
  -23.7496  -30.5996   19.4059 H   0  0  0  0  0  0
  -22.7504  -29.2515   19.8635 H   0  0  0  0  0  0
  -25.1268  -36.1987   25.0827 H   0  0  0  0  0  0
  -20.9955  -28.3244   24.1432 H   0  0  0  0  0  0
  -20.5675  -26.2271   23.3609 H   0  0  0  0  0  0
  -21.6624  -26.7450   22.1216 H   0  0  0  0  0  0
  -19.6873  -25.6302   21.1248 H   0  0  0  0  0  0
  -19.6671  -27.3206   20.6767 H   0  0  0  0  0  0
  -17.4178  -26.6676   21.4028 H   0  0  0  0  0  0
  -18.0285  -26.0105   22.9045 H   0  0  0  0  0  0
  -19.7945  -30.7271   24.2261 H   0  0  0  0  0  0
  -17.5029  -31.6272   24.5189 H   0  0  0  0  0  0
  -15.5353  -30.3013   23.7679 H   0  0  0  0  0  0
  -15.8652  -28.0864   22.7070 H   0  0  0  0  0  0
  -24.5684  -30.7338   25.7828 H   0  0  0  0  0  0
  -24.9010  -32.3034   26.5038 H   0  0  0  0  0  0
  -25.7906  -30.8840   27.0239 H   0  0  0  0  0  0
  -26.2869  -29.6792   24.1269 H   0  0  0  0  0  0
  -27.3944  -29.7344   25.4789 H   0  0  0  0  0  0
  -27.8750  -30.4315   23.9494 H   0  0  0  0  0  0
  -27.2568  -33.3652   26.2131 H   0  0  0  0  0  0
  -28.3800  -32.6963   25.0404 H   0  0  0  0  0  0
  -28.0645  -31.8486   26.5473 H   0  0  0  0  0  0
  -28.2601  -38.0133   24.7462 H   0  0  0  0  0  0
  -28.1058  -36.2666   24.6260 H   0  0  0  0  0  0
  -27.2300  -37.1502   25.8844 H   0  0  0  0  0  0
  -20.9353  -29.8768   21.6952 H   0  0  0  0  0  0
  -26.0160  -38.2872   24.1352 H   0  0  0  0  0  0
  -32.0752  -19.4721   20.7727 H   0  0  0  0  0  0
  -28.1351  -18.0003   19.8699 H   0  0  0  0  0  0
  -32.6647  -21.6418   20.5211 H   0  0  0  0  0  0
  -31.5452  -22.7126   21.3287 H   0  0  0  0  0  0
  -31.6396  -22.6755   19.5532 H   0  0  0  0  0  0
  -29.4157  -24.9586   22.2499 H   0  0  0  0  0  0
  -29.7175  -23.2306   22.3495 H   0  0  0  0  0  0
  -28.0729  -23.8266   22.2884 H   0  0  0  0  0  0
  -27.1278  -24.7702   20.2288 H   0  0  0  0  0  0
  -28.0318  -24.9655   18.7419 H   0  0  0  0  0  0
  -30.0716  -24.1547   19.9790 H   0  0  0  0  0  0
  -27.6917  -22.5124   19.5967 H   0  0  0  0  0  0
  -29.2145  -16.0359   20.9111 H   0  0  0  0  0  0
  -32.4513  -18.0071   19.4998 H   0  0  0  0  0  0
  -32.5027  -16.2579   19.6909 H   0  0  0  0  0  0
  1 25  1  0  0  0
  1 30  2  0  0  0
  1 83  1  0  0  0
  2  3  1  0  0  0
  2 25  1  0  0  0
  2 86  1  0  0  0
  2 87  1  0  0  0
  3  4  1  0  0  0
  3 88  1  0  0  0
  3 89  1  0  0  0
  4  5  1  0  0  0
  4 90  1  0  0  0
  4 91  1  0  0  0
  5  6  1  0  0  0
  5 26  1  0  0  0
  5 92  1  0  0  0
  6 25  1  0  0  0
  6 93  1  0  0  0
  6 94  1  0  0  0
  7  8  2  0  0  0
  7 26  1  0  0  0
  7 29  1  0  0  0
  8  9  1  0  0  0
  8 22  1  0  0  0
  9 10  1  0  0  0
  9 27  2  0  0  0
 10 11  2  0  0  0
 10 15  1  0  0  0
 11 12  1  0  0  0
 11 95  1  0  0  0
 12 13  2  0  0  0
 12 96  1  0  0  0
 13 14  1  0  0  0
 13 31  1  0  0  0
 14 15  2  0  0  0
 14 97  1  0  0  0
 15 98  1  0  0  0
 16 17  2  0  0  0
 16 21  1  0  0  0
 16 31  1  0  0  0
 17 18  1  0  0  0
 17 99  1  0  0  0
 18 19  2  0  0  0
 18100  1  0  0  0
 19 20  1  0  0  0
 19 24  1  0  0  0
 20 21  2  0  0  0
 20101  1  0  0  0
 21 23  1  0  0  0
 22 28  1  0  0  0
 22 32  2  0  0  0
 26 27  1  0  0  0
 28102  1  0  0  0
 28103  1  0  0  0
 29104  1  0  0  0
 29105  1  0  0  0
 33 34  1  0  0  0
 33 66  1  0  0  0
 33 70  2  0  0  0
 34 36  1  0  0  0
 34 59  1  0  0  0
 34106  1  0  0  0
 35 44  2  0  0  0
 35 45  1  0  0  0
 35 68  1  0  0  0
 36 56  1  0  0  0
 36107  1  0  0  0
 37 39  1  0  0  0
 37 47  1  0  0  0
 37 66  1  0  0  0
 37108  1  0  0  0
 38 43  2  0  0  0
 38 46  1  0  0  0
 38 47  1  0  0  0
 39 64  1  0  0  0
 39 67  2  0  0  0
 40 52  1  0  0  0
 40 53  2  0  0  0
 40 58  1  0  0  0
 41109  1  0  0  0
 41110  1  0  0  0
 41111  1  0  0  0
 41 48  1  0  0  0
 42 43  1  0  0  0
 42 66  1  0  0  0
 42112  1  0  0  0
 42113  1  0  0  0
 43 44  1  0  0  0
 44114  1  0  0  0
 45 46  2  0  0  0
 45115  1  0  0  0
 46116  1  0  0  0
 47117  1  0  0  0
 47118  1  0  0  0
 48 56  1  0  0  0
 48 65  1  0  0  0
 48119  1  0  0  0
 49 50  1  0  0  0
 49 53  1  0  0  0
 49 64  1  0  0  0
 49120  1  0  0  0
 50 51  1  0  0  0
 50121  1  0  0  0
 50122  1  0  0  0
 51 52  1  0  0  0
 51123  1  0  0  0
 51124  1  0  0  0
 52125  1  0  0  0
 52126  1  0  0  0
 53 54  1  0  0  0
 54 55  2  0  0  0
 54127  1  0  0  0
 55 57  1  0  0  0
 55128  1  0  0  0
 56 69  2  0  0  0
 57 58  2  0  0  0
 57129  1  0  0  0
 58130  1  0  0  0
 59 60  1  0  0  0
 59 61  1  0  0  0
 59 62  1  0  0  0
 60131  1  0  0  0
 60132  1  0  0  0
 60133  1  0  0  0
 61134  1  0  0  0
 61135  1  0  0  0
 61136  1  0  0  0
 62137  1  0  0  0
 62138  1  0  0  0
 62139  1  0  0  0
 63 65  1  0  0  0
 63140  1  0  0  0
 63141  1  0  0  0
 63142  1  0  0  0
 64143  1  0  0  0
 65144  1  0  0  0
 68 80  1  0  0  0
 71 73  2  0  0  0
 71 74  1  0  0  0
 71145  1  0  0  0
 72 73  1  0  0  0
 72 76  2  0  0  0
 72146  1  0  0  0
 73 77  1  0  0  0
 74 75  2  0  0  0
 74 78  1  0  0  0
 75 76  1  0  0  0
 75 82  1  0  0  0
 76 85  1  0  0  0
 77 83  1  0  0  0
 77 84  2  0  0  0
 78147  1  0  0  0
 78148  1  0  0  0
 78149  1  0  0  0
 79150  1  0  0  0
 79151  1  0  0  0
 79152  1  0  0  0
 79 81  1  0  0  0
 80 81  1  0  0  0
 80153  1  0  0  0
 80154  1  0  0  0
 81 82  1  0  0  0
 81155  1  0  0  0
 82156  1  0  0  0
 83157  1  0  0  0
 84158  1  0  0  0
 84159  1  0  0  0
M  CHG  1  84   1
M  ISO  4   1 100  68 101  80 101  83 100
M  END
> <chiral flag>
0

> <version>
0

> <s_m_source_file>
/data/baiqing/PycharmProjects/Reinvent-master-3.2/result/LINK_invent/BTK/process_docking_weight1_custom_sum_contain_oxygen_bond_distance_aromatic_linkinvent_7_9_3/rearranged_h_0014.sdf

> <i_m_source_file_index>
36

> <r_mmod_Potential_Energy-OPLS-2005>
-152.062057495117

> <r_mmod_Stretch_Energy-OPLS-2005>
74.1509704589844

> <r_mmod_Bend_Energy-OPLS-2005>
171.265594482422

> <r_mmod_Torsional_Energy-OPLS-2005>
198.834564208984

> <r_mmod_Improper_Torsional_Energy-OPLS-2005>
8.79133033752441

> <r_mmod_Van_der_Waal_Energy-OPLS-2005>
182.581787109375

> <r_mmod_Electrostatic_Energy-OPLS-2005>
-409.797119140625

> <r_mmod_Solvation_Energy-OPLS-2005>
-432.7353515625

> <b_mmod_Minimization_Converged-OPLS-2005>
0

> <r_mmod_RMS_Derivative-OPLS-2005>
3.87207865715027

$$$$
36
                    3D
 Structure written by MMmdl.
147155  0  0  1  0            999 V2000
  -30.2502  -15.7731   20.3186 C   0  0  0  0  0  0
  -30.4144  -13.1851   19.5375 C   0  0  0  0  0  0
  -29.5543  -12.6887   18.3360 C   0  0  0  0  0  0
  -28.1392  -12.3020   18.7877 C   0  0  0  0  0  0
  -27.5908  -13.3207   19.8098 C   0  0  2  0  0  0
  -28.5991  -13.7135   20.9187 C   0  0  0  0  0  0
  -25.2302  -13.8300   20.5816 C   0  0  0  0  0  0
  -24.1705  -13.0433   20.9302 C   0  0  0  0  0  0
  -24.6426  -11.6949   20.8767 C   0  0  0  0  0  0
  -23.9130  -10.4292   21.0393 C   0  0  0  0  0  0
  -24.3660   -9.4206   21.9177 C   0  0  0  0  0  0
  -23.6318   -8.2248   22.0753 C   0  0  0  0  0  0
  -22.4298   -8.0290   21.3544 C   0  0  0  0  0  0
  -21.9947   -9.0266   20.4642 C   0  0  0  0  0  0
  -22.7294  -10.2135   20.3047 C   0  0  0  0  0  0
  -21.6860   -6.0744   22.5280 C   0  0  0  0  0  0
  -21.4020   -6.5644   23.8214 C   0  0  0  0  0  0
  -21.3660   -5.6795   24.9174 C   0  0  0  0  0  0
  -21.6043   -4.3058   24.7223 C   0  0  0  0  0  0
  -21.8818   -3.8152   23.4344 C   0  0  0  0  0  0
  -21.9195   -4.6970   22.3401 C   0  0  0  0  0  0
  -22.7714  -13.5154   21.1930 C   0  0  0  0  0  0
  -22.1662   -4.2155   21.0979 F   0  0  0  0  0  0
  -21.5627   -3.4540   25.7735 F   0  0  0  0  0  0
  -29.7483  -14.3809   20.2509 N   0  0  0  0  0  0
  -26.2765  -12.9656   20.3251 N   0  0  0  0  0  0
  -25.9377  -11.6713   20.5695 N   0  0  0  0  0  0
  -22.0383  -12.8126   22.0480 N   0  0  0  0  0  0
  -25.3871  -15.2042   20.4257 N   0  0  0  0  0  0
  -31.4892  -15.6802   20.1884 O   0  0  0  0  0  0
  -21.6651   -6.8892   21.4244 O   0  0  0  0  0  0
  -22.3384  -14.5449   20.6764 O   0  0  0  0  0  0
  -24.6940  -31.7880   23.1423 C   0  0  0  0  0  0
  -25.9471  -32.4409   23.8010 C   0  0  1  0  0  0
  -27.2304  -26.5977   20.2262 C   0  0  0  0  0  0
  -25.6006  -33.8239   24.1890 N   0  0  0  0  0  0
  -23.5251  -30.3851   21.4989 C   0  0  2  0  0  0
  -24.9835  -28.7035   20.1219 C   0  0  0  0  0  0
  -22.7812  -29.4255   22.4682 C   0  0  0  0  0  0
  -18.0345  -28.1430   22.8454 C   0  0  0  0  0  0
  -24.1493  -36.7124   23.2653 C   0  0  0  0  0  0
  -26.1102  -30.4865   21.4225 C   0  0  0  0  0  0
  -26.1748  -29.0393   20.7753 C   0  0  0  0  0  0
  -27.2787  -28.0181   20.7905 C   0  0  0  0  0  0
  -26.0045  -26.4977   19.5130 C   0  0  0  0  0  0
  -24.9437  -27.4600   19.4661 C   0  0  0  0  0  0
  -23.7848  -29.6718   20.1391 C   0  0  0  0  0  0
  -25.4148  -36.2861   24.0274 C   0  0  1  0  0  0
  -20.5986  -28.3795   23.1124 C   0  0  2  0  0  0
  -20.6806  -26.9445   22.5407 C   0  0  0  0  0  0
  -19.5784  -26.6372   21.5219 C   0  0  0  0  0  0
  -18.1967  -26.7956   22.1619 C   0  0  0  0  0  0
  -19.1614  -28.8939   23.2767 C   0  0  0  0  0  0
  -18.9517  -30.1520   23.8817 C   0  0  0  0  0  0
  -17.6505  -30.6610   24.0550 C   0  0  0  0  0  0
  -25.9138  -34.9254   23.4928 C   0  0  0  0  0  0
  -16.5394  -29.9091   23.6355 C   0  0  0  0  0  0
  -16.7324  -28.6513   23.0373 C   0  0  0  0  0  0
  -26.4616  -31.6486   25.0675 C   0  0  0  0  0  0
  -25.3653  -31.3833   26.1271 C   0  0  0  0  0  0
  -27.0564  -30.2812   24.6650 C   0  0  0  0  0  0
  -27.6044  -32.4370   25.7503 C   0  0  0  0  0  0
  -27.5562  -37.1716   24.8464 C   0  0  0  0  0  0
  -21.4449  -29.3020   22.3429 N   0  0  0  0  0  0
  -26.4262  -37.3636   23.9414 N   0  0  0  0  0  0
  -24.8010  -30.9224   22.0733 N   0  0  0  0  0  0
  -23.4205  -28.7873   23.3078 O   0  0  0  0  0  0
  -28.1798  -25.3306   20.2947 O   0  0  0  0  0  0
  -26.5791  -34.8853   22.4554 O   0  0  0  0  0  0
  -23.5937  -32.1001   23.6314 O   0  0  0  0  0  0
  -31.2312  -20.8567   20.5401 C   0  0  0  0  0  0
  -28.9222  -21.8766   20.2991 C   0  0  0  0  0  0
  -29.5914  -18.9269   20.3416 C   0  0  0  0  0  0
  -30.3255  -21.9766   20.4546 C   0  0  0  0  0  0
  -30.8988  -19.4551   20.4917 C   0  0  0  0  0  0
  -28.6457  -20.2612   20.2529 C   0  0  0  0  0  0
  -32.7113  -21.1709   20.7084 C   0  0  0  0  0  0
  -27.9606  -23.5330   20.1889 C   0  0  0  0  0  0
  -29.4705  -17.1627   20.3297 N   0  0  0  0  0  0
  -30.8433  -23.2274   20.5280 F   0  0  0  0  0  0
  -31.9176  -18.5697   20.6116 F   0  0  0  0  0  0
  -26.9739  -19.8736   20.0663 Cl  0  0  0  0  0  0
  -31.3949  -13.4697   19.1544 H   0  0  0  0  0  0
  -30.6136  -12.3690   20.2342 H   0  0  0  0  0  0
  -30.0367  -11.8450   17.8405 H   0  0  0  0  0  0
  -29.4899  -13.4849   17.5929 H   0  0  0  0  0  0
  -28.1924  -11.3162   19.2516 H   0  0  0  0  0  0
  -27.4705  -12.2067   17.9314 H   0  0  0  0  0  0
  -27.4337  -14.2225   19.2160 H   0  0  0  0  0  0
  -28.8935  -12.8554   21.5251 H   0  0  0  0  0  0
  -28.1390  -14.4268   21.6042 H   0  0  0  0  0  0
  -25.2798   -9.5679   22.4764 H   0  0  0  0  0  0
  -24.0017   -7.4641   22.7479 H   0  0  0  0  0  0
  -21.0877   -8.8796   19.8949 H   0  0  0  0  0  0
  -22.3753  -10.9677   19.6159 H   0  0  0  0  0  0
  -21.2015   -7.6153   23.9719 H   0  0  0  0  0  0
  -21.1481   -6.0524   25.9077 H   0  0  0  0  0  0
  -22.0596   -2.7614   23.2843 H   0  0  0  0  0  0
  -22.4032  -11.9806   22.4875 H   0  0  0  0  0  0
  -21.0987  -13.1112   22.2676 H   0  0  0  0  0  0
  -24.6125  -15.8494   20.5378 H   0  0  0  0  0  0
  -26.2235  -15.6482   20.0722 H   0  0  0  0  0  0
  -26.7564  -32.4856   23.0727 H   0  0  0  0  0  0
  -25.0053  -33.9258   24.9978 H   0  0  0  0  0  0
  -22.8565  -31.2252   21.2996 H   0  0  0  0  0  0
  -23.3784  -35.9421   23.3241 H   0  0  0  0  0  0
  -24.3560  -36.8868   22.2082 H   0  0  0  0  0  0
  -23.7219  -37.6264   23.6787 H   0  0  0  0  0  0
  -26.3236  -31.2036   20.6287 H   0  0  0  0  0  0
  -26.9573  -30.5591   22.0919 H   0  0  0  0  0  0
  -28.1737  -28.2856   21.3342 H   0  0  0  0  0  0
  -25.8199  -25.5629   19.0030 H   0  0  0  0  0  0
  -24.0476  -27.1924   18.9231 H   0  0  0  0  0  0
  -23.9688  -30.4268   19.3740 H   0  0  0  0  0  0
  -22.8873  -29.1434   19.8130 H   0  0  0  0  0  0
  -25.1361  -36.1605   25.0762 H   0  0  0  0  0  0
  -21.0066  -28.3430   24.1251 H   0  0  0  0  0  0
  -20.5660  -26.2423   23.3679 H   0  0  0  0  0  0
  -21.6667  -26.7372   22.1231 H   0  0  0  0  0  0
  -19.6936  -25.6261   21.1303 H   0  0  0  0  0  0
  -19.6728  -27.3137   20.6713 H   0  0  0  0  0  0
  -17.4236  -26.6701   21.4022 H   0  0  0  0  0  0
  -18.0351  -26.0118   22.9034 H   0  0  0  0  0  0
  -19.7991  -30.7359   24.2152 H   0  0  0  0  0  0
  -17.5054  -31.6281   24.5169 H   0  0  0  0  0  0
  -15.5392  -30.2967   23.7725 H   0  0  0  0  0  0
  -15.8724  -28.0803   22.7138 H   0  0  0  0  0  0
  -24.5873  -30.7147   25.7570 H   0  0  0  0  0  0
  -24.8805  -32.3063   26.4458 H   0  0  0  0  0  0
  -25.7808  -30.9153   27.0204 H   0  0  0  0  0  0
  -26.3301  -29.6397   24.1651 H   0  0  0  0  0  0
  -27.3957  -29.7297   25.5429 H   0  0  0  0  0  0
  -27.9295  -30.3914   24.0216 H   0  0  0  0  0  0
  -27.2572  -33.3755   26.1837 H   0  0  0  0  0  0
  -28.3983  -32.6796   25.0427 H   0  0  0  0  0  0
  -28.0572  -31.8660   26.5619 H   0  0  0  0  0  0
  -28.2531  -38.0056   24.7536 H   0  0  0  0  0  0
  -28.1105  -36.2580   24.6263 H   0  0  0  0  0  0
  -27.2280  -37.1314   25.8865 H   0  0  0  0  0  0
  -20.9779  -29.8652   21.6458 H   0  0  0  0  0  0
  -26.0078  -38.2674   24.1445 H   0  0  0  0  0  0
  -32.9452  -22.2243   20.5595 H   0  0  0  0  0  0
  -33.3040  -20.6055   19.9887 H   0  0  0  0  0  0
  -33.0406  -20.8932   21.7099 H   0  0  0  0  0  0
  -27.1624  -23.3663   20.9119 H   0  0  0  0  0  0
  -27.4577  -23.4270   19.2279 H   0  0  0  0  0  0
  -28.4922  -16.9178   20.3312 H   0  0  0  0  0  0
  1 25  1  0  0  0
  1 30  2  0  0  0
  1 79  1  0  0  0
  2  3  1  0  0  0
  2 25  1  0  0  0
  2 83  1  0  0  0
  2 84  1  0  0  0
  3  4  1  0  0  0
  3 85  1  0  0  0
  3 86  1  0  0  0
  4  5  1  0  0  0
  4 87  1  0  0  0
  4 88  1  0  0  0
  5  6  1  0  0  0
  5 26  1  0  0  0
  5 89  1  0  0  0
  6 25  1  0  0  0
  6 90  1  0  0  0
  6 91  1  0  0  0
  7  8  2  0  0  0
  7 26  1  0  0  0
  7 29  1  0  0  0
  8  9  1  0  0  0
  8 22  1  0  0  0
  9 10  1  0  0  0
  9 27  2  0  0  0
 10 11  2  0  0  0
 10 15  1  0  0  0
 11 12  1  0  0  0
 11 92  1  0  0  0
 12 13  2  0  0  0
 12 93  1  0  0  0
 13 14  1  0  0  0
 13 31  1  0  0  0
 14 15  2  0  0  0
 14 94  1  0  0  0
 15 95  1  0  0  0
 16 17  2  0  0  0
 16 21  1  0  0  0
 16 31  1  0  0  0
 17 18  1  0  0  0
 17 96  1  0  0  0
 18 19  2  0  0  0
 18 97  1  0  0  0
 19 20  1  0  0  0
 19 24  1  0  0  0
 20 21  2  0  0  0
 20 98  1  0  0  0
 21 23  1  0  0  0
 22 28  1  0  0  0
 22 32  2  0  0  0
 26 27  1  0  0  0
 28 99  1  0  0  0
 28100  1  0  0  0
 29101  1  0  0  0
 29102  1  0  0  0
 33 34  1  0  0  0
 33 66  1  0  0  0
 33 70  2  0  0  0
 34 36  1  0  0  0
 34 59  1  0  0  0
 34103  1  0  0  0
 35 44  2  0  0  0
 35 45  1  0  0  0
 35 68  1  0  0  0
 36 56  1  0  0  0
 36104  1  0  0  0
 37 39  1  0  0  0
 37 47  1  0  0  0
 37 66  1  0  0  0
 37105  1  0  0  0
 38 43  2  0  0  0
 38 46  1  0  0  0
 38 47  1  0  0  0
 39 64  1  0  0  0
 39 67  2  0  0  0
 40 52  1  0  0  0
 40 53  2  0  0  0
 40 58  1  0  0  0
 41106  1  0  0  0
 41107  1  0  0  0
 41108  1  0  0  0
 41 48  1  0  0  0
 42 43  1  0  0  0
 42 66  1  0  0  0
 42109  1  0  0  0
 42110  1  0  0  0
 43 44  1  0  0  0
 44111  1  0  0  0
 45 46  2  0  0  0
 45112  1  0  0  0
 46113  1  0  0  0
 47114  1  0  0  0
 47115  1  0  0  0
 48 56  1  0  0  0
 48 65  1  0  0  0
 48116  1  0  0  0
 49 50  1  0  0  0
 49 53  1  0  0  0
 49 64  1  0  0  0
 49117  1  0  0  0
 50 51  1  0  0  0
 50118  1  0  0  0
 50119  1  0  0  0
 51 52  1  0  0  0
 51120  1  0  0  0
 51121  1  0  0  0
 52122  1  0  0  0
 52123  1  0  0  0
 53 54  1  0  0  0
 54 55  2  0  0  0
 54124  1  0  0  0
 55 57  1  0  0  0
 55125  1  0  0  0
 56 69  2  0  0  0
 57 58  2  0  0  0
 57126  1  0  0  0
 58127  1  0  0  0
 59 60  1  0  0  0
 59 61  1  0  0  0
 59 62  1  0  0  0
 60128  1  0  0  0
 60129  1  0  0  0
 60130  1  0  0  0
 61131  1  0  0  0
 61132  1  0  0  0
 61133  1  0  0  0
 62134  1  0  0  0
 62135  1  0  0  0
 62136  1  0  0  0
 63 65  1  0  0  0
 63137  1  0  0  0
 63138  1  0  0  0
 63139  1  0  0  0
 64140  1  0  0  0
 65141  1  0  0  0
 68 78  1  0  0  0
 71 74  2  0  0  0
 71 75  1  0  0  0
 71 77  1  0  0  0
 72 74  1  0  0  0
 72 76  2  0  0  0
 72 78  1  0  0  0
 73 75  2  0  0  0
 73 76  1  0  0  0
 73 79  1  0  0  0
 74 80  1  0  0  0
 75 81  1  0  0  0
 76 82  1  0  0  0
 77142  1  0  0  0
 77143  1  0  0  0
 77144  1  0  0  0
 78145  1  0  0  0
 78146  1  0  0  0
 79147  1  0  0  0
M  ISO  4   1 100  68 101  78 101  79 100
M  END
> <chiral flag>
0

> <version>
0

> <s_m_source_file>
/data/baiqing/PycharmProjects/Reinvent-master-3.2/result/LINK_invent/BTK/process_docking_weight1_custom_sum_contain_oxygen_bond_distance_aromatic_linkinvent_7_9_3/rearranged_h_0014.sdf

> <i_m_source_file_index>
37

> <r_mmod_Potential_Energy-OPLS-2005>
2751.63256835938

> <r_mmod_Stretch_Energy-OPLS-2005>
1263.52954101562

> <r_mmod_Bend_Energy-OPLS-2005>
642.753051757812

> <r_mmod_Torsional_Energy-OPLS-2005>
222.975158691406

> <r_mmod_Improper_Torsional_Energy-OPLS-2005>
4.30558633804321

> <r_mmod_Van_der_Waal_Energy-OPLS-2005>
127.070510864258

> <r_mmod_Electrostatic_Energy-OPLS-2005>
-415.648101806641

> <r_mmod_Solvation_Energy-OPLS-2005>
-218.564529418945

> <b_mmod_Minimization_Converged-OPLS-2005>
0

> <r_mmod_RMS_Derivative-OPLS-2005>
0.305343389511108

$$$$
37
                    3D
 Structure written by MMmdl.
156164  0  0  1  0            999 V2000
  -30.6287  -14.6219   20.5082 C   0  0  0  0  0  0
  -30.4385  -12.3827   19.4488 C   0  0  0  0  0  0
  -29.5051  -12.5066   18.2232 C   0  0  0  0  0  0
  -28.0281  -12.3476   18.6364 C   0  0  0  0  0  0
  -27.6557  -13.2140   19.8684 C   0  0  2  0  0  0
  -28.7015  -13.0563   20.9960 C   0  0  0  0  0  0
  -25.2569  -13.8163   20.5688 C   0  0  0  0  0  0
  -24.1830  -13.0435   20.9187 C   0  0  0  0  0  0
  -24.6397  -11.6906   20.8745 C   0  0  0  0  0  0
  -23.9067  -10.4291   21.0411 C   0  0  0  0  0  0
  -24.3617   -9.4205   21.9188 C   0  0  0  0  0  0
  -23.6290   -8.2241   22.0758 C   0  0  0  0  0  0
  -22.4273   -8.0280   21.3545 C   0  0  0  0  0  0
  -21.9908   -9.0256   20.4649 C   0  0  0  0  0  0
  -22.7239  -10.2134   20.3059 C   0  0  0  0  0  0
  -21.6851   -6.0736   22.5279 C   0  0  0  0  0  0
  -21.4014   -6.5640   23.8213 C   0  0  0  0  0  0
  -21.3657   -5.6793   24.9175 C   0  0  0  0  0  0
  -21.6044   -4.3057   24.7225 C   0  0  0  0  0  0
  -21.8819   -3.8147   23.4347 C   0  0  0  0  0  0
  -21.9193   -4.6963   22.3402 C   0  0  0  0  0  0
  -22.7852  -13.5230   21.1851 C   0  0  0  0  0  0
  -22.1661   -4.2149   21.0979 F   0  0  0  0  0  0
  -21.5627   -3.4542   25.7738 F   0  0  0  0  0  0
  -30.0194  -13.3973   20.4351 N   0  0  0  0  0  0
  -26.3005  -12.9342   20.3355 N   0  0  0  0  0  0
  -25.9328  -11.6500   20.5779 N   0  0  0  0  0  0
  -22.0498  -12.8221   22.0408 N   0  0  0  0  0  0
  -25.4286  -15.1880   20.4089 N   0  0  0  0  0  0
  -31.7820  -14.7930   20.1033 O   0  0  0  0  0  0
  -21.6638   -6.8879   21.4241 O   0  0  0  0  0  0
  -22.3536  -14.5540   20.6706 O   0  0  0  0  0  0
  -24.6244  -31.8610   23.2045 C   0  0  0  0  0  0
  -25.9102  -32.4780   23.8364 C   0  0  1  0  0  0
  -27.2251  -27.3323   20.1110 C   0  0  0  0  0  0
  -25.5928  -33.8582   24.2289 N   0  0  0  0  0  0
  -23.4169  -30.4849   21.5467 C   0  0  2  0  0  0
  -24.8634  -28.9438   20.1100 C   0  0  0  0  0  0
  -22.7468  -29.4619   22.4944 C   0  0  0  0  0  0
  -18.0284  -28.1368   22.8476 C   0  0  0  0  0  0
  -24.1493  -36.7295   23.2638 C   0  0  0  0  0  0
  -25.9571  -30.7947   21.3746 C   0  0  0  0  0  0
  -26.0312  -29.4241   20.7153 C   0  0  0  0  0  0
  -27.2147  -28.6295   20.7075 C   0  0  0  0  0  0
  -26.0348  -26.9053   19.4764 C   0  0  0  0  0  0
  -24.8664  -27.6892   19.4826 C   0  0  0  0  0  0
  -23.6308  -29.8223   20.1609 C   0  0  0  0  0  0
  -25.4114  -36.3083   24.0328 C   0  0  1  0  0  0
  -20.5881  -28.3669   23.1284 C   0  0  2  0  0  0
  -20.6774  -26.9394   22.5403 C   0  0  0  0  0  0
  -19.5753  -26.6370   21.5199 C   0  0  0  0  0  0
  -18.1932  -26.7909   22.1612 C   0  0  0  0  0  0
  -19.1536  -28.8836   23.2872 C   0  0  0  0  0  0
  -18.9464  -30.1442   23.8882 C   0  0  0  0  0  0
  -17.6466  -30.6576   24.0553 C   0  0  0  0  0  0
  -25.9045  -34.9452   23.5105 C   0  0  0  0  0  0
  -16.5357  -29.9069   23.6328 C   0  0  0  0  0  0
  -16.7274  -28.6489   23.0341 C   0  0  0  0  0  0
  -26.4494  -31.6587   25.0727 C   0  0  0  0  0  0
  -25.3740  -31.3721   26.1465 C   0  0  0  0  0  0
  -27.0339  -30.3018   24.6160 C   0  0  0  0  0  0
  -27.6052  -32.4323   25.7499 C   0  0  0  0  0  0
  -27.5579  -37.1803   24.8465 C   0  0  0  0  0  0
  -21.4184  -29.3031   22.3693 N   0  0  0  0  0  0
  -26.4292  -37.3774   23.9405 N   0  0  0  0  0  0
  -24.6848  -31.0629   22.0993 N   0  0  0  0  0  0
  -23.4202  -28.8144   23.3005 O   0  0  0  0  0  0
  -28.3492  -26.4957   20.1687 O   0  0  0  0  0  0
  -26.5614  -34.8916   22.4669 O   0  0  0  0  0  0
  -23.5414  -32.1402   23.7382 O   0  0  0  0  0  0
  -30.9466  -17.8318   20.1280 C   0  0  0  0  0  0
  -29.9348  -20.0429   20.7006 C   0  0  0  0  0  0
  -29.9201  -17.1097   20.7927 C   0  0  0  0  0  0
  -30.9519  -19.2590   20.0840 C   0  0  0  0  0  0
  -28.8947  -19.3204   21.3360 C   0  0  0  0  0  0
  -28.8858  -17.8937   21.3713 C   0  0  0  0  0  0
  -29.4255  -24.3755   22.1171 C   0  0  0  0  0  0
  -30.0867  -21.6020   20.8515 C   0  0  0  0  0  0
  -28.1495  -25.0368   20.0135 C   0  0  0  0  0  0
  -29.2530  -24.0610   20.6143 C   0  0  2  0  0  0
  -29.8276  -15.6535   20.9109 N   0  0  0  0  0  0
  -29.0135  -22.5639   20.3780 N   0  3  0  0  0  0
  -31.9877  -19.8808   19.4714 F   0  0  0  0  0  0
  -27.9022  -20.0052   21.9548 F   0  0  0  0  0  0
  -27.8650  -17.2602   21.9975 F   0  0  0  0  0  0
  -31.4793  -12.5073   19.1451 H   0  0  0  0  0  0
  -30.3726  -11.3844   19.8844 H   0  0  0  0  0  0
  -29.7644  -11.7568   17.4747 H   0  0  0  0  0  0
  -29.6489  -13.4770   17.7457 H   0  0  0  0  0  0
  -27.8618  -11.2938   18.8639 H   0  0  0  0  0  0
  -27.3725  -12.5838   17.7971 H   0  0  0  0  0  0
  -27.6780  -14.2512   19.5339 H   0  0  0  0  0  0
  -28.7103  -12.0311   21.3694 H   0  0  0  0  0  0
  -28.4485  -13.6798   21.8549 H   0  0  0  0  0  0
  -25.2764   -9.5677   22.4764 H   0  0  0  0  0  0
  -24.0000   -7.4629   22.7476 H   0  0  0  0  0  0
  -21.0842   -8.8775   19.8953 H   0  0  0  0  0  0
  -22.3700  -10.9675   19.6169 H   0  0  0  0  0  0
  -21.2009   -7.6150   23.9716 H   0  0  0  0  0  0
  -21.1478   -6.0525   25.9078 H   0  0  0  0  0  0
  -22.0601   -2.7611   23.2847 H   0  0  0  0  0  0
  -22.4112  -11.9869   22.4772 H   0  0  0  0  0  0
  -21.1122  -13.1252   22.2638 H   0  0  0  0  0  0
  -24.6662  -15.8454   20.5303 H   0  0  0  0  0  0
  -26.2838  -15.6293   20.0972 H   0  0  0  0  0  0
  -26.7166  -32.5455   23.1110 H   0  0  0  0  0  0
  -25.0089  -33.9732   25.0443 H   0  0  0  0  0  0
  -22.7089  -31.3043   21.4060 H   0  0  0  0  0  0
  -23.3749  -35.9636   23.3307 H   0  0  0  0  0  0
  -24.3588  -36.8911   22.2053 H   0  0  0  0  0  0
  -23.7254  -37.6502   23.6659 H   0  0  0  0  0  0
  -26.0878  -31.5601   20.6086 H   0  0  0  0  0  0
  -26.8378  -30.8415   22.0032 H   0  0  0  0  0  0
  -28.1103  -28.9928   21.1925 H   0  0  0  0  0  0
  -25.9764  -25.9524   18.9720 H   0  0  0  0  0  0
  -23.9726  -27.3170   19.0005 H   0  0  0  0  0  0
  -23.7503  -30.6010   19.4066 H   0  0  0  0  0  0
  -22.7508  -29.2520   19.8576 H   0  0  0  0  0  0
  -25.1294  -36.1938   25.0820 H   0  0  0  0  0  0
  -20.9969  -28.3241   24.1404 H   0  0  0  0  0  0
  -20.5667  -26.2278   23.3598 H   0  0  0  0  0  0
  -21.6647  -26.7421   22.1202 H   0  0  0  0  0  0
  -19.6922  -25.6280   21.1227 H   0  0  0  0  0  0
  -19.6700  -27.3186   20.6733 H   0  0  0  0  0  0
  -17.4201  -26.6650   21.4016 H   0  0  0  0  0  0
  -18.0341  -26.0048   22.9007 H   0  0  0  0  0  0
  -19.7947  -30.7252   24.2247 H   0  0  0  0  0  0
  -17.5024  -31.6257   24.5155 H   0  0  0  0  0  0
  -15.5356  -30.2964   23.7662 H   0  0  0  0  0  0
  -15.8671  -28.0811   22.7050 H   0  0  0  0  0  0
  -24.5911  -30.7062   25.7807 H   0  0  0  0  0  0
  -24.8934  -32.2892   26.4890 H   0  0  0  0  0  0
  -25.8083  -30.8909   27.0237 H   0  0  0  0  0  0
  -26.2909  -29.6768   24.1191 H   0  0  0  0  0  0
  -27.4063  -29.7266   25.4646 H   0  0  0  0  0  0
  -27.8766  -30.4314   23.9362 H   0  0  0  0  0  0
  -27.2655  -33.3620   26.2073 H   0  0  0  0  0  0
  -28.3870  -32.6889   25.0336 H   0  0  0  0  0  0
  -28.0708  -31.8449   26.5422 H   0  0  0  0  0  0
  -28.2592  -38.0105   24.7502 H   0  0  0  0  0  0
  -28.1079  -36.2631   24.6302 H   0  0  0  0  0  0
  -27.2295  -37.1461   25.8869 H   0  0  0  0  0  0
  -20.9354  -29.8772   21.6925 H   0  0  0  0  0  0
  -26.0176  -38.2847   24.1408 H   0  0  0  0  0  0
  -31.7602  -17.3037   19.6538 H   0  0  0  0  0  0
  -29.5526  -25.4472   22.2778 H   0  0  0  0  0  0
  -30.3063  -23.8971   22.5443 H   0  0  0  0  0  0
  -28.5543  -24.0650   22.6955 H   0  0  0  0  0  0
  -31.0207  -21.9043   20.3778 H   0  0  0  0  0  0
  -30.2410  -21.7628   21.9174 H   0  0  0  0  0  0
  -27.2032  -24.7568   20.4790 H   0  0  0  0  0  0
  -28.0429  -24.8299   18.9480 H   0  0  0  0  0  0
  -30.1897  -24.3099   20.1139 H   0  0  0  0  0  0
  -28.9476  -15.3368   21.2897 H   0  0  0  0  0  0
  -28.1446  -22.2904   20.8109 H   0  0  0  0  0  0
  -28.9049  -22.4141   19.3862 H   0  0  0  0  0  0
  1 25  1  0  0  0
  1 30  2  0  0  0
  1 81  1  0  0  0
  2  3  1  0  0  0
  2 25  1  0  0  0
  2 86  1  0  0  0
  2 87  1  0  0  0
  3  4  1  0  0  0
  3 88  1  0  0  0
  3 89  1  0  0  0
  4  5  1  0  0  0
  4 90  1  0  0  0
  4 91  1  0  0  0
  5  6  1  0  0  0
  5 26  1  0  0  0
  5 92  1  0  0  0
  6 25  1  0  0  0
  6 93  1  0  0  0
  6 94  1  0  0  0
  7  8  2  0  0  0
  7 26  1  0  0  0
  7 29  1  0  0  0
  8  9  1  0  0  0
  8 22  1  0  0  0
  9 10  1  0  0  0
  9 27  2  0  0  0
 10 11  2  0  0  0
 10 15  1  0  0  0
 11 12  1  0  0  0
 11 95  1  0  0  0
 12 13  2  0  0  0
 12 96  1  0  0  0
 13 14  1  0  0  0
 13 31  1  0  0  0
 14 15  2  0  0  0
 14 97  1  0  0  0
 15 98  1  0  0  0
 16 17  2  0  0  0
 16 21  1  0  0  0
 16 31  1  0  0  0
 17 18  1  0  0  0
 17 99  1  0  0  0
 18 19  2  0  0  0
 18100  1  0  0  0
 19 20  1  0  0  0
 19 24  1  0  0  0
 20 21  2  0  0  0
 20101  1  0  0  0
 21 23  1  0  0  0
 22 28  1  0  0  0
 22 32  2  0  0  0
 26 27  1  0  0  0
 28102  1  0  0  0
 28103  1  0  0  0
 29104  1  0  0  0
 29105  1  0  0  0
 33 34  1  0  0  0
 33 66  1  0  0  0
 33 70  2  0  0  0
 34 36  1  0  0  0
 34 59  1  0  0  0
 34106  1  0  0  0
 35 44  2  0  0  0
 35 45  1  0  0  0
 35 68  1  0  0  0
 36 56  1  0  0  0
 36107  1  0  0  0
 37 39  1  0  0  0
 37 47  1  0  0  0
 37 66  1  0  0  0
 37108  1  0  0  0
 38 43  2  0  0  0
 38 46  1  0  0  0
 38 47  1  0  0  0
 39 64  1  0  0  0
 39 67  2  0  0  0
 40 52  1  0  0  0
 40 53  2  0  0  0
 40 58  1  0  0  0
 41109  1  0  0  0
 41110  1  0  0  0
 41111  1  0  0  0
 41 48  1  0  0  0
 42 43  1  0  0  0
 42 66  1  0  0  0
 42112  1  0  0  0
 42113  1  0  0  0
 43 44  1  0  0  0
 44114  1  0  0  0
 45 46  2  0  0  0
 45115  1  0  0  0
 46116  1  0  0  0
 47117  1  0  0  0
 47118  1  0  0  0
 48 56  1  0  0  0
 48 65  1  0  0  0
 48119  1  0  0  0
 49 50  1  0  0  0
 49 53  1  0  0  0
 49 64  1  0  0  0
 49120  1  0  0  0
 50 51  1  0  0  0
 50121  1  0  0  0
 50122  1  0  0  0
 51 52  1  0  0  0
 51123  1  0  0  0
 51124  1  0  0  0
 52125  1  0  0  0
 52126  1  0  0  0
 53 54  1  0  0  0
 54 55  2  0  0  0
 54127  1  0  0  0
 55 57  1  0  0  0
 55128  1  0  0  0
 56 69  2  0  0  0
 57 58  2  0  0  0
 57129  1  0  0  0
 58130  1  0  0  0
 59 60  1  0  0  0
 59 61  1  0  0  0
 59 62  1  0  0  0
 60131  1  0  0  0
 60132  1  0  0  0
 60133  1  0  0  0
 61134  1  0  0  0
 61135  1  0  0  0
 61136  1  0  0  0
 62137  1  0  0  0
 62138  1  0  0  0
 62139  1  0  0  0
 63 65  1  0  0  0
 63140  1  0  0  0
 63141  1  0  0  0
 63142  1  0  0  0
 64143  1  0  0  0
 65144  1  0  0  0
 68 79  1  0  0  0
 71 73  2  0  0  0
 71 74  1  0  0  0
 71145  1  0  0  0
 72 74  2  0  0  0
 72 75  1  0  0  0
 72 78  1  0  0  0
 73 76  1  0  0  0
 73 81  1  0  0  0
 74 83  1  0  0  0
 75 76  2  0  0  0
 75 84  1  0  0  0
 76 85  1  0  0  0
 77146  1  0  0  0
 77147  1  0  0  0
 77148  1  0  0  0
 77 80  1  0  0  0
 78 82  1  0  0  0
 78149  1  0  0  0
 78150  1  0  0  0
 79 80  1  0  0  0
 79151  1  0  0  0
 79152  1  0  0  0
 80 82  1  0  0  0
 80153  1  0  0  0
 81154  1  0  0  0
 82155  1  0  0  0
 82156  1  0  0  0
M  CHG  1  82   1
M  ISO  4   1 100  68 101  79 101  81 100
M  END
> <chiral flag>
0

> <version>
0

> <s_m_source_file>
/data/baiqing/PycharmProjects/Reinvent-master-3.2/result/LINK_invent/BTK/process_docking_weight1_custom_sum_contain_oxygen_bond_distance_aromatic_linkinvent_7_9_3/rearranged_h_0014.sdf

> <i_m_source_file_index>
38

> <r_mmod_Potential_Energy-OPLS-2005>
-122.008766174316

> <r_mmod_Stretch_Energy-OPLS-2005>
76.453369140625

> <r_mmod_Bend_Energy-OPLS-2005>
136.172500610352

> <r_mmod_Torsional_Energy-OPLS-2005>
209.105484008789

> <r_mmod_Improper_Torsional_Energy-OPLS-2005>
4.54518508911133

> <r_mmod_Van_der_Waal_Energy-OPLS-2005>
145.529373168945

> <r_mmod_Electrostatic_Energy-OPLS-2005>
-289.436798095703

> <r_mmod_Solvation_Energy-OPLS-2005>
-447.221832275391

> <b_mmod_Minimization_Converged-OPLS-2005>
0

> <r_mmod_RMS_Derivative-OPLS-2005>
0.818656623363495

$$$$
38
                    3D
 Structure written by MMmdl.
147155  0  0  1  0            999 V2000
  -30.4088  -15.3445   20.3202 C   0  0  0  0  0  0
  -30.4401  -12.8564   19.5450 C   0  0  0  0  0  0
  -29.5375  -12.5935   18.3111 C   0  0  0  0  0  0
  -28.0999  -12.2794   18.7501 C   0  0  0  0  0  0
  -27.6096  -13.2773   19.8286 C   0  0  2  0  0  0
  -28.6422  -13.4983   20.9606 C   0  0  0  0  0  0
  -25.2413  -13.8258   20.5834 C   0  0  0  0  0  0
  -24.1733  -13.0434   20.9257 C   0  0  0  0  0  0
  -24.6405  -11.6947   20.8795 C   0  0  0  0  0  0
  -23.9119  -10.4288   21.0437 C   0  0  0  0  0  0
  -24.3656   -9.4183   21.9207 C   0  0  0  0  0  0
  -23.6320   -8.2221   22.0788 C   0  0  0  0  0  0
  -22.4327   -8.0266   21.3543 C   0  0  0  0  0  0
  -21.9951   -9.0262   20.4674 C   0  0  0  0  0  0
  -22.7294  -10.2129   20.3086 C   0  0  0  0  0  0
  -21.6844   -6.0757   22.5289 C   0  0  0  0  0  0
  -21.4009   -6.5659   23.8228 C   0  0  0  0  0  0
  -21.3665   -5.6821   24.9200 C   0  0  0  0  0  0
  -21.6051   -4.3090   24.7252 C   0  0  0  0  0  0
  -21.8796   -3.8168   23.4370 C   0  0  0  0  0  0
  -21.9178   -4.6978   22.3423 C   0  0  0  0  0  0
  -22.7756  -13.5192   21.1871 C   0  0  0  0  0  0
  -22.1625   -4.2160   21.1002 F   0  0  0  0  0  0
  -21.5634   -3.4581   25.7760 F   0  0  0  0  0  0
  -29.8692  -14.0179   20.3301 N   0  0  0  0  0  0
  -26.2833  -12.9533   20.3327 N   0  0  0  0  0  0
  -25.9351  -11.6643   20.5788 N   0  0  0  0  0  0
  -22.0423  -12.8186   22.0446 N   0  0  0  0  0  0
  -25.4060  -15.1981   20.4322 N   0  0  0  0  0  0
  -31.6253  -15.3370   20.0861 O   0  0  0  0  0  0
  -21.6646   -6.8899   21.4251 O   0  0  0  0  0  0
  -22.3424  -14.5490   20.6728 O   0  0  0  0  0  0
  -24.6670  -31.8209   23.1670 C   0  0  0  0  0  0
  -25.9328  -32.4553   23.8146 C   0  0  1  0  0  0
  -27.2262  -26.8999   20.1772 C   0  0  0  0  0  0
  -25.5982  -33.8384   24.2034 N   0  0  0  0  0  0
  -23.4841  -30.4341   21.5150 C   0  0  2  0  0  0
  -24.9315  -28.8084   20.1102 C   0  0  0  0  0  0
  -22.7680  -29.4499   22.4781 C   0  0  0  0  0  0
  -18.0386  -28.1395   22.8401 C   0  0  0  0  0  0
  -24.1482  -36.7196   23.2663 C   0  0  0  0  0  0
  -26.0509  -30.6153   21.4024 C   0  0  0  0  0  0
  -26.1166  -29.2042   20.7423 C   0  0  0  0  0  0
  -27.2517  -28.2714   20.7549 C   0  0  0  0  0  0
  -26.0120  -26.6639   19.4936 C   0  0  0  0  0  0
  -24.9073  -27.5575   19.4657 C   0  0  0  0  0  0
  -23.7203  -29.7428   20.1441 C   0  0  0  0  0  0
  -25.4123  -36.2944   24.0304 C   0  0  1  0  0  0
  -20.5982  -28.3822   23.1229 C   0  0  2  0  0  0
  -20.6893  -26.9449   22.5621 C   0  0  0  0  0  0
  -19.6034  -26.6379   21.5238 C   0  0  0  0  0  0
  -18.2089  -26.7985   22.1413 C   0  0  0  0  0  0
  -19.1609  -28.8909   23.2829 C   0  0  0  0  0  0
  -18.9459  -30.1479   23.8909 C   0  0  0  0  0  0
  -17.6449  -30.6571   24.0563 C   0  0  0  0  0  0
  -25.9107  -34.9343   23.4998 C   0  0  0  0  0  0
  -16.5372  -29.9056   23.6287 C   0  0  0  0  0  0
  -16.7355  -28.6493   23.0268 C   0  0  0  0  0  0
  -26.4544  -31.6521   25.0695 C   0  0  0  0  0  0
  -25.3662  -31.3829   26.1353 C   0  0  0  0  0  0
  -27.0451  -30.2877   24.6493 C   0  0  0  0  0  0
  -27.6000  -32.4360   25.7503 C   0  0  0  0  0  0
  -27.5560  -37.1767   24.8476 C   0  0  0  0  0  0
  -21.4321  -29.3123   22.3541 N   0  0  0  0  0  0
  -26.4266  -37.3683   23.9406 N   0  0  0  0  0  0
  -24.7556  -30.9834   22.0821 N   0  0  0  0  0  0
  -23.4180  -28.8105   23.3089 O   0  0  0  0  0  0
  -28.2333  -25.7916   20.2980 O   0  0  0  0  0  0
  -26.5729  -34.8912   22.4599 O   0  0  0  0  0  0
  -23.5735  -32.1234   23.6724 O   0  0  0  0  0  0
  -29.9641  -20.9717   18.8460 C   0  0  0  0  0  0
  -29.1871  -20.9759   20.0234 C   0  0  0  0  0  0
  -29.7253  -18.2034   20.0322 C   0  0  0  0  0  0
  -30.5584  -19.8042   18.2936 C   0  0  0  0  0  0
  -29.0927  -19.5209   20.5759 C   0  0  0  0  0  0
  -30.4475  -18.4953   18.8477 C   0  0  0  0  0  0
  -28.7063  -22.5782   20.6058 C   0  0  0  0  0  0
  -28.2152  -24.1768   19.8615 C   0  0  0  0  0  0
  -29.6346  -16.6214   20.4583 N   0  0  0  0  0  0
  -31.2888  -19.9536   17.1594 F   0  0  0  0  0  0
  -28.3619  -19.3801   21.7081 F   0  0  0  0  0  0
  -31.0411  -17.4848   18.1702 F   0  0  0  0  0  0
  -31.4566  -13.0669   19.2095 H   0  0  0  0  0  0
  -30.5262  -11.9625   20.1671 H   0  0  0  0  0  0
  -29.9392  -11.7774   17.7101 H   0  0  0  0  0  0
  -29.5357  -13.4809   17.6753 H   0  0  0  0  0  0
  -28.0959  -11.2689   19.1623 H   0  0  0  0  0  0
  -27.4257  -12.2650   17.8932 H   0  0  0  0  0  0
  -27.5094  -14.2254   19.2983 H   0  0  0  0  0  0
  -28.8291  -12.5861   21.5309 H   0  0  0  0  0  0
  -28.2705  -14.2335   21.6760 H   0  0  0  0  0  0
  -25.2790   -9.5658   22.4818 H   0  0  0  0  0  0
  -24.0029   -7.4642   22.7542 H   0  0  0  0  0  0
  -21.0857   -8.8786   19.9013 H   0  0  0  0  0  0
  -22.3737  -10.9686   19.6227 H   0  0  0  0  0  0
  -21.1977   -7.6170   23.9726 H   0  0  0  0  0  0
  -21.1528   -6.0575   25.9110 H   0  0  0  0  0  0
  -22.0574   -2.7638   23.2868 H   0  0  0  0  0  0
  -22.4078  -11.9834   22.4773 H   0  0  0  0  0  0
  -21.1079  -13.1254   22.2768 H   0  0  0  0  0  0
  -24.6388  -15.8511   20.5572 H   0  0  0  0  0  0
  -26.2583  -15.6506   20.1281 H   0  0  0  0  0  0
  -26.7413  -32.5058   23.0879 H   0  0  0  0  0  0
  -25.0003  -33.9456   25.0103 H   0  0  0  0  0  0
  -22.8031  -31.2690   21.3387 H   0  0  0  0  0  0
  -23.3744  -35.9528   23.3270 H   0  0  0  0  0  0
  -24.3602  -36.8882   22.2094 H   0  0  0  0  0  0
  -23.7239  -37.6385   23.6732 H   0  0  0  0  0  0
  -26.2325  -31.3593   20.6269 H   0  0  0  0  0  0
  -26.9110  -30.6681   22.0592 H   0  0  0  0  0  0
  -28.1446  -28.5788   21.2796 H   0  0  0  0  0  0
  -25.8795  -25.7107   19.0034 H   0  0  0  0  0  0
  -24.0134  -27.2377   18.9497 H   0  0  0  0  0  0
  -23.8774  -30.5072   19.3831 H   0  0  0  0  0  0
  -22.8231  -29.2042   19.8366 H   0  0  0  0  0  0
  -25.1316  -36.1728   25.0794 H   0  0  0  0  0  0
  -21.0065  -28.3567   24.1347 H   0  0  0  0  0  0
  -20.5490  -26.2515   23.3935 H   0  0  0  0  0  0
  -21.6853  -26.7289   22.1722 H   0  0  0  0  0  0
  -19.7328  -25.6285   21.1337 H   0  0  0  0  0  0
  -19.7198  -27.3130   20.6741 H   0  0  0  0  0  0
  -17.4488  -26.6914   21.3655 H   0  0  0  0  0  0
  -18.0316  -26.0023   22.8665 H   0  0  0  0  0  0
  -19.7857  -30.7364   24.2348 H   0  0  0  0  0  0
  -17.4995  -31.6214   24.5217 H   0  0  0  0  0  0
  -15.5372  -30.2983   23.7624 H   0  0  0  0  0  0
  -15.8786  -28.0816   22.6875 H   0  0  0  0  0  0
  -24.5830  -30.7168   25.7705 H   0  0  0  0  0  0
  -24.8878  -32.3058   26.4655 H   0  0  0  0  0  0
  -25.7913  -30.9106   27.0223 H   0  0  0  0  0  0
  -26.3154  -29.6510   24.1477 H   0  0  0  0  0  0
  -27.3907  -29.7292   25.5206 H   0  0  0  0  0  0
  -27.9102  -30.4022   23.9958 H   0  0  0  0  0  0
  -27.2518  -33.3698   26.1953 H   0  0  0  0  0  0
  -28.3881  -32.6895   25.0384 H   0  0  0  0  0  0
  -28.0569  -31.8581   26.5558 H   0  0  0  0  0  0
  -28.2569  -38.0070   24.7482 H   0  0  0  0  0  0
  -28.1058  -36.2600   24.6299 H   0  0  0  0  0  0
  -27.2299  -37.1392   25.8893 H   0  0  0  0  0  0
  -20.9528  -29.8928   21.6810 H   0  0  0  0  0  0
  -26.0090  -38.2745   24.1382 H   0  0  0  0  0  0
  -30.1437  -21.9096   18.3418 H   0  0  0  0  0  0
  -29.5798  -22.8493   21.2020 H   0  0  0  0  0  0
  -27.9396  -22.3691   21.3514 H   0  0  0  0  0  0
  -28.8398  -24.2250   18.9692 H   0  0  0  0  0  0
  -27.2214  -23.9980   19.4549 H   0  0  0  0  0  0
  -28.7202  -16.4136   20.8298 H   0  0  0  0  0  0
  1 25  1  0  0  0
  1 30  2  0  0  0
  1 79  1  0  0  0
  2  3  1  0  0  0
  2 25  1  0  0  0
  2 83  1  0  0  0
  2 84  1  0  0  0
  3  4  1  0  0  0
  3 85  1  0  0  0
  3 86  1  0  0  0
  4  5  1  0  0  0
  4 87  1  0  0  0
  4 88  1  0  0  0
  5  6  1  0  0  0
  5 26  1  0  0  0
  5 89  1  0  0  0
  6 25  1  0  0  0
  6 90  1  0  0  0
  6 91  1  0  0  0
  7  8  2  0  0  0
  7 26  1  0  0  0
  7 29  1  0  0  0
  8  9  1  0  0  0
  8 22  1  0  0  0
  9 10  1  0  0  0
  9 27  2  0  0  0
 10 11  2  0  0  0
 10 15  1  0  0  0
 11 12  1  0  0  0
 11 92  1  0  0  0
 12 13  2  0  0  0
 12 93  1  0  0  0
 13 14  1  0  0  0
 13 31  1  0  0  0
 14 15  2  0  0  0
 14 94  1  0  0  0
 15 95  1  0  0  0
 16 17  2  0  0  0
 16 21  1  0  0  0
 16 31  1  0  0  0
 17 18  1  0  0  0
 17 96  1  0  0  0
 18 19  2  0  0  0
 18 97  1  0  0  0
 19 20  1  0  0  0
 19 24  1  0  0  0
 20 21  2  0  0  0
 20 98  1  0  0  0
 21 23  1  0  0  0
 22 28  1  0  0  0
 22 32  2  0  0  0
 26 27  1  0  0  0
 28 99  1  0  0  0
 28100  1  0  0  0
 29101  1  0  0  0
 29102  1  0  0  0
 33 34  1  0  0  0
 33 66  1  0  0  0
 33 70  2  0  0  0
 34 36  1  0  0  0
 34 59  1  0  0  0
 34103  1  0  0  0
 35 44  2  0  0  0
 35 45  1  0  0  0
 35 68  1  0  0  0
 36 56  1  0  0  0
 36104  1  0  0  0
 37 39  1  0  0  0
 37 47  1  0  0  0
 37 66  1  0  0  0
 37105  1  0  0  0
 38 43  2  0  0  0
 38 46  1  0  0  0
 38 47  1  0  0  0
 39 64  1  0  0  0
 39 67  2  0  0  0
 40 52  1  0  0  0
 40 53  2  0  0  0
 40 58  1  0  0  0
 41106  1  0  0  0
 41107  1  0  0  0
 41108  1  0  0  0
 41 48  1  0  0  0
 42 43  1  0  0  0
 42 66  1  0  0  0
 42109  1  0  0  0
 42110  1  0  0  0
 43 44  1  0  0  0
 44111  1  0  0  0
 45 46  2  0  0  0
 45112  1  0  0  0
 46113  1  0  0  0
 47114  1  0  0  0
 47115  1  0  0  0
 48 56  1  0  0  0
 48 65  1  0  0  0
 48116  1  0  0  0
 49 50  1  0  0  0
 49 53  1  0  0  0
 49 64  1  0  0  0
 49117  1  0  0  0
 50 51  1  0  0  0
 50118  1  0  0  0
 50119  1  0  0  0
 51 52  1  0  0  0
 51120  1  0  0  0
 51121  1  0  0  0
 52122  1  0  0  0
 52123  1  0  0  0
 53 54  1  0  0  0
 54 55  2  0  0  0
 54124  1  0  0  0
 55 57  1  0  0  0
 55125  1  0  0  0
 56 69  2  0  0  0
 57 58  2  0  0  0
 57126  1  0  0  0
 58127  1  0  0  0
 59 60  1  0  0  0
 59 61  1  0  0  0
 59 62  1  0  0  0
 60128  1  0  0  0
 60129  1  0  0  0
 60130  1  0  0  0
 61131  1  0  0  0
 61132  1  0  0  0
 61133  1  0  0  0
 62134  1  0  0  0
 62135  1  0  0  0
 62136  1  0  0  0
 63 65  1  0  0  0
 63137  1  0  0  0
 63138  1  0  0  0
 63139  1  0  0  0
 64140  1  0  0  0
 65141  1  0  0  0
 68 78  1  0  0  0
 71 72  2  0  0  0
 71 74  1  0  0  0
 71142  1  0  0  0
 72 75  1  0  0  0
 72 77  1  0  0  0
 73 75  2  0  0  0
 73 76  1  0  0  0
 73 79  1  0  0  0
 74 76  2  0  0  0
 74 80  1  0  0  0
 75 81  1  0  0  0
 76 82  1  0  0  0
 77 78  1  0  0  0
 77143  1  0  0  0
 77144  1  0  0  0
 78145  1  0  0  0
 78146  1  0  0  0
 79147  1  0  0  0
M  ISO  4   1 100  68 101  78 101  79 100
M  END
> <chiral flag>
0

> <version>
0

> <s_m_source_file>
/data/baiqing/PycharmProjects/Reinvent-master-3.2/result/LINK_invent/BTK/process_docking_weight1_custom_sum_contain_oxygen_bond_distance_aromatic_linkinvent_7_9_3/rearranged_h_0014.sdf

> <i_m_source_file_index>
39

> <r_mmod_Potential_Energy-OPLS-2005>
1379.76892089844

> <r_mmod_Stretch_Energy-OPLS-2005>
650.940185546875

> <r_mmod_Bend_Energy-OPLS-2005>
444.355438232422

> <r_mmod_Torsional_Energy-OPLS-2005>
226.397506713867

> <r_mmod_Improper_Torsional_Energy-OPLS-2005>
3.51702070236206

> <r_mmod_Van_der_Waal_Energy-OPLS-2005>
123.18660736084

> <r_mmod_Electrostatic_Energy-OPLS-2005>
-389.812835693359

> <r_mmod_Solvation_Energy-OPLS-2005>
-207.289596557617

> <b_mmod_Minimization_Converged-OPLS-2005>
0

> <r_mmod_RMS_Derivative-OPLS-2005>
5.00866842269897

$$$$
39
                    3D
 Structure written by MMmdl.
146154  0  0  1  0            999 V2000
  -30.3967  -15.3568   20.3461 C   0  0  0  0  0  0
  -30.4356  -12.8661   19.5512 C   0  0  0  0  0  0
  -29.5442  -12.6021   18.3088 C   0  0  0  0  0  0
  -28.0962  -12.3065   18.7314 C   0  0  0  0  0  0
  -27.6100  -13.2860   19.8272 C   0  0  2  0  0  0
  -28.6346  -13.4932   20.9656 C   0  0  0  0  0  0
  -25.2374  -13.8265   20.5759 C   0  0  0  0  0  0
  -24.1734  -13.0441   20.9257 C   0  0  0  0  0  0
  -24.6402  -11.6941   20.8756 C   0  0  0  0  0  0
  -23.9100  -10.4297   21.0400 C   0  0  0  0  0  0
  -24.3642   -9.4210   21.9180 C   0  0  0  0  0  0
  -23.6308   -8.2248   22.0753 C   0  0  0  0  0  0
  -22.4289   -8.0287   21.3544 C   0  0  0  0  0  0
  -21.9930   -9.0262   20.4645 C   0  0  0  0  0  0
  -22.7268  -10.2136   20.3053 C   0  0  0  0  0  0
  -21.6858   -6.0740   22.5279 C   0  0  0  0  0  0
  -21.4018   -6.5642   23.8212 C   0  0  0  0  0  0
  -21.3660   -5.6794   24.9173 C   0  0  0  0  0  0
  -21.6043   -4.3057   24.7223 C   0  0  0  0  0  0
  -21.8819   -3.8149   23.4344 C   0  0  0  0  0  0
  -21.9194   -4.6967   22.3401 C   0  0  0  0  0  0
  -22.7751  -13.5186   21.1904 C   0  0  0  0  0  0
  -22.1663   -4.2153   21.0978 F   0  0  0  0  0  0
  -21.5625   -3.4540   25.7735 F   0  0  0  0  0  0
  -29.8634  -14.0239   20.3485 N   0  0  0  0  0  0
  -26.2809  -12.9558   20.3232 N   0  0  0  0  0  0
  -25.9344  -11.6651   20.5717 N   0  0  0  0  0  0
  -22.0415  -12.8165   22.0459 N   0  0  0  0  0  0
  -25.4006  -15.2003   20.4212 N   0  0  0  0  0  0
  -31.6075  -15.3497   20.0734 O   0  0  0  0  0  0
  -21.6647   -6.8886   21.4242 O   0  0  0  0  0  0
  -22.3428  -14.5486   20.6743 O   0  0  0  0  0  0
  -24.6677  -31.8165   23.1650 C   0  0  0  0  0  0
  -25.9334  -32.4549   23.8136 C   0  0  1  0  0  0
  -27.2227  -26.8666   20.1907 C   0  0  0  0  0  0
  -25.5978  -33.8368   24.2034 N   0  0  0  0  0  0
  -23.4863  -30.4246   21.5143 C   0  0  2  0  0  0
  -24.9431  -28.8004   20.1077 C   0  0  0  0  0  0
  -22.7692  -29.4399   22.4752 C   0  0  0  0  0  0
  -18.0327  -28.1412   22.8463 C   0  0  0  0  0  0
  -24.1495  -36.7191   23.2649 C   0  0  0  0  0  0
  -26.0578  -30.6014   21.4069 C   0  0  0  0  0  0
  -26.1247  -29.1850   20.7520 C   0  0  0  0  0  0
  -27.2525  -28.2379   20.7729 C   0  0  0  0  0  0
  -26.0172  -26.6544   19.4820 C   0  0  0  0  0  0
  -24.9187  -27.5578   19.4516 C   0  0  0  0  0  0
  -23.7305  -29.7346   20.1421 C   0  0  0  0  0  0
  -25.4138  -36.2944   24.0293 C   0  0  1  0  0  0
  -20.5954  -28.3760   23.1174 C   0  0  2  0  0  0
  -20.6799  -26.9434   22.5404 C   0  0  0  0  0  0
  -19.5774  -26.6374   21.5215 C   0  0  0  0  0  0
  -18.1957  -26.7943   22.1621 C   0  0  0  0  0  0
  -19.1589  -28.8908   23.2804 C   0  0  0  0  0  0
  -18.9499  -30.1496   23.8842 C   0  0  0  0  0  0
  -17.6491  -30.6600   24.0553 C   0  0  0  0  0  0
  -25.9106  -34.9329   23.4991 C   0  0  0  0  0  0
  -16.5381  -29.9085   23.6346 C   0  0  0  0  0  0
  -16.7308  -28.6506   23.0363 C   0  0  0  0  0  0
  -26.4567  -31.6525   25.0695 C   0  0  0  0  0  0
  -25.3677  -31.3796   26.1340 C   0  0  0  0  0  0
  -27.0481  -30.2883   24.6486 C   0  0  0  0  0  0
  -27.6041  -32.4356   25.7503 C   0  0  0  0  0  0
  -27.5567  -37.1752   24.8466 C   0  0  0  0  0  0
  -21.4355  -29.3036   22.3510 N   0  0  0  0  0  0
  -26.4277  -37.3688   23.9406 N   0  0  0  0  0  0
  -24.7589  -30.9766   22.0818 N   0  0  0  0  0  0
  -23.4211  -28.7980   23.3025 O   0  0  0  0  0  0
  -28.2032  -25.7272   20.3281 O   0  0  0  0  0  0
  -26.5729  -34.8876   22.4595 O   0  0  0  0  0  0
  -23.5734  -32.1166   23.6704 O   0  0  0  0  0  0
  -29.0755  -21.0028   20.0797 C   0  0  0  0  0  0
  -29.6625  -18.2224   20.0989 C   0  0  0  0  0  0
  -29.0933  -19.5564   20.6810 C   0  0  0  0  0  0
  -29.6890  -20.9659   18.8066 C   0  0  0  0  0  0
  -30.2290  -18.4906   18.8307 C   0  0  0  0  0  0
  -30.2330  -19.7825   18.2291 C   0  0  0  0  0  0
  -28.6195  -22.6002   20.6365 C   0  0  0  0  0  0
  -28.1331  -24.1202   19.8339 C   0  0  0  0  0  0
  -29.6362  -16.6380   20.5543 N   0  0  0  0  0  0
  -28.5922  -22.7171   21.8662 O   0  0  0  0  0  0
  -28.5203  -19.4288   21.9023 F   0  0  0  0  0  0
  -29.7956  -22.1162   18.0974 F   0  0  0  0  0  0
  -30.7583  -17.4649   18.1203 F   0  0  0  0  0  0
  -30.7977  -19.8948   17.0021 F   0  0  0  0  0  0
  -31.4543  -13.0719   19.2207 H   0  0  0  0  0  0
  -30.5118  -11.9695   20.1688 H   0  0  0  0  0  0
  -29.9420  -11.7731   17.7218 H   0  0  0  0  0  0
  -29.5631  -13.4776   17.6580 H   0  0  0  0  0  0
  -28.0658  -11.2858   19.1143 H   0  0  0  0  0  0
  -27.4305  -12.3310   17.8679 H   0  0  0  0  0  0
  -27.5158  -14.2452   19.3165 H   0  0  0  0  0  0
  -28.8163  -12.5688   21.5157 H   0  0  0  0  0  0
  -28.2525  -14.2138   21.6903 H   0  0  0  0  0  0
  -25.2783   -9.5682   22.4760 H   0  0  0  0  0  0
  -24.0011   -7.4639   22.7475 H   0  0  0  0  0  0
  -21.0860   -8.8786   19.8953 H   0  0  0  0  0  0
  -22.3724  -10.9676   19.6164 H   0  0  0  0  0  0
  -21.2015   -7.6152   23.9717 H   0  0  0  0  0  0
  -21.1480   -6.0524   25.9075 H   0  0  0  0  0  0
  -22.0598   -2.7612   23.2844 H   0  0  0  0  0  0
  -22.4054  -11.9836   22.4847 H   0  0  0  0  0  0
  -21.1025  -13.1165   22.2665 H   0  0  0  0  0  0
  -24.6291  -15.8490   20.5335 H   0  0  0  0  0  0
  -26.2416  -15.6427   20.0743 H   0  0  0  0  0  0
  -26.7405  -32.5066   23.0848 H   0  0  0  0  0  0
  -25.0061  -33.9436   25.0142 H   0  0  0  0  0  0
  -22.8028  -31.2578   21.3380 H   0  0  0  0  0  0
  -23.3769  -35.9508   23.3273 H   0  0  0  0  0  0
  -24.3568  -36.8881   22.2071 H   0  0  0  0  0  0
  -23.7240  -37.6360   23.6738 H   0  0  0  0  0  0
  -26.2464  -31.3383   20.6251 H   0  0  0  0  0  0
  -26.9145  -30.6602   22.0661 H   0  0  0  0  0  0
  -28.1387  -28.5264   21.3204 H   0  0  0  0  0  0
  -25.8786  -25.7076   18.9815 H   0  0  0  0  0  0
  -24.0231  -27.2585   18.9245 H   0  0  0  0  0  0
  -23.8893  -30.5012   19.3828 H   0  0  0  0  0  0
  -22.8393  -29.1911   19.8235 H   0  0  0  0  0  0
  -25.1341  -36.1729   25.0784 H   0  0  0  0  0  0
  -21.0042  -28.3375   24.1298 H   0  0  0  0  0  0
  -20.5673  -26.2380   23.3651 H   0  0  0  0  0  0
  -21.6662  -26.7399   22.1215 H   0  0  0  0  0  0
  -19.6932  -25.6270   21.1282 H   0  0  0  0  0  0
  -19.6716  -27.3153   20.6720 H   0  0  0  0  0  0
  -17.4226  -26.6686   21.4025 H   0  0  0  0  0  0
  -18.0349  -26.0099   22.9030 H   0  0  0  0  0  0
  -19.7974  -30.7328   24.2186 H   0  0  0  0  0  0
  -17.5042  -31.6273   24.5166 H   0  0  0  0  0  0
  -15.5378  -30.2969   23.7701 H   0  0  0  0  0  0
  -15.8709  -28.0807   22.7109 H   0  0  0  0  0  0
  -24.5877  -30.7126   25.7648 H   0  0  0  0  0  0
  -24.8847  -32.3003   26.4621 H   0  0  0  0  0  0
  -25.7893  -30.9057   27.0213 H   0  0  0  0  0  0
  -26.3167  -29.6535   24.1474 H   0  0  0  0  0  0
  -27.3963  -29.7280   25.5172 H   0  0  0  0  0  0
  -27.9126  -30.4047   23.9948 H   0  0  0  0  0  0
  -27.2595  -33.3707   26.1931 H   0  0  0  0  0  0
  -28.3929  -32.6839   25.0390 H   0  0  0  0  0  0
  -28.0626  -31.8588   26.5546 H   0  0  0  0  0  0
  -28.2563  -38.0068   24.7511 H   0  0  0  0  0  0
  -28.1085  -36.2592   24.6298 H   0  0  0  0  0  0
  -27.2282  -37.1397   25.8868 H   0  0  0  0  0  0
  -20.9622  -29.8713   21.6619 H   0  0  0  0  0  0
  -26.0118  -38.2742   24.1415 H   0  0  0  0  0  0
  -27.0875  -23.9483   19.5830 H   0  0  0  0  0  0
  -28.6428  -24.1079   18.8717 H   0  0  0  0  0  0
  -28.7756  -16.4297   21.0383 H   0  0  0  0  0  0
  1 25  1  0  0  0
  1 30  2  0  0  0
  1 79  1  0  0  0
  2  3  1  0  0  0
  2 25  1  0  0  0
  2 85  1  0  0  0
  2 86  1  0  0  0
  3  4  1  0  0  0
  3 87  1  0  0  0
  3 88  1  0  0  0
  4  5  1  0  0  0
  4 89  1  0  0  0
  4 90  1  0  0  0
  5  6  1  0  0  0
  5 26  1  0  0  0
  5 91  1  0  0  0
  6 25  1  0  0  0
  6 92  1  0  0  0
  6 93  1  0  0  0
  7  8  2  0  0  0
  7 26  1  0  0  0
  7 29  1  0  0  0
  8  9  1  0  0  0
  8 22  1  0  0  0
  9 10  1  0  0  0
  9 27  2  0  0  0
 10 11  2  0  0  0
 10 15  1  0  0  0
 11 12  1  0  0  0
 11 94  1  0  0  0
 12 13  2  0  0  0
 12 95  1  0  0  0
 13 14  1  0  0  0
 13 31  1  0  0  0
 14 15  2  0  0  0
 14 96  1  0  0  0
 15 97  1  0  0  0
 16 17  2  0  0  0
 16 21  1  0  0  0
 16 31  1  0  0  0
 17 18  1  0  0  0
 17 98  1  0  0  0
 18 19  2  0  0  0
 18 99  1  0  0  0
 19 20  1  0  0  0
 19 24  1  0  0  0
 20 21  2  0  0  0
 20100  1  0  0  0
 21 23  1  0  0  0
 22 28  1  0  0  0
 22 32  2  0  0  0
 26 27  1  0  0  0
 28101  1  0  0  0
 28102  1  0  0  0
 29103  1  0  0  0
 29104  1  0  0  0
 33 34  1  0  0  0
 33 66  1  0  0  0
 33 70  2  0  0  0
 34 36  1  0  0  0
 34 59  1  0  0  0
 34105  1  0  0  0
 35 44  2  0  0  0
 35 45  1  0  0  0
 35 68  1  0  0  0
 36 56  1  0  0  0
 36106  1  0  0  0
 37 39  1  0  0  0
 37 47  1  0  0  0
 37 66  1  0  0  0
 37107  1  0  0  0
 38 43  2  0  0  0
 38 46  1  0  0  0
 38 47  1  0  0  0
 39 64  1  0  0  0
 39 67  2  0  0  0
 40 52  1  0  0  0
 40 53  2  0  0  0
 40 58  1  0  0  0
 41108  1  0  0  0
 41109  1  0  0  0
 41110  1  0  0  0
 41 48  1  0  0  0
 42 43  1  0  0  0
 42 66  1  0  0  0
 42111  1  0  0  0
 42112  1  0  0  0
 43 44  1  0  0  0
 44113  1  0  0  0
 45 46  2  0  0  0
 45114  1  0  0  0
 46115  1  0  0  0
 47116  1  0  0  0
 47117  1  0  0  0
 48 56  1  0  0  0
 48 65  1  0  0  0
 48118  1  0  0  0
 49 50  1  0  0  0
 49 53  1  0  0  0
 49 64  1  0  0  0
 49119  1  0  0  0
 50 51  1  0  0  0
 50120  1  0  0  0
 50121  1  0  0  0
 51 52  1  0  0  0
 51122  1  0  0  0
 51123  1  0  0  0
 52124  1  0  0  0
 52125  1  0  0  0
 53 54  1  0  0  0
 54 55  2  0  0  0
 54126  1  0  0  0
 55 57  1  0  0  0
 55127  1  0  0  0
 56 69  2  0  0  0
 57 58  2  0  0  0
 57128  1  0  0  0
 58129  1  0  0  0
 59 60  1  0  0  0
 59 61  1  0  0  0
 59 62  1  0  0  0
 60130  1  0  0  0
 60131  1  0  0  0
 60132  1  0  0  0
 61133  1  0  0  0
 61134  1  0  0  0
 61135  1  0  0  0
 62136  1  0  0  0
 62137  1  0  0  0
 62138  1  0  0  0
 63 65  1  0  0  0
 63139  1  0  0  0
 63140  1  0  0  0
 63141  1  0  0  0
 64142  1  0  0  0
 65143  1  0  0  0
 68 78  1  0  0  0
 71 73  2  0  0  0
 71 74  1  0  0  0
 71 77  1  0  0  0
 72 73  1  0  0  0
 72 75  2  0  0  0
 72 79  1  0  0  0
 73 81  1  0  0  0
 74 76  2  0  0  0
 74 82  1  0  0  0
 75 76  1  0  0  0
 75 83  1  0  0  0
 76 84  1  0  0  0
 77 78  1  0  0  0
 77 80  2  0  0  0
 78144  1  0  0  0
 78145  1  0  0  0
 79146  1  0  0  0
M  ISO  4   1 100  68 101  78 101  79 100
M  END
> <chiral flag>
0

> <version>
0

> <s_m_source_file>
/data/baiqing/PycharmProjects/Reinvent-master-3.2/result/LINK_invent/BTK/process_docking_weight1_custom_sum_contain_oxygen_bond_distance_aromatic_linkinvent_7_9_3/rearranged_h_0014.sdf

> <i_m_source_file_index>
40

> <r_mmod_Potential_Energy-OPLS-2005>
1435.16674804688

> <r_mmod_Stretch_Energy-OPLS-2005>
686.733703613281

> <r_mmod_Bend_Energy-OPLS-2005>
444.785034179688

> <r_mmod_Torsional_Energy-OPLS-2005>
252.411651611328

> <r_mmod_Improper_Torsional_Energy-OPLS-2005>
3.36434936523438

> <r_mmod_Van_der_Waal_Energy-OPLS-2005>
124.582489013672

> <r_mmod_Electrostatic_Energy-OPLS-2005>
-407.423461914062

> <r_mmod_Solvation_Energy-OPLS-2005>
-229.990951538086

> <b_mmod_Minimization_Converged-OPLS-2005>
0

> <r_mmod_RMS_Derivative-OPLS-2005>
0.208491131663322

$$$$
40
                    3D
 Structure written by MMmdl.
167174  0  0  1  0            999 V2000
  -30.7786  -14.3381   20.7151 C   0  0  0  0  0  0
  -30.4189  -12.2949   19.3784 C   0  0  0  0  0  0
  -29.4807  -12.5446   18.1821 C   0  0  0  0  0  0
  -28.0058  -12.3918   18.6004 C   0  0  0  0  0  0
  -27.6705  -13.1943   19.8832 C   0  0  2  0  0  0
  -28.7094  -12.8927   20.9849 C   0  0  0  0  0  0
  -25.2651  -13.8123   20.5678 C   0  0  0  0  0  0
  -24.1887  -13.0418   20.9160 C   0  0  0  0  0  0
  -24.6417  -11.6874   20.8722 C   0  0  0  0  0  0
  -23.9070  -10.4266   21.0404 C   0  0  0  0  0  0
  -24.3620   -9.4178   21.9188 C   0  0  0  0  0  0
  -23.6295   -8.2215   22.0766 C   0  0  0  0  0  0
  -22.4281   -8.0259   21.3545 C   0  0  0  0  0  0
  -21.9918   -9.0229   20.4647 C   0  0  0  0  0  0
  -22.7241  -10.2113   20.3054 C   0  0  0  0  0  0
  -21.6838   -6.0737   22.5279 C   0  0  0  0  0  0
  -21.4012   -6.5651   23.8214 C   0  0  0  0  0  0
  -21.3670   -5.6813   24.9180 C   0  0  0  0  0  0
  -21.6047   -4.3074   24.7237 C   0  0  0  0  0  0
  -21.8813   -3.8158   23.4353 C   0  0  0  0  0  0
  -21.9182   -4.6965   22.3407 C   0  0  0  0  0  0
  -22.7909  -13.5213   21.1823 C   0  0  0  0  0  0
  -22.1648   -4.2151   21.0987 F   0  0  0  0  0  0
  -21.5631   -3.4557   25.7751 F   0  0  0  0  0  0
  -30.0487  -13.2173   20.4632 N   0  0  0  0  0  0
  -26.3080  -12.9272   20.3389 N   0  0  0  0  0  0
  -25.9334  -11.6434   20.5737 N   0  0  0  0  0  0
  -22.0543  -12.8221   22.0373 N   0  0  0  0  0  0
  -25.4414  -15.1841   20.4087 N   0  0  0  0  0  0
  -31.7831  -14.6467   20.0699 O   0  0  0  0  0  0
  -21.6624   -6.8868   21.4241 O   0  0  0  0  0  0
  -22.3592  -14.5514   20.6663 O   0  0  0  0  0  0
  -24.6106  -31.8696   23.2118 C   0  0  0  0  0  0
  -25.9001  -32.4840   23.8401 C   0  0  1  0  0  0
  -27.2433  -27.4682   20.0822 C   0  0  0  0  0  0
  -25.5846  -33.8632   24.2324 N   0  0  0  0  0  0
  -23.3965  -30.4926   21.5525 C   0  0  2  0  0  0
  -24.8425  -28.9612   20.1160 C   0  0  0  0  0  0
  -22.7385  -29.4663   22.5015 C   0  0  0  0  0  0
  -18.0265  -28.1362   22.8495 C   0  0  0  0  0  0
  -24.1471  -36.7336   23.2638 C   0  0  0  0  0  0
  -25.9201  -30.8460   21.3568 C   0  0  0  0  0  0
  -25.9995  -29.4814   20.7068 C   0  0  0  0  0  0
  -27.1993  -28.7416   20.6872 C   0  0  0  0  0  0
  -26.0638  -26.9506   19.4938 C   0  0  0  0  0  0
  -24.8684  -27.6936   19.5085 C   0  0  0  0  0  0
  -23.6016  -29.8225   20.1677 C   0  0  0  0  0  0
  -25.4090  -36.3126   24.0340 C   0  0  1  0  0  0
  -20.5852  -28.3640   23.1331 C   0  0  2  0  0  0
  -20.6750  -26.9379   22.5423 C   0  0  0  0  0  0
  -19.5731  -26.6377   21.5211 C   0  0  0  0  0  0
  -18.1914  -26.7908   22.1630 C   0  0  0  0  0  0
  -19.1514  -28.8819   23.2913 C   0  0  0  0  0  0
  -18.9444  -30.1427   23.8921 C   0  0  0  0  0  0
  -17.6449  -30.6574   24.0559 C   0  0  0  0  0  0
  -25.9016  -34.9488   23.5138 C   0  0  0  0  0  0
  -16.5341  -29.9078   23.6317 C   0  0  0  0  0  0
  -16.7255  -28.6489   23.0347 C   0  0  0  0  0  0
  -26.4443  -31.6613   25.0717 C   0  0  0  0  0  0
  -25.3716  -31.3721   26.1478 C   0  0  0  0  0  0
  -27.0261  -30.3058   24.6059 C   0  0  0  0  0  0
  -27.6022  -32.4335   25.7467 C   0  0  0  0  0  0
  -27.5573  -37.1821   24.8460 C   0  0  0  0  0  0
  -21.4117  -29.3016   22.3747 N   0  0  0  0  0  0
  -26.4280  -37.3806   23.9411 N   0  0  0  0  0  0
  -24.6609  -31.0826   22.0997 N   0  0  0  0  0  0
  -23.4169  -28.8215   23.3056 O   0  0  0  0  0  0
  -28.4517  -26.8030   20.0834 O   0  0  0  0  0  0
  -26.5606  -34.8938   22.4719 O   0  0  0  0  0  0
  -23.5307  -32.1427   23.7533 O   0  0  0  0  0  0
  -27.6692  -21.8828   23.0023 C   0  0  0  0  0  0
  -27.9582  -24.6742   21.1941 C   0  0  0  0  0  0
  -24.7407  -22.8694   23.9089 C   0  0  0  0  0  0
  -27.4923  -22.6737   19.8439 C   0  0  0  0  0  0
  -27.4102  -20.3739   23.0130 C   0  0  0  0  0  0
  -28.4764  -25.3812   19.9199 C   0  0  0  0  0  0
  -25.7703  -23.6539   23.0784 C   0  0  0  0  0  0
  -28.6991  -19.5361   22.9592 C   0  0  0  0  0  0
  -28.4003  -18.0595   22.6717 C   0  0  0  0  0  0
  -29.6671  -17.2163   22.4815 C   0  0  0  0  0  0
  -29.3175  -15.7718   22.1095 C   0  0  0  0  0  0
  -26.6828  -22.7548   22.1993 C   0  0  2  0  0  0
  -30.5206  -14.9799   21.8622 N   0  0  0  0  0  0
  -27.3659  -23.4553   21.0842 N   0  0  0  0  0  0
  -28.6360  -22.3468   23.6130 O   0  0  0  0  0  0
  -28.0919  -25.2579   22.2742 O   0  0  0  0  0  0
  -31.4611  -12.4065   19.0745 H   0  0  0  0  0  0
  -30.3279  -11.2638   19.7243 H   0  0  0  0  0  0
  -29.7132  -11.8589   17.3658 H   0  0  0  0  0  0
  -29.6468  -13.5494   17.7911 H   0  0  0  0  0  0
  -27.8096  -11.3312   18.7614 H   0  0  0  0  0  0
  -27.3518  -12.7012   17.7844 H   0  0  0  0  0  0
  -27.7374  -14.2517   19.6299 H   0  0  0  0  0  0
  -28.6805  -11.8330   21.2414 H   0  0  0  0  0  0
  -28.4583  -13.3949   21.9140 H   0  0  0  0  0  0
  -25.2757   -9.5649   22.4772 H   0  0  0  0  0  0
  -23.9993   -7.4608   22.7490 H   0  0  0  0  0  0
  -21.0845   -8.8735   19.8966 H   0  0  0  0  0  0
  -22.3695  -10.9649   19.6167 H   0  0  0  0  0  0
  -21.2013   -7.6162   23.9699 H   0  0  0  0  0  0
  -21.1517   -6.0565   25.9079 H   0  0  0  0  0  0
  -22.0595   -2.7616   23.2851 H   0  0  0  0  0  0
  -22.4145  -11.9908   22.4821 H   0  0  0  0  0  0
  -21.1171  -13.1291   22.2563 H   0  0  0  0  0  0
  -24.6800  -15.8443   20.5166 H   0  0  0  0  0  0
  -26.2975  -15.6167   20.0868 H   0  0  0  0  0  0
  -26.7074  -32.5577   23.1176 H   0  0  0  0  0  0
  -24.9931  -33.9790   25.0422 H   0  0  0  0  0  0
  -22.6837  -31.3082   21.4152 H   0  0  0  0  0  0
  -23.3722  -35.9682   23.3316 H   0  0  0  0  0  0
  -24.3559  -36.8938   22.2049 H   0  0  0  0  0  0
  -23.7241  -37.6551   23.6645 H   0  0  0  0  0  0
  -26.0186  -31.6103   20.5848 H   0  0  0  0  0  0
  -26.8116  -30.9066   21.9692 H   0  0  0  0  0  0
  -28.0947  -29.1434   21.1413 H   0  0  0  0  0  0
  -26.0427  -25.9881   19.0060 H   0  0  0  0  0  0
  -23.9785  -27.2886   19.0477 H   0  0  0  0  0  0
  -23.7016  -30.5944   19.4036 H   0  0  0  0  0  0
  -22.7277  -29.2355   19.8800 H   0  0  0  0  0  0
  -25.1269  -36.1995   25.0833 H   0  0  0  0  0  0
  -20.9942  -28.3199   24.1452 H   0  0  0  0  0  0
  -20.5632  -26.2249   23.3606 H   0  0  0  0  0  0
  -21.6629  -26.7415   22.1236 H   0  0  0  0  0  0
  -19.6892  -25.6296   21.1222 H   0  0  0  0  0  0
  -19.6668  -27.3209   20.6758 H   0  0  0  0  0  0
  -17.4183  -26.6652   21.4034 H   0  0  0  0  0  0
  -18.0318  -26.0042   22.9017 H   0  0  0  0  0  0
  -19.7924  -30.7226   24.2309 H   0  0  0  0  0  0
  -17.5008  -31.6259   24.5154 H   0  0  0  0  0  0
  -15.5344  -30.2989   23.7619 H   0  0  0  0  0  0
  -15.8655  -28.0812   22.7056 H   0  0  0  0  0  0
  -24.5872  -30.7083   25.7825 H   0  0  0  0  0  0
  -24.8923  -32.2880   26.4940 H   0  0  0  0  0  0
  -25.8066  -30.8879   27.0226 H   0  0  0  0  0  0
  -26.2795  -29.6851   24.1088 H   0  0  0  0  0  0
  -27.4017  -29.7265   25.4503 H   0  0  0  0  0  0
  -27.8632  -30.4391   23.9203 H   0  0  0  0  0  0
  -27.2630  -33.3614   26.2085 H   0  0  0  0  0  0
  -28.3793  -32.6936   25.0269 H   0  0  0  0  0  0
  -28.0727  -31.8439   26.5345 H   0  0  0  0  0  0
  -28.2609  -38.0100   24.7493 H   0  0  0  0  0  0
  -28.1050  -36.2637   24.6294 H   0  0  0  0  0  0
  -27.2297  -37.1488   25.8864 H   0  0  0  0  0  0
  -20.9269  -29.8740   21.6973 H   0  0  0  0  0  0
  -26.0179  -38.2889   24.1405 H   0  0  0  0  0  0
  -25.2217  -22.2138   24.6357 H   0  0  0  0  0  0
  -24.1018  -22.2541   23.2746 H   0  0  0  0  0  0
  -24.0939  -23.5504   24.4635 H   0  0  0  0  0  0
  -27.2657  -21.6176   19.9918 H   0  0  0  0  0  0
  -26.8075  -23.0467   19.0809 H   0  0  0  0  0  0
  -28.5087  -22.7109   19.4465 H   0  0  0  0  0  0
  -26.7862  -20.1214   22.1569 H   0  0  0  0  0  0
  -26.8309  -20.1229   23.9019 H   0  0  0  0  0  0
  -27.9616  -25.0818   19.0090 H   0  0  0  0  0  0
  -29.5164  -25.0861   19.7797 H   0  0  0  0  0  0
  -26.3671  -24.2629   23.7585 H   0  0  0  0  0  0
  -25.2284  -24.3522   22.4386 H   0  0  0  0  0  0
  -29.3548  -19.9246   22.1781 H   0  0  0  0  0  0
  -29.2448  -19.6333   23.8993 H   0  0  0  0  0  0
  -27.7936  -17.9908   21.7669 H   0  0  0  0  0  0
  -27.7964  -17.6391   23.4782 H   0  0  0  0  0  0
  -30.2616  -17.2336   23.3968 H   0  0  0  0  0  0
  -30.2851  -17.6562   21.6970 H   0  0  0  0  0  0
  -28.7507  -15.3241   22.9272 H   0  0  0  0  0  0
  -28.6726  -15.7756   21.2285 H   0  0  0  0  0  0
  -25.9776  -22.0791   21.7139 H   0  0  0  0  0  0
  -31.3493  -15.4345   22.2172 H   0  0  0  0  0  0
  1 25  1  0  0  0
  1 30  2  0  0  0
  1 83  1  0  0  0
  2  3  1  0  0  0
  2 25  1  0  0  0
  2 87  1  0  0  0
  2 88  1  0  0  0
  3  4  1  0  0  0
  3 89  1  0  0  0
  3 90  1  0  0  0
  4  5  1  0  0  0
  4 91  1  0  0  0
  4 92  1  0  0  0
  5  6  1  0  0  0
  5 26  1  0  0  0
  5 93  1  0  0  0
  6 25  1  0  0  0
  6 94  1  0  0  0
  6 95  1  0  0  0
  7  8  2  0  0  0
  7 26  1  0  0  0
  7 29  1  0  0  0
  8  9  1  0  0  0
  8 22  1  0  0  0
  9 10  1  0  0  0
  9 27  2  0  0  0
 10 11  2  0  0  0
 10 15  1  0  0  0
 11 12  1  0  0  0
 11 96  1  0  0  0
 12 13  2  0  0  0
 12 97  1  0  0  0
 13 14  1  0  0  0
 13 31  1  0  0  0
 14 15  2  0  0  0
 14 98  1  0  0  0
 15 99  1  0  0  0
 16 17  2  0  0  0
 16 21  1  0  0  0
 16 31  1  0  0  0
 17 18  1  0  0  0
 17100  1  0  0  0
 18 19  2  0  0  0
 18101  1  0  0  0
 19 20  1  0  0  0
 19 24  1  0  0  0
 20 21  2  0  0  0
 20102  1  0  0  0
 21 23  1  0  0  0
 22 28  1  0  0  0
 22 32  2  0  0  0
 26 27  1  0  0  0
 28103  1  0  0  0
 28104  1  0  0  0
 29105  1  0  0  0
 29106  1  0  0  0
 33 34  1  0  0  0
 33 66  1  0  0  0
 33 70  2  0  0  0
 34 36  1  0  0  0
 34 59  1  0  0  0
 34107  1  0  0  0
 35 44  2  0  0  0
 35 45  1  0  0  0
 35 68  1  0  0  0
 36 56  1  0  0  0
 36108  1  0  0  0
 37 39  1  0  0  0
 37 47  1  0  0  0
 37 66  1  0  0  0
 37109  1  0  0  0
 38 43  2  0  0  0
 38 46  1  0  0  0
 38 47  1  0  0  0
 39 64  1  0  0  0
 39 67  2  0  0  0
 40 52  1  0  0  0
 40 53  2  0  0  0
 40 58  1  0  0  0
 41110  1  0  0  0
 41111  1  0  0  0
 41112  1  0  0  0
 41 48  1  0  0  0
 42 43  1  0  0  0
 42 66  1  0  0  0
 42113  1  0  0  0
 42114  1  0  0  0
 43 44  1  0  0  0
 44115  1  0  0  0
 45 46  2  0  0  0
 45116  1  0  0  0
 46117  1  0  0  0
 47118  1  0  0  0
 47119  1  0  0  0
 48 56  1  0  0  0
 48 65  1  0  0  0
 48120  1  0  0  0
 49 50  1  0  0  0
 49 53  1  0  0  0
 49 64  1  0  0  0
 49121  1  0  0  0
 50 51  1  0  0  0
 50122  1  0  0  0
 50123  1  0  0  0
 51 52  1  0  0  0
 51124  1  0  0  0
 51125  1  0  0  0
 52126  1  0  0  0
 52127  1  0  0  0
 53 54  1  0  0  0
 54 55  2  0  0  0
 54128  1  0  0  0
 55 57  1  0  0  0
 55129  1  0  0  0
 56 69  2  0  0  0
 57 58  2  0  0  0
 57130  1  0  0  0
 58131  1  0  0  0
 59 60  1  0  0  0
 59 61  1  0  0  0
 59 62  1  0  0  0
 60132  1  0  0  0
 60133  1  0  0  0
 60134  1  0  0  0
 61135  1  0  0  0
 61136  1  0  0  0
 61137  1  0  0  0
 62138  1  0  0  0
 62139  1  0  0  0
 62140  1  0  0  0
 63 65  1  0  0  0
 63141  1  0  0  0
 63142  1  0  0  0
 63143  1  0  0  0
 64144  1  0  0  0
 65145  1  0  0  0
 68 76  1  0  0  0
 71 75  1  0  0  0
 71 82  1  0  0  0
 71 85  2  0  0  0
 72 76  1  0  0  0
 72 84  1  0  0  0
 72 86  2  0  0  0
 73 77  1  0  0  0
 73146  1  0  0  0
 73147  1  0  0  0
 73148  1  0  0  0
 74 84  1  0  0  0
 74149  1  0  0  0
 74150  1  0  0  0
 74151  1  0  0  0
 75 78  1  0  0  0
 75152  1  0  0  0
 75153  1  0  0  0
 76154  1  0  0  0
 76155  1  0  0  0
 77156  1  0  0  0
 77157  1  0  0  0
 77 82  1  0  0  0
 78 79  1  0  0  0
 78158  1  0  0  0
 78159  1  0  0  0
 79 80  1  0  0  0
 79160  1  0  0  0
 79161  1  0  0  0
 80 81  1  0  0  0
 80162  1  0  0  0
 80163  1  0  0  0
 81 83  1  0  0  0
 81164  1  0  0  0
 81165  1  0  0  0
 82 84  1  0  0  0
 82166  1  0  0  0
 83167  1  0  0  0
M  ISO  4   1 100  68 101  76 101  83 100
M  END
> <chiral flag>
0

> <version>
0

> <s_m_source_file>
/data/baiqing/PycharmProjects/Reinvent-master-3.2/result/LINK_invent/BTK/process_docking_weight1_custom_sum_contain_oxygen_bond_distance_aromatic_linkinvent_7_9_3/rearranged_h_0014.sdf

> <i_m_source_file_index>
41

> <r_mmod_Potential_Energy-OPLS-2005>
8.68457508087158

> <r_mmod_Stretch_Energy-OPLS-2005>
35.8394050598145

> <r_mmod_Bend_Energy-OPLS-2005>
112.573280334473

> <r_mmod_Torsional_Energy-OPLS-2005>
262.205169677734

> <r_mmod_Improper_Torsional_Energy-OPLS-2005>
9.21481227874756

> <r_mmod_Van_der_Waal_Energy-OPLS-2005>
145.986541748047

> <r_mmod_Electrostatic_Energy-OPLS-2005>
-320.118927001953

> <r_mmod_Solvation_Energy-OPLS-2005>
-245.434600830078

> <b_mmod_Minimization_Converged-OPLS-2005>
0

> <r_mmod_RMS_Derivative-OPLS-2005>
1.47694361209869

$$$$
41
                    3D
 Structure written by MMmdl.
162170  0  0  1  0            999 V2000
  -30.6575  -14.5346   20.5451 C   0  0  0  0  0  0
  -30.4391  -12.3380   19.4336 C   0  0  0  0  0  0
  -29.5058  -12.5128   18.2155 C   0  0  0  0  0  0
  -28.0265  -12.3625   18.6266 C   0  0  0  0  0  0
  -27.6637  -13.2064   19.8778 C   0  0  2  0  0  0
  -28.7075  -12.9979   20.9987 C   0  0  0  0  0  0
  -25.2605  -13.8153   20.5686 C   0  0  0  0  0  0
  -24.1852  -13.0430   20.9172 C   0  0  0  0  0  0
  -24.6406  -11.6893   20.8731 C   0  0  0  0  0  0
  -23.9062  -10.4286   21.0401 C   0  0  0  0  0  0
  -24.3623   -9.4206   21.9181 C   0  0  0  0  0  0
  -23.6294   -8.2236   22.0750 C   0  0  0  0  0  0
  -22.4273   -8.0282   21.3542 C   0  0  0  0  0  0
  -21.9910   -9.0253   20.4644 C   0  0  0  0  0  0
  -22.7235  -10.2130   20.3053 C   0  0  0  0  0  0
  -21.6845   -6.0738   22.5283 C   0  0  0  0  0  0
  -21.4007   -6.5642   23.8214 C   0  0  0  0  0  0
  -21.3661   -5.6787   24.9176 C   0  0  0  0  0  0
  -21.6041   -4.3053   24.7220 C   0  0  0  0  0  0
  -21.8818   -3.8144   23.4338 C   0  0  0  0  0  0
  -21.9193   -4.6961   22.3401 C   0  0  0  0  0  0
  -22.7874  -13.5232   21.1836 C   0  0  0  0  0  0
  -22.1657   -4.2158   21.0978 F   0  0  0  0  0  0
  -21.5638   -3.4528   25.7724 F   0  0  0  0  0  0
  -30.0361  -13.3250   20.4491 N   0  0  0  0  0  0
  -26.3045  -12.9316   20.3393 N   0  0  0  0  0  0
  -25.9343  -11.6475   20.5778 N   0  0  0  0  0  0
  -22.0499  -12.8241   22.0393 N   0  0  0  0  0  0
  -25.4316  -15.1874   20.4102 N   0  0  0  0  0  0
  -31.7888  -14.7389   20.0929 O   0  0  0  0  0  0
  -21.6637   -6.8880   21.4242 O   0  0  0  0  0  0
  -22.3568  -14.5542   20.6691 O   0  0  0  0  0  0
  -24.6194  -31.8658   23.2083 C   0  0  0  0  0  0
  -25.9070  -32.4819   23.8382 C   0  0  1  0  0  0
  -27.2288  -27.3973   20.0816 C   0  0  0  0  0  0
  -25.5911  -33.8621   24.2295 N   0  0  0  0  0  0
  -23.4092  -30.4947   21.5476 C   0  0  2  0  0  0
  -24.8517  -28.9593   20.1118 C   0  0  0  0  0  0
  -22.7442  -29.4684   22.4947 C   0  0  0  0  0  0
  -18.0285  -28.1399   22.8495 C   0  0  0  0  0  0
  -24.1499  -36.7310   23.2648 C   0  0  0  0  0  0
  -25.9461  -30.8161   21.3719 C   0  0  0  0  0  0
  -26.0165  -29.4514   20.7124 C   0  0  0  0  0  0
  -27.2054  -28.6759   20.6996 C   0  0  0  0  0  0
  -26.0387  -26.9398   19.4649 C   0  0  0  0  0  0
  -24.8589  -27.7029   19.4882 C   0  0  0  0  0  0
  -23.6184  -29.8323   20.1614 C   0  0  0  0  0  0
  -25.4122  -36.3117   24.0350 C   0  0  1  0  0  0
  -20.5889  -28.3688   23.1326 C   0  0  2  0  0  0
  -20.6806  -26.9413   22.5469 C   0  0  0  0  0  0
  -19.5802  -26.6388   21.5259 C   0  0  0  0  0  0
  -18.1939  -26.7967   22.1578 C   0  0  0  0  0  0
  -19.1545  -28.8846   23.2918 C   0  0  0  0  0  0
  -18.9470  -30.1451   23.8932 C   0  0  0  0  0  0
  -17.6480  -30.6596   24.0591 C   0  0  0  0  0  0
  -25.9044  -34.9489   23.5114 C   0  0  0  0  0  0
  -16.5368  -29.9117   23.6332 C   0  0  0  0  0  0
  -16.7274  -28.6540   23.0334 C   0  0  0  0  0  0
  -26.4461  -31.6620   25.0734 C   0  0  0  0  0  0
  -25.3707  -31.3797   26.1491 C   0  0  0  0  0  0
  -27.0275  -30.3035   24.6165 C   0  0  0  0  0  0
  -27.6060  -32.4337   25.7455 C   0  0  0  0  0  0
  -27.5605  -37.1809   24.8454 C   0  0  0  0  0  0
  -21.4169  -29.3035   22.3693 N   0  0  0  0  0  0
  -26.4306  -37.3804   23.9416 N   0  0  0  0  0  0
  -24.6768  -31.0741   22.0995 N   0  0  0  0  0  0
  -23.4199  -28.8236   23.3013 O   0  0  0  0  0  0
  -28.3922  -26.6345   20.1080 O   0  0  0  0  0  0
  -26.5623  -34.8956   22.4680 O   0  0  0  0  0  0
  -23.5370  -32.1414   23.7451 O   0  0  0  0  0  0
  -29.7469  -18.9986   19.5160 C   0  0  0  0  0  0
  -29.9199  -19.1958   21.9177 C   0  0  0  0  0  0
  -29.7812  -19.8280   20.6634 C   0  0  0  0  0  0
  -29.8291  -17.5827   19.6161 C   0  0  0  0  0  0
  -30.0050  -17.7859   22.0370 C   0  0  0  0  0  0
  -29.9707  -16.9527   20.8879 C   0  0  0  0  0  0
  -29.8420  -23.2018   19.0369 C   0  0  0  0  0  0
  -29.6975  -16.7647   18.3416 C   0  0  0  0  0  0
  -30.1075  -17.1787   23.4253 C   0  0  0  0  0  0
  -30.1749  -23.6332   17.6213 C   0  0  0  0  0  0
  -29.6155  -21.3673   20.6089 C   0  0  0  0  0  0
  -29.5512  -24.3896   19.9885 C   0  0  0  0  0  0
  -28.3606  -25.2968   19.5512 C   0  0  0  0  0  0
  -29.8705  -21.9390   19.2886 N   0  0  0  0  0  0
  -29.8966  -15.5251   21.0681 N   0  0  0  0  0  0
  -31.4826  -12.4568   19.1329 H   0  0  0  0  0  0
  -30.3600  -11.3283   19.8396 H   0  0  0  0  0  0
  -29.7568  -11.7848   17.4436 H   0  0  0  0  0  0
  -29.6646  -13.4960   17.7684 H   0  0  0  0  0  0
  -27.8473  -11.3060   18.8312 H   0  0  0  0  0  0
  -27.3745  -12.6234   17.7928 H   0  0  0  0  0  0
  -27.7001  -14.2520   19.5752 H   0  0  0  0  0  0
  -28.6983  -11.9613   21.3374 H   0  0  0  0  0  0
  -28.4615  -13.5904   21.8813 H   0  0  0  0  0  0
  -25.2765   -9.5673   22.4755 H   0  0  0  0  0  0
  -23.9997   -7.4620   22.7460 H   0  0  0  0  0  0
  -21.0836   -8.8759   19.8953 H   0  0  0  0  0  0
  -22.3688  -10.9666   19.6160 H   0  0  0  0  0  0
  -21.1988   -7.6153   23.9720 H   0  0  0  0  0  0
  -21.1488   -6.0521   25.9083 H   0  0  0  0  0  0
  -22.0597   -2.7606   23.2828 H   0  0  0  0  0  0
  -22.4086  -11.9891   22.4784 H   0  0  0  0  0  0
  -21.1130  -13.1305   22.2585 H   0  0  0  0  0  0
  -24.6643  -15.8412   20.5209 H   0  0  0  0  0  0
  -26.2877  -15.6300   20.1009 H   0  0  0  0  0  0
  -26.7154  -32.5485   23.1152 H   0  0  0  0  0  0
  -25.0104  -33.9765   25.0474 H   0  0  0  0  0  0
  -22.7026  -31.3155   21.4072 H   0  0  0  0  0  0
  -23.3790  -35.9609   23.3292 H   0  0  0  0  0  0
  -24.3593  -36.8917   22.2060 H   0  0  0  0  0  0
  -23.7227  -37.6505   23.6665 H   0  0  0  0  0  0
  -26.0774  -31.5847   20.6090 H   0  0  0  0  0  0
  -26.8306  -30.8562   21.9980 H   0  0  0  0  0  0
  -28.1027  -29.0476   21.1722 H   0  0  0  0  0  0
  -25.9830  -25.9917   18.9516 H   0  0  0  0  0  0
  -23.9640  -27.3205   19.0154 H   0  0  0  0  0  0
  -23.7335  -30.6098   19.4058 H   0  0  0  0  0  0
  -22.7411  -29.2566   19.8598 H   0  0  0  0  0  0
  -25.1309  -36.1960   25.0849 H   0  0  0  0  0  0
  -20.9987  -28.3273   24.1445 H   0  0  0  0  0  0
  -20.5696  -26.2301   23.3663 H   0  0  0  0  0  0
  -21.6680  -26.7446   22.1265 H   0  0  0  0  0  0
  -19.6983  -25.6301   21.1275 H   0  0  0  0  0  0
  -19.6799  -27.3222   20.6821 H   0  0  0  0  0  0
  -17.4272  -26.6799   21.3905 H   0  0  0  0  0  0
  -18.0224  -26.0069   22.8899 H   0  0  0  0  0  0
  -19.7947  -30.7275   24.2289 H   0  0  0  0  0  0
  -17.5038  -31.6271   24.5215 H   0  0  0  0  0  0
  -15.5376  -30.3051   23.7668 H   0  0  0  0  0  0
  -15.8658  -28.0918   22.6995 H   0  0  0  0  0  0
  -24.5995  -30.6953   25.7936 H   0  0  0  0  0  0
  -24.8746  -32.2956   26.4724 H   0  0  0  0  0  0
  -25.8070  -30.9234   27.0386 H   0  0  0  0  0  0
  -26.2818  -29.6807   24.1209 H   0  0  0  0  0  0
  -27.4004  -29.7273   25.4644 H   0  0  0  0  0  0
  -27.8688  -30.4324   23.9348 H   0  0  0  0  0  0
  -27.2718  -33.3663   26.2017 H   0  0  0  0  0  0
  -28.3870  -32.6836   25.0261 H   0  0  0  0  0  0
  -28.0748  -31.8468   26.5363 H   0  0  0  0  0  0
  -28.2654  -38.0080   24.7475 H   0  0  0  0  0  0
  -28.1062  -36.2614   24.6277 H   0  0  0  0  0  0
  -27.2335  -37.1457   25.8861 H   0  0  0  0  0  0
  -20.9318  -29.8702   21.6878 H   0  0  0  0  0  0
  -26.0195  -38.2882   24.1419 H   0  0  0  0  0  0
  -29.6189  -19.4558   18.5440 H   0  0  0  0  0  0
  -29.9310  -19.8075   22.8093 H   0  0  0  0  0  0
  -29.4088  -17.3864   17.4938 H   0  0  0  0  0  0
  -28.9355  -15.9946   18.4535 H   0  0  0  0  0  0
  -30.6439  -16.2858   18.0930 H   0  0  0  0  0  0
  -30.1681  -17.9471   24.1968 H   0  0  0  0  0  0
  -30.9991  -16.5566   23.5028 H   0  0  0  0  0  0
  -29.2350  -16.5611   23.6380 H   0  0  0  0  0  0
  -30.4722  -24.6823   17.5823 H   0  0  0  0  0  0
  -29.3106  -23.4960   16.9712 H   0  0  0  0  0  0
  -31.0011  -23.0428   17.2257 H   0  0  0  0  0  0
  -30.2869  -21.8107   21.3474 H   0  0  0  0  0  0
  -28.6000  -21.6052   20.9305 H   0  0  0  0  0  0
  -30.4549  -24.9984   20.0326 H   0  0  0  0  0  0
  -29.3797  -24.0382   21.0048 H   0  0  0  0  0  0
  -27.4560  -24.7643   19.8475 H   0  0  0  0  0  0
  -28.3291  -25.4038   18.4653 H   0  0  0  0  0  0
  -29.0747  -15.2003   21.5537 H   0  0  0  0  0  0
  1 25  1  0  0  0
  1 30  2  0  0  0
  1 85  1  0  0  0
  2  3  1  0  0  0
  2 25  1  0  0  0
  2 86  1  0  0  0
  2 87  1  0  0  0
  3  4  1  0  0  0
  3 88  1  0  0  0
  3 89  1  0  0  0
  4  5  1  0  0  0
  4 90  1  0  0  0
  4 91  1  0  0  0
  5  6  1  0  0  0
  5 26  1  0  0  0
  5 92  1  0  0  0
  6 25  1  0  0  0
  6 93  1  0  0  0
  6 94  1  0  0  0
  7  8  2  0  0  0
  7 26  1  0  0  0
  7 29  1  0  0  0
  8  9  1  0  0  0
  8 22  1  0  0  0
  9 10  1  0  0  0
  9 27  2  0  0  0
 10 11  2  0  0  0
 10 15  1  0  0  0
 11 12  1  0  0  0
 11 95  1  0  0  0
 12 13  2  0  0  0
 12 96  1  0  0  0
 13 14  1  0  0  0
 13 31  1  0  0  0
 14 15  2  0  0  0
 14 97  1  0  0  0
 15 98  1  0  0  0
 16 17  2  0  0  0
 16 21  1  0  0  0
 16 31  1  0  0  0
 17 18  1  0  0  0
 17 99  1  0  0  0
 18 19  2  0  0  0
 18100  1  0  0  0
 19 20  1  0  0  0
 19 24  1  0  0  0
 20 21  2  0  0  0
 20101  1  0  0  0
 21 23  1  0  0  0
 22 28  1  0  0  0
 22 32  2  0  0  0
 26 27  1  0  0  0
 28102  1  0  0  0
 28103  1  0  0  0
 29104  1  0  0  0
 29105  1  0  0  0
 33 34  1  0  0  0
 33 66  1  0  0  0
 33 70  2  0  0  0
 34 36  1  0  0  0
 34 59  1  0  0  0
 34106  1  0  0  0
 35 44  2  0  0  0
 35 45  1  0  0  0
 35 68  1  0  0  0
 36 56  1  0  0  0
 36107  1  0  0  0
 37 39  1  0  0  0
 37 47  1  0  0  0
 37 66  1  0  0  0
 37108  1  0  0  0
 38 43  2  0  0  0
 38 46  1  0  0  0
 38 47  1  0  0  0
 39 64  1  0  0  0
 39 67  2  0  0  0
 40 52  1  0  0  0
 40 53  2  0  0  0
 40 58  1  0  0  0
 41109  1  0  0  0
 41110  1  0  0  0
 41111  1  0  0  0
 41 48  1  0  0  0
 42 43  1  0  0  0
 42 66  1  0  0  0
 42112  1  0  0  0
 42113  1  0  0  0
 43 44  1  0  0  0
 44114  1  0  0  0
 45 46  2  0  0  0
 45115  1  0  0  0
 46116  1  0  0  0
 47117  1  0  0  0
 47118  1  0  0  0
 48 56  1  0  0  0
 48 65  1  0  0  0
 48119  1  0  0  0
 49 50  1  0  0  0
 49 53  1  0  0  0
 49 64  1  0  0  0
 49120  1  0  0  0
 50 51  1  0  0  0
 50121  1  0  0  0
 50122  1  0  0  0
 51 52  1  0  0  0
 51123  1  0  0  0
 51124  1  0  0  0
 52125  1  0  0  0
 52126  1  0  0  0
 53 54  1  0  0  0
 54 55  2  0  0  0
 54127  1  0  0  0
 55 57  1  0  0  0
 55128  1  0  0  0
 56 69  2  0  0  0
 57 58  2  0  0  0
 57129  1  0  0  0
 58130  1  0  0  0
 59 60  1  0  0  0
 59 61  1  0  0  0
 59 62  1  0  0  0
 60131  1  0  0  0
 60132  1  0  0  0
 60133  1  0  0  0
 61134  1  0  0  0
 61135  1  0  0  0
 61136  1  0  0  0
 62137  1  0  0  0
 62138  1  0  0  0
 62139  1  0  0  0
 63 65  1  0  0  0
 63140  1  0  0  0
 63141  1  0  0  0
 63142  1  0  0  0
 64143  1  0  0  0
 65144  1  0  0  0
 68 83  1  0  0  0
 71 73  2  0  0  0
 71 74  1  0  0  0
 71145  1  0  0  0
 72 73  1  0  0  0
 72 75  2  0  0  0
 72146  1  0  0  0
 73 81  1  0  0  0
 74 76  2  0  0  0
 74 78  1  0  0  0
 75 76  1  0  0  0
 75 79  1  0  0  0
 76 85  1  0  0  0
 77 80  1  0  0  0
 77 82  1  0  0  0
 77 84  2  0  0  0
 78147  1  0  0  0
 78148  1  0  0  0
 78149  1  0  0  0
 79150  1  0  0  0
 79151  1  0  0  0
 79152  1  0  0  0
 80153  1  0  0  0
 80154  1  0  0  0
 80155  1  0  0  0
 81 84  1  0  0  0
 81156  1  0  0  0
 81157  1  0  0  0
 82 83  1  0  0  0
 82158  1  0  0  0
 82159  1  0  0  0
 83160  1  0  0  0
 83161  1  0  0  0
 85162  1  0  0  0
M  ISO  4   1 100  68 101  83 101  85 100
M  END
> <chiral flag>
0

> <version>
0

> <s_m_source_file>
/data/baiqing/PycharmProjects/Reinvent-master-3.2/result/LINK_invent/BTK/process_docking_weight1_custom_sum_contain_oxygen_bond_distance_aromatic_linkinvent_7_9_3/rearranged_h_0014.sdf

> <i_m_source_file_index>
42

> <r_mmod_Potential_Energy-OPLS-2005>
-64.8683547973633

> <r_mmod_Stretch_Energy-OPLS-2005>
49.5641670227051

> <r_mmod_Bend_Energy-OPLS-2005>
118.638961791992

> <r_mmod_Torsional_Energy-OPLS-2005>
231.451812744141

> <r_mmod_Improper_Torsional_Energy-OPLS-2005>
4.15463638305664

> <r_mmod_Van_der_Waal_Energy-OPLS-2005>
154.916137695312

> <r_mmod_Electrostatic_Energy-OPLS-2005>
-428.54345703125

> <r_mmod_Solvation_Energy-OPLS-2005>
-216.131973266602

> <b_mmod_Minimization_Converged-OPLS-2005>
0

> <r_mmod_RMS_Derivative-OPLS-2005>
2.4213535785675

$$$$
42
                    3D
 Structure written by MMmdl.
164172  0  0  1  0            999 V2000
  -30.7230  -14.4468   20.5924 C   0  0  0  0  0  0
  -30.4134  -12.2879   19.4465 C   0  0  0  0  0  0
  -29.5095  -12.5098   18.2171 C   0  0  0  0  0  0
  -28.0258  -12.3811   18.6143 C   0  0  0  0  0  0
  -27.6626  -13.2111   19.8770 C   0  0  2  0  0  0
  -28.6956  -12.9836   21.0027 C   0  0  0  0  0  0
  -25.2579  -13.8169   20.5677 C   0  0  0  0  0  0
  -24.1840  -13.0448   20.9156 C   0  0  0  0  0  0
  -24.6379  -11.6911   20.8707 C   0  0  0  0  0  0
  -23.9044  -10.4294   21.0396 C   0  0  0  0  0  0
  -24.3599   -9.4220   21.9160 C   0  0  0  0  0  0
  -23.6297   -8.2253   22.0745 C   0  0  0  0  0  0
  -22.4288   -8.0275   21.3534 C   0  0  0  0  0  0
  -21.9906   -9.0249   20.4648 C   0  0  0  0  0  0
  -22.7223  -10.2131   20.3050 C   0  0  0  0  0  0
  -21.6867   -6.0736   22.5276 C   0  0  0  0  0  0
  -21.4028   -6.5634   23.8208 C   0  0  0  0  0  0
  -21.3666   -5.6779   24.9168 C   0  0  0  0  0  0
  -21.6046   -4.3043   24.7219 C   0  0  0  0  0  0
  -21.8813   -3.8147   23.4334 C   0  0  0  0  0  0
  -21.9180   -4.6967   22.3397 C   0  0  0  0  0  0
  -22.7853  -13.5289   21.1797 C   0  0  0  0  0  0
  -22.1648   -4.2149   21.0972 F   0  0  0  0  0  0
  -21.5622   -3.4529   25.7731 F   0  0  0  0  0  0
  -30.0267  -13.2835   20.4594 N   0  0  0  0  0  0
  -26.3012  -12.9336   20.3311 N   0  0  0  0  0  0
  -25.9299  -11.6496   20.5682 N   0  0  0  0  0  0
  -22.0445  -12.8330   22.0350 N   0  0  0  0  0  0
  -25.4286  -15.1899   20.4188 N   0  0  0  0  0  0
  -31.8625  -14.5658   20.1302 O   0  0  0  0  0  0
  -21.6651   -6.8877   21.4238 O   0  0  0  0  0  0
  -22.3548  -14.5557   20.6580 O   0  0  0  0  0  0
  -24.6081  -31.8706   23.2132 C   0  0  0  0  0  0
  -25.8982  -32.4849   23.8429 C   0  0  1  0  0  0
  -27.2611  -27.4852   20.1098 C   0  0  0  0  0  0
  -25.5845  -33.8643   24.2349 N   0  0  0  0  0  0
  -23.3975  -30.4908   21.5490 C   0  0  2  0  0  0
  -24.8535  -28.9618   20.1169 C   0  0  0  0  0  0
  -22.7404  -29.4643   22.4996 C   0  0  0  0  0  0
  -18.0263  -28.1391   22.8493 C   0  0  0  0  0  0
  -24.1483  -36.7344   23.2643 C   0  0  0  0  0  0
  -25.9201  -30.8549   21.3573 C   0  0  0  0  0  0
  -26.0046  -29.4922   20.7119 C   0  0  0  0  0  0
  -27.2115  -28.7667   20.7010 C   0  0  0  0  0  0
  -26.1000  -26.9651   19.5022 C   0  0  0  0  0  0
  -24.8949  -27.6973   19.5034 C   0  0  0  0  0  0
  -23.6085  -29.8188   20.1645 C   0  0  0  0  0  0
  -25.4100  -36.3132   24.0348 C   0  0  1  0  0  0
  -20.5855  -28.3658   23.1337 C   0  0  2  0  0  0
  -20.6743  -26.9389   22.5439 C   0  0  0  0  0  0
  -19.5726  -26.6384   21.5226 C   0  0  0  0  0  0
  -18.1904  -26.7939   22.1627 C   0  0  0  0  0  0
  -19.1513  -28.8837   23.2914 C   0  0  0  0  0  0
  -18.9446  -30.1441   23.8929 C   0  0  0  0  0  0
  -17.6448  -30.6588   24.0567 C   0  0  0  0  0  0
  -25.9008  -34.9493   23.5149 C   0  0  0  0  0  0
  -16.5338  -29.9094   23.6309 C   0  0  0  0  0  0
  -16.7254  -28.6514   23.0329 C   0  0  0  0  0  0
  -26.4437  -31.6601   25.0720 C   0  0  0  0  0  0
  -25.3739  -31.3676   26.1499 C   0  0  0  0  0  0
  -27.0245  -30.3053   24.6022 C   0  0  0  0  0  0
  -27.6011  -32.4335   25.7474 C   0  0  0  0  0  0
  -27.5590  -37.1825   24.8459 C   0  0  0  0  0  0
  -21.4129  -29.3019   22.3750 N   0  0  0  0  0  0
  -26.4298  -37.3807   23.9410 N   0  0  0  0  0  0
  -24.6599  -31.0852   22.1004 N   0  0  0  0  0  0
  -23.4202  -28.8171   23.3011 O   0  0  0  0  0  0
  -28.4094  -26.7299   20.0647 O   0  0  0  0  0  0
  -26.5586  -34.8936   22.4717 O   0  0  0  0  0  0
  -23.5280  -32.1420   23.7566 O   0  0  0  0  0  0
  -30.7284  -18.8435   22.7440 C   0  0  0  0  0  0
  -28.8304  -20.0403   21.0651 C   0  0  0  0  0  0
  -30.1387  -18.0812   21.7098 C   0  0  0  0  0  0
  -30.3935  -20.2042   22.9296 C   0  0  0  0  0  0
  -29.4840  -20.8206   22.0426 C   0  0  0  0  0  0
  -29.1361  -18.6656   20.8943 C   0  0  0  0  0  0
  -30.6706  -16.7338   21.4163 C   0  0  0  0  0  0
  -29.9901  -15.6063   21.1068 C   0  0  0  0  0  0
  -31.0653  -20.9977   24.0418 C   0  0  0  0  0  0
  -27.4981  -18.4401   19.1412 C   0  0  0  0  0  0
  -30.0185  -24.2830   20.9263 C   0  0  0  0  0  0
  -29.2257  -25.2746   21.7988 C   0  0  0  0  0  0
  -29.3728  -22.8948   20.8156 C   0  0  0  0  0  0
  -29.2232  -26.7056   21.2430 C   0  0  0  0  0  0
  -29.2831  -22.2089   22.1027 N   0  0  0  0  0  0
  -28.5567  -17.8856   19.9129 O   0  0  0  0  0  0
  -31.4669  -12.3520   19.1706 H   0  0  0  0  0  0
  -30.2733  -11.2788   19.8402 H   0  0  0  0  0  0
  -29.7569  -11.7944   17.4292 H   0  0  0  0  0  0
  -29.6940  -13.5003   17.7973 H   0  0  0  0  0  0
  -27.8298  -11.3259   18.7990 H   0  0  0  0  0  0
  -27.3868  -12.6669   17.7800 H   0  0  0  0  0  0
  -27.7097  -14.2627   19.5945 H   0  0  0  0  0  0
  -28.6613  -11.9455   21.3380 H   0  0  0  0  0  0
  -28.4633  -13.5731   21.8898 H   0  0  0  0  0  0
  -25.2734   -9.5728   22.4737 H   0  0  0  0  0  0
  -23.9999   -7.4674   22.7500 H   0  0  0  0  0  0
  -21.0805   -8.8785   19.9001 H   0  0  0  0  0  0
  -22.3650  -10.9665   19.6174 H   0  0  0  0  0  0
  -21.2037   -7.6158   23.9722 H   0  0  0  0  0  0
  -21.1491   -6.0507   25.9060 H   0  0  0  0  0  0
  -22.0585   -2.7620   23.2833 H   0  0  0  0  0  0
  -22.4033  -12.0042   22.4853 H   0  0  0  0  0  0
  -21.1057  -13.1391   22.2469 H   0  0  0  0  0  0
  -24.6646  -15.8437   20.5511 H   0  0  0  0  0  0
  -26.2930  -15.6352   20.1400 H   0  0  0  0  0  0
  -26.7059  -32.5599   23.1214 H   0  0  0  0  0  0
  -24.9950  -33.9795   25.0461 H   0  0  0  0  0  0
  -22.6829  -31.3052   21.4107 H   0  0  0  0  0  0
  -23.3737  -35.9681   23.3304 H   0  0  0  0  0  0
  -24.3588  -36.8959   22.2055 H   0  0  0  0  0  0
  -23.7244  -37.6553   23.6663 H   0  0  0  0  0  0
  -26.0230  -31.6196   20.5861 H   0  0  0  0  0  0
  -26.8105  -30.9159   21.9716 H   0  0  0  0  0  0
  -28.1022  -29.2059   21.1290 H   0  0  0  0  0  0
  -26.1314  -25.9933   19.0332 H   0  0  0  0  0  0
  -24.0145  -27.2876   19.0288 H   0  0  0  0  0  0
  -23.7144  -30.5935   19.4052 H   0  0  0  0  0  0
  -22.7378  -29.2310   19.8701 H   0  0  0  0  0  0
  -25.1268  -36.2010   25.0842 H   0  0  0  0  0  0
  -20.9958  -28.3240   24.1452 H   0  0  0  0  0  0
  -20.5655  -26.2256   23.3621 H   0  0  0  0  0  0
  -21.6607  -26.7443   22.1215 H   0  0  0  0  0  0
  -19.6870  -25.6295   21.1232 H   0  0  0  0  0  0
  -19.6682  -27.3214   20.6772 H   0  0  0  0  0  0
  -17.4177  -26.6725   21.4012 H   0  0  0  0  0  0
  -18.0292  -26.0070   22.9016 H   0  0  0  0  0  0
  -19.7921  -30.7245   24.2334 H   0  0  0  0  0  0
  -17.4998  -31.6268   24.5181 H   0  0  0  0  0  0
  -15.5336  -30.3008   23.7602 H   0  0  0  0  0  0
  -15.8662  -28.0851   22.7011 H   0  0  0  0  0  0
  -24.5860  -30.7089   25.7829 H   0  0  0  0  0  0
  -24.8988  -32.2824   26.5054 H   0  0  0  0  0  0
  -25.8108  -30.8748   27.0195 H   0  0  0  0  0  0
  -26.2742  -29.6861   24.1088 H   0  0  0  0  0  0
  -27.4055  -29.7230   25.4421 H   0  0  0  0  0  0
  -27.8578  -30.4386   23.9117 H   0  0  0  0  0  0
  -27.2606  -33.3616   26.2089 H   0  0  0  0  0  0
  -28.3788  -32.6954   25.0286 H   0  0  0  0  0  0
  -28.0734  -31.8462   26.5357 H   0  0  0  0  0  0
  -28.2586  -38.0138   24.7491 H   0  0  0  0  0  0
  -28.1094  -36.2659   24.6282 H   0  0  0  0  0  0
  -27.2310  -37.1483   25.8862 H   0  0  0  0  0  0
  -20.9315  -29.8765   21.6978 H   0  0  0  0  0  0
  -26.0190  -38.2889   24.1408 H   0  0  0  0  0  0
  -31.4850  -18.3942   23.3747 H   0  0  0  0  0  0
  -28.1227  -20.5299   20.4134 H   0  0  0  0  0  0
  -31.7492  -16.6997   21.3663 H   0  0  0  0  0  0
  -28.9131  -15.6023   21.1769 H   0  0  0  0  0  0
  -31.3814  -20.3414   24.8538 H   0  0  0  0  0  0
  -30.3876  -21.7352   24.4736 H   0  0  0  0  0  0
  -31.9389  -21.5264   23.6580 H   0  0  0  0  0  0
  -27.0971  -17.6674   18.4855 H   0  0  0  0  0  0
  -27.8439  -19.2585   18.5077 H   0  0  0  0  0  0
  -26.6763  -18.7861   19.7696 H   0  0  0  0  0  0
  -31.0464  -24.2057   21.2855 H   0  0  0  0  0  0
  -30.1054  -24.6797   19.9128 H   0  0  0  0  0  0
  -29.6472  -25.2755   22.8051 H   0  0  0  0  0  0
  -28.1920  -24.9467   21.9127 H   0  0  0  0  0  0
  -29.9671  -22.3000   20.1185 H   0  0  0  0  0  0
  -28.3780  -22.9860   20.3765 H   0  0  0  0  0  0
  -30.2344  -27.0382   20.9990 H   0  0  0  0  0  0
  -28.8663  -27.3600   22.0380 H   0  0  0  0  0  0
  -29.7901  -22.6686   22.8504 H   0  0  0  0  0  0
  1 25  1  0  0  0
  1 30  2  0  0  0
  1 78  1  0  0  0
  2  3  1  0  0  0
  2 25  1  0  0  0
  2 87  1  0  0  0
  2 88  1  0  0  0
  3  4  1  0  0  0
  3 89  1  0  0  0
  3 90  1  0  0  0
  4  5  1  0  0  0
  4 91  1  0  0  0
  4 92  1  0  0  0
  5  6  1  0  0  0
  5 26  1  0  0  0
  5 93  1  0  0  0
  6 25  1  0  0  0
  6 94  1  0  0  0
  6 95  1  0  0  0
  7  8  2  0  0  0
  7 26  1  0  0  0
  7 29  1  0  0  0
  8  9  1  0  0  0
  8 22  1  0  0  0
  9 10  1  0  0  0
  9 27  2  0  0  0
 10 11  2  0  0  0
 10 15  1  0  0  0
 11 12  1  0  0  0
 11 96  1  0  0  0
 12 13  2  0  0  0
 12 97  1  0  0  0
 13 14  1  0  0  0
 13 31  1  0  0  0
 14 15  2  0  0  0
 14 98  1  0  0  0
 15 99  1  0  0  0
 16 17  2  0  0  0
 16 21  1  0  0  0
 16 31  1  0  0  0
 17 18  1  0  0  0
 17100  1  0  0  0
 18 19  2  0  0  0
 18101  1  0  0  0
 19 20  1  0  0  0
 19 24  1  0  0  0
 20 21  2  0  0  0
 20102  1  0  0  0
 21 23  1  0  0  0
 22 28  1  0  0  0
 22 32  2  0  0  0
 26 27  1  0  0  0
 28103  1  0  0  0
 28104  1  0  0  0
 29105  1  0  0  0
 29106  1  0  0  0
 33 34  1  0  0  0
 33 66  1  0  0  0
 33 70  2  0  0  0
 34 36  1  0  0  0
 34 59  1  0  0  0
 34107  1  0  0  0
 35 44  2  0  0  0
 35 45  1  0  0  0
 35 68  1  0  0  0
 36 56  1  0  0  0
 36108  1  0  0  0
 37 39  1  0  0  0
 37 47  1  0  0  0
 37 66  1  0  0  0
 37109  1  0  0  0
 38 43  2  0  0  0
 38 46  1  0  0  0
 38 47  1  0  0  0
 39 64  1  0  0  0
 39 67  2  0  0  0
 40 52  1  0  0  0
 40 53  2  0  0  0
 40 58  1  0  0  0
 41110  1  0  0  0
 41111  1  0  0  0
 41112  1  0  0  0
 41 48  1  0  0  0
 42 43  1  0  0  0
 42 66  1  0  0  0
 42113  1  0  0  0
 42114  1  0  0  0
 43 44  1  0  0  0
 44115  1  0  0  0
 45 46  2  0  0  0
 45116  1  0  0  0
 46117  1  0  0  0
 47118  1  0  0  0
 47119  1  0  0  0
 48 56  1  0  0  0
 48 65  1  0  0  0
 48120  1  0  0  0
 49 50  1  0  0  0
 49 53  1  0  0  0
 49 64  1  0  0  0
 49121  1  0  0  0
 50 51  1  0  0  0
 50122  1  0  0  0
 50123  1  0  0  0
 51 52  1  0  0  0
 51124  1  0  0  0
 51125  1  0  0  0
 52126  1  0  0  0
 52127  1  0  0  0
 53 54  1  0  0  0
 54 55  2  0  0  0
 54128  1  0  0  0
 55 57  1  0  0  0
 55129  1  0  0  0
 56 69  2  0  0  0
 57 58  2  0  0  0
 57130  1  0  0  0
 58131  1  0  0  0
 59 60  1  0  0  0
 59 61  1  0  0  0
 59 62  1  0  0  0
 60132  1  0  0  0
 60133  1  0  0  0
 60134  1  0  0  0
 61135  1  0  0  0
 61136  1  0  0  0
 61137  1  0  0  0
 62138  1  0  0  0
 62139  1  0  0  0
 62140  1  0  0  0
 63 65  1  0  0  0
 63141  1  0  0  0
 63142  1  0  0  0
 63143  1  0  0  0
 64144  1  0  0  0
 65145  1  0  0  0
 68 84  1  0  0  0
 71 73  2  0  0  0
 71 74  1  0  0  0
 71146  1  0  0  0
 72 75  1  0  0  0
 72 76  2  0  0  0
 72147  1  0  0  0
 73 76  1  0  0  0
 73 77  1  0  0  0
 74 75  2  0  0  0
 74 79  1  0  0  0
 75 85  1  0  0  0
 76 86  1  0  0  0
 77 78  2  0  0  0
 77148  1  0  0  0
 78149  1  0  0  0
 79150  1  0  0  0
 79151  1  0  0  0
 79152  1  0  0  0
 80 86  1  0  0  0
 80153  1  0  0  0
 80154  1  0  0  0
 80155  1  0  0  0
 81 82  1  0  0  0
 81 83  1  0  0  0
 81156  1  0  0  0
 81157  1  0  0  0
 82 84  1  0  0  0
 82158  1  0  0  0
 82159  1  0  0  0
 83 85  1  0  0  0
 83160  1  0  0  0
 83161  1  0  0  0
 84162  1  0  0  0
 84163  1  0  0  0
 85164  1  0  0  0
M  ISO  4   1 100  68 101  78 100  84 101
M  END
> <chiral flag>
0

> <version>
0

> <s_m_source_file>
/data/baiqing/PycharmProjects/Reinvent-master-3.2/result/LINK_invent/BTK/process_docking_weight1_custom_sum_contain_oxygen_bond_distance_aromatic_linkinvent_7_9_3/rearranged_h_0014.sdf

> <i_m_source_file_index>
43

> <r_mmod_Potential_Energy-OPLS-2005>
-20.5697040557861

> <r_mmod_Stretch_Energy-OPLS-2005>
35.5562324523926

> <r_mmod_Bend_Energy-OPLS-2005>
103.552024841309

> <r_mmod_Torsional_Energy-OPLS-2005>
227.154098510742

> <r_mmod_Improper_Torsional_Energy-OPLS-2005>
10.974817276001

> <r_mmod_Van_der_Waal_Energy-OPLS-2005>
169.94091796875

> <r_mmod_Electrostatic_Energy-OPLS-2005>
-379.327026367188

> <r_mmod_Solvation_Energy-OPLS-2005>
-199.165618896484

> <b_mmod_Minimization_Converged-OPLS-2005>
0

> <r_mmod_RMS_Derivative-OPLS-2005>
3.97334718704224

$$$$
43
                    3D
 Structure written by MMmdl.
154162  0  0  1  0            999 V2000
  -30.6614  -14.7715   20.4187 C   0  0  0  0  0  0
  -30.4260  -12.4796   19.4690 C   0  0  0  0  0  0
  -29.5089  -12.5071   18.2292 C   0  0  0  0  0  0
  -28.0361  -12.3326   18.6482 C   0  0  0  0  0  0
  -27.6349  -13.2472   19.8374 C   0  0  2  0  0  0
  -28.6868  -13.2385   20.9673 C   0  0  0  0  0  0
  -25.2484  -13.8239   20.5742 C   0  0  0  0  0  0
  -24.1787  -13.0465   20.9239 C   0  0  0  0  0  0
  -24.6391  -11.6950   20.8744 C   0  0  0  0  0  0
  -23.9079  -10.4317   21.0402 C   0  0  0  0  0  0
  -24.3635   -9.4227   21.9177 C   0  0  0  0  0  0
  -23.6309   -8.2251   22.0735 C   0  0  0  0  0  0
  -22.4284   -8.0286   21.3530 C   0  0  0  0  0  0
  -21.9935   -9.0263   20.4627 C   0  0  0  0  0  0
  -22.7258  -10.2146   20.3044 C   0  0  0  0  0  0
  -21.6856   -6.0747   22.5279 C   0  0  0  0  0  0
  -21.4012   -6.5648   23.8216 C   0  0  0  0  0  0
  -21.3667   -5.6793   24.9176 C   0  0  0  0  0  0
  -21.6051   -4.3054   24.7219 C   0  0  0  0  0  0
  -21.8819   -3.8149   23.4336 C   0  0  0  0  0  0
  -21.9195   -4.6973   22.3396 C   0  0  0  0  0  0
  -22.7807  -13.5222   21.1924 C   0  0  0  0  0  0
  -22.1663   -4.2170   21.0973 F   0  0  0  0  0  0
  -21.5639   -3.4530   25.7729 F   0  0  0  0  0  0
  -29.9810  -13.5729   20.3629 N   0  0  0  0  0  0
  -26.2920  -12.9478   20.3282 N   0  0  0  0  0  0
  -25.9329  -11.6604   20.5742 N   0  0  0  0  0  0
  -22.0461  -12.8162   22.0454 N   0  0  0  0  0  0
  -25.4163  -15.1958   20.4171 N   0  0  0  0  0  0
  -31.8782  -14.7311   20.2816 O   0  0  0  0  0  0
  -21.6637   -6.8887   21.4239 O   0  0  0  0  0  0
  -22.3480  -14.5540   20.6807 O   0  0  0  0  0  0
  -24.6271  -31.8563   23.1912 C   0  0  0  0  0  0
  -25.9109  -32.4764   23.8243 C   0  0  1  0  0  0
  -27.2227  -27.2723   20.1220 C   0  0  0  0  0  0
  -25.5918  -33.8551   24.2184 N   0  0  0  0  0  0
  -23.4214  -30.4788   21.5342 C   0  0  2  0  0  0
  -24.8665  -28.9232   20.0980 C   0  0  0  0  0  0
  -22.7454  -29.4622   22.4871 C   0  0  0  0  0  0
  -18.0304  -28.1402   22.8507 C   0  0  0  0  0  0
  -24.1493  -36.7305   23.2643 C   0  0  0  0  0  0
  -25.9644  -30.7699   21.3672 C   0  0  0  0  0  0
  -26.0344  -29.3926   20.7110 C   0  0  0  0  0  0
  -27.2100  -28.5806   20.7126 C   0  0  0  0  0  0
  -26.0331  -26.8593   19.4824 C   0  0  0  0  0  0
  -24.8717  -27.6644   19.4736 C   0  0  0  0  0  0
  -23.6393  -29.8162   20.1469 C   0  0  0  0  0  0
  -25.4128  -36.3076   24.0326 C   0  0  1  0  0  0
  -20.5898  -28.3691   23.1304 C   0  0  2  0  0  0
  -20.6813  -26.9419   22.5418 C   0  0  0  0  0  0
  -19.5797  -26.6395   21.5221 C   0  0  0  0  0  0
  -18.1970  -26.7955   22.1618 C   0  0  0  0  0  0
  -19.1556  -28.8869   23.2908 C   0  0  0  0  0  0
  -18.9482  -30.1480   23.8899 C   0  0  0  0  0  0
  -17.6489  -30.6610   24.0595 C   0  0  0  0  0  0
  -25.9068  -34.9452   23.5071 C   0  0  0  0  0  0
  -16.5381  -29.9113   23.6341 C   0  0  0  0  0  0
  -16.7290  -28.6535   23.0345 C   0  0  0  0  0  0
  -26.4469  -31.6569   25.0625 C   0  0  0  0  0  0
  -25.3692  -31.3751   26.1355 C   0  0  0  0  0  0
  -27.0317  -30.2994   24.6104 C   0  0  0  0  0  0
  -27.6015  -32.4285   25.7434 C   0  0  0  0  0  0
  -27.5591  -37.1820   24.8478 C   0  0  0  0  0  0
  -21.4173  -29.3038   22.3672 N   0  0  0  0  0  0
  -26.4293  -37.3792   23.9419 N   0  0  0  0  0  0
  -24.6898  -31.0543   22.0863 N   0  0  0  0  0  0
  -23.4173  -28.8193   23.2992 O   0  0  0  0  0  0
  -28.3417  -26.4171   20.2300 O   0  0  0  0  0  0
  -26.5677  -34.8956   22.4666 O   0  0  0  0  0  0
  -23.5426  -32.1374   23.7216 O   0  0  0  0  0  0
  -31.7403  -19.2455   19.2770 C   0  0  0  0  0  0
  -31.4880  -17.8687   19.4624 C   0  0  0  0  0  0
  -29.6080  -19.9270   20.2499 C   0  0  0  0  0  0
  -30.2990  -17.4205   20.1399 C   0  0  0  0  0  0
  -30.8439  -20.2491   19.6605 C   0  0  0  0  0  0
  -29.3717  -18.5001   20.4991 C   0  0  0  0  0  0
  -28.1326  -23.7296   20.3446 C   0  0  0  0  0  0
  -32.5444  -16.9747   18.8287 C   0  0  0  0  0  0
  -28.5971  -21.1234   20.5893 C   0  0  0  0  0  0
  -28.4812  -25.0821   19.5553 C   0  0  0  0  0  0
  -29.9520  -15.9748   20.4089 N   0  0  0  0  0  0
  -28.8792  -22.5726   20.1725 N   0  0  0  0  0  0
  -27.1274  -23.7109   21.0565 O   0  0  0  0  0  0
  -31.1891  -21.5383   19.4220 F   0  0  0  0  0  0
  -27.8842  -18.0434   21.2548 Cl  0  0  0  0  0  0
  -31.4656  -12.5894   19.1557 H   0  0  0  0  0  0
  -30.3614  -11.5174   19.9792 H   0  0  0  0  0  0
  -29.7942  -11.7231   17.5266 H   0  0  0  0  0  0
  -29.6313  -13.4515   17.6952 H   0  0  0  0  0  0
  -27.8991  -11.2886   18.9259 H   0  0  0  0  0  0
  -27.3764  -12.5123   17.7975 H   0  0  0  0  0  0
  -27.6075  -14.2596   19.4325 H   0  0  0  0  0  0
  -28.7331  -12.2643   21.4555 H   0  0  0  0  0  0
  -28.4251  -13.9636   21.7399 H   0  0  0  0  0  0
  -25.2794   -9.5701   22.4750 H   0  0  0  0  0  0
  -24.0035   -7.4632   22.7437 H   0  0  0  0  0  0
  -21.0885   -8.8768   19.8917 H   0  0  0  0  0  0
  -22.3722  -10.9679   19.6140 H   0  0  0  0  0  0
  -21.1990   -7.6153   23.9727 H   0  0  0  0  0  0
  -21.1501   -6.0517   25.9086 H   0  0  0  0  0  0
  -22.0589   -2.7612   23.2822 H   0  0  0  0  0  0
  -22.4079  -11.9807   22.4820 H   0  0  0  0  0  0
  -21.1062  -13.1139   22.2673 H   0  0  0  0  0  0
  -24.6538  -15.8536   20.5341 H   0  0  0  0  0  0
  -26.2733  -15.6390   20.1173 H   0  0  0  0  0  0
  -26.7164  -32.5420   23.0959 H   0  0  0  0  0  0
  -25.0032  -33.9669   25.0315 H   0  0  0  0  0  0
  -22.7155  -31.3002   21.3910 H   0  0  0  0  0  0
  -23.3756  -35.9640   23.3307 H   0  0  0  0  0  0
  -24.3612  -36.8924   22.2060 H   0  0  0  0  0  0
  -23.7238  -37.6513   23.6665 H   0  0  0  0  0  0
  -26.1113  -31.5260   20.5944 H   0  0  0  0  0  0
  -26.8405  -30.8173   22.0001 H   0  0  0  0  0  0
  -28.1005  -28.9497   21.2023 H   0  0  0  0  0  0
  -25.9672  -25.8904   19.0125 H   0  0  0  0  0  0
  -23.9777  -27.2996   18.9854 H   0  0  0  0  0  0
  -23.7779  -30.5993   19.3984 H   0  0  0  0  0  0
  -22.7495  -29.2672   19.8282 H   0  0  0  0  0  0
  -25.1308  -36.1917   25.0816 H   0  0  0  0  0  0
  -21.0038  -28.3271   24.1408 H   0  0  0  0  0  0
  -20.5769  -26.2283   23.3600 H   0  0  0  0  0  0
  -21.6686  -26.7505   22.1201 H   0  0  0  0  0  0
  -19.6980  -25.6304   21.1266 H   0  0  0  0  0  0
  -19.6767  -27.3218   20.6761 H   0  0  0  0  0  0
  -17.4258  -26.6718   21.3990 H   0  0  0  0  0  0
  -18.0359  -26.0093   22.8998 H   0  0  0  0  0  0
  -19.7960  -30.7330   24.2221 H   0  0  0  0  0  0
  -17.5042  -31.6287   24.5207 H   0  0  0  0  0  0
  -15.5387  -30.3033   23.7660 H   0  0  0  0  0  0
  -15.8680  -28.0881   22.7010 H   0  0  0  0  0  0
  -24.5911  -30.7033   25.7718 H   0  0  0  0  0  0
  -24.8846  -32.2934   26.4670 H   0  0  0  0  0  0
  -25.8027  -30.9039   27.0181 H   0  0  0  0  0  0
  -26.2879  -29.6739   24.1161 H   0  0  0  0  0  0
  -27.4076  -29.7249   25.4581 H   0  0  0  0  0  0
  -27.8710  -30.4314   23.9280 H   0  0  0  0  0  0
  -27.2635  -33.3623   26.1945 H   0  0  0  0  0  0
  -28.3896  -32.6771   25.0301 H   0  0  0  0  0  0
  -28.0600  -31.8431   26.5417 H   0  0  0  0  0  0
  -28.2616  -38.0103   24.7544 H   0  0  0  0  0  0
  -28.1071  -36.2659   24.6277 H   0  0  0  0  0  0
  -27.2345  -37.1453   25.8884 H   0  0  0  0  0  0
  -20.9292  -29.8710   21.6881 H   0  0  0  0  0  0
  -26.0170  -38.2874   24.1384 H   0  0  0  0  0  0
  -32.6491  -19.5662   18.7870 H   0  0  0  0  0  0
  -33.1529  -17.5214   18.1068 H   0  0  0  0  0  0
  -32.0939  -16.1546   18.2696 H   0  0  0  0  0  0
  -33.2467  -16.5998   19.5744 H   0  0  0  0  0  0
  -28.4156  -21.0981   21.6657 H   0  0  0  0  0  0
  -27.6435  -20.8579   20.1307 H   0  0  0  0  0  0
  -27.9489  -25.0793   18.6042 H   0  0  0  0  0  0
  -29.5327  -25.0062   19.2748 H   0  0  0  0  0  0
  -28.9714  -15.8419   20.6049 H   0  0  0  0  0  0
  -29.7433  -22.6895   19.6548 H   0  0  0  0  0  0
  1 25  1  0  0  0
  1 30  2  0  0  0
  1 81  1  0  0  0
  2  3  1  0  0  0
  2 25  1  0  0  0
  2 86  1  0  0  0
  2 87  1  0  0  0
  3  4  1  0  0  0
  3 88  1  0  0  0
  3 89  1  0  0  0
  4  5  1  0  0  0
  4 90  1  0  0  0
  4 91  1  0  0  0
  5  6  1  0  0  0
  5 26  1  0  0  0
  5 92  1  0  0  0
  6 25  1  0  0  0
  6 93  1  0  0  0
  6 94  1  0  0  0
  7  8  2  0  0  0
  7 26  1  0  0  0
  7 29  1  0  0  0
  8  9  1  0  0  0
  8 22  1  0  0  0
  9 10  1  0  0  0
  9 27  2  0  0  0
 10 11  2  0  0  0
 10 15  1  0  0  0
 11 12  1  0  0  0
 11 95  1  0  0  0
 12 13  2  0  0  0
 12 96  1  0  0  0
 13 14  1  0  0  0
 13 31  1  0  0  0
 14 15  2  0  0  0
 14 97  1  0  0  0
 15 98  1  0  0  0
 16 17  2  0  0  0
 16 21  1  0  0  0
 16 31  1  0  0  0
 17 18  1  0  0  0
 17 99  1  0  0  0
 18 19  2  0  0  0
 18100  1  0  0  0
 19 20  1  0  0  0
 19 24  1  0  0  0
 20 21  2  0  0  0
 20101  1  0  0  0
 21 23  1  0  0  0
 22 28  1  0  0  0
 22 32  2  0  0  0
 26 27  1  0  0  0
 28102  1  0  0  0
 28103  1  0  0  0
 29104  1  0  0  0
 29105  1  0  0  0
 33 34  1  0  0  0
 33 66  1  0  0  0
 33 70  2  0  0  0
 34 36  1  0  0  0
 34 59  1  0  0  0
 34106  1  0  0  0
 35 44  2  0  0  0
 35 45  1  0  0  0
 35 68  1  0  0  0
 36 56  1  0  0  0
 36107  1  0  0  0
 37 39  1  0  0  0
 37 47  1  0  0  0
 37 66  1  0  0  0
 37108  1  0  0  0
 38 43  2  0  0  0
 38 46  1  0  0  0
 38 47  1  0  0  0
 39 64  1  0  0  0
 39 67  2  0  0  0
 40 52  1  0  0  0
 40 53  2  0  0  0
 40 58  1  0  0  0
 41109  1  0  0  0
 41110  1  0  0  0
 41111  1  0  0  0
 41 48  1  0  0  0
 42 43  1  0  0  0
 42 66  1  0  0  0
 42112  1  0  0  0
 42113  1  0  0  0
 43 44  1  0  0  0
 44114  1  0  0  0
 45 46  2  0  0  0
 45115  1  0  0  0
 46116  1  0  0  0
 47117  1  0  0  0
 47118  1  0  0  0
 48 56  1  0  0  0
 48 65  1  0  0  0
 48119  1  0  0  0
 49 50  1  0  0  0
 49 53  1  0  0  0
 49 64  1  0  0  0
 49120  1  0  0  0
 50 51  1  0  0  0
 50121  1  0  0  0
 50122  1  0  0  0
 51 52  1  0  0  0
 51123  1  0  0  0
 51124  1  0  0  0
 52125  1  0  0  0
 52126  1  0  0  0
 53 54  1  0  0  0
 54 55  2  0  0  0
 54127  1  0  0  0
 55 57  1  0  0  0
 55128  1  0  0  0
 56 69  2  0  0  0
 57 58  2  0  0  0
 57129  1  0  0  0
 58130  1  0  0  0
 59 60  1  0  0  0
 59 61  1  0  0  0
 59 62  1  0  0  0
 60131  1  0  0  0
 60132  1  0  0  0
 60133  1  0  0  0
 61134  1  0  0  0
 61135  1  0  0  0
 61136  1  0  0  0
 62137  1  0  0  0
 62138  1  0  0  0
 62139  1  0  0  0
 63 65  1  0  0  0
 63140  1  0  0  0
 63141  1  0  0  0
 63142  1  0  0  0
 64143  1  0  0  0
 65144  1  0  0  0
 68 80  1  0  0  0
 71 72  2  0  0  0
 71 75  1  0  0  0
 71145  1  0  0  0
 72 74  1  0  0  0
 72 78  1  0  0  0
 73 75  2  0  0  0
 73 76  1  0  0  0
 73 79  1  0  0  0
 74 76  2  0  0  0
 74 81  1  0  0  0
 75 84  1  0  0  0
 76 85  1  0  0  0
 77 80  1  0  0  0
 77 82  1  0  0  0
 77 83  2  0  0  0
 78146  1  0  0  0
 78147  1  0  0  0
 78148  1  0  0  0
 79 82  1  0  0  0
 79149  1  0  0  0
 79150  1  0  0  0
 80151  1  0  0  0
 80152  1  0  0  0
 81153  1  0  0  0
 82154  1  0  0  0
M  ISO  4   1 100  68 101  80 101  81 100
M  END
> <chiral flag>
0

> <version>
0

> <s_m_source_file>
/data/baiqing/PycharmProjects/Reinvent-master-3.2/result/LINK_invent/BTK/process_docking_weight1_custom_sum_contain_oxygen_bond_distance_aromatic_linkinvent_7_9_3/rearranged_h_0014.sdf

> <i_m_source_file_index>
44

> <r_mmod_Potential_Energy-OPLS-2005>
129.966857910156

> <r_mmod_Stretch_Energy-OPLS-2005>
136.869384765625

> <r_mmod_Bend_Energy-OPLS-2005>
194.697662353516

> <r_mmod_Torsional_Energy-OPLS-2005>
215.522415161133

> <r_mmod_Improper_Torsional_Energy-OPLS-2005>
5.32408285140991

> <r_mmod_Van_der_Waal_Energy-OPLS-2005>
147.415115356445

> <r_mmod_Electrostatic_Energy-OPLS-2005>
-441.166015625

> <r_mmod_Solvation_Energy-OPLS-2005>
-225.891448974609

> <b_mmod_Minimization_Converged-OPLS-2005>
0

> <r_mmod_RMS_Derivative-OPLS-2005>
4.08743238449097

$$$$
44
                    3D
 Structure written by MMmdl.
176184  0  0  1  0            999 V2000
  -30.5227  -15.0544   20.3925 C   0  0  0  0  0  0
  -30.4489  -12.6764   19.4716 C   0  0  0  0  0  0
  -29.5235  -12.5196   18.2408 C   0  0  0  0  0  0
  -28.0710  -12.2727   18.6949 C   0  0  0  0  0  0
  -27.6303  -13.2440   19.8218 C   0  0  2  0  0  0
  -28.6732  -13.3425   20.9502 C   0  0  0  0  0  0
  -25.2539  -13.8214   20.5741 C   0  0  0  0  0  0
  -24.1865  -13.0442   20.9259 C   0  0  0  0  0  0
  -24.6497  -11.6924   20.8761 C   0  0  0  0  0  0
  -23.9184  -10.4314   21.0418 C   0  0  0  0  0  0
  -24.3723   -9.4213   21.9201 C   0  0  0  0  0  0
  -23.6340   -8.2274   22.0775 C   0  0  0  0  0  0
  -22.4304   -8.0358   21.3574 C   0  0  0  0  0  0
  -22.0017   -9.0332   20.4641 C   0  0  0  0  0  0
  -22.7377  -10.2180   20.3041 C   0  0  0  0  0  0
  -21.6841   -6.0804   22.5299 C   0  0  0  0  0  0
  -21.3990   -6.5678   23.8250 C   0  0  0  0  0  0
  -21.3611   -5.6790   24.9175 C   0  0  0  0  0  0
  -21.6038   -4.3071   24.7206 C   0  0  0  0  0  0
  -21.8819   -3.8200   23.4320 C   0  0  0  0  0  0
  -21.9223   -4.7036   22.3390 C   0  0  0  0  0  0
  -22.7888  -13.5241   21.1822 C   0  0  0  0  0  0
  -22.1693   -4.2245   21.0964 F   0  0  0  0  0  0
  -21.5604   -3.4524   25.7692 F   0  0  0  0  0  0
  -29.9216  -13.7885   20.3180 N   0  0  0  0  0  0
  -26.2935  -12.9425   20.3183 N   0  0  0  0  0  0
  -25.9415  -11.6554   20.5670 N   0  0  0  0  0  0
  -22.0510  -12.8231   22.0345 N   0  0  0  0  0  0
  -25.4273  -15.1929   20.4163 N   0  0  0  0  0  0
  -31.7437  -15.0862   20.2149 O   0  0  0  0  0  0
  -21.6619   -6.8977   21.4279 O   0  0  0  0  0  0
  -22.3599  -14.5548   20.6618 O   0  0  0  0  0  0
  -24.6488  -31.8379   23.1917 C   0  0  0  0  0  0
  -25.9271  -32.4645   23.8250 C   0  0  1  0  0  0
  -27.1627  -27.0328   20.1991 C   0  0  0  0  0  0
  -25.6010  -33.8419   24.2145 N   0  0  0  0  0  0
  -23.4568  -30.4654   21.5323 C   0  0  2  0  0  0
  -24.9333  -28.9240   20.0733 C   0  0  0  0  0  0
  -22.7566  -29.4568   22.4775 C   0  0  0  0  0  0
  -18.0268  -28.1413   22.8454 C   0  0  0  0  0  0
  -24.1521  -36.7253   23.2657 C   0  0  0  0  0  0
  -26.0206  -30.6675   21.4346 C   0  0  0  0  0  0
  -26.0855  -29.2813   20.7819 C   0  0  0  0  0  0
  -27.1887  -28.3301   20.8818 C   0  0  0  0  0  0
  -26.1521  -27.0037   19.2055 C   0  0  0  0  0  0
  -24.9857  -27.7946   19.2599 C   0  0  0  0  0  0
  -23.6970  -29.8115   20.1457 C   0  0  0  0  0  0
  -25.4137  -36.2937   24.0291 C   0  0  1  0  0  0
  -20.5895  -28.3671   23.1046 C   0  0  2  0  0  0
  -20.6807  -26.9412   22.5039 C   0  0  0  0  0  0
  -19.5603  -26.6339   21.5046 C   0  0  0  0  0  0
  -18.1839  -26.7943   22.1620 C   0  0  0  0  0  0
  -19.1548  -28.8862   23.2791 C   0  0  0  0  0  0
  -18.9503  -30.1461   23.8827 C   0  0  0  0  0  0
  -17.6509  -30.6606   24.0526 C   0  0  0  0  0  0
  -25.9067  -34.9343   23.5018 C   0  0  0  0  0  0
  -16.5378  -29.9092   23.6391 C   0  0  0  0  0  0
  -16.7260  -28.6523   23.0399 C   0  0  0  0  0  0
  -26.4563  -31.6489   25.0695 C   0  0  0  0  0  0
  -25.3731  -31.3672   26.1363 C   0  0  0  0  0  0
  -27.0530  -30.2896   24.6361 C   0  0  0  0  0  0
  -27.5999  -32.4331   25.7534 C   0  0  0  0  0  0
  -27.5523  -37.1809   24.8480 C   0  0  0  0  0  0
  -21.4240  -29.3086   22.3507 N   0  0  0  0  0  0
  -26.4256  -37.3688   23.9346 N   0  0  0  0  0  0
  -24.7277  -31.0123   22.1052 N   0  0  0  0  0  0
  -23.4163  -28.8197   23.2991 O   0  0  0  0  0  0
  -27.8091  -25.6840   20.5643 O   0  0  0  0  0  0
  -26.5611  -34.8859   22.4563 O   0  0  0  0  0  0
  -23.5596  -32.1341   23.7075 O   0  0  0  0  0  0
  -27.9213  -25.3961   22.7029 C   0  0  0  0  0  0
  -27.1085  -23.8051   19.6879 C   0  0  0  0  0  0
  -26.2552  -25.4437   22.0779 C   0  0  0  0  0  0
  -28.6403  -23.5473   20.4007 C   0  0  0  0  0  0
  -29.0883  -24.4236   21.8271 C   0  0  0  0  0  0
  -25.8533  -24.6916   20.5130 C   0  0  0  0  0  0
  -25.8140  -23.6145   23.0647 C   0  0  0  0  0  0
  -28.2651  -26.0008   24.0534 C   0  0  0  0  0  0
  -29.3836  -24.7684   17.9043 C   0  0  0  0  0  0
  -28.5013  -23.2765   16.1323 C   0  0  0  0  0  0
  -24.0987  -25.3614   23.4778 C   0  0  0  0  0  0
  -27.0196  -23.4422   18.2138 C   0  0  0  0  0  0
  -26.9860  -23.3989   22.0203 C   0  0  0  0  0  0
  -29.2496  -19.2679   20.1785 C   0  0  0  0  0  0
  -30.1473  -17.8384   20.5821 C   0  0  0  0  0  0
  -29.5138  -20.8985   20.6971 C   0  0  0  0  0  0
  -28.0768  -24.1800   17.2912 C   0  0  0  0  0  0
  -29.7617  -16.2788   20.4570 N   0  0  0  0  0  0
  -25.4160  -24.8854   23.0452 N   0  0  0  0  0  0
  -25.2994  -22.6995   23.7192 O   0  0  0  0  0  0
  -29.2222  -22.2544   19.9445 O   0  0  0  0  0  0
  -30.6606  -24.1916   22.5001 Cl  0  0  0  0  0  0
  -24.2099  -24.5862   19.9711 Cl  0  0  0  0  0  0
  -31.4662  -12.8706   19.1335 H   0  0  0  0  0  0
  -30.4972  -11.7468   20.0433 H   0  0  0  0  0  0
  -29.8760  -11.6914   17.6220 H   0  0  0  0  0  0
  -29.5719  -13.4047   17.5986 H   0  0  0  0  0  0
  -28.0266  -11.2444   19.0606 H   0  0  0  0  0  0
  -27.3886  -12.3398   17.8487 H   0  0  0  0  0  0
  -27.5775  -14.2277   19.3493 H   0  0  0  0  0  0
  -28.8019  -12.3832   21.4589 H   0  0  0  0  0  0
  -28.3520  -14.0621   21.7080 H   0  0  0  0  0  0
  -25.2922   -9.5577   22.4726 H   0  0  0  0  0  0
  -24.0044   -7.4597   22.7444 H   0  0  0  0  0  0
  -21.1024   -8.8887   19.8841 H   0  0  0  0  0  0
  -22.4008  -10.9715   19.6077 H   0  0  0  0  0  0
  -21.1976   -7.6181   23.9789 H   0  0  0  0  0  0
  -21.1383   -6.0495   25.9084 H   0  0  0  0  0  0
  -22.0657   -2.7680   23.2777 H   0  0  0  0  0  0
  -22.4193  -11.9945   22.4768 H   0  0  0  0  0  0
  -21.1028  -13.1128   22.2298 H   0  0  0  0  0  0
  -24.6618  -15.8457   20.5355 H   0  0  0  0  0  0
  -26.2607  -15.6306   20.0476 H   0  0  0  0  0  0
  -26.7289  -32.5263   23.0919 H   0  0  0  0  0  0
  -25.0190  -33.9513   25.0316 H   0  0  0  0  0  0
  -22.7716  -31.3003   21.3795 H   0  0  0  0  0  0
  -23.3697  -35.9684   23.3337 H   0  0  0  0  0  0
  -24.3610  -36.8860   22.2069 H   0  0  0  0  0  0
  -23.7387  -37.6503   23.6685 H   0  0  0  0  0  0
  -26.1988  -31.4180   20.6622 H   0  0  0  0  0  0
  -26.8823  -30.7174   22.0856 H   0  0  0  0  0  0
  -27.9811  -28.5278   21.5867 H   0  0  0  0  0  0
  -26.1248  -26.1685   18.5243 H   0  0  0  0  0  0
  -24.1472  -27.5448   18.6257 H   0  0  0  0  0  0
  -23.8183  -30.5943   19.3979 H   0  0  0  0  0  0
  -22.8204  -29.2417   19.8298 H   0  0  0  0  0  0
  -25.1353  -36.1754   25.0778 H   0  0  0  0  0  0
  -21.0047  -28.3114   24.1129 H   0  0  0  0  0  0
  -20.6027  -26.2159   23.3136 H   0  0  0  0  0  0
  -21.6594  -26.7625   22.0546 H   0  0  0  0  0  0
  -19.6628  -25.6223   21.1066 H   0  0  0  0  0  0
  -19.6396  -27.3087   20.6483 H   0  0  0  0  0  0
  -17.4015  -26.6687   21.4109 H   0  0  0  0  0  0
  -18.0294  -26.0116   22.9052 H   0  0  0  0  0  0
  -19.7988  -30.7253   24.2163 H   0  0  0  0  0  0
  -17.5088  -31.6281   24.5115 H   0  0  0  0  0  0
  -15.5400  -30.3011   23.7755 H   0  0  0  0  0  0
  -15.8629  -28.0835   22.7208 H   0  0  0  0  0  0
  -24.5954  -30.6974   25.7672 H   0  0  0  0  0  0
  -24.8909  -32.2852   26.4696 H   0  0  0  0  0  0
  -25.8041  -30.8909   27.0183 H   0  0  0  0  0  0
  -26.3250  -29.6512   24.1353 H   0  0  0  0  0  0
  -27.4110  -29.7252   25.4975 H   0  0  0  0  0  0
  -27.9133  -30.4101   23.9795 H   0  0  0  0  0  0
  -27.2487  -33.3672   26.1919 H   0  0  0  0  0  0
  -28.3931  -32.6805   25.0470 H   0  0  0  0  0  0
  -28.0498  -31.8582   26.5636 H   0  0  0  0  0  0
  -28.2586  -38.0058   24.7355 H   0  0  0  0  0  0
  -28.0957  -36.2542   24.6530 H   0  0  0  0  0  0
  -27.2190  -37.1734   25.8882 H   0  0  0  0  0  0
  -20.9446  -29.8992   21.6846 H   0  0  0  0  0  0
  -26.0107  -38.2769   24.1226 H   0  0  0  0  0  0
  -27.6132  -26.8475   24.2605 H   0  0  0  0  0  0
  -29.2985  -26.3540   24.0679 H   0  0  0  0  0  0
  -28.1416  -25.2644   24.8522 H   0  0  0  0  0  0
  -30.0203  -25.2541   17.1663 H   0  0  0  0  0  0
  -30.0201  -24.0019   18.3465 H   0  0  0  0  0  0
  -29.1829  -25.5289   18.6562 H   0  0  0  0  0  0
  -29.1763  -23.7913   15.4471 H   0  0  0  0  0  0
  -27.6375  -22.9443   15.5581 H   0  0  0  0  0  0
  -29.0245  -22.3911   16.5037 H   0  0  0  0  0  0
  -23.9037  -26.3713   23.1317 H   0  0  0  0  0  0
  -24.0383  -25.3668   24.5679 H   0  0  0  0  0  0
  -23.2885  -24.7308   23.1054 H   0  0  0  0  0  0
  -26.0135  -23.6374   17.8333 H   0  0  0  0  0  0
  -27.1588  -22.3640   18.1448 H   0  0  0  0  0  0
  -26.5730  -22.5223   21.4945 H   0  0  0  0  0  0
  -27.6903  -22.8313   22.6525 H   0  0  0  0  0  0
  -28.2141  -19.0576   20.4448 H   0  0  0  0  0  0
  -29.2028  -19.2997   19.0893 H   0  0  0  0  0  0
  -31.0933  -17.9185   20.0492 H   0  0  0  0  0  0
  -30.4093  -17.9494   21.6331 H   0  0  0  0  0  0
  -30.5822  -20.9498   20.8966 H   0  0  0  0  0  0
  -29.0565  -21.0027   21.6808 H   0  0  0  0  0  0
  -27.5805  -25.0578   16.8710 H   0  0  0  0  0  0
  -28.7720  -16.0939   20.5432 H   0  0  0  0  0  0
  1 25  1  0  0  0
  1 30  2  0  0  0
  1 88  1  0  0  0
  2  3  1  0  0  0
  2 25  1  0  0  0
  2 94  1  0  0  0
  2 95  1  0  0  0
  3  4  1  0  0  0
  3 96  1  0  0  0
  3 97  1  0  0  0
  4  5  1  0  0  0
  4 98  1  0  0  0
  4 99  1  0  0  0
  5  6  1  0  0  0
  5 26  1  0  0  0
  5100  1  0  0  0
  6 25  1  0  0  0
  6101  1  0  0  0
  6102  1  0  0  0
  7  8  2  0  0  0
  7 26  1  0  0  0
  7 29  1  0  0  0
  8  9  1  0  0  0
  8 22  1  0  0  0
  9 10  1  0  0  0
  9 27  2  0  0  0
 10 11  2  0  0  0
 10 15  1  0  0  0
 11 12  1  0  0  0
 11103  1  0  0  0
 12 13  2  0  0  0
 12104  1  0  0  0
 13 14  1  0  0  0
 13 31  1  0  0  0
 14 15  2  0  0  0
 14105  1  0  0  0
 15106  1  0  0  0
 16 17  2  0  0  0
 16 21  1  0  0  0
 16 31  1  0  0  0
 17 18  1  0  0  0
 17107  1  0  0  0
 18 19  2  0  0  0
 18108  1  0  0  0
 19 20  1  0  0  0
 19 24  1  0  0  0
 20 21  2  0  0  0
 20109  1  0  0  0
 21 23  1  0  0  0
 22 28  1  0  0  0
 22 32  2  0  0  0
 26 27  1  0  0  0
 28110  1  0  0  0
 28111  1  0  0  0
 29112  1  0  0  0
 29113  1  0  0  0
 33 34  1  0  0  0
 33 66  1  0  0  0
 33 70  2  0  0  0
 34 36  1  0  0  0
 34 59  1  0  0  0
 34114  1  0  0  0
 35 44  2  0  0  0
 35 45  1  0  0  0
 35 68  1  0  0  0
 36 56  1  0  0  0
 36115  1  0  0  0
 37 39  1  0  0  0
 37 47  1  0  0  0
 37 66  1  0  0  0
 37116  1  0  0  0
 38 43  2  0  0  0
 38 46  1  0  0  0
 38 47  1  0  0  0
 39 64  1  0  0  0
 39 67  2  0  0  0
 40 52  1  0  0  0
 40 53  2  0  0  0
 40 58  1  0  0  0
 41117  1  0  0  0
 41118  1  0  0  0
 41119  1  0  0  0
 41 48  1  0  0  0
 42 43  1  0  0  0
 42 66  1  0  0  0
 42120  1  0  0  0
 42121  1  0  0  0
 43 44  1  0  0  0
 44122  1  0  0  0
 45 46  2  0  0  0
 45123  1  0  0  0
 46124  1  0  0  0
 47125  1  0  0  0
 47126  1  0  0  0
 48 56  1  0  0  0
 48 65  1  0  0  0
 48127  1  0  0  0
 49 50  1  0  0  0
 49 53  1  0  0  0
 49 64  1  0  0  0
 49128  1  0  0  0
 50 51  1  0  0  0
 50129  1  0  0  0
 50130  1  0  0  0
 51 52  1  0  0  0
 51131  1  0  0  0
 51132  1  0  0  0
 52133  1  0  0  0
 52134  1  0  0  0
 53 54  1  0  0  0
 54 55  2  0  0  0
 54135  1  0  0  0
 55 57  1  0  0  0
 55136  1  0  0  0
 56 69  2  0  0  0
 57 58  2  0  0  0
 57137  1  0  0  0
 58138  1  0  0  0
 59 60  1  0  0  0
 59 61  1  0  0  0
 59 62  1  0  0  0
 60139  1  0  0  0
 60140  1  0  0  0
 60141  1  0  0  0
 61142  1  0  0  0
 61143  1  0  0  0
 61144  1  0  0  0
 62145  1  0  0  0
 62146  1  0  0  0
 62147  1  0  0  0
 63 65  1  0  0  0
 63148  1  0  0  0
 63149  1  0  0  0
 63150  1  0  0  0
 64151  1  0  0  0
 65152  1  0  0  0
 68 83  1  0  0  0
 71 73  2  0  0  0
 71 75  1  0  0  0
 71 78  1  0  0  0
 72 74  1  0  0  0
 72 76  2  0  0  0
 72 82  1  0  0  0
 73 76  1  0  0  0
 73 89  1  0  0  0
 74 75  2  0  0  0
 74 91  1  0  0  0
 75 92  1  0  0  0
 76 93  1  0  0  0
 77 83  1  0  0  0
 77 89  1  0  0  0
 77 90  2  0  0  0
 78153  1  0  0  0
 78154  1  0  0  0
 78155  1  0  0  0
 79156  1  0  0  0
 79157  1  0  0  0
 79158  1  0  0  0
 79 87  1  0  0  0
 80 87  1  0  0  0
 80159  1  0  0  0
 80160  1  0  0  0
 80161  1  0  0  0
 81 89  1  0  0  0
 81162  1  0  0  0
 81163  1  0  0  0
 81164  1  0  0  0
 82 87  1  0  0  0
 82165  1  0  0  0
 82166  1  0  0  0
 83167  1  0  0  0
 83168  1  0  0  0
 84 85  1  0  0  0
 84 86  1  0  0  0
 84169  1  0  0  0
 84170  1  0  0  0
 85 88  1  0  0  0
 85171  1  0  0  0
 85172  1  0  0  0
 86 91  1  0  0  0
 86173  1  0  0  0
 86174  1  0  0  0
 87175  1  0  0  0
 88176  1  0  0  0
M  ISO  4   1 100  68 101  83 101  88 100
M  END
> <chiral flag>
0

> <version>
0

> <s_m_source_file>
/data/baiqing/PycharmProjects/Reinvent-master-3.2/result/LINK_invent/BTK/process_docking_weight1_custom_sum_contain_oxygen_bond_distance_aromatic_linkinvent_7_9_3/rearranged_h_0014.sdf

> <i_m_source_file_index>
45

> <r_mmod_Potential_Energy-OPLS-2005>
7426.05517578125

> <r_mmod_Stretch_Energy-OPLS-2005>
4508.99853515625

> <r_mmod_Bend_Energy-OPLS-2005>
465.781219482422

> <r_mmod_Torsional_Energy-OPLS-2005>
514.465087890625

> <r_mmod_Improper_Torsional_Energy-OPLS-2005>
36.2719345092773

> <r_mmod_Van_der_Waal_Energy-OPLS-2005>
2036.22485351562

> <r_mmod_Electrostatic_Energy-OPLS-2005>
-346.710266113281

> <r_mmod_Solvation_Energy-OPLS-2005>
-208.302825927734

> <b_mmod_Minimization_Converged-OPLS-2005>
0

> <r_mmod_RMS_Derivative-OPLS-2005>
12.5315885543823

$$$$
45
                    3D
 Structure written by MMmdl.
159167  0  0  1  0            999 V2000
  -30.6460  -14.7172   20.4472 C   0  0  0  0  0  0
  -30.4184  -12.4338   19.4774 C   0  0  0  0  0  0
  -29.5044  -12.4987   18.2363 C   0  0  0  0  0  0
  -28.0300  -12.3335   18.6486 C   0  0  0  0  0  0
  -27.6379  -13.2365   19.8491 C   0  0  2  0  0  0
  -28.6818  -13.1804   20.9859 C   0  0  0  0  0  0
  -25.2479  -13.8207   20.5695 C   0  0  0  0  0  0
  -24.1779  -13.0443   20.9201 C   0  0  0  0  0  0
  -24.6380  -11.6927   20.8752 C   0  0  0  0  0  0
  -23.9059  -10.4297   21.0409 C   0  0  0  0  0  0
  -24.3615   -9.4212   21.9182 C   0  0  0  0  0  0
  -23.6298   -8.2244   22.0753 C   0  0  0  0  0  0
  -22.4280   -8.0279   21.3545 C   0  0  0  0  0  0
  -21.9910   -9.0247   20.4641 C   0  0  0  0  0  0
  -22.7235  -10.2129   20.3055 C   0  0  0  0  0  0
  -21.6853   -6.0734   22.5277 C   0  0  0  0  0  0
  -21.4014   -6.5637   23.8210 C   0  0  0  0  0  0
  -21.3664   -5.6790   24.9174 C   0  0  0  0  0  0
  -21.6047   -4.3052   24.7223 C   0  0  0  0  0  0
  -21.8821   -3.8144   23.4343 C   0  0  0  0  0  0
  -21.9191   -4.6961   22.3401 C   0  0  0  0  0  0
  -22.7799  -13.5216   21.1862 C   0  0  0  0  0  0
  -22.1660   -4.2147   21.0977 F   0  0  0  0  0  0
  -21.5633   -3.4535   25.7736 F   0  0  0  0  0  0
  -29.9856  -13.5107   20.3995 N   0  0  0  0  0  0
  -26.2913  -12.9427   20.3286 N   0  0  0  0  0  0
  -25.9311  -11.6562   20.5760 N   0  0  0  0  0  0
  -22.0449  -12.8209   22.0426 N   0  0  0  0  0  0
  -25.4146  -15.1932   20.4127 N   0  0  0  0  0  0
  -31.8417  -14.7381   20.1548 O   0  0  0  0  0  0
  -21.6646   -6.8879   21.4240 O   0  0  0  0  0  0
  -22.3476  -14.5516   20.6706 O   0  0  0  0  0  0
  -24.6295  -31.8545   23.1975 C   0  0  0  0  0  0
  -25.9130  -32.4745   23.8320 C   0  0  1  0  0  0
  -27.2237  -27.2760   20.1214 C   0  0  0  0  0  0
  -25.5931  -33.8547   24.2246 N   0  0  0  0  0  0
  -23.4247  -30.4765   21.5405 C   0  0  2  0  0  0
  -24.8707  -28.9219   20.1088 C   0  0  0  0  0  0
  -22.7489  -29.4596   22.4917 C   0  0  0  0  0  0
  -18.0283  -28.1388   22.8487 C   0  0  0  0  0  0
  -24.1484  -36.7282   23.2641 C   0  0  0  0  0  0
  -25.9686  -30.7726   21.3727 C   0  0  0  0  0  0
  -26.0392  -29.3956   20.7160 C   0  0  0  0  0  0
  -27.2146  -28.5834   20.7121 C   0  0  0  0  0  0
  -26.0270  -26.8567   19.4983 C   0  0  0  0  0  0
  -24.8689  -27.6603   19.4917 C   0  0  0  0  0  0
  -23.6401  -29.8068   20.1565 C   0  0  0  0  0  0
  -25.4113  -36.3062   24.0323 C   0  0  1  0  0  0
  -20.5887  -28.3688   23.1280 C   0  0  2  0  0  0
  -20.6777  -26.9405   22.5411 C   0  0  0  0  0  0
  -19.5745  -26.6381   21.5218 C   0  0  0  0  0  0
  -18.1927  -26.7932   22.1627 C   0  0  0  0  0  0
  -19.1538  -28.8859   23.2874 C   0  0  0  0  0  0
  -18.9459  -30.1464   23.8883 C   0  0  0  0  0  0
  -17.6457  -30.6587   24.0565 C   0  0  0  0  0  0
  -25.9053  -34.9433   23.5088 C   0  0  0  0  0  0
  -16.5348  -29.9085   23.6334 C   0  0  0  0  0  0
  -16.7268  -28.6503   23.0354 C   0  0  0  0  0  0
  -26.4506  -31.6578   25.0710 C   0  0  0  0  0  0
  -25.3734  -31.3737   26.1437 C   0  0  0  0  0  0
  -27.0365  -30.2995   24.6202 C   0  0  0  0  0  0
  -27.6051  -32.4333   25.7486 C   0  0  0  0  0  0
  -27.5574  -37.1796   24.8463 C   0  0  0  0  0  0
  -21.4197  -29.3034   22.3670 N   0  0  0  0  0  0
  -26.4286  -37.3762   23.9407 N   0  0  0  0  0  0
  -24.6935  -31.0531   22.0933 N   0  0  0  0  0  0
  -23.4203  -28.8138   23.3005 O   0  0  0  0  0  0
  -28.3568  -26.4402   20.1960 O   0  0  0  0  0  0
  -26.5616  -34.8912   22.4650 O   0  0  0  0  0  0
  -23.5453  -32.1354   23.7288 O   0  0  0  0  0  0
  -31.5928  -17.6843   20.0131 C   0  0  0  0  0  0
  -31.9972  -19.0238   19.8533 C   0  0  0  0  0  0
  -29.7572  -19.8496   20.4650 C   0  0  0  0  0  0
  -30.2877  -17.3261   20.4260 C   0  0  0  0  0  0
  -31.1058  -20.0926   20.0940 C   0  0  0  0  0  0
  -29.3774  -18.4452   20.6344 C   0  0  0  0  0  0
  -33.4322  -19.3047   19.4346 C   0  0  0  0  0  0
  -26.8499  -23.5696   21.0407 C   0  0  0  0  0  0
  -28.8170  -21.0987   20.8132 C   0  0  0  0  0  0
  -28.4409  -25.0481   19.6455 C   0  0  0  0  0  0
  -28.3105  -23.7285   20.5762 C   0  0  2  0  0  0
  -29.9162  -15.8901   20.6202 N   0  0  0  0  0  0
  -28.8505  -22.4012   19.9902 N   0  3  0  0  0  0
  -31.7220  -21.7092   19.9619 Cl  0  0  0  0  0  0
  -27.7714  -18.0652   21.1491 Cl  0  0  0  0  0  0
  -31.4629  -12.5301   19.1762 H   0  0  0  0  0  0
  -30.3401  -11.4606   19.9643 H   0  0  0  0  0  0
  -29.7822  -11.7231   17.5208 H   0  0  0  0  0  0
  -29.6417  -13.4524   17.7245 H   0  0  0  0  0  0
  -27.8819  -11.2858   18.9122 H   0  0  0  0  0  0
  -27.3733  -12.5266   17.7994 H   0  0  0  0  0  0
  -27.6294  -14.2570   19.4650 H   0  0  0  0  0  0
  -28.7091  -12.1898   21.4423 H   0  0  0  0  0  0
  -28.4229  -13.8791   21.7832 H   0  0  0  0  0  0
  -25.2757   -9.5692   22.4754 H   0  0  0  0  0  0
  -24.0008   -7.4637   22.7473 H   0  0  0  0  0  0
  -21.0840   -8.8757   19.8949 H   0  0  0  0  0  0
  -22.3685  -10.9663   19.6164 H   0  0  0  0  0  0
  -21.2008   -7.6146   23.9713 H   0  0  0  0  0  0
  -21.1484   -6.0521   25.9078 H   0  0  0  0  0  0
  -22.0597   -2.7605   23.2841 H   0  0  0  0  0  0
  -22.4074  -11.9876   22.4817 H   0  0  0  0  0  0
  -21.1062  -13.1222   22.2627 H   0  0  0  0  0  0
  -24.6484  -15.8449   20.5409 H   0  0  0  0  0  0
  -26.2670  -15.6441   20.1081 H   0  0  0  0  0  0
  -26.7197  -32.5394   23.1065 H   0  0  0  0  0  0
  -25.0103  -33.9685   25.0408 H   0  0  0  0  0  0
  -22.7200  -31.2979   21.3941 H   0  0  0  0  0  0
  -23.3743  -35.9617   23.3298 H   0  0  0  0  0  0
  -24.3581  -36.8909   22.2058 H   0  0  0  0  0  0
  -23.7244  -37.6485   23.6669 H   0  0  0  0  0  0
  -26.1064  -31.5328   20.6023 H   0  0  0  0  0  0
  -26.8481  -30.8217   22.0038 H   0  0  0  0  0  0
  -28.1115  -28.9433   21.1965 H   0  0  0  0  0  0
  -25.9445  -25.8871   19.0333 H   0  0  0  0  0  0
  -23.9696  -27.2895   19.0195 H   0  0  0  0  0  0
  -23.7596  -30.5809   19.3977 H   0  0  0  0  0  0
  -22.7591  -29.2362   19.8560 H   0  0  0  0  0  0
  -25.1299  -36.1905   25.0816 H   0  0  0  0  0  0
  -20.9978  -28.3258   24.1401 H   0  0  0  0  0  0
  -20.5688  -26.2285   23.3608 H   0  0  0  0  0  0
  -21.6645  -26.7433   22.1197 H   0  0  0  0  0  0
  -19.6897  -25.6293   21.1242 H   0  0  0  0  0  0
  -19.6692  -27.3197   20.6753 H   0  0  0  0  0  0
  -17.4201  -26.6684   21.4023 H   0  0  0  0  0  0
  -18.0308  -26.0079   22.9023 H   0  0  0  0  0  0
  -19.7936  -30.7289   24.2237 H   0  0  0  0  0  0
  -17.5008  -31.6262   24.5173 H   0  0  0  0  0  0
  -15.5348  -30.2984   23.7668 H   0  0  0  0  0  0
  -15.8665  -28.0823   22.7071 H   0  0  0  0  0  0
  -24.5902  -30.7088   25.7778 H   0  0  0  0  0  0
  -24.8937  -32.2914   26.4846 H   0  0  0  0  0  0
  -25.8056  -30.8929   27.0222 H   0  0  0  0  0  0
  -26.2955  -29.6728   24.1226 H   0  0  0  0  0  0
  -27.4050  -29.7270   25.4726 H   0  0  0  0  0  0
  -27.8824  -30.4269   23.9444 H   0  0  0  0  0  0
  -27.2641  -33.3638   26.2037 H   0  0  0  0  0  0
  -28.3875  -32.6891   25.0330 H   0  0  0  0  0  0
  -28.0706  -31.8484   26.5429 H   0  0  0  0  0  0
  -28.2588  -38.0095   24.7510 H   0  0  0  0  0  0
  -28.1073  -36.2628   24.6289 H   0  0  0  0  0  0
  -27.2292  -37.1442   25.8865 H   0  0  0  0  0  0
  -20.9367  -29.8758   21.6886 H   0  0  0  0  0  0
  -26.0158  -38.2830   24.1413 H   0  0  0  0  0  0
  -32.3447  -16.9405   19.8154 H   0  0  0  0  0  0
  -33.9961  -18.3868   19.2674 H   0  0  0  0  0  0
  -33.9511  -19.8751   20.2054 H   0  0  0  0  0  0
  -33.4552  -19.8791   18.5082 H   0  0  0  0  0  0
  -26.4757  -24.4965   21.4768 H   0  0  0  0  0  0
  -26.7452  -22.7962   21.8015 H   0  0  0  0  0  0
  -26.1928  -23.3129   20.2089 H   0  0  0  0  0  0
  -29.0572  -21.3632   21.8434 H   0  0  0  0  0  0
  -27.7808  -20.7633   20.8339 H   0  0  0  0  0  0
  -27.8130  -24.9375   18.7634 H   0  0  0  0  0  0
  -29.4494  -25.0153   19.2329 H   0  0  0  0  0  0
  -28.9178  -23.9228   21.4615 H   0  0  0  0  0  0
  -28.9476  -15.7420   20.8593 H   0  0  0  0  0  0
  -28.3974  -22.2131   19.1090 H   0  0  0  0  0  0
  -29.8295  -22.5500   19.7815 H   0  0  0  0  0  0
  1 25  1  0  0  0
  1 30  2  0  0  0
  1 82  1  0  0  0
  2  3  1  0  0  0
  2 25  1  0  0  0
  2 86  1  0  0  0
  2 87  1  0  0  0
  3  4  1  0  0  0
  3 88  1  0  0  0
  3 89  1  0  0  0
  4  5  1  0  0  0
  4 90  1  0  0  0
  4 91  1  0  0  0
  5  6  1  0  0  0
  5 26  1  0  0  0
  5 92  1  0  0  0
  6 25  1  0  0  0
  6 93  1  0  0  0
  6 94  1  0  0  0
  7  8  2  0  0  0
  7 26  1  0  0  0
  7 29  1  0  0  0
  8  9  1  0  0  0
  8 22  1  0  0  0
  9 10  1  0  0  0
  9 27  2  0  0  0
 10 11  2  0  0  0
 10 15  1  0  0  0
 11 12  1  0  0  0
 11 95  1  0  0  0
 12 13  2  0  0  0
 12 96  1  0  0  0
 13 14  1  0  0  0
 13 31  1  0  0  0
 14 15  2  0  0  0
 14 97  1  0  0  0
 15 98  1  0  0  0
 16 17  2  0  0  0
 16 21  1  0  0  0
 16 31  1  0  0  0
 17 18  1  0  0  0
 17 99  1  0  0  0
 18 19  2  0  0  0
 18100  1  0  0  0
 19 20  1  0  0  0
 19 24  1  0  0  0
 20 21  2  0  0  0
 20101  1  0  0  0
 21 23  1  0  0  0
 22 28  1  0  0  0
 22 32  2  0  0  0
 26 27  1  0  0  0
 28102  1  0  0  0
 28103  1  0  0  0
 29104  1  0  0  0
 29105  1  0  0  0
 33 34  1  0  0  0
 33 66  1  0  0  0
 33 70  2  0  0  0
 34 36  1  0  0  0
 34 59  1  0  0  0
 34106  1  0  0  0
 35 44  2  0  0  0
 35 45  1  0  0  0
 35 68  1  0  0  0
 36 56  1  0  0  0
 36107  1  0  0  0
 37 39  1  0  0  0
 37 47  1  0  0  0
 37 66  1  0  0  0
 37108  1  0  0  0
 38 43  2  0  0  0
 38 46  1  0  0  0
 38 47  1  0  0  0
 39 64  1  0  0  0
 39 67  2  0  0  0
 40 52  1  0  0  0
 40 53  2  0  0  0
 40 58  1  0  0  0
 41109  1  0  0  0
 41110  1  0  0  0
 41111  1  0  0  0
 41 48  1  0  0  0
 42 43  1  0  0  0
 42 66  1  0  0  0
 42112  1  0  0  0
 42113  1  0  0  0
 43 44  1  0  0  0
 44114  1  0  0  0
 45 46  2  0  0  0
 45115  1  0  0  0
 46116  1  0  0  0
 47117  1  0  0  0
 47118  1  0  0  0
 48 56  1  0  0  0
 48 65  1  0  0  0
 48119  1  0  0  0
 49 50  1  0  0  0
 49 53  1  0  0  0
 49 64  1  0  0  0
 49120  1  0  0  0
 50 51  1  0  0  0
 50121  1  0  0  0
 50122  1  0  0  0
 51 52  1  0  0  0
 51123  1  0  0  0
 51124  1  0  0  0
 52125  1  0  0  0
 52126  1  0  0  0
 53 54  1  0  0  0
 54 55  2  0  0  0
 54127  1  0  0  0
 55 57  1  0  0  0
 55128  1  0  0  0
 56 69  2  0  0  0
 57 58  2  0  0  0
 57129  1  0  0  0
 58130  1  0  0  0
 59 60  1  0  0  0
 59 61  1  0  0  0
 59 62  1  0  0  0
 60131  1  0  0  0
 60132  1  0  0  0
 60133  1  0  0  0
 61134  1  0  0  0
 61135  1  0  0  0
 61136  1  0  0  0
 62137  1  0  0  0
 62138  1  0  0  0
 62139  1  0  0  0
 63 65  1  0  0  0
 63140  1  0  0  0
 63141  1  0  0  0
 63142  1  0  0  0
 64143  1  0  0  0
 65144  1  0  0  0
 68 80  1  0  0  0
 71 72  2  0  0  0
 71 74  1  0  0  0
 71145  1  0  0  0
 72 75  1  0  0  0
 72 77  1  0  0  0
 73 75  2  0  0  0
 73 76  1  0  0  0
 73 79  1  0  0  0
 74 76  2  0  0  0
 74 82  1  0  0  0
 75 84  1  0  0  0
 76 85  1  0  0  0
 77146  1  0  0  0
 77147  1  0  0  0
 77148  1  0  0  0
 78149  1  0  0  0
 78150  1  0  0  0
 78151  1  0  0  0
 78 81  1  0  0  0
 79 83  1  0  0  0
 79152  1  0  0  0
 79153  1  0  0  0
 80 81  1  0  0  0
 80154  1  0  0  0
 80155  1  0  0  0
 81 83  1  0  0  0
 81156  1  0  0  0
 82157  1  0  0  0
 83158  1  0  0  0
 83159  1  0  0  0
M  CHG  1  83   1
M  ISO  4   1 100  68 101  80 101  82 100
M  END
> <chiral flag>
0

> <version>
0

> <s_m_source_file>
/data/baiqing/PycharmProjects/Reinvent-master-3.2/result/LINK_invent/BTK/process_docking_weight1_custom_sum_contain_oxygen_bond_distance_aromatic_linkinvent_7_9_3/rearranged_h_0014.sdf

> <i_m_source_file_index>
46

> <r_mmod_Potential_Energy-OPLS-2005>
-46.2703666687012

> <r_mmod_Stretch_Energy-OPLS-2005>
125.045333862305

> <r_mmod_Bend_Energy-OPLS-2005>
174.729095458984

> <r_mmod_Torsional_Energy-OPLS-2005>
206.457931518555

> <r_mmod_Improper_Torsional_Energy-OPLS-2005>
4.85166072845459

> <r_mmod_Van_der_Waal_Energy-OPLS-2005>
149.508834838867

> <r_mmod_Electrostatic_Energy-OPLS-2005>
-337.751220703125

> <r_mmod_Solvation_Energy-OPLS-2005>
-443.147369384766

> <b_mmod_Minimization_Converged-OPLS-2005>
0

> <r_mmod_RMS_Derivative-OPLS-2005>
0.955882012844086

$$$$
46
                    3D
 Structure written by MMmdl.
190197  0  0  1  0            999 V2000
  -31.0575  -13.5001   20.9684 C   0  0  0  0  0  0
  -30.4102  -12.8610   18.8943 C   0  0  0  0  0  0
  -29.2864  -12.9706   17.9312 C   0  0  0  0  0  0
  -28.0874  -12.4541   18.6308 C   0  0  0  0  0  0
  -27.6009  -13.3198   19.8079 C   0  0  2  0  0  0
  -28.6867  -13.4602   20.8508 C   0  0  0  0  0  0
  -25.2669  -13.8263   20.6983 C   0  0  0  0  0  0
  -24.1766  -13.0406   20.9868 C   0  0  0  0  0  0
  -24.6422  -11.7004   20.9398 C   0  0  0  0  0  0
  -23.8890  -10.4459   21.0883 C   0  0  0  0  0  0
  -24.3376   -9.4334   21.9527 C   0  0  0  0  0  0
  -23.6214   -8.2210   22.0856 C   0  0  0  0  0  0
  -22.4258   -8.0253   21.3483 C   0  0  0  0  0  0
  -21.9765   -9.0335   20.4857 C   0  0  0  0  0  0
  -22.6978  -10.2321   20.3580 C   0  0  0  0  0  0
  -21.6949   -6.0726   22.5141 C   0  0  0  0  0  0
  -21.4039   -6.5612   23.8124 C   0  0  0  0  0  0
  -21.3505   -5.6712   24.8992 C   0  0  0  0  0  0
  -21.5960   -4.2976   24.7015 C   0  0  0  0  0  0
  -21.8851   -3.8144   23.4137 C   0  0  0  0  0  0
  -21.9312   -4.6961   22.3285 C   0  0  0  0  0  0
  -22.7715  -13.5218   21.1891 C   0  0  0  0  0  0
  -22.1698   -4.2239   21.0847 F   0  0  0  0  0  0
  -21.5556   -3.4446   25.7462 F   0  0  0  0  0  0
  -30.0212  -13.2719   20.2527 N   0  0  0  0  0  0
  -26.2974  -12.9613   20.3986 N   0  0  0  0  0  0
  -25.9605  -11.6726   20.6987 N   0  0  0  0  0  0
  -22.0215  -12.8065   22.0202 N   0  0  0  0  0  0
  -25.4407  -15.1900   20.6573 N   0  0  0  0  0  0
  -31.8459  -14.4328   20.7159 O   0  0  0  0  0  0
  -21.6699   -6.8769   21.4089 O   0  0  0  0  0  0
  -22.3390  -14.5409   20.6587 O   0  0  0  0  0  0
  -24.6157  -31.8812   23.2054 C   0  0  0  0  0  0
  -25.9069  -32.4948   23.8429 C   0  0  1  0  0  0
  -27.1540  -27.3654   20.0891 C   0  0  0  0  0  0
  -25.5925  -33.8704   24.2471 N   0  0  0  0  0  0
  -23.4191  -30.5045   21.5512 C   0  0  2  0  0  0
  -24.8458  -29.0048   20.0941 C   0  0  0  0  0  0
  -22.7400  -29.4693   22.4845 C   0  0  0  0  0  0
  -18.0270  -28.1249   22.8816 C   0  0  0  0  0  0
  -24.1455  -36.7322   23.2650 C   0  0  0  0  0  0
  -25.9379  -30.8345   21.3747 C   0  0  0  0  0  0
  -26.0138  -29.4657   20.7063 C   0  0  0  0  0  0
  -27.1760  -28.6412   20.7199 C   0  0  0  0  0  0
  -25.9778  -26.9756   19.4212 C   0  0  0  0  0  0
  -24.8156  -27.7551   19.4712 C   0  0  0  0  0  0
  -23.6331  -29.8870   20.1547 C   0  0  0  0  0  0
  -25.4102  -36.3196   24.0417 C   0  0  1  0  0  0
  -20.5854  -28.3436   23.1028 C   0  0  2  0  0  0
  -20.6720  -26.9216   22.4831 C   0  0  0  0  0  0
  -19.5146  -26.5917   21.5364 C   0  0  0  0  0  0
  -18.1699  -26.7577   22.2458 C   0  0  0  0  0  0
  -19.1571  -28.8732   23.2978 C   0  0  0  0  0  0
  -18.9599  -30.1363   23.9031 C   0  0  0  0  0  0
  -17.6584  -30.6457   24.0782 C   0  0  0  0  0  0
  -25.9034  -34.9563   23.5211 C   0  0  0  0  0  0
  -16.5474  -29.9106   23.6388 C   0  0  0  0  0  0
  -16.7315  -28.6496   23.0474 C   0  0  0  0  0  0
  -26.4429  -31.6677   25.0758 C   0  0  0  0  0  0
  -25.3666  -31.3745   26.1485 C   0  0  0  0  0  0
  -27.0226  -30.3135   24.6136 C   0  0  0  0  0  0
  -27.6009  -32.4392   25.7562 C   0  0  0  0  0  0
  -27.5616  -37.1835   24.8503 C   0  0  0  0  0  0
  -21.4062  -29.3036   22.3571 N   0  0  0  0  0  0
  -26.4344  -37.3887   23.9397 N   0  0  0  0  0  0
  -24.6755  -31.0892   22.1035 N   0  0  0  0  0  0
  -23.4139  -28.8215   23.2859 O   0  0  0  0  0  0
  -28.2331  -26.4957   20.1588 O   0  0  0  0  0  0
  -26.5541  -34.9010   22.4709 O   0  0  0  0  0  0
  -23.5262  -32.1572   23.7302 O   0  0  0  0  0  0
  -28.9757   -9.2780   20.0668 C   0  0  0  0  0  0
  -26.9007  -22.6800   20.0384 C   0  0  0  0  0  0
  -27.1728   -7.5810   20.1404 C   0  0  0  0  0  0
  -24.4249  -22.8369   19.7332 C   0  0  0  0  0  0
  -29.4131  -10.2215   21.2796 C   0  0  0  0  0  0
  -27.0601  -24.1530   20.5928 C   0  0  0  0  0  0
  -24.6280  -14.4312   17.5310 C   0  0  0  0  0  0
  -24.0395  -13.3235   16.5835 C   0  0  0  0  0  0
  -24.4185  -15.9473   17.1219 C   0  0  0  0  0  0
  -23.9515  -11.8062   17.0663 C   0  0  0  0  0  0
  -24.8949  -17.0111   18.1988 C   0  0  0  0  0  0
  -25.2781  -11.1306   17.5353 C   0  0  0  0  0  0
  -24.6772  -18.5494   17.9783 C   0  0  0  0  0  0
  -25.5162   -9.6602   18.1367 C   0  0  0  0  0  0
  -25.1141  -19.5378   19.1464 C   0  0  0  0  0  0
  -30.8963  -10.9096   21.3287 C   0  0  0  0  0  0
  -27.0463   -9.3347   18.4515 C   0  0  0  0  0  0
  -25.6175  -20.9526   18.6648 C   0  0  0  0  0  0
  -28.0640  -25.0779   19.7863 C   0  0  0  0  0  0
  -31.1984  -12.3754   21.7435 N   0  0  0  0  0  0
  -27.6507   -8.9319   19.7775 N   0  0  0  0  0  0
  -25.7113  -22.1270   19.6199 N   0  0  0  0  0  0
  -29.8739   -8.8900   19.3164 O   0  0  0  0  0  0
  -27.9352  -22.0138   19.9714 O   0  0  0  0  0  0
  -31.1679  -13.5342   18.4713 H   0  0  0  0  0  0
  -30.8373  -11.8636   18.8209 H   0  0  0  0  0  0
  -29.5157  -12.4013   17.0223 H   0  0  0  0  0  0
  -29.1013  -14.0090   17.6308 H   0  0  0  0  0  0
  -28.5262  -11.5577   19.0287 H   0  0  0  0  0  0
  -27.3691  -12.2924   17.8580 H   0  0  0  0  0  0
  -27.4832  -14.3119   19.3686 H   0  0  0  0  0  0
  -28.5177  -12.8991   21.7649 H   0  0  0  0  0  0
  -28.6268  -14.5089   21.1623 H   0  0  0  0  0  0
  -25.2417   -9.6120   22.5233 H   0  0  0  0  0  0
  -24.0028   -7.4623   22.7487 H   0  0  0  0  0  0
  -21.0706   -8.9020   19.9104 H   0  0  0  0  0  0
  -22.3362  -10.9982   19.6888 H   0  0  0  0  0  0
  -21.1927   -7.6133   23.9651 H   0  0  0  0  0  0
  -21.1154   -6.0297   25.8928 H   0  0  0  0  0  0
  -22.0646   -2.7601   23.2640 H   0  0  0  0  0  0
  -22.3731  -11.9587   22.4388 H   0  0  0  0  0  0
  -21.0597  -13.0682   22.1660 H   0  0  0  0  0  0
  -24.6723  -15.8269   20.8157 H   0  0  0  0  0  0
  -26.3185  -15.6780   20.5261 H   0  0  0  0  0  0
  -26.7258  -32.5699   23.1228 H   0  0  0  0  0  0
  -24.9980  -33.9931   25.0614 H   0  0  0  0  0  0
  -22.7439  -31.3426   21.4097 H   0  0  0  0  0  0
  -23.3758  -35.9590   23.3307 H   0  0  0  0  0  0
  -24.3559  -36.8884   22.2043 H   0  0  0  0  0  0
  -23.7181  -37.6519   23.6658 H   0  0  0  0  0  0
  -26.0234  -31.6360   20.6366 H   0  0  0  0  0  0
  -26.8229  -30.8762   21.9927 H   0  0  0  0  0  0
  -28.0656  -28.9665   21.2520 H   0  0  0  0  0  0
  -25.9158  -26.0599   18.8642 H   0  0  0  0  0  0
  -23.9227  -27.4050   18.9803 H   0  0  0  0  0  0
  -23.7652  -30.6764   19.4148 H   0  0  0  0  0  0
  -22.7609  -29.3339   19.8340 H   0  0  0  0  0  0
  -25.1232  -36.2011   25.0956 H   0  0  0  0  0  0
  -21.0183  -28.2642   24.1007 H   0  0  0  0  0  0
  -20.6353  -26.1778   23.2806 H   0  0  0  0  0  0
  -21.6353  -26.7540   21.9956 H   0  0  0  0  0  0
  -19.5974  -25.5663   21.1694 H   0  0  0  0  0  0
  -19.5365  -27.2355   20.6556 H   0  0  0  0  0  0
  -17.3510  -26.5924   21.5460 H   0  0  0  0  0  0
  -18.0450  -26.0040   23.0260 H   0  0  0  0  0  0
  -19.8177  -30.7072   24.2365 H   0  0  0  0  0  0
  -17.5309  -31.6061   24.5496 H   0  0  0  0  0  0
  -15.5509  -30.3109   23.7771 H   0  0  0  0  0  0
  -15.8715  -28.0900   22.7076 H   0  0  0  0  0  0
  -24.5772  -30.7242   25.7714 H   0  0  0  0  0  0
  -24.8928  -32.2833   26.5201 H   0  0  0  0  0  0
  -25.7892  -30.8655   27.0163 H   0  0  0  0  0  0
  -26.2702  -29.6960   24.1205 H   0  0  0  0  0  0
  -27.3913  -29.7359   25.4626 H   0  0  0  0  0  0
  -27.8612  -30.4450   23.9289 H   0  0  0  0  0  0
  -27.2628  -33.3681   26.2239 H   0  0  0  0  0  0
  -28.3725  -32.7012   25.0293 H   0  0  0  0  0  0
  -28.0835  -31.8489   26.5384 H   0  0  0  0  0  0
  -28.2638  -38.0143   24.7550 H   0  0  0  0  0  0
  -28.1100  -36.2626   24.6267 H   0  0  0  0  0  0
  -27.2386  -37.1498   25.8960 H   0  0  0  0  0  0
  -20.9076  -29.9188   21.7299 H   0  0  0  0  0  0
  -26.0161  -38.2959   24.1359 H   0  0  0  0  0  0
  -26.0882   -7.6003   20.3056 H   0  0  0  0  0  0
  -27.6361   -7.2109   21.0583 H   0  0  0  0  0  0
  -27.3801   -6.8445   19.3500 H   0  0  0  0  0  0
  -24.2722  -23.3302   20.6929 H   0  0  0  0  0  0
  -23.5702  -22.1721   19.5974 H   0  0  0  0  0  0
  -24.3330  -23.5823   18.9414 H   0  0  0  0  0  0
  -29.2642   -9.6502   22.1946 H   0  0  0  0  0  0
  -28.6364  -10.9520   21.3298 H   0  0  0  0  0  0
  -27.4271  -24.0592   21.6196 H   0  0  0  0  0  0
  -26.0991  -24.6578   20.6238 H   0  0  0  0  0  0
  -25.6976  -14.2148   17.6528 H   0  0  0  0  0  0
  -24.1325  -14.2991   18.4954 H   0  0  0  0  0  0
  -24.5719  -13.3473   15.6298 H   0  0  0  0  0  0
  -23.0060  -13.6191   16.3687 H   0  0  0  0  0  0
  -23.3474  -16.0995   16.9445 H   0  0  0  0  0  0
  -24.9049  -16.1222   16.1568 H   0  0  0  0  0  0
  -23.5293  -11.2130   16.2536 H   0  0  0  0  0  0
  -23.2306  -11.7583   17.8724 H   0  0  0  0  0  0
  -25.9591  -16.8554   18.3721 H   0  0  0  0  0  0
  -24.3606  -16.7560   19.1095 H   0  0  0  0  0  0
  -25.5300  -11.8004   18.3294 H   0  0  0  0  0  0
  -25.9782  -11.2967   16.7297 H   0  0  0  0  0  0
  -23.6182  -18.7048   17.7668 H   0  0  0  0  0  0
  -25.2163  -18.8102   17.0655 H   0  0  0  0  0  0
  -25.1206   -8.9093   17.4649 H   0  0  0  0  0  0
  -24.9545   -9.5280   19.0474 H   0  0  0  0  0  0
  -25.9498  -19.0882   19.6881 H   0  0  0  0  0  0
  -24.2660  -19.6420   19.8326 H   0  0  0  0  0  0
  -31.4210  -10.6981   20.3995 H   0  0  0  0  0  0
  -31.4728  -10.3020   22.0235 H   0  0  0  0  0  0
  -27.1736  -10.3306   18.7122 H   0  0  0  0  0  0
  -27.6891   -9.1439   17.5855 H   0  0  0  0  0  0
  -24.9706  -21.2503   17.8381 H   0  0  0  0  0  0
  -26.5670  -20.7836   18.1572 H   0  0  0  0  0  0
  -29.0532  -24.6130   19.8624 H   0  0  0  0  0  0
  -27.7832  -25.0336   18.7354 H   0  0  0  0  0  0
  -31.8769  -12.4840   22.4831 H   0  0  0  0  0  0
  1 25  1  0  0  0
  1 30  2  0  0  0
  1 90  1  0  0  0
  2  3  1  0  0  0
  2 25  1  0  0  0
  2 95  1  0  0  0
  2 96  1  0  0  0
  3  4  1  0  0  0
  3 97  1  0  0  0
  3 98  1  0  0  0
  4  5  1  0  0  0
  4 99  1  0  0  0
  4100  1  0  0  0
  5  6  1  0  0  0
  5 26  1  0  0  0
  5101  1  0  0  0
  6 25  1  0  0  0
  6102  1  0  0  0
  6103  1  0  0  0
  7  8  2  0  0  0
  7 26  1  0  0  0
  7 29  1  0  0  0
  8  9  1  0  0  0
  8 22  1  0  0  0
  9 10  1  0  0  0
  9 27  2  0  0  0
 10 11  2  0  0  0
 10 15  1  0  0  0
 11 12  1  0  0  0
 11104  1  0  0  0
 12 13  2  0  0  0
 12105  1  0  0  0
 13 14  1  0  0  0
 13 31  1  0  0  0
 14 15  2  0  0  0
 14106  1  0  0  0
 15107  1  0  0  0
 16 17  2  0  0  0
 16 21  1  0  0  0
 16 31  1  0  0  0
 17 18  1  0  0  0
 17108  1  0  0  0
 18 19  2  0  0  0
 18109  1  0  0  0
 19 20  1  0  0  0
 19 24  1  0  0  0
 20 21  2  0  0  0
 20110  1  0  0  0
 21 23  1  0  0  0
 22 28  1  0  0  0
 22 32  2  0  0  0
 26 27  1  0  0  0
 28111  1  0  0  0
 28112  1  0  0  0
 29113  1  0  0  0
 29114  1  0  0  0
 33 34  1  0  0  0
 33 66  1  0  0  0
 33 70  2  0  0  0
 34 36  1  0  0  0
 34 59  1  0  0  0
 34115  1  0  0  0
 35 44  2  0  0  0
 35 45  1  0  0  0
 35 68  1  0  0  0
 36 56  1  0  0  0
 36116  1  0  0  0
 37 39  1  0  0  0
 37 47  1  0  0  0
 37 66  1  0  0  0
 37117  1  0  0  0
 38 43  2  0  0  0
 38 46  1  0  0  0
 38 47  1  0  0  0
 39 64  1  0  0  0
 39 67  2  0  0  0
 40 52  1  0  0  0
 40 53  2  0  0  0
 40 58  1  0  0  0
 41118  1  0  0  0
 41119  1  0  0  0
 41120  1  0  0  0
 41 48  1  0  0  0
 42 43  1  0  0  0
 42 66  1  0  0  0
 42121  1  0  0  0
 42122  1  0  0  0
 43 44  1  0  0  0
 44123  1  0  0  0
 45 46  2  0  0  0
 45124  1  0  0  0
 46125  1  0  0  0
 47126  1  0  0  0
 47127  1  0  0  0
 48 56  1  0  0  0
 48 65  1  0  0  0
 48128  1  0  0  0
 49 50  1  0  0  0
 49 53  1  0  0  0
 49 64  1  0  0  0
 49129  1  0  0  0
 50 51  1  0  0  0
 50130  1  0  0  0
 50131  1  0  0  0
 51 52  1  0  0  0
 51132  1  0  0  0
 51133  1  0  0  0
 52134  1  0  0  0
 52135  1  0  0  0
 53 54  1  0  0  0
 54 55  2  0  0  0
 54136  1  0  0  0
 55 57  1  0  0  0
 55137  1  0  0  0
 56 69  2  0  0  0
 57 58  2  0  0  0
 57138  1  0  0  0
 58139  1  0  0  0
 59 60  1  0  0  0
 59 61  1  0  0  0
 59 62  1  0  0  0
 60140  1  0  0  0
 60141  1  0  0  0
 60142  1  0  0  0
 61143  1  0  0  0
 61144  1  0  0  0
 61145  1  0  0  0
 62146  1  0  0  0
 62147  1  0  0  0
 62148  1  0  0  0
 63 65  1  0  0  0
 63149  1  0  0  0
 63150  1  0  0  0
 63151  1  0  0  0
 64152  1  0  0  0
 65153  1  0  0  0
 68 89  1  0  0  0
 71 75  1  0  0  0
 71 91  1  0  0  0
 71 93  2  0  0  0
 72 76  1  0  0  0
 72 92  1  0  0  0
 72 94  2  0  0  0
 73 91  1  0  0  0
 73154  1  0  0  0
 73155  1  0  0  0
 73156  1  0  0  0
 74 92  1  0  0  0
 74157  1  0  0  0
 74158  1  0  0  0
 74159  1  0  0  0
 75 86  1  0  0  0
 75160  1  0  0  0
 75161  1  0  0  0
 76 89  1  0  0  0
 76162  1  0  0  0
 76163  1  0  0  0
 77 78  1  0  0  0
 77 79  1  0  0  0
 77164  1  0  0  0
 77165  1  0  0  0
 78 80  1  0  0  0
 78166  1  0  0  0
 78167  1  0  0  0
 79 81  1  0  0  0
 79168  1  0  0  0
 79169  1  0  0  0
 80 82  1  0  0  0
 80170  1  0  0  0
 80171  1  0  0  0
 81 83  1  0  0  0
 81172  1  0  0  0
 81173  1  0  0  0
 82 84  1  0  0  0
 82174  1  0  0  0
 82175  1  0  0  0
 83 85  1  0  0  0
 83176  1  0  0  0
 83177  1  0  0  0
 84 87  1  0  0  0
 84178  1  0  0  0
 84179  1  0  0  0
 85 88  1  0  0  0
 85180  1  0  0  0
 85181  1  0  0  0
 86 90  1  0  0  0
 86182  1  0  0  0
 86183  1  0  0  0
 87 91  1  0  0  0
 87184  1  0  0  0
 87185  1  0  0  0
 88 92  1  0  0  0
 88186  1  0  0  0
 88187  1  0  0  0
 89188  1  0  0  0
 89189  1  0  0  0
 90190  1  0  0  0
M  ISO  4   1 100  68 101  89 101  90 100
M  END
> <chiral flag>
0

> <version>
0

> <s_m_source_file>
/data/baiqing/PycharmProjects/Reinvent-master-3.2/result/LINK_invent/BTK/process_docking_weight1_custom_sum_contain_oxygen_bond_distance_aromatic_linkinvent_7_9_3/rearranged_h_0014.sdf

> <i_m_source_file_index>
47

> <r_mmod_Potential_Energy-OPLS-2005>
909.922973632812

> <r_mmod_Stretch_Energy-OPLS-2005>
167.36882019043

> <r_mmod_Bend_Energy-OPLS-2005>
369.595184326172

> <r_mmod_Torsional_Energy-OPLS-2005>
451.475646972656

> <r_mmod_Improper_Torsional_Energy-OPLS-2005>
13.9137544631958

> <r_mmod_Van_der_Waal_Energy-OPLS-2005>
196.395660400391

> <r_mmod_Electrostatic_Energy-OPLS-2005>
-370.991668701172

> <r_mmod_Solvation_Energy-OPLS-2005>
-224.637649536133

> <b_mmod_Minimization_Converged-OPLS-2005>
0

> <r_mmod_RMS_Derivative-OPLS-2005>
19.5717468261719

$$$$
47
                    3D
 Structure written by MMmdl.
154162  0  0  1  0            999 V2000
  -30.6240  -14.6496   20.4859 C   0  0  0  0  0  0
  -30.4388  -12.3946   19.4548 C   0  0  0  0  0  0
  -29.5080  -12.5039   18.2267 C   0  0  0  0  0  0
  -28.0316  -12.3422   18.6407 C   0  0  0  0  0  0
  -27.6535  -13.2183   19.8649 C   0  0  2  0  0  0
  -28.6997  -13.0812   20.9948 C   0  0  0  0  0  0
  -25.2548  -13.8171   20.5670 C   0  0  0  0  0  0
  -24.1818  -13.0432   20.9172 C   0  0  0  0  0  0
  -24.6399  -11.6910   20.8742 C   0  0  0  0  0  0
  -23.9068  -10.4291   21.0410 C   0  0  0  0  0  0
  -24.3617   -9.4206   21.9185 C   0  0  0  0  0  0
  -23.6294   -8.2242   22.0754 C   0  0  0  0  0  0
  -22.4277   -8.0277   21.3545 C   0  0  0  0  0  0
  -21.9912   -9.0252   20.4646 C   0  0  0  0  0  0
  -22.7241  -10.2132   20.3060 C   0  0  0  0  0  0
  -21.6849   -6.0735   22.5278 C   0  0  0  0  0  0
  -21.4012   -6.5642   23.8212 C   0  0  0  0  0  0
  -21.3662   -5.6794   24.9174 C   0  0  0  0  0  0
  -21.6045   -4.3056   24.7223 C   0  0  0  0  0  0
  -21.8819   -3.8150   23.4344 C   0  0  0  0  0  0
  -21.9194   -4.6966   22.3401 C   0  0  0  0  0  0
  -22.7839  -13.5221   21.1839 C   0  0  0  0  0  0
  -22.1659   -4.2152   21.0977 F   0  0  0  0  0  0
  -21.5633   -3.4538   25.7736 F   0  0  0  0  0  0
  -30.0156  -13.4214   20.4291 N   0  0  0  0  0  0
  -26.2989  -12.9359   20.3335 N   0  0  0  0  0  0
  -25.9330  -11.6514   20.5779 N   0  0  0  0  0  0
  -22.0494  -12.8213   22.0406 N   0  0  0  0  0  0
  -25.4252  -15.1879   20.4055 N   0  0  0  0  0  0
  -31.7822  -14.8065   20.0900 O   0  0  0  0  0  0
  -21.6640   -6.8875   21.4239 O   0  0  0  0  0  0
  -22.3517  -14.5529   20.6695 O   0  0  0  0  0  0
  -24.6271  -31.8594   23.2036 C   0  0  0  0  0  0
  -25.9106  -32.4782   23.8362 C   0  0  1  0  0  0
  -27.2282  -27.3217   20.1074 C   0  0  0  0  0  0
  -25.5924  -33.8581   24.2283 N   0  0  0  0  0  0
  -23.4209  -30.4847   21.5459 C   0  0  2  0  0  0
  -24.8661  -28.9423   20.1110 C   0  0  0  0  0  0
  -22.7484  -29.4625   22.4932 C   0  0  0  0  0  0
  -18.0283  -28.1387   22.8498 C   0  0  0  0  0  0
  -24.1487  -36.7280   23.2639 C   0  0  0  0  0  0
  -25.9624  -30.7911   21.3749 C   0  0  0  0  0  0
  -26.0376  -29.4205   20.7129 C   0  0  0  0  0  0
  -27.2209  -28.6229   20.6991 C   0  0  0  0  0  0
  -26.0279  -26.8961   19.4872 C   0  0  0  0  0  0
  -24.8634  -27.6849   19.4913 C   0  0  0  0  0  0
  -23.6348  -29.8226   20.1605 C   0  0  0  0  0  0
  -25.4116  -36.3081   24.0329 C   0  0  1  0  0  0
  -20.5890  -28.3685   23.1281 C   0  0  2  0  0  0
  -20.6775  -26.9406   22.5410 C   0  0  0  0  0  0
  -19.5745  -26.6378   21.5218 C   0  0  0  0  0  0
  -18.1922  -26.7936   22.1628 C   0  0  0  0  0  0
  -19.1542  -28.8853   23.2884 C   0  0  0  0  0  0
  -18.9474  -30.1461   23.8887 C   0  0  0  0  0  0
  -17.6474  -30.6593   24.0574 C   0  0  0  0  0  0
  -25.9043  -34.9456   23.5104 C   0  0  0  0  0  0
  -16.5360  -29.9102   23.6339 C   0  0  0  0  0  0
  -16.7272  -28.6519   23.0361 C   0  0  0  0  0  0
  -26.4490  -31.6601   25.0732 C   0  0  0  0  0  0
  -25.3726  -31.3762   26.1459 C   0  0  0  0  0  0
  -27.0318  -30.3021   24.6190 C   0  0  0  0  0  0
  -27.6043  -32.4343   25.7506 C   0  0  0  0  0  0
  -27.5580  -37.1798   24.8470 C   0  0  0  0  0  0
  -21.4191  -29.3041   22.3682 N   0  0  0  0  0  0
  -26.4292  -37.3780   23.9413 N   0  0  0  0  0  0
  -24.6888  -31.0617   22.0980 N   0  0  0  0  0  0
  -23.4211  -28.8159   23.3007 O   0  0  0  0  0  0
  -28.3478  -26.4716   20.1538 O   0  0  0  0  0  0
  -26.5610  -34.8924   22.4668 O   0  0  0  0  0  0
  -23.5426  -32.1378   23.7365 O   0  0  0  0  0  0
  -30.8827  -17.8334   19.8917 C   0  0  0  0  0  0
  -29.9983  -20.1017   20.4836 C   0  0  0  0  0  0
  -29.0219  -19.4328   21.2822 C   0  0  0  0  0  0
  -29.9339  -17.1599   20.7026 C   0  0  0  0  0  0
  -30.9122  -19.2557   19.7869 C   0  0  0  0  0  0
  -28.9929  -17.9957   21.3723 C   0  0  0  0  0  0
  -29.3027  -24.0485   20.3330 C   0  0  0  0  0  0
  -28.0104  -20.2549   22.0741 C   0  0  0  0  0  0
  -30.2354  -21.6693   20.4772 C   0  0  0  0  0  0
  -28.1176  -25.0180   19.9545 C   0  0  0  0  0  0
  -29.8289  -15.7011   20.8583 N   0  0  0  0  0  0
  -29.1528  -22.6847   20.2305 N   0  0  0  0  0  0
  -30.3718  -24.5363   20.7083 O   0  0  0  0  0  0
  -31.8708  -19.8135   19.0089 F   0  0  0  0  0  0
  -27.7837  -17.2152   22.3388 Cl  0  0  0  0  0  0
  -31.4796  -12.5175   19.1501 H   0  0  0  0  0  0
  -30.3746  -11.4005   19.8994 H   0  0  0  0  0  0
  -29.7715  -11.7495   17.4836 H   0  0  0  0  0  0
  -29.6493  -13.4721   17.7440 H   0  0  0  0  0  0
  -27.8717  -11.2898   18.8782 H   0  0  0  0  0  0
  -27.3753  -12.5642   17.7986 H   0  0  0  0  0  0
  -27.6698  -14.2523   19.5199 H   0  0  0  0  0  0
  -28.7112  -12.0627   21.3853 H   0  0  0  0  0  0
  -28.4449  -13.7202   21.8417 H   0  0  0  0  0  0
  -25.2764   -9.5679   22.4756 H   0  0  0  0  0  0
  -24.0004   -7.4631   22.7472 H   0  0  0  0  0  0
  -21.0845   -8.8770   19.8948 H   0  0  0  0  0  0
  -22.3701  -10.9669   19.6168 H   0  0  0  0  0  0
  -21.2003   -7.6149   23.9713 H   0  0  0  0  0  0
  -21.1482   -6.0525   25.9075 H   0  0  0  0  0  0
  -22.0599   -2.7611   23.2841 H   0  0  0  0  0  0
  -22.4110  -11.9856   22.4766 H   0  0  0  0  0  0
  -21.1119  -13.1240   22.2640 H   0  0  0  0  0  0
  -24.6666  -15.8463   20.5428 H   0  0  0  0  0  0
  -26.2861  -15.6335   20.1183 H   0  0  0  0  0  0
  -26.7177  -32.5440   23.1113 H   0  0  0  0  0  0
  -25.0091  -33.9739   25.0446 H   0  0  0  0  0  0
  -22.7146  -31.3057   21.4059 H   0  0  0  0  0  0
  -23.3756  -35.9602   23.3293 H   0  0  0  0  0  0
  -24.3584  -36.8899   22.2055 H   0  0  0  0  0  0
  -23.7233  -37.6479   23.6663 H   0  0  0  0  0  0
  -26.0983  -31.5588   20.6121 H   0  0  0  0  0  0
  -26.8423  -30.8344   22.0053 H   0  0  0  0  0  0
  -28.1220  -28.9894   21.1731 H   0  0  0  0  0  0
  -25.9543  -25.9366   18.9987 H   0  0  0  0  0  0
  -23.9663  -27.3114   19.0172 H   0  0  0  0  0  0
  -23.7575  -30.6021   19.4069 H   0  0  0  0  0  0
  -22.7541  -29.2544   19.8550 H   0  0  0  0  0  0
  -25.1305  -36.1918   25.0824 H   0  0  0  0  0  0
  -20.9986  -28.3249   24.1400 H   0  0  0  0  0  0
  -20.5678  -26.2295   23.3611 H   0  0  0  0  0  0
  -21.6643  -26.7437   22.1199 H   0  0  0  0  0  0
  -19.6901  -25.6290   21.1246 H   0  0  0  0  0  0
  -19.6682  -27.3195   20.6754 H   0  0  0  0  0  0
  -17.4202  -26.6689   21.4019 H   0  0  0  0  0  0
  -18.0307  -26.0083   22.9021 H   0  0  0  0  0  0
  -19.7948  -30.7286   24.2237 H   0  0  0  0  0  0
  -17.5033  -31.6271   24.5181 H   0  0  0  0  0  0
  -15.5364  -30.3011   23.7665 H   0  0  0  0  0  0
  -15.8664  -28.0841   22.7074 H   0  0  0  0  0  0
  -24.5906  -30.7099   25.7805 H   0  0  0  0  0  0
  -24.8912  -32.2936   26.4854 H   0  0  0  0  0  0
  -25.8045  -30.8976   27.0252 H   0  0  0  0  0  0
  -26.2882  -29.6789   24.1207 H   0  0  0  0  0  0
  -27.4001  -29.7272   25.4695 H   0  0  0  0  0  0
  -27.8765  -30.4310   23.9421 H   0  0  0  0  0  0
  -27.2656  -33.3671   26.2034 H   0  0  0  0  0  0
  -28.3880  -32.6851   25.0344 H   0  0  0  0  0  0
  -28.0669  -31.8492   26.5466 H   0  0  0  0  0  0
  -28.2594  -38.0098   24.7515 H   0  0  0  0  0  0
  -28.1073  -36.2627   24.6289 H   0  0  0  0  0  0
  -27.2296  -37.1437   25.8872 H   0  0  0  0  0  0
  -20.9355  -29.8791   21.6915 H   0  0  0  0  0  0
  -26.0157  -38.2844   24.1430 H   0  0  0  0  0  0
  -31.6136  -17.2683   19.3333 H   0  0  0  0  0  0
  -28.4032  -21.2296   22.3576 H   0  0  0  0  0  0
  -27.7233  -19.7696   23.0053 H   0  0  0  0  0  0
  -27.1089  -20.4100   21.4810 H   0  0  0  0  0  0
  -31.0302  -21.8944   19.7648 H   0  0  0  0  0  0
  -30.6696  -21.8990   21.4521 H   0  0  0  0  0  0
  -27.2530  -24.7032   20.5419 H   0  0  0  0  0  0
  -27.8862  -24.8378   18.9045 H   0  0  0  0  0  0
  -28.9548  -15.4085   21.2697 H   0  0  0  0  0  0
  -28.2605  -22.3359   19.9082 H   0  0  0  0  0  0
  1 25  1  0  0  0
  1 30  2  0  0  0
  1 81  1  0  0  0
  2  3  1  0  0  0
  2 25  1  0  0  0
  2 86  1  0  0  0
  2 87  1  0  0  0
  3  4  1  0  0  0
  3 88  1  0  0  0
  3 89  1  0  0  0
  4  5  1  0  0  0
  4 90  1  0  0  0
  4 91  1  0  0  0
  5  6  1  0  0  0
  5 26  1  0  0  0
  5 92  1  0  0  0
  6 25  1  0  0  0
  6 93  1  0  0  0
  6 94  1  0  0  0
  7  8  2  0  0  0
  7 26  1  0  0  0
  7 29  1  0  0  0
  8  9  1  0  0  0
  8 22  1  0  0  0
  9 10  1  0  0  0
  9 27  2  0  0  0
 10 11  2  0  0  0
 10 15  1  0  0  0
 11 12  1  0  0  0
 11 95  1  0  0  0
 12 13  2  0  0  0
 12 96  1  0  0  0
 13 14  1  0  0  0
 13 31  1  0  0  0
 14 15  2  0  0  0
 14 97  1  0  0  0
 15 98  1  0  0  0
 16 17  2  0  0  0
 16 21  1  0  0  0
 16 31  1  0  0  0
 17 18  1  0  0  0
 17 99  1  0  0  0
 18 19  2  0  0  0
 18100  1  0  0  0
 19 20  1  0  0  0
 19 24  1  0  0  0
 20 21  2  0  0  0
 20101  1  0  0  0
 21 23  1  0  0  0
 22 28  1  0  0  0
 22 32  2  0  0  0
 26 27  1  0  0  0
 28102  1  0  0  0
 28103  1  0  0  0
 29104  1  0  0  0
 29105  1  0  0  0
 33 34  1  0  0  0
 33 66  1  0  0  0
 33 70  2  0  0  0
 34 36  1  0  0  0
 34 59  1  0  0  0
 34106  1  0  0  0
 35 44  2  0  0  0
 35 45  1  0  0  0
 35 68  1  0  0  0
 36 56  1  0  0  0
 36107  1  0  0  0
 37 39  1  0  0  0
 37 47  1  0  0  0
 37 66  1  0  0  0
 37108  1  0  0  0
 38 43  2  0  0  0
 38 46  1  0  0  0
 38 47  1  0  0  0
 39 64  1  0  0  0
 39 67  2  0  0  0
 40 52  1  0  0  0
 40 53  2  0  0  0
 40 58  1  0  0  0
 41109  1  0  0  0
 41110  1  0  0  0
 41111  1  0  0  0
 41 48  1  0  0  0
 42 43  1  0  0  0
 42 66  1  0  0  0
 42112  1  0  0  0
 42113  1  0  0  0
 43 44  1  0  0  0
 44114  1  0  0  0
 45 46  2  0  0  0
 45115  1  0  0  0
 46116  1  0  0  0
 47117  1  0  0  0
 47118  1  0  0  0
 48 56  1  0  0  0
 48 65  1  0  0  0
 48119  1  0  0  0
 49 50  1  0  0  0
 49 53  1  0  0  0
 49 64  1  0  0  0
 49120  1  0  0  0
 50 51  1  0  0  0
 50121  1  0  0  0
 50122  1  0  0  0
 51 52  1  0  0  0
 51123  1  0  0  0
 51124  1  0  0  0
 52125  1  0  0  0
 52126  1  0  0  0
 53 54  1  0  0  0
 54 55  2  0  0  0
 54127  1  0  0  0
 55 57  1  0  0  0
 55128  1  0  0  0
 56 69  2  0  0  0
 57 58  2  0  0  0
 57129  1  0  0  0
 58130  1  0  0  0
 59 60  1  0  0  0
 59 61  1  0  0  0
 59 62  1  0  0  0
 60131  1  0  0  0
 60132  1  0  0  0
 60133  1  0  0  0
 61134  1  0  0  0
 61135  1  0  0  0
 61136  1  0  0  0
 62137  1  0  0  0
 62138  1  0  0  0
 62139  1  0  0  0
 63 65  1  0  0  0
 63140  1  0  0  0
 63141  1  0  0  0
 63142  1  0  0  0
 64143  1  0  0  0
 65144  1  0  0  0
 68 80  1  0  0  0
 71 74  2  0  0  0
 71 75  1  0  0  0
 71145  1  0  0  0
 72 73  1  0  0  0
 72 75  2  0  0  0
 72 79  1  0  0  0
 73 76  2  0  0  0
 73 78  1  0  0  0
 74 76  1  0  0  0
 74 81  1  0  0  0
 75 84  1  0  0  0
 76 85  1  0  0  0
 77 80  1  0  0  0
 77 82  1  0  0  0
 77 83  2  0  0  0
 78146  1  0  0  0
 78147  1  0  0  0
 78148  1  0  0  0
 79 82  1  0  0  0
 79149  1  0  0  0
 79150  1  0  0  0
 80151  1  0  0  0
 80152  1  0  0  0
 81153  1  0  0  0
 82154  1  0  0  0
M  ISO  4   1 100  68 101  80 101  81 100
M  END
> <chiral flag>
0

> <version>
0

> <s_m_source_file>
/data/baiqing/PycharmProjects/Reinvent-master-3.2/result/LINK_invent/BTK/process_docking_weight1_custom_sum_contain_oxygen_bond_distance_aromatic_linkinvent_7_9_3/rearranged_h_0014.sdf

> <i_m_source_file_index>
48

> <r_mmod_Potential_Energy-OPLS-2005>
-13.4532661437988

> <r_mmod_Stretch_Energy-OPLS-2005>
83.9913940429688

> <r_mmod_Bend_Energy-OPLS-2005>
140.434936523438

> <r_mmod_Torsional_Energy-OPLS-2005>
211.690505981445

> <r_mmod_Improper_Torsional_Energy-OPLS-2005>
4.2339015007019

> <r_mmod_Van_der_Waal_Energy-OPLS-2005>
150.271270751953

> <r_mmod_Electrostatic_Energy-OPLS-2005>
-415.307922363281

> <r_mmod_Solvation_Energy-OPLS-2005>
-238.474807739258

> <b_mmod_Minimization_Converged-OPLS-2005>
0

> <r_mmod_RMS_Derivative-OPLS-2005>
1.60220527648926

$$$$
48
                    3D
 Structure written by MMmdl.
171179  0  0  1  0            999 V2000
  -30.7296  -14.4739   20.5837 C   0  0  0  0  0  0
  -30.3996  -12.2859   19.4609 C   0  0  0  0  0  0
  -29.5009  -12.4142   18.2170 C   0  0  0  0  0  0
  -28.0070  -12.3530   18.6040 C   0  0  0  0  0  0
  -27.6457  -13.2014   19.8576 C   0  0  2  0  0  0
  -28.6779  -13.0460   20.9898 C   0  0  0  0  0  0
  -25.2540  -13.8131   20.5692 C   0  0  0  0  0  0
  -24.1782  -13.0446   20.9205 C   0  0  0  0  0  0
  -24.6302  -11.6914   20.8699 C   0  0  0  0  0  0
  -23.8971  -10.4281   21.0358 C   0  0  0  0  0  0
  -24.3585   -9.4194   21.9108 C   0  0  0  0  0  0
  -23.6284   -8.2223   22.0688 C   0  0  0  0  0  0
  -22.4228   -8.0271   21.3520 C   0  0  0  0  0  0
  -21.9860   -9.0212   20.4588 C   0  0  0  0  0  0
  -22.7158  -10.2104   20.2990 C   0  0  0  0  0  0
  -21.6869   -6.0714   22.5293 C   0  0  0  0  0  0
  -21.3997   -6.5606   23.8227 C   0  0  0  0  0  0
  -21.3656   -5.6759   24.9191 C   0  0  0  0  0  0
  -21.6066   -4.3023   24.7243 C   0  0  0  0  0  0
  -21.8824   -3.8119   23.4360 C   0  0  0  0  0  0
  -21.9179   -4.6934   22.3419 C   0  0  0  0  0  0
  -22.7813  -13.5233   21.1972 C   0  0  0  0  0  0
  -22.1661   -4.2133   21.0996 F   0  0  0  0  0  0
  -21.5646   -3.4511   25.7749 F   0  0  0  0  0  0
  -30.0105  -13.3216   20.4311 N   0  0  0  0  0  0
  -26.2896  -12.9286   20.3225 N   0  0  0  0  0  0
  -25.9207  -11.6465   20.5671 N   0  0  0  0  0  0
  -22.0505  -12.8124   22.0492 N   0  0  0  0  0  0
  -25.4338  -15.1858   20.4204 N   0  0  0  0  0  0
  -31.8729  -14.6082   20.1362 O   0  0  0  0  0  0
  -21.6618   -6.8863   21.4242 O   0  0  0  0  0  0
  -22.3471  -14.5571   20.6893 O   0  0  0  0  0  0
  -24.6057  -31.8677   23.2092 C   0  0  0  0  0  0
  -25.8994  -32.4822   23.8367 C   0  0  1  0  0  0
  -27.2172  -27.4352   20.1206 C   0  0  0  0  0  0
  -25.5894  -33.8628   24.2361 N   0  0  0  0  0  0
  -23.3905  -30.4875   21.5520 C   0  0  2  0  0  0
  -24.8466  -28.9724   20.0983 C   0  0  0  0  0  0
  -22.7313  -29.4586   22.4999 C   0  0  0  0  0  0
  -18.0221  -28.1343   22.8567 C   0  0  0  0  0  0
  -24.1475  -36.7283   23.2664 C   0  0  0  0  0  0
  -25.9188  -30.8422   21.3617 C   0  0  0  0  0  0
  -26.0038  -29.4805   20.7034 C   0  0  0  0  0  0
  -27.1953  -28.7198   20.7163 C   0  0  0  0  0  0
  -26.0690  -26.9607   19.4562 C   0  0  0  0  0  0
  -24.8750  -27.7113   19.4697 C   0  0  0  0  0  0
  -23.6035  -29.8269   20.1625 C   0  0  0  0  0  0
  -25.4096  -36.3115   24.0362 C   0  0  1  0  0  0
  -20.5832  -28.3350   23.1256 C   0  0  2  0  0  0
  -20.6660  -26.9098   22.5332 C   0  0  0  0  0  0
  -19.5449  -26.6198   21.5233 C   0  0  0  0  0  0
  -18.1662  -26.7924   22.1580 C   0  0  0  0  0  0
  -19.1605  -28.8673   23.2907 C   0  0  0  0  0  0
  -18.9786  -30.1347   23.8831 C   0  0  0  0  0  0
  -17.6857  -30.6638   24.0553 C   0  0  0  0  0  0
  -25.9038  -34.9475   23.5166 C   0  0  0  0  0  0
  -16.5624  -29.9221   23.6515 C   0  0  0  0  0  0
  -16.7329  -28.6602   23.0630 C   0  0  0  0  0  0
  -26.4480  -31.6562   25.0679 C   0  0  0  0  0  0
  -25.3725  -31.3648   26.1418 C   0  0  0  0  0  0
  -27.0313  -30.3002   24.5965 C   0  0  0  0  0  0
  -27.6079  -32.4256   25.7432 C   0  0  0  0  0  0
  -27.5585  -37.1799   24.8487 C   0  0  0  0  0  0
  -21.4074  -29.2806   22.3726 N   0  0  0  0  0  0
  -26.4312  -37.3775   23.9432 N   0  0  0  0  0  0
  -24.6544  -31.0794   22.0999 N   0  0  0  0  0  0
  -23.4108  -28.8318   23.3148 O   0  0  0  0  0  0
  -28.2303  -26.5337   20.3744 O   0  0  0  0  0  0
  -26.5573  -34.8919   22.4721 O   0  0  0  0  0  0
  -23.5262  -32.1474   23.7462 O   0  0  0  0  0  0
  -28.0204  -18.7211   19.2724 C   0  0  0  0  0  0
  -28.3207  -17.5457   18.5624 C   0  0  0  0  0  0
  -28.4783  -18.8847   20.6002 C   0  0  0  0  0  0
  -29.4529  -16.5959   20.5192 C   0  0  0  0  0  0
  -29.0360  -16.5054   19.1702 C   0  0  0  0  0  0
  -29.1980  -17.8140   21.2155 C   0  0  0  0  0  0
  -27.8496  -17.3478   17.1406 C   0  0  0  0  0  0
  -30.0070  -24.4526   22.0268 C   0  0  0  0  0  0
  -28.1851  -24.6091   23.7336 C   0  0  0  0  0  0
  -25.9864  -21.0981   20.5501 C   0  0  0  0  0  0
  -28.2649  -20.2106   21.3577 C   0  0  0  0  0  0
  -27.7005  -23.4942   21.4665 C   0  0  0  0  0  0
  -27.3074  -22.2574   22.3391 C   0  0  0  0  0  0
  -28.0729  -26.0766   21.7408 C   0  0  0  0  0  0
  -28.4879  -24.6418   22.2040 C   0  0  0  0  0  0
  -30.1309  -15.5177   21.1823 N   0  0  0  0  0  0
  -27.0090  -20.9844   21.6256 N   0  3  1  0  0  0
  -29.3085  -15.4289   18.4139 F   0  0  0  0  0  0
  -29.7768  -18.0069   22.8326 Cl  0  0  0  0  0  0
  -31.4559  -12.3329   19.1971 H   0  0  0  0  0  0
  -30.2573  -11.2959   19.9112 H   0  0  0  0  0  0
  -29.7181  -11.5968   17.5250 H   0  0  0  0  0  0
  -29.7380  -13.3241   17.6764 H   0  0  0  0  0  0
  -27.7568  -11.3037   18.7772 H   0  0  0  0  0  0
  -27.3892  -12.6592   17.7553 H   0  0  0  0  0  0
  -27.6642  -14.2377   19.5437 H   0  0  0  0  0  0
  -28.6493  -12.0312   21.3884 H   0  0  0  0  0  0
  -28.4318  -13.7007   21.8280 H   0  0  0  0  0  0
  -25.2767   -9.5673   22.4628 H   0  0  0  0  0  0
  -24.0040   -7.4580   22.7354 H   0  0  0  0  0  0
  -21.0825   -8.8663   19.8883 H   0  0  0  0  0  0
  -22.3593  -10.9613   19.6079 H   0  0  0  0  0  0
  -21.1963   -7.6114   23.9753 H   0  0  0  0  0  0
  -21.1491   -6.0468   25.9108 H   0  0  0  0  0  0
  -22.0599   -2.7587   23.2861 H   0  0  0  0  0  0
  -22.4199  -11.9761   22.4762 H   0  0  0  0  0  0
  -21.1108  -13.1024   22.2820 H   0  0  0  0  0  0
  -24.6786  -15.8520   20.5396 H   0  0  0  0  0  0
  -26.2921  -15.6027   20.0877 H   0  0  0  0  0  0
  -26.7114  -32.5504   23.1186 H   0  0  0  0  0  0
  -25.0000  -33.9754   25.0470 H   0  0  0  0  0  0
  -22.6739  -31.3002   21.4219 H   0  0  0  0  0  0
  -23.3751  -35.9608   23.3323 H   0  0  0  0  0  0
  -24.3614  -36.8867   22.2089 H   0  0  0  0  0  0
  -23.7186  -37.6482   23.6639 H   0  0  0  0  0  0
  -26.0304  -31.6120   20.5991 H   0  0  0  0  0  0
  -26.8149  -30.8953   21.9712 H   0  0  0  0  0  0
  -28.0717  -29.0901   21.2321 H   0  0  0  0  0  0
  -26.0773  -25.9776   19.0025 H   0  0  0  0  0  0
  -23.9906  -27.3118   18.9974 H   0  0  0  0  0  0
  -23.7000  -30.6147   19.4142 H   0  0  0  0  0  0
  -22.7245  -29.2516   19.8618 H   0  0  0  0  0  0
  -25.1268  -36.2003   25.0850 H   0  0  0  0  0  0
  -20.9950  -28.2599   24.1339 H   0  0  0  0  0  0
  -20.5619  -26.1984   23.3521 H   0  0  0  0  0  0
  -21.6439  -26.7083   22.1011 H   0  0  0  0  0  0
  -19.6423  -25.6067   21.1268 H   0  0  0  0  0  0
  -19.6357  -27.2990   20.6738 H   0  0  0  0  0  0
  -17.3972  -26.6971   21.3842 H   0  0  0  0  0  0
  -17.9736  -25.9917   22.8772 H   0  0  0  0  0  0
  -19.8326  -30.7018   24.2209 H   0  0  0  0  0  0
  -17.5692  -31.6334   24.5104 H   0  0  0  0  0  0
  -15.5804  -30.3361   23.7955 H   0  0  0  0  0  0
  -15.8683  -28.0823   22.7596 H   0  0  0  0  0  0
  -24.5933  -30.6985   25.7762 H   0  0  0  0  0  0
  -24.8873  -32.2762   26.4856 H   0  0  0  0  0  0
  -25.8054  -30.8839   27.0167 H   0  0  0  0  0  0
  -26.2845  -29.6819   24.0969 H   0  0  0  0  0  0
  -27.4118  -29.7202   25.4384 H   0  0  0  0  0  0
  -27.8656  -30.4445   23.9099 H   0  0  0  0  0  0
  -27.2756  -33.3571   26.1987 H   0  0  0  0  0  0
  -28.3860  -32.6724   25.0228 H   0  0  0  0  0  0
  -28.0726  -31.8346   26.5318 H   0  0  0  0  0  0
  -28.2620  -38.0081   24.7529 H   0  0  0  0  0  0
  -28.1054  -36.2607   24.6302 H   0  0  0  0  0  0
  -27.2310  -37.1443   25.8897 H   0  0  0  0  0  0
  -20.9209  -29.8347   21.6770 H   0  0  0  0  0  0
  -26.0198  -38.2871   24.1390 H   0  0  0  0  0  0
  -27.4523  -19.4966   18.7746 H   0  0  0  0  0  0
  -27.0339  -16.6265   17.1305 H   0  0  0  0  0  0
  -28.6530  -16.9392   16.5263 H   0  0  0  0  0  0
  -27.5115  -18.2761   16.6945 H   0  0  0  0  0  0
  -30.3167  -23.4364   22.2595 H   0  0  0  0  0  0
  -30.5660  -25.1169   22.6888 H   0  0  0  0  0  0
  -30.3196  -24.6550   21.0029 H   0  0  0  0  0  0
  -27.1137  -24.6076   23.9422 H   0  0  0  0  0  0
  -28.5904  -25.4834   24.2471 H   0  0  0  0  0  0
  -28.6355  -23.7590   24.2413 H   0  0  0  0  0  0
  -26.3590  -21.5962   19.6510 H   0  0  0  0  0  0
  -25.1096  -21.6499   20.8908 H   0  0  0  0  0  0
  -25.6280  -20.1126   20.2395 H   0  0  0  0  0  0
  -27.4864  -19.5221   21.6841 H   0  0  0  0  0  0
  -28.4155  -20.7771   20.4386 H   0  0  0  0  0  0
  -26.8047  -23.8968   20.9927 H   0  0  0  0  0  0
  -28.3152  -23.1379   20.6370 H   0  0  0  0  0  0
  -26.4404  -22.5052   22.9550 H   0  0  0  0  0  0
  -28.1076  -22.0258   23.0374 H   0  0  0  0  0  0
  -28.6050  -26.8049   22.3622 H   0  0  0  0  0  0
  -27.0304  -26.1628   22.0499 H   0  0  0  0  0  0
  -30.6712  -15.8625   21.9632 H   0  0  0  0  0  0
  -26.5424  -20.4226   22.3285 H   0  0  0  0  0  0
  1 25  1  0  0  0
  1 30  2  0  0  0
  1 86  1  0  0  0
  2  3  1  0  0  0
  2 25  1  0  0  0
  2 90  1  0  0  0
  2 91  1  0  0  0
  3  4  1  0  0  0
  3 92  1  0  0  0
  3 93  1  0  0  0
  4  5  1  0  0  0
  4 94  1  0  0  0
  4 95  1  0  0  0
  5  6  1  0  0  0
  5 26  1  0  0  0
  5 96  1  0  0  0
  6 25  1  0  0  0
  6 97  1  0  0  0
  6 98  1  0  0  0
  7  8  2  0  0  0
  7 26  1  0  0  0
  7 29  1  0  0  0
  8  9  1  0  0  0
  8 22  1  0  0  0
  9 10  1  0  0  0
  9 27  2  0  0  0
 10 11  2  0  0  0
 10 15  1  0  0  0
 11 12  1  0  0  0
 11 99  1  0  0  0
 12 13  2  0  0  0
 12100  1  0  0  0
 13 14  1  0  0  0
 13 31  1  0  0  0
 14 15  2  0  0  0
 14101  1  0  0  0
 15102  1  0  0  0
 16 17  2  0  0  0
 16 21  1  0  0  0
 16 31  1  0  0  0
 17 18  1  0  0  0
 17103  1  0  0  0
 18 19  2  0  0  0
 18104  1  0  0  0
 19 20  1  0  0  0
 19 24  1  0  0  0
 20 21  2  0  0  0
 20105  1  0  0  0
 21 23  1  0  0  0
 22 28  1  0  0  0
 22 32  2  0  0  0
 26 27  1  0  0  0
 28106  1  0  0  0
 28107  1  0  0  0
 29108  1  0  0  0
 29109  1  0  0  0
 33 34  1  0  0  0
 33 66  1  0  0  0
 33 70  2  0  0  0
 34 36  1  0  0  0
 34 59  1  0  0  0
 34110  1  0  0  0
 35 44  2  0  0  0
 35 45  1  0  0  0
 35 68  1  0  0  0
 36 56  1  0  0  0
 36111  1  0  0  0
 37 39  1  0  0  0
 37 47  1  0  0  0
 37 66  1  0  0  0
 37112  1  0  0  0
 38 43  2  0  0  0
 38 46  1  0  0  0
 38 47  1  0  0  0
 39 64  1  0  0  0
 39 67  2  0  0  0
 40 52  1  0  0  0
 40 53  2  0  0  0
 40 58  1  0  0  0
 41113  1  0  0  0
 41114  1  0  0  0
 41115  1  0  0  0
 41 48  1  0  0  0
 42 43  1  0  0  0
 42 66  1  0  0  0
 42116  1  0  0  0
 42117  1  0  0  0
 43 44  1  0  0  0
 44118  1  0  0  0
 45 46  2  0  0  0
 45119  1  0  0  0
 46120  1  0  0  0
 47121  1  0  0  0
 47122  1  0  0  0
 48 56  1  0  0  0
 48 65  1  0  0  0
 48123  1  0  0  0
 49 50  1  0  0  0
 49 53  1  0  0  0
 49 64  1  0  0  0
 49124  1  0  0  0
 50 51  1  0  0  0
 50125  1  0  0  0
 50126  1  0  0  0
 51 52  1  0  0  0
 51127  1  0  0  0
 51128  1  0  0  0
 52129  1  0  0  0
 52130  1  0  0  0
 53 54  1  0  0  0
 54 55  2  0  0  0
 54131  1  0  0  0
 55 57  1  0  0  0
 55132  1  0  0  0
 56 69  2  0  0  0
 57 58  2  0  0  0
 57133  1  0  0  0
 58134  1  0  0  0
 59 60  1  0  0  0
 59 61  1  0  0  0
 59 62  1  0  0  0
 60135  1  0  0  0
 60136  1  0  0  0
 60137  1  0  0  0
 61138  1  0  0  0
 61139  1  0  0  0
 61140  1  0  0  0
 62141  1  0  0  0
 62142  1  0  0  0
 62143  1  0  0  0
 63 65  1  0  0  0
 63144  1  0  0  0
 63145  1  0  0  0
 63146  1  0  0  0
 64147  1  0  0  0
 65148  1  0  0  0
 68 84  1  0  0  0
 71 72  2  0  0  0
 71 73  1  0  0  0
 71149  1  0  0  0
 72 75  1  0  0  0
 72 77  1  0  0  0
 73 76  2  0  0  0
 73 81  1  0  0  0
 74 75  2  0  0  0
 74 76  1  0  0  0
 74 86  1  0  0  0
 75 88  1  0  0  0
 76 89  1  0  0  0
 77150  1  0  0  0
 77151  1  0  0  0
 77152  1  0  0  0
 78153  1  0  0  0
 78154  1  0  0  0
 78155  1  0  0  0
 78 85  1  0  0  0
 79 85  1  0  0  0
 79156  1  0  0  0
 79157  1  0  0  0
 79158  1  0  0  0
 80159  1  0  0  0
 80160  1  0  0  0
 80161  1  0  0  0
 80 87  1  0  0  0
 81 87  1  0  0  0
 81162  1  0  0  0
 81163  1  0  0  0
 82 83  1  0  0  0
 82 85  1  0  0  0
 82164  1  0  0  0
 82165  1  0  0  0
 83 87  1  0  0  0
 83166  1  0  0  0
 83167  1  0  0  0
 84 85  1  0  0  0
 84168  1  0  0  0
 84169  1  0  0  0
 86170  1  0  0  0
 87171  1  0  0  0
M  CHG  1  87   1
M  ISO  4   1 100  68 101  84 101  86 100
M  END
> <chiral flag>
0

> <version>
0

> <s_m_source_file>
/data/baiqing/PycharmProjects/Reinvent-master-3.2/result/LINK_invent/BTK/process_docking_weight1_custom_sum_contain_oxygen_bond_distance_aromatic_linkinvent_7_9_3/rearranged_h_0014.sdf

> <i_m_source_file_index>
49

> <r_mmod_Potential_Energy-OPLS-2005>
149.70036315918

> <r_mmod_Stretch_Energy-OPLS-2005>
49.2097053527832

> <r_mmod_Bend_Energy-OPLS-2005>
358.169006347656

> <r_mmod_Torsional_Energy-OPLS-2005>
316.384155273438

> <r_mmod_Improper_Torsional_Energy-OPLS-2005>
7.09855556488037

> <r_mmod_Van_der_Waal_Energy-OPLS-2005>
168.387771606445

> <r_mmod_Electrostatic_Energy-OPLS-2005>
-336.406768798828

> <r_mmod_Solvation_Energy-OPLS-2005>
-450.567962646484

> <b_mmod_Minimization_Converged-OPLS-2005>
0

> <r_mmod_RMS_Derivative-OPLS-2005>
12.5929355621338

$$$$
49
                    3D
 Structure written by MMmdl.
166173  0  0  1  0            999 V2000
  -30.6695  -14.4299   20.5341 C   0  0  0  0  0  0
  -30.4211  -12.2565   19.4283 C   0  0  0  0  0  0
  -29.5073  -12.4981   18.2068 C   0  0  0  0  0  0
  -28.0186  -12.3839   18.6054 C   0  0  0  0  0  0
  -27.6646  -13.1952   19.8817 C   0  0  2  0  0  0
  -28.7008  -12.9410   21.0024 C   0  0  0  0  0  0
  -25.2603  -13.8142   20.5685 C   0  0  0  0  0  0
  -24.1829  -13.0428   20.9139 C   0  0  0  0  0  0
  -24.6360  -11.6894   20.8695 C   0  0  0  0  0  0
  -23.9023  -10.4293   21.0398 C   0  0  0  0  0  0
  -24.3597   -9.4213   21.9168 C   0  0  0  0  0  0
  -23.6296   -8.2247   22.0743 C   0  0  0  0  0  0
  -22.4269   -8.0279   21.3542 C   0  0  0  0  0  0
  -21.9893   -9.0241   20.4643 C   0  0  0  0  0  0
  -22.7202  -10.2130   20.3050 C   0  0  0  0  0  0
  -21.6855   -6.0750   22.5276 C   0  0  0  0  0  0
  -21.4008   -6.5644   23.8204 C   0  0  0  0  0  0
  -21.3657   -5.6783   24.9165 C   0  0  0  0  0  0
  -21.6054   -4.3052   24.7217 C   0  0  0  0  0  0
  -21.8809   -3.8153   23.4319 C   0  0  0  0  0  0
  -21.9181   -4.6969   22.3387 C   0  0  0  0  0  0
  -22.7855  -13.5247   21.1827 C   0  0  0  0  0  0
  -22.1652   -4.2164   21.0970 F   0  0  0  0  0  0
  -21.5646   -3.4530   25.7725 F   0  0  0  0  0  0
  -30.0392  -13.2309   20.4594 N   0  0  0  0  0  0
  -26.3021  -12.9281   20.3345 N   0  0  0  0  0  0
  -25.9285  -11.6445   20.5723 N   0  0  0  0  0  0
  -22.0464  -12.8277   22.0385 N   0  0  0  0  0  0
  -25.4350  -15.1864   20.4225 N   0  0  0  0  0  0
  -31.8097  -14.6334   20.1076 O   0  0  0  0  0  0
  -21.6637   -6.8885   21.4239 O   0  0  0  0  0  0
  -22.3549  -14.5541   20.6644 O   0  0  0  0  0  0
  -24.6069  -31.8689   23.2125 C   0  0  0  0  0  0
  -25.8977  -32.4830   23.8398 C   0  0  1  0  0  0
  -27.2265  -27.4672   20.1080 C   0  0  0  0  0  0
  -25.5886  -33.8636   24.2337 N   0  0  0  0  0  0
  -23.3931  -30.4940   21.5499 C   0  0  2  0  0  0
  -24.8445  -28.9618   20.1109 C   0  0  0  0  0  0
  -22.7370  -29.4663   22.4961 C   0  0  0  0  0  0
  -18.0287  -28.1425   22.8504 C   0  0  0  0  0  0
  -24.1478  -36.7309   23.2644 C   0  0  0  0  0  0
  -25.9162  -30.8461   21.3613 C   0  0  0  0  0  0
  -25.9955  -29.4813   20.7146 C   0  0  0  0  0  0
  -27.1940  -28.7400   20.7171 C   0  0  0  0  0  0
  -26.0715  -26.9602   19.4851 C   0  0  0  0  0  0
  -24.8715  -27.6963   19.4962 C   0  0  0  0  0  0
  -23.6046  -29.8260   20.1631 C   0  0  0  0  0  0
  -25.4099  -36.3119   24.0359 C   0  0  1  0  0  0
  -20.5868  -28.3694   23.1336 C   0  0  2  0  0  0
  -20.6783  -26.9432   22.5438 C   0  0  0  0  0  0
  -19.5762  -26.6425   21.5241 C   0  0  0  0  0  0
  -18.1935  -26.7976   22.1644 C   0  0  0  0  0  0
  -19.1531  -28.8878   23.2917 C   0  0  0  0  0  0
  -18.9454  -30.1506   23.8907 C   0  0  0  0  0  0
  -17.6452  -30.6620   24.0617 C   0  0  0  0  0  0
  -25.9014  -34.9483   23.5140 C   0  0  0  0  0  0
  -16.5345  -29.9129   23.6360 C   0  0  0  0  0  0
  -16.7274  -28.6564   23.0348 C   0  0  0  0  0  0
  -26.4448  -31.6595   25.0700 C   0  0  0  0  0  0
  -25.3758  -31.3741   26.1487 C   0  0  0  0  0  0
  -27.0296  -30.3039   24.6075 C   0  0  0  0  0  0
  -27.6015  -32.4325   25.7471 C   0  0  0  0  0  0
  -27.5579  -37.1803   24.8470 C   0  0  0  0  0  0
  -21.4095  -29.3047   22.3719 N   0  0  0  0  0  0
  -26.4286  -37.3805   23.9424 N   0  0  0  0  0  0
  -24.6556  -31.0840   22.1008 N   0  0  0  0  0  0
  -23.4148  -28.8225   23.3013 O   0  0  0  0  0  0
  -28.3593  -26.6986   20.1351 O   0  0  0  0  0  0
  -26.5570  -34.8922   22.4699 O   0  0  0  0  0  0
  -23.5278  -32.1450   23.7545 O   0  0  0  0  0  0
  -27.2983  -24.8263   24.0972 C   0  0  0  0  0  0
  -28.9984  -17.7563   20.9592 C   0  0  0  0  0  0
  -27.4742  -24.1684   25.4692 C   0  0  0  0  0  0
  -29.4854  -16.6754   18.7326 C   0  0  0  0  0  0
  -28.5833  -20.4891   22.6692 C   0  0  0  0  0  0
  -27.8475  -21.7688   23.1159 C   0  0  0  0  0  0
  -28.3708  -20.1707   21.1756 C   0  0  0  0  0  0
  -28.7037  -23.0534   23.0078 C   0  0  0  0  0  0
  -27.6941  -24.8845   21.6667 C   0  0  0  0  0  0
  -28.6045  -26.1112   21.4168 C   0  0  0  0  0  0
  -29.9095  -16.7721   20.2147 C   0  0  2  0  0  0
  -29.1930  -19.0565   20.7055 N   0  0  0  0  0  0
  -29.8443  -15.4424   20.8214 N   0  0  0  0  0  0
  -27.8861  -24.2808   22.9991 N   0  0  0  0  0  0
  -26.6046  -25.8442   24.0415 O   0  0  0  0  0  0
  -28.1069  -17.3404   21.7048 O   0  0  0  0  0  0
  -31.4727  -12.3379   19.1445 H   0  0  0  0  0  0
  -30.2918  -11.2406   19.8040 H   0  0  0  0  0  0
  -29.7389  -11.7814   17.4150 H   0  0  0  0  0  0
  -29.7015  -13.4856   17.7833 H   0  0  0  0  0  0
  -27.8032  -11.3300   18.7734 H   0  0  0  0  0  0
  -27.3806  -12.6959   17.7747 H   0  0  0  0  0  0
  -27.7113  -14.2462   19.6044 H   0  0  0  0  0  0
  -28.6566  -11.9024   21.3324 H   0  0  0  0  0  0
  -28.4786  -13.5359   21.8893 H   0  0  0  0  0  0
  -25.2741   -9.5727   22.4712 H   0  0  0  0  0  0
  -24.0024   -7.4653   22.7456 H   0  0  0  0  0  0
  -21.0827   -8.8753   19.8947 H   0  0  0  0  0  0
  -22.3649  -10.9669   19.6164 H   0  0  0  0  0  0
  -21.2008   -7.6144   23.9714 H   0  0  0  0  0  0
  -21.1492   -6.0517   25.9071 H   0  0  0  0  0  0
  -22.0596   -2.7617   23.2803 H   0  0  0  0  0  0
  -22.4084  -11.9982   22.4851 H   0  0  0  0  0  0
  -21.1072  -13.1325   22.2545 H   0  0  0  0  0  0
  -24.6806  -15.8449   20.5790 H   0  0  0  0  0  0
  -26.3223  -15.6376   20.2339 H   0  0  0  0  0  0
  -26.7060  -32.5584   23.1182 H   0  0  0  0  0  0
  -25.0046  -33.9814   25.0503 H   0  0  0  0  0  0
  -22.6771  -31.3077   21.4144 H   0  0  0  0  0  0
  -23.3722  -35.9652   23.3321 H   0  0  0  0  0  0
  -24.3558  -36.8897   22.2042 H   0  0  0  0  0  0
  -23.7226  -37.6535   23.6630 H   0  0  0  0  0  0
  -26.0231  -31.6079   20.5889 H   0  0  0  0  0  0
  -26.8039  -30.9024   21.9786 H   0  0  0  0  0  0
  -28.0813  -29.1342   21.1939 H   0  0  0  0  0  0
  -26.0942  -25.9871   19.0143 H   0  0  0  0  0  0
  -23.9871  -27.2915   19.0224 H   0  0  0  0  0  0
  -23.7145  -30.5992   19.4034 H   0  0  0  0  0  0
  -22.7301  -29.2444   19.8662 H   0  0  0  0  0  0
  -25.1271  -36.1984   25.0855 H   0  0  0  0  0  0
  -21.0000  -28.3281   24.1441 H   0  0  0  0  0  0
  -20.5746  -26.2284   23.3609 H   0  0  0  0  0  0
  -21.6646  -26.7523   22.1203 H   0  0  0  0  0  0
  -19.6901  -25.6342   21.1260 H   0  0  0  0  0  0
  -19.6714  -27.3231   20.6761 H   0  0  0  0  0  0
  -17.4218  -26.6760   21.4027 H   0  0  0  0  0  0
  -18.0324  -26.0118   22.9033 H   0  0  0  0  0  0
  -19.7928  -30.7377   24.2196 H   0  0  0  0  0  0
  -17.5011  -31.6278   24.5259 H   0  0  0  0  0  0
  -15.5362  -30.3055   23.7669 H   0  0  0  0  0  0
  -15.8676  -28.0932   22.6988 H   0  0  0  0  0  0
  -24.5873  -30.7140   25.7862 H   0  0  0  0  0  0
  -24.9037  -32.2940   26.4950 H   0  0  0  0  0  0
  -25.8140  -30.8898   27.0230 H   0  0  0  0  0  0
  -26.2852  -29.6776   24.1126 H   0  0  0  0  0  0
  -27.4078  -29.7273   25.4541 H   0  0  0  0  0  0
  -27.8686  -30.4376   23.9231 H   0  0  0  0  0  0
  -27.2592  -33.3600   26.2090 H   0  0  0  0  0  0
  -28.3805  -32.6913   25.0286 H   0  0  0  0  0  0
  -28.0708  -31.8429   26.5380 H   0  0  0  0  0  0
  -28.2602  -38.0089   24.7517 H   0  0  0  0  0  0
  -28.1065  -36.2627   24.6291 H   0  0  0  0  0  0
  -27.2319  -37.1459   25.8879 H   0  0  0  0  0  0
  -20.9222  -29.8707   21.6898 H   0  0  0  0  0  0
  -26.0166  -38.2889   24.1417 H   0  0  0  0  0  0
  -28.5073  -23.8928   25.6715 H   0  0  0  0  0  0
  -26.8423  -23.2842   25.5575 H   0  0  0  0  0  0
  -27.1713  -24.8610   26.2549 H   0  0  0  0  0  0
  -29.5166  -17.6459   18.2365 H   0  0  0  0  0  0
  -28.4645  -16.2973   18.6430 H   0  0  0  0  0  0
  -30.1300  -16.0040   18.1664 H   0  0  0  0  0  0
  -28.2106  -19.6473   23.2550 H   0  0  0  0  0  0
  -29.6467  -20.5640   22.8970 H   0  0  0  0  0  0
  -27.5463  -21.6390   24.1534 H   0  0  0  0  0  0
  -26.9179  -21.8732   22.5558 H   0  0  0  0  0  0
  -28.6115  -21.0455   20.5695 H   0  0  0  0  0  0
  -27.3192  -19.9487   20.9862 H   0  0  0  0  0  0
  -29.3159  -23.0033   22.1056 H   0  0  0  0  0  0
  -29.4324  -23.0930   23.8205 H   0  0  0  0  0  0
  -27.8616  -24.1454   20.8817 H   0  0  0  0  0  0
  -26.6469  -25.1661   21.5569 H   0  0  0  0  0  0
  -29.6500  -25.8040   21.4467 H   0  0  0  0  0  0
  -28.4836  -26.8518   22.2098 H   0  0  0  0  0  0
  -30.9359  -17.1422   20.2775 H   0  0  0  0  0  0
  -29.9242  -19.2858   20.0431 H   0  0  0  0  0  0
  -28.9535  -15.2112   21.2373 H   0  0  0  0  0  0
  1 25  1  0  0  0
  1 30  2  0  0  0
  1 83  1  0  0  0
  2  3  1  0  0  0
  2 25  1  0  0  0
  2 87  1  0  0  0
  2 88  1  0  0  0
  3  4  1  0  0  0
  3 89  1  0  0  0
  3 90  1  0  0  0
  4  5  1  0  0  0
  4 91  1  0  0  0
  4 92  1  0  0  0
  5  6  1  0  0  0
  5 26  1  0  0  0
  5 93  1  0  0  0
  6 25  1  0  0  0
  6 94  1  0  0  0
  6 95  1  0  0  0
  7  8  2  0  0  0
  7 26  1  0  0  0
  7 29  1  0  0  0
  8  9  1  0  0  0
  8 22  1  0  0  0
  9 10  1  0  0  0
  9 27  2  0  0  0
 10 11  2  0  0  0
 10 15  1  0  0  0
 11 12  1  0  0  0
 11 96  1  0  0  0
 12 13  2  0  0  0
 12 97  1  0  0  0
 13 14  1  0  0  0
 13 31  1  0  0  0
 14 15  2  0  0  0
 14 98  1  0  0  0
 15 99  1  0  0  0
 16 17  2  0  0  0
 16 21  1  0  0  0
 16 31  1  0  0  0
 17 18  1  0  0  0
 17100  1  0  0  0
 18 19  2  0  0  0
 18101  1  0  0  0
 19 20  1  0  0  0
 19 24  1  0  0  0
 20 21  2  0  0  0
 20102  1  0  0  0
 21 23  1  0  0  0
 22 28  1  0  0  0
 22 32  2  0  0  0
 26 27  1  0  0  0
 28103  1  0  0  0
 28104  1  0  0  0
 29105  1  0  0  0
 29106  1  0  0  0
 33 34  1  0  0  0
 33 66  1  0  0  0
 33 70  2  0  0  0
 34 36  1  0  0  0
 34 59  1  0  0  0
 34107  1  0  0  0
 35 44  2  0  0  0
 35 45  1  0  0  0
 35 68  1  0  0  0
 36 56  1  0  0  0
 36108  1  0  0  0
 37 39  1  0  0  0
 37 47  1  0  0  0
 37 66  1  0  0  0
 37109  1  0  0  0
 38 43  2  0  0  0
 38 46  1  0  0  0
 38 47  1  0  0  0
 39 64  1  0  0  0
 39 67  2  0  0  0
 40 52  1  0  0  0
 40 53  2  0  0  0
 40 58  1  0  0  0
 41110  1  0  0  0
 41111  1  0  0  0
 41112  1  0  0  0
 41 48  1  0  0  0
 42 43  1  0  0  0
 42 66  1  0  0  0
 42113  1  0  0  0
 42114  1  0  0  0
 43 44  1  0  0  0
 44115  1  0  0  0
 45 46  2  0  0  0
 45116  1  0  0  0
 46117  1  0  0  0
 47118  1  0  0  0
 47119  1  0  0  0
 48 56  1  0  0  0
 48 65  1  0  0  0
 48120  1  0  0  0
 49 50  1  0  0  0
 49 53  1  0  0  0
 49 64  1  0  0  0
 49121  1  0  0  0
 50 51  1  0  0  0
 50122  1  0  0  0
 50123  1  0  0  0
 51 52  1  0  0  0
 51124  1  0  0  0
 51125  1  0  0  0
 52126  1  0  0  0
 52127  1  0  0  0
 53 54  1  0  0  0
 54 55  2  0  0  0
 54128  1  0  0  0
 55 57  1  0  0  0
 55129  1  0  0  0
 56 69  2  0  0  0
 57 58  2  0  0  0
 57130  1  0  0  0
 58131  1  0  0  0
 59 60  1  0  0  0
 59 61  1  0  0  0
 59 62  1  0  0  0
 60132  1  0  0  0
 60133  1  0  0  0
 60134  1  0  0  0
 61135  1  0  0  0
 61136  1  0  0  0
 61137  1  0  0  0
 62138  1  0  0  0
 62139  1  0  0  0
 62140  1  0  0  0
 63 65  1  0  0  0
 63141  1  0  0  0
 63142  1  0  0  0
 63143  1  0  0  0
 64144  1  0  0  0
 65145  1  0  0  0
 68 80  1  0  0  0
 71 73  1  0  0  0
 71 84  1  0  0  0
 71 85  2  0  0  0
 72 81  1  0  0  0
 72 82  1  0  0  0
 72 86  2  0  0  0
 73146  1  0  0  0
 73147  1  0  0  0
 73148  1  0  0  0
 74149  1  0  0  0
 74150  1  0  0  0
 74151  1  0  0  0
 74 81  1  0  0  0
 75 76  1  0  0  0
 75 77  1  0  0  0
 75152  1  0  0  0
 75153  1  0  0  0
 76 78  1  0  0  0
 76154  1  0  0  0
 76155  1  0  0  0
 77 82  1  0  0  0
 77156  1  0  0  0
 77157  1  0  0  0
 78 84  1  0  0  0
 78158  1  0  0  0
 78159  1  0  0  0
 79 80  1  0  0  0
 79 84  1  0  0  0
 79160  1  0  0  0
 79161  1  0  0  0
 80162  1  0  0  0
 80163  1  0  0  0
 81 83  1  0  0  0
 81164  1  0  0  0
 82165  1  0  0  0
 83166  1  0  0  0
M  ISO  4   1 100  68 101  80 101  83 100
M  END
> <chiral flag>
0

> <version>
0

> <s_m_source_file>
/data/baiqing/PycharmProjects/Reinvent-master-3.2/result/LINK_invent/BTK/process_docking_weight1_custom_sum_contain_oxygen_bond_distance_aromatic_linkinvent_7_9_3/rearranged_h_0014.sdf

> <i_m_source_file_index>
50

> <r_mmod_Potential_Energy-OPLS-2005>
-230.674835205078

> <r_mmod_Stretch_Energy-OPLS-2005>
34.1100463867188

> <r_mmod_Bend_Energy-OPLS-2005>
88.4664306640625

> <r_mmod_Torsional_Energy-OPLS-2005>
272.297424316406

> <r_mmod_Improper_Torsional_Energy-OPLS-2005>
9.13723087310791

> <r_mmod_Van_der_Waal_Energy-OPLS-2005>
133.743408203125

> <r_mmod_Electrostatic_Energy-OPLS-2005>
-533.224853515625

> <r_mmod_Solvation_Energy-OPLS-2005>
-247.177963256836

> <b_mmod_Minimization_Converged-OPLS-2005>
0

> <r_mmod_RMS_Derivative-OPLS-2005>
4.81039094924927

$$$$
50
                    3D
 Structure written by MMmdl.
158166  0  0  1  0            999 V2000
  -30.5268  -15.0102   20.3857 C   0  0  0  0  0  0
  -30.4382  -12.6265   19.5037 C   0  0  0  0  0  0
  -29.5222  -12.5342   18.2613 C   0  0  0  0  0  0
  -28.0592  -12.3086   18.6843 C   0  0  0  0  0  0
  -27.6258  -13.2547   19.8340 C   0  0  2  0  0  0
  -28.6677  -13.3179   20.9703 C   0  0  0  0  0  0
  -25.2452  -13.8232   20.5724 C   0  0  0  0  0  0
  -24.1778  -13.0447   20.9244 C   0  0  0  0  0  0
  -24.6400  -11.6933   20.8768 C   0  0  0  0  0  0
  -23.9087  -10.4299   21.0416 C   0  0  0  0  0  0
  -24.3633   -9.4208   21.9190 C   0  0  0  0  0  0
  -23.6304   -8.2244   22.0755 C   0  0  0  0  0  0
  -22.4284   -8.0287   21.3547 C   0  0  0  0  0  0
  -21.9927   -9.0262   20.4647 C   0  0  0  0  0  0
  -22.7260  -10.2140   20.3061 C   0  0  0  0  0  0
  -21.6855   -6.0740   22.5279 C   0  0  0  0  0  0
  -21.4014   -6.5642   23.8212 C   0  0  0  0  0  0
  -21.3660   -5.6794   24.9175 C   0  0  0  0  0  0
  -21.6045   -4.3057   24.7226 C   0  0  0  0  0  0
  -21.8818   -3.8149   23.4347 C   0  0  0  0  0  0
  -21.9193   -4.6966   22.3403 C   0  0  0  0  0  0
  -22.7796  -13.5211   21.1896 C   0  0  0  0  0  0
  -22.1662   -4.2150   21.0981 F   0  0  0  0  0  0
  -21.5629   -3.4541   25.7739 F   0  0  0  0  0  0
  -29.9353  -13.7418   20.3623 N   0  0  0  0  0  0
  -26.2875  -12.9472   20.3244 N   0  0  0  0  0  0
  -25.9332  -11.6596   20.5747 N   0  0  0  0  0  0
  -22.0450  -12.8191   22.0446 N   0  0  0  0  0  0
  -25.4115  -15.1961   20.4131 N   0  0  0  0  0  0
  -31.7468  -15.0296   20.1911 O   0  0  0  0  0  0
  -21.6646   -6.8885   21.4242 O   0  0  0  0  0  0
  -22.3475  -14.5514   20.6739 O   0  0  0  0  0  0
  -24.6484  -31.8400   23.1841 C   0  0  0  0  0  0
  -25.9238  -32.4675   23.8247 C   0  0  1  0  0  0
  -27.2119  -27.0826   20.1665 C   0  0  0  0  0  0
  -25.5964  -33.8482   24.2163 N   0  0  0  0  0  0
  -23.4549  -30.4573   21.5312 C   0  0  2  0  0  0
  -24.9035  -28.8735   20.1136 C   0  0  0  0  0  0
  -22.7593  -29.4523   22.4847 C   0  0  0  0  0  0
  -18.0307  -28.1393   22.8471 C   0  0  0  0  0  0
  -24.1493  -36.7245   23.2646 C   0  0  0  0  0  0
  -26.0137  -30.6968   21.3907 C   0  0  0  0  0  0
  -26.0833  -29.3014   20.7361 C   0  0  0  0  0  0
  -27.2389  -28.4243   20.7412 C   0  0  0  0  0  0
  -26.0084  -26.7723   19.4969 C   0  0  0  0  0  0
  -24.8817  -27.6240   19.4764 C   0  0  0  0  0  0
  -23.6844  -29.7843   20.1521 C   0  0  0  0  0  0
  -25.4127  -36.3021   24.0314 C   0  0  1  0  0  0
  -20.5923  -28.3729   23.1218 C   0  0  2  0  0  0
  -20.6794  -26.9428   22.5395 C   0  0  0  0  0  0
  -19.5770  -26.6378   21.5204 C   0  0  0  0  0  0
  -18.1949  -26.7931   22.1614 C   0  0  0  0  0  0
  -19.1564  -28.8877   23.2836 C   0  0  0  0  0  0
  -18.9485  -30.1470   23.8867 C   0  0  0  0  0  0
  -17.6485  -30.6593   24.0550 C   0  0  0  0  0  0
  -25.9082  -34.9397   23.5052 C   0  0  0  0  0  0
  -16.5373  -29.9085   23.6336 C   0  0  0  0  0  0
  -16.7291  -28.6502   23.0357 C   0  0  0  0  0  0
  -26.4538  -31.6560   25.0709 C   0  0  0  0  0  0
  -25.3701  -31.3756   26.1391 C   0  0  0  0  0  0
  -27.0424  -30.2956   24.6321 C   0  0  0  0  0  0
  -27.6060  -32.4335   25.7499 C   0  0  0  0  0  0
  -27.5575  -37.1781   24.8467 C   0  0  0  0  0  0
  -21.4278  -29.3050   22.3590 N   0  0  0  0  0  0
  -26.4286  -37.3738   23.9410 N   0  0  0  0  0  0
  -24.7258  -31.0208   22.0899 N   0  0  0  0  0  0
  -23.4210  -28.8076   23.3022 O   0  0  0  0  0  0
  -28.2555  -26.0711   20.2030 O   0  0  0  0  0  0
  -26.5674  -34.8903   22.4636 O   0  0  0  0  0  0
  -23.5592  -32.1292   23.7035 O   0  0  0  0  0  0
  -30.2710  -20.4973   19.1146 C   0  0  0  0  0  0
  -30.9099  -19.3956   18.5030 C   0  0  0  0  0  0
  -29.2032  -18.9298   20.6267 C   0  0  0  0  0  0
  -29.3584  -20.3729   20.1769 C   0  0  0  0  0  0
  -29.9122  -17.7213   20.0613 C   0  0  0  0  0  0
  -30.7166  -18.0514   18.9270 C   0  0  0  0  0  0
  -31.8144  -19.6899   17.3146 C   0  0  0  0  0  0
  -28.1985  -18.6217   21.7258 C   0  0  0  0  0  0
  -28.4253  -21.6543   22.0731 C   0  0  0  0  0  0
  -28.9708  -23.1595   20.1155 C   0  0  0  0  0  0
  -27.9740  -24.5275   20.4193 C   0  0  0  0  0  0
  -29.7460  -16.2184   20.4790 N   0  0  0  0  0  0
  -28.7413  -21.6755   20.6476 N   0  0  0  0  0  0
  -31.4037  -16.8273   17.9083 Cl  0  0  0  0  0  0
  -31.4696  -12.7882   19.1874 H   0  0  0  0  0  0
  -30.4413  -11.6852   20.0551 H   0  0  0  0  0  0
  -29.8514  -11.7276   17.6049 H   0  0  0  0  0  0
  -29.5980  -13.4549   17.6803 H   0  0  0  0  0  0
  -27.9708  -11.2718   19.0115 H   0  0  0  0  0  0
  -27.3917  -12.4157   17.8287 H   0  0  0  0  0  0
  -27.5788  -14.2487   19.3877 H   0  0  0  0  0  0
  -28.7699  -12.3526   21.4686 H   0  0  0  0  0  0
  -28.3582  -14.0308   21.7359 H   0  0  0  0  0  0
  -25.2774   -9.5682   22.4771 H   0  0  0  0  0  0
  -24.0009   -7.4635   22.7474 H   0  0  0  0  0  0
  -21.0858   -8.8788   19.8952 H   0  0  0  0  0  0
  -22.3721  -10.9683   19.6174 H   0  0  0  0  0  0
  -21.2006   -7.6149   23.9717 H   0  0  0  0  0  0
  -21.1484   -6.0525   25.9078 H   0  0  0  0  0  0
  -22.0595   -2.7611   23.2848 H   0  0  0  0  0  0
  -22.4076  -11.9850   22.4823 H   0  0  0  0  0  0
  -21.1062  -13.1198   22.2659 H   0  0  0  0  0  0
  -24.6373  -15.8430   20.5148 H   0  0  0  0  0  0
  -26.2433  -15.6321   20.0380 H   0  0  0  0  0  0
  -26.7305  -32.5261   23.0973 H   0  0  0  0  0  0
  -25.0078  -33.9581   25.0289 H   0  0  0  0  0  0
  -22.7601  -31.2849   21.3741 H   0  0  0  0  0  0
  -23.3765  -35.9569   23.3292 H   0  0  0  0  0  0
  -24.3575  -36.8896   22.2064 H   0  0  0  0  0  0
  -23.7236  -37.6430   23.6697 H   0  0  0  0  0  0
  -26.1741  -31.4474   20.6156 H   0  0  0  0  0  0
  -26.8822  -30.7496   22.0355 H   0  0  0  0  0  0
  -28.1385  -28.7497   21.2447 H   0  0  0  0  0  0
  -25.9095  -25.8273   18.9850 H   0  0  0  0  0  0
  -23.9847  -27.2934   18.9703 H   0  0  0  0  0  0
  -23.8289  -30.5581   19.3973 H   0  0  0  0  0  0
  -22.7972  -29.2315   19.8384 H   0  0  0  0  0  0
  -25.1315  -36.1847   25.0804 H   0  0  0  0  0  0
  -21.0004  -28.3326   24.1342 H   0  0  0  0  0  0
  -20.5687  -26.2343   23.3620 H   0  0  0  0  0  0
  -21.6661  -26.7429   22.1195 H   0  0  0  0  0  0
  -19.6934  -25.6280   21.1254 H   0  0  0  0  0  0
  -19.6709  -27.3171   20.6721 H   0  0  0  0  0  0
  -17.4215  -26.6666   21.4018 H   0  0  0  0  0  0
  -18.0352  -26.0076   22.9014 H   0  0  0  0  0  0
  -19.7966  -30.7281   24.2230 H   0  0  0  0  0  0
  -17.5044  -31.6271   24.5160 H   0  0  0  0  0  0
  -15.5373  -30.2981   23.7680 H   0  0  0  0  0  0
  -15.8688  -28.0811   22.7095 H   0  0  0  0  0  0
  -24.5899  -30.7090   25.7699 H   0  0  0  0  0  0
  -24.8868  -32.2937   26.4739 H   0  0  0  0  0  0
  -25.7964  -30.8975   27.0219 H   0  0  0  0  0  0
  -26.3058  -29.6655   24.1326 H   0  0  0  0  0  0
  -27.4027  -29.7284   25.4913 H   0  0  0  0  0  0
  -27.8962  -30.4195   23.9659 H   0  0  0  0  0  0
  -27.2657  -33.3670   26.1992 H   0  0  0  0  0  0
  -28.3910  -32.6838   25.0350 H   0  0  0  0  0  0
  -28.0681  -31.8511   26.5478 H   0  0  0  0  0  0
  -28.2583  -38.0089   24.7518 H   0  0  0  0  0  0
  -28.1080  -36.2614   24.6292 H   0  0  0  0  0  0
  -27.2288  -37.1420   25.8870 H   0  0  0  0  0  0
  -20.9503  -29.8769   21.6762 H   0  0  0  0  0  0
  -26.0152  -38.2804   24.1418 H   0  0  0  0  0  0
  -30.4835  -21.4779   18.7181 H   0  0  0  0  0  0
  -31.9406  -20.7603   17.1494 H   0  0  0  0  0  0
  -31.3975  -19.2632   16.4017 H   0  0  0  0  0  0
  -32.8061  -19.2653   17.4729 H   0  0  0  0  0  0
  -27.2724  -19.1703   21.5606 H   0  0  0  0  0  0
  -28.6010  -18.8816   22.7038 H   0  0  0  0  0  0
  -27.9270  -17.5678   21.7554 H   0  0  0  0  0  0
  -29.1391  -21.0495   22.6338 H   0  0  0  0  0  0
  -27.4200  -21.2712   22.2487 H   0  0  0  0  0  0
  -28.4677  -22.6509   22.5118 H   0  0  0  0  0  0
  -29.9716  -23.4317   20.4515 H   0  0  0  0  0  0
  -29.0518  -23.0938   19.0305 H   0  0  0  0  0  0
  -27.7211  -24.4820   21.4778 H   0  0  0  0  0  0
  -27.0356  -24.2927   19.9220 H   0  0  0  0  0  0
  -28.8216  -16.0150   20.8245 H   0  0  0  0  0  0
  1 25  1  0  0  0
  1 30  2  0  0  0
  1 82  1  0  0  0
  2  3  1  0  0  0
  2 25  1  0  0  0
  2 85  1  0  0  0
  2 86  1  0  0  0
  3  4  1  0  0  0
  3 87  1  0  0  0
  3 88  1  0  0  0
  4  5  1  0  0  0
  4 89  1  0  0  0
  4 90  1  0  0  0
  5  6  1  0  0  0
  5 26  1  0  0  0
  5 91  1  0  0  0
  6 25  1  0  0  0
  6 92  1  0  0  0
  6 93  1  0  0  0
  7  8  2  0  0  0
  7 26  1  0  0  0
  7 29  1  0  0  0
  8  9  1  0  0  0
  8 22  1  0  0  0
  9 10  1  0  0  0
  9 27  2  0  0  0
 10 11  2  0  0  0
 10 15  1  0  0  0
 11 12  1  0  0  0
 11 94  1  0  0  0
 12 13  2  0  0  0
 12 95  1  0  0  0
 13 14  1  0  0  0
 13 31  1  0  0  0
 14 15  2  0  0  0
 14 96  1  0  0  0
 15 97  1  0  0  0
 16 17  2  0  0  0
 16 21  1  0  0  0
 16 31  1  0  0  0
 17 18  1  0  0  0
 17 98  1  0  0  0
 18 19  2  0  0  0
 18 99  1  0  0  0
 19 20  1  0  0  0
 19 24  1  0  0  0
 20 21  2  0  0  0
 20100  1  0  0  0
 21 23  1  0  0  0
 22 28  1  0  0  0
 22 32  2  0  0  0
 26 27  1  0  0  0
 28101  1  0  0  0
 28102  1  0  0  0
 29103  1  0  0  0
 29104  1  0  0  0
 33 34  1  0  0  0
 33 66  1  0  0  0
 33 70  2  0  0  0
 34 36  1  0  0  0
 34 59  1  0  0  0
 34105  1  0  0  0
 35 44  2  0  0  0
 35 45  1  0  0  0
 35 68  1  0  0  0
 36 56  1  0  0  0
 36106  1  0  0  0
 37 39  1  0  0  0
 37 47  1  0  0  0
 37 66  1  0  0  0
 37107  1  0  0  0
 38 43  2  0  0  0
 38 46  1  0  0  0
 38 47  1  0  0  0
 39 64  1  0  0  0
 39 67  2  0  0  0
 40 52  1  0  0  0
 40 53  2  0  0  0
 40 58  1  0  0  0
 41108  1  0  0  0
 41109  1  0  0  0
 41110  1  0  0  0
 41 48  1  0  0  0
 42 43  1  0  0  0
 42 66  1  0  0  0
 42111  1  0  0  0
 42112  1  0  0  0
 43 44  1  0  0  0
 44113  1  0  0  0
 45 46  2  0  0  0
 45114  1  0  0  0
 46115  1  0  0  0
 47116  1  0  0  0
 47117  1  0  0  0
 48 56  1  0  0  0
 48 65  1  0  0  0
 48118  1  0  0  0
 49 50  1  0  0  0
 49 53  1  0  0  0
 49 64  1  0  0  0
 49119  1  0  0  0
 50 51  1  0  0  0
 50120  1  0  0  0
 50121  1  0  0  0
 51 52  1  0  0  0
 51122  1  0  0  0
 51123  1  0  0  0
 52124  1  0  0  0
 52125  1  0  0  0
 53 54  1  0  0  0
 54 55  2  0  0  0
 54126  1  0  0  0
 55 57  1  0  0  0
 55127  1  0  0  0
 56 69  2  0  0  0
 57 58  2  0  0  0
 57128  1  0  0  0
 58129  1  0  0  0
 59 60  1  0  0  0
 59 61  1  0  0  0
 59 62  1  0  0  0
 60130  1  0  0  0
 60131  1  0  0  0
 60132  1  0  0  0
 61133  1  0  0  0
 61134  1  0  0  0
 61135  1  0  0  0
 62136  1  0  0  0
 62137  1  0  0  0
 62138  1  0  0  0
 63 65  1  0  0  0
 63139  1  0  0  0
 63140  1  0  0  0
 63141  1  0  0  0
 64142  1  0  0  0
 65143  1  0  0  0
 68 81  1  0  0  0
 71 72  2  0  0  0
 71 74  1  0  0  0
 71144  1  0  0  0
 72 76  1  0  0  0
 72 77  1  0  0  0
 73 74  2  0  0  0
 73 75  1  0  0  0
 73 78  1  0  0  0
 74 83  1  0  0  0
 75 76  2  0  0  0
 75 82  1  0  0  0
 76 84  1  0  0  0
 77145  1  0  0  0
 77146  1  0  0  0
 77147  1  0  0  0
 78148  1  0  0  0
 78149  1  0  0  0
 78150  1  0  0  0
 79 83  1  0  0  0
 79151  1  0  0  0
 79152  1  0  0  0
 79153  1  0  0  0
 80 81  1  0  0  0
 80 83  1  0  0  0
 80154  1  0  0  0
 80155  1  0  0  0
 81156  1  0  0  0
 81157  1  0  0  0
 82158  1  0  0  0
M  ISO  4   1 100  68 101  81 101  82 100
M  END
> <chiral flag>
0

> <version>
0

> <s_m_source_file>
/data/baiqing/PycharmProjects/Reinvent-master-3.2/result/LINK_invent/BTK/process_docking_weight1_custom_sum_contain_oxygen_bond_distance_aromatic_linkinvent_7_9_3/rearranged_h_0014.sdf

> <i_m_source_file_index>
51

> <r_mmod_Potential_Energy-OPLS-2005>
641.806518554688

> <r_mmod_Stretch_Energy-OPLS-2005>
335.779357910156

> <r_mmod_Bend_Energy-OPLS-2005>
286.351104736328

> <r_mmod_Torsional_Energy-OPLS-2005>
231.914306640625

> <r_mmod_Improper_Torsional_Energy-OPLS-2005>
6.19643402099609

> <r_mmod_Van_der_Waal_Energy-OPLS-2005>
149.637985229492

> <r_mmod_Electrostatic_Energy-OPLS-2005>
-375.617980957031

> <r_mmod_Solvation_Energy-OPLS-2005>
-231.321578979492

> <b_mmod_Minimization_Converged-OPLS-2005>
0

> <r_mmod_RMS_Derivative-OPLS-2005>
0.795424461364746

$$$$
51
                    3D
 Structure written by MMmdl.
157165  0  0  1  0            999 V2000
  -30.6207  -14.6511   20.5134 C   0  0  0  0  0  0
  -30.4439  -12.4020   19.4591 C   0  0  0  0  0  0
  -29.5143  -12.5061   18.2295 C   0  0  0  0  0  0
  -28.0367  -12.3412   18.6384 C   0  0  0  0  0  0
  -27.6553  -13.2158   19.8625 C   0  0  2  0  0  0
  -28.6981  -13.0752   20.9944 C   0  0  0  0  0  0
  -25.2578  -13.8174   20.5675 C   0  0  0  0  0  0
  -24.1842  -13.0444   20.9190 C   0  0  0  0  0  0
  -24.6401  -11.6913   20.8733 C   0  0  0  0  0  0
  -23.9064  -10.4299   21.0401 C   0  0  0  0  0  0
  -24.3615   -9.4214   21.9177 C   0  0  0  0  0  0
  -23.6288   -8.2251   22.0751 C   0  0  0  0  0  0
  -22.4267   -8.0290   21.3547 C   0  0  0  0  0  0
  -21.9896   -9.0269   20.4653 C   0  0  0  0  0  0
  -22.7231  -10.2145   20.3057 C   0  0  0  0  0  0
  -21.6856   -6.0737   22.5277 C   0  0  0  0  0  0
  -21.4024   -6.5639   23.8210 C   0  0  0  0  0  0
  -21.3656   -5.6788   24.9170 C   0  0  0  0  0  0
  -21.6037   -4.3051   24.7218 C   0  0  0  0  0  0
  -21.8821   -3.8148   23.4340 C   0  0  0  0  0  0
  -21.9196   -4.6966   22.3398 C   0  0  0  0  0  0
  -22.7861  -13.5244   21.1850 C   0  0  0  0  0  0
  -22.1659   -4.2155   21.0973 F   0  0  0  0  0  0
  -21.5620   -3.4533   25.7731 F   0  0  0  0  0  0
  -30.0141  -13.4240   20.4339 N   0  0  0  0  0  0
  -26.3000  -12.9348   20.3301 N   0  0  0  0  0  0
  -25.9328  -11.6503   20.5742 N   0  0  0  0  0  0
  -22.0498  -12.8260   22.0418 N   0  0  0  0  0  0
  -25.4296  -15.1891   20.4078 N   0  0  0  0  0  0
  -31.7794  -14.8225   20.1217 O   0  0  0  0  0  0
  -21.6638   -6.8885   21.4242 O   0  0  0  0  0  0
  -22.3545  -14.5543   20.6685 O   0  0  0  0  0  0
  -24.6273  -31.8596   23.2023 C   0  0  0  0  0  0
  -25.9121  -32.4771   23.8348 C   0  0  1  0  0  0
  -27.2247  -27.3117   20.1225 C   0  0  0  0  0  0
  -25.5939  -33.8573   24.2280 N   0  0  0  0  0  0
  -23.4211  -30.4823   21.5455 C   0  0  2  0  0  0
  -24.8693  -28.9372   20.1129 C   0  0  0  0  0  0
  -22.7475  -29.4614   22.4935 C   0  0  0  0  0  0
  -18.0294  -28.1384   22.8477 C   0  0  0  0  0  0
  -24.1487  -36.7285   23.2623 C   0  0  0  0  0  0
  -25.9634  -30.7865   21.3775 C   0  0  0  0  0  0
  -26.0379  -29.4130   20.7208 C   0  0  0  0  0  0
  -27.2193  -28.6119   20.7175 C   0  0  0  0  0  0
  -26.0385  -26.8978   19.4766 C   0  0  0  0  0  0
  -24.8716  -27.6843   19.4814 C   0  0  0  0  0  0
  -23.6376  -29.8178   20.1608 C   0  0  0  0  0  0
  -25.4099  -36.3069   24.0326 C   0  0  1  0  0  0
  -20.5891  -28.3688   23.1284 C   0  0  2  0  0  0
  -20.6780  -26.9405   22.5422 C   0  0  0  0  0  0
  -19.5762  -26.6377   21.5214 C   0  0  0  0  0  0
  -18.1936  -26.7933   22.1613 C   0  0  0  0  0  0
  -19.1544  -28.8856   23.2879 C   0  0  0  0  0  0
  -18.9466  -30.1457   23.8890 C   0  0  0  0  0  0
  -17.6463  -30.6580   24.0567 C   0  0  0  0  0  0
  -25.9056  -34.9444   23.5100 C   0  0  0  0  0  0
  -16.5355  -29.9075   23.6327 C   0  0  0  0  0  0
  -16.7279  -28.6504   23.0334 C   0  0  0  0  0  0
  -26.4495  -31.6578   25.0721 C   0  0  0  0  0  0
  -25.3731  -31.3751   26.1459 C   0  0  0  0  0  0
  -27.0311  -30.2982   24.6193 C   0  0  0  0  0  0
  -27.6071  -32.4298   25.7471 C   0  0  0  0  0  0
  -27.5605  -37.1743   24.8420 C   0  0  0  0  0  0
  -21.4191  -29.3034   22.3665 N   0  0  0  0  0  0
  -26.4257  -37.3788   23.9456 N   0  0  0  0  0  0
  -24.6888  -31.0597   22.0980 N   0  0  0  0  0  0
  -23.4195  -28.8152   23.3018 O   0  0  0  0  0  0
  -28.3355  -26.4530   20.1500 O   0  0  0  0  0  0
  -26.5621  -34.8918   22.4667 O   0  0  0  0  0  0
  -23.5432  -32.1400   23.7344 O   0  0  0  0  0  0
  -30.6164  -17.9949   21.5724 C   0  0  0  0  0  0
  -30.5969  -19.4171   21.4103 C   0  0  0  0  0  0
  -29.8936  -20.0479   20.3359 C   0  0  0  0  0  0
  -29.1681  -19.1682   19.4734 C   0  0  0  0  0  0
  -29.9335  -17.1240   20.6875 C   0  0  0  0  0  0
  -29.1852  -17.7463   19.6561 C   0  0  0  0  0  0
  -29.2125  -23.9928   20.1043 C   0  0  0  0  0  0
  -31.3709  -20.2526   22.4171 C   0  0  0  0  0  0
  -28.3794  -19.7363   18.3034 C   0  0  0  0  0  0
  -30.0803  -21.5881   20.0010 C   0  0  0  0  0  0
  -28.0891  -25.0273   20.5104 C   0  0  0  0  0  0
  -29.8258  -15.6856   20.9216 N   0  0  0  0  0  0
  -29.0864  -22.6501   20.3867 N   0  0  0  0  0  0
  -30.2104  -24.4121   19.5124 O   0  0  0  0  0  0
  -28.4653  -16.9559   18.8219 F   0  0  0  0  0  0
  -31.4847  -12.5341   19.1568 H   0  0  0  0  0  0
  -30.3872  -11.4094   19.9074 H   0  0  0  0  0  0
  -29.7834  -11.7500   17.4909 H   0  0  0  0  0  0
  -29.6576  -13.4731   17.7445 H   0  0  0  0  0  0
  -27.8772  -11.2887   18.8755 H   0  0  0  0  0  0
  -27.3845  -12.5648   17.7936 H   0  0  0  0  0  0
  -27.6747  -14.2499   19.5183 H   0  0  0  0  0  0
  -28.7141  -12.0544   21.3768 H   0  0  0  0  0  0
  -28.4352  -13.7034   21.8478 H   0  0  0  0  0  0
  -25.2763   -9.5684   22.4750 H   0  0  0  0  0  0
  -24.0002   -7.4636   22.7462 H   0  0  0  0  0  0
  -21.0824   -8.8789   19.8962 H   0  0  0  0  0  0
  -22.3686  -10.9681   19.6167 H   0  0  0  0  0  0
  -21.2026   -7.6148   23.9715 H   0  0  0  0  0  0
  -21.1466   -6.0516   25.9070 H   0  0  0  0  0  0
  -22.0603   -2.7610   23.2840 H   0  0  0  0  0  0
  -22.4097  -11.9926   22.4829 H   0  0  0  0  0  0
  -21.1118  -13.1301   22.2605 H   0  0  0  0  0  0
  -24.6612  -15.8418   20.5176 H   0  0  0  0  0  0
  -26.2660  -15.6245   20.0393 H   0  0  0  0  0  0
  -26.7185  -32.5442   23.1091 H   0  0  0  0  0  0
  -25.0097  -33.9712   25.0431 H   0  0  0  0  0  0
  -22.7151  -31.3029   21.4022 H   0  0  0  0  0  0
  -23.3782  -35.9577   23.3184 H   0  0  0  0  0  0
  -24.3624  -36.9015   22.2064 H   0  0  0  0  0  0
  -23.7183  -37.6427   23.6718 H   0  0  0  0  0  0
  -26.0985  -31.5501   20.6103 H   0  0  0  0  0  0
  -26.8421  -30.8336   22.0089 H   0  0  0  0  0  0
  -28.1143  -28.9710   21.2057 H   0  0  0  0  0  0
  -25.9940  -25.9541   18.9538 H   0  0  0  0  0  0
  -23.9799  -27.3187   18.9909 H   0  0  0  0  0  0
  -23.7593  -30.5951   19.4055 H   0  0  0  0  0  0
  -22.7579  -29.2486   19.8555 H   0  0  0  0  0  0
  -25.1257  -36.1888   25.0809 H   0  0  0  0  0  0
  -20.9989  -28.3279   24.1404 H   0  0  0  0  0  0
  -20.5673  -26.2292   23.3624 H   0  0  0  0  0  0
  -21.6654  -26.7428   22.1227 H   0  0  0  0  0  0
  -19.6920  -25.6287   21.1246 H   0  0  0  0  0  0
  -19.6707  -27.3186   20.6745 H   0  0  0  0  0  0
  -17.4210  -26.6692   21.4006 H   0  0  0  0  0  0
  -18.0322  -26.0076   22.9009 H   0  0  0  0  0  0
  -19.7940  -30.7283   24.2250 H   0  0  0  0  0  0
  -17.5012  -31.6255   24.5177 H   0  0  0  0  0  0
  -15.5351  -30.2965   23.7658 H   0  0  0  0  0  0
  -15.8688  -28.0820   22.7033 H   0  0  0  0  0  0
  -24.5906  -30.7078   25.7823 H   0  0  0  0  0  0
  -24.8921  -32.2934   26.4842 H   0  0  0  0  0  0
  -25.8064  -30.8974   27.0257 H   0  0  0  0  0  0
  -26.2874  -29.6744   24.1221 H   0  0  0  0  0  0
  -27.3985  -29.7228   25.4701 H   0  0  0  0  0  0
  -27.8764  -30.4229   23.9421 H   0  0  0  0  0  0
  -27.2701  -33.3599   26.2061 H   0  0  0  0  0  0
  -28.3865  -32.6857   25.0279 H   0  0  0  0  0  0
  -28.0761  -31.8420   26.5373 H   0  0  0  0  0  0
  -28.2473  -38.0184   24.7693 H   0  0  0  0  0  0
  -28.1248  -36.2745   24.5928 H   0  0  0  0  0  0
  -27.2392  -37.1008   25.8824 H   0  0  0  0  0  0
  -20.9365  -29.8746   21.6867 H   0  0  0  0  0  0
  -26.0126  -38.2820   24.1615 H   0  0  0  0  0  0
  -31.1546  -17.5655   22.4059 H   0  0  0  0  0  0
  -31.5689  -19.6902   23.3301 H   0  0  0  0  0  0
  -30.8081  -21.1421   22.7025 H   0  0  0  0  0  0
  -32.3301  -20.5652   22.0035 H   0  0  0  0  0  0
  -27.9188  -20.6903   18.5593 H   0  0  0  0  0  0
  -27.5765  -19.0655   17.9966 H   0  0  0  0  0  0
  -29.0356  -19.8899   17.4467 H   0  0  0  0  0  0
  -30.2070  -21.6576   18.9195 H   0  0  0  0  0  0
  -31.0501  -21.9037   20.3859 H   0  0  0  0  0  0
  -27.9656  -24.9770   21.5926 H   0  0  0  0  0  0
  -27.1640  -24.6394   20.0905 H   0  0  0  0  0  0
  -28.8967  -15.3783   21.1640 H   0  0  0  0  0  0
  -28.2605  -22.3498   20.8862 H   0  0  0  0  0  0
  1 25  1  0  0  0
  1 30  2  0  0  0
  1 82  1  0  0  0
  2  3  1  0  0  0
  2 25  1  0  0  0
  2 86  1  0  0  0
  2 87  1  0  0  0
  3  4  1  0  0  0
  3 88  1  0  0  0
  3 89  1  0  0  0
  4  5  1  0  0  0
  4 90  1  0  0  0
  4 91  1  0  0  0
  5  6  1  0  0  0
  5 26  1  0  0  0
  5 92  1  0  0  0
  6 25  1  0  0  0
  6 93  1  0  0  0
  6 94  1  0  0  0
  7  8  2  0  0  0
  7 26  1  0  0  0
  7 29  1  0  0  0
  8  9  1  0  0  0
  8 22  1  0  0  0
  9 10  1  0  0  0
  9 27  2  0  0  0
 10 11  2  0  0  0
 10 15  1  0  0  0
 11 12  1  0  0  0
 11 95  1  0  0  0
 12 13  2  0  0  0
 12 96  1  0  0  0
 13 14  1  0  0  0
 13 31  1  0  0  0
 14 15  2  0  0  0
 14 97  1  0  0  0
 15 98  1  0  0  0
 16 17  2  0  0  0
 16 21  1  0  0  0
 16 31  1  0  0  0
 17 18  1  0  0  0
 17 99  1  0  0  0
 18 19  2  0  0  0
 18100  1  0  0  0
 19 20  1  0  0  0
 19 24  1  0  0  0
 20 21  2  0  0  0
 20101  1  0  0  0
 21 23  1  0  0  0
 22 28  1  0  0  0
 22 32  2  0  0  0
 26 27  1  0  0  0
 28102  1  0  0  0
 28103  1  0  0  0
 29104  1  0  0  0
 29105  1  0  0  0
 33 34  1  0  0  0
 33 66  1  0  0  0
 33 70  2  0  0  0
 34 36  1  0  0  0
 34 59  1  0  0  0
 34106  1  0  0  0
 35 44  2  0  0  0
 35 45  1  0  0  0
 35 68  1  0  0  0
 36 56  1  0  0  0
 36107  1  0  0  0
 37 39  1  0  0  0
 37 47  1  0  0  0
 37 66  1  0  0  0
 37108  1  0  0  0
 38 43  2  0  0  0
 38 46  1  0  0  0
 38 47  1  0  0  0
 39 64  1  0  0  0
 39 67  2  0  0  0
 40 52  1  0  0  0
 40 53  2  0  0  0
 40 58  1  0  0  0
 41109  1  0  0  0
 41110  1  0  0  0
 41111  1  0  0  0
 41 48  1  0  0  0
 42 43  1  0  0  0
 42 66  1  0  0  0
 42112  1  0  0  0
 42113  1  0  0  0
 43 44  1  0  0  0
 44114  1  0  0  0
 45 46  2  0  0  0
 45115  1  0  0  0
 46116  1  0  0  0
 47117  1  0  0  0
 47118  1  0  0  0
 48 56  1  0  0  0
 48 65  1  0  0  0
 48119  1  0  0  0
 49 50  1  0  0  0
 49 53  1  0  0  0
 49 64  1  0  0  0
 49120  1  0  0  0
 50 51  1  0  0  0
 50121  1  0  0  0
 50122  1  0  0  0
 51 52  1  0  0  0
 51123  1  0  0  0
 51124  1  0  0  0
 52125  1  0  0  0
 52126  1  0  0  0
 53 54  1  0  0  0
 54 55  2  0  0  0
 54127  1  0  0  0
 55 57  1  0  0  0
 55128  1  0  0  0
 56 69  2  0  0  0
 57 58  2  0  0  0
 57129  1  0  0  0
 58130  1  0  0  0
 59 60  1  0  0  0
 59 61  1  0  0  0
 59 62  1  0  0  0
 60131  1  0  0  0
 60132  1  0  0  0
 60133  1  0  0  0
 61134  1  0  0  0
 61135  1  0  0  0
 61136  1  0  0  0
 62137  1  0  0  0
 62138  1  0  0  0
 62139  1  0  0  0
 63 65  1  0  0  0
 63140  1  0  0  0
 63141  1  0  0  0
 63142  1  0  0  0
 64143  1  0  0  0
 65144  1  0  0  0
 68 81  1  0  0  0
 71 72  2  0  0  0
 71 75  1  0  0  0
 71145  1  0  0  0
 72 73  1  0  0  0
 72 78  1  0  0  0
 73 74  2  0  0  0
 73 80  1  0  0  0
 74 76  1  0  0  0
 74 79  1  0  0  0
 75 76  2  0  0  0
 75 82  1  0  0  0
 76 85  1  0  0  0
 77 81  1  0  0  0
 77 83  1  0  0  0
 77 84  2  0  0  0
 78146  1  0  0  0
 78147  1  0  0  0
 78148  1  0  0  0
 79149  1  0  0  0
 79150  1  0  0  0
 79151  1  0  0  0
 80 83  1  0  0  0
 80152  1  0  0  0
 80153  1  0  0  0
 81154  1  0  0  0
 81155  1  0  0  0
 82156  1  0  0  0
 83157  1  0  0  0
M  ISO  4   1 100  68 101  81 101  82 100
M  END
> <chiral flag>
0

> <version>
0

> <s_m_source_file>
/data/baiqing/PycharmProjects/Reinvent-master-3.2/result/LINK_invent/BTK/process_docking_weight1_custom_sum_contain_oxygen_bond_distance_aromatic_linkinvent_7_9_3/rearranged_h_0014.sdf

> <i_m_source_file_index>
52

> <r_mmod_Potential_Energy-OPLS-2005>
-6.81197595596313

> <r_mmod_Stretch_Energy-OPLS-2005>
83.3400726318359

> <r_mmod_Bend_Energy-OPLS-2005>
129.801895141602

> <r_mmod_Torsional_Energy-OPLS-2005>
256.388916015625

> <r_mmod_Improper_Torsional_Energy-OPLS-2005>
6.04524374008179

> <r_mmod_Van_der_Waal_Energy-OPLS-2005>
142.33740234375

> <r_mmod_Electrostatic_Energy-OPLS-2005>
-440.555023193359

> <r_mmod_Solvation_Energy-OPLS-2005>
-236.345718383789

> <b_mmod_Minimization_Converged-OPLS-2005>
0

> <r_mmod_RMS_Derivative-OPLS-2005>
1.31759190559387

$$$$
52
                    3D
 Structure written by MMmdl.
172180  0  0  1  0            999 V2000
  -30.7855  -14.4433   20.5416 C   0  0  0  0  0  0
  -30.4005  -12.2722   19.4495 C   0  0  0  0  0  0
  -29.4991  -12.4736   18.2146 C   0  0  0  0  0  0
  -28.0148  -12.3426   18.6096 C   0  0  0  0  0  0
  -27.6508  -13.1957   19.8528 C   0  0  2  0  0  0
  -28.6925  -13.0118   20.9770 C   0  0  0  0  0  0
  -25.2587  -13.8102   20.5739 C   0  0  0  0  0  0
  -24.1832  -13.0390   20.9223 C   0  0  0  0  0  0
  -24.6370  -11.6864   20.8731 C   0  0  0  0  0  0
  -23.9038  -10.4274   21.0410 C   0  0  0  0  0  0
  -24.3615   -9.4199   21.9182 C   0  0  0  0  0  0
  -23.6296   -8.2231   22.0759 C   0  0  0  0  0  0
  -22.4261   -8.0273   21.3555 C   0  0  0  0  0  0
  -21.9881   -9.0254   20.4669 C   0  0  0  0  0  0
  -22.7204  -10.2136   20.3086 C   0  0  0  0  0  0
  -21.6848   -6.0727   22.5276 C   0  0  0  0  0  0
  -21.3999   -6.5644   23.8211 C   0  0  0  0  0  0
  -21.3682   -5.6807   24.9184 C   0  0  0  0  0  0
  -21.6077   -4.3067   24.7244 C   0  0  0  0  0  0
  -21.8813   -3.8143   23.4372 C   0  0  0  0  0  0
  -21.9189   -4.6951   22.3415 C   0  0  0  0  0  0
  -22.7859  -13.5212   21.1856 C   0  0  0  0  0  0
  -22.1659   -4.2127   21.0999 F   0  0  0  0  0  0
  -21.5656   -3.4565   25.7770 F   0  0  0  0  0  0
  -30.0352  -13.3008   20.4417 N   0  0  0  0  0  0
  -26.2968  -12.9229   20.3248 N   0  0  0  0  0  0
  -25.9271  -11.6411   20.5692 N   0  0  0  0  0  0
  -22.0456  -12.8226   22.0395 N   0  0  0  0  0  0
  -25.4371  -15.1799   20.4311 N   0  0  0  0  0  0
  -31.9287  -14.4563   20.0778 O   0  0  0  0  0  0
  -21.6639   -6.8862   21.4236 O   0  0  0  0  0  0
  -22.3571  -14.5506   20.6673 O   0  0  0  0  0  0
  -24.6066  -31.8706   23.2152 C   0  0  0  0  0  0
  -25.8975  -32.4838   23.8429 C   0  0  1  0  0  0
  -27.2452  -27.4980   20.0779 C   0  0  0  0  0  0
  -25.5848  -33.8641   24.2354 N   0  0  0  0  0  0
  -23.3949  -30.4931   21.5544 C   0  0  2  0  0  0
  -24.8443  -28.9641   20.1182 C   0  0  0  0  0  0
  -22.7379  -29.4659   22.5016 C   0  0  0  0  0  0
  -18.0266  -28.1380   22.8456 C   0  0  0  0  0  0
  -24.1498  -36.7344   23.2633 C   0  0  0  0  0  0
  -25.9172  -30.8517   21.3630 C   0  0  0  0  0  0
  -25.9983  -29.4890   20.7161 C   0  0  0  0  0  0
  -27.2023  -28.7571   20.7051 C   0  0  0  0  0  0
  -26.0851  -26.9821   19.4634 C   0  0  0  0  0  0
  -24.8773  -27.7035   19.4954 C   0  0  0  0  0  0
  -23.6028  -29.8238   20.1695 C   0  0  0  0  0  0
  -25.4106  -36.3130   24.0346 C   0  0  1  0  0  0
  -20.5846  -28.3657   23.1339 C   0  0  2  0  0  0
  -20.6762  -26.9405   22.5418 C   0  0  0  0  0  0
  -19.5770  -26.6405   21.5184 C   0  0  0  0  0  0
  -18.1937  -26.7925   22.1591 C   0  0  0  0  0  0
  -19.1505  -28.8828   23.2898 C   0  0  0  0  0  0
  -18.9428  -30.1416   23.8931 C   0  0  0  0  0  0
  -17.6430  -30.6562   24.0568 C   0  0  0  0  0  0
  -25.9016  -34.9486   23.5148 C   0  0  0  0  0  0
  -16.5330  -29.9071   23.6295 C   0  0  0  0  0  0
  -16.7254  -28.6501   23.0297 C   0  0  0  0  0  0
  -26.4439  -31.6597   25.0722 C   0  0  0  0  0  0
  -25.3735  -31.3693   26.1489 C   0  0  0  0  0  0
  -27.0249  -30.3048   24.6047 C   0  0  0  0  0  0
  -27.6052  -32.4291   25.7461 C   0  0  0  0  0  0
  -27.5597  -37.1818   24.8463 C   0  0  0  0  0  0
  -21.4108  -29.3031   22.3757 N   0  0  0  0  0  0
  -26.4307  -37.3800   23.9415 N   0  0  0  0  0  0
  -24.6579  -31.0832   22.1042 N   0  0  0  0  0  0
  -23.4172  -28.8178   23.3019 O   0  0  0  0  0  0
  -28.4226  -26.8035   20.0159 O   0  0  0  0  0  0
  -26.5594  -34.8918   22.4711 O   0  0  0  0  0  0
  -23.5263  -32.1432   23.7564 O   0  0  0  0  0  0
  -27.8992  -20.6107   19.8701 C   0  0  0  0  0  0
  -26.4353  -21.3186   22.1638 C   0  0  0  0  0  0
  -27.9408  -19.7814   21.0095 C   0  0  0  0  0  0
  -26.4027  -22.1566   21.0263 C   0  0  0  0  0  0
  -27.1032  -21.7670   19.8597 C   0  0  0  0  0  0
  -27.1864  -20.1291   22.1506 C   0  0  0  0  0  0
  -29.3500  -16.4079   19.8946 C   0  0  0  0  0  0
  -29.5670  -15.7172   22.4333 C   0  0  0  0  0  0
  -31.5006  -16.7742   21.2254 C   0  0  0  0  0  0
  -24.3819  -23.3388   21.5788 C   0  0  0  0  0  0
  -27.3713  -17.6418   19.1755 C   0  0  0  0  0  0
  -28.8380  -18.5526   21.0171 C   0  0  0  0  0  0
  -27.9648  -24.6084   20.9199 C   0  0  0  0  0  0
  -26.5793  -24.4868   21.5967 C   0  0  0  0  0  0
  -28.6745  -25.9514   21.1265 C   0  0  0  0  0  0
  -30.2603  -15.8390   21.0502 C   0  0  0  0  0  0
  -25.7474  -23.4016   21.0643 N   0  0  0  0  0  0
  -28.4897  -17.4366   20.1142 N   0  0  0  0  0  0
  -29.3843  -15.9026   18.7656 O   0  0  0  0  0  0
  -27.0456  -22.5134   18.7295 F   0  0  0  0  0  0
  -27.2042  -19.3402   23.2514 F   0  0  0  0  0  0
  -31.4519  -12.2929   19.1604 H   0  0  0  0  0  0
  -30.2462  -11.2770   19.8686 H   0  0  0  0  0  0
  -29.7487  -11.7373   17.4484 H   0  0  0  0  0  0
  -29.6819  -13.4528   17.7679 H   0  0  0  0  0  0
  -27.8241  -11.2891   18.8163 H   0  0  0  0  0  0
  -27.3733  -12.6015   17.7673 H   0  0  0  0  0  0
  -27.6638  -14.2322   19.5325 H   0  0  0  0  0  0
  -28.6702  -11.9797   21.3328 H   0  0  0  0  0  0
  -28.4108  -13.5946   21.8440 H   0  0  0  0  0  0
  -25.2765   -9.5700   22.4730 H   0  0  0  0  0  0
  -24.0031   -7.4632   22.7474 H   0  0  0  0  0  0
  -21.0805   -8.8802   19.8974 H   0  0  0  0  0  0
  -22.3653  -10.9696   19.6229 H   0  0  0  0  0  0
  -21.1960   -7.6137   23.9708 H   0  0  0  0  0  0
  -21.1524   -6.0538   25.9093 H   0  0  0  0  0  0
  -22.0559   -2.7592   23.2901 H   0  0  0  0  0  0
  -22.3968  -11.9846   22.4800 H   0  0  0  0  0  0
  -21.1056  -13.1269   22.2499 H   0  0  0  0  0  0
  -24.6984  -15.8484   20.6204 H   0  0  0  0  0  0
  -26.2959  -15.6116   20.1227 H   0  0  0  0  0  0
  -26.7042  -32.5592   23.1201 H   0  0  0  0  0  0
  -24.9966  -33.9835   25.0473 H   0  0  0  0  0  0
  -22.6819  -31.3087   21.4151 H   0  0  0  0  0  0
  -23.3740  -35.9699   23.3302 H   0  0  0  0  0  0
  -24.3602  -36.8941   22.2047 H   0  0  0  0  0  0
  -23.7276  -37.6564   23.6634 H   0  0  0  0  0  0
  -26.0172  -31.6190   20.5949 H   0  0  0  0  0  0
  -26.8093  -30.9115   21.9742 H   0  0  0  0  0  0
  -28.0982  -29.1593   21.1559 H   0  0  0  0  0  0
  -26.1166  -26.0195   18.9716 H   0  0  0  0  0  0
  -23.9922  -27.2991   19.0244 H   0  0  0  0  0  0
  -23.7030  -30.5982   19.4086 H   0  0  0  0  0  0
  -22.7331  -29.2349   19.8765 H   0  0  0  0  0  0
  -25.1278  -36.2007   25.0843 H   0  0  0  0  0  0
  -20.9935  -28.3220   24.1461 H   0  0  0  0  0  0
  -20.5636  -26.2254   23.3580 H   0  0  0  0  0  0
  -21.6647  -26.7451   22.1241 H   0  0  0  0  0  0
  -19.6962  -25.6334   21.1170 H   0  0  0  0  0  0
  -19.6743  -27.3250   20.6743 H   0  0  0  0  0  0
  -17.4220  -26.6630   21.3990 H   0  0  0  0  0  0
  -18.0360  -26.0076   22.8998 H   0  0  0  0  0  0
  -19.7896  -30.7194   24.2378 H   0  0  0  0  0  0
  -17.4977  -31.6240   24.5171 H   0  0  0  0  0  0
  -15.5325  -30.2970   23.7587 H   0  0  0  0  0  0
  -15.8663  -28.0817   22.6984 H   0  0  0  0  0  0
  -24.5903  -30.7037   25.7838 H   0  0  0  0  0  0
  -24.8921  -32.2844   26.4953 H   0  0  0  0  0  0
  -25.8096  -30.8857   27.0237 H   0  0  0  0  0  0
  -26.2800  -29.6860   24.1022 H   0  0  0  0  0  0
  -27.3961  -29.7212   25.4479 H   0  0  0  0  0  0
  -27.8659  -30.4389   23.9239 H   0  0  0  0  0  0
  -27.2710  -33.3571   26.2110 H   0  0  0  0  0  0
  -28.3815  -32.6866   25.0246 H   0  0  0  0  0  0
  -28.0770  -31.8358   26.5300 H   0  0  0  0  0  0
  -28.2599  -38.0125   24.7493 H   0  0  0  0  0  0
  -28.1100  -36.2649   24.6290 H   0  0  0  0  0  0
  -27.2325  -37.1480   25.8867 H   0  0  0  0  0  0
  -20.9238  -29.8775   21.7021 H   0  0  0  0  0  0
  -26.0196  -38.2891   24.1370 H   0  0  0  0  0  0
  -28.4813  -20.3667   18.9955 H   0  0  0  0  0  0
  -25.9035  -21.5932   23.0608 H   0  0  0  0  0  0
  -29.8587  -16.5146   23.1150 H   0  0  0  0  0  0
  -29.8504  -14.8014   22.9512 H   0  0  0  0  0  0
  -28.4793  -15.7519   22.3570 H   0  0  0  0  0  0
  -31.2767  -17.7011   21.7452 H   0  0  0  0  0  0
  -31.9533  -17.0437   20.2684 H   0  0  0  0  0  0
  -32.2791  -16.2911   21.8198 H   0  0  0  0  0  0
  -23.9040  -22.3912   21.3225 H   0  0  0  0  0  0
  -23.7795  -24.1384   21.1462 H   0  0  0  0  0  0
  -24.3584  -23.4481   22.6656 H   0  0  0  0  0  0
  -26.5000  -18.0696   19.6734 H   0  0  0  0  0  0
  -27.0272  -16.7173   18.7113 H   0  0  0  0  0  0
  -27.6715  -18.3031   18.3631 H   0  0  0  0  0  0
  -28.9472  -18.2121   22.0420 H   0  0  0  0  0  0
  -29.8149  -18.9279   20.7087 H   0  0  0  0  0  0
  -27.8859  -24.4464   19.8463 H   0  0  0  0  0  0
  -28.6159  -23.8197   21.2971 H   0  0  0  0  0  0
  -26.0215  -25.4172   21.4955 H   0  0  0  0  0  0
  -26.7160  -24.3511   22.6701 H   0  0  0  0  0  0
  -29.7512  -25.7787   21.1474 H   0  0  0  0  0  0
  -28.4186  -26.4149   22.0799 H   0  0  0  0  0  0
  1 25  1  0  0  0
  1 30  2  0  0  0
  1 86  1  0  0  0
  2  3  1  0  0  0
  2 25  1  0  0  0
  2 92  1  0  0  0
  2 93  1  0  0  0
  3  4  1  0  0  0
  3 94  1  0  0  0
  3 95  1  0  0  0
  4  5  1  0  0  0
  4 96  1  0  0  0
  4 97  1  0  0  0
  5  6  1  0  0  0
  5 26  1  0  0  0
  5 98  1  0  0  0
  6 25  1  0  0  0
  6 99  1  0  0  0
  6100  1  0  0  0
  7  8  2  0  0  0
  7 26  1  0  0  0
  7 29  1  0  0  0
  8  9  1  0  0  0
  8 22  1  0  0  0
  9 10  1  0  0  0
  9 27  2  0  0  0
 10 11  2  0  0  0
 10 15  1  0  0  0
 11 12  1  0  0  0
 11101  1  0  0  0
 12 13  2  0  0  0
 12102  1  0  0  0
 13 14  1  0  0  0
 13 31  1  0  0  0
 14 15  2  0  0  0
 14103  1  0  0  0
 15104  1  0  0  0
 16 17  2  0  0  0
 16 21  1  0  0  0
 16 31  1  0  0  0
 17 18  1  0  0  0
 17105  1  0  0  0
 18 19  2  0  0  0
 18106  1  0  0  0
 19 20  1  0  0  0
 19 24  1  0  0  0
 20 21  2  0  0  0
 20107  1  0  0  0
 21 23  1  0  0  0
 22 28  1  0  0  0
 22 32  2  0  0  0
 26 27  1  0  0  0
 28108  1  0  0  0
 28109  1  0  0  0
 29110  1  0  0  0
 29111  1  0  0  0
 33 34  1  0  0  0
 33 66  1  0  0  0
 33 70  2  0  0  0
 34 36  1  0  0  0
 34 59  1  0  0  0
 34112  1  0  0  0
 35 44  2  0  0  0
 35 45  1  0  0  0
 35 68  1  0  0  0
 36 56  1  0  0  0
 36113  1  0  0  0
 37 39  1  0  0  0
 37 47  1  0  0  0
 37 66  1  0  0  0
 37114  1  0  0  0
 38 43  2  0  0  0
 38 46  1  0  0  0
 38 47  1  0  0  0
 39 64  1  0  0  0
 39 67  2  0  0  0
 40 52  1  0  0  0
 40 53  2  0  0  0
 40 58  1  0  0  0
 41115  1  0  0  0
 41116  1  0  0  0
 41117  1  0  0  0
 41 48  1  0  0  0
 42 43  1  0  0  0
 42 66  1  0  0  0
 42118  1  0  0  0
 42119  1  0  0  0
 43 44  1  0  0  0
 44120  1  0  0  0
 45 46  2  0  0  0
 45121  1  0  0  0
 46122  1  0  0  0
 47123  1  0  0  0
 47124  1  0  0  0
 48 56  1  0  0  0
 48 65  1  0  0  0
 48125  1  0  0  0
 49 50  1  0  0  0
 49 53  1  0  0  0
 49 64  1  0  0  0
 49126  1  0  0  0
 50 51  1  0  0  0
 50127  1  0  0  0
 50128  1  0  0  0
 51 52  1  0  0  0
 51129  1  0  0  0
 51130  1  0  0  0
 52131  1  0  0  0
 52132  1  0  0  0
 53 54  1  0  0  0
 54 55  2  0  0  0
 54133  1  0  0  0
 55 57  1  0  0  0
 55134  1  0  0  0
 56 69  2  0  0  0
 57 58  2  0  0  0
 57135  1  0  0  0
 58136  1  0  0  0
 59 60  1  0  0  0
 59 61  1  0  0  0
 59 62  1  0  0  0
 60137  1  0  0  0
 60138  1  0  0  0
 60139  1  0  0  0
 61140  1  0  0  0
 61141  1  0  0  0
 61142  1  0  0  0
 62143  1  0  0  0
 62144  1  0  0  0
 62145  1  0  0  0
 63 65  1  0  0  0
 63146  1  0  0  0
 63147  1  0  0  0
 63148  1  0  0  0
 64149  1  0  0  0
 65150  1  0  0  0
 68 85  1  0  0  0
 71 73  2  0  0  0
 71 75  1  0  0  0
 71151  1  0  0  0
 72 74  1  0  0  0
 72 76  2  0  0  0
 72152  1  0  0  0
 73 76  1  0  0  0
 73 82  1  0  0  0
 74 75  2  0  0  0
 74 87  1  0  0  0
 75 90  1  0  0  0
 76 91  1  0  0  0
 77 86  1  0  0  0
 77 88  1  0  0  0
 77 89  2  0  0  0
 78153  1  0  0  0
 78154  1  0  0  0
 78155  1  0  0  0
 78 86  1  0  0  0
 79 86  1  0  0  0
 79156  1  0  0  0
 79157  1  0  0  0
 79158  1  0  0  0
 80 87  1  0  0  0
 80159  1  0  0  0
 80160  1  0  0  0
 80161  1  0  0  0
 81 88  1  0  0  0
 81162  1  0  0  0
 81163  1  0  0  0
 81164  1  0  0  0
 82 88  1  0  0  0
 82165  1  0  0  0
 82166  1  0  0  0
 83 84  1  0  0  0
 83 85  1  0  0  0
 83167  1  0  0  0
 83168  1  0  0  0
 84 87  1  0  0  0
 84169  1  0  0  0
 84170  1  0  0  0
 85171  1  0  0  0
 85172  1  0  0  0
M  ISO  4   1 100  68 101  85 101  86 100
M  END
> <chiral flag>
0

> <version>
0

> <s_m_source_file>
/data/baiqing/PycharmProjects/Reinvent-master-3.2/result/LINK_invent/BTK/process_docking_weight1_custom_sum_contain_oxygen_bond_distance_aromatic_linkinvent_7_9_3/rearranged_h_0014.sdf

> <i_m_source_file_index>
53

> <r_mmod_Potential_Energy-OPLS-2005>
200.055297851562

> <r_mmod_Stretch_Energy-OPLS-2005>
45.7776107788086

> <r_mmod_Bend_Energy-OPLS-2005>
118.152145385742

> <r_mmod_Torsional_Energy-OPLS-2005>
283.179016113281

> <r_mmod_Improper_Torsional_Energy-OPLS-2005>
8.50479984283447

> <r_mmod_Van_der_Waal_Energy-OPLS-2005>
191.724029541016

> <r_mmod_Electrostatic_Energy-OPLS-2005>
-262.906646728516

> <r_mmod_Solvation_Energy-OPLS-2005>
-202.644653320312

> <b_mmod_Minimization_Converged-OPLS-2005>
0

> <r_mmod_RMS_Derivative-OPLS-2005>
3.04377913475037

$$$$
53
                    3D
 Structure written by MMmdl.
152160  0  0  1  0            999 V2000
  -30.5397  -15.0038   20.4234 C   0  0  0  0  0  0
  -30.4337  -12.6265   19.5061 C   0  0  0  0  0  0
  -29.5210  -12.5431   18.2610 C   0  0  0  0  0  0
  -28.0537  -12.3262   18.6744 C   0  0  0  0  0  0
  -27.6241  -13.2594   19.8371 C   0  0  2  0  0  0
  -28.6660  -13.3144   20.9748 C   0  0  0  0  0  0
  -25.2430  -13.8232   20.5724 C   0  0  0  0  0  0
  -24.1763  -13.0440   20.9237 C   0  0  0  0  0  0
  -24.6393  -11.6932   20.8747 C   0  0  0  0  0  0
  -23.9082  -10.4296   21.0397 C   0  0  0  0  0  0
  -24.3632   -9.4209   21.9176 C   0  0  0  0  0  0
  -23.6305   -8.2244   22.0748 C   0  0  0  0  0  0
  -22.4285   -8.0281   21.3540 C   0  0  0  0  0  0
  -21.9923   -9.0253   20.4640 C   0  0  0  0  0  0
  -22.7254  -10.2130   20.3047 C   0  0  0  0  0  0
  -21.6855   -6.0734   22.5277 C   0  0  0  0  0  0
  -21.4018   -6.5639   23.8209 C   0  0  0  0  0  0
  -21.3662   -5.6791   24.9170 C   0  0  0  0  0  0
  -21.6042   -4.3054   24.7220 C   0  0  0  0  0  0
  -21.8821   -3.8146   23.4343 C   0  0  0  0  0  0
  -21.9196   -4.6963   22.3399 C   0  0  0  0  0  0
  -22.7779  -13.5197   21.1894 C   0  0  0  0  0  0
  -22.1663   -4.2148   21.0976 F   0  0  0  0  0  0
  -21.5629   -3.4539   25.7734 F   0  0  0  0  0  0
  -29.9347  -13.7415   20.3699 N   0  0  0  0  0  0
  -26.2859  -12.9488   20.3248 N   0  0  0  0  0  0
  -25.9328  -11.6603   20.5732 N   0  0  0  0  0  0
  -22.0442  -12.8168   22.0447 N   0  0  0  0  0  0
  -25.4060  -15.1966   20.4158 N   0  0  0  0  0  0
  -31.7414  -15.0209   20.1417 O   0  0  0  0  0  0
  -21.6645   -6.8877   21.4240 O   0  0  0  0  0  0
  -22.3452  -14.5495   20.6736 O   0  0  0  0  0  0
  -24.6473  -31.8392   23.1817 C   0  0  0  0  0  0
  -25.9222  -32.4673   23.8224 C   0  0  1  0  0  0
  -27.2212  -27.0901   20.1691 C   0  0  0  0  0  0
  -25.5956  -33.8478   24.2149 N   0  0  0  0  0  0
  -23.4543  -30.4559   21.5285 C   0  0  2  0  0  0
  -24.9074  -28.8740   20.1104 C   0  0  0  0  0  0
  -22.7594  -29.4515   22.4829 C   0  0  0  0  0  0
  -18.0312  -28.1415   22.8477 C   0  0  0  0  0  0
  -24.1491  -36.7235   23.2643 C   0  0  0  0  0  0
  -26.0124  -30.7018   21.3859 C   0  0  0  0  0  0
  -26.0854  -29.3069   20.7321 C   0  0  0  0  0  0
  -27.2425  -28.4330   20.7398 C   0  0  0  0  0  0
  -26.0166  -26.7692   19.5064 C   0  0  0  0  0  0
  -24.8887  -27.6209   19.4797 C   0  0  0  0  0  0
  -23.6849  -29.7801   20.1499 C   0  0  0  0  0  0
  -25.4124  -36.3007   24.0309 C   0  0  1  0  0  0
  -20.5929  -28.3728   23.1238 C   0  0  2  0  0  0
  -20.6799  -26.9427   22.5416 C   0  0  0  0  0  0
  -19.5767  -26.6384   21.5230 C   0  0  0  0  0  0
  -18.1945  -26.7952   22.1627 C   0  0  0  0  0  0
  -19.1571  -28.8891   23.2849 C   0  0  0  0  0  0
  -18.9480  -30.1493   23.8861 C   0  0  0  0  0  0
  -17.6476  -30.6602   24.0569 C   0  0  0  0  0  0
  -25.9077  -34.9392   23.5036 C   0  0  0  0  0  0
  -16.5368  -29.9093   23.6350 C   0  0  0  0  0  0
  -16.7295  -28.6525   23.0346 C   0  0  0  0  0  0
  -26.4528  -31.6552   25.0677 C   0  0  0  0  0  0
  -25.3694  -31.3775   26.1355 C   0  0  0  0  0  0
  -27.0394  -30.2939   24.6286 C   0  0  0  0  0  0
  -27.6049  -32.4317   25.7473 C   0  0  0  0  0  0
  -27.5571  -37.1769   24.8463 C   0  0  0  0  0  0
  -21.4277  -29.3037   22.3593 N   0  0  0  0  0  0
  -26.4277  -37.3731   23.9413 N   0  0  0  0  0  0
  -24.7246  -31.0215   22.0875 N   0  0  0  0  0  0
  -23.4221  -28.8072   23.2999 O   0  0  0  0  0  0
  -28.2634  -26.0793   20.2490 O   0  0  0  0  0  0
  -26.5668  -34.8908   22.4619 O   0  0  0  0  0  0
  -23.5583  -32.1276   23.7022 O   0  0  0  0  0  0
  -31.7390  -19.5135   21.0802 C   0  0  0  0  0  0
  -30.0831  -17.7421   20.6140 C   0  0  0  0  0  0
  -29.4834  -20.3881   20.5111 C   0  0  0  0  0  0
  -31.3819  -18.1525   20.9975 C   0  0  0  0  0  0
  -30.8490  -20.5845   20.8481 C   0  0  0  0  0  0
  -29.1539  -18.9048   20.3887 C   0  0  0  0  0  0
  -27.2224  -21.3810   20.6970 C   0  0  0  0  0  0
  -29.0052  -23.1827   20.4659 C   0  0  0  0  0  0
  -27.9820  -24.5284   20.1364 C   0  0  0  0  0  0
  -29.7699  -16.2138   20.5430 N   0  0  0  0  0  0
  -28.6209  -21.6388   20.3680 N   0  0  0  0  0  0
  -32.3237  -17.2454   21.3462 F   0  0  0  0  0  0
  -31.3472  -21.8370   20.9963 F   0  0  0  0  0  0
  -27.5596  -18.4227   19.9134 Cl  0  0  0  0  0  0
  -31.4669  -12.7807   19.1915 H   0  0  0  0  0  0
  -30.4303  -11.6819   20.0529 H   0  0  0  0  0  0
  -29.8468  -11.7396   17.5999 H   0  0  0  0  0  0
  -29.6053  -13.4669   17.6856 H   0  0  0  0  0  0
  -27.9459  -11.2839   18.9770 H   0  0  0  0  0  0
  -27.3942  -12.4635   17.8165 H   0  0  0  0  0  0
  -27.5770  -14.2580   19.4011 H   0  0  0  0  0  0
  -28.7653  -12.3452   21.4667 H   0  0  0  0  0  0
  -28.3558  -14.0240   21.7436 H   0  0  0  0  0  0
  -25.2774   -9.5686   22.4757 H   0  0  0  0  0  0
  -24.0011   -7.4632   22.7465 H   0  0  0  0  0  0
  -21.0857   -8.8773   19.8942 H   0  0  0  0  0  0
  -22.3710  -10.9671   19.6158 H   0  0  0  0  0  0
  -21.2010   -7.6149   23.9712 H   0  0  0  0  0  0
  -21.1481   -6.0520   25.9072 H   0  0  0  0  0  0
  -22.0597   -2.7609   23.2841 H   0  0  0  0  0  0
  -22.4088  -11.9834   22.4816 H   0  0  0  0  0  0
  -21.1052  -13.1163   22.2661 H   0  0  0  0  0  0
  -24.6325  -15.8420   20.5288 H   0  0  0  0  0  0
  -26.2408  -15.6449   20.0642 H   0  0  0  0  0  0
  -26.7278  -32.5273   23.0946 H   0  0  0  0  0  0
  -25.0081  -33.9575   25.0280 H   0  0  0  0  0  0
  -22.7590  -31.2821   21.3689 H   0  0  0  0  0  0
  -23.3763  -35.9555   23.3275 H   0  0  0  0  0  0
  -24.3584  -36.8898   22.2064 H   0  0  0  0  0  0
  -23.7234  -37.6419   23.6703 H   0  0  0  0  0  0
  -26.1686  -31.4526   20.6103 H   0  0  0  0  0  0
  -26.8827  -30.7584   22.0280 H   0  0  0  0  0  0
  -28.1394  -28.7616   21.2465 H   0  0  0  0  0  0
  -25.9116  -25.8101   19.0230 H   0  0  0  0  0  0
  -23.9914  -27.2829   18.9803 H   0  0  0  0  0  0
  -23.8230  -30.5524   19.3914 H   0  0  0  0  0  0
  -22.8008  -29.2204   19.8398 H   0  0  0  0  0  0
  -25.1318  -36.1815   25.0801 H   0  0  0  0  0  0
  -21.0016  -28.3319   24.1361 H   0  0  0  0  0  0
  -20.5708  -26.2327   23.3631 H   0  0  0  0  0  0
  -21.6658  -26.7431   22.1202 H   0  0  0  0  0  0
  -19.6925  -25.6291   21.1266 H   0  0  0  0  0  0
  -19.6724  -27.3194   20.6765 H   0  0  0  0  0  0
  -17.4221  -26.6703   21.4024 H   0  0  0  0  0  0
  -18.0325  -26.0119   22.9038 H   0  0  0  0  0  0
  -19.7958  -30.7337   24.2185 H   0  0  0  0  0  0
  -17.5027  -31.6276   24.5182 H   0  0  0  0  0  0
  -15.5365  -30.2981   23.7711 H   0  0  0  0  0  0
  -15.8693  -28.0855   22.7039 H   0  0  0  0  0  0
  -24.5910  -30.7077   25.7679 H   0  0  0  0  0  0
  -24.8839  -32.2971   26.4633 H   0  0  0  0  0  0
  -25.7955  -30.9059   27.0215 H   0  0  0  0  0  0
  -26.3022  -29.6652   24.1281 H   0  0  0  0  0  0
  -27.3986  -29.7246   25.4869 H   0  0  0  0  0  0
  -27.8934  -30.4161   23.9622 H   0  0  0  0  0  0
  -27.2655  -33.3677   26.1926 H   0  0  0  0  0  0
  -28.3940  -32.6770   25.0347 H   0  0  0  0  0  0
  -28.0620  -31.8504   26.5495 H   0  0  0  0  0  0
  -28.2557  -38.0096   24.7526 H   0  0  0  0  0  0
  -28.1092  -36.2619   24.6259 H   0  0  0  0  0  0
  -27.2293  -37.1382   25.8867 H   0  0  0  0  0  0
  -20.9481  -29.8729   21.6758 H   0  0  0  0  0  0
  -26.0129  -38.2784   24.1446 H   0  0  0  0  0  0
  -32.7523  -19.7504   21.3664 H   0  0  0  0  0  0
  -27.1254  -20.6077   21.4601 H   0  0  0  0  0  0
  -26.6765  -21.0640   19.8076 H   0  0  0  0  0  0
  -26.7191  -22.2615   21.0934 H   0  0  0  0  0  0
  -29.3820  -23.3309   21.4791 H   0  0  0  0  0  0
  -29.8750  -23.3118   19.8209 H   0  0  0  0  0  0
  -27.0969  -24.3879   20.7563 H   0  0  0  0  0  0
  -27.6346  -24.3750   19.1152 H   0  0  0  0  0  0
  -28.7811  -16.0237   20.5850 H   0  0  0  0  0  0
  1 25  1  0  0  0
  1 30  2  0  0  0
  1 80  1  0  0  0
  2  3  1  0  0  0
  2 25  1  0  0  0
  2 85  1  0  0  0
  2 86  1  0  0  0
  3  4  1  0  0  0
  3 87  1  0  0  0
  3 88  1  0  0  0
  4  5  1  0  0  0
  4 89  1  0  0  0
  4 90  1  0  0  0
  5  6  1  0  0  0
  5 26  1  0  0  0
  5 91  1  0  0  0
  6 25  1  0  0  0
  6 92  1  0  0  0
  6 93  1  0  0  0
  7  8  2  0  0  0
  7 26  1  0  0  0
  7 29  1  0  0  0
  8  9  1  0  0  0
  8 22  1  0  0  0
  9 10  1  0  0  0
  9 27  2  0  0  0
 10 11  2  0  0  0
 10 15  1  0  0  0
 11 12  1  0  0  0
 11 94  1  0  0  0
 12 13  2  0  0  0
 12 95  1  0  0  0
 13 14  1  0  0  0
 13 31  1  0  0  0
 14 15  2  0  0  0
 14 96  1  0  0  0
 15 97  1  0  0  0
 16 17  2  0  0  0
 16 21  1  0  0  0
 16 31  1  0  0  0
 17 18  1  0  0  0
 17 98  1  0  0  0
 18 19  2  0  0  0
 18 99  1  0  0  0
 19 20  1  0  0  0
 19 24  1  0  0  0
 20 21  2  0  0  0
 20100  1  0  0  0
 21 23  1  0  0  0
 22 28  1  0  0  0
 22 32  2  0  0  0
 26 27  1  0  0  0
 28101  1  0  0  0
 28102  1  0  0  0
 29103  1  0  0  0
 29104  1  0  0  0
 33 34  1  0  0  0
 33 66  1  0  0  0
 33 70  2  0  0  0
 34 36  1  0  0  0
 34 59  1  0  0  0
 34105  1  0  0  0
 35 44  2  0  0  0
 35 45  1  0  0  0
 35 68  1  0  0  0
 36 56  1  0  0  0
 36106  1  0  0  0
 37 39  1  0  0  0
 37 47  1  0  0  0
 37 66  1  0  0  0
 37107  1  0  0  0
 38 43  2  0  0  0
 38 46  1  0  0  0
 38 47  1  0  0  0
 39 64  1  0  0  0
 39 67  2  0  0  0
 40 52  1  0  0  0
 40 53  2  0  0  0
 40 58  1  0  0  0
 41108  1  0  0  0
 41109  1  0  0  0
 41110  1  0  0  0
 41 48  1  0  0  0
 42 43  1  0  0  0
 42 66  1  0  0  0
 42111  1  0  0  0
 42112  1  0  0  0
 43 44  1  0  0  0
 44113  1  0  0  0
 45 46  2  0  0  0
 45114  1  0  0  0
 46115  1  0  0  0
 47116  1  0  0  0
 47117  1  0  0  0
 48 56  1  0  0  0
 48 65  1  0  0  0
 48118  1  0  0  0
 49 50  1  0  0  0
 49 53  1  0  0  0
 49 64  1  0  0  0
 49119  1  0  0  0
 50 51  1  0  0  0
 50120  1  0  0  0
 50121  1  0  0  0
 51 52  1  0  0  0
 51122  1  0  0  0
 51123  1  0  0  0
 52124  1  0  0  0
 52125  1  0  0  0
 53 54  1  0  0  0
 54 55  2  0  0  0
 54126  1  0  0  0
 55 57  1  0  0  0
 55127  1  0  0  0
 56 69  2  0  0  0
 57 58  2  0  0  0
 57128  1  0  0  0
 58129  1  0  0  0
 59 60  1  0  0  0
 59 61  1  0  0  0
 59 62  1  0  0  0
 60130  1  0  0  0
 60131  1  0  0  0
 60132  1  0  0  0
 61133  1  0  0  0
 61134  1  0  0  0
 61135  1  0  0  0
 62136  1  0  0  0
 62137  1  0  0  0
 62138  1  0  0  0
 63 65  1  0  0  0
 63139  1  0  0  0
 63140  1  0  0  0
 63141  1  0  0  0
 64142  1  0  0  0
 65143  1  0  0  0
 68 79  1  0  0  0
 71 74  2  0  0  0
 71 75  1  0  0  0
 71144  1  0  0  0
 72 74  1  0  0  0
 72 76  2  0  0  0
 72 80  1  0  0  0
 73 75  2  0  0  0
 73 76  1  0  0  0
 73 81  1  0  0  0
 74 82  1  0  0  0
 75 83  1  0  0  0
 76 84  1  0  0  0
 77 81  1  0  0  0
 77145  1  0  0  0
 77146  1  0  0  0
 77147  1  0  0  0
 78 79  1  0  0  0
 78 81  1  0  0  0
 78148  1  0  0  0
 78149  1  0  0  0
 79150  1  0  0  0
 79151  1  0  0  0
 80152  1  0  0  0
M  ISO  4   1 100  68 101  79 101  80 100
M  END
> <chiral flag>
0

> <version>
0

> <s_m_source_file>
/data/baiqing/PycharmProjects/Reinvent-master-3.2/result/LINK_invent/BTK/process_docking_weight1_custom_sum_contain_oxygen_bond_distance_aromatic_linkinvent_7_9_3/rearranged_h_0014.sdf

> <i_m_source_file_index>
54

> <r_mmod_Potential_Energy-OPLS-2005>
631.006652832031

> <r_mmod_Stretch_Energy-OPLS-2005>
334.53857421875

> <r_mmod_Bend_Energy-OPLS-2005>
283.259674072266

> <r_mmod_Torsional_Energy-OPLS-2005>
208.520965576172

> <r_mmod_Improper_Torsional_Energy-OPLS-2005>
7.27779197692871

> <r_mmod_Van_der_Waal_Energy-OPLS-2005>
144.228179931641

> <r_mmod_Electrostatic_Energy-OPLS-2005>
-350.145965576172

> <r_mmod_Solvation_Energy-OPLS-2005>
-228.834594726562

> <b_mmod_Minimization_Converged-OPLS-2005>
0

> <r_mmod_RMS_Derivative-OPLS-2005>
1.45482516288757

$$$$
54
                    3D
 Structure written by MMmdl.
151159  0  0  1  0            999 V2000
  -30.5155  -14.9274   20.3883 C   0  0  0  0  0  0
  -30.4479  -12.5656   19.4745 C   0  0  0  0  0  0
  -29.5222  -12.5277   18.2370 C   0  0  0  0  0  0
  -28.0498  -12.3267   18.6539 C   0  0  0  0  0  0
  -27.6308  -13.2411   19.8346 C   0  0  2  0  0  0
  -28.6822  -13.2466   20.9631 C   0  0  0  0  0  0
  -25.2470  -13.8187   20.5726 C   0  0  0  0  0  0
  -24.1774  -13.0410   20.9213 C   0  0  0  0  0  0
  -24.6386  -11.6902   20.8734 C   0  0  0  0  0  0
  -23.9072  -10.4282   21.0405 C   0  0  0  0  0  0
  -24.3626   -9.4202   21.9182 C   0  0  0  0  0  0
  -23.6288   -8.2247   22.0760 C   0  0  0  0  0  0
  -22.4262   -8.0292   21.3555 C   0  0  0  0  0  0
  -21.9903   -9.0258   20.4655 C   0  0  0  0  0  0
  -22.7245  -10.2122   20.3049 C   0  0  0  0  0  0
  -21.6850   -6.0723   22.5283 C   0  0  0  0  0  0
  -21.4018   -6.5629   23.8210 C   0  0  0  0  0  0
  -21.3659   -5.6789   24.9176 C   0  0  0  0  0  0
  -21.6040   -4.3051   24.7225 C   0  0  0  0  0  0
  -21.8813   -3.8134   23.4351 C   0  0  0  0  0  0
  -21.9184   -4.6949   22.3404 C   0  0  0  0  0  0
  -22.7799  -13.5188   21.1889 C   0  0  0  0  0  0
  -22.1653   -4.2134   21.0974 F   0  0  0  0  0  0
  -21.5622   -3.4536   25.7740 F   0  0  0  0  0  0
  -29.9579  -13.6537   20.3591 N   0  0  0  0  0  0
  -26.2890  -12.9410   20.3237 N   0  0  0  0  0  0
  -25.9318  -11.6542   20.5714 N   0  0  0  0  0  0
  -22.0449  -12.8191   22.0455 N   0  0  0  0  0  0
  -25.4091  -15.1936   20.4224 N   0  0  0  0  0  0
  -31.7286  -15.0385   20.1847 O   0  0  0  0  0  0
  -21.6632   -6.8884   21.4250 O   0  0  0  0  0  0
  -22.3493  -14.5507   20.6755 O   0  0  0  0  0  0
  -24.6418  -31.8453   23.1891 C   0  0  0  0  0  0
  -25.9190  -32.4707   23.8280 C   0  0  1  0  0  0
  -27.2159  -27.1496   20.1533 C   0  0  0  0  0  0
  -25.5944  -33.8510   24.2205 N   0  0  0  0  0  0
  -23.4450  -30.4642   21.5340 C   0  0  2  0  0  0
  -24.8951  -28.8909   20.1129 C   0  0  0  0  0  0
  -22.7566  -29.4534   22.4847 C   0  0  0  0  0  0
  -18.0311  -28.1390   22.8470 C   0  0  0  0  0  0
  -24.1489  -36.7255   23.2642 C   0  0  0  0  0  0
  -26.0002  -30.7252   21.3848 C   0  0  0  0  0  0
  -26.0731  -29.3358   20.7280 C   0  0  0  0  0  0
  -27.2384  -28.4819   20.7263 C   0  0  0  0  0  0
  -26.0130  -26.7983   19.5069 C   0  0  0  0  0  0
  -24.8760  -27.6351   19.4870 C   0  0  0  0  0  0
  -23.6724  -29.7942   20.1528 C   0  0  0  0  0  0
  -25.4123  -36.3035   24.0314 C   0  0  1  0  0  0
  -20.5919  -28.3707   23.1241 C   0  0  2  0  0  0
  -20.6788  -26.9409   22.5410 C   0  0  0  0  0  0
  -19.5765  -26.6376   21.5211 C   0  0  0  0  0  0
  -18.1947  -26.7935   22.1623 C   0  0  0  0  0  0
  -19.1567  -28.8874   23.2855 C   0  0  0  0  0  0
  -18.9479  -30.1460   23.8896 C   0  0  0  0  0  0
  -17.6471  -30.6581   24.0571 C   0  0  0  0  0  0
  -25.9067  -34.9407   23.5068 C   0  0  0  0  0  0
  -16.5365  -29.9076   23.6320 C   0  0  0  0  0  0
  -16.7294  -28.6495   23.0348 C   0  0  0  0  0  0
  -26.4511  -31.6568   25.0713 C   0  0  0  0  0  0
  -25.3693  -31.3761   26.1411 C   0  0  0  0  0  0
  -27.0363  -30.2963   24.6277 C   0  0  0  0  0  0
  -27.6058  -32.4308   25.7501 C   0  0  0  0  0  0
  -27.5570  -37.1801   24.8466 C   0  0  0  0  0  0
  -21.4260  -29.3026   22.3604 N   0  0  0  0  0  0
  -26.4293  -37.3735   23.9388 N   0  0  0  0  0  0
  -24.7154  -31.0326   22.0915 N   0  0  0  0  0  0
  -23.4220  -28.8078   23.2989 O   0  0  0  0  0  0
  -28.2794  -26.1828   20.1609 O   0  0  0  0  0  0
  -26.5649  -34.8895   22.4643 O   0  0  0  0  0  0
  -23.5539  -32.1318   23.7112 O   0  0  0  0  0  0
  -30.3252  -18.4219   21.2447 C   0  0  0  0  0  0
  -28.7905  -18.3475   19.4468 C   0  0  0  0  0  0
  -29.6476  -17.5683   20.3195 C   0  0  0  0  0  0
  -29.2413  -20.6355   20.5113 C   0  0  0  0  0  0
  -30.1219  -19.8574   21.3419 C   0  0  0  0  0  0
  -28.6061  -19.7992   19.5315 C   0  0  0  0  0  0
  -28.0083  -17.6340   18.3511 C   0  0  0  0  0  0
  -28.0461  -24.7026   20.5738 C   0  0  0  0  0  0
  -28.6781  -23.2702   19.9437 C   0  0  0  0  0  0
  -29.6267  -16.0317   20.3710 N   0  0  0  0  0  0
  -29.0047  -22.0525   20.8198 O   0  0  0  0  0  0
  -30.7960  -20.5133   22.3187 F   0  0  0  0  0  0
  -27.7401  -20.3830   18.6653 F   0  0  0  0  0  0
  -31.4826  -12.7274   19.1696 H   0  0  0  0  0  0
  -30.4330  -11.6088   19.9993 H   0  0  0  0  0  0
  -29.8315  -11.7362   17.5525 H   0  0  0  0  0  0
  -29.6202  -13.4627   17.6826 H   0  0  0  0  0  0
  -27.9263  -11.2803   18.9366 H   0  0  0  0  0  0
  -27.3956  -12.4931   17.7980 H   0  0  0  0  0  0
  -27.5920  -14.2462   19.4173 H   0  0  0  0  0  0
  -28.7641  -12.2617   21.4258 H   0  0  0  0  0  0
  -28.3957  -13.9399   21.7550 H   0  0  0  0  0  0
  -25.2778   -9.5642   22.4757 H   0  0  0  0  0  0
  -23.9983   -7.4631   22.7474 H   0  0  0  0  0  0
  -21.0830   -8.8782   19.8964 H   0  0  0  0  0  0
  -22.3737  -10.9653   19.6148 H   0  0  0  0  0  0
  -21.2027   -7.6146   23.9715 H   0  0  0  0  0  0
  -21.1487   -6.0518   25.9078 H   0  0  0  0  0  0
  -22.0590   -2.7593   23.2862 H   0  0  0  0  0  0
  -22.4064  -11.9871   22.4887 H   0  0  0  0  0  0
  -21.1067  -13.1231   22.2652 H   0  0  0  0  0  0
  -24.6321  -15.8330   20.5513 H   0  0  0  0  0  0
  -26.2517  -15.6608   20.1214 H   0  0  0  0  0  0
  -26.7263  -32.5329   23.1023 H   0  0  0  0  0  0
  -25.0068  -33.9620   25.0336 H   0  0  0  0  0  0
  -22.7456  -31.2886   21.3802 H   0  0  0  0  0  0
  -23.3737  -35.9605   23.3335 H   0  0  0  0  0  0
  -24.3565  -36.8849   22.2050 H   0  0  0  0  0  0
  -23.7268  -37.6473   23.6655 H   0  0  0  0  0  0
  -26.1497  -31.4798   20.6111 H   0  0  0  0  0  0
  -26.8737  -30.7798   22.0236 H   0  0  0  0  0  0
  -28.1426  -28.8186   21.2154 H   0  0  0  0  0  0
  -25.9367  -25.8375   19.0195 H   0  0  0  0  0  0
  -23.9769  -27.2914   18.9940 H   0  0  0  0  0  0
  -23.8128  -30.5695   19.3987 H   0  0  0  0  0  0
  -22.7873  -29.2385   19.8380 H   0  0  0  0  0  0
  -25.1312  -36.1881   25.0808 H   0  0  0  0  0  0
  -21.0022  -28.3307   24.1361 H   0  0  0  0  0  0
  -20.5663  -26.2319   23.3624 H   0  0  0  0  0  0
  -21.6659  -26.7402   22.1225 H   0  0  0  0  0  0
  -19.6917  -25.6284   21.1245 H   0  0  0  0  0  0
  -19.6706  -27.3181   20.6738 H   0  0  0  0  0  0
  -17.4212  -26.6673   21.4032 H   0  0  0  0  0  0
  -18.0352  -26.0084   22.9027 H   0  0  0  0  0  0
  -19.7952  -30.7278   24.2276 H   0  0  0  0  0  0
  -17.5016  -31.6252   24.5179 H   0  0  0  0  0  0
  -15.5365  -30.2974   23.7633 H   0  0  0  0  0  0
  -15.8697  -28.0797   22.7075 H   0  0  0  0  0  0
  -24.5869  -30.7118   25.7728 H   0  0  0  0  0  0
  -24.8891  -32.2951   26.4784 H   0  0  0  0  0  0
  -25.7964  -30.8962   27.0227 H   0  0  0  0  0  0
  -26.2973  -29.6704   24.1268 H   0  0  0  0  0  0
  -27.3968  -29.7241   25.4837 H   0  0  0  0  0  0
  -27.8879  -30.4204   23.9583 H   0  0  0  0  0  0
  -27.2676  -33.3622   26.2056 H   0  0  0  0  0  0
  -28.3890  -32.6850   25.0344 H   0  0  0  0  0  0
  -28.0704  -31.8449   26.5446 H   0  0  0  0  0  0
  -28.2617  -38.0065   24.7446 H   0  0  0  0  0  0
  -28.1034  -36.2591   24.6376 H   0  0  0  0  0  0
  -27.2277  -37.1557   25.8868 H   0  0  0  0  0  0
  -20.9464  -29.8744   21.6790 H   0  0  0  0  0  0
  -26.0165  -38.2810   24.1364 H   0  0  0  0  0  0
  -30.9909  -17.9672   21.9625 H   0  0  0  0  0  0
  -28.0448  -16.5492   18.4279 H   0  0  0  0  0  0
  -28.4134  -17.9033   17.3740 H   0  0  0  0  0  0
  -26.9582  -17.9265   18.3722 H   0  0  0  0  0  0
  -28.3778  -24.7054   21.6119 H   0  0  0  0  0  0
  -26.9720  -24.5421   20.6629 H   0  0  0  0  0  0
  -29.6229  -23.5306   19.4670 H   0  0  0  0  0  0
  -28.0325  -22.9405   19.1311 H   0  0  0  0  0  0
  -28.6882  -15.6716   20.3120 H   0  0  0  0  0  0
  1 25  1  0  0  0
  1 30  2  0  0  0
  1 80  1  0  0  0
  2  3  1  0  0  0
  2 25  1  0  0  0
  2 84  1  0  0  0
  2 85  1  0  0  0
  3  4  1  0  0  0
  3 86  1  0  0  0
  3 87  1  0  0  0
  4  5  1  0  0  0
  4 88  1  0  0  0
  4 89  1  0  0  0
  5  6  1  0  0  0
  5 26  1  0  0  0
  5 90  1  0  0  0
  6 25  1  0  0  0
  6 91  1  0  0  0
  6 92  1  0  0  0
  7  8  2  0  0  0
  7 26  1  0  0  0
  7 29  1  0  0  0
  8  9  1  0  0  0
  8 22  1  0  0  0
  9 10  1  0  0  0
  9 27  2  0  0  0
 10 11  2  0  0  0
 10 15  1  0  0  0
 11 12  1  0  0  0
 11 93  1  0  0  0
 12 13  2  0  0  0
 12 94  1  0  0  0
 13 14  1  0  0  0
 13 31  1  0  0  0
 14 15  2  0  0  0
 14 95  1  0  0  0
 15 96  1  0  0  0
 16 17  2  0  0  0
 16 21  1  0  0  0
 16 31  1  0  0  0
 17 18  1  0  0  0
 17 97  1  0  0  0
 18 19  2  0  0  0
 18 98  1  0  0  0
 19 20  1  0  0  0
 19 24  1  0  0  0
 20 21  2  0  0  0
 20 99  1  0  0  0
 21 23  1  0  0  0
 22 28  1  0  0  0
 22 32  2  0  0  0
 26 27  1  0  0  0
 28100  1  0  0  0
 28101  1  0  0  0
 29102  1  0  0  0
 29103  1  0  0  0
 33 34  1  0  0  0
 33 66  1  0  0  0
 33 70  2  0  0  0
 34 36  1  0  0  0
 34 59  1  0  0  0
 34104  1  0  0  0
 35 44  2  0  0  0
 35 45  1  0  0  0
 35 68  1  0  0  0
 36 56  1  0  0  0
 36105  1  0  0  0
 37 39  1  0  0  0
 37 47  1  0  0  0
 37 66  1  0  0  0
 37106  1  0  0  0
 38 43  2  0  0  0
 38 46  1  0  0  0
 38 47  1  0  0  0
 39 64  1  0  0  0
 39 67  2  0  0  0
 40 52  1  0  0  0
 40 53  2  0  0  0
 40 58  1  0  0  0
 41107  1  0  0  0
 41108  1  0  0  0
 41109  1  0  0  0
 41 48  1  0  0  0
 42 43  1  0  0  0
 42 66  1  0  0  0
 42110  1  0  0  0
 42111  1  0  0  0
 43 44  1  0  0  0
 44112  1  0  0  0
 45 46  2  0  0  0
 45113  1  0  0  0
 46114  1  0  0  0
 47115  1  0  0  0
 47116  1  0  0  0
 48 56  1  0  0  0
 48 65  1  0  0  0
 48117  1  0  0  0
 49 50  1  0  0  0
 49 53  1  0  0  0
 49 64  1  0  0  0
 49118  1  0  0  0
 50 51  1  0  0  0
 50119  1  0  0  0
 50120  1  0  0  0
 51 52  1  0  0  0
 51121  1  0  0  0
 51122  1  0  0  0
 52123  1  0  0  0
 52124  1  0  0  0
 53 54  1  0  0  0
 54 55  2  0  0  0
 54125  1  0  0  0
 55 57  1  0  0  0
 55126  1  0  0  0
 56 69  2  0  0  0
 57 58  2  0  0  0
 57127  1  0  0  0
 58128  1  0  0  0
 59 60  1  0  0  0
 59 61  1  0  0  0
 59 62  1  0  0  0
 60129  1  0  0  0
 60130  1  0  0  0
 60131  1  0  0  0
 61132  1  0  0  0
 61133  1  0  0  0
 61134  1  0  0  0
 62135  1  0  0  0
 62136  1  0  0  0
 62137  1  0  0  0
 63 65  1  0  0  0
 63138  1  0  0  0
 63139  1  0  0  0
 63140  1  0  0  0
 64141  1  0  0  0
 65142  1  0  0  0
 68 78  1  0  0  0
 71 73  2  0  0  0
 71 75  1  0  0  0
 71143  1  0  0  0
 72 73  1  0  0  0
 72 76  2  0  0  0
 72 77  1  0  0  0
 73 80  1  0  0  0
 74 75  2  0  0  0
 74 76  1  0  0  0
 74 81  1  0  0  0
 75 82  1  0  0  0
 76 83  1  0  0  0
 77144  1  0  0  0
 77145  1  0  0  0
 77146  1  0  0  0
 78 79  1  0  0  0
 78147  1  0  0  0
 78148  1  0  0  0
 79 81  1  0  0  0
 79149  1  0  0  0
 79150  1  0  0  0
 80151  1  0  0  0
M  ISO  4   1 100  68 101  78 101  80 100
M  END
> <chiral flag>
0

> <version>
0

> <s_m_source_file>
/data/baiqing/PycharmProjects/Reinvent-master-3.2/result/LINK_invent/BTK/process_docking_weight1_custom_sum_contain_oxygen_bond_distance_aromatic_linkinvent_7_9_3/rearranged_h_0014.sdf

> <i_m_source_file_index>
55

> <r_mmod_Potential_Energy-OPLS-2005>
537.943420410156

> <r_mmod_Stretch_Energy-OPLS-2005>
223.000686645508

> <r_mmod_Bend_Energy-OPLS-2005>
278.11181640625

> <r_mmod_Torsional_Energy-OPLS-2005>
261.74365234375

> <r_mmod_Improper_Torsional_Energy-OPLS-2005>
8.25196743011475

> <r_mmod_Van_der_Waal_Energy-OPLS-2005>
126.139915466309

> <r_mmod_Electrostatic_Energy-OPLS-2005>
-328.503326416016

> <r_mmod_Solvation_Energy-OPLS-2005>
-210.86767578125

> <b_mmod_Minimization_Converged-OPLS-2005>
0

> <r_mmod_RMS_Derivative-OPLS-2005>
2.47934818267822

$$$$
55
                    3D
 Structure written by MMmdl.
155163  0  0  1  0            999 V2000
  -30.5170  -14.9123   20.4405 C   0  0  0  0  0  0
  -30.4514  -12.5624   19.5035 C   0  0  0  0  0  0
  -29.5261  -12.5228   18.2629 C   0  0  0  0  0  0
  -28.0609  -12.3037   18.6826 C   0  0  0  0  0  0
  -27.6370  -13.2343   19.8495 C   0  0  2  0  0  0
  -28.6753  -13.2262   20.9917 C   0  0  0  0  0  0
  -25.2494  -13.8173   20.5671 C   0  0  0  0  0  0
  -24.1789  -13.0425   20.9193 C   0  0  0  0  0  0
  -24.6385  -11.6902   20.8736 C   0  0  0  0  0  0
  -23.9059  -10.4289   21.0410 C   0  0  0  0  0  0
  -24.3615   -9.4202   21.9188 C   0  0  0  0  0  0
  -23.6295   -8.2240   22.0755 C   0  0  0  0  0  0
  -22.4276   -8.0282   21.3544 C   0  0  0  0  0  0
  -21.9905   -9.0246   20.4644 C   0  0  0  0  0  0
  -22.7232  -10.2128   20.3056 C   0  0  0  0  0  0
  -21.6847   -6.0733   22.5285 C   0  0  0  0  0  0
  -21.4014   -6.5634   23.8214 C   0  0  0  0  0  0
  -21.3657   -5.6788   24.9177 C   0  0  0  0  0  0
  -21.6043   -4.3058   24.7232 C   0  0  0  0  0  0
  -21.8819   -3.8143   23.4351 C   0  0  0  0  0  0
  -21.9193   -4.6958   22.3406 C   0  0  0  0  0  0
  -22.7819  -13.5226   21.1863 C   0  0  0  0  0  0
  -22.1662   -4.2147   21.0986 F   0  0  0  0  0  0
  -21.5624   -3.4540   25.7739 F   0  0  0  0  0  0
  -29.9631  -13.6360   20.4127 N   0  0  0  0  0  0
  -26.2918  -12.9384   20.3255 N   0  0  0  0  0  0
  -25.9323  -11.6526   20.5748 N   0  0  0  0  0  0
  -22.0463  -12.8216   22.0422 N   0  0  0  0  0  0
  -25.4157  -15.1896   20.4062 N   0  0  0  0  0  0
  -31.6972  -15.0426   20.0954 O   0  0  0  0  0  0
  -21.6641   -6.8878   21.4250 O   0  0  0  0  0  0
  -22.3501  -14.5531   20.6709 O   0  0  0  0  0  0
  -24.6420  -31.8426   23.1828 C   0  0  0  0  0  0
  -25.9197  -32.4674   23.8230 C   0  0  1  0  0  0
  -27.2281  -27.1491   20.1421 C   0  0  0  0  0  0
  -25.5960  -33.8481   24.2159 N   0  0  0  0  0  0
  -23.4414  -30.4579   21.5294 C   0  0  2  0  0  0
  -24.8914  -28.8805   20.1035 C   0  0  0  0  0  0
  -22.7536  -29.4530   22.4864 C   0  0  0  0  0  0
  -18.0288  -28.1394   22.8446 C   0  0  0  0  0  0
  -24.1504  -36.7241   23.2643 C   0  0  0  0  0  0
  -25.9947  -30.7203   21.3753 C   0  0  0  0  0  0
  -26.0654  -29.3328   20.7151 C   0  0  0  0  0  0
  -27.2286  -28.4828   20.7153 C   0  0  0  0  0  0
  -26.0230  -26.7824   19.5074 C   0  0  0  0  0  0
  -24.8824  -27.6178   19.4856 C   0  0  0  0  0  0
  -23.6643  -29.7783   20.1503 C   0  0  0  0  0  0
  -25.4137  -36.3015   24.0320 C   0  0  1  0  0  0
  -20.5896  -28.3704   23.1246 C   0  0  2  0  0  0
  -20.6788  -26.9413   22.5409 C   0  0  0  0  0  0
  -19.5780  -26.6379   21.5204 C   0  0  0  0  0  0
  -18.1941  -26.7920   22.1598 C   0  0  0  0  0  0
  -19.1550  -28.8867   23.2827 C   0  0  0  0  0  0
  -18.9474  -30.1465   23.8844 C   0  0  0  0  0  0
  -17.6482  -30.6584   24.0556 C   0  0  0  0  0  0
  -25.9086  -34.9399   23.5044 C   0  0  0  0  0  0
  -16.5366  -29.9080   23.6361 C   0  0  0  0  0  0
  -16.7275  -28.6517   23.0327 C   0  0  0  0  0  0
  -26.4541  -31.6538   25.0667 C   0  0  0  0  0  0
  -25.3739  -31.3713   26.1376 C   0  0  0  0  0  0
  -27.0437  -30.2946   24.6237 C   0  0  0  0  0  0
  -27.6073  -32.4313   25.7437 C   0  0  0  0  0  0
  -27.5581  -37.1767   24.8468 C   0  0  0  0  0  0
  -21.4228  -29.3035   22.3627 N   0  0  0  0  0  0
  -26.4295  -37.3738   23.9420 N   0  0  0  0  0  0
  -24.7120  -31.0294   22.0846 N   0  0  0  0  0  0
  -23.4196  -28.8099   23.3022 O   0  0  0  0  0  0
  -28.3318  -26.2328   20.2576 O   0  0  0  0  0  0
  -26.5665  -34.8901   22.4626 O   0  0  0  0  0  0
  -23.5551  -32.1297   23.7075 O   0  0  0  0  0  0
  -30.4892  -18.3686   19.7908 C   0  0  0  0  0  0
  -28.4205  -19.7623   21.0806 C   0  0  0  0  0  0
  -29.6374  -17.5341   20.5781 C   0  0  0  0  0  0
  -29.2707  -20.5892   20.2637 C   0  0  0  0  0  0
  -30.3121  -19.8035   19.6458 C   0  0  0  0  0  0
  -28.6082  -18.3127   21.2264 C   0  0  0  0  0  0
  -27.2847  -20.4617   21.8187 C   0  0  0  0  0  0
  -28.2107  -24.7027   18.2310 C   0  0  0  0  0  0
  -28.3414  -23.2812   20.4461 C   0  0  0  0  0  0
  -28.5544  -24.7877   19.7248 C   0  0  2  0  0  0
  -29.6733  -16.0079   20.7303 N   0  0  0  0  0  0
  -29.1971  -22.0567   19.9954 N   0  0  0  0  0  0
  -31.1932  -20.4628   18.8556 F   0  0  0  0  0  0
  -27.5423  -17.4166   22.2584 Cl  0  0  0  0  0  0
  -31.4835  -12.7338   19.1921 H   0  0  0  0  0  0
  -30.4533  -11.5999   20.0177 H   0  0  0  0  0  0
  -29.8449  -11.7262   17.5885 H   0  0  0  0  0  0
  -29.6159  -13.4549   17.7035 H   0  0  0  0  0  0
  -27.9701  -11.2624   18.9966 H   0  0  0  0  0  0
  -27.3939  -12.4233   17.8284 H   0  0  0  0  0  0
  -27.6150  -14.2416   19.4349 H   0  0  0  0  0  0
  -28.7457  -12.2390   21.4495 H   0  0  0  0  0  0
  -28.3679  -13.9070   21.7873 H   0  0  0  0  0  0
  -25.2757   -9.5685   22.4759 H   0  0  0  0  0  0
  -23.9993   -7.4636   22.7477 H   0  0  0  0  0  0
  -21.0830   -8.8768   19.8957 H   0  0  0  0  0  0
  -22.3692  -10.9665   19.6161 H   0  0  0  0  0  0
  -21.2010   -7.6142   23.9720 H   0  0  0  0  0  0
  -21.1475   -6.0521   25.9080 H   0  0  0  0  0  0
  -22.0599   -2.7610   23.2856 H   0  0  0  0  0  0
  -22.4083  -11.9890   22.4837 H   0  0  0  0  0  0
  -21.1084  -13.1245   22.2627 H   0  0  0  0  0  0
  -24.6478  -15.8400   20.5285 H   0  0  0  0  0  0
  -26.2716  -15.6393   20.1112 H   0  0  0  0  0  0
  -26.7239  -32.5259   23.0928 H   0  0  0  0  0  0
  -25.0126  -33.9610   25.0319 H   0  0  0  0  0  0
  -22.7419  -31.2813   21.3715 H   0  0  0  0  0  0
  -23.3782  -35.9555   23.3287 H   0  0  0  0  0  0
  -24.3586  -36.8887   22.2059 H   0  0  0  0  0  0
  -23.7248  -37.6427   23.6693 H   0  0  0  0  0  0
  -26.1496  -31.4767   20.6047 H   0  0  0  0  0  0
  -26.8649  -30.7671   22.0187 H   0  0  0  0  0  0
  -28.1246  -28.8284   21.2109 H   0  0  0  0  0  0
  -25.9222  -25.8063   19.0638 H   0  0  0  0  0  0
  -23.9818  -27.2552   19.0102 H   0  0  0  0  0  0
  -23.7891  -30.5493   19.3894 H   0  0  0  0  0  0
  -22.7813  -29.2127   19.8479 H   0  0  0  0  0  0
  -25.1325  -36.1832   25.0811 H   0  0  0  0  0  0
  -20.9961  -28.3293   24.1380 H   0  0  0  0  0  0
  -20.5711  -26.2301   23.3609 H   0  0  0  0  0  0
  -21.6653  -26.7444   22.1192 H   0  0  0  0  0  0
  -19.6964  -25.6295   21.1229 H   0  0  0  0  0  0
  -19.6741  -27.3202   20.6741 H   0  0  0  0  0  0
  -17.4223  -26.6647   21.3986 H   0  0  0  0  0  0
  -18.0332  -26.0065   22.8997 H   0  0  0  0  0  0
  -19.7967  -30.7289   24.2158 H   0  0  0  0  0  0
  -17.5051  -31.6256   24.5179 H   0  0  0  0  0  0
  -15.5373  -30.2980   23.7739 H   0  0  0  0  0  0
  -15.8653  -28.0860   22.7043 H   0  0  0  0  0  0
  -24.5919  -30.7063   25.7684 H   0  0  0  0  0  0
  -24.8946  -32.2897   26.4782 H   0  0  0  0  0  0
  -25.8047  -30.8888   27.0161 H   0  0  0  0  0  0
  -26.3064  -29.6614   24.1284 H   0  0  0  0  0  0
  -27.4121  -29.7292   25.4808 H   0  0  0  0  0  0
  -27.8921  -30.4212   23.9505 H   0  0  0  0  0  0
  -27.2669  -33.3633   26.1965 H   0  0  0  0  0  0
  -28.3898  -32.6845   25.0266 H   0  0  0  0  0  0
  -28.0724  -31.8468   26.5388 H   0  0  0  0  0  0
  -28.2585  -38.0070   24.7525 H   0  0  0  0  0  0
  -28.1089  -36.2608   24.6288 H   0  0  0  0  0  0
  -27.2294  -37.1385   25.8863 H   0  0  0  0  0  0
  -20.9436  -29.8704   21.6768 H   0  0  0  0  0  0
  -26.0154  -38.2803   24.1433 H   0  0  0  0  0  0
  -31.3045  -17.9091   19.2528 H   0  0  0  0  0  0
  -26.6884  -21.0384   21.1145 H   0  0  0  0  0  0
  -27.6944  -21.1443   22.5631 H   0  0  0  0  0  0
  -26.5954  -19.7942   22.3305 H   0  0  0  0  0  0
  -27.1794  -24.3921   18.0652 H   0  0  0  0  0  0
  -28.8398  -23.9589   17.7420 H   0  0  0  0  0  0
  -28.3738  -25.6533   17.7246 H   0  0  0  0  0  0
  -27.2912  -23.0111   20.3250 H   0  0  0  0  0  0
  -28.4907  -23.3986   21.5204 H   0  0  0  0  0  0
  -29.6443  -24.8374   19.7266 H   0  0  0  0  0  0
  -28.8075  -15.6688   21.1212 H   0  0  0  0  0  0
  -29.9513  -22.3377   19.3718 H   0  0  0  0  0  0
  1 25  1  0  0  0
  1 30  2  0  0  0
  1 81  1  0  0  0
  2  3  1  0  0  0
  2 25  1  0  0  0
  2 85  1  0  0  0
  2 86  1  0  0  0
  3  4  1  0  0  0
  3 87  1  0  0  0
  3 88  1  0  0  0
  4  5  1  0  0  0
  4 89  1  0  0  0
  4 90  1  0  0  0
  5  6  1  0  0  0
  5 26  1  0  0  0
  5 91  1  0  0  0
  6 25  1  0  0  0
  6 92  1  0  0  0
  6 93  1  0  0  0
  7  8  2  0  0  0
  7 26  1  0  0  0
  7 29  1  0  0  0
  8  9  1  0  0  0
  8 22  1  0  0  0
  9 10  1  0  0  0
  9 27  2  0  0  0
 10 11  2  0  0  0
 10 15  1  0  0  0
 11 12  1  0  0  0
 11 94  1  0  0  0
 12 13  2  0  0  0
 12 95  1  0  0  0
 13 14  1  0  0  0
 13 31  1  0  0  0
 14 15  2  0  0  0
 14 96  1  0  0  0
 15 97  1  0  0  0
 16 17  2  0  0  0
 16 21  1  0  0  0
 16 31  1  0  0  0
 17 18  1  0  0  0
 17 98  1  0  0  0
 18 19  2  0  0  0
 18 99  1  0  0  0
 19 20  1  0  0  0
 19 24  1  0  0  0
 20 21  2  0  0  0
 20100  1  0  0  0
 21 23  1  0  0  0
 22 28  1  0  0  0
 22 32  2  0  0  0
 26 27  1  0  0  0
 28101  1  0  0  0
 28102  1  0  0  0
 29103  1  0  0  0
 29104  1  0  0  0
 33 34  1  0  0  0
 33 66  1  0  0  0
 33 70  2  0  0  0
 34 36  1  0  0  0
 34 59  1  0  0  0
 34105  1  0  0  0
 35 44  2  0  0  0
 35 45  1  0  0  0
 35 68  1  0  0  0
 36 56  1  0  0  0
 36106  1  0  0  0
 37 39  1  0  0  0
 37 47  1  0  0  0
 37 66  1  0  0  0
 37107  1  0  0  0
 38 43  2  0  0  0
 38 46  1  0  0  0
 38 47  1  0  0  0
 39 64  1  0  0  0
 39 67  2  0  0  0
 40 52  1  0  0  0
 40 53  2  0  0  0
 40 58  1  0  0  0
 41108  1  0  0  0
 41109  1  0  0  0
 41110  1  0  0  0
 41 48  1  0  0  0
 42 43  1  0  0  0
 42 66  1  0  0  0
 42111  1  0  0  0
 42112  1  0  0  0
 43 44  1  0  0  0
 44113  1  0  0  0
 45 46  2  0  0  0
 45114  1  0  0  0
 46115  1  0  0  0
 47116  1  0  0  0
 47117  1  0  0  0
 48 56  1  0  0  0
 48 65  1  0  0  0
 48118  1  0  0  0
 49 50  1  0  0  0
 49 53  1  0  0  0
 49 64  1  0  0  0
 49119  1  0  0  0
 50 51  1  0  0  0
 50120  1  0  0  0
 50121  1  0  0  0
 51 52  1  0  0  0
 51122  1  0  0  0
 51123  1  0  0  0
 52124  1  0  0  0
 52125  1  0  0  0
 53 54  1  0  0  0
 54 55  2  0  0  0
 54126  1  0  0  0
 55 57  1  0  0  0
 55127  1  0  0  0
 56 69  2  0  0  0
 57 58  2  0  0  0
 57128  1  0  0  0
 58129  1  0  0  0
 59 60  1  0  0  0
 59 61  1  0  0  0
 59 62  1  0  0  0
 60130  1  0  0  0
 60131  1  0  0  0
 60132  1  0  0  0
 61133  1  0  0  0
 61134  1  0  0  0
 61135  1  0  0  0
 62136  1  0  0  0
 62137  1  0  0  0
 62138  1  0  0  0
 63 65  1  0  0  0
 63139  1  0  0  0
 63140  1  0  0  0
 63141  1  0  0  0
 64142  1  0  0  0
 65143  1  0  0  0
 68 80  1  0  0  0
 71 73  2  0  0  0
 71 75  1  0  0  0
 71144  1  0  0  0
 72 74  1  0  0  0
 72 76  2  0  0  0
 72 77  1  0  0  0
 73 76  1  0  0  0
 73 81  1  0  0  0
 74 75  2  0  0  0
 74 82  1  0  0  0
 75 83  1  0  0  0
 76 84  1  0  0  0
 77145  1  0  0  0
 77146  1  0  0  0
 77147  1  0  0  0
 78148  1  0  0  0
 78149  1  0  0  0
 78150  1  0  0  0
 78 80  1  0  0  0
 79 80  1  0  0  0
 79 82  1  0  0  0
 79151  1  0  0  0
 79152  1  0  0  0
 80153  1  0  0  0
 81154  1  0  0  0
 82155  1  0  0  0
M  ISO  4   1 100  68 101  80 101  81 100
M  END
> <chiral flag>
0

> <version>
0

> <s_m_source_file>
/data/baiqing/PycharmProjects/Reinvent-master-3.2/result/LINK_invent/BTK/process_docking_weight1_custom_sum_contain_oxygen_bond_distance_aromatic_linkinvent_7_9_3/rearranged_h_0014.sdf

> <i_m_source_file_index>
56

> <r_mmod_Potential_Energy-OPLS-2005>
444.582122802734

> <r_mmod_Stretch_Energy-OPLS-2005>
220.489395141602

> <r_mmod_Bend_Energy-OPLS-2005>
324.272491455078

> <r_mmod_Torsional_Energy-OPLS-2005>
204.503173828125

> <r_mmod_Improper_Torsional_Energy-OPLS-2005>
3.16723895072937

> <r_mmod_Van_der_Waal_Energy-OPLS-2005>
131.053695678711

> <r_mmod_Electrostatic_Energy-OPLS-2005>
-406.207183837891

> <r_mmod_Solvation_Energy-OPLS-2005>
-203.426574707031

> <b_mmod_Minimization_Converged-OPLS-2005>
0

> <r_mmod_RMS_Derivative-OPLS-2005>
2.82342720031738

$$$$
56
                    3D
 Structure written by MMmdl.
152159  0  0  1  0            999 V2000
  -30.3381  -15.5924   20.2791 C   0  0  0  0  0  0
  -30.4277  -13.0526   19.4954 C   0  0  0  0  0  0
  -29.5444  -12.5893   18.3056 C   0  0  0  0  0  0
  -28.1136  -12.2605   18.7663 C   0  0  0  0  0  0
  -27.5936  -13.2694   19.8160 C   0  0  2  0  0  0
  -28.6291  -13.6369   20.9021 C   0  0  0  0  0  0
  -25.2380  -13.8183   20.5901 C   0  0  0  0  0  0
  -24.1709  -13.0385   20.9316 C   0  0  0  0  0  0
  -24.6364  -11.6882   20.8806 C   0  0  0  0  0  0
  -23.9060  -10.4259   21.0420 C   0  0  0  0  0  0
  -24.3613   -9.4177   21.9194 C   0  0  0  0  0  0
  -23.6287   -8.2216   22.0755 C   0  0  0  0  0  0
  -22.4271   -8.0261   21.3541 C   0  0  0  0  0  0
  -21.9908   -9.0234   20.4642 C   0  0  0  0  0  0
  -22.7237  -10.2111   20.3058 C   0  0  0  0  0  0
  -21.6847   -6.0726   22.5277 C   0  0  0  0  0  0
  -21.4008   -6.5633   23.8210 C   0  0  0  0  0  0
  -21.3662   -5.6788   24.9174 C   0  0  0  0  0  0
  -21.6048   -4.3050   24.7225 C   0  0  0  0  0  0
  -21.8820   -3.8140   23.4346 C   0  0  0  0  0  0
  -21.9191   -4.6956   22.3401 C   0  0  0  0  0  0
  -22.7730  -13.5159   21.1919 C   0  0  0  0  0  0
  -22.1661   -4.2143   21.0978 F   0  0  0  0  0  0
  -21.5633   -3.4535   25.7738 F   0  0  0  0  0  0
  -29.7829  -14.2461   20.1956 N   0  0  0  0  0  0
  -26.2790  -12.9423   20.3391 N   0  0  0  0  0  0
  -25.9306  -11.6537   20.5805 N   0  0  0  0  0  0
  -22.0369  -12.8153   22.0463 N   0  0  0  0  0  0
  -25.4037  -15.1926   20.4416 N   0  0  0  0  0  0
  -31.5799  -15.4854   20.3118 O   0  0  0  0  0  0
  -21.6631   -6.8864   21.4238 O   0  0  0  0  0  0
  -22.3433  -14.5464   20.6745 O   0  0  0  0  0  0
  -24.6791  -31.8042   23.1547 C   0  0  0  0  0  0
  -25.9392  -32.4487   23.8080 C   0  0  1  0  0  0
  -27.2318  -26.7528   20.2069 C   0  0  0  0  0  0
  -25.5989  -33.8311   24.1972 N   0  0  0  0  0  0
  -23.5036  -30.4067   21.5074 C   0  0  2  0  0  0
  -24.9616  -28.7565   20.1153 C   0  0  0  0  0  0
  -22.7748  -29.4333   22.4726 C   0  0  0  0  0  0
  -18.0336  -28.1418   22.8460 C   0  0  0  0  0  0
  -24.1497  -36.7164   23.2652 C   0  0  0  0  0  0
  -26.0812  -30.5534   21.4115 C   0  0  0  0  0  0
  -26.1483  -29.1234   20.7605 C   0  0  0  0  0  0
  -27.2688  -28.1474   20.7758 C   0  0  0  0  0  0
  -26.0130  -26.5813   19.5049 C   0  0  0  0  0  0
  -24.9299  -27.5102   19.4647 C   0  0  0  0  0  0
  -23.7546  -29.7052   20.1413 C   0  0  0  0  0  0
  -25.4145  -36.2908   24.0285 C   0  0  1  0  0  0
  -20.5970  -28.3773   23.1155 C   0  0  2  0  0  0
  -20.6805  -26.9437   22.5406 C   0  0  0  0  0  0
  -19.5780  -26.6372   21.5219 C   0  0  0  0  0  0
  -18.1962  -26.7948   22.1621 C   0  0  0  0  0  0
  -19.1601  -28.8921   23.2789 C   0  0  0  0  0  0
  -18.9506  -30.1506   23.8831 C   0  0  0  0  0  0
  -17.6496  -30.6602   24.0552 C   0  0  0  0  0  0
  -25.9120  -34.9295   23.4964 C   0  0  0  0  0  0
  -16.5387  -29.9083   23.6349 C   0  0  0  0  0  0
  -16.7316  -28.6506   23.0367 C   0  0  0  0  0  0
  -26.4588  -31.6505   25.0684 C   0  0  0  0  0  0
  -25.3669  -31.3805   26.1309 C   0  0  0  0  0  0
  -27.0513  -30.2850   24.6545 C   0  0  0  0  0  0
  -27.6045  -32.4356   25.7500 C   0  0  0  0  0  0
  -27.5567  -37.1740   24.8466 C   0  0  0  0  0  0
  -21.4399  -29.3025   22.3478 N   0  0  0  0  0  0
  -26.4276  -37.3664   23.9405 N   0  0  0  0  0  0
  -24.7776  -30.9534   22.0773 N   0  0  0  0  0  0
  -23.4211  -28.7934   23.3055 O   0  0  0  0  0  0
  -28.2114  -25.5668   20.3039 O   0  0  0  0  0  0
  -26.5757  -34.8866   22.4578 O   0  0  0  0  0  0
  -23.5821  -32.1092   23.6531 O   0  0  0  0  0  0
  -30.5259  -17.2270   17.6922 C   0  0  0  0  0  0
  -28.1897  -16.3180   18.0461 C   0  0  0  0  0  0
  -28.9565  -22.1972   20.4705 C   0  0  0  0  0  0
  -28.8926  -20.3249   20.0573 C   0  0  0  0  0  0
  -28.0687  -23.8495   20.0634 C   0  0  0  0  0  0
  -29.2912  -17.2110   18.6164 C   0  0  0  0  0  0
  -29.7132  -18.6608   20.5661 C   0  0  0  0  0  0
  -29.6435  -16.9773   20.0439 N   0  0  0  0  0  0
  -31.0034  -18.9833   20.4880 F   0  0  0  0  0  0
  -29.4264  -18.6158   21.8658 F   0  0  0  0  0  0
  -31.4111  -13.3236   19.1091 H   0  0  0  0  0  0
  -30.6071  -12.2321   20.1920 H   0  0  0  0  0  0
  -29.9887  -11.7170   17.8243 H   0  0  0  0  0  0
  -29.5216  -13.3658   17.5423 H   0  0  0  0  0  0
  -28.1333  -11.2642   19.2095 H   0  0  0  0  0  0
  -27.4372  -12.2030   17.9127 H   0  0  0  0  0  0
  -27.4203  -14.1665   19.2418 H   0  0  0  0  0  0
  -28.9076  -12.7742   21.5091 H   0  0  0  0  0  0
  -28.2076  -14.3750   21.5861 H   0  0  0  0  0  0
  -25.2750   -9.5658   22.4779 H   0  0  0  0  0  0
  -23.9995   -7.4606   22.7473 H   0  0  0  0  0  0
  -21.0842   -8.8750   19.8944 H   0  0  0  0  0  0
  -22.3695  -10.9655   19.6174 H   0  0  0  0  0  0
  -21.1994   -7.6140   23.9709 H   0  0  0  0  0  0
  -21.1489   -6.0519   25.9078 H   0  0  0  0  0  0
  -22.0599   -2.7603   23.2845 H   0  0  0  0  0  0
  -22.3989  -11.9827   22.4870 H   0  0  0  0  0  0
  -21.0978  -13.1168   22.2641 H   0  0  0  0  0  0
  -24.6404  -15.8471   20.5723 H   0  0  0  0  0  0
  -26.2702  -15.6407   20.1748 H   0  0  0  0  0  0
  -26.7471  -32.4974   23.0793 H   0  0  0  0  0  0
  -25.0053  -33.9357   25.0068 H   0  0  0  0  0  0
  -22.8262  -31.2425   21.3205 H   0  0  0  0  0  0
  -23.3774  -35.9477   23.3266 H   0  0  0  0  0  0
  -24.3566  -36.8871   22.2075 H   0  0  0  0  0  0
  -23.7241  -37.6327   23.6755 H   0  0  0  0  0  0
  -26.2789  -31.2817   20.6239 H   0  0  0  0  0  0
  -26.9341  -30.6196   22.0747 H   0  0  0  0  0  0
  -28.1618  -28.4319   21.3143 H   0  0  0  0  0  0
  -25.8584  -25.6339   19.0081 H   0  0  0  0  0  0
  -24.0325  -27.2213   18.9348 H   0  0  0  0  0  0
  -23.9237  -30.4661   19.3784 H   0  0  0  0  0  0
  -22.8608  -29.1674   19.8204 H   0  0  0  0  0  0
  -25.1353  -36.1679   25.0775 H   0  0  0  0  0  0
  -21.0054  -28.3396   24.1281 H   0  0  0  0  0  0
  -20.5677  -26.2395   23.3663 H   0  0  0  0  0  0
  -21.6666  -26.7389   22.1219 H   0  0  0  0  0  0
  -19.6937  -25.6266   21.1291 H   0  0  0  0  0  0
  -19.6724  -27.3148   20.6722 H   0  0  0  0  0  0
  -17.4234  -26.6695   21.4022 H   0  0  0  0  0  0
  -18.0347  -26.0105   22.9031 H   0  0  0  0  0  0
  -19.7980  -30.7342   24.2171 H   0  0  0  0  0  0
  -17.5044  -31.6275   24.5166 H   0  0  0  0  0  0
  -15.5383  -30.2962   23.7710 H   0  0  0  0  0  0
  -15.8718  -28.0800   22.7119 H   0  0  0  0  0  0
  -24.5880  -30.7126   25.7613 H   0  0  0  0  0  0
  -24.8830  -32.3021   26.4553 H   0  0  0  0  0  0
  -25.7862  -30.9092   27.0207 H   0  0  0  0  0  0
  -26.3218  -29.6477   24.1537 H   0  0  0  0  0  0
  -27.3960  -29.7278   25.5266 H   0  0  0  0  0  0
  -27.9191  -30.3987   24.0047 H   0  0  0  0  0  0
  -27.2591  -33.3723   26.1886 H   0  0  0  0  0  0
  -28.3955  -32.6811   25.0400 H   0  0  0  0  0  0
  -28.0604  -31.8613   26.5576 H   0  0  0  0  0  0
  -28.2553  -38.0063   24.7514 H   0  0  0  0  0  0
  -28.1094  -36.2586   24.6294 H   0  0  0  0  0  0
  -27.2280  -37.1376   25.8867 H   0  0  0  0  0  0
  -20.9695  -29.8679   21.6548 H   0  0  0  0  0  0
  -26.0107  -38.2714   24.1415 H   0  0  0  0  0  0
  -30.2565  -17.5673   16.6915 H   0  0  0  0  0  0
  -30.9756  -16.2394   17.5825 H   0  0  0  0  0  0
  -31.2956  -17.9043   18.0639 H   0  0  0  0  0  0
  -27.8462  -16.7056   17.0859 H   0  0  0  0  0  0
  -27.3203  -16.2944   18.7004 H   0  0  0  0  0  0
  -28.5466  -15.3116   17.8532 H   0  0  0  0  0  0
  -29.9953  -22.4364   20.2430 H   0  0  0  0  0  0
  -28.9348  -22.1906   21.5601 H   0  0  0  0  0  0
  -29.0484  -20.3493   18.9795 H   0  0  0  0  0  0
  -27.8312  -20.0983   20.1564 H   0  0  0  0  0  0
  -27.0513  -23.6673   20.4098 H   0  0  0  0  0  0
  -27.9758  -23.8051   18.9783 H   0  0  0  0  0  0
  -28.8499  -18.1994   18.5320 H   0  0  0  0  0  0
  1 25  1  0  0  0
  1 30  2  0  0  0
  1 78  1  0  0  0
  2  3  1  0  0  0
  2 25  1  0  0  0
  2 81  1  0  0  0
  2 82  1  0  0  0
  3  4  1  0  0  0
  3 83  1  0  0  0
  3 84  1  0  0  0
  4  5  1  0  0  0
  4 85  1  0  0  0
  4 86  1  0  0  0
  5  6  1  0  0  0
  5 26  1  0  0  0
  5 87  1  0  0  0
  6 25  1  0  0  0
  6 88  1  0  0  0
  6 89  1  0  0  0
  7  8  2  0  0  0
  7 26  1  0  0  0
  7 29  1  0  0  0
  8  9  1  0  0  0
  8 22  1  0  0  0
  9 10  1  0  0  0
  9 27  2  0  0  0
 10 11  2  0  0  0
 10 15  1  0  0  0
 11 12  1  0  0  0
 11 90  1  0  0  0
 12 13  2  0  0  0
 12 91  1  0  0  0
 13 14  1  0  0  0
 13 31  1  0  0  0
 14 15  2  0  0  0
 14 92  1  0  0  0
 15 93  1  0  0  0
 16 17  2  0  0  0
 16 21  1  0  0  0
 16 31  1  0  0  0
 17 18  1  0  0  0
 17 94  1  0  0  0
 18 19  2  0  0  0
 18 95  1  0  0  0
 19 20  1  0  0  0
 19 24  1  0  0  0
 20 21  2  0  0  0
 20 96  1  0  0  0
 21 23  1  0  0  0
 22 28  1  0  0  0
 22 32  2  0  0  0
 26 27  1  0  0  0
 28 97  1  0  0  0
 28 98  1  0  0  0
 29 99  1  0  0  0
 29100  1  0  0  0
 33 34  1  0  0  0
 33 66  1  0  0  0
 33 70  2  0  0  0
 34 36  1  0  0  0
 34 59  1  0  0  0
 34101  1  0  0  0
 35 44  2  0  0  0
 35 45  1  0  0  0
 35 68  1  0  0  0
 36 56  1  0  0  0
 36102  1  0  0  0
 37 39  1  0  0  0
 37 47  1  0  0  0
 37 66  1  0  0  0
 37103  1  0  0  0
 38 43  2  0  0  0
 38 46  1  0  0  0
 38 47  1  0  0  0
 39 64  1  0  0  0
 39 67  2  0  0  0
 40 52  1  0  0  0
 40 53  2  0  0  0
 40 58  1  0  0  0
 41104  1  0  0  0
 41105  1  0  0  0
 41106  1  0  0  0
 41 48  1  0  0  0
 42 43  1  0  0  0
 42 66  1  0  0  0
 42107  1  0  0  0
 42108  1  0  0  0
 43 44  1  0  0  0
 44109  1  0  0  0
 45 46  2  0  0  0
 45110  1  0  0  0
 46111  1  0  0  0
 47112  1  0  0  0
 47113  1  0  0  0
 48 56  1  0  0  0
 48 65  1  0  0  0
 48114  1  0  0  0
 49 50  1  0  0  0
 49 53  1  0  0  0
 49 64  1  0  0  0
 49115  1  0  0  0
 50 51  1  0  0  0
 50116  1  0  0  0
 50117  1  0  0  0
 51 52  1  0  0  0
 51118  1  0  0  0
 51119  1  0  0  0
 52120  1  0  0  0
 52121  1  0  0  0
 53 54  1  0  0  0
 54 55  2  0  0  0
 54122  1  0  0  0
 55 57  1  0  0  0
 55123  1  0  0  0
 56 69  2  0  0  0
 57 58  2  0  0  0
 57124  1  0  0  0
 58125  1  0  0  0
 59 60  1  0  0  0
 59 61  1  0  0  0
 59 62  1  0  0  0
 60126  1  0  0  0
 60127  1  0  0  0
 60128  1  0  0  0
 61129  1  0  0  0
 61130  1  0  0  0
 61131  1  0  0  0
 62132  1  0  0  0
 62133  1  0  0  0
 62134  1  0  0  0
 63 65  1  0  0  0
 63135  1  0  0  0
 63136  1  0  0  0
 63137  1  0  0  0
 64138  1  0  0  0
 65139  1  0  0  0
 68 75  1  0  0  0
 71140  1  0  0  0
 71141  1  0  0  0
 71142  1  0  0  0
 71 76  1  0  0  0
 72 76  1  0  0  0
 72143  1  0  0  0
 72144  1  0  0  0
 72145  1  0  0  0
 73 74  1  0  0  0
 73 75  1  0  0  0
 73146  1  0  0  0
 73147  1  0  0  0
 74 77  1  0  0  0
 74148  1  0  0  0
 74149  1  0  0  0
 75150  1  0  0  0
 75151  1  0  0  0
 76 78  1  0  0  0
 76152  1  0  0  0
 77 78  1  0  0  0
 77 79  1  0  0  0
 77 80  1  0  0  0
M  ISO  4   1 100  68 101  75 101  78 100
M  END
> <chiral flag>
0

> <version>
0

> <s_m_source_file>
/data/baiqing/PycharmProjects/Reinvent-master-3.2/result/LINK_invent/BTK/process_docking_weight1_custom_sum_contain_oxygen_bond_distance_aromatic_linkinvent_7_9_3/rearranged_h_0014.sdf

> <i_m_source_file_index>
57

> <r_mmod_Potential_Energy-OPLS-2005>
2524.48828125

> <r_mmod_Stretch_Energy-OPLS-2005>
1094.61352539062

> <r_mmod_Bend_Energy-OPLS-2005>
619.2685546875

> <r_mmod_Torsional_Energy-OPLS-2005>
309.684295654297

> <r_mmod_Improper_Torsional_Energy-OPLS-2005>
10.9346485137939

> <r_mmod_Van_der_Waal_Energy-OPLS-2005>
113.244598388672

> <r_mmod_Electrostatic_Energy-OPLS-2005>
-261.906372070312

> <r_mmod_Solvation_Energy-OPLS-2005>
-189.787475585938

> <b_mmod_Minimization_Converged-OPLS-2005>
0

> <r_mmod_RMS_Derivative-OPLS-2005>
0.261052817106247

$$$$
57
                    3D
 Structure written by MMmdl.
157165  0  0  1  0            999 V2000
  -30.5920  -14.6989   20.4857 C   0  0  0  0  0  0
  -30.4458  -12.4316   19.4460 C   0  0  0  0  0  0
  -29.5066  -12.4933   18.2212 C   0  0  0  0  0  0
  -28.0324  -12.3173   18.6435 C   0  0  0  0  0  0
  -27.6459  -13.2115   19.8511 C   0  0  2  0  0  0
  -28.6947  -13.1062   20.9802 C   0  0  0  0  0  0
  -25.2555  -13.8147   20.5673 C   0  0  0  0  0  0
  -24.1822  -13.0418   20.9187 C   0  0  0  0  0  0
  -24.6383  -11.6885   20.8750 C   0  0  0  0  0  0
  -23.9048  -10.4271   21.0411 C   0  0  0  0  0  0
  -24.3599   -9.4189   21.9196 C   0  0  0  0  0  0
  -23.6272   -8.2230   22.0757 C   0  0  0  0  0  0
  -22.4261   -8.0264   21.3540 C   0  0  0  0  0  0
  -21.9894   -9.0238   20.4646 C   0  0  0  0  0  0
  -22.7220  -10.2122   20.3059 C   0  0  0  0  0  0
  -21.6856   -6.0719   22.5269 C   0  0  0  0  0  0
  -21.4005   -6.5629   23.8200 C   0  0  0  0  0  0
  -21.3651   -5.6789   24.9171 C   0  0  0  0  0  0
  -21.6055   -4.3049   24.7227 C   0  0  0  0  0  0
  -21.8824   -3.8133   23.4349 C   0  0  0  0  0  0
  -21.9186   -4.6944   22.3398 C   0  0  0  0  0  0
  -22.7856  -13.5224   21.1849 C   0  0  0  0  0  0
  -22.1667   -4.2127   21.0977 F   0  0  0  0  0  0
  -21.5627   -3.4535   25.7742 F   0  0  0  0  0  0
  -29.9927  -13.4683   20.3947 N   0  0  0  0  0  0
  -26.2962  -12.9315   20.3287 N   0  0  0  0  0  0
  -25.9307  -11.6484   20.5768 N   0  0  0  0  0  0
  -22.0494  -12.8212   22.0402 N   0  0  0  0  0  0
  -25.4256  -15.1866   20.4059 N   0  0  0  0  0  0
  -31.7834  -14.8461   20.1955 O   0  0  0  0  0  0
  -21.6634   -6.8862   21.4236 O   0  0  0  0  0  0
  -22.3549  -14.5535   20.6700 O   0  0  0  0  0  0
  -24.6290  -31.8574   23.2009 C   0  0  0  0  0  0
  -25.9119  -32.4781   23.8359 C   0  0  1  0  0  0
  -27.2236  -27.2940   20.1292 C   0  0  0  0  0  0
  -25.5925  -33.8595   24.2285 N   0  0  0  0  0  0
  -23.4264  -30.4801   21.5415 C   0  0  2  0  0  0
  -24.8738  -28.9257   20.1165 C   0  0  0  0  0  0
  -22.7516  -29.4611   22.4917 C   0  0  0  0  0  0
  -18.0284  -28.1375   22.8469 C   0  0  0  0  0  0
  -24.1483  -36.7285   23.2642 C   0  0  0  0  0  0
  -25.9703  -30.7787   21.3772 C   0  0  0  0  0  0
  -26.0433  -29.4041   20.7204 C   0  0  0  0  0  0
  -27.2265  -28.6022   20.7095 C   0  0  0  0  0  0
  -26.0342  -26.8675   19.5050 C   0  0  0  0  0  0
  -24.8729  -27.6650   19.4970 C   0  0  0  0  0  0
  -23.6462  -29.8145   20.1586 C   0  0  0  0  0  0
  -25.4104  -36.3092   24.0337 C   0  0  1  0  0  0
  -20.5901  -28.3688   23.1264 C   0  0  2  0  0  0
  -20.6781  -26.9410   22.5397 C   0  0  0  0  0  0
  -19.5753  -26.6364   21.5211 C   0  0  0  0  0  0
  -18.1926  -26.7913   22.1610 C   0  0  0  0  0  0
  -19.1543  -28.8845   23.2869 C   0  0  0  0  0  0
  -18.9477  -30.1441   23.8896 C   0  0  0  0  0  0
  -17.6486  -30.6580   24.0554 C   0  0  0  0  0  0
  -25.9039  -34.9459   23.5109 C   0  0  0  0  0  0
  -16.5377  -29.9076   23.6333 C   0  0  0  0  0  0
  -16.7278  -28.6499   23.0349 C   0  0  0  0  0  0
  -26.4493  -31.6620   25.0752 C   0  0  0  0  0  0
  -25.3719  -31.3740   26.1481 C   0  0  0  0  0  0
  -27.0362  -30.3055   24.6202 C   0  0  0  0  0  0
  -27.6059  -32.4374   25.7495 C   0  0  0  0  0  0
  -27.5589  -37.1779   24.8463 C   0  0  0  0  0  0
  -21.4228  -29.3058   22.3686 N   0  0  0  0  0  0
  -26.4278  -37.3797   23.9435 N   0  0  0  0  0  0
  -24.6945  -31.0581   22.0960 N   0  0  0  0  0  0
  -23.4226  -28.8132   23.2990 O   0  0  0  0  0  0
  -28.3314  -26.4303   20.1283 O   0  0  0  0  0  0
  -26.5630  -34.8929   22.4683 O   0  0  0  0  0  0
  -23.5438  -32.1362   23.7311 O   0  0  0  0  0  0
  -30.1070  -19.8363   22.1226 C   0  0  0  0  0  0
  -29.5147  -19.6711   20.8540 C   0  0  0  0  0  0
  -29.9700  -17.1682   21.0620 C   0  0  0  0  0  0
  -30.6132  -18.7357   22.8564 C   0  0  0  0  0  0
  -29.4285  -18.3126   20.3546 C   0  0  0  0  0  0
  -30.5706  -17.4253   22.3218 C   0  0  0  0  0  0
  -30.5295  -19.8385   24.9675 C   0  0  0  0  0  0
  -28.9999  -20.9483   20.0616 C   0  0  0  0  0  0
  -28.9349  -22.4015   20.7637 C   0  0  0  0  0  0
  -28.6241  -23.7362   19.9145 C   0  0  0  0  0  0
  -28.1751  -25.0630   20.7026 C   0  0  0  0  0  0
  -29.7448  -15.7773   20.6254 N   0  0  0  0  0  0
  -31.1570  -18.8899   24.1144 O   0  0  0  0  0  0
  -28.7977  -18.0973   19.1755 F   0  0  0  0  0  0
  -31.1671  -16.1326   23.3126 Cl  0  0  0  0  0  0
  -31.4795  -12.5863   19.1344 H   0  0  0  0  0  0
  -30.4131  -11.4467   19.9145 H   0  0  0  0  0  0
  -29.7801  -11.7229   17.4997 H   0  0  0  0  0  0
  -29.6295  -13.4489   17.7095 H   0  0  0  0  0  0
  -27.8908  -11.2675   18.9067 H   0  0  0  0  0  0
  -27.3692  -12.5097   17.7981 H   0  0  0  0  0  0
  -27.6492  -14.2366   19.4812 H   0  0  0  0  0  0
  -28.7321  -12.0927   21.3829 H   0  0  0  0  0  0
  -28.4402  -13.7570   21.8185 H   0  0  0  0  0  0
  -25.2744   -9.5669   22.4767 H   0  0  0  0  0  0
  -23.9976   -7.4629   22.7480 H   0  0  0  0  0  0
  -21.0825   -8.8756   19.8958 H   0  0  0  0  0  0
  -22.3675  -10.9661   19.6163 H   0  0  0  0  0  0
  -21.2002   -7.6135   23.9693 H   0  0  0  0  0  0
  -21.1474   -6.0522   25.9071 H   0  0  0  0  0  0
  -22.0610   -2.7590   23.2859 H   0  0  0  0  0  0
  -22.4105  -11.9863   22.4780 H   0  0  0  0  0  0
  -21.1119  -13.1256   22.2621 H   0  0  0  0  0  0
  -24.6500  -15.8323   20.5036 H   0  0  0  0  0  0
  -26.2540  -15.6272   20.0286 H   0  0  0  0  0  0
  -26.7197  -32.5421   23.1105 H   0  0  0  0  0  0
  -25.0124  -33.9754   25.0468 H   0  0  0  0  0  0
  -22.7186  -31.2985   21.3942 H   0  0  0  0  0  0
  -23.3790  -35.9582   23.3275 H   0  0  0  0  0  0
  -24.3569  -36.8927   22.2067 H   0  0  0  0  0  0
  -23.7193  -37.6449   23.6684 H   0  0  0  0  0  0
  -26.1114  -31.5377   20.6060 H   0  0  0  0  0  0
  -26.8491  -30.8230   22.0108 H   0  0  0  0  0  0
  -28.1291  -28.9679   21.1778 H   0  0  0  0  0  0
  -26.0027  -25.8987   19.0258 H   0  0  0  0  0  0
  -23.9785  -27.2935   19.0171 H   0  0  0  0  0  0
  -23.7798  -30.5920   19.4049 H   0  0  0  0  0  0
  -22.7637  -29.2543   19.8459 H   0  0  0  0  0  0
  -25.1274  -36.1943   25.0830 H   0  0  0  0  0  0
  -20.9984  -28.3254   24.1384 H   0  0  0  0  0  0
  -20.5693  -26.2298   23.3589 H   0  0  0  0  0  0
  -21.6634  -26.7419   22.1189 H   0  0  0  0  0  0
  -19.6927  -25.6280   21.1229 H   0  0  0  0  0  0
  -19.6697  -27.3186   20.6754 H   0  0  0  0  0  0
  -17.4207  -26.6682   21.4005 H   0  0  0  0  0  0
  -18.0313  -26.0038   22.8982 H   0  0  0  0  0  0
  -19.7974  -30.7246   24.2265 H   0  0  0  0  0  0
  -17.5048  -31.6259   24.5156 H   0  0  0  0  0  0
  -15.5382  -30.2986   23.7655 H   0  0  0  0  0  0
  -15.8662  -28.0816   22.7072 H   0  0  0  0  0  0
  -24.5890  -30.7094   25.7798 H   0  0  0  0  0  0
  -24.8914  -32.2899   26.4944 H   0  0  0  0  0  0
  -25.8028  -30.8885   27.0247 H   0  0  0  0  0  0
  -26.2944  -29.6771   24.1256 H   0  0  0  0  0  0
  -27.4132  -29.7330   25.4690 H   0  0  0  0  0  0
  -27.8767  -30.4376   23.9382 H   0  0  0  0  0  0
  -27.2707  -33.3717   26.2006 H   0  0  0  0  0  0
  -28.3876  -32.6876   25.0310 H   0  0  0  0  0  0
  -28.0714  -31.8546   26.5441 H   0  0  0  0  0  0
  -28.2567  -38.0120   24.7596 H   0  0  0  0  0  0
  -28.1127  -36.2659   24.6186 H   0  0  0  0  0  0
  -27.2318  -37.1304   25.8864 H   0  0  0  0  0  0
  -20.9422  -29.8795   21.6905 H   0  0  0  0  0  0
  -26.0166  -38.2861   24.1491 H   0  0  0  0  0  0
  -30.1741  -20.8280   22.5399 H   0  0  0  0  0  0
  -30.8783  -19.6821   25.9889 H   0  0  0  0  0  0
  -29.4434  -19.7165   24.9706 H   0  0  0  0  0  0
  -30.7735  -20.8651   24.6919 H   0  0  0  0  0  0
  -28.0041  -20.7109   19.6848 H   0  0  0  0  0  0
  -29.6275  -21.0289   19.1734 H   0  0  0  0  0  0
  -29.8964  -22.5838   21.2419 H   0  0  0  0  0  0
  -28.2118  -22.3453   21.5782 H   0  0  0  0  0  0
  -27.8580  -23.5106   19.1730 H   0  0  0  0  0  0
  -29.5190  -23.9678   19.3366 H   0  0  0  0  0  0
  -28.7527  -25.0858   21.6272 H   0  0  0  0  0  0
  -27.1482  -24.9132   21.0412 H   0  0  0  0  0  0
  -28.7722  -15.5393   20.5317 H   0  0  0  0  0  0
  1 25  1  0  0  0
  1 30  2  0  0  0
  1 82  1  0  0  0
  2  3  1  0  0  0
  2 25  1  0  0  0
  2 86  1  0  0  0
  2 87  1  0  0  0
  3  4  1  0  0  0
  3 88  1  0  0  0
  3 89  1  0  0  0
  4  5  1  0  0  0
  4 90  1  0  0  0
  4 91  1  0  0  0
  5  6  1  0  0  0
  5 26  1  0  0  0
  5 92  1  0  0  0
  6 25  1  0  0  0
  6 93  1  0  0  0
  6 94  1  0  0  0
  7  8  2  0  0  0
  7 26  1  0  0  0
  7 29  1  0  0  0
  8  9  1  0  0  0
  8 22  1  0  0  0
  9 10  1  0  0  0
  9 27  2  0  0  0
 10 11  2  0  0  0
 10 15  1  0  0  0
 11 12  1  0  0  0
 11 95  1  0  0  0
 12 13  2  0  0  0
 12 96  1  0  0  0
 13 14  1  0  0  0
 13 31  1  0  0  0
 14 15  2  0  0  0
 14 97  1  0  0  0
 15 98  1  0  0  0
 16 17  2  0  0  0
 16 21  1  0  0  0
 16 31  1  0  0  0
 17 18  1  0  0  0
 17 99  1  0  0  0
 18 19  2  0  0  0
 18100  1  0  0  0
 19 20  1  0  0  0
 19 24  1  0  0  0
 20 21  2  0  0  0
 20101  1  0  0  0
 21 23  1  0  0  0
 22 28  1  0  0  0
 22 32  2  0  0  0
 26 27  1  0  0  0
 28102  1  0  0  0
 28103  1  0  0  0
 29104  1  0  0  0
 29105  1  0  0  0
 33 34  1  0  0  0
 33 66  1  0  0  0
 33 70  2  0  0  0
 34 36  1  0  0  0
 34 59  1  0  0  0
 34106  1  0  0  0
 35 44  2  0  0  0
 35 45  1  0  0  0
 35 68  1  0  0  0
 36 56  1  0  0  0
 36107  1  0  0  0
 37 39  1  0  0  0
 37 47  1  0  0  0
 37 66  1  0  0  0
 37108  1  0  0  0
 38 43  2  0  0  0
 38 46  1  0  0  0
 38 47  1  0  0  0
 39 64  1  0  0  0
 39 67  2  0  0  0
 40 52  1  0  0  0
 40 53  2  0  0  0
 40 58  1  0  0  0
 41109  1  0  0  0
 41110  1  0  0  0
 41111  1  0  0  0
 41 48  1  0  0  0
 42 43  1  0  0  0
 42 66  1  0  0  0
 42112  1  0  0  0
 42113  1  0  0  0
 43 44  1  0  0  0
 44114  1  0  0  0
 45 46  2  0  0  0
 45115  1  0  0  0
 46116  1  0  0  0
 47117  1  0  0  0
 47118  1  0  0  0
 48 56  1  0  0  0
 48 65  1  0  0  0
 48119  1  0  0  0
 49 50  1  0  0  0
 49 53  1  0  0  0
 49 64  1  0  0  0
 49120  1  0  0  0
 50 51  1  0  0  0
 50121  1  0  0  0
 50122  1  0  0  0
 51 52  1  0  0  0
 51123  1  0  0  0
 51124  1  0  0  0
 52125  1  0  0  0
 52126  1  0  0  0
 53 54  1  0  0  0
 54 55  2  0  0  0
 54127  1  0  0  0
 55 57  1  0  0  0
 55128  1  0  0  0
 56 69  2  0  0  0
 57 58  2  0  0  0
 57129  1  0  0  0
 58130  1  0  0  0
 59 60  1  0  0  0
 59 61  1  0  0  0
 59 62  1  0  0  0
 60131  1  0  0  0
 60132  1  0  0  0
 60133  1  0  0  0
 61134  1  0  0  0
 61135  1  0  0  0
 61136  1  0  0  0
 62137  1  0  0  0
 62138  1  0  0  0
 62139  1  0  0  0
 63 65  1  0  0  0
 63140  1  0  0  0
 63141  1  0  0  0
 63142  1  0  0  0
 64143  1  0  0  0
 65144  1  0  0  0
 68 81  1  0  0  0
 71 72  2  0  0  0
 71 74  1  0  0  0
 71145  1  0  0  0
 72 75  1  0  0  0
 72 78  1  0  0  0
 73 75  2  0  0  0
 73 76  1  0  0  0
 73 82  1  0  0  0
 74 76  2  0  0  0
 74 83  1  0  0  0
 75 84  1  0  0  0
 76 85  1  0  0  0
 77 83  1  0  0  0
 77146  1  0  0  0
 77147  1  0  0  0
 77148  1  0  0  0
 78 79  1  0  0  0
 78149  1  0  0  0
 78150  1  0  0  0
 79 80  1  0  0  0
 79151  1  0  0  0
 79152  1  0  0  0
 80 81  1  0  0  0
 80153  1  0  0  0
 80154  1  0  0  0
 81155  1  0  0  0
 81156  1  0  0  0
 82157  1  0  0  0
M  ISO  4   1 100  68 101  81 101  82 100
M  END
> <chiral flag>
0

> <version>
0

> <s_m_source_file>
/data/baiqing/PycharmProjects/Reinvent-master-3.2/result/LINK_invent/BTK/process_docking_weight1_custom_sum_contain_oxygen_bond_distance_aromatic_linkinvent_7_9_3/rearranged_h_0014.sdf

> <i_m_source_file_index>
58

> <r_mmod_Potential_Energy-OPLS-2005>
132.595245361328

> <r_mmod_Stretch_Energy-OPLS-2005>
102.494491577148

> <r_mmod_Bend_Energy-OPLS-2005>
146.361114501953

> <r_mmod_Torsional_Energy-OPLS-2005>
270.233703613281

> <r_mmod_Improper_Torsional_Energy-OPLS-2005>
8.2309741973877

> <r_mmod_Van_der_Waal_Energy-OPLS-2005>
141.255798339844

> <r_mmod_Electrostatic_Energy-OPLS-2005>
-398.392364501953

> <r_mmod_Solvation_Energy-OPLS-2005>
-204.647659301758

> <b_mmod_Minimization_Converged-OPLS-2005>
0

> <r_mmod_RMS_Derivative-OPLS-2005>
2.78685164451599

$$$$
58
                    3D
 Structure written by MMmdl.
158166  0  0  1  0            999 V2000
  -30.5227  -15.0660   20.3326 C   0  0  0  0  0  0
  -30.4543  -12.6787   19.4657 C   0  0  0  0  0  0
  -29.5182  -12.5300   18.2448 C   0  0  0  0  0  0
  -28.0542  -12.3165   18.6743 C   0  0  0  0  0  0
  -27.6243  -13.2623   19.8217 C   0  0  2  0  0  0
  -28.6822  -13.3413   20.9467 C   0  0  0  0  0  0
  -25.2456  -13.8227   20.5743 C   0  0  0  0  0  0
  -24.1781  -13.0438   20.9215 C   0  0  0  0  0  0
  -24.6371  -11.6925   20.8734 C   0  0  0  0  0  0
  -23.9059  -10.4317   21.0376 C   0  0  0  0  0  0
  -24.3621   -9.4240   21.9151 C   0  0  0  0  0  0
  -23.6314   -8.2267   22.0714 C   0  0  0  0  0  0
  -22.4301   -8.0272   21.3479 C   0  0  0  0  0  0
  -21.9912   -9.0243   20.4575 C   0  0  0  0  0  0
  -22.7226  -10.2137   20.3023 C   0  0  0  0  0  0
  -21.6849   -6.0718   22.5264 C   0  0  0  0  0  0
  -21.4026   -6.5619   23.8195 C   0  0  0  0  0  0
  -21.3694   -5.6755   24.9161 C   0  0  0  0  0  0
  -21.6079   -4.3016   24.7211 C   0  0  0  0  0  0
  -21.8834   -3.8119   23.4319 C   0  0  0  0  0  0
  -21.9208   -4.6947   22.3386 C   0  0  0  0  0  0
  -22.7786  -13.5174   21.1853 C   0  0  0  0  0  0
  -22.1664   -4.2120   21.0955 F   0  0  0  0  0  0
  -21.5639   -3.4509   25.7737 F   0  0  0  0  0  0
  -29.9394  -13.7888   20.3261 N   0  0  0  0  0  0
  -26.2894  -12.9487   20.3227 N   0  0  0  0  0  0
  -25.9327  -11.6601   20.5678 N   0  0  0  0  0  0
  -22.0489  -12.8176   22.0448 N   0  0  0  0  0  0
  -25.4162  -15.1974   20.4186 N   0  0  0  0  0  0
  -31.7308  -15.0987   20.0740 O   0  0  0  0  0  0
  -21.6649   -6.8869   21.4206 O   0  0  0  0  0  0
  -22.3459  -14.5452   20.6659 O   0  0  0  0  0  0
  -24.6474  -31.8368   23.1857 C   0  0  0  0  0  0
  -25.9217  -32.4643   23.8288 C   0  0  1  0  0  0
  -27.2464  -27.0995   20.1402 C   0  0  0  0  0  0
  -25.5955  -33.8462   24.2218 N   0  0  0  0  0  0
  -23.4570  -30.4502   21.5284 C   0  0  2  0  0  0
  -24.9100  -28.8626   20.1144 C   0  0  0  0  0  0
  -22.7565  -29.4522   22.4845 C   0  0  0  0  0  0
  -18.0306  -28.1416   22.8455 C   0  0  0  0  0  0
  -24.1494  -36.7265   23.2643 C   0  0  0  0  0  0
  -26.0103  -30.6929   21.3883 C   0  0  0  0  0  0
  -26.0847  -29.2976   20.7375 C   0  0  0  0  0  0
  -27.2519  -28.4337   20.7308 C   0  0  0  0  0  0
  -26.0440  -26.7777   19.4738 C   0  0  0  0  0  0
  -24.9063  -27.6199   19.4625 C   0  0  0  0  0  0
  -23.6865  -29.7682   20.1532 C   0  0  0  0  0  0
  -25.4111  -36.3004   24.0325 C   0  0  1  0  0  0
  -20.5908  -28.3778   23.1208 C   0  0  2  0  0  0
  -20.6808  -26.9478   22.5393 C   0  0  0  0  0  0
  -19.5805  -26.6406   21.5189 C   0  0  0  0  0  0
  -18.1975  -26.7948   22.1590 C   0  0  0  0  0  0
  -19.1556  -28.8906   23.2818 C   0  0  0  0  0  0
  -18.9451  -30.1473   23.8894 C   0  0  0  0  0  0
  -17.6453  -30.6603   24.0549 C   0  0  0  0  0  0
  -25.9052  -34.9365   23.5086 C   0  0  0  0  0  0
  -16.5360  -29.9103   23.6314 C   0  0  0  0  0  0
  -16.7283  -28.6512   23.0367 C   0  0  0  0  0  0
  -26.4550  -31.6489   25.0722 C   0  0  0  0  0  0
  -25.3803  -31.3593   26.1463 C   0  0  0  0  0  0
  -27.0384  -30.2885   24.6256 C   0  0  0  0  0  0
  -27.6103  -32.4247   25.7498 C   0  0  0  0  0  0
  -27.5583  -37.1780   24.8454 C   0  0  0  0  0  0
  -21.4263  -29.3090   22.3566 N   0  0  0  0  0  0
  -26.4280  -37.3712   23.9409 N   0  0  0  0  0  0
  -24.7247  -31.0177   22.0909 N   0  0  0  0  0  0
  -23.4152  -28.8093   23.3053 O   0  0  0  0  0  0
  -28.3261  -26.1219   20.1393 O   0  0  0  0  0  0
  -26.5628  -34.8871   22.4661 O   0  0  0  0  0  0
  -23.5574  -32.1264   23.7052 O   0  0  0  0  0  0
  -30.8255  -17.9817   18.9055 C   0  0  0  0  0  0
  -30.9956  -19.2484   18.2889 C   0  0  0  0  0  0
  -29.2642  -19.0336   20.4449 C   0  0  0  0  0  0
  -29.9484  -17.7642   19.9949 C   0  0  0  0  0  0
  -29.4636  -20.4195   19.8714 C   0  0  0  0  0  0
  -30.3270  -20.4152   18.7418 C   0  0  0  0  0  0
  -31.9080  -19.3660   17.0763 C   0  0  0  0  0  0
  -28.2280  -18.8932   21.5488 C   0  0  0  0  0  0
  -30.5978  -23.5830   20.2246 C   0  0  0  0  0  0
  -28.1417  -24.5676   20.3654 C   0  0  0  0  0  0
  -29.1278  -23.2420   19.8834 C   0  0  2  0  0  0
  -29.7609  -16.2845   20.4641 N   0  0  0  0  0  0
  -28.8563  -21.7331   20.3099 N   0  0  0  0  0  0
  -30.5104  -21.5508   18.0206 F   0  0  0  0  0  0
  -31.4623  -12.8826   19.0980 H   0  0  0  0  0  0
  -30.5262  -11.7527   20.0371 H   0  0  0  0  0  0
  -29.8433  -11.6960   17.6267 H   0  0  0  0  0  0
  -29.5846  -13.4187   17.6160 H   0  0  0  0  0  0
  -27.9468  -11.2756   18.9821 H   0  0  0  0  0  0
  -27.3905  -12.4516   17.8165 H   0  0  0  0  0  0
  -27.5684  -14.2531   19.3708 H   0  0  0  0  0  0
  -28.8178  -12.3742   21.4320 H   0  0  0  0  0  0
  -28.3696  -14.0446   21.7217 H   0  0  0  0  0  0
  -25.2782   -9.5738   22.4707 H   0  0  0  0  0  0
  -24.0033   -7.4650   22.7425 H   0  0  0  0  0  0
  -21.0840   -8.8739   19.8870 H   0  0  0  0  0  0
  -22.3649  -10.9671   19.6143 H   0  0  0  0  0  0
  -21.2018   -7.6120   23.9697 H   0  0  0  0  0  0
  -21.1498   -6.0465   25.9037 H   0  0  0  0  0  0
  -22.0597   -2.7571   23.2822 H   0  0  0  0  0  0
  -22.4123  -11.9869   22.4903 H   0  0  0  0  0  0
  -21.1070  -13.1121   22.2596 H   0  0  0  0  0  0
  -24.6511  -15.8523   20.5399 H   0  0  0  0  0  0
  -26.2469  -15.6356   20.0454 H   0  0  0  0  0  0
  -26.7278  -32.5225   23.1008 H   0  0  0  0  0  0
  -25.0160  -33.9566   25.0403 H   0  0  0  0  0  0
  -22.7641  -31.2755   21.3628 H   0  0  0  0  0  0
  -23.3764  -35.9590   23.3229 H   0  0  0  0  0  0
  -24.3606  -36.8983   22.2084 H   0  0  0  0  0  0
  -23.7239  -37.6433   23.6729 H   0  0  0  0  0  0
  -26.1570  -31.4340   20.6031 H   0  0  0  0  0  0
  -26.8873  -30.7592   22.0203 H   0  0  0  0  0  0
  -28.1488  -28.7669   21.2308 H   0  0  0  0  0  0
  -25.9683  -25.8398   18.9399 H   0  0  0  0  0  0
  -24.0194  -27.2948   18.9377 H   0  0  0  0  0  0
  -23.8206  -30.5338   19.3892 H   0  0  0  0  0  0
  -22.8030  -29.2035   19.8486 H   0  0  0  0  0  0
  -25.1282  -36.1861   25.0808 H   0  0  0  0  0  0
  -20.9973  -28.3405   24.1339 H   0  0  0  0  0  0
  -20.5741  -26.2389   23.3621 H   0  0  0  0  0  0
  -21.6676  -26.7522   22.1185 H   0  0  0  0  0  0
  -19.7012  -25.6299   21.1281 H   0  0  0  0  0  0
  -19.6783  -27.3163   20.6680 H   0  0  0  0  0  0
  -17.4253  -26.6663   21.3990 H   0  0  0  0  0  0
  -18.0411  -26.0089   22.8992 H   0  0  0  0  0  0
  -19.7910  -30.7267   24.2330 H   0  0  0  0  0  0
  -17.4999  -31.6286   24.5164 H   0  0  0  0  0  0
  -15.5362  -30.3020   23.7624 H   0  0  0  0  0  0
  -15.8667  -28.0802   22.7152 H   0  0  0  0  0  0
  -24.6041  -30.6854   25.7801 H   0  0  0  0  0  0
  -24.8947  -32.2722   26.4918 H   0  0  0  0  0  0
  -25.8210  -30.8786   27.0219 H   0  0  0  0  0  0
  -26.2934  -29.6626   24.1341 H   0  0  0  0  0  0
  -27.4057  -29.7143   25.4772 H   0  0  0  0  0  0
  -27.8827  -30.4086   23.9477 H   0  0  0  0  0  0
  -27.2720  -33.3588   26.1983 H   0  0  0  0  0  0
  -28.3970  -32.6746   25.0367 H   0  0  0  0  0  0
  -28.0704  -31.8442   26.5503 H   0  0  0  0  0  0
  -28.2529  -38.0133   24.7518 H   0  0  0  0  0  0
  -28.1149  -36.2675   24.6242 H   0  0  0  0  0  0
  -27.2310  -37.1348   25.8848 H   0  0  0  0  0  0
  -20.9521  -29.8708   21.6633 H   0  0  0  0  0  0
  -26.0162  -38.2775   24.1430 H   0  0  0  0  0  0
  -31.3523  -17.1362   18.4818 H   0  0  0  0  0  0
  -32.6369  -18.5562   17.0226 H   0  0  0  0  0  0
  -32.4705  -20.3020   17.1091 H   0  0  0  0  0  0
  -31.3239  -19.3623   16.1549 H   0  0  0  0  0  0
  -28.4497  -18.0472   22.1999 H   0  0  0  0  0  0
  -27.2433  -18.7236   21.1041 H   0  0  0  0  0  0
  -28.1687  -19.7835   22.1758 H   0  0  0  0  0  0
  -30.8880  -24.5567   19.8333 H   0  0  0  0  0  0
  -31.3014  -22.8739   19.7891 H   0  0  0  0  0  0
  -30.7869  -23.5954   21.2981 H   0  0  0  0  0  0
  -28.1010  -24.4940   21.4529 H   0  0  0  0  0  0
  -27.1318  -24.3175   20.0430 H   0  0  0  0  0  0
  -29.0592  -23.2520   18.7915 H   0  0  0  0  0  0
  -28.8524  -16.1173   20.8719 H   0  0  0  0  0  0
  -28.3027  -21.6659   21.1573 H   0  0  0  0  0  0
  1 25  1  0  0  0
  1 30  2  0  0  0
  1 82  1  0  0  0
  2  3  1  0  0  0
  2 25  1  0  0  0
  2 85  1  0  0  0
  2 86  1  0  0  0
  3  4  1  0  0  0
  3 87  1  0  0  0
  3 88  1  0  0  0
  4  5  1  0  0  0
  4 89  1  0  0  0
  4 90  1  0  0  0
  5  6  1  0  0  0
  5 26  1  0  0  0
  5 91  1  0  0  0
  6 25  1  0  0  0
  6 92  1  0  0  0
  6 93  1  0  0  0
  7  8  2  0  0  0
  7 26  1  0  0  0
  7 29  1  0  0  0
  8  9  1  0  0  0
  8 22  1  0  0  0
  9 10  1  0  0  0
  9 27  2  0  0  0
 10 11  2  0  0  0
 10 15  1  0  0  0
 11 12  1  0  0  0
 11 94  1  0  0  0
 12 13  2  0  0  0
 12 95  1  0  0  0
 13 14  1  0  0  0
 13 31  1  0  0  0
 14 15  2  0  0  0
 14 96  1  0  0  0
 15 97  1  0  0  0
 16 17  2  0  0  0
 16 21  1  0  0  0
 16 31  1  0  0  0
 17 18  1  0  0  0
 17 98  1  0  0  0
 18 19  2  0  0  0
 18 99  1  0  0  0
 19 20  1  0  0  0
 19 24  1  0  0  0
 20 21  2  0  0  0
 20100  1  0  0  0
 21 23  1  0  0  0
 22 28  1  0  0  0
 22 32  2  0  0  0
 26 27  1  0  0  0
 28101  1  0  0  0
 28102  1  0  0  0
 29103  1  0  0  0
 29104  1  0  0  0
 33 34  1  0  0  0
 33 66  1  0  0  0
 33 70  2  0  0  0
 34 36  1  0  0  0
 34 59  1  0  0  0
 34105  1  0  0  0
 35 44  2  0  0  0
 35 45  1  0  0  0
 35 68  1  0  0  0
 36 56  1  0  0  0
 36106  1  0  0  0
 37 39  1  0  0  0
 37 47  1  0  0  0
 37 66  1  0  0  0
 37107  1  0  0  0
 38 43  2  0  0  0
 38 46  1  0  0  0
 38 47  1  0  0  0
 39 64  1  0  0  0
 39 67  2  0  0  0
 40 52  1  0  0  0
 40 53  2  0  0  0
 40 58  1  0  0  0
 41108  1  0  0  0
 41109  1  0  0  0
 41110  1  0  0  0
 41 48  1  0  0  0
 42 43  1  0  0  0
 42 66  1  0  0  0
 42111  1  0  0  0
 42112  1  0  0  0
 43 44  1  0  0  0
 44113  1  0  0  0
 45 46  2  0  0  0
 45114  1  0  0  0
 46115  1  0  0  0
 47116  1  0  0  0
 47117  1  0  0  0
 48 56  1  0  0  0
 48 65  1  0  0  0
 48118  1  0  0  0
 49 50  1  0  0  0
 49 53  1  0  0  0
 49 64  1  0  0  0
 49119  1  0  0  0
 50 51  1  0  0  0
 50120  1  0  0  0
 50121  1  0  0  0
 51 52  1  0  0  0
 51122  1  0  0  0
 51123  1  0  0  0
 52124  1  0  0  0
 52125  1  0  0  0
 53 54  1  0  0  0
 54 55  2  0  0  0
 54126  1  0  0  0
 55 57  1  0  0  0
 55127  1  0  0  0
 56 69  2  0  0  0
 57 58  2  0  0  0
 57128  1  0  0  0
 58129  1  0  0  0
 59 60  1  0  0  0
 59 61  1  0  0  0
 59 62  1  0  0  0
 60130  1  0  0  0
 60131  1  0  0  0
 60132  1  0  0  0
 61133  1  0  0  0
 61134  1  0  0  0
 61135  1  0  0  0
 62136  1  0  0  0
 62137  1  0  0  0
 62138  1  0  0  0
 63 65  1  0  0  0
 63139  1  0  0  0
 63140  1  0  0  0
 63141  1  0  0  0
 64142  1  0  0  0
 65143  1  0  0  0
 68 80  1  0  0  0
 71 72  2  0  0  0
 71 74  1  0  0  0
 71144  1  0  0  0
 72 76  1  0  0  0
 72 77  1  0  0  0
 73 74  2  0  0  0
 73 75  1  0  0  0
 73 78  1  0  0  0
 74 82  1  0  0  0
 75 76  2  0  0  0
 75 83  1  0  0  0
 76 84  1  0  0  0
 77145  1  0  0  0
 77146  1  0  0  0
 77147  1  0  0  0
 78148  1  0  0  0
 78149  1  0  0  0
 78150  1  0  0  0
 79151  1  0  0  0
 79152  1  0  0  0
 79153  1  0  0  0
 79 81  1  0  0  0
 80 81  1  0  0  0
 80154  1  0  0  0
 80155  1  0  0  0
 81 83  1  0  0  0
 81156  1  0  0  0
 82157  1  0  0  0
 83158  1  0  0  0
M  ISO  4   1 100  68 101  80 101  82 100
M  END
> <chiral flag>
0

> <version>
0

> <s_m_source_file>
/data/baiqing/PycharmProjects/Reinvent-master-3.2/result/LINK_invent/BTK/process_docking_weight1_custom_sum_contain_oxygen_bond_distance_aromatic_linkinvent_7_9_3/rearranged_h_0014.sdf

> <i_m_source_file_index>
59

> <r_mmod_Potential_Energy-OPLS-2005>
668.455017089844

> <r_mmod_Stretch_Energy-OPLS-2005>
330.529052734375

> <r_mmod_Bend_Energy-OPLS-2005>
283.655212402344

> <r_mmod_Torsional_Energy-OPLS-2005>
229.191040039062

> <r_mmod_Improper_Torsional_Energy-OPLS-2005>
4.32999658584595

> <r_mmod_Van_der_Waal_Energy-OPLS-2005>
129.766845703125

> <r_mmod_Electrostatic_Energy-OPLS-2005>
-349.198791503906

> <r_mmod_Solvation_Energy-OPLS-2005>
-212.445358276367

> <b_mmod_Minimization_Converged-OPLS-2005>
0

> <r_mmod_RMS_Derivative-OPLS-2005>
6.16326189041138

$$$$
59
                    3D
 Structure written by MMmdl.
173181  0  0  1  0            999 V2000
  -29.1014  -15.8644   20.8922 C   0  0  0  0  0  0
  -30.1857  -13.4683   19.8057 C   0  0  0  0  0  0
  -29.5253  -12.8323   18.5164 C   0  0  0  0  0  0
  -28.1217  -12.2836   18.8136 C   0  0  0  0  0  0
  -27.4705  -13.2181   19.8425 C   0  0  2  0  0  0
  -28.2967  -13.3969   21.1054 C   0  0  0  0  0  0
  -25.1624  -13.7983   20.5487 C   0  0  0  0  0  0
  -24.1122  -13.0238   20.9285 C   0  0  0  0  0  0
  -24.5783  -11.6732   20.8762 C   0  0  0  0  0  0
  -23.8661  -10.4154   21.0524 C   0  0  0  0  0  0
  -24.3375   -9.4118   21.9273 C   0  0  0  0  0  0
  -23.6146   -8.2115   22.0781 C   0  0  0  0  0  0
  -22.4141   -8.0150   21.3557 C   0  0  0  0  0  0
  -21.9682   -9.0079   20.4669 C   0  0  0  0  0  0
  -22.6897  -10.1994   20.3113 C   0  0  0  0  0  0
  -21.6799   -6.0646   22.5295 C   0  0  0  0  0  0
  -21.3978   -6.5590   23.8221 C   0  0  0  0  0  0
  -21.3645   -5.6760   24.9203 C   0  0  0  0  0  0
  -21.6034   -4.3026   24.7260 C   0  0  0  0  0  0
  -21.8815   -3.8085   23.4402 C   0  0  0  0  0  0
  -21.9169   -4.6883   22.3437 C   0  0  0  0  0  0
  -22.7280  -13.5127   21.2080 C   0  0  0  0  0  0
  -22.1651   -4.2069   21.1013 F   0  0  0  0  0  0
  -21.5628   -3.4519   25.7789 F   0  0  0  0  0  0
  -29.2197  -14.3875   20.6602 N   0  0  0  0  0  0
  -26.1620  -12.8987   20.2537 N   0  0  0  0  0  0
  -25.8509  -11.6207   20.5343 N   0  0  0  0  0  0
  -21.9938  -12.8153   22.0647 N   0  0  0  0  0  0
  -25.3448  -15.1727   20.4027 N   0  0  0  0  0  0
  -30.3172  -16.1439   20.5891 O   0  0  0  0  0  0
  -21.6551   -6.8738   21.4246 O   0  0  0  0  0  0
  -22.3069  -14.5486   20.6982 O   0  0  0  0  0  0
  -24.6616  -31.9424   23.2502 C   0  0  0  0  0  0
  -25.9433  -32.5242   23.8972 C   0  0  1  0  0  0
  -27.0200  -27.4950   20.0102 C   0  0  0  0  0  0
  -25.6249  -33.8974   24.2850 N   0  0  0  0  0  0
  -23.5460  -30.5939   21.5502 C   0  0  2  0  0  0
  -25.1027  -29.4227   19.8270 C   0  0  0  0  0  0
  -23.1541  -29.4287   22.4875 C   0  0  0  0  0  0
  -17.9625  -27.0304   22.6792 C   0  0  0  0  0  0
  -24.1499  -36.7449   23.2579 C   0  0  0  0  0  0
  -26.0657  -30.8823   21.5153 C   0  0  0  0  0  0
  -26.1015  -29.5888   20.7579 C   0  0  0  0  0  0
  -27.1208  -28.6243   20.8554 C   0  0  0  0  0  0
  -26.4386  -27.6539   18.7795 C   0  0  0  0  0  0
  -25.4381  -28.6270   18.7050 C   0  0  0  0  0  0
  -23.8331  -30.2251   20.0464 C   0  0  0  0  0  0
  -25.4084  -36.3318   24.0370 C   0  0  1  0  0  0
  -21.5982  -27.6790   23.0204 C   0  0  2  0  0  0
  -21.8277  -25.9505   21.9398 C   0  0  0  0  0  0
  -20.1086  -24.7656   21.3135 C   0  0  0  0  0  0
  -18.1820  -25.3901   21.8712 C   0  0  0  0  0  0
  -20.0508  -28.2557   23.4493 C   0  0  0  0  0  0
  -19.6236  -29.8460   24.1547 C   0  0  0  0  0  0
  -17.9815  -30.3970   24.2487 C   0  0  0  0  0  0
  -25.9044  -34.9689   23.5308 C   0  0  0  0  0  0
  -16.5802  -29.5579   23.7148 C   0  0  0  0  0  0
  -16.5165  -27.9938   22.9816 C   0  0  0  0  0  0
  -26.4598  -31.6785   25.1221 C   0  0  0  0  0  0
  -25.3710  -31.3857   26.1785 C   0  0  0  0  0  0
  -27.0468  -30.3172   24.6773 C   0  0  0  0  0  0
  -27.6169  -32.4400   25.8065 C   0  0  0  0  0  0
  -27.5608  -37.1927   24.8452 C   0  0  0  0  0  0
  -21.9591  -28.9451   22.4210 N   0  0  0  0  0  0
  -26.4302  -37.3961   23.9426 N   0  0  0  0  0  0
  -24.7608  -31.1974   22.1269 N   0  0  0  0  0  0
  -23.9287  -28.9156   23.2832 O   0  0  0  0  0  0
  -26.2158  -26.4908   20.4071 O   0  0  0  0  0  0
  -26.5389  -34.9012   22.4739 O   0  0  0  0  0  0
  -23.5665  -32.1886   23.7752 O   0  0  0  0  0  0
  -18.4328  -29.1544   22.2783 C   0  0  0  0  0  0
  -19.1030  -26.4939   24.6985 C   0  0  0  0  0  0
  -18.2232  -28.0066   24.6120 C   0  0  0  0  0  0
  -19.4219  -28.4486   21.1520 C   0  0  0  0  0  0
  -19.9869  -25.8624   23.3791 C   0  0  0  0  0  0
  -19.8556  -27.0369   21.4760 C   0  0  0  0  0  0
  -17.5715  -28.3320   26.0045 C   0  0  0  0  0  0
  -23.1303  -25.9906   18.5044 C   0  0  0  0  0  0
  -20.6518  -28.8443   20.0522 C   0  0  0  0  0  0
  -23.8910  -21.6742   22.6463 C   0  0  0  0  0  0
  -24.9816  -19.7621   22.2344 C   0  0  0  0  0  0
  -22.0179  -22.7968   23.0739 C   0  0  0  0  0  0
  -26.8097  -18.6052   21.6520 C   0  0  0  0  0  0
  -24.6184  -26.7477   20.5326 C   0  0  0  0  0  0
  -23.2481  -27.2112   19.4477 C   0  0  2  0  0  0
  -20.9891  -24.3532   23.6849 N   0  0  0  0  0  0
  -27.7686  -16.8666   21.3212 N   0  0  0  0  0  0
  -21.7560  -27.6350   19.8824 N   0  3  0  0  0  0
  -19.2265  -26.6505   19.7495 Cl  0  0  0  0  0  0
  -31.0471  -14.0569   19.4897 H   0  0  0  0  0  0
  -30.6186  -12.6867   20.4338 H   0  0  0  0  0  0
  -30.1670  -12.0666   18.0821 H   0  0  0  0  0  0
  -29.4319  -13.6158   17.7646 H   0  0  0  0  0  0
  -28.2205  -11.2849   19.2375 H   0  0  0  0  0  0
  -27.5231  -12.1861   17.9083 H   0  0  0  0  0  0
  -27.3658  -14.1596   19.3029 H   0  0  0  0  0  0
  -28.7340  -12.4586   21.4575 H   0  0  0  0  0  0
  -27.7168  -13.7955   21.9397 H   0  0  0  0  0  0
  -25.2526   -9.5643   22.4840 H   0  0  0  0  0  0
  -23.9904   -7.4468   22.7428 H   0  0  0  0  0  0
  -21.0640   -8.8500   19.8945 H   0  0  0  0  0  0
  -22.3340  -10.9530   19.6224 H   0  0  0  0  0  0
  -21.1981   -7.6094   23.9712 H   0  0  0  0  0  0
  -21.1481   -6.0506   25.9104 H   0  0  0  0  0  0
  -22.0619   -2.7541   23.2924 H   0  0  0  0  0  0
  -22.3532  -11.9842   22.5058 H   0  0  0  0  0  0
  -21.0605  -13.1260   22.2944 H   0  0  0  0  0  0
  -24.5055  -15.7418   20.4465 H   0  0  0  0  0  0
  -25.9797  -15.5044   19.6874 H   0  0  0  0  0  0
  -26.7680  -32.6024   23.1932 H   0  0  0  0  0  0
  -25.0680  -34.0207   25.1186 H   0  0  0  0  0  0
  -22.7306  -31.3186   21.5641 H   0  0  0  0  0  0
  -23.3771  -35.9775   23.3254 H   0  0  0  0  0  0
  -24.3630  -36.9003   22.1991 H   0  0  0  0  0  0
  -23.7231  -37.6681   23.6508 H   0  0  0  0  0  0
  -26.3200  -31.6870   20.8225 H   0  0  0  0  0  0
  -26.8954  -30.8178   22.2013 H   0  0  0  0  0  0
  -27.8604  -28.6761   21.6435 H   0  0  0  0  0  0
  -26.5287  -26.9207   17.9881 H   0  0  0  0  0  0
  -24.9014  -28.7203   17.7701 H   0  0  0  0  0  0
  -24.0321  -31.1682   19.5346 H   0  0  0  0  0  0
  -22.9893  -29.8596   19.4886 H   0  0  0  0  0  0
  -25.1209  -36.2272   25.0855 H   0  0  0  0  0  0
  -22.1075  -27.5411   23.9789 H   0  0  0  0  0  0
  -22.5947  -25.4285   22.5153 H   0  0  0  0  0  0
  -22.4600  -25.8413   21.1157 H   0  0  0  0  0  0
  -20.1226  -23.7182   21.5883 H   0  0  0  0  0  0
  -20.2233  -24.5317   20.2547 H   0  0  0  0  0  0
  -17.4643  -25.2558   21.0577 H   0  0  0  0  0  0
  -17.8270  -24.6580   22.6024 H   0  0  0  0  0  0
  -20.4161  -30.5001   24.4934 H   0  0  0  0  0  0
  -17.8222  -31.3794   24.6788 H   0  0  0  0  0  0
  -15.6330  -30.0615   23.8502 H   0  0  0  0  0  0
  -15.5561  -27.5890   22.7021 H   0  0  0  0  0  0
  -24.5928  -30.7218   25.7996 H   0  0  0  0  0  0
  -24.8860  -32.2995   26.5228 H   0  0  0  0  0  0
  -25.7939  -30.8989   27.0585 H   0  0  0  0  0  0
  -26.3207  -29.7026   24.1466 H   0  0  0  0  0  0
  -27.3709  -29.7305   25.5380 H   0  0  0  0  0  0
  -27.9292  -30.4391   24.0484 H   0  0  0  0  0  0
  -27.2828  -33.3698   26.2680 H   0  0  0  0  0  0
  -28.4065  -32.6945   25.0978 H   0  0  0  0  0  0
  -28.0742  -31.8455   26.5988 H   0  0  0  0  0  0
  -28.2608  -38.0250   24.7576 H   0  0  0  0  0  0
  -28.1136  -36.2800   24.6189 H   0  0  0  0  0  0
  -27.2334  -37.1482   25.8853 H   0  0  0  0  0  0
  -21.2298  -29.5062   22.0032 H   0  0  0  0  0  0
  -26.0230  -38.3042   24.1495 H   0  0  0  0  0  0
  -18.0951  -30.1358   21.9566 H   0  0  0  0  0  0
  -19.1189  -25.9526   25.6361 H   0  0  0  0  0  0
  -17.9870  -29.2291   26.4705 H   0  0  0  0  0  0
  -17.7638  -27.5247   26.7108 H   0  0  0  0  0  0
  -16.4856  -28.4255   25.9711 H   0  0  0  0  0  0
  -24.1045  -25.7275   18.0841 H   0  0  0  0  0  0
  -22.4682  -26.1673   17.6571 H   0  0  0  0  0  0
  -22.7701  -25.1054   19.0249 H   0  0  0  0  0  0
  -21.0742  -29.8058   20.3242 H   0  0  0  0  0  0
  -20.1917  -29.0395   19.0819 H   0  0  0  0  0  0
  -24.2312  -22.2531   21.7831 H   0  0  0  0  0  0
  -24.5077  -22.0740   23.4530 H   0  0  0  0  0  0
  -24.2536  -19.2917   21.5678 H   0  0  0  0  0  0
  -24.8007  -19.2806   23.1994 H   0  0  0  0  0  0
  -21.7169  -22.1918   23.9311 H   0  0  0  0  0  0
  -21.3968  -22.3727   22.2882 H   0  0  0  0  0  0
  -27.5574  -19.0725   22.2963 H   0  0  0  0  0  0
  -27.0012  -19.0594   20.6779 H   0  0  0  0  0  0
  -24.4063  -25.7541   20.9104 H   0  0  0  0  0  0
  -24.5489  -27.3849   21.4066 H   0  0  0  0  0  0
  -23.3114  -27.9658   18.6933 H   0  0  0  0  0  0
  -20.7275  -24.1046   24.6362 H   0  0  0  0  0  0
  -27.0440  -16.1769   21.4966 H   0  0  0  0  0  0
  -21.2164  -27.0671   19.2378 H   0  0  0  0  0  0
  -21.6494  -27.1460   20.7603 H   0  0  0  0  0  0
  1 25  1  0  0  0
  1 30  2  0  0  0
  1 87  1  0  0  0
  2  3  1  0  0  0
  2 25  1  0  0  0
  2 90  1  0  0  0
  2 91  1  0  0  0
  3  4  1  0  0  0
  3 92  1  0  0  0
  3 93  1  0  0  0
  4  5  1  0  0  0
  4 94  1  0  0  0
  4 95  1  0  0  0
  5  6  1  0  0  0
  5 26  1  0  0  0
  5 96  1  0  0  0
  6 25  1  0  0  0
  6 97  1  0  0  0
  6 98  1  0  0  0
  7  8  2  0  0  0
  7 26  1  0  0  0
  7 29  1  0  0  0
  8  9  1  0  0  0
  8 22  1  0  0  0
  9 10  1  0  0  0
  9 27  2  0  0  0
 10 11  2  0  0  0
 10 15  1  0  0  0
 11 12  1  0  0  0
 11 99  1  0  0  0
 12 13  2  0  0  0
 12100  1  0  0  0
 13 14  1  0  0  0
 13 31  1  0  0  0
 14 15  2  0  0  0
 14101  1  0  0  0
 15102  1  0  0  0
 16 17  2  0  0  0
 16 21  1  0  0  0
 16 31  1  0  0  0
 17 18  1  0  0  0
 17103  1  0  0  0
 18 19  2  0  0  0
 18104  1  0  0  0
 19 20  1  0  0  0
 19 24  1  0  0  0
 20 21  2  0  0  0
 20105  1  0  0  0
 21 23  1  0  0  0
 22 28  1  0  0  0
 22 32  2  0  0  0
 26 27  1  0  0  0
 28106  1  0  0  0
 28107  1  0  0  0
 29108  1  0  0  0
 29109  1  0  0  0
 33 34  1  0  0  0
 33 66  1  0  0  0
 33 70  2  0  0  0
 34 36  1  0  0  0
 34 59  1  0  0  0
 34110  1  0  0  0
 35 44  2  0  0  0
 35 45  1  0  0  0
 35 68  1  0  0  0
 36 56  1  0  0  0
 36111  1  0  0  0
 37 39  1  0  0  0
 37 47  1  0  0  0
 37 66  1  0  0  0
 37112  1  0  0  0
 38 43  2  0  0  0
 38 46  1  0  0  0
 38 47  1  0  0  0
 39 64  1  0  0  0
 39 67  2  0  0  0
 40 52  1  0  0  0
 40 53  2  0  0  0
 40 58  1  0  0  0
 41113  1  0  0  0
 41114  1  0  0  0
 41115  1  0  0  0
 41 48  1  0  0  0
 42 43  1  0  0  0
 42 66  1  0  0  0
 42116  1  0  0  0
 42117  1  0  0  0
 43 44  1  0  0  0
 44118  1  0  0  0
 45 46  2  0  0  0
 45119  1  0  0  0
 46120  1  0  0  0
 47121  1  0  0  0
 47122  1  0  0  0
 48 56  1  0  0  0
 48 65  1  0  0  0
 48123  1  0  0  0
 49 50  1  0  0  0
 49 53  1  0  0  0
 49 64  1  0  0  0
 49124  1  0  0  0
 50 51  1  0  0  0
 50125  1  0  0  0
 50126  1  0  0  0
 51 52  1  0  0  0
 51127  1  0  0  0
 51128  1  0  0  0
 52129  1  0  0  0
 52130  1  0  0  0
 53 54  1  0  0  0
 54 55  2  0  0  0
 54131  1  0  0  0
 55 57  1  0  0  0
 55132  1  0  0  0
 56 69  2  0  0  0
 57 58  2  0  0  0
 57133  1  0  0  0
 58134  1  0  0  0
 59 60  1  0  0  0
 59 61  1  0  0  0
 59 62  1  0  0  0
 60135  1  0  0  0
 60136  1  0  0  0
 60137  1  0  0  0
 61138  1  0  0  0
 61139  1  0  0  0
 61140  1  0  0  0
 62141  1  0  0  0
 62142  1  0  0  0
 62143  1  0  0  0
 63 65  1  0  0  0
 63144  1  0  0  0
 63145  1  0  0  0
 63146  1  0  0  0
 64147  1  0  0  0
 65148  1  0  0  0
 68 84  1  0  0  0
 71 73  2  0  0  0
 71 74  1  0  0  0
 71149  1  0  0  0
 72 73  1  0  0  0
 72 75  2  0  0  0
 72150  1  0  0  0
 73 77  1  0  0  0
 74 76  2  0  0  0
 74 79  1  0  0  0
 75 76  1  0  0  0
 75 86  1  0  0  0
 76 89  1  0  0  0
 77151  1  0  0  0
 77152  1  0  0  0
 77153  1  0  0  0
 78154  1  0  0  0
 78155  1  0  0  0
 78156  1  0  0  0
 78 85  1  0  0  0
 79 88  1  0  0  0
 79157  1  0  0  0
 79158  1  0  0  0
 80 81  1  0  0  0
 80 82  1  0  0  0
 80159  1  0  0  0
 80160  1  0  0  0
 81 83  1  0  0  0
 81161  1  0  0  0
 81162  1  0  0  0
 82 86  1  0  0  0
 82163  1  0  0  0
 82164  1  0  0  0
 83 87  1  0  0  0
 83165  1  0  0  0
 83166  1  0  0  0
 84 85  1  0  0  0
 84167  1  0  0  0
 84168  1  0  0  0
 85 88  1  0  0  0
 85169  1  0  0  0
 86170  1  0  0  0
 87171  1  0  0  0
 88172  1  0  0  0
 88173  1  0  0  0
M  CHG  1  88   1
M  ISO  4   1 100  68 101  84 101  87 100
M  END
> <chiral flag>
0

> <version>
0

> <s_m_source_file>
/data/baiqing/PycharmProjects/Reinvent-master-3.2/result/LINK_invent/BTK/process_docking_weight1_custom_sum_contain_oxygen_bond_distance_aromatic_linkinvent_7_9_3/rearranged_h_0014.sdf

> <i_m_source_file_index>
60

> <r_mmod_Potential_Energy-OPLS-2005>
24711.494140625

> <r_mmod_Stretch_Energy-OPLS-2005>
13609.5107421875

> <r_mmod_Bend_Energy-OPLS-2005>
1953.06311035156

> <r_mmod_Torsional_Energy-OPLS-2005>
602.368896484375

> <r_mmod_Improper_Torsional_Energy-OPLS-2005>
50.6284675598145

> <r_mmod_Van_der_Waal_Energy-OPLS-2005>
5377.6953125

> <r_mmod_Electrostatic_Energy-OPLS-2005>
-290.411437988281

> <r_mmod_Solvation_Energy-OPLS-2005>
-405.391632080078

> <b_mmod_Minimization_Converged-OPLS-2005>
0

> <r_mmod_RMS_Derivative-OPLS-2005>
12.4281549453735

$$$$
60
                    3D
 Structure written by MMmdl.
157165  0  0  1  0            999 V2000
  -30.6580  -14.7355   20.4755 C   0  0  0  0  0  0
  -30.4350  -12.4511   19.4827 C   0  0  0  0  0  0
  -29.5124  -12.4847   18.2455 C   0  0  0  0  0  0
  -28.0433  -12.3083   18.6669 C   0  0  0  0  0  0
  -27.6479  -13.2284   19.8516 C   0  0  2  0  0  0
  -28.6936  -13.1848   20.9907 C   0  0  0  0  0  0
  -25.2534  -13.8170   20.5695 C   0  0  0  0  0  0
  -24.1824  -13.0423   20.9172 C   0  0  0  0  0  0
  -24.6404  -11.6897   20.8712 C   0  0  0  0  0  0
  -23.9073  -10.4276   21.0385 C   0  0  0  0  0  0
  -24.3627   -9.4180   21.9162 C   0  0  0  0  0  0
  -23.6279   -8.2237   22.0765 C   0  0  0  0  0  0
  -22.4263   -8.0267   21.3556 C   0  0  0  0  0  0
  -21.9908   -9.0230   20.4644 C   0  0  0  0  0  0
  -22.7245  -10.2102   20.3029 C   0  0  0  0  0  0
  -21.6867   -6.0689   22.5255 C   0  0  0  0  0  0
  -21.4034   -6.5612   23.8178 C   0  0  0  0  0  0
  -21.3670   -5.6783   24.9158 C   0  0  0  0  0  0
  -21.6062   -4.3036   24.7222 C   0  0  0  0  0  0
  -21.8814   -3.8109   23.4340 C   0  0  0  0  0  0
  -21.9193   -4.6914   22.3396 C   0  0  0  0  0  0
  -22.7822  -13.5149   21.1857 C   0  0  0  0  0  0
  -22.1654   -4.2083   21.0975 F   0  0  0  0  0  0
  -21.5657   -3.4534   25.7748 F   0  0  0  0  0  0
  -29.9963  -13.5277   20.4045 N   0  0  0  0  0  0
  -26.2983  -12.9408   20.3292 N   0  0  0  0  0  0
  -25.9355  -11.6554   20.5781 N   0  0  0  0  0  0
  -22.0514  -12.8092   22.0409 N   0  0  0  0  0  0
  -25.4203  -15.1915   20.4157 N   0  0  0  0  0  0
  -31.8402  -14.8050   20.1346 O   0  0  0  0  0  0
  -21.6649   -6.8843   21.4226 O   0  0  0  0  0  0
  -22.3460  -14.5468   20.6738 O   0  0  0  0  0  0
  -24.6279  -31.8574   23.2041 C   0  0  0  0  0  0
  -25.9132  -32.4765   23.8358 C   0  0  1  0  0  0
  -27.2185  -27.2743   20.1192 C   0  0  0  0  0  0
  -25.5947  -33.8577   24.2282 N   0  0  0  0  0  0
  -23.4243  -30.4878   21.5390 C   0  0  2  0  0  0
  -24.8752  -28.9417   20.1064 C   0  0  0  0  0  0
  -22.7483  -29.4649   22.4841 C   0  0  0  0  0  0
  -18.0288  -28.1393   22.8467 C   0  0  0  0  0  0
  -24.1507  -36.7324   23.2632 C   0  0  0  0  0  0
  -25.9688  -30.7742   21.3856 C   0  0  0  0  0  0
  -26.0426  -29.3957   20.7312 C   0  0  0  0  0  0
  -27.2114  -28.5673   20.7448 C   0  0  0  0  0  0
  -26.0358  -26.9144   19.4268 C   0  0  0  0  0  0
  -24.8744  -27.7070   19.4467 C   0  0  0  0  0  0
  -23.6489  -29.8291   20.1513 C   0  0  0  0  0  0
  -25.4125  -36.3085   24.0323 C   0  0  1  0  0  0
  -20.5881  -28.3736   23.1214 C   0  0  2  0  0  0
  -20.6752  -26.9450   22.5370 C   0  0  0  0  0  0
  -19.5735  -26.6394   21.5165 C   0  0  0  0  0  0
  -18.1921  -26.7932   22.1594 C   0  0  0  0  0  0
  -19.1538  -28.8871   23.2845 C   0  0  0  0  0  0
  -18.9475  -30.1444   23.8903 C   0  0  0  0  0  0
  -17.6489  -30.6594   24.0567 C   0  0  0  0  0  0
  -25.9058  -34.9445   23.5099 C   0  0  0  0  0  0
  -16.5374  -29.9116   23.6315 C   0  0  0  0  0  0
  -16.7273  -28.6517   23.0349 C   0  0  0  0  0  0
  -26.4524  -31.6578   25.0733 C   0  0  0  0  0  0
  -25.3759  -31.3733   26.1468 C   0  0  0  0  0  0
  -27.0381  -30.2990   24.6205 C   0  0  0  0  0  0
  -27.6062  -32.4305   25.7527 C   0  0  0  0  0  0
  -27.5595  -37.1821   24.8455 C   0  0  0  0  0  0
  -21.4178  -29.3122   22.3634 N   0  0  0  0  0  0
  -26.4297  -37.3781   23.9405 N   0  0  0  0  0  0
  -24.6918  -31.0565   22.1000 N   0  0  0  0  0  0
  -23.4206  -28.8158   23.2895 O   0  0  0  0  0  0
  -28.3022  -26.3629   20.2062 O   0  0  0  0  0  0
  -26.5594  -34.8914   22.4645 O   0  0  0  0  0  0
  -23.5434  -32.1386   23.7349 O   0  0  0  0  0  0
  -28.0692  -21.0068   21.5824 C   0  0  0  0  0  0
  -28.6051  -18.6260   21.9358 C   0  0  0  0  0  0
  -29.5939  -18.6539   20.9136 C   0  0  0  0  0  0
  -29.0632  -21.1621   20.5950 C   0  0  0  0  0  0
  -27.8531  -19.7857   22.2401 C   0  0  0  0  0  0
  -29.8379  -19.9552   20.2900 C   0  0  0  0  0  0
  -28.8582  -23.7333   20.5148 C   0  0  0  0  0  0
  -28.3481  -17.3844   22.7764 C   0  0  0  0  0  0
  -29.3570  -22.4458   18.4572 C   0  0  0  0  0  0
  -30.4456  -17.3411   20.5482 C   0  0  0  0  0  0
  -28.0833  -24.9337   19.7825 C   0  0  0  0  0  0
  -29.9485  -15.9009   20.7167 N   0  0  0  0  0  0
  -29.1065  -22.4912   19.9062 N   0  0  0  0  0  0
  -29.1624  -23.9162   21.7000 O   0  0  0  0  0  0
  -26.8886  -19.7350   23.1892 F   0  0  0  0  0  0
  -31.1676  -20.0477   19.1821 Cl  0  0  0  0  0  0
  -31.4763  -12.5559   19.1750 H   0  0  0  0  0  0
  -30.3752  -11.4834   19.9826 H   0  0  0  0  0  0
  -29.7983  -11.6969   17.5468 H   0  0  0  0  0  0
  -29.6359  -13.4273   17.7115 H   0  0  0  0  0  0
  -27.9197  -11.2642   18.9598 H   0  0  0  0  0  0
  -27.3778  -12.4632   17.8168 H   0  0  0  0  0  0
  -27.6411  -14.2421   19.4525 H   0  0  0  0  0  0
  -28.7372  -12.1977   21.4534 H   0  0  0  0  0  0
  -28.4271  -13.8830   21.7852 H   0  0  0  0  0  0
  -25.2798   -9.5624   22.4699 H   0  0  0  0  0  0
  -23.9971   -7.4637   22.7515 H   0  0  0  0  0  0
  -21.0836   -8.8723   19.8955 H   0  0  0  0  0  0
  -22.3714  -10.9607   19.6101 H   0  0  0  0  0  0
  -21.2036   -7.6126   23.9643 H   0  0  0  0  0  0
  -21.1523   -6.0543   25.9061 H   0  0  0  0  0  0
  -22.0591   -2.7559   23.2870 H   0  0  0  0  0  0
  -22.4195  -11.9762   22.4774 H   0  0  0  0  0  0
  -21.1107  -13.1046   22.2646 H   0  0  0  0  0  0
  -24.6619  -15.8404   20.5898 H   0  0  0  0  0  0
  -26.2653  -15.6474   20.1004 H   0  0  0  0  0  0
  -26.7197  -32.5442   23.1108 H   0  0  0  0  0  0
  -25.0152  -33.9712   25.0463 H   0  0  0  0  0  0
  -22.7197  -31.3098   21.3912 H   0  0  0  0  0  0
  -23.3750  -35.9674   23.3256 H   0  0  0  0  0  0
  -24.3618  -36.8992   22.2058 H   0  0  0  0  0  0
  -23.7291  -37.6529   23.6679 H   0  0  0  0  0  0
  -26.0919  -31.5336   20.6125 H   0  0  0  0  0  0
  -26.8511  -30.8346   22.0114 H   0  0  0  0  0  0
  -28.0907  -28.8984   21.2778 H   0  0  0  0  0  0
  -25.9716  -25.9988   18.8573 H   0  0  0  0  0  0
  -23.9844  -27.3693   18.9320 H   0  0  0  0  0  0
  -23.7901  -30.6069   19.3990 H   0  0  0  0  0  0
  -22.7664  -29.2695   19.8350 H   0  0  0  0  0  0
  -25.1304  -36.1927   25.0813 H   0  0  0  0  0  0
  -20.9971  -28.3319   24.1330 H   0  0  0  0  0  0
  -20.5561  -26.2392   23.3596 H   0  0  0  0  0  0
  -21.6632  -26.7417   22.1224 H   0  0  0  0  0  0
  -19.6901  -25.6290   21.1226 H   0  0  0  0  0  0
  -19.6646  -27.3162   20.6650 H   0  0  0  0  0  0
  -17.4174  -26.6654   21.4013 H   0  0  0  0  0  0
  -18.0359  -26.0064   22.8983 H   0  0  0  0  0  0
  -19.7967  -30.7218   24.2305 H   0  0  0  0  0  0
  -17.5076  -31.6270   24.5185 H   0  0  0  0  0  0
  -15.5385  -30.3053   23.7614 H   0  0  0  0  0  0
  -15.8662  -28.0844   22.7082 H   0  0  0  0  0  0
  -24.5924  -30.7083   25.7821 H   0  0  0  0  0  0
  -24.8972  -32.2914   26.4861 H   0  0  0  0  0  0
  -25.8100  -30.8941   27.0251 H   0  0  0  0  0  0
  -26.2971  -29.6717   24.1238 H   0  0  0  0  0  0
  -27.4087  -29.7267   25.4719 H   0  0  0  0  0  0
  -27.8829  -30.4261   23.9439 H   0  0  0  0  0  0
  -27.2653  -33.3594   26.2101 H   0  0  0  0  0  0
  -28.3907  -32.6875   25.0400 H   0  0  0  0  0  0
  -28.0694  -31.8431   26.5465 H   0  0  0  0  0  0
  -28.2572  -38.0152   24.7510 H   0  0  0  0  0  0
  -28.1128  -36.2679   24.6252 H   0  0  0  0  0  0
  -27.2311  -37.1443   25.8853 H   0  0  0  0  0  0
  -20.9335  -29.9050   21.7031 H   0  0  0  0  0  0
  -26.0170  -38.2851   24.1397 H   0  0  0  0  0  0
  -27.4311  -21.8367   21.8506 H   0  0  0  0  0  0
  -29.2862  -16.9487   23.1174 H   0  0  0  0  0  0
  -27.7866  -16.6400   22.2149 H   0  0  0  0  0  0
  -27.7731  -17.6078   23.6747 H   0  0  0  0  0  0
  -29.1322  -21.4565   18.0534 H   0  0  0  0  0  0
  -30.4071  -22.6588   18.2518 H   0  0  0  0  0  0
  -28.7595  -23.1230   17.8531 H   0  0  0  0  0  0
  -31.3882  -17.4300   21.0922 H   0  0  0  0  0  0
  -30.7212  -17.4288   19.4977 H   0  0  0  0  0  0
  -27.0585  -24.6595   20.0292 H   0  0  0  0  0  0
  -28.1578  -24.8897   18.7020 H   0  0  0  0  0  0
  -28.9685  -15.7919   20.9155 H   0  0  0  0  0  0
  1 25  1  0  0  0
  1 30  2  0  0  0
  1 82  1  0  0  0
  2  3  1  0  0  0
  2 25  1  0  0  0
  2 87  1  0  0  0
  2 88  1  0  0  0
  3  4  1  0  0  0
  3 89  1  0  0  0
  3 90  1  0  0  0
  4  5  1  0  0  0
  4 91  1  0  0  0
  4 92  1  0  0  0
  5  6  1  0  0  0
  5 26  1  0  0  0
  5 93  1  0  0  0
  6 25  1  0  0  0
  6 94  1  0  0  0
  6 95  1  0  0  0
  7  8  2  0  0  0
  7 26  1  0  0  0
  7 29  1  0  0  0
  8  9  1  0  0  0
  8 22  1  0  0  0
  9 10  1  0  0  0
  9 27  2  0  0  0
 10 11  2  0  0  0
 10 15  1  0  0  0
 11 12  1  0  0  0
 11 96  1  0  0  0
 12 13  2  0  0  0
 12 97  1  0  0  0
 13 14  1  0  0  0
 13 31  1  0  0  0
 14 15  2  0  0  0
 14 98  1  0  0  0
 15 99  1  0  0  0
 16 17  2  0  0  0
 16 21  1  0  0  0
 16 31  1  0  0  0
 17 18  1  0  0  0
 17100  1  0  0  0
 18 19  2  0  0  0
 18101  1  0  0  0
 19 20  1  0  0  0
 19 24  1  0  0  0
 20 21  2  0  0  0
 20102  1  0  0  0
 21 23  1  0  0  0
 22 28  1  0  0  0
 22 32  2  0  0  0
 26 27  1  0  0  0
 28103  1  0  0  0
 28104  1  0  0  0
 29105  1  0  0  0
 29106  1  0  0  0
 33 34  1  0  0  0
 33 66  1  0  0  0
 33 70  2  0  0  0
 34 36  1  0  0  0
 34 59  1  0  0  0
 34107  1  0  0  0
 35 44  2  0  0  0
 35 45  1  0  0  0
 35 68  1  0  0  0
 36 56  1  0  0  0
 36108  1  0  0  0
 37 39  1  0  0  0
 37 47  1  0  0  0
 37 66  1  0  0  0
 37109  1  0  0  0
 38 43  2  0  0  0
 38 46  1  0  0  0
 38 47  1  0  0  0
 39 64  1  0  0  0
 39 67  2  0  0  0
 40 52  1  0  0  0
 40 53  2  0  0  0
 40 58  1  0  0  0
 41110  1  0  0  0
 41111  1  0  0  0
 41112  1  0  0  0
 41 48  1  0  0  0
 42 43  1  0  0  0
 42 66  1  0  0  0
 42113  1  0  0  0
 42114  1  0  0  0
 43 44  1  0  0  0
 44115  1  0  0  0
 45 46  2  0  0  0
 45116  1  0  0  0
 46117  1  0  0  0
 47118  1  0  0  0
 47119  1  0  0  0
 48 56  1  0  0  0
 48 65  1  0  0  0
 48120  1  0  0  0
 49 50  1  0  0  0
 49 53  1  0  0  0
 49 64  1  0  0  0
 49121  1  0  0  0
 50 51  1  0  0  0
 50122  1  0  0  0
 50123  1  0  0  0
 51 52  1  0  0  0
 51124  1  0  0  0
 51125  1  0  0  0
 52126  1  0  0  0
 52127  1  0  0  0
 53 54  1  0  0  0
 54 55  2  0  0  0
 54128  1  0  0  0
 55 57  1  0  0  0
 55129  1  0  0  0
 56 69  2  0  0  0
 57 58  2  0  0  0
 57130  1  0  0  0
 58131  1  0  0  0
 59 60  1  0  0  0
 59 61  1  0  0  0
 59 62  1  0  0  0
 60132  1  0  0  0
 60133  1  0  0  0
 60134  1  0  0  0
 61135  1  0  0  0
 61136  1  0  0  0
 61137  1  0  0  0
 62138  1  0  0  0
 62139  1  0  0  0
 62140  1  0  0  0
 63 65  1  0  0  0
 63141  1  0  0  0
 63142  1  0  0  0
 63143  1  0  0  0
 64144  1  0  0  0
 65145  1  0  0  0
 68 81  1  0  0  0
 71 74  2  0  0  0
 71 75  1  0  0  0
 71146  1  0  0  0
 72 73  1  0  0  0
 72 75  2  0  0  0
 72 78  1  0  0  0
 73 76  2  0  0  0
 73 80  1  0  0  0
 74 76  1  0  0  0
 74 83  1  0  0  0
 75 85  1  0  0  0
 76 86  1  0  0  0
 77 81  1  0  0  0
 77 83  1  0  0  0
 77 84  2  0  0  0
 78147  1  0  0  0
 78148  1  0  0  0
 78149  1  0  0  0
 79 83  1  0  0  0
 79150  1  0  0  0
 79151  1  0  0  0
 79152  1  0  0  0
 80 82  1  0  0  0
 80153  1  0  0  0
 80154  1  0  0  0
 81155  1  0  0  0
 81156  1  0  0  0
 82157  1  0  0  0
M  ISO  4   1 100  68 101  81 101  82 100
M  END
> <chiral flag>
0

> <version>
0

> <s_m_source_file>
/data/baiqing/PycharmProjects/Reinvent-master-3.2/result/LINK_invent/BTK/process_docking_weight1_custom_sum_contain_oxygen_bond_distance_aromatic_linkinvent_7_9_3/rearranged_h_0014.sdf

> <i_m_source_file_index>
61

> <r_mmod_Potential_Energy-OPLS-2005>
228.793212890625

> <r_mmod_Stretch_Energy-OPLS-2005>
136.163299560547

> <r_mmod_Bend_Energy-OPLS-2005>
170.897598266602

> <r_mmod_Torsional_Energy-OPLS-2005>
263.534912109375

> <r_mmod_Improper_Torsional_Energy-OPLS-2005>
5.90866613388062

> <r_mmod_Van_der_Waal_Energy-OPLS-2005>
163.082595825195

> <r_mmod_Electrostatic_Energy-OPLS-2005>
-366.939453125

> <r_mmod_Solvation_Energy-OPLS-2005>
-228.340942382812

> <b_mmod_Minimization_Converged-OPLS-2005>
0

> <r_mmod_RMS_Derivative-OPLS-2005>
3.99590277671814

$$$$
61
                    3D
 Structure written by MMmdl.
158166  0  0  1  0            999 V2000
  -30.6331  -14.7237   20.4790 C   0  0  0  0  0  0
  -30.4283  -12.4438   19.4723 C   0  0  0  0  0  0
  -29.5073  -12.5091   18.2349 C   0  0  0  0  0  0
  -28.0337  -12.3365   18.6486 C   0  0  0  0  0  0
  -27.6434  -13.2331   19.8541 C   0  0  2  0  0  0
  -28.6887  -13.1596   20.9899 C   0  0  0  0  0  0
  -25.2514  -13.8201   20.5708 C   0  0  0  0  0  0
  -24.1806  -13.0442   20.9208 C   0  0  0  0  0  0
  -24.6403  -11.6923   20.8753 C   0  0  0  0  0  0
  -23.9079  -10.4297   21.0409 C   0  0  0  0  0  0
  -24.3627   -9.4210   21.9187 C   0  0  0  0  0  0
  -23.6300   -8.2247   22.0756 C   0  0  0  0  0  0
  -22.4282   -8.0285   21.3546 C   0  0  0  0  0  0
  -21.9919   -9.0260   20.4648 C   0  0  0  0  0  0
  -22.7251  -10.2138   20.3057 C   0  0  0  0  0  0
  -21.6852   -6.0739   22.5283 C   0  0  0  0  0  0
  -21.4012   -6.5642   23.8216 C   0  0  0  0  0  0
  -21.3659   -5.6794   24.9177 C   0  0  0  0  0  0
  -21.6043   -4.3057   24.7227 C   0  0  0  0  0  0
  -21.8819   -3.8149   23.4348 C   0  0  0  0  0  0
  -21.9194   -4.6967   22.3404 C   0  0  0  0  0  0
  -22.7825  -13.5223   21.1862 C   0  0  0  0  0  0
  -22.1663   -4.2152   21.0981 F   0  0  0  0  0  0
  -21.5628   -3.4540   25.7739 F   0  0  0  0  0  0
  -29.9925  -13.5059   20.4097 N   0  0  0  0  0  0
  -26.2948  -12.9419   20.3303 N   0  0  0  0  0  0
  -25.9336  -11.6559   20.5765 N   0  0  0  0  0  0
  -22.0470  -12.8214   22.0418 N   0  0  0  0  0  0
  -25.4176  -15.1926   20.4139 N   0  0  0  0  0  0
  -31.8037  -14.8023   20.1028 O   0  0  0  0  0  0
  -21.6642   -6.8884   21.4246 O   0  0  0  0  0  0
  -22.3507  -14.5526   20.6705 O   0  0  0  0  0  0
  -24.6310  -31.8558   23.1996 C   0  0  0  0  0  0
  -25.9137  -32.4757   23.8338 C   0  0  1  0  0  0
  -27.2147  -27.2600   20.1220 C   0  0  0  0  0  0
  -25.5928  -33.8558   24.2256 N   0  0  0  0  0  0
  -23.4273  -30.4805   21.5429 C   0  0  2  0  0  0
  -24.8734  -28.9329   20.1062 C   0  0  0  0  0  0
  -22.7501  -29.4603   22.4901 C   0  0  0  0  0  0
  -18.0289  -28.1384   22.8484 C   0  0  0  0  0  0
  -24.1487  -36.7284   23.2641 C   0  0  0  0  0  0
  -25.9742  -30.7672   21.3818 C   0  0  0  0  0  0
  -26.0446  -29.3904   20.7225 C   0  0  0  0  0  0
  -27.2147  -28.5639   20.7262 C   0  0  0  0  0  0
  -26.0264  -26.8891   19.4487 C   0  0  0  0  0  0
  -24.8701  -27.6901   19.4589 C   0  0  0  0  0  0
  -23.6445  -29.8191   20.1572 C   0  0  0  0  0  0
  -25.4115  -36.3073   24.0328 C   0  0  1  0  0  0
  -20.5894  -28.3695   23.1263 C   0  0  2  0  0  0
  -20.6775  -26.9411   22.5406 C   0  0  0  0  0  0
  -19.5749  -26.6383   21.5209 C   0  0  0  0  0  0
  -18.1929  -26.7926   22.1624 C   0  0  0  0  0  0
  -19.1543  -28.8857   23.2870 C   0  0  0  0  0  0
  -18.9468  -30.1456   23.8891 C   0  0  0  0  0  0
  -17.6468  -30.6587   24.0561 C   0  0  0  0  0  0
  -25.9058  -34.9442   23.5096 C   0  0  0  0  0  0
  -16.5357  -29.9088   23.6329 C   0  0  0  0  0  0
  -16.7276  -28.6501   23.0355 C   0  0  0  0  0  0
  -26.4500  -31.6585   25.0730 C   0  0  0  0  0  0
  -25.3720  -31.3741   26.1449 C   0  0  0  0  0  0
  -27.0345  -30.2998   24.6222 C   0  0  0  0  0  0
  -27.6049  -32.4331   25.7504 C   0  0  0  0  0  0
  -27.5575  -37.1799   24.8468 C   0  0  0  0  0  0
  -21.4206  -29.3046   22.3652 N   0  0  0  0  0  0
  -26.4287  -37.3773   23.9412 N   0  0  0  0  0  0
  -24.6966  -31.0524   22.0974 N   0  0  0  0  0  0
  -23.4207  -28.8137   23.2992 O   0  0  0  0  0  0
  -28.3017  -26.3535   20.2131 O   0  0  0  0  0  0
  -26.5637  -34.8918   22.4668 O   0  0  0  0  0  0
  -23.5460  -32.1378   23.7291 O   0  0  0  0  0  0
  -30.9634  -20.0912   21.0793 C   0  0  0  0  0  0
  -31.8968  -19.0629   21.3263 C   0  0  0  0  0  0
  -29.6228  -19.8048   20.7610 C   0  0  0  0  0  0
  -30.2354  -17.3009   20.8303 C   0  0  0  0  0  0
  -31.5327  -17.6998   21.2451 C   0  0  0  0  0  0
  -29.2900  -18.3862   20.5958 C   0  0  0  0  0  0
  -33.3091  -19.4270   21.7453 C   0  0  0  0  0  0
  -28.9081  -23.6772   20.5671 C   0  0  0  0  0  0
  -28.8159  -22.1905   19.9066 C   0  0  0  0  0  0
  -28.1195  -24.8994   19.8556 C   0  0  0  0  0  0
  -27.7873  -20.9852   21.8948 C   0  0  0  0  0  0
  -29.8727  -15.8555   20.7383 N   0  0  0  0  0  0
  -28.7022  -20.9314   20.7520 N   0  0  0  0  0  0
  -32.4516  -16.7842   21.6317 F   0  0  0  0  0  0
  -26.7457  -21.7658   21.6078 F   0  0  0  0  0  0
  -27.3229  -19.7838   22.2236 F   0  0  0  0  0  0
  -28.4317  -21.4867   22.9466 F   0  0  0  0  0  0
  -27.7040  -17.9419   20.0608 Cl  0  0  0  0  0  0
  -31.4699  -12.5560   19.1675 H   0  0  0  0  0  0
  -30.3648  -11.4650   19.9501 H   0  0  0  0  0  0
  -29.7867  -11.7397   17.5137 H   0  0  0  0  0  0
  -29.6379  -13.4660   17.7273 H   0  0  0  0  0  0
  -27.8870  -11.2873   18.9071 H   0  0  0  0  0  0
  -27.3767  -12.5349   17.8009 H   0  0  0  0  0  0
  -27.6394  -14.2562   19.4779 H   0  0  0  0  0  0
  -28.7191  -12.1603   21.4267 H   0  0  0  0  0  0
  -28.4258  -13.8388   21.8023 H   0  0  0  0  0  0
  -25.2770   -9.5684   22.4765 H   0  0  0  0  0  0
  -24.0005   -7.4637   22.7475 H   0  0  0  0  0  0
  -21.0850   -8.8781   19.8953 H   0  0  0  0  0  0
  -22.3711  -10.9679   19.6165 H   0  0  0  0  0  0
  -21.2004   -7.6151   23.9720 H   0  0  0  0  0  0
  -21.1480   -6.0524   25.9079 H   0  0  0  0  0  0
  -22.0597   -2.7613   23.2848 H   0  0  0  0  0  0
  -22.4083  -11.9874   22.4806 H   0  0  0  0  0  0
  -21.1085  -13.1239   22.2614 H   0  0  0  0  0  0
  -24.6461  -15.8392   20.5327 H   0  0  0  0  0  0
  -26.2598  -15.6474   20.0864 H   0  0  0  0  0  0
  -26.7202  -32.5408   23.1077 H   0  0  0  0  0  0
  -25.0058  -33.9694   25.0391 H   0  0  0  0  0  0
  -22.7237  -31.3033   21.3989 H   0  0  0  0  0  0
  -23.3748  -35.9617   23.3305 H   0  0  0  0  0  0
  -24.3573  -36.8910   22.2054 H   0  0  0  0  0  0
  -23.7244  -37.6487   23.6665 H   0  0  0  0  0  0
  -26.1148  -31.5274   20.6121 H   0  0  0  0  0  0
  -26.8514  -30.8152   22.0150 H   0  0  0  0  0  0
  -28.1062  -28.9040   21.2343 H   0  0  0  0  0  0
  -25.9493  -25.9585   18.9083 H   0  0  0  0  0  0
  -23.9782  -27.3405   18.9571 H   0  0  0  0  0  0
  -23.7683  -30.5978   19.4037 H   0  0  0  0  0  0
  -22.7624  -29.2535   19.8514 H   0  0  0  0  0  0
  -25.1295  -36.1918   25.0821 H   0  0  0  0  0  0
  -20.9988  -28.3274   24.1382 H   0  0  0  0  0  0
  -20.5668  -26.2308   23.3611 H   0  0  0  0  0  0
  -21.6643  -26.7432   22.1202 H   0  0  0  0  0  0
  -19.6912  -25.6294   21.1240 H   0  0  0  0  0  0
  -19.6683  -27.3192   20.6735 H   0  0  0  0  0  0
  -17.4198  -26.6668   21.4030 H   0  0  0  0  0  0
  -18.0332  -26.0070   22.9023 H   0  0  0  0  0  0
  -19.7946  -30.7267   24.2262 H   0  0  0  0  0  0
  -17.5027  -31.6269   24.5160 H   0  0  0  0  0  0
  -15.5358  -30.2993   23.7655 H   0  0  0  0  0  0
  -15.8672  -28.0821   22.7077 H   0  0  0  0  0  0
  -24.5913  -30.7062   25.7787 H   0  0  0  0  0  0
  -24.8884  -32.2909   26.4832 H   0  0  0  0  0  0
  -25.8036  -30.8962   27.0253 H   0  0  0  0  0  0
  -26.2930  -29.6749   24.1228 H   0  0  0  0  0  0
  -27.4001  -29.7258   25.4746 H   0  0  0  0  0  0
  -27.8820  -30.4261   23.9482 H   0  0  0  0  0  0
  -27.2653  -33.3646   26.2045 H   0  0  0  0  0  0
  -28.3875  -32.6872   25.0343 H   0  0  0  0  0  0
  -28.0695  -31.8483   26.5452 H   0  0  0  0  0  0
  -28.2595  -38.0093   24.7507 H   0  0  0  0  0  0
  -28.1068  -36.2623   24.6301 H   0  0  0  0  0  0
  -27.2292  -37.1459   25.8871 H   0  0  0  0  0  0
  -20.9385  -29.8788   21.6878 H   0  0  0  0  0  0
  -26.0165  -38.2847   24.1411 H   0  0  0  0  0  0
  -31.2680  -21.1201   21.2096 H   0  0  0  0  0  0
  -33.4337  -19.2782   22.8183 H   0  0  0  0  0  0
  -33.5412  -20.4675   21.5165 H   0  0  0  0  0  0
  -34.0376  -18.8020   21.2273 H   0  0  0  0  0  0
  -29.9635  -23.9420   20.6352 H   0  0  0  0  0  0
  -28.5651  -23.6415   21.5999 H   0  0  0  0  0  0
  -29.6482  -22.0659   19.2129 H   0  0  0  0  0  0
  -27.9300  -22.1833   19.2709 H   0  0  0  0  0  0
  -27.0790  -24.6215   20.0129 H   0  0  0  0  0  0
  -28.2882  -24.8282   18.7806 H   0  0  0  0  0  0
  -28.8876  -15.6712   20.8394 H   0  0  0  0  0  0
  1 25  1  0  0  0
  1 30  2  0  0  0
  1 82  1  0  0  0
  2  3  1  0  0  0
  2 25  1  0  0  0
  2 89  1  0  0  0
  2 90  1  0  0  0
  3  4  1  0  0  0
  3 91  1  0  0  0
  3 92  1  0  0  0
  4  5  1  0  0  0
  4 93  1  0  0  0
  4 94  1  0  0  0
  5  6  1  0  0  0
  5 26  1  0  0  0
  5 95  1  0  0  0
  6 25  1  0  0  0
  6 96  1  0  0  0
  6 97  1  0  0  0
  7  8  2  0  0  0
  7 26  1  0  0  0
  7 29  1  0  0  0
  8  9  1  0  0  0
  8 22  1  0  0  0
  9 10  1  0  0  0
  9 27  2  0  0  0
 10 11  2  0  0  0
 10 15  1  0  0  0
 11 12  1  0  0  0
 11 98  1  0  0  0
 12 13  2  0  0  0
 12 99  1  0  0  0
 13 14  1  0  0  0
 13 31  1  0  0  0
 14 15  2  0  0  0
 14100  1  0  0  0
 15101  1  0  0  0
 16 17  2  0  0  0
 16 21  1  0  0  0
 16 31  1  0  0  0
 17 18  1  0  0  0
 17102  1  0  0  0
 18 19  2  0  0  0
 18103  1  0  0  0
 19 20  1  0  0  0
 19 24  1  0  0  0
 20 21  2  0  0  0
 20104  1  0  0  0
 21 23  1  0  0  0
 22 28  1  0  0  0
 22 32  2  0  0  0
 26 27  1  0  0  0
 28105  1  0  0  0
 28106  1  0  0  0
 29107  1  0  0  0
 29108  1  0  0  0
 33 34  1  0  0  0
 33 66  1  0  0  0
 33 70  2  0  0  0
 34 36  1  0  0  0
 34 59  1  0  0  0
 34109  1  0  0  0
 35 44  2  0  0  0
 35 45  1  0  0  0
 35 68  1  0  0  0
 36 56  1  0  0  0
 36110  1  0  0  0
 37 39  1  0  0  0
 37 47  1  0  0  0
 37 66  1  0  0  0
 37111  1  0  0  0
 38 43  2  0  0  0
 38 46  1  0  0  0
 38 47  1  0  0  0
 39 64  1  0  0  0
 39 67  2  0  0  0
 40 52  1  0  0  0
 40 53  2  0  0  0
 40 58  1  0  0  0
 41112  1  0  0  0
 41113  1  0  0  0
 41114  1  0  0  0
 41 48  1  0  0  0
 42 43  1  0  0  0
 42 66  1  0  0  0
 42115  1  0  0  0
 42116  1  0  0  0
 43 44  1  0  0  0
 44117  1  0  0  0
 45 46  2  0  0  0
 45118  1  0  0  0
 46119  1  0  0  0
 47120  1  0  0  0
 47121  1  0  0  0
 48 56  1  0  0  0
 48 65  1  0  0  0
 48122  1  0  0  0
 49 50  1  0  0  0
 49 53  1  0  0  0
 49 64  1  0  0  0
 49123  1  0  0  0
 50 51  1  0  0  0
 50124  1  0  0  0
 50125  1  0  0  0
 51 52  1  0  0  0
 51126  1  0  0  0
 51127  1  0  0  0
 52128  1  0  0  0
 52129  1  0  0  0
 53 54  1  0  0  0
 54 55  2  0  0  0
 54130  1  0  0  0
 55 57  1  0  0  0
 55131  1  0  0  0
 56 69  2  0  0  0
 57 58  2  0  0  0
 57132  1  0  0  0
 58133  1  0  0  0
 59 60  1  0  0  0
 59 61  1  0  0  0
 59 62  1  0  0  0
 60134  1  0  0  0
 60135  1  0  0  0
 60136  1  0  0  0
 61137  1  0  0  0
 61138  1  0  0  0
 61139  1  0  0  0
 62140  1  0  0  0
 62141  1  0  0  0
 62142  1  0  0  0
 63 65  1  0  0  0
 63143  1  0  0  0
 63144  1  0  0  0
 63145  1  0  0  0
 64146  1  0  0  0
 65147  1  0  0  0
 68 80  1  0  0  0
 71 72  2  0  0  0
 71 73  1  0  0  0
 71148  1  0  0  0
 72 75  1  0  0  0
 72 77  1  0  0  0
 73 76  2  0  0  0
 73 83  1  0  0  0
 74 75  2  0  0  0
 74 76  1  0  0  0
 74 82  1  0  0  0
 75 84  1  0  0  0
 76 88  1  0  0  0
 77149  1  0  0  0
 77150  1  0  0  0
 77151  1  0  0  0
 78 79  1  0  0  0
 78 80  1  0  0  0
 78152  1  0  0  0
 78153  1  0  0  0
 79 83  1  0  0  0
 79154  1  0  0  0
 79155  1  0  0  0
 80156  1  0  0  0
 80157  1  0  0  0
 81 83  1  0  0  0
 81 85  1  0  0  0
 81 86  1  0  0  0
 81 87  1  0  0  0
 82158  1  0  0  0
M  ISO  4   1 100  68 101  80 101  82 100
M  END
> <chiral flag>
0

> <version>
0

> <s_m_source_file>
/data/baiqing/PycharmProjects/Reinvent-master-3.2/result/LINK_invent/BTK/process_docking_weight1_custom_sum_contain_oxygen_bond_distance_aromatic_linkinvent_7_9_3/rearranged_h_0014.sdf

> <i_m_source_file_index>
62

> <r_mmod_Potential_Energy-OPLS-2005>
165.147979736328

> <r_mmod_Stretch_Energy-OPLS-2005>
128.267120361328

> <r_mmod_Bend_Energy-OPLS-2005>
179.514236450195

> <r_mmod_Torsional_Energy-OPLS-2005>
247.037139892578

> <r_mmod_Improper_Torsional_Energy-OPLS-2005>
6.79639577865601

> <r_mmod_Van_der_Waal_Energy-OPLS-2005>
150.699096679688

> <r_mmod_Electrostatic_Energy-OPLS-2005>
-429.725616455078

> <r_mmod_Solvation_Energy-OPLS-2005>
-199.117782592773

> <b_mmod_Minimization_Converged-OPLS-2005>
0

> <r_mmod_RMS_Derivative-OPLS-2005>
0.644266903400421

$$$$
62
                    3D
 Structure written by MMmdl.
168176  0  0  1  0            999 V2000
  -30.6160  -14.7185   20.4451 C   0  0  0  0  0  0
  -30.4194  -12.4297   19.4730 C   0  0  0  0  0  0
  -29.5010  -12.5043   18.2328 C   0  0  0  0  0  0
  -28.0252  -12.3388   18.6433 C   0  0  0  0  0  0
  -27.6372  -13.2340   19.8509 C   0  0  2  0  0  0
  -28.6819  -13.1581   20.9859 C   0  0  0  0  0  0
  -25.2465  -13.8197   20.5686 C   0  0  0  0  0  0
  -24.1771  -13.0436   20.9206 C   0  0  0  0  0  0
  -24.6382  -11.6914   20.8767 C   0  0  0  0  0  0
  -23.9069  -10.4290   21.0412 C   0  0  0  0  0  0
  -24.3614   -9.4202   21.9189 C   0  0  0  0  0  0
  -23.6287   -8.2243   22.0755 C   0  0  0  0  0  0
  -22.4275   -8.0282   21.3542 C   0  0  0  0  0  0
  -21.9913   -9.0258   20.4646 C   0  0  0  0  0  0
  -22.7243  -10.2134   20.3057 C   0  0  0  0  0  0
  -21.6845   -6.0735   22.5271 C   0  0  0  0  0  0
  -21.4019   -6.5642   23.8209 C   0  0  0  0  0  0
  -21.3657   -5.6794   24.9174 C   0  0  0  0  0  0
  -21.6037   -4.3056   24.7222 C   0  0  0  0  0  0
  -21.8820   -3.8147   23.4346 C   0  0  0  0  0  0
  -21.9195   -4.6963   22.3401 C   0  0  0  0  0  0
  -22.7795  -13.5204   21.1869 C   0  0  0  0  0  0
  -22.1661   -4.2148   21.0978 F   0  0  0  0  0  0
  -21.5622   -3.4538   25.7736 F   0  0  0  0  0  0
  -29.9859  -13.4958   20.4048 N   0  0  0  0  0  0
  -26.2906  -12.9418   20.3300 N   0  0  0  0  0  0
  -25.9312  -11.6553   20.5773 N   0  0  0  0  0  0
  -22.0454  -12.8201   22.0433 N   0  0  0  0  0  0
  -25.4121  -15.1916   20.4060 N   0  0  0  0  0  0
  -31.8143  -14.7746   20.1497 O   0  0  0  0  0  0
  -21.6636   -6.8880   21.4235 O   0  0  0  0  0  0
  -22.3479  -14.5515   20.6725 O   0  0  0  0  0  0
  -24.6300  -31.8560   23.1971 C   0  0  0  0  0  0
  -25.9150  -32.4747   23.8316 C   0  0  1  0  0  0
  -27.2085  -27.2641   20.1444 C   0  0  0  0  0  0
  -25.5970  -33.8549   24.2254 N   0  0  0  0  0  0
  -23.4265  -30.4772   21.5382 C   0  0  2  0  0  0
  -24.8728  -28.9219   20.1094 C   0  0  0  0  0  0
  -22.7513  -29.4596   22.4882 C   0  0  0  0  0  0
  -18.0286  -28.1347   22.8460 C   0  0  0  0  0  0
  -24.1508  -36.7282   23.2638 C   0  0  0  0  0  0
  -25.9705  -30.7712   21.3763 C   0  0  0  0  0  0
  -26.0445  -29.3931   20.7189 C   0  0  0  0  0  0
  -27.2196  -28.5776   20.7204 C   0  0  0  0  0  0
  -26.0205  -26.8530   19.5068 C   0  0  0  0  0  0
  -24.8662  -27.6598   19.4909 C   0  0  0  0  0  0
  -23.6460  -29.8116   20.1544 C   0  0  0  0  0  0
  -25.4140  -36.3063   24.0318 C   0  0  1  0  0  0
  -20.5891  -28.3681   23.1244 C   0  0  2  0  0  0
  -20.6788  -26.9393   22.5395 C   0  0  0  0  0  0
  -19.5772  -26.6358   21.5189 C   0  0  0  0  0  0
  -18.1938  -26.7895   22.1588 C   0  0  0  0  0  0
  -19.1538  -28.8831   23.2841 C   0  0  0  0  0  0
  -18.9478  -30.1430   23.8864 C   0  0  0  0  0  0
  -17.6479  -30.6565   24.0539 C   0  0  0  0  0  0
  -25.9084  -34.9431   23.5084 C   0  0  0  0  0  0
  -16.5367  -29.9059   23.6304 C   0  0  0  0  0  0
  -16.7276  -28.6468   23.0334 C   0  0  0  0  0  0
  -26.4526  -31.6565   25.0693 C   0  0  0  0  0  0
  -25.3738  -31.3735   26.1405 C   0  0  0  0  0  0
  -27.0363  -30.2972   24.6182 C   0  0  0  0  0  0
  -27.6090  -32.4309   25.7456 C   0  0  0  0  0  0
  -27.5595  -37.1804   24.8464 C   0  0  0  0  0  0
  -21.4216  -29.3045   22.3648 N   0  0  0  0  0  0
  -26.4313  -37.3761   23.9394 N   0  0  0  0  0  0
  -24.6937  -31.0540   22.0937 N   0  0  0  0  0  0
  -23.4208  -28.8140   23.2987 O   0  0  0  0  0  0
  -28.2957  -26.3725   20.1639 O   0  0  0  0  0  0
  -26.5638  -34.8912   22.4635 O   0  0  0  0  0  0
  -23.5462  -32.1388   23.7282 O   0  0  0  0  0  0
  -30.7457  -20.0107   19.8584 C   0  0  0  0  0  0
  -29.4036  -19.7277   20.1660 C   0  0  0  0  0  0
  -29.1096  -18.3216   20.4575 C   0  0  0  0  0  0
  -31.6840  -18.9675   19.7929 C   0  0  0  0  0  0
  -30.1333  -17.2887   20.3740 C   0  0  0  0  0  0
  -27.3339  -20.7365   19.2940 C   0  0  0  0  0  0
  -33.1117  -19.2472   19.3734 C   0  0  0  0  0  0
  -27.3672  -19.8142   18.0570 C   0  0  0  0  0  0
  -26.4289  -20.2810   16.9160 C   0  0  0  0  0  0
  -28.4552  -23.6349   19.9497 C   0  0  0  0  0  0
  -28.6238  -22.2219   20.7600 C   0  0  0  0  0  0
  -26.7757  -21.6815   16.3595 C   0  0  0  0  0  0
  -28.1040  -25.0004   20.7451 C   0  0  0  0  0  0
  -31.3876  -17.6729   20.0360 N   0  0  0  0  0  0
  -29.8373  -15.8552   20.6198 N   0  0  0  0  0  0
  -28.4419  -20.8615   20.0652 N   0  0  0  0  0  0
  -25.8987  -22.0942   15.2515 N   0  3  0  0  0  0
  -26.3005  -21.3749   19.5204 O   0  0  0  0  0  0
  -27.5186  -17.8455   20.9447 Cl  0  0  0  0  0  0
  -31.4635  -12.5347   19.1737 H   0  0  0  0  0  0
  -30.3423  -11.4516   19.9518 H   0  0  0  0  0  0
  -29.7758  -11.7363   17.5092 H   0  0  0  0  0  0
  -29.6356  -13.4632   17.7295 H   0  0  0  0  0  0
  -27.8702  -11.2900   18.8958 H   0  0  0  0  0  0
  -27.3710  -12.5467   17.7955 H   0  0  0  0  0  0
  -27.6326  -14.2573   19.4754 H   0  0  0  0  0  0
  -28.7075  -12.1595   21.4240 H   0  0  0  0  0  0
  -28.4250  -13.8410   21.7967 H   0  0  0  0  0  0
  -25.2752   -9.5682   22.4771 H   0  0  0  0  0  0
  -23.9986   -7.4638   22.7485 H   0  0  0  0  0  0
  -21.0840   -8.8783   19.8959 H   0  0  0  0  0  0
  -22.3697  -10.9678   19.6174 H   0  0  0  0  0  0
  -21.2018   -7.6151   23.9715 H   0  0  0  0  0  0
  -21.1473   -6.0526   25.9078 H   0  0  0  0  0  0
  -22.0602   -2.7609   23.2848 H   0  0  0  0  0  0
  -22.4065  -11.9843   22.4786 H   0  0  0  0  0  0
  -21.1089  -13.1247   22.2669 H   0  0  0  0  0  0
  -24.6434  -15.8415   20.5241 H   0  0  0  0  0  0
  -26.2633  -15.6465   20.1044 H   0  0  0  0  0  0
  -26.7214  -32.5405   23.1054 H   0  0  0  0  0  0
  -25.0134  -33.9679   25.0410 H   0  0  0  0  0  0
  -22.7221  -31.2993   21.3927 H   0  0  0  0  0  0
  -23.3775  -35.9608   23.3276 H   0  0  0  0  0  0
  -24.3605  -36.8926   22.2060 H   0  0  0  0  0  0
  -23.7261  -37.6467   23.6688 H   0  0  0  0  0  0
  -26.1132  -31.5366   20.6120 H   0  0  0  0  0  0
  -26.8453  -30.8139   22.0136 H   0  0  0  0  0  0
  -28.1214  -28.9323   21.2030 H   0  0  0  0  0  0
  -25.9791  -25.8823   19.0305 H   0  0  0  0  0  0
  -23.9704  -27.2942   19.0061 H   0  0  0  0  0  0
  -23.7700  -30.5877   19.3971 H   0  0  0  0  0  0
  -22.7649  -29.2445   19.8518 H   0  0  0  0  0  0
  -25.1320  -36.1911   25.0815 H   0  0  0  0  0  0
  -20.9978  -28.3294   24.1365 H   0  0  0  0  0  0
  -20.5692  -26.2305   23.3608 H   0  0  0  0  0  0
  -21.6665  -26.7431   22.1197 H   0  0  0  0  0  0
  -19.6957  -25.6268   21.1221 H   0  0  0  0  0  0
  -19.6719  -27.3168   20.6710 H   0  0  0  0  0  0
  -17.4221  -26.6618   21.3970 H   0  0  0  0  0  0
  -18.0321  -26.0031   22.8976 H   0  0  0  0  0  0
  -19.7977  -30.7205   24.2253 H   0  0  0  0  0  0
  -17.5051  -31.6247   24.5144 H   0  0  0  0  0  0
  -15.5369  -30.2944   23.7664 H   0  0  0  0  0  0
  -15.8671  -28.0793   22.7054 H   0  0  0  0  0  0
  -24.5905  -30.7098   25.7726 H   0  0  0  0  0  0
  -24.8930  -32.2904   26.4822 H   0  0  0  0  0  0
  -25.8022  -30.8907   27.0193 H   0  0  0  0  0  0
  -26.2922  -29.6697   24.1258 H   0  0  0  0  0  0
  -27.4078  -29.7277   25.4710 H   0  0  0  0  0  0
  -27.8797  -30.4209   23.9384 H   0  0  0  0  0  0
  -27.2726  -33.3666   26.1939 H   0  0  0  0  0  0
  -28.3940  -32.6777   25.0293 H   0  0  0  0  0  0
  -28.0695  -31.8467   26.5433 H   0  0  0  0  0  0
  -28.2609  -38.0111   24.7510 H   0  0  0  0  0  0
  -28.1095  -36.2625   24.6294 H   0  0  0  0  0  0
  -27.2298  -37.1456   25.8868 H   0  0  0  0  0  0
  -20.9390  -29.8794   21.6872 H   0  0  0  0  0  0
  -26.0188  -38.2836   24.1386 H   0  0  0  0  0  0
  -31.0448  -21.0218   19.6186 H   0  0  0  0  0  0
  -33.4630  -20.1837   19.8057 H   0  0  0  0  0  0
  -33.1725  -19.3319   18.2884 H   0  0  0  0  0  0
  -33.7863  -18.4518   19.6897 H   0  0  0  0  0  0
  -27.0944  -18.8015   18.3521 H   0  0  0  0  0  0
  -28.3871  -19.7664   17.6708 H   0  0  0  0  0  0
  -25.3978  -20.2703   17.2715 H   0  0  0  0  0  0
  -26.4734  -19.5497   16.1077 H   0  0  0  0  0  0
  -27.6900  -23.5343   19.1824 H   0  0  0  0  0  0
  -29.3784  -23.7980   19.3926 H   0  0  0  0  0  0
  -27.9070  -22.2235   21.5824 H   0  0  0  0  0  0
  -29.5960  -22.2207   21.2512 H   0  0  0  0  0  0
  -27.8101  -21.6951   16.0140 H   0  0  0  0  0  0
  -26.6905  -22.4404   17.1378 H   0  0  0  0  0  0
  -28.7100  -24.9973   21.6522 H   0  0  0  0  0  0
  -27.0791  -24.9078   21.1113 H   0  0  0  0  0  0
  -28.8787  -15.6729   20.8685 H   0  0  0  0  0  0
  -26.0656  -21.5344   14.4348 H   0  0  0  0  0  0
  -26.0899  -23.0522   15.0149 H   0  0  0  0  0  0
  -24.9284  -22.0258   15.5036 H   0  0  0  0  0  0
  1 25  1  0  0  0
  1 30  2  0  0  0
  1 85  1  0  0  0
  2  3  1  0  0  0
  2 25  1  0  0  0
  2 90  1  0  0  0
  2 91  1  0  0  0
  3  4  1  0  0  0
  3 92  1  0  0  0
  3 93  1  0  0  0
  4  5  1  0  0  0
  4 94  1  0  0  0
  4 95  1  0  0  0
  5  6  1  0  0  0
  5 26  1  0  0  0
  5 96  1  0  0  0
  6 25  1  0  0  0
  6 97  1  0  0  0
  6 98  1  0  0  0
  7  8  2  0  0  0
  7 26  1  0  0  0
  7 29  1  0  0  0
  8  9  1  0  0  0
  8 22  1  0  0  0
  9 10  1  0  0  0
  9 27  2  0  0  0
 10 11  2  0  0  0
 10 15  1  0  0  0
 11 12  1  0  0  0
 11 99  1  0  0  0
 12 13  2  0  0  0
 12100  1  0  0  0
 13 14  1  0  0  0
 13 31  1  0  0  0
 14 15  2  0  0  0
 14101  1  0  0  0
 15102  1  0  0  0
 16 17  2  0  0  0
 16 21  1  0  0  0
 16 31  1  0  0  0
 17 18  1  0  0  0
 17103  1  0  0  0
 18 19  2  0  0  0
 18104  1  0  0  0
 19 20  1  0  0  0
 19 24  1  0  0  0
 20 21  2  0  0  0
 20105  1  0  0  0
 21 23  1  0  0  0
 22 28  1  0  0  0
 22 32  2  0  0  0
 26 27  1  0  0  0
 28106  1  0  0  0
 28107  1  0  0  0
 29108  1  0  0  0
 29109  1  0  0  0
 33 34  1  0  0  0
 33 66  1  0  0  0
 33 70  2  0  0  0
 34 36  1  0  0  0
 34 59  1  0  0  0
 34110  1  0  0  0
 35 44  2  0  0  0
 35 45  1  0  0  0
 35 68  1  0  0  0
 36 56  1  0  0  0
 36111  1  0  0  0
 37 39  1  0  0  0
 37 47  1  0  0  0
 37 66  1  0  0  0
 37112  1  0  0  0
 38 43  2  0  0  0
 38 46  1  0  0  0
 38 47  1  0  0  0
 39 64  1  0  0  0
 39 67  2  0  0  0
 40 52  1  0  0  0
 40 53  2  0  0  0
 40 58  1  0  0  0
 41113  1  0  0  0
 41114  1  0  0  0
 41115  1  0  0  0
 41 48  1  0  0  0
 42 43  1  0  0  0
 42 66  1  0  0  0
 42116  1  0  0  0
 42117  1  0  0  0
 43 44  1  0  0  0
 44118  1  0  0  0
 45 46  2  0  0  0
 45119  1  0  0  0
 46120  1  0  0  0
 47121  1  0  0  0
 47122  1  0  0  0
 48 56  1  0  0  0
 48 65  1  0  0  0
 48123  1  0  0  0
 49 50  1  0  0  0
 49 53  1  0  0  0
 49 64  1  0  0  0
 49124  1  0  0  0
 50 51  1  0  0  0
 50125  1  0  0  0
 50126  1  0  0  0
 51 52  1  0  0  0
 51127  1  0  0  0
 51128  1  0  0  0
 52129  1  0  0  0
 52130  1  0  0  0
 53 54  1  0  0  0
 54 55  2  0  0  0
 54131  1  0  0  0
 55 57  1  0  0  0
 55132  1  0  0  0
 56 69  2  0  0  0
 57 58  2  0  0  0
 57133  1  0  0  0
 58134  1  0  0  0
 59 60  1  0  0  0
 59 61  1  0  0  0
 59 62  1  0  0  0
 60135  1  0  0  0
 60136  1  0  0  0
 60137  1  0  0  0
 61138  1  0  0  0
 61139  1  0  0  0
 61140  1  0  0  0
 62141  1  0  0  0
 62142  1  0  0  0
 62143  1  0  0  0
 63 65  1  0  0  0
 63144  1  0  0  0
 63145  1  0  0  0
 63146  1  0  0  0
 64147  1  0  0  0
 65148  1  0  0  0
 68 83  1  0  0  0
 71 72  2  0  0  0
 71 74  1  0  0  0
 71149  1  0  0  0
 72 73  1  0  0  0
 72 86  1  0  0  0
 73 75  2  0  0  0
 73 89  1  0  0  0
 74 77  1  0  0  0
 74 84  2  0  0  0
 75 84  1  0  0  0
 75 85  1  0  0  0
 76 78  1  0  0  0
 76 86  1  0  0  0
 76 88  2  0  0  0
 77150  1  0  0  0
 77151  1  0  0  0
 77152  1  0  0  0
 78 79  1  0  0  0
 78153  1  0  0  0
 78154  1  0  0  0
 79 82  1  0  0  0
 79155  1  0  0  0
 79156  1  0  0  0
 80 81  1  0  0  0
 80 83  1  0  0  0
 80157  1  0  0  0
 80158  1  0  0  0
 81 86  1  0  0  0
 81159  1  0  0  0
 81160  1  0  0  0
 82 87  1  0  0  0
 82161  1  0  0  0
 82162  1  0  0  0
 83163  1  0  0  0
 83164  1  0  0  0
 85165  1  0  0  0
 87166  1  0  0  0
 87167  1  0  0  0
 87168  1  0  0  0
M  CHG  1  87   1
M  ISO  4   1 100  68 101  83 101  85 100
M  END
> <chiral flag>
0

> <version>
0

> <s_m_source_file>
/data/baiqing/PycharmProjects/Reinvent-master-3.2/result/LINK_invent/BTK/process_docking_weight1_custom_sum_contain_oxygen_bond_distance_aromatic_linkinvent_7_9_3/rearranged_h_0014.sdf

> <i_m_source_file_index>
63

> <r_mmod_Potential_Energy-OPLS-2005>
-165.770690917969

> <r_mmod_Stretch_Energy-OPLS-2005>
130.415145874023

> <r_mmod_Bend_Energy-OPLS-2005>
163.121765136719

> <r_mmod_Torsional_Energy-OPLS-2005>
282.882690429688

> <r_mmod_Improper_Torsional_Energy-OPLS-2005>
4.94739055633545

> <r_mmod_Van_der_Waal_Energy-OPLS-2005>
141.857757568359

> <r_mmod_Electrostatic_Energy-OPLS-2005>
-443.475952148438

> <r_mmod_Solvation_Energy-OPLS-2005>
-524.109985351562

> <b_mmod_Minimization_Converged-OPLS-2005>
0

> <r_mmod_RMS_Derivative-OPLS-2005>
2.70577502250671

$$$$
63
                    3D
 Structure written by MMmdl.
169177  0  0  1  0            999 V2000
  -30.5994  -14.7522   20.4456 C   0  0  0  0  0  0
  -30.4395  -12.4479   19.4938 C   0  0  0  0  0  0
  -29.5225  -12.4969   18.2500 C   0  0  0  0  0  0
  -28.0437  -12.3349   18.6535 C   0  0  0  0  0  0
  -27.6475  -13.2325   19.8562 C   0  0  2  0  0  0
  -28.6888  -13.1579   20.9964 C   0  0  0  0  0  0
  -25.2529  -13.8198   20.5700 C   0  0  0  0  0  0
  -24.1809  -13.0441   20.9193 C   0  0  0  0  0  0
  -24.6399  -11.6920   20.8733 C   0  0  0  0  0  0
  -23.9075  -10.4290   21.0402 C   0  0  0  0  0  0
  -24.3622   -9.4209   21.9183 C   0  0  0  0  0  0
  -23.6293   -8.2248   22.0753 C   0  0  0  0  0  0
  -22.4274   -8.0280   21.3551 C   0  0  0  0  0  0
  -21.9909   -9.0258   20.4654 C   0  0  0  0  0  0
  -22.7244  -10.2132   20.3060 C   0  0  0  0  0  0
  -21.6851   -6.0734   22.5278 C   0  0  0  0  0  0
  -21.4017   -6.5635   23.8207 C   0  0  0  0  0  0
  -21.3669   -5.6787   24.9171 C   0  0  0  0  0  0
  -21.6042   -4.3049   24.7222 C   0  0  0  0  0  0
  -21.8818   -3.8142   23.4340 C   0  0  0  0  0  0
  -21.9192   -4.6964   22.3398 C   0  0  0  0  0  0
  -22.7831  -13.5224   21.1856 C   0  0  0  0  0  0
  -22.1659   -4.2152   21.0979 F   0  0  0  0  0  0
  -21.5636   -3.4533   25.7733 F   0  0  0  0  0  0
  -29.9984  -13.5102   20.4303 N   0  0  0  0  0  0
  -26.2963  -12.9412   20.3287 N   0  0  0  0  0  0
  -25.9329  -11.6555   20.5739 N   0  0  0  0  0  0
  -22.0470  -12.8216   22.0408 N   0  0  0  0  0  0
  -25.4234  -15.1925   20.4167 N   0  0  0  0  0  0
  -31.7565  -14.8767   20.0343 O   0  0  0  0  0  0
  -21.6637   -6.8879   21.4240 O   0  0  0  0  0  0
  -22.3513  -14.5530   20.6703 O   0  0  0  0  0  0
  -24.6333  -31.8535   23.1975 C   0  0  0  0  0  0
  -25.9152  -32.4736   23.8326 C   0  0  1  0  0  0
  -27.2215  -27.2466   20.1308 C   0  0  0  0  0  0
  -25.5943  -33.8543   24.2259 N   0  0  0  0  0  0
  -23.4311  -30.4773   21.5393 C   0  0  2  0  0  0
  -24.8800  -28.9213   20.1098 C   0  0  0  0  0  0
  -22.7516  -29.4598   22.4886 C   0  0  0  0  0  0
  -18.0307  -28.1398   22.8491 C   0  0  0  0  0  0
  -24.1492  -36.7272   23.2638 C   0  0  0  0  0  0
  -25.9788  -30.7618   21.3809 C   0  0  0  0  0  0
  -26.0509  -29.3831   20.7228 C   0  0  0  0  0  0
  -27.2223  -28.5566   20.7244 C   0  0  0  0  0  0
  -26.0280  -26.8606   19.4791 C   0  0  0  0  0  0
  -24.8740  -27.6683   19.4788 C   0  0  0  0  0  0
  -23.6532  -29.8128   20.1548 C   0  0  0  0  0  0
  -25.4112  -36.3054   24.0331 C   0  0  1  0  0  0
  -20.5912  -28.3709   23.1268 C   0  0  2  0  0  0
  -20.6790  -26.9421   22.5415 C   0  0  0  0  0  0
  -19.5761  -26.6391   21.5221 C   0  0  0  0  0  0
  -18.1941  -26.7944   22.1630 C   0  0  0  0  0  0
  -19.1559  -28.8868   23.2881 C   0  0  0  0  0  0
  -18.9478  -30.1468   23.8899 C   0  0  0  0  0  0
  -17.6475  -30.6593   24.0571 C   0  0  0  0  0  0
  -25.9057  -34.9425   23.5096 C   0  0  0  0  0  0
  -16.5368  -29.9094   23.6328 C   0  0  0  0  0  0
  -16.7294  -28.6515   23.0348 C   0  0  0  0  0  0
  -26.4511  -31.6566   25.0723 C   0  0  0  0  0  0
  -25.3734  -31.3721   26.1449 C   0  0  0  0  0  0
  -27.0356  -30.2979   24.6216 C   0  0  0  0  0  0
  -27.6064  -32.4303   25.7493 C   0  0  0  0  0  0
  -27.5580  -37.1789   24.8466 C   0  0  0  0  0  0
  -21.4217  -29.3054   22.3642 N   0  0  0  0  0  0
  -26.4280  -37.3759   23.9422 N   0  0  0  0  0  0
  -24.6998  -31.0495   22.0951 N   0  0  0  0  0  0
  -23.4210  -28.8131   23.2981 O   0  0  0  0  0  0
  -28.3154  -26.3459   20.2105 O   0  0  0  0  0  0
  -26.5624  -34.8904   22.4663 O   0  0  0  0  0  0
  -23.5479  -32.1361   23.7257 O   0  0  0  0  0  0
  -28.6222  -19.4609   18.7289 C   0  0  0  0  0  0
  -29.1552  -19.6845   20.0177 C   0  0  0  0  0  0
  -29.6161  -17.1435   20.1166 C   0  0  0  0  0  0
  -28.6702  -18.1990   18.1072 C   0  0  0  0  0  0
  -29.6127  -18.4771   20.7165 C   0  0  0  0  0  0
  -29.1657  -17.0643   18.7789 C   0  0  0  0  0  0
  -29.0715  -21.1285   20.6382 C   0  0  0  0  0  0
  -33.3354  -20.2780   18.4691 C   0  0  0  0  0  0
  -32.2732  -23.0998   19.4132 C   0  0  0  0  0  0
  -31.8689  -22.4955   17.0216 C   0  0  0  0  0  0
  -31.8813  -20.6819   18.7702 C   0  0  0  0  0  0
  -29.1371  -23.7533   20.5480 C   0  0  0  0  0  0
  -29.9458  -22.4086   18.6017 C   0  0  0  0  0  0
  -28.1385  -24.8728   19.9164 C   0  0  0  0  0  0
  -31.4893  -22.1565   18.4804 C   0  0  0  0  0  0
  -29.8619  -15.8604   20.8333 N   0  0  0  0  0  0
  -29.2998  -22.3331   19.9412 N   0  0  0  0  0  0
  -28.7590  -21.1842   21.8296 O   0  0  0  0  0  0
  -28.1883  -18.0693   16.8491 F   0  0  0  0  0  0
  -30.0404  -18.5806   21.9977 F   0  0  0  0  0  0
  -29.1229  -15.8702   18.1416 F   0  0  0  0  0  0
  -31.4837  -12.5620   19.1973 H   0  0  0  0  0  0
  -30.3784  -11.4716   19.9764 H   0  0  0  0  0  0
  -29.8029  -11.7110   17.5472 H   0  0  0  0  0  0
  -29.6641  -13.4406   17.7225 H   0  0  0  0  0  0
  -27.8858  -11.2865   18.9093 H   0  0  0  0  0  0
  -27.3961  -12.5384   17.8000 H   0  0  0  0  0  0
  -27.6444  -14.2552   19.4803 H   0  0  0  0  0  0
  -28.7165  -12.1562   21.4282 H   0  0  0  0  0  0
  -28.4172  -13.8306   21.8104 H   0  0  0  0  0  0
  -25.2773   -9.5682   22.4751 H   0  0  0  0  0  0
  -24.0006   -7.4633   22.7462 H   0  0  0  0  0  0
  -21.0844   -8.8779   19.8952 H   0  0  0  0  0  0
  -22.3710  -10.9669   19.6161 H   0  0  0  0  0  0
  -21.2008   -7.6142   23.9712 H   0  0  0  0  0  0
  -21.1498   -6.0517   25.9074 H   0  0  0  0  0  0
  -22.0590   -2.7608   23.2835 H   0  0  0  0  0  0
  -22.4091  -11.9885   22.4812 H   0  0  0  0  0  0
  -21.1094  -13.1254   22.2617 H   0  0  0  0  0  0
  -24.6593  -15.8473   20.5378 H   0  0  0  0  0  0
  -26.2727  -15.6318   20.0870 H   0  0  0  0  0  0
  -26.7215  -32.5382   23.1061 H   0  0  0  0  0  0
  -25.0090  -33.9668   25.0403 H   0  0  0  0  0  0
  -22.7284  -31.3001   21.3917 H   0  0  0  0  0  0
  -23.3755  -35.9603   23.3282 H   0  0  0  0  0  0
  -24.3597  -36.8911   22.2060 H   0  0  0  0  0  0
  -23.7241  -37.6466   23.6672 H   0  0  0  0  0  0
  -26.1225  -31.5218   20.6116 H   0  0  0  0  0  0
  -26.8548  -30.8101   22.0158 H   0  0  0  0  0  0
  -28.1156  -28.9007   21.2272 H   0  0  0  0  0  0
  -25.9552  -25.9073   18.9767 H   0  0  0  0  0  0
  -23.9768  -27.3099   18.9936 H   0  0  0  0  0  0
  -23.7903  -30.5912   19.4032 H   0  0  0  0  0  0
  -22.7697  -29.2543   19.8411 H   0  0  0  0  0  0
  -25.1287  -36.1887   25.0820 H   0  0  0  0  0  0
  -21.0020  -28.3298   24.1385 H   0  0  0  0  0  0
  -20.5699  -26.2314   23.3623 H   0  0  0  0  0  0
  -21.6657  -26.7445   22.1203 H   0  0  0  0  0  0
  -19.6912  -25.6298   21.1259 H   0  0  0  0  0  0
  -19.6694  -27.3197   20.6746 H   0  0  0  0  0  0
  -17.4211  -26.6710   21.4031 H   0  0  0  0  0  0
  -18.0331  -26.0089   22.9025 H   0  0  0  0  0  0
  -19.7947  -30.7293   24.2265 H   0  0  0  0  0  0
  -17.5025  -31.6267   24.5182 H   0  0  0  0  0  0
  -15.5367  -30.2998   23.7642 H   0  0  0  0  0  0
  -15.8699  -28.0833   22.7052 H   0  0  0  0  0  0
  -24.5910  -30.7061   25.7791 H   0  0  0  0  0  0
  -24.8918  -32.2890   26.4861 H   0  0  0  0  0  0
  -25.8068  -30.8916   27.0230 H   0  0  0  0  0  0
  -26.2940  -29.6720   24.1240 H   0  0  0  0  0  0
  -27.4031  -29.7251   25.4740 H   0  0  0  0  0  0
  -27.8823  -30.4244   23.9467 H   0  0  0  0  0  0
  -27.2674  -33.3604   26.2063 H   0  0  0  0  0  0
  -28.3882  -32.6860   25.0330 H   0  0  0  0  0  0
  -28.0723  -31.8428   26.5413 H   0  0  0  0  0  0
  -28.2580  -38.0102   24.7522 H   0  0  0  0  0  0
  -28.1092  -36.2634   24.6267 H   0  0  0  0  0  0
  -27.2312  -37.1416   25.8871 H   0  0  0  0  0  0
  -20.9394  -29.8780   21.6851 H   0  0  0  0  0  0
  -26.0152  -38.2825   24.1435 H   0  0  0  0  0  0
  -28.1398  -20.2577   18.1883 H   0  0  0  0  0  0
  -33.5074  -19.2436   18.7674 H   0  0  0  0  0  0
  -34.0541  -20.8904   19.0114 H   0  0  0  0  0  0
  -33.5683  -20.3399   17.4061 H   0  0  0  0  0  0
  -33.3468  -23.0480   19.2338 H   0  0  0  0  0  0
  -32.1092  -22.8593   20.4640 H   0  0  0  0  0  0
  -31.9844  -24.1396   19.2549 H   0  0  0  0  0  0
  -32.9443  -22.4490   16.8506 H   0  0  0  0  0  0
  -31.5609  -23.5064   16.7511 H   0  0  0  0  0  0
  -31.3954  -21.8112   16.3162 H   0  0  0  0  0  0
  -31.7021  -20.4582   19.8208 H   0  0  0  0  0  0
  -31.2390  -20.0194   18.1904 H   0  0  0  0  0  0
  -28.8817  -23.6605   21.6037 H   0  0  0  0  0  0
  -30.1261  -24.2024   20.5706 H   0  0  0  0  0  0
  -29.4233  -21.7994   17.8736 H   0  0  0  0  0  0
  -29.7689  -23.4105   18.2133 H   0  0  0  0  0  0
  -27.1383  -24.5647   20.2197 H   0  0  0  0  0  0
  -28.1499  -24.7864   18.8307 H   0  0  0  0  0  0
  -29.1096  -15.6206   21.4608 H   0  0  0  0  0  0
  1 25  1  0  0  0
  1 30  2  0  0  0
  1 86  1  0  0  0
  2  3  1  0  0  0
  2 25  1  0  0  0
  2 92  1  0  0  0
  2 93  1  0  0  0
  3  4  1  0  0  0
  3 94  1  0  0  0
  3 95  1  0  0  0
  4  5  1  0  0  0
  4 96  1  0  0  0
  4 97  1  0  0  0
  5  6  1  0  0  0
  5 26  1  0  0  0
  5 98  1  0  0  0
  6 25  1  0  0  0
  6 99  1  0  0  0
  6100  1  0  0  0
  7  8  2  0  0  0
  7 26  1  0  0  0
  7 29  1  0  0  0
  8  9  1  0  0  0
  8 22  1  0  0  0
  9 10  1  0  0  0
  9 27  2  0  0  0
 10 11  2  0  0  0
 10 15  1  0  0  0
 11 12  1  0  0  0
 11101  1  0  0  0
 12 13  2  0  0  0
 12102  1  0  0  0
 13 14  1  0  0  0
 13 31  1  0  0  0
 14 15  2  0  0  0
 14103  1  0  0  0
 15104  1  0  0  0
 16 17  2  0  0  0
 16 21  1  0  0  0
 16 31  1  0  0  0
 17 18  1  0  0  0
 17105  1  0  0  0
 18 19  2  0  0  0
 18106  1  0  0  0
 19 20  1  0  0  0
 19 24  1  0  0  0
 20 21  2  0  0  0
 20107  1  0  0  0
 21 23  1  0  0  0
 22 28  1  0  0  0
 22 32  2  0  0  0
 26 27  1  0  0  0
 28108  1  0  0  0
 28109  1  0  0  0
 29110  1  0  0  0
 29111  1  0  0  0
 33 34  1  0  0  0
 33 66  1  0  0  0
 33 70  2  0  0  0
 34 36  1  0  0  0
 34 59  1  0  0  0
 34112  1  0  0  0
 35 44  2  0  0  0
 35 45  1  0  0  0
 35 68  1  0  0  0
 36 56  1  0  0  0
 36113  1  0  0  0
 37 39  1  0  0  0
 37 47  1  0  0  0
 37 66  1  0  0  0
 37114  1  0  0  0
 38 43  2  0  0  0
 38 46  1  0  0  0
 38 47  1  0  0  0
 39 64  1  0  0  0
 39 67  2  0  0  0
 40 52  1  0  0  0
 40 53  2  0  0  0
 40 58  1  0  0  0
 41115  1  0  0  0
 41116  1  0  0  0
 41117  1  0  0  0
 41 48  1  0  0  0
 42 43  1  0  0  0
 42 66  1  0  0  0
 42118  1  0  0  0
 42119  1  0  0  0
 43 44  1  0  0  0
 44120  1  0  0  0
 45 46  2  0  0  0
 45121  1  0  0  0
 46122  1  0  0  0
 47123  1  0  0  0
 47124  1  0  0  0
 48 56  1  0  0  0
 48 65  1  0  0  0
 48125  1  0  0  0
 49 50  1  0  0  0
 49 53  1  0  0  0
 49 64  1  0  0  0
 49126  1  0  0  0
 50 51  1  0  0  0
 50127  1  0  0  0
 50128  1  0  0  0
 51 52  1  0  0  0
 51129  1  0  0  0
 51130  1  0  0  0
 52131  1  0  0  0
 52132  1  0  0  0
 53 54  1  0  0  0
 54 55  2  0  0  0
 54133  1  0  0  0
 55 57  1  0  0  0
 55134  1  0  0  0
 56 69  2  0  0  0
 57 58  2  0  0  0
 57135  1  0  0  0
 58136  1  0  0  0
 59 60  1  0  0  0
 59 61  1  0  0  0
 59 62  1  0  0  0
 60137  1  0  0  0
 60138  1  0  0  0
 60139  1  0  0  0
 61140  1  0  0  0
 61141  1  0  0  0
 61142  1  0  0  0
 62143  1  0  0  0
 62144  1  0  0  0
 62145  1  0  0  0
 63 65  1  0  0  0
 63146  1  0  0  0
 63147  1  0  0  0
 63148  1  0  0  0
 64149  1  0  0  0
 65150  1  0  0  0
 68 84  1  0  0  0
 71 72  2  0  0  0
 71 74  1  0  0  0
 71151  1  0  0  0
 72 75  1  0  0  0
 72 77  1  0  0  0
 73 75  2  0  0  0
 73 76  1  0  0  0
 73 86  1  0  0  0
 74 76  2  0  0  0
 74 89  1  0  0  0
 75 90  1  0  0  0
 76 91  1  0  0  0
 77 87  1  0  0  0
 77 88  2  0  0  0
 78 81  1  0  0  0
 78152  1  0  0  0
 78153  1  0  0  0
 78154  1  0  0  0
 79155  1  0  0  0
 79156  1  0  0  0
 79157  1  0  0  0
 79 85  1  0  0  0
 80 85  1  0  0  0
 80158  1  0  0  0
 80159  1  0  0  0
 80160  1  0  0  0
 81 85  1  0  0  0
 81161  1  0  0  0
 81162  1  0  0  0
 82 84  1  0  0  0
 82 87  1  0  0  0
 82163  1  0  0  0
 82164  1  0  0  0
 83 85  1  0  0  0
 83 87  1  0  0  0
 83165  1  0  0  0
 83166  1  0  0  0
 84167  1  0  0  0
 84168  1  0  0  0
 86169  1  0  0  0
M  ISO  4   1 100  68 101  84 101  86 100
M  END
> <chiral flag>
0

> <version>
0

> <s_m_source_file>
/data/baiqing/PycharmProjects/Reinvent-master-3.2/result/LINK_invent/BTK/process_docking_weight1_custom_sum_contain_oxygen_bond_distance_aromatic_linkinvent_7_9_3/rearranged_h_0014.sdf

> <i_m_source_file_index>
64

> <r_mmod_Potential_Energy-OPLS-2005>
227.670669555664

> <r_mmod_Stretch_Energy-OPLS-2005>
148.439086914062

> <r_mmod_Bend_Energy-OPLS-2005>
191.165557861328

> <r_mmod_Torsional_Energy-OPLS-2005>
316.067779541016

> <r_mmod_Improper_Torsional_Energy-OPLS-2005>
6.43375682830811

> <r_mmod_Van_der_Waal_Energy-OPLS-2005>
148.358352661133

> <r_mmod_Electrostatic_Energy-OPLS-2005>
-455.880187988281

> <r_mmod_Solvation_Energy-OPLS-2005>
-218.624908447266

> <b_mmod_Minimization_Converged-OPLS-2005>
0

> <r_mmod_RMS_Derivative-OPLS-2005>
1.41750454902649

$$$$
64
                    3D
 Structure written by MMmdl.
171179  0  0  1  0            999 V2000
  -30.7068  -14.6842   20.3309 C   0  0  0  0  0  0
  -30.3990  -12.4120   19.4115 C   0  0  0  0  0  0
  -29.4555  -12.4449   18.1953 C   0  0  0  0  0  0
  -27.9915  -12.2978   18.6465 C   0  0  0  0  0  0
  -27.6240  -13.2014   19.8580 C   0  0  2  0  0  0
  -28.7089  -13.2060   20.9514 C   0  0  0  0  0  0
  -25.2496  -13.8083   20.5911 C   0  0  0  0  0  0
  -24.1747  -13.0381   20.9308 C   0  0  0  0  0  0
  -24.6299  -11.6844   20.8862 C   0  0  0  0  0  0
  -23.8989  -10.4246   21.0474 C   0  0  0  0  0  0
  -24.3563   -9.4159   21.9237 C   0  0  0  0  0  0
  -23.6271   -8.2181   22.0760 C   0  0  0  0  0  0
  -22.4258   -8.0233   21.3552 C   0  0  0  0  0  0
  -21.9883   -9.0197   20.4652 C   0  0  0  0  0  0
  -22.7181  -10.2098   20.3094 C   0  0  0  0  0  0
  -21.6822   -6.0723   22.5283 C   0  0  0  0  0  0
  -21.3981   -6.5634   23.8209 C   0  0  0  0  0  0
  -21.3669   -5.6800   24.9181 C   0  0  0  0  0  0
  -21.6052   -4.3061   24.7236 C   0  0  0  0  0  0
  -21.8818   -3.8146   23.4358 C   0  0  0  0  0  0
  -21.9181   -4.6960   22.3413 C   0  0  0  0  0  0
  -22.7784  -13.5212   21.1922 C   0  0  0  0  0  0
  -22.1663   -4.2151   21.0990 F   0  0  0  0  0  0
  -21.5648   -3.4543   25.7749 F   0  0  0  0  0  0
  -29.9760  -13.5241   20.2775 N   0  0  0  0  0  0
  -26.2884  -12.9222   20.3568 N   0  0  0  0  0  0
  -25.9240  -11.6396   20.5981 N   0  0  0  0  0  0
  -22.0397  -12.8202   22.0436 N   0  0  0  0  0  0
  -25.4271  -15.1802   20.4449 N   0  0  0  0  0  0
  -31.9273  -14.5951   20.4639 O   0  0  0  0  0  0
  -21.6621   -6.8845   21.4240 O   0  0  0  0  0  0
  -22.3514  -14.5542   20.6774 O   0  0  0  0  0  0
  -24.6242  -31.8636   23.2072 C   0  0  0  0  0  0
  -25.9118  -32.4785   23.8368 C   0  0  1  0  0  0
  -27.2068  -27.3333   20.1109 C   0  0  0  0  0  0
  -25.5957  -33.8586   24.2298 N   0  0  0  0  0  0
  -23.4133  -30.4914   21.5508 C   0  0  2  0  0  0
  -24.8552  -28.9556   20.1065 C   0  0  0  0  0  0
  -22.7463  -29.4638   22.4951 C   0  0  0  0  0  0
  -18.0291  -28.1367   22.8503 C   0  0  0  0  0  0
  -24.1500  -36.7284   23.2641 C   0  0  0  0  0  0
  -25.9554  -30.7956   21.3802 C   0  0  0  0  0  0
  -26.0248  -29.4286   20.7152 C   0  0  0  0  0  0
  -27.2031  -28.6279   20.7114 C   0  0  0  0  0  0
  -26.0172  -26.9190   19.4651 C   0  0  0  0  0  0
  -24.8537  -27.7056   19.4728 C   0  0  0  0  0  0
  -23.6229  -29.8338   20.1626 C   0  0  0  0  0  0
  -25.4118  -36.3090   24.0343 C   0  0  1  0  0  0
  -20.5895  -28.3665   23.1311 C   0  0  2  0  0  0
  -20.6783  -26.9393   22.5419 C   0  0  0  0  0  0
  -19.5745  -26.6373   21.5234 C   0  0  0  0  0  0
  -18.1927  -26.7916   22.1635 C   0  0  0  0  0  0
  -19.1549  -28.8827   23.2911 C   0  0  0  0  0  0
  -18.9464  -30.1439   23.8905 C   0  0  0  0  0  0
  -17.6461  -30.6575   24.0550 C   0  0  0  0  0  0
  -25.9058  -34.9461   23.5110 C   0  0  0  0  0  0
  -16.5349  -29.9061   23.6339 C   0  0  0  0  0  0
  -16.7283  -28.6481   23.0366 C   0  0  0  0  0  0
  -26.4505  -31.6587   25.0725 C   0  0  0  0  0  0
  -25.3730  -31.3730   26.1440 C   0  0  0  0  0  0
  -27.0356  -30.3011   24.6191 C   0  0  0  0  0  0
  -27.6063  -32.4325   25.7483 C   0  0  0  0  0  0
  -27.5589  -37.1801   24.8470 C   0  0  0  0  0  0
  -21.4180  -29.3028   22.3699 N   0  0  0  0  0  0
  -26.4299  -37.3780   23.9411 N   0  0  0  0  0  0
  -24.6827  -31.0678   22.1009 N   0  0  0  0  0  0
  -23.4209  -28.8182   23.3017 O   0  0  0  0  0  0
  -28.3142  -26.4785   20.1772 O   0  0  0  0  0  0
  -26.5609  -34.8925   22.4672 O   0  0  0  0  0  0
  -23.5420  -32.1437   23.7418 O   0  0  0  0  0  0
  -29.0035  -19.4402   19.6155 C   0  0  0  0  0  0
  -29.0449  -18.0527   19.2427 C   0  0  0  0  0  0
  -29.6947  -19.9902   20.7128 C   0  0  0  0  0  0
  -29.8556  -17.1214   20.0290 C   0  0  0  0  0  0
  -30.3907  -19.0605   21.5191 C   0  0  0  0  0  0
  -30.4668  -17.6768   21.1968 C   0  0  0  0  0  0
  -29.1776  -24.3140   22.1970 C   0  0  0  0  0  0
  -26.6794  -18.0093   18.3726 C   0  0  0  0  0  0
  -28.1887  -16.3198   17.3958 C   0  0  0  0  0  0
  -28.5307  -18.6695   16.8059 C   0  0  0  0  0  0
  -31.0746  -15.9093   18.3393 C   0  0  0  0  0  0
  -29.7832  -21.5280   21.0370 C   0  0  0  0  0  0
  -28.0687  -25.0268   20.0298 C   0  0  0  0  0  0
  -29.1070  -24.0212   20.6826 C   0  0  2  0  0  0
  -28.1537  -17.7408   17.9901 C   0  0  0  0  0  0
  -30.2559  -15.7688   19.5723 N   0  0  0  0  0  0
  -28.8465  -22.5367   20.4017 N   0  3  0  0  0  0
  -31.0471  -19.5130   22.6143 F   0  0  0  0  0  0
  -31.2204  -16.8995   22.0121 F   0  0  0  0  0  0
  -31.4328  -12.5113   19.0784 H   0  0  0  0  0  0
  -30.3297  -11.4590   19.9391 H   0  0  0  0  0  0
  -29.7077  -11.6464   17.4958 H   0  0  0  0  0  0
  -29.5698  -13.3767   17.6450 H   0  0  0  0  0  0
  -27.8439  -11.2520   18.9160 H   0  0  0  0  0  0
  -27.3185  -12.4870   17.8094 H   0  0  0  0  0  0
  -27.5762  -14.2112   19.4891 H   0  0  0  0  0  0
  -28.7664  -12.2383   21.4515 H   0  0  0  0  0  0
  -28.4796  -13.9490   21.7174 H   0  0  0  0  0  0
  -25.2690   -9.5659   22.4839 H   0  0  0  0  0  0
  -24.0003   -7.4547   22.7442 H   0  0  0  0  0  0
  -21.0826   -8.8669   19.8938 H   0  0  0  0  0  0
  -22.3607  -10.9647   19.6220 H   0  0  0  0  0  0
  -21.1935   -7.6135   23.9705 H   0  0  0  0  0  0
  -21.1519   -6.0542   25.9090 H   0  0  0  0  0  0
  -22.0592   -2.7608   23.2856 H   0  0  0  0  0  0
  -22.4000  -11.9848   22.4826 H   0  0  0  0  0  0
  -21.1001  -13.1221   22.2592 H   0  0  0  0  0  0
  -24.6788  -15.8462   20.5962 H   0  0  0  0  0  0
  -26.3091  -15.6168   20.2141 H   0  0  0  0  0  0
  -26.7168  -32.5448   23.1103 H   0  0  0  0  0  0
  -25.0130  -33.9727   25.0458 H   0  0  0  0  0  0
  -22.7049  -31.3114   21.4162 H   0  0  0  0  0  0
  -23.3776  -35.9603   23.3305 H   0  0  0  0  0  0
  -24.3596  -36.8897   22.2055 H   0  0  0  0  0  0
  -23.7239  -37.6487   23.6643 H   0  0  0  0  0  0
  -26.1005  -31.5652   20.6204 H   0  0  0  0  0  0
  -26.8318  -30.8294   22.0158 H   0  0  0  0  0  0
  -28.0951  -28.9823   21.2087 H   0  0  0  0  0  0
  -25.9489  -25.9708   18.9529 H   0  0  0  0  0  0
  -23.9589  -27.3392   18.9882 H   0  0  0  0  0  0
  -23.7330  -30.6152   19.4103 H   0  0  0  0  0  0
  -22.7404  -29.2663   19.8629 H   0  0  0  0  0  0
  -25.1303  -36.1939   25.0836 H   0  0  0  0  0  0
  -20.9998  -28.3223   24.1428 H   0  0  0  0  0  0
  -20.5725  -26.2254   23.3609 H   0  0  0  0  0  0
  -21.6641  -26.7438   22.1174 H   0  0  0  0  0  0
  -19.6903  -25.6300   21.1232 H   0  0  0  0  0  0
  -19.6683  -27.3207   20.6787 H   0  0  0  0  0  0
  -17.4210  -26.6719   21.4020 H   0  0  0  0  0  0
  -18.0280  -26.0045   22.9007 H   0  0  0  0  0  0
  -19.7935  -30.7275   24.2258 H   0  0  0  0  0  0
  -17.5001  -31.6253   24.5145 H   0  0  0  0  0  0
  -15.5343  -30.2944   23.7664 H   0  0  0  0  0  0
  -15.8687  -28.0782   22.7077 H   0  0  0  0  0  0
  -24.5886  -30.7114   25.7755 H   0  0  0  0  0  0
  -24.8939  -32.2903   26.4874 H   0  0  0  0  0  0
  -25.8033  -30.8878   27.0208 H   0  0  0  0  0  0
  -26.2936  -29.6743   24.1227 H   0  0  0  0  0  0
  -27.4080  -29.7288   25.4702 H   0  0  0  0  0  0
  -27.8800  -30.4315   23.9410 H   0  0  0  0  0  0
  -27.2675  -33.3625   26.2062 H   0  0  0  0  0  0
  -28.3858  -32.6892   25.0292 H   0  0  0  0  0  0
  -28.0746  -31.8448   26.5394 H   0  0  0  0  0  0
  -28.2609  -38.0100   24.7518 H   0  0  0  0  0  0
  -28.1092  -36.2634   24.6291 H   0  0  0  0  0  0
  -27.2306  -37.1433   25.8875 H   0  0  0  0  0  0
  -20.9334  -29.8736   21.6914 H   0  0  0  0  0  0
  -26.0196  -38.2866   24.1390 H   0  0  0  0  0  0
  -28.4267  -20.1349   19.0278 H   0  0  0  0  0  0
  -29.3461  -25.3778   22.3759 H   0  0  0  0  0  0
  -29.9997  -23.7895   22.6840 H   0  0  0  0  0  0
  -28.2480  -24.0462   22.7019 H   0  0  0  0  0  0
  -26.0011  -17.8025   17.5443 H   0  0  0  0  0  0
  -26.4971  -19.0421   18.6676 H   0  0  0  0  0  0
  -26.3669  -17.3799   19.2035 H   0  0  0  0  0  0
  -28.1181  -15.5640   18.1554 H   0  0  0  0  0  0
  -29.0730  -16.1246   16.7967 H   0  0  0  0  0  0
  -27.3579  -16.1498   16.7090 H   0  0  0  0  0  0
  -28.3281  -19.7230   16.9931 H   0  0  0  0  0  0
  -27.9643  -18.4167   15.9088 H   0  0  0  0  0  0
  -29.5876  -18.5788   16.5498 H   0  0  0  0  0  0
  -32.1444  -15.9695   18.5448 H   0  0  0  0  0  0
  -30.8747  -16.8252   17.7851 H   0  0  0  0  0  0
  -30.9305  -15.0755   17.6562 H   0  0  0  0  0  0
  -30.8042  -21.8406   20.8130 H   0  0  0  0  0  0
  -29.6801  -21.6141   22.1182 H   0  0  0  0  0  0
  -27.1022  -24.7823   20.4752 H   0  0  0  0  0  0
  -27.9839  -24.8094   18.9642 H   0  0  0  0  0  0
  -30.0823  -24.2517   20.2509 H   0  0  0  0  0  0
  -27.9094  -22.2971   20.6850 H   0  0  0  0  0  0
  -28.9004  -22.4013   19.4044 H   0  0  0  0  0  0
  1 25  1  0  0  0
  1 30  2  0  0  0
  1 86  1  0  0  0
  2  3  1  0  0  0
  2 25  1  0  0  0
  2 90  1  0  0  0
  2 91  1  0  0  0
  3  4  1  0  0  0
  3 92  1  0  0  0
  3 93  1  0  0  0
  4  5  1  0  0  0
  4 94  1  0  0  0
  4 95  1  0  0  0
  5  6  1  0  0  0
  5 26  1  0  0  0
  5 96  1  0  0  0
  6 25  1  0  0  0
  6 97  1  0  0  0
  6 98  1  0  0  0
  7  8  2  0  0  0
  7 26  1  0  0  0
  7 29  1  0  0  0
  8  9  1  0  0  0
  8 22  1  0  0  0
  9 10  1  0  0  0
  9 27  2  0  0  0
 10 11  2  0  0  0
 10 15  1  0  0  0
 11 12  1  0  0  0
 11 99  1  0  0  0
 12 13  2  0  0  0
 12100  1  0  0  0
 13 14  1  0  0  0
 13 31  1  0  0  0
 14 15  2  0  0  0
 14101  1  0  0  0
 15102  1  0  0  0
 16 17  2  0  0  0
 16 21  1  0  0  0
 16 31  1  0  0  0
 17 18  1  0  0  0
 17103  1  0  0  0
 18 19  2  0  0  0
 18104  1  0  0  0
 19 20  1  0  0  0
 19 24  1  0  0  0
 20 21  2  0  0  0
 20105  1  0  0  0
 21 23  1  0  0  0
 22 28  1  0  0  0
 22 32  2  0  0  0
 26 27  1  0  0  0
 28106  1  0  0  0
 28107  1  0  0  0
 29108  1  0  0  0
 29109  1  0  0  0
 33 34  1  0  0  0
 33 66  1  0  0  0
 33 70  2  0  0  0
 34 36  1  0  0  0
 34 59  1  0  0  0
 34110  1  0  0  0
 35 44  2  0  0  0
 35 45  1  0  0  0
 35 68  1  0  0  0
 36 56  1  0  0  0
 36111  1  0  0  0
 37 39  1  0  0  0
 37 47  1  0  0  0
 37 66  1  0  0  0
 37112  1  0  0  0
 38 43  2  0  0  0
 38 46  1  0  0  0
 38 47  1  0  0  0
 39 64  1  0  0  0
 39 67  2  0  0  0
 40 52  1  0  0  0
 40 53  2  0  0  0
 40 58  1  0  0  0
 41113  1  0  0  0
 41114  1  0  0  0
 41115  1  0  0  0
 41 48  1  0  0  0
 42 43  1  0  0  0
 42 66  1  0  0  0
 42116  1  0  0  0
 42117  1  0  0  0
 43 44  1  0  0  0
 44118  1  0  0  0
 45 46  2  0  0  0
 45119  1  0  0  0
 46120  1  0  0  0
 47121  1  0  0  0
 47122  1  0  0  0
 48 56  1  0  0  0
 48 65  1  0  0  0
 48123  1  0  0  0
 49 50  1  0  0  0
 49 53  1  0  0  0
 49 64  1  0  0  0
 49124  1  0  0  0
 50 51  1  0  0  0
 50125  1  0  0  0
 50126  1  0  0  0
 51 52  1  0  0  0
 51127  1  0  0  0
 51128  1  0  0  0
 52129  1  0  0  0
 52130  1  0  0  0
 53 54  1  0  0  0
 54 55  2  0  0  0
 54131  1  0  0  0
 55 57  1  0  0  0
 55132  1  0  0  0
 56 69  2  0  0  0
 57 58  2  0  0  0
 57133  1  0  0  0
 58134  1  0  0  0
 59 60  1  0  0  0
 59 61  1  0  0  0
 59 62  1  0  0  0
 60135  1  0  0  0
 60136  1  0  0  0
 60137  1  0  0  0
 61138  1  0  0  0
 61139  1  0  0  0
 61140  1  0  0  0
 62141  1  0  0  0
 62142  1  0  0  0
 62143  1  0  0  0
 63 65  1  0  0  0
 63144  1  0  0  0
 63145  1  0  0  0
 63146  1  0  0  0
 64147  1  0  0  0
 65148  1  0  0  0
 68 83  1  0  0  0
 71 72  2  0  0  0
 71 73  1  0  0  0
 71149  1  0  0  0
 72 74  1  0  0  0
 72 85  1  0  0  0
 73 75  2  0  0  0
 73 82  1  0  0  0
 74 76  2  0  0  0
 74 86  1  0  0  0
 75 76  1  0  0  0
 75 88  1  0  0  0
 76 89  1  0  0  0
 77150  1  0  0  0
 77151  1  0  0  0
 77152  1  0  0  0
 77 84  1  0  0  0
 78153  1  0  0  0
 78154  1  0  0  0
 78155  1  0  0  0
 78 85  1  0  0  0
 79 85  1  0  0  0
 79156  1  0  0  0
 79157  1  0  0  0
 79158  1  0  0  0
 80 85  1  0  0  0
 80159  1  0  0  0
 80160  1  0  0  0
 80161  1  0  0  0
 81 86  1  0  0  0
 81162  1  0  0  0
 81163  1  0  0  0
 81164  1  0  0  0
 82 87  1  0  0  0
 82165  1  0  0  0
 82166  1  0  0  0
 83 84  1  0  0  0
 83167  1  0  0  0
 83168  1  0  0  0
 84 87  1  0  0  0
 84169  1  0  0  0
 87170  1  0  0  0
 87171  1  0  0  0
M  CHG  1  87   1
M  ISO  4   1 100  68 101  83 101  86 100
M  END
> <chiral flag>
0

> <version>
0

> <s_m_source_file>
/data/baiqing/PycharmProjects/Reinvent-master-3.2/result/LINK_invent/BTK/process_docking_weight1_custom_sum_contain_oxygen_bond_distance_aromatic_linkinvent_7_9_3/rearranged_h_0014.sdf

> <i_m_source_file_index>
65

> <r_mmod_Potential_Energy-OPLS-2005>
274.2548828125

> <r_mmod_Stretch_Energy-OPLS-2005>
99.4314804077148

> <r_mmod_Bend_Energy-OPLS-2005>
195.161483764648

> <r_mmod_Torsional_Energy-OPLS-2005>
324.475311279297

> <r_mmod_Improper_Torsional_Energy-OPLS-2005>
32.2261657714844

> <r_mmod_Van_der_Waal_Energy-OPLS-2005>
178.641510009766

> <r_mmod_Electrostatic_Energy-OPLS-2005>
-208.642501831055

> <r_mmod_Solvation_Energy-OPLS-2005>
-438.738800048828

> <b_mmod_Minimization_Converged-OPLS-2005>
0

> <r_mmod_RMS_Derivative-OPLS-2005>
2.96418356895447

$$$$
65
                    3D
 Structure written by MMmdl.
157165  0  0  1  0            999 V2000
  -30.6533  -14.5529   20.5300 C   0  0  0  0  0  0
  -30.4362  -12.3401   19.4441 C   0  0  0  0  0  0
  -29.5052  -12.4982   18.2218 C   0  0  0  0  0  0
  -28.0261  -12.3472   18.6304 C   0  0  0  0  0  0
  -27.6606  -13.1906   19.8799 C   0  0  2  0  0  0
  -28.7067  -13.0098   21.0045 C   0  0  0  0  0  0
  -25.2615  -13.8115   20.5706 C   0  0  0  0  0  0
  -24.1846  -13.0416   20.9187 C   0  0  0  0  0  0
  -24.6378  -11.6873   20.8752 C   0  0  0  0  0  0
  -23.9032  -10.4278   21.0418 C   0  0  0  0  0  0
  -24.3605   -9.4203   21.9191 C   0  0  0  0  0  0
  -23.6291   -8.2235   22.0748 C   0  0  0  0  0  0
  -22.4269   -8.0274   21.3541 C   0  0  0  0  0  0
  -21.9896   -9.0246   20.4643 C   0  0  0  0  0  0
  -22.7215  -10.2130   20.3058 C   0  0  0  0  0  0
  -21.6850   -6.0736   22.5281 C   0  0  0  0  0  0
  -21.4010   -6.5641   23.8216 C   0  0  0  0  0  0
  -21.3658   -5.6794   24.9179 C   0  0  0  0  0  0
  -21.6047   -4.3060   24.7224 C   0  0  0  0  0  0
  -21.8824   -3.8149   23.4346 C   0  0  0  0  0  0
  -21.9195   -4.6966   22.3404 C   0  0  0  0  0  0
  -22.7879  -13.5238   21.1854 C   0  0  0  0  0  0
  -22.1662   -4.2160   21.0976 F   0  0  0  0  0  0
  -21.5632   -3.4534   25.7733 F   0  0  0  0  0  0
  -30.0317  -13.3391   20.4498 N   0  0  0  0  0  0
  -26.3029  -12.9234   20.3409 N   0  0  0  0  0  0
  -25.9302  -11.6414   20.5805 N   0  0  0  0  0  0
  -22.0514  -12.8227   22.0406 N   0  0  0  0  0  0
  -25.4369  -15.1839   20.4130 N   0  0  0  0  0  0
  -31.7792  -14.7516   20.0653 O   0  0  0  0  0  0
  -21.6634   -6.8873   21.4239 O   0  0  0  0  0  0
  -22.3575  -14.5551   20.6711 O   0  0  0  0  0  0
  -24.6196  -31.8634   23.2059 C   0  0  0  0  0  0
  -25.9071  -32.4797   23.8364 C   0  0  1  0  0  0
  -27.2362  -27.3863   20.1065 C   0  0  0  0  0  0
  -25.5897  -33.8594   24.2292 N   0  0  0  0  0  0
  -23.4094  -30.4882   21.5454 C   0  0  2  0  0  0
  -24.8568  -28.9493   20.1105 C   0  0  0  0  0  0
  -22.7433  -29.4653   22.4949 C   0  0  0  0  0  0
  -18.0279  -28.1390   22.8491 C   0  0  0  0  0  0
  -24.1482  -36.7315   23.2636 C   0  0  0  0  0  0
  -25.9427  -30.8178   21.3643 C   0  0  0  0  0  0
  -26.0196  -29.4484   20.7104 C   0  0  0  0  0  0
  -27.2093  -28.6758   20.7018 C   0  0  0  0  0  0
  -26.0546  -26.9241   19.4810 C   0  0  0  0  0  0
  -24.8723  -27.6890   19.4910 C   0  0  0  0  0  0
  -23.6209  -29.8210   20.1603 C   0  0  0  0  0  0
  -25.4100  -36.3096   24.0334 C   0  0  1  0  0  0
  -20.5870  -28.3680   23.1299 C   0  0  2  0  0  0
  -20.6766  -26.9409   22.5413 C   0  0  0  0  0  0
  -19.5743  -26.6389   21.5214 C   0  0  0  0  0  0
  -18.1923  -26.7933   22.1632 C   0  0  0  0  0  0
  -19.1528  -28.8852   23.2897 C   0  0  0  0  0  0
  -18.9460  -30.1459   23.8908 C   0  0  0  0  0  0
  -17.6461  -30.6591   24.0572 C   0  0  0  0  0  0
  -25.9035  -34.9464   23.5116 C   0  0  0  0  0  0
  -16.5351  -29.9098   23.6324 C   0  0  0  0  0  0
  -16.7269  -28.6518   23.0338 C   0  0  0  0  0  0
  -26.4482  -31.6586   25.0708 C   0  0  0  0  0  0
  -25.3741  -31.3709   26.1453 C   0  0  0  0  0  0
  -27.0316  -30.3017   24.6119 C   0  0  0  0  0  0
  -27.6043  -32.4314   25.7479 C   0  0  0  0  0  0
  -27.5578  -37.1804   24.8462 C   0  0  0  0  0  0
  -21.4153  -29.3041   22.3693 N   0  0  0  0  0  0
  -26.4285  -37.3786   23.9416 N   0  0  0  0  0  0
  -24.6757  -31.0711   22.0969 N   0  0  0  0  0  0
  -23.4186  -28.8192   23.3005 O   0  0  0  0  0  0
  -28.3977  -26.6200   20.1633 O   0  0  0  0  0  0
  -26.5609  -34.8930   22.4686 O   0  0  0  0  0  0
  -23.5382  -32.1396   23.7437 O   0  0  0  0  0  0
  -28.9278  -19.4349   19.5523 C   0  0  0  0  0  0
  -28.7361  -17.0054   19.4854 C   0  0  0  0  0  0
  -28.3429  -18.2737   19.0174 C   0  0  0  0  0  0
  -29.9155  -19.3506   20.5536 C   0  0  0  0  0  0
  -29.7033  -16.8661   20.5066 C   0  0  0  0  0  0
  -30.3002  -18.0518   21.0357 C   0  0  0  0  0  0
  -29.7268  -22.9271   20.2375 C   0  0  0  0  0  0
  -27.2760  -18.3986   17.9474 C   0  0  0  0  0  0
  -30.5910  -20.6584   21.0300 C   0  0  0  0  0  0
  -29.3669  -24.3555   20.7489 C   0  0  0  0  0  0
  -28.3368  -25.1845   19.9108 C   0  0  0  0  0  0
  -29.9124  -15.5520   21.0645 N   0  0  0  0  0  0
  -29.7855  -21.9075   21.1274 N   0  0  0  0  0  0
  -30.0406  -22.7679   19.0569 O   0  0  0  0  0  0
  -31.4862  -17.8986   22.2877 Cl  0  0  0  0  0  0
  -31.4791  -12.4537   19.1436 H   0  0  0  0  0  0
  -30.3566  -11.3348   19.8609 H   0  0  0  0  0  0
  -29.7571  -11.7581   17.4612 H   0  0  0  0  0  0
  -29.6623  -13.4752   17.7629 H   0  0  0  0  0  0
  -27.8434  -11.2902   18.8310 H   0  0  0  0  0  0
  -27.3771  -12.6124   17.7952 H   0  0  0  0  0  0
  -27.6839  -14.2266   19.5668 H   0  0  0  0  0  0
  -28.7034  -11.9798   21.3649 H   0  0  0  0  0  0
  -28.4542  -13.6184   21.8731 H   0  0  0  0  0  0
  -25.2754   -9.5685   22.4758 H   0  0  0  0  0  0
  -24.0015   -7.4619   22.7455 H   0  0  0  0  0  0
  -21.0835   -8.8759   19.8943 H   0  0  0  0  0  0
  -22.3678  -10.9673   19.6169 H   0  0  0  0  0  0
  -21.1991   -7.6148   23.9720 H   0  0  0  0  0  0
  -21.1480   -6.0522   25.9083 H   0  0  0  0  0  0
  -22.0604   -2.7611   23.2838 H   0  0  0  0  0  0
  -22.4113  -11.9874   22.4782 H   0  0  0  0  0  0
  -21.1141  -13.1274   22.2625 H   0  0  0  0  0  0
  -24.6756  -15.8430   20.5320 H   0  0  0  0  0  0
  -26.2983  -15.6272   20.1235 H   0  0  0  0  0  0
  -26.7142  -32.5494   23.1124 H   0  0  0  0  0  0
  -25.0015  -33.9733   25.0417 H   0  0  0  0  0  0
  -22.7012  -31.3071   21.4028 H   0  0  0  0  0  0
  -23.3734  -35.9657   23.3292 H   0  0  0  0  0  0
  -24.3582  -36.8940   22.2053 H   0  0  0  0  0  0
  -23.7244  -37.6522   23.6658 H   0  0  0  0  0  0
  -26.0585  -31.5833   20.5956 H   0  0  0  0  0  0
  -26.8299  -30.8718   21.9839 H   0  0  0  0  0  0
  -28.1047  -29.0565   21.1730 H   0  0  0  0  0  0
  -26.0199  -25.9695   18.9779 H   0  0  0  0  0  0
  -23.9810  -27.3012   19.0171 H   0  0  0  0  0  0
  -23.7356  -30.5957   19.4009 H   0  0  0  0  0  0
  -22.7431  -29.2452   19.8609 H   0  0  0  0  0  0
  -25.1276  -36.1948   25.0826 H   0  0  0  0  0  0
  -20.9978  -28.3254   24.1412 H   0  0  0  0  0  0
  -20.5660  -26.2293   23.3607 H   0  0  0  0  0  0
  -21.6636  -26.7443   22.1205 H   0  0  0  0  0  0
  -19.6897  -25.6301   21.1239 H   0  0  0  0  0  0
  -19.6676  -27.3203   20.6747 H   0  0  0  0  0  0
  -17.4186  -26.6680   21.4040 H   0  0  0  0  0  0
  -18.0332  -26.0076   22.9033 H   0  0  0  0  0  0
  -19.7937  -30.7277   24.2273 H   0  0  0  0  0  0
  -17.5017  -31.6271   24.5175 H   0  0  0  0  0  0
  -15.5352  -30.3009   23.7643 H   0  0  0  0  0  0
  -15.8669  -28.0855   22.7025 H   0  0  0  0  0  0
  -24.5905  -30.7064   25.7798 H   0  0  0  0  0  0
  -24.8949  -32.2874   26.4901 H   0  0  0  0  0  0
  -25.8093  -30.8877   27.0208 H   0  0  0  0  0  0
  -26.2873  -29.6766   24.1171 H   0  0  0  0  0  0
  -27.4060  -29.7267   25.4598 H   0  0  0  0  0  0
  -27.8719  -30.4311   23.9294 H   0  0  0  0  0  0
  -27.2642  -33.3597   26.2080 H   0  0  0  0  0  0
  -28.3846  -32.6899   25.0309 H   0  0  0  0  0  0
  -28.0718  -31.8423   26.5377 H   0  0  0  0  0  0
  -28.2587  -38.0109   24.7519 H   0  0  0  0  0  0
  -28.1082  -36.2640   24.6266 H   0  0  0  0  0  0
  -27.2306  -37.1436   25.8868 H   0  0  0  0  0  0
  -20.9312  -29.8775   21.6926 H   0  0  0  0  0  0
  -26.0167  -38.2861   24.1425 H   0  0  0  0  0  0
  -28.6285  -20.4008   19.1715 H   0  0  0  0  0  0
  -28.2683  -16.1386   19.0532 H   0  0  0  0  0  0
  -27.5954  -19.0873   17.1646 H   0  0  0  0  0  0
  -26.3510  -18.7790   18.3824 H   0  0  0  0  0  0
  -27.0568  -17.4375   17.4808 H   0  0  0  0  0  0
  -31.4478  -20.8354   20.3775 H   0  0  0  0  0  0
  -31.0135  -20.5010   22.0213 H   0  0  0  0  0  0
  -30.3068  -24.9071   20.7655 H   0  0  0  0  0  0
  -29.0368  -24.3055   21.7869 H   0  0  0  0  0  0
  -27.3566  -24.7759   20.1548 H   0  0  0  0  0  0
  -28.4910  -25.0216   18.8432 H   0  0  0  0  0  0
  -29.1005  -15.1890   21.5393 H   0  0  0  0  0  0
  -29.4643  -22.1241   22.0623 H   0  0  0  0  0  0
  1 25  1  0  0  0
  1 30  2  0  0  0
  1 82  1  0  0  0
  2  3  1  0  0  0
  2 25  1  0  0  0
  2 86  1  0  0  0
  2 87  1  0  0  0
  3  4  1  0  0  0
  3 88  1  0  0  0
  3 89  1  0  0  0
  4  5  1  0  0  0
  4 90  1  0  0  0
  4 91  1  0  0  0
  5  6  1  0  0  0
  5 26  1  0  0  0
  5 92  1  0  0  0
  6 25  1  0  0  0
  6 93  1  0  0  0
  6 94  1  0  0  0
  7  8  2  0  0  0
  7 26  1  0  0  0
  7 29  1  0  0  0
  8  9  1  0  0  0
  8 22  1  0  0  0
  9 10  1  0  0  0
  9 27  2  0  0  0
 10 11  2  0  0  0
 10 15  1  0  0  0
 11 12  1  0  0  0
 11 95  1  0  0  0
 12 13  2  0  0  0
 12 96  1  0  0  0
 13 14  1  0  0  0
 13 31  1  0  0  0
 14 15  2  0  0  0
 14 97  1  0  0  0
 15 98  1  0  0  0
 16 17  2  0  0  0
 16 21  1  0  0  0
 16 31  1  0  0  0
 17 18  1  0  0  0
 17 99  1  0  0  0
 18 19  2  0  0  0
 18100  1  0  0  0
 19 20  1  0  0  0
 19 24  1  0  0  0
 20 21  2  0  0  0
 20101  1  0  0  0
 21 23  1  0  0  0
 22 28  1  0  0  0
 22 32  2  0  0  0
 26 27  1  0  0  0
 28102  1  0  0  0
 28103  1  0  0  0
 29104  1  0  0  0
 29105  1  0  0  0
 33 34  1  0  0  0
 33 66  1  0  0  0
 33 70  2  0  0  0
 34 36  1  0  0  0
 34 59  1  0  0  0
 34106  1  0  0  0
 35 44  2  0  0  0
 35 45  1  0  0  0
 35 68  1  0  0  0
 36 56  1  0  0  0
 36107  1  0  0  0
 37 39  1  0  0  0
 37 47  1  0  0  0
 37 66  1  0  0  0
 37108  1  0  0  0
 38 43  2  0  0  0
 38 46  1  0  0  0
 38 47  1  0  0  0
 39 64  1  0  0  0
 39 67  2  0  0  0
 40 52  1  0  0  0
 40 53  2  0  0  0
 40 58  1  0  0  0
 41109  1  0  0  0
 41110  1  0  0  0
 41111  1  0  0  0
 41 48  1  0  0  0
 42 43  1  0  0  0
 42 66  1  0  0  0
 42112  1  0  0  0
 42113  1  0  0  0
 43 44  1  0  0  0
 44114  1  0  0  0
 45 46  2  0  0  0
 45115  1  0  0  0
 46116  1  0  0  0
 47117  1  0  0  0
 47118  1  0  0  0
 48 56  1  0  0  0
 48 65  1  0  0  0
 48119  1  0  0  0
 49 50  1  0  0  0
 49 53  1  0  0  0
 49 64  1  0  0  0
 49120  1  0  0  0
 50 51  1  0  0  0
 50121  1  0  0  0
 50122  1  0  0  0
 51 52  1  0  0  0
 51123  1  0  0  0
 51124  1  0  0  0
 52125  1  0  0  0
 52126  1  0  0  0
 53 54  1  0  0  0
 54 55  2  0  0  0
 54127  1  0  0  0
 55 57  1  0  0  0
 55128  1  0  0  0
 56 69  2  0  0  0
 57 58  2  0  0  0
 57129  1  0  0  0
 58130  1  0  0  0
 59 60  1  0  0  0
 59 61  1  0  0  0
 59 62  1  0  0  0
 60131  1  0  0  0
 60132  1  0  0  0
 60133  1  0  0  0
 61134  1  0  0  0
 61135  1  0  0  0
 61136  1  0  0  0
 62137  1  0  0  0
 62138  1  0  0  0
 62139  1  0  0  0
 63 65  1  0  0  0
 63140  1  0  0  0
 63141  1  0  0  0
 63142  1  0  0  0
 64143  1  0  0  0
 65144  1  0  0  0
 68 81  1  0  0  0
 71 73  2  0  0  0
 71 74  1  0  0  0
 71145  1  0  0  0
 72 73  1  0  0  0
 72 75  2  0  0  0
 72146  1  0  0  0
 73 78  1  0  0  0
 74 76  2  0  0  0
 74 79  1  0  0  0
 75 76  1  0  0  0
 75 82  1  0  0  0
 76 85  1  0  0  0
 77 80  1  0  0  0
 77 83  1  0  0  0
 77 84  2  0  0  0
 78147  1  0  0  0
 78148  1  0  0  0
 78149  1  0  0  0
 79 83  1  0  0  0
 79150  1  0  0  0
 79151  1  0  0  0
 80 81  1  0  0  0
 80152  1  0  0  0
 80153  1  0  0  0
 81154  1  0  0  0
 81155  1  0  0  0
 82156  1  0  0  0
 83157  1  0  0  0
M  ISO  4   1 100  68 101  81 101  82 100
M  END
> <chiral flag>
0

> <version>
0

> <s_m_source_file>
/data/baiqing/PycharmProjects/Reinvent-master-3.2/result/LINK_invent/BTK/process_docking_weight1_custom_sum_contain_oxygen_bond_distance_aromatic_linkinvent_7_9_3/rearranged_h_0014.sdf

> <i_m_source_file_index>
66

> <r_mmod_Potential_Energy-OPLS-2005>
-99.2827072143555

> <r_mmod_Stretch_Energy-OPLS-2005>
52.5897178649902

> <r_mmod_Bend_Energy-OPLS-2005>
115.004768371582

> <r_mmod_Torsional_Energy-OPLS-2005>
247.16862487793

> <r_mmod_Improper_Torsional_Energy-OPLS-2005>
7.68802547454834

> <r_mmod_Van_der_Waal_Energy-OPLS-2005>
143.519271850586

> <r_mmod_Electrostatic_Energy-OPLS-2005>
-448.028259277344

> <r_mmod_Solvation_Energy-OPLS-2005>
-241.67692565918

> <b_mmod_Minimization_Converged-OPLS-2005>
0

> <r_mmod_RMS_Derivative-OPLS-2005>
1.36949253082275

$$$$
66
                    3D
 Structure written by MMmdl.
165173  0  0  1  0            999 V2000
  -30.4176  -15.3195   20.3695 C   0  0  0  0  0  0
  -30.4337  -12.8462   19.5336 C   0  0  0  0  0  0
  -29.5366  -12.5839   18.2958 C   0  0  0  0  0  0
  -28.0909  -12.2905   18.7281 C   0  0  0  0  0  0
  -27.6079  -13.2763   19.8198 C   0  0  2  0  0  0
  -28.6371  -13.4785   20.9542 C   0  0  0  0  0  0
  -25.2373  -13.8240   20.5748 C   0  0  0  0  0  0
  -24.1734  -13.0427   20.9263 C   0  0  0  0  0  0
  -24.6387  -11.6926   20.8760 C   0  0  0  0  0  0
  -23.9085  -10.4280   21.0401 C   0  0  0  0  0  0
  -24.3629   -9.4198   21.9180 C   0  0  0  0  0  0
  -23.6303   -8.2234   22.0751 C   0  0  0  0  0  0
  -22.4288   -8.0272   21.3542 C   0  0  0  0  0  0
  -21.9921   -9.0244   20.4640 C   0  0  0  0  0  0
  -22.7254  -10.2124   20.3049 C   0  0  0  0  0  0
  -21.6855   -6.0736   22.5285 C   0  0  0  0  0  0
  -21.4014   -6.5640   23.8216 C   0  0  0  0  0  0
  -21.3658   -5.6794   24.9178 C   0  0  0  0  0  0
  -21.6044   -4.3055   24.7229 C   0  0  0  0  0  0
  -21.8818   -3.8149   23.4352 C   0  0  0  0  0  0
  -21.9195   -4.6964   22.3405 C   0  0  0  0  0  0
  -22.7752  -13.5179   21.1911 C   0  0  0  0  0  0
  -22.1666   -4.2149   21.0986 F   0  0  0  0  0  0
  -21.5625   -3.4541   25.7745 F   0  0  0  0  0  0
  -29.8633  -14.0012   20.3284 N   0  0  0  0  0  0
  -26.2792  -12.9512   20.3200 N   0  0  0  0  0  0
  -25.9322  -11.6619   20.5710 N   0  0  0  0  0  0
  -22.0427  -12.8149   22.0466 N   0  0  0  0  0  0
  -25.3995  -15.1978   20.4205 N   0  0  0  0  0  0
  -31.6379  -15.3138   20.1466 O   0  0  0  0  0  0
  -21.6645   -6.8877   21.4245 O   0  0  0  0  0  0
  -22.3427  -14.5480   20.6757 O   0  0  0  0  0  0
  -24.6706  -31.8205   23.1672 C   0  0  0  0  0  0
  -25.9365  -32.4574   23.8138 C   0  0  1  0  0  0
  -27.2247  -26.8879   20.1651 C   0  0  0  0  0  0
  -25.6016  -33.8387   24.2060 N   0  0  0  0  0  0
  -23.4870  -30.4343   21.5172 C   0  0  2  0  0  0
  -24.9390  -28.8161   20.1126 C   0  0  0  0  0  0
  -22.7691  -29.4449   22.4743 C   0  0  0  0  0  0
  -18.0326  -28.1460   22.8459 C   0  0  0  0  0  0
  -24.1489  -36.7174   23.2644 C   0  0  0  0  0  0
  -26.0602  -30.6148   21.4017 C   0  0  0  0  0  0
  -26.1302  -29.2014   20.7408 C   0  0  0  0  0  0
  -27.2651  -28.2606   20.7444 C   0  0  0  0  0  0
  -25.9840  -26.6602   19.5223 C   0  0  0  0  0  0
  -24.8915  -27.5638   19.4864 C   0  0  0  0  0  0
  -23.7302  -29.7520   20.1445 C   0  0  0  0  0  0
  -25.4143  -36.2954   24.0291 C   0  0  1  0  0  0
  -20.5957  -28.3804   23.1170 C   0  0  2  0  0  0
  -20.6803  -26.9478   22.5410 C   0  0  0  0  0  0
  -19.5778  -26.6416   21.5220 C   0  0  0  0  0  0
  -18.1958  -26.7992   22.1624 C   0  0  0  0  0  0
  -19.1590  -28.8956   23.2804 C   0  0  0  0  0  0
  -18.9504  -30.1538   23.8851 C   0  0  0  0  0  0
  -17.6498  -30.6639   24.0584 C   0  0  0  0  0  0
  -25.9116  -34.9340   23.4997 C   0  0  0  0  0  0
  -16.5389  -29.9126   23.6365 C   0  0  0  0  0  0
  -16.7304  -28.6558   23.0360 C   0  0  0  0  0  0
  -26.4587  -31.6523   25.0677 C   0  0  0  0  0  0
  -25.3695  -31.3813   26.1322 C   0  0  0  0  0  0
  -27.0486  -30.2881   24.6448 C   0  0  0  0  0  0
  -27.6084  -32.4311   25.7497 C   0  0  0  0  0  0
  -27.5573  -37.1754   24.8467 C   0  0  0  0  0  0
  -21.4349  -29.3083   22.3498 N   0  0  0  0  0  0
  -26.4274  -37.3707   23.9407 N   0  0  0  0  0  0
  -24.7616  -30.9831   22.0827 N   0  0  0  0  0  0
  -23.4206  -28.8029   23.3003 O   0  0  0  0  0  0
  -28.1733  -25.7144   20.2744 O   0  0  0  0  0  0
  -26.5709  -34.8894   22.4585 O   0  0  0  0  0  0
  -23.5760  -32.1167   23.6766 O   0  0  0  0  0  0
  -28.1461  -24.7066   18.0642 C   0  0  0  0  0  0
  -28.2543  -24.4772   19.4200 C   0  0  0  0  0  0
  -28.5640  -22.5591   18.1449 C   0  0  0  0  0  0
  -28.0324  -25.9818   17.2739 C   0  0  0  0  0  0
  -26.4422  -20.5149   18.0982 C   0  0  0  0  0  0
  -30.3468  -20.7566   17.7060 C   0  0  0  0  0  0
  -28.9293  -21.4420   15.8744 C   0  0  0  0  0  0
  -27.8320  -20.0930   17.5876 C   0  0  0  0  0  0
  -28.9069  -19.7751   20.5373 C   0  0  0  0  0  0
  -29.0717  -21.6214   20.5049 C   0  0  0  0  0  0
  -29.9127  -18.2675   20.2539 C   0  0  0  0  0  0
  -28.8973  -21.2254   17.4228 C   0  0  0  0  0  0
  -28.2398  -23.5595   17.3464 N   0  0  0  0  0  0
  -28.5962  -22.8882   19.4925 N   0  0  0  0  0  0
  -29.6550  -16.6060   20.4605 N   0  0  0  0  0  0
  -31.4505  -13.0547   19.2006 H   0  0  0  0  0  0
  -30.5106  -11.9504   20.1522 H   0  0  0  0  0  0
  -29.9287  -11.7530   17.7076 H   0  0  0  0  0  0
  -29.5501  -13.4577   17.6432 H   0  0  0  0  0  0
  -28.0664  -11.2738   19.1218 H   0  0  0  0  0  0
  -27.4199  -12.3020   17.8684 H   0  0  0  0  0  0
  -27.5125  -14.2317   19.3027 H   0  0  0  0  0  0
  -28.8180  -12.5518   21.5018 H   0  0  0  0  0  0
  -28.2628  -14.2032   21.6788 H   0  0  0  0  0  0
  -25.2772   -9.5682   22.4753 H   0  0  0  0  0  0
  -24.0021   -7.4623   22.7465 H   0  0  0  0  0  0
  -21.0853   -8.8754   19.8937 H   0  0  0  0  0  0
  -22.3705  -10.9659   19.6152 H   0  0  0  0  0  0
  -21.2004   -7.6146   23.9719 H   0  0  0  0  0  0
  -21.1481   -6.0524   25.9081 H   0  0  0  0  0  0
  -22.0598   -2.7610   23.2854 H   0  0  0  0  0  0
  -22.4088  -11.9821   22.4830 H   0  0  0  0  0  0
  -21.1031  -13.1132   22.2682 H   0  0  0  0  0  0
  -24.6217  -15.8405   20.5216 H   0  0  0  0  0  0
  -26.2344  -15.6417   20.0628 H   0  0  0  0  0  0
  -26.7437  -32.5110   23.0853 H   0  0  0  0  0  0
  -25.0128  -33.9427   25.0190 H   0  0  0  0  0  0
  -22.8035  -31.2695   21.3467 H   0  0  0  0  0  0
  -23.3770  -35.9484   23.3283 H   0  0  0  0  0  0
  -24.3565  -36.8834   22.2064 H   0  0  0  0  0  0
  -23.7219  -37.6351   23.6702 H   0  0  0  0  0  0
  -26.2456  -31.3569   20.6238 H   0  0  0  0  0  0
  -26.9182  -30.6721   22.0595 H   0  0  0  0  0  0
  -28.1642  -28.5533   21.2693 H   0  0  0  0  0  0
  -25.8133  -25.6906   19.0789 H   0  0  0  0  0  0
  -23.9776  -27.2480   19.0026 H   0  0  0  0  0  0
  -23.8990  -30.5223   19.3905 H   0  0  0  0  0  0
  -22.8352  -29.2176   19.8204 H   0  0  0  0  0  0
  -25.1346  -36.1735   25.0776 H   0  0  0  0  0  0
  -21.0061  -28.3438   24.1289 H   0  0  0  0  0  0
  -20.5706  -26.2416   23.3658 H   0  0  0  0  0  0
  -21.6661  -26.7466   22.1218 H   0  0  0  0  0  0
  -19.6931  -25.6313   21.1289 H   0  0  0  0  0  0
  -19.6732  -27.3191   20.6725 H   0  0  0  0  0  0
  -17.4232  -26.6730   21.4027 H   0  0  0  0  0  0
  -18.0359  -26.0162   22.9049 H   0  0  0  0  0  0
  -19.7979  -30.7372   24.2193 H   0  0  0  0  0  0
  -17.5056  -31.6312   24.5205 H   0  0  0  0  0  0
  -15.5396  -30.3029   23.7737 H   0  0  0  0  0  0
  -15.8692  -28.0892   22.7087 H   0  0  0  0  0  0
  -24.5915  -30.7105   25.7644 H   0  0  0  0  0  0
  -24.8843  -32.3031   26.4544 H   0  0  0  0  0  0
  -25.7920  -30.9130   27.0218 H   0  0  0  0  0  0
  -26.3176  -29.6559   24.1395 H   0  0  0  0  0  0
  -27.3928  -29.7252   25.5133 H   0  0  0  0  0  0
  -27.9147  -30.4037   23.9930 H   0  0  0  0  0  0
  -27.2675  -33.3667   26.1940 H   0  0  0  0  0  0
  -28.4000  -32.6763   25.0402 H   0  0  0  0  0  0
  -28.0624  -31.8492   26.5532 H   0  0  0  0  0  0
  -28.2581  -38.0058   24.7540 H   0  0  0  0  0  0
  -28.1074  -36.2595   24.6270 H   0  0  0  0  0  0
  -27.2286  -37.1388   25.8865 H   0  0  0  0  0  0
  -20.9604  -29.8722   21.6592 H   0  0  0  0  0  0
  -26.0110  -38.2750   24.1441 H   0  0  0  0  0  0
  -28.4742  -26.8308   17.7959 H   0  0  0  0  0  0
  -26.9970  -26.2228   17.0354 H   0  0  0  0  0  0
  -28.5574  -25.9037   16.3210 H   0  0  0  0  0  0
  -25.7730  -19.6549   18.1360 H   0  0  0  0  0  0
  -25.9922  -21.2527   17.4343 H   0  0  0  0  0  0
  -26.4776  -20.9476   19.0981 H   0  0  0  0  0  0
  -31.0717  -21.4888   17.3471 H   0  0  0  0  0  0
  -30.5625  -19.8159   17.1973 H   0  0  0  0  0  0
  -30.5779  -20.6064   18.7531 H   0  0  0  0  0  0
  -29.6417  -22.2128   15.5785 H   0  0  0  0  0  0
  -27.9516  -21.7364   15.4878 H   0  0  0  0  0  0
  -29.2179  -20.5374   15.3368 H   0  0  0  0  0  0
  -27.6723  -19.5728   16.6418 H   0  0  0  0  0  0
  -28.2252  -19.2818   18.1866 H   0  0  0  0  0  0
  -27.8959  -19.5457   20.2183 H   0  0  0  0  0  0
  -28.7727  -19.6558   21.6124 H   0  0  0  0  0  0
  -30.1225  -21.8203   20.7115 H   0  0  0  0  0  0
  -28.5913  -21.9059   21.4419 H   0  0  0  0  0  0
  -30.8546  -18.4491   20.7713 H   0  0  0  0  0  0
  -30.1885  -18.3170   19.2017 H   0  0  0  0  0  0
  -28.6784  -16.4080   20.6269 H   0  0  0  0  0  0
  1 25  1  0  0  0
  1 30  2  0  0  0
  1 85  1  0  0  0
  2  3  1  0  0  0
  2 25  1  0  0  0
  2 86  1  0  0  0
  2 87  1  0  0  0
  3  4  1  0  0  0
  3 88  1  0  0  0
  3 89  1  0  0  0
  4  5  1  0  0  0
  4 90  1  0  0  0
  4 91  1  0  0  0
  5  6  1  0  0  0
  5 26  1  0  0  0
  5 92  1  0  0  0
  6 25  1  0  0  0
  6 93  1  0  0  0
  6 94  1  0  0  0
  7  8  2  0  0  0
  7 26  1  0  0  0
  7 29  1  0  0  0
  8  9  1  0  0  0
  8 22  1  0  0  0
  9 10  1  0  0  0
  9 27  2  0  0  0
 10 11  2  0  0  0
 10 15  1  0  0  0
 11 12  1  0  0  0
 11 95  1  0  0  0
 12 13  2  0  0  0
 12 96  1  0  0  0
 13 14  1  0  0  0
 13 31  1  0  0  0
 14 15  2  0  0  0
 14 97  1  0  0  0
 15 98  1  0  0  0
 16 17  2  0  0  0
 16 21  1  0  0  0
 16 31  1  0  0  0
 17 18  1  0  0  0
 17 99  1  0  0  0
 18 19  2  0  0  0
 18100  1  0  0  0
 19 20  1  0  0  0
 19 24  1  0  0  0
 20 21  2  0  0  0
 20101  1  0  0  0
 21 23  1  0  0  0
 22 28  1  0  0  0
 22 32  2  0  0  0
 26 27  1  0  0  0
 28102  1  0  0  0
 28103  1  0  0  0
 29104  1  0  0  0
 29105  1  0  0  0
 33 34  1  0  0  0
 33 66  1  0  0  0
 33 70  2  0  0  0
 34 36  1  0  0  0
 34 59  1  0  0  0
 34106  1  0  0  0
 35 44  2  0  0  0
 35 45  1  0  0  0
 35 68  1  0  0  0
 36 56  1  0  0  0
 36107  1  0  0  0
 37 39  1  0  0  0
 37 47  1  0  0  0
 37 66  1  0  0  0
 37108  1  0  0  0
 38 43  2  0  0  0
 38 46  1  0  0  0
 38 47  1  0  0  0
 39 64  1  0  0  0
 39 67  2  0  0  0
 40 52  1  0  0  0
 40 53  2  0  0  0
 40 58  1  0  0  0
 41109  1  0  0  0
 41110  1  0  0  0
 41111  1  0  0  0
 41 48  1  0  0  0
 42 43  1  0  0  0
 42 66  1  0  0  0
 42112  1  0  0  0
 42113  1  0  0  0
 43 44  1  0  0  0
 44114  1  0  0  0
 45 46  2  0  0  0
 45115  1  0  0  0
 46116  1  0  0  0
 47117  1  0  0  0
 47118  1  0  0  0
 48 56  1  0  0  0
 48 65  1  0  0  0
 48119  1  0  0  0
 49 50  1  0  0  0
 49 53  1  0  0  0
 49 64  1  0  0  0
 49120  1  0  0  0
 50 51  1  0  0  0
 50121  1  0  0  0
 50122  1  0  0  0
 51 52  1  0  0  0
 51123  1  0  0  0
 51124  1  0  0  0
 52125  1  0  0  0
 52126  1  0  0  0
 53 54  1  0  0  0
 54 55  2  0  0  0
 54127  1  0  0  0
 55 57  1  0  0  0
 55128  1  0  0  0
 56 69  2  0  0  0
 57 58  2  0  0  0
 57129  1  0  0  0
 58130  1  0  0  0
 59 60  1  0  0  0
 59 61  1  0  0  0
 59 62  1  0  0  0
 60131  1  0  0  0
 60132  1  0  0  0
 60133  1  0  0  0
 61134  1  0  0  0
 61135  1  0  0  0
 61136  1  0  0  0
 62137  1  0  0  0
 62138  1  0  0  0
 62139  1  0  0  0
 63 65  1  0  0  0
 63140  1  0  0  0
 63141  1  0  0  0
 63142  1  0  0  0
 64143  1  0  0  0
 65144  1  0  0  0
 68 72  1  0  0  0
 71 72  2  0  0  0
 71 74  1  0  0  0
 71 83  1  0  0  0
 72 84  1  0  0  0
 73 82  1  0  0  0
 73 83  2  0  0  0
 73 84  1  0  0  0
 74145  1  0  0  0
 74146  1  0  0  0
 74147  1  0  0  0
 75 78  1  0  0  0
 75148  1  0  0  0
 75149  1  0  0  0
 75150  1  0  0  0
 76151  1  0  0  0
 76152  1  0  0  0
 76153  1  0  0  0
 76 82  1  0  0  0
 77 82  1  0  0  0
 77154  1  0  0  0
 77155  1  0  0  0
 77156  1  0  0  0
 78 82  1  0  0  0
 78157  1  0  0  0
 78158  1  0  0  0
 79 80  1  0  0  0
 79 81  1  0  0  0
 79159  1  0  0  0
 79160  1  0  0  0
 80 84  1  0  0  0
 80161  1  0  0  0
 80162  1  0  0  0
 81 85  1  0  0  0
 81163  1  0  0  0
 81164  1  0  0  0
 85165  1  0  0  0
M  ISO  4   1 100  68 101  72 101  85 100
M  END
> <chiral flag>
0

> <version>
0

> <s_m_source_file>
/data/baiqing/PycharmProjects/Reinvent-master-3.2/result/LINK_invent/BTK/process_docking_weight1_custom_sum_contain_oxygen_bond_distance_aromatic_linkinvent_7_9_3/rearranged_h_0014.sdf

> <i_m_source_file_index>
67

> <r_mmod_Potential_Energy-OPLS-2005>
1683.39050292969

> <r_mmod_Stretch_Energy-OPLS-2005>
751.393676757812

> <r_mmod_Bend_Energy-OPLS-2005>
603.204345703125

> <r_mmod_Torsional_Energy-OPLS-2005>
248.628143310547

> <r_mmod_Improper_Torsional_Energy-OPLS-2005>
6.27965450286865

> <r_mmod_Van_der_Waal_Energy-OPLS-2005>
142.275726318359

> <r_mmod_Electrostatic_Energy-OPLS-2005>
-385.825286865234

> <r_mmod_Solvation_Energy-OPLS-2005>
-212.239227294922

> <b_mmod_Minimization_Converged-OPLS-2005>
0

> <r_mmod_RMS_Derivative-OPLS-2005>
2.30913090705872

$$$$
67
                    3D
 Structure written by MMmdl.
151159  0  0  1  0            999 V2000
  -30.5979  -14.7500   20.4634 C   0  0  0  0  0  0
  -30.4350  -12.4615   19.4645 C   0  0  0  0  0  0
  -29.5074  -12.5033   18.2299 C   0  0  0  0  0  0
  -28.0355  -12.3224   18.6497 C   0  0  0  0  0  0
  -27.6397  -13.2276   19.8463 C   0  0  2  0  0  0
  -28.6852  -13.1611   20.9798 C   0  0  0  0  0  0
  -25.2507  -13.8183   20.5683 C   0  0  0  0  0  0
  -24.1802  -13.0436   20.9217 C   0  0  0  0  0  0
  -24.6386  -11.6912   20.8752 C   0  0  0  0  0  0
  -23.9064  -10.4290   21.0408 C   0  0  0  0  0  0
  -24.3617   -9.4205   21.9184 C   0  0  0  0  0  0
  -23.6295   -8.2237   22.0754 C   0  0  0  0  0  0
  -22.4276   -8.0274   21.3545 C   0  0  0  0  0  0
  -21.9909   -9.0248   20.4648 C   0  0  0  0  0  0
  -22.7238  -10.2128   20.3057 C   0  0  0  0  0  0
  -21.6851   -6.0732   22.5283 C   0  0  0  0  0  0
  -21.4012   -6.5639   23.8214 C   0  0  0  0  0  0
  -21.3659   -5.6792   24.9177 C   0  0  0  0  0  0
  -21.6042   -4.3054   24.7229 C   0  0  0  0  0  0
  -21.8819   -3.8144   23.4352 C   0  0  0  0  0  0
  -21.9195   -4.6960   22.3408 C   0  0  0  0  0  0
  -22.7829  -13.5220   21.1882 C   0  0  0  0  0  0
  -22.1663   -4.2144   21.0987 F   0  0  0  0  0  0
  -21.5627   -3.4539   25.7743 F   0  0  0  0  0  0
  -29.9821  -13.5208   20.3938 N   0  0  0  0  0  0
  -26.2924  -12.9381   20.3257 N   0  0  0  0  0  0
  -25.9310  -11.6530   20.5748 N   0  0  0  0  0  0
  -22.0480  -12.8199   22.0433 N   0  0  0  0  0  0
  -25.4198  -15.1907   20.4078 N   0  0  0  0  0  0
  -31.7918  -14.8560   20.1694 O   0  0  0  0  0  0
  -21.6643   -6.8870   21.4244 O   0  0  0  0  0  0
  -22.3510  -14.5525   20.6732 O   0  0  0  0  0  0
  -24.6307  -31.8546   23.1963 C   0  0  0  0  0  0
  -25.9135  -32.4751   23.8311 C   0  0  1  0  0  0
  -27.2210  -27.2639   20.1409 C   0  0  0  0  0  0
  -25.5940  -33.8554   24.2245 N   0  0  0  0  0  0
  -23.4278  -30.4746   21.5397 C   0  0  2  0  0  0
  -24.8759  -28.9149   20.1150 C   0  0  0  0  0  0
  -22.7496  -29.4599   22.4915 C   0  0  0  0  0  0
  -18.0291  -28.1393   22.8494 C   0  0  0  0  0  0
  -24.1490  -36.7271   23.2637 C   0  0  0  0  0  0
  -25.9721  -30.7698   21.3735 C   0  0  0  0  0  0
  -26.0467  -29.3899   20.7200 C   0  0  0  0  0  0
  -27.2263  -28.5786   20.7161 C   0  0  0  0  0  0
  -26.0286  -26.8457   19.5172 C   0  0  0  0  0  0
  -24.8708  -27.6506   19.5016 C   0  0  0  0  0  0
  -23.6465  -29.8028   20.1577 C   0  0  0  0  0  0
  -25.4117  -36.3069   24.0326 C   0  0  1  0  0  0
  -20.5893  -28.3702   23.1275 C   0  0  2  0  0  0
  -20.6781  -26.9420   22.5414 C   0  0  0  0  0  0
  -19.5758  -26.6391   21.5218 C   0  0  0  0  0  0
  -18.1936  -26.7940   22.1626 C   0  0  0  0  0  0
  -19.1545  -28.8868   23.2877 C   0  0  0  0  0  0
  -18.9465  -30.1468   23.8892 C   0  0  0  0  0  0
  -17.6467  -30.6595   24.0565 C   0  0  0  0  0  0
  -25.9058  -34.9439   23.5089 C   0  0  0  0  0  0
  -16.5355  -29.9093   23.6337 C   0  0  0  0  0  0
  -16.7278  -28.6510   23.0361 C   0  0  0  0  0  0
  -26.4505  -31.6577   25.0699 C   0  0  0  0  0  0
  -25.3732  -31.3743   26.1426 C   0  0  0  0  0  0
  -27.0338  -30.2991   24.6181 C   0  0  0  0  0  0
  -27.6061  -32.4316   25.7470 C   0  0  0  0  0  0
  -27.5580  -37.1785   24.8462 C   0  0  0  0  0  0
  -21.4204  -29.3043   22.3657 N   0  0  0  0  0  0
  -26.4287  -37.3772   23.9419 N   0  0  0  0  0  0
  -24.6958  -31.0513   22.0928 N   0  0  0  0  0  0
  -23.4196  -28.8149   23.3026 O   0  0  0  0  0  0
  -28.3202  -26.3808   20.1350 O   0  0  0  0  0  0
  -26.5623  -34.8920   22.4652 O   0  0  0  0  0  0
  -23.5458  -32.1361   23.7266 O   0  0  0  0  0  0
  -28.1043  -20.7593   18.8233 C   0  0  0  0  0  0
  -29.4181  -18.5804   20.1868 C   0  0  0  0  0  0
  -28.7968  -21.0822   20.0127 C   0  0  0  0  0  0
  -28.0586  -19.4410   18.3257 C   0  0  0  0  0  0
  -28.7013  -18.3730   18.9878 C   0  0  0  0  0  0
  -29.4468  -19.9592   20.6837 C   0  0  0  0  0  0
  -28.4744  -23.7031   19.9214 C   0  0  0  0  0  0
  -30.2032  -17.3478   20.8480 C   0  0  0  0  0  0
  -28.1746  -25.0277   20.7782 C   0  0  0  0  0  0
  -28.7554  -22.4816   20.5356 N   0  0  0  0  0  0
  -29.8105  -15.8723   20.6809 N   0  0  0  0  0  0
  -28.4557  -23.8060   18.6918 O   0  0  0  0  0  0
  -27.3792  -19.1956   17.1799 F   0  0  0  0  0  0
  -28.6326  -17.1351   18.4407 F   0  0  0  0  0  0
  -30.3053  -20.2969   22.1459 Cl  0  0  0  0  0  0
  -31.4732  -12.5985   19.1578 H   0  0  0  0  0  0
  -30.3921  -11.4854   19.9500 H   0  0  0  0  0  0
  -29.7910  -11.7267   17.5183 H   0  0  0  0  0  0
  -29.6259  -13.4549   17.7094 H   0  0  0  0  0  0
  -27.9007  -11.2753   18.9225 H   0  0  0  0  0  0
  -27.3730  -12.5020   17.8020 H   0  0  0  0  0  0
  -27.6336  -14.2474   19.4611 H   0  0  0  0  0  0
  -28.7259  -12.1617   21.4152 H   0  0  0  0  0  0
  -28.4194  -13.8378   21.7933 H   0  0  0  0  0  0
  -25.2760   -9.5684   22.4762 H   0  0  0  0  0  0
  -24.0011   -7.4624   22.7465 H   0  0  0  0  0  0
  -21.0844   -8.8760   19.8951 H   0  0  0  0  0  0
  -22.3692  -10.9663   19.6169 H   0  0  0  0  0  0
  -21.2000   -7.6145   23.9715 H   0  0  0  0  0  0
  -21.1479   -6.0524   25.9080 H   0  0  0  0  0  0
  -22.0596   -2.7607   23.2857 H   0  0  0  0  0  0
  -22.4112  -11.9860   22.4806 H   0  0  0  0  0  0
  -21.1099  -13.1211   22.2654 H   0  0  0  0  0  0
  -24.6447  -15.8379   20.5036 H   0  0  0  0  0  0
  -26.2532  -15.6259   20.0353 H   0  0  0  0  0  0
  -26.7199  -32.5414   23.1051 H   0  0  0  0  0  0
  -25.0121  -33.9690   25.0416 H   0  0  0  0  0  0
  -22.7247  -31.2967   21.3907 H   0  0  0  0  0  0
  -23.3754  -35.9600   23.3306 H   0  0  0  0  0  0
  -24.3580  -36.8878   22.2048 H   0  0  0  0  0  0
  -23.7237  -37.6473   23.6651 H   0  0  0  0  0  0
  -26.1085  -31.5296   20.6026 H   0  0  0  0  0  0
  -26.8496  -30.8214   22.0064 H   0  0  0  0  0  0
  -28.1275  -28.9412   21.1903 H   0  0  0  0  0  0
  -25.9892  -25.8727   19.0470 H   0  0  0  0  0  0
  -23.9746  -27.2804   19.0236 H   0  0  0  0  0  0
  -23.7716  -30.5763   19.3989 H   0  0  0  0  0  0
  -22.7652  -29.2349   19.8536 H   0  0  0  0  0  0
  -25.1298  -36.1907   25.0816 H   0  0  0  0  0  0
  -20.9986  -28.3280   24.1395 H   0  0  0  0  0  0
  -20.5693  -26.2308   23.3616 H   0  0  0  0  0  0
  -21.6647  -26.7455   22.1197 H   0  0  0  0  0  0
  -19.6917  -25.6301   21.1250 H   0  0  0  0  0  0
  -19.6698  -27.3201   20.6747 H   0  0  0  0  0  0
  -17.4208  -26.6697   21.4023 H   0  0  0  0  0  0
  -18.0322  -26.0080   22.9020 H   0  0  0  0  0  0
  -19.7940  -30.7291   24.2251 H   0  0  0  0  0  0
  -17.5020  -31.6271   24.5169 H   0  0  0  0  0  0
  -15.5354  -30.2996   23.7668 H   0  0  0  0  0  0
  -15.8675  -28.0827   22.7079 H   0  0  0  0  0  0
  -24.5920  -30.7068   25.7775 H   0  0  0  0  0  0
  -24.8904  -32.2914   26.4809 H   0  0  0  0  0  0
  -25.8055  -30.8967   27.0227 H   0  0  0  0  0  0
  -26.2904  -29.6751   24.1207 H   0  0  0  0  0  0
  -27.4012  -29.7252   25.4698 H   0  0  0  0  0  0
  -27.8794  -30.4256   23.9418 H   0  0  0  0  0  0
  -27.2662  -33.3620   26.2033 H   0  0  0  0  0  0
  -28.3875  -32.6867   25.0299 H   0  0  0  0  0  0
  -28.0726  -31.8451   26.5396 H   0  0  0  0  0  0
  -28.2587  -38.0093   24.7530 H   0  0  0  0  0  0
  -28.1082  -36.2626   24.6253 H   0  0  0  0  0  0
  -27.2303  -37.1386   25.8864 H   0  0  0  0  0  0
  -20.9388  -29.8751   21.6850 H   0  0  0  0  0  0
  -26.0161  -38.2836   24.1446 H   0  0  0  0  0  0
  -27.5690  -21.5184   18.2739 H   0  0  0  0  0  0
  -30.2229  -17.5215   21.9236 H   0  0  0  0  0  0
  -31.2407  -17.4515   20.5285 H   0  0  0  0  0  0
  -28.8497  -25.0151   21.6338 H   0  0  0  0  0  0
  -27.1733  -24.9233   21.1978 H   0  0  0  0  0  0
  -28.9210  -22.5514   21.5308 H   0  0  0  0  0  0
  -28.8347  -15.6728   20.8365 H   0  0  0  0  0  0
  1 25  1  0  0  0
  1 30  2  0  0  0
  1 81  1  0  0  0
  2  3  1  0  0  0
  2 25  1  0  0  0
  2 86  1  0  0  0
  2 87  1  0  0  0
  3  4  1  0  0  0
  3 88  1  0  0  0
  3 89  1  0  0  0
  4  5  1  0  0  0
  4 90  1  0  0  0
  4 91  1  0  0  0
  5  6  1  0  0  0
  5 26  1  0  0  0
  5 92  1  0  0  0
  6 25  1  0  0  0
  6 93  1  0  0  0
  6 94  1  0  0  0
  7  8  2  0  0  0
  7 26  1  0  0  0
  7 29  1  0  0  0
  8  9  1  0  0  0
  8 22  1  0  0  0
  9 10  1  0  0  0
  9 27  2  0  0  0
 10 11  2  0  0  0
 10 15  1  0  0  0
 11 12  1  0  0  0
 11 95  1  0  0  0
 12 13  2  0  0  0
 12 96  1  0  0  0
 13 14  1  0  0  0
 13 31  1  0  0  0
 14 15  2  0  0  0
 14 97  1  0  0  0
 15 98  1  0  0  0
 16 17  2  0  0  0
 16 21  1  0  0  0
 16 31  1  0  0  0
 17 18  1  0  0  0
 17 99  1  0  0  0
 18 19  2  0  0  0
 18100  1  0  0  0
 19 20  1  0  0  0
 19 24  1  0  0  0
 20 21  2  0  0  0
 20101  1  0  0  0
 21 23  1  0  0  0
 22 28  1  0  0  0
 22 32  2  0  0  0
 26 27  1  0  0  0
 28102  1  0  0  0
 28103  1  0  0  0
 29104  1  0  0  0
 29105  1  0  0  0
 33 34  1  0  0  0
 33 66  1  0  0  0
 33 70  2  0  0  0
 34 36  1  0  0  0
 34 59  1  0  0  0
 34106  1  0  0  0
 35 44  2  0  0  0
 35 45  1  0  0  0
 35 68  1  0  0  0
 36 56  1  0  0  0
 36107  1  0  0  0
 37 39  1  0  0  0
 37 47  1  0  0  0
 37 66  1  0  0  0
 37108  1  0  0  0
 38 43  2  0  0  0
 38 46  1  0  0  0
 38 47  1  0  0  0
 39 64  1  0  0  0
 39 67  2  0  0  0
 40 52  1  0  0  0
 40 53  2  0  0  0
 40 58  1  0  0  0
 41109  1  0  0  0
 41110  1  0  0  0
 41111  1  0  0  0
 41 48  1  0  0  0
 42 43  1  0  0  0
 42 66  1  0  0  0
 42112  1  0  0  0
 42113  1  0  0  0
 43 44  1  0  0  0
 44114  1  0  0  0
 45 46  2  0  0  0
 45115  1  0  0  0
 46116  1  0  0  0
 47117  1  0  0  0
 47118  1  0  0  0
 48 56  1  0  0  0
 48 65  1  0  0  0
 48119  1  0  0  0
 49 50  1  0  0  0
 49 53  1  0  0  0
 49 64  1  0  0  0
 49120  1  0  0  0
 50 51  1  0  0  0
 50121  1  0  0  0
 50122  1  0  0  0
 51 52  1  0  0  0
 51123  1  0  0  0
 51124  1  0  0  0
 52125  1  0  0  0
 52126  1  0  0  0
 53 54  1  0  0  0
 54 55  2  0  0  0
 54127  1  0  0  0
 55 57  1  0  0  0
 55128  1  0  0  0
 56 69  2  0  0  0
 57 58  2  0  0  0
 57129  1  0  0  0
 58130  1  0  0  0
 59 60  1  0  0  0
 59 61  1  0  0  0
 59 62  1  0  0  0
 60131  1  0  0  0
 60132  1  0  0  0
 60133  1  0  0  0
 61134  1  0  0  0
 61135  1  0  0  0
 61136  1  0  0  0
 62137  1  0  0  0
 62138  1  0  0  0
 62139  1  0  0  0
 63 65  1  0  0  0
 63140  1  0  0  0
 63141  1  0  0  0
 63142  1  0  0  0
 64143  1  0  0  0
 65144  1  0  0  0
 68 79  1  0  0  0
 71 73  2  0  0  0
 71 74  1  0  0  0
 71145  1  0  0  0
 72 75  1  0  0  0
 72 76  2  0  0  0
 72 78  1  0  0  0
 73 76  1  0  0  0
 73 80  1  0  0  0
 74 75  2  0  0  0
 74 83  1  0  0  0
 75 84  1  0  0  0
 76 85  1  0  0  0
 77 79  1  0  0  0
 77 80  1  0  0  0
 77 82  2  0  0  0
 78 81  1  0  0  0
 78146  1  0  0  0
 78147  1  0  0  0
 79148  1  0  0  0
 79149  1  0  0  0
 80150  1  0  0  0
 81151  1  0  0  0
M  ISO  4   1 100  68 101  79 101  81 100
M  END
> <chiral flag>
0

> <version>
0

> <s_m_source_file>
/data/baiqing/PycharmProjects/Reinvent-master-3.2/result/LINK_invent/BTK/process_docking_weight1_custom_sum_contain_oxygen_bond_distance_aromatic_linkinvent_7_9_3/rearranged_h_0014.sdf

> <i_m_source_file_index>
68

> <r_mmod_Potential_Energy-OPLS-2005>
95.4708404541016

> <r_mmod_Stretch_Energy-OPLS-2005>
127.732406616211

> <r_mmod_Bend_Energy-OPLS-2005>
158.020034790039

> <r_mmod_Torsional_Energy-OPLS-2005>
233.256805419922

> <r_mmod_Improper_Torsional_Energy-OPLS-2005>
4.54266595840454

> <r_mmod_Van_der_Waal_Energy-OPLS-2005>
132.780166625977

> <r_mmod_Electrostatic_Energy-OPLS-2005>
-412.036041259766

> <r_mmod_Solvation_Energy-OPLS-2005>
-233.88264465332

> <b_mmod_Minimization_Converged-OPLS-2005>
0

> <r_mmod_RMS_Derivative-OPLS-2005>
0.931715726852417

$$$$
68
                    3D
 Structure written by MMmdl.
151159  0  0  1  0            999 V2000
  -30.6061  -14.7664   20.4613 C   0  0  0  0  0  0
  -30.4292  -12.4699   19.4786 C   0  0  0  0  0  0
  -29.5089  -12.5144   18.2394 C   0  0  0  0  0  0
  -28.0366  -12.3315   18.6523 C   0  0  0  0  0  0
  -27.6390  -13.2333   19.8514 C   0  0  2  0  0  0
  -28.6822  -13.1792   20.9893 C   0  0  0  0  0  0
  -25.2485  -13.8207   20.5715 C   0  0  0  0  0  0
  -24.1779  -13.0445   20.9210 C   0  0  0  0  0  0
  -24.6371  -11.6920   20.8740 C   0  0  0  0  0  0
  -23.9055  -10.4292   21.0400 C   0  0  0  0  0  0
  -24.3606   -9.4211   21.9176 C   0  0  0  0  0  0
  -23.6282   -8.2249   22.0752 C   0  0  0  0  0  0
  -22.4267   -8.0274   21.3544 C   0  0  0  0  0  0
  -21.9898   -9.0250   20.4650 C   0  0  0  0  0  0
  -22.7227  -10.2132   20.3052 C   0  0  0  0  0  0
  -21.6855   -6.0727   22.5278 C   0  0  0  0  0  0
  -21.4018   -6.5632   23.8210 C   0  0  0  0  0  0
  -21.3664   -5.6784   24.9171 C   0  0  0  0  0  0
  -21.6043   -4.3045   24.7222 C   0  0  0  0  0  0
  -21.8820   -3.8141   23.4343 C   0  0  0  0  0  0
  -21.9196   -4.6957   22.3401 C   0  0  0  0  0  0
  -22.7802  -13.5237   21.1853 C   0  0  0  0  0  0
  -22.1666   -4.2145   21.0975 F   0  0  0  0  0  0
  -21.5627   -3.4527   25.7736 F   0  0  0  0  0  0
  -29.9802  -13.5373   20.4051 N   0  0  0  0  0  0
  -26.2911  -12.9417   20.3284 N   0  0  0  0  0  0
  -25.9301  -11.6559   20.5743 N   0  0  0  0  0  0
  -22.0445  -12.8236   22.0415 N   0  0  0  0  0  0
  -25.4135  -15.1942   20.4180 N   0  0  0  0  0  0
  -31.7855  -14.8369   20.1106 O   0  0  0  0  0  0
  -21.6636   -6.8869   21.4241 O   0  0  0  0  0  0
  -22.3502  -14.5556   20.6712 O   0  0  0  0  0  0
  -24.6313  -31.8533   23.1959 C   0  0  0  0  0  0
  -25.9142  -32.4740   23.8298 C   0  0  1  0  0  0
  -27.2201  -27.2528   20.1219 C   0  0  0  0  0  0
  -25.5939  -33.8541   24.2235 N   0  0  0  0  0  0
  -23.4273  -30.4752   21.5393 C   0  0  2  0  0  0
  -24.8737  -28.9169   20.1070 C   0  0  0  0  0  0
  -22.7495  -29.4586   22.4897 C   0  0  0  0  0  0
  -18.0295  -28.1390   22.8486 C   0  0  0  0  0  0
  -24.1492  -36.7278   23.2637 C   0  0  0  0  0  0
  -25.9718  -30.7638   21.3741 C   0  0  0  0  0  0
  -26.0430  -29.3844   20.7173 C   0  0  0  0  0  0
  -27.2147  -28.5619   20.7172 C   0  0  0  0  0  0
  -26.0239  -26.8475   19.4911 C   0  0  0  0  0  0
  -24.8693  -27.6574   19.4848 C   0  0  0  0  0  0
  -23.6454  -29.8065   20.1554 C   0  0  0  0  0  0
  -25.4121  -36.3059   24.0323 C   0  0  1  0  0  0
  -20.5896  -28.3698   23.1274 C   0  0  2  0  0  0
  -20.6780  -26.9411   22.5413 C   0  0  0  0  0  0
  -19.5757  -26.6382   21.5215 C   0  0  0  0  0  0
  -18.1938  -26.7931   22.1624 C   0  0  0  0  0  0
  -19.1548  -28.8860   23.2878 C   0  0  0  0  0  0
  -18.9465  -30.1461   23.8893 C   0  0  0  0  0  0
  -17.6464  -30.6588   24.0568 C   0  0  0  0  0  0
  -25.9055  -34.9430   23.5079 C   0  0  0  0  0  0
  -16.5357  -29.9085   23.6330 C   0  0  0  0  0  0
  -16.7281  -28.6506   23.0347 C   0  0  0  0  0  0
  -26.4518  -31.6567   25.0692 C   0  0  0  0  0  0
  -25.3744  -31.3713   26.1416 C   0  0  0  0  0  0
  -27.0358  -30.2985   24.6164 C   0  0  0  0  0  0
  -27.6067  -32.4304   25.7476 C   0  0  0  0  0  0
  -27.5576  -37.1799   24.8466 C   0  0  0  0  0  0
  -21.4200  -29.3045   22.3653 N   0  0  0  0  0  0
  -26.4289  -37.3765   23.9408 N   0  0  0  0  0  0
  -24.6960  -31.0493   22.0934 N   0  0  0  0  0  0
  -23.4205  -28.8132   23.2995 O   0  0  0  0  0  0
  -28.3341  -26.3854   20.2156 O   0  0  0  0  0  0
  -26.5624  -34.8914   22.4647 O   0  0  0  0  0  0
  -23.5464  -32.1351   23.7262 O   0  0  0  0  0  0
  -30.8044  -20.1999   20.7590 C   0  0  0  0  0  0
  -31.7696  -19.2076   21.0224 C   0  0  0  0  0  0
  -29.4657  -19.8527   20.5043 C   0  0  0  0  0  0
  -30.1543  -17.3670   20.6983 C   0  0  0  0  0  0
  -31.4584  -17.8310   21.0194 C   0  0  0  0  0  0
  -29.1641  -18.4192   20.4737 C   0  0  0  0  0  0
  -28.2438  -23.6879   20.3928 C   0  0  0  0  0  0
  -28.3985  -21.0337   20.3491 C   0  0  0  0  0  0
  -28.4460  -25.0401   19.5445 C   0  0  0  0  0  0
  -29.8285  -15.9040   20.6780 N   0  0  0  0  0  0
  -28.7793  -22.4742   19.9717 N   0  0  0  0  0  0
  -27.5477  -23.7329   21.4091 O   0  0  0  0  0  0
  -32.4390  -16.9756   21.3920 F   0  0  0  0  0  0
  -27.8860  -18.0353   20.2365 F   0  0  0  0  0  0
  -31.4699  -12.5922   19.1734 H   0  0  0  0  0  0
  -30.3761  -11.4968   19.9690 H   0  0  0  0  0  0
  -29.7974  -11.7421   17.5254 H   0  0  0  0  0  0
  -29.6314  -13.4698   17.7262 H   0  0  0  0  0  0
  -27.8967  -11.2823   18.9153 H   0  0  0  0  0  0
  -27.3796  -12.5191   17.8026 H   0  0  0  0  0  0
  -27.6302  -14.2528   19.4650 H   0  0  0  0  0  0
  -28.7199  -12.1856   21.4387 H   0  0  0  0  0  0
  -28.4095  -13.8668   21.7916 H   0  0  0  0  0  0
  -25.2748   -9.5702   22.4752 H   0  0  0  0  0  0
  -23.9988   -7.4653   22.7478 H   0  0  0  0  0  0
  -21.0825   -8.8774   19.8965 H   0  0  0  0  0  0
  -22.3673  -10.9667   19.6164 H   0  0  0  0  0  0
  -21.2010   -7.6139   23.9717 H   0  0  0  0  0  0
  -21.1487   -6.0505   25.9074 H   0  0  0  0  0  0
  -22.0594   -2.7604   23.2842 H   0  0  0  0  0  0
  -22.4061  -11.9905   22.4816 H   0  0  0  0  0  0
  -21.1077  -13.1282   22.2630 H   0  0  0  0  0  0
  -24.6367  -15.8341   20.5393 H   0  0  0  0  0  0
  -26.2528  -15.6553   20.0920 H   0  0  0  0  0  0
  -26.7203  -32.5401   23.1028 H   0  0  0  0  0  0
  -25.0096  -33.9669   25.0389 H   0  0  0  0  0  0
  -22.7237  -31.2983   21.3930 H   0  0  0  0  0  0
  -23.3746  -35.9616   23.3298 H   0  0  0  0  0  0
  -24.3568  -36.8899   22.2045 H   0  0  0  0  0  0
  -23.7257  -37.6484   23.6665 H   0  0  0  0  0  0
  -26.1074  -31.5219   20.6018 H   0  0  0  0  0  0
  -26.8501  -30.8161   22.0055 H   0  0  0  0  0  0
  -28.1091  -28.9120   21.2129 H   0  0  0  0  0  0
  -25.9386  -25.8763   19.0300 H   0  0  0  0  0  0
  -23.9701  -27.2904   19.0102 H   0  0  0  0  0  0
  -23.7738  -30.5825   19.3994 H   0  0  0  0  0  0
  -22.7625  -29.2424   19.8480 H   0  0  0  0  0  0
  -25.1309  -36.1892   25.0815 H   0  0  0  0  0  0
  -21.0001  -28.3278   24.1392 H   0  0  0  0  0  0
  -20.5678  -26.2300   23.3614 H   0  0  0  0  0  0
  -21.6648  -26.7432   22.1212 H   0  0  0  0  0  0
  -19.6915  -25.6292   21.1244 H   0  0  0  0  0  0
  -19.6701  -27.3190   20.6745 H   0  0  0  0  0  0
  -17.4208  -26.6682   21.4025 H   0  0  0  0  0  0
  -18.0338  -26.0074   22.9021 H   0  0  0  0  0  0
  -19.7940  -30.7286   24.2250 H   0  0  0  0  0  0
  -17.5017  -31.6268   24.5170 H   0  0  0  0  0  0
  -15.5354  -30.2990   23.7655 H   0  0  0  0  0  0
  -15.8681  -28.0833   22.7053 H   0  0  0  0  0  0
  -24.5942  -30.7039   25.7747 H   0  0  0  0  0  0
  -24.8917  -32.2873   26.4822 H   0  0  0  0  0  0
  -25.8071  -30.8913   27.0199 H   0  0  0  0  0  0
  -26.2928  -29.6729   24.1208 H   0  0  0  0  0  0
  -27.4059  -29.7262   25.4677 H   0  0  0  0  0  0
  -27.8800  -30.4253   23.9385 H   0  0  0  0  0  0
  -27.2675  -33.3610   26.2034 H   0  0  0  0  0  0
  -28.3894  -32.6839   25.0317 H   0  0  0  0  0  0
  -28.0713  -31.8435   26.5407 H   0  0  0  0  0  0
  -28.2602  -38.0090   24.7498 H   0  0  0  0  0  0
  -28.1065  -36.2614   24.6316 H   0  0  0  0  0  0
  -27.2284  -37.1475   25.8869 H   0  0  0  0  0  0
  -20.9375  -29.8766   21.6863 H   0  0  0  0  0  0
  -26.0159  -38.2838   24.1406 H   0  0  0  0  0  0
  -31.0950  -21.2406   20.7996 H   0  0  0  0  0  0
  -32.7773  -19.5122   21.2649 H   0  0  0  0  0  0
  -27.8295  -21.0643   21.2793 H   0  0  0  0  0  0
  -27.6821  -20.7018   19.5960 H   0  0  0  0  0  0
  -27.8277  -24.9888   18.6497 H   0  0  0  0  0  0
  -29.4657  -24.9964   19.1621 H   0  0  0  0  0  0
  -28.8465  -15.7084   20.7879 H   0  0  0  0  0  0
  -29.3703  -22.5450   19.1543 H   0  0  0  0  0  0
  1 25  1  0  0  0
  1 30  2  0  0  0
  1 80  1  0  0  0
  2  3  1  0  0  0
  2 25  1  0  0  0
  2 85  1  0  0  0
  2 86  1  0  0  0
  3  4  1  0  0  0
  3 87  1  0  0  0
  3 88  1  0  0  0
  4  5  1  0  0  0
  4 89  1  0  0  0
  4 90  1  0  0  0
  5  6  1  0  0  0
  5 26  1  0  0  0
  5 91  1  0  0  0
  6 25  1  0  0  0
  6 92  1  0  0  0
  6 93  1  0  0  0
  7  8  2  0  0  0
  7 26  1  0  0  0
  7 29  1  0  0  0
  8  9  1  0  0  0
  8 22  1  0  0  0
  9 10  1  0  0  0
  9 27  2  0  0  0
 10 11  2  0  0  0
 10 15  1  0  0  0
 11 12  1  0  0  0
 11 94  1  0  0  0
 12 13  2  0  0  0
 12 95  1  0  0  0
 13 14  1  0  0  0
 13 31  1  0  0  0
 14 15  2  0  0  0
 14 96  1  0  0  0
 15 97  1  0  0  0
 16 17  2  0  0  0
 16 21  1  0  0  0
 16 31  1  0  0  0
 17 18  1  0  0  0
 17 98  1  0  0  0
 18 19  2  0  0  0
 18 99  1  0  0  0
 19 20  1  0  0  0
 19 24  1  0  0  0
 20 21  2  0  0  0
 20100  1  0  0  0
 21 23  1  0  0  0
 22 28  1  0  0  0
 22 32  2  0  0  0
 26 27  1  0  0  0
 28101  1  0  0  0
 28102  1  0  0  0
 29103  1  0  0  0
 29104  1  0  0  0
 33 34  1  0  0  0
 33 66  1  0  0  0
 33 70  2  0  0  0
 34 36  1  0  0  0
 34 59  1  0  0  0
 34105  1  0  0  0
 35 44  2  0  0  0
 35 45  1  0  0  0
 35 68  1  0  0  0
 36 56  1  0  0  0
 36106  1  0  0  0
 37 39  1  0  0  0
 37 47  1  0  0  0
 37 66  1  0  0  0
 37107  1  0  0  0
 38 43  2  0  0  0
 38 46  1  0  0  0
 38 47  1  0  0  0
 39 64  1  0  0  0
 39 67  2  0  0  0
 40 52  1  0  0  0
 40 53  2  0  0  0
 40 58  1  0  0  0
 41108  1  0  0  0
 41109  1  0  0  0
 41110  1  0  0  0
 41 48  1  0  0  0
 42 43  1  0  0  0
 42 66  1  0  0  0
 42111  1  0  0  0
 42112  1  0  0  0
 43 44  1  0  0  0
 44113  1  0  0  0
 45 46  2  0  0  0
 45114  1  0  0  0
 46115  1  0  0  0
 47116  1  0  0  0
 47117  1  0  0  0
 48 56  1  0  0  0
 48 65  1  0  0  0
 48118  1  0  0  0
 49 50  1  0  0  0
 49 53  1  0  0  0
 49 64  1  0  0  0
 49119  1  0  0  0
 50 51  1  0  0  0
 50120  1  0  0  0
 50121  1  0  0  0
 51 52  1  0  0  0
 51122  1  0  0  0
 51123  1  0  0  0
 52124  1  0  0  0
 52125  1  0  0  0
 53 54  1  0  0  0
 54 55  2  0  0  0
 54126  1  0  0  0
 55 57  1  0  0  0
 55127  1  0  0  0
 56 69  2  0  0  0
 57 58  2  0  0  0
 57128  1  0  0  0
 58129  1  0  0  0
 59 60  1  0  0  0
 59 61  1  0  0  0
 59 62  1  0  0  0
 60130  1  0  0  0
 60131  1  0  0  0
 60132  1  0  0  0
 61133  1  0  0  0
 61134  1  0  0  0
 61135  1  0  0  0
 62136  1  0  0  0
 62137  1  0  0  0
 62138  1  0  0  0
 63 65  1  0  0  0
 63139  1  0  0  0
 63140  1  0  0  0
 63141  1  0  0  0
 64142  1  0  0  0
 65143  1  0  0  0
 68 79  1  0  0  0
 71 72  2  0  0  0
 71 73  1  0  0  0
 71144  1  0  0  0
 72 75  1  0  0  0
 72145  1  0  0  0
 73 76  2  0  0  0
 73 78  1  0  0  0
 74 75  2  0  0  0
 74 76  1  0  0  0
 74 80  1  0  0  0
 75 83  1  0  0  0
 76 84  1  0  0  0
 77 79  1  0  0  0
 77 81  1  0  0  0
 77 82  2  0  0  0
 78 81  1  0  0  0
 78146  1  0  0  0
 78147  1  0  0  0
 79148  1  0  0  0
 79149  1  0  0  0
 80150  1  0  0  0
 81151  1  0  0  0
M  ISO  4   1 100  68 101  79 101  80 100
M  END
> <chiral flag>
0

> <version>
0

> <s_m_source_file>
/data/baiqing/PycharmProjects/Reinvent-master-3.2/result/LINK_invent/BTK/process_docking_weight1_custom_sum_contain_oxygen_bond_distance_aromatic_linkinvent_7_9_3/rearranged_h_0014.sdf

> <i_m_source_file_index>
69

> <r_mmod_Potential_Energy-OPLS-2005>
51.8254470825195

> <r_mmod_Stretch_Energy-OPLS-2005>
132.919906616211

> <r_mmod_Bend_Energy-OPLS-2005>
175.411575317383

> <r_mmod_Torsional_Energy-OPLS-2005>
208.400024414062

> <r_mmod_Improper_Torsional_Energy-OPLS-2005>
6.65468740463257

> <r_mmod_Van_der_Waal_Energy-OPLS-2005>
138.544952392578

> <r_mmod_Electrostatic_Energy-OPLS-2005>
-452.862701416016

> <r_mmod_Solvation_Energy-OPLS-2005>
-247.594177246094

> <b_mmod_Minimization_Converged-OPLS-2005>
0

> <r_mmod_RMS_Derivative-OPLS-2005>
1.79368567466736

$$$$
69
                    3D
 Structure written by MMmdl.
152160  0  0  1  0            999 V2000
  -30.5307  -15.0210   20.4113 C   0  0  0  0  0  0
  -30.4394  -12.6376   19.5082 C   0  0  0  0  0  0
  -29.5252  -12.5387   18.2645 C   0  0  0  0  0  0
  -28.0621  -12.3093   18.6854 C   0  0  0  0  0  0
  -27.6246  -13.2557   19.8330 C   0  0  2  0  0  0
  -28.6661  -13.3251   20.9708 C   0  0  0  0  0  0
  -25.2437  -13.8224   20.5723 C   0  0  0  0  0  0
  -24.1765  -13.0436   20.9238 C   0  0  0  0  0  0
  -24.6390  -11.6929   20.8767 C   0  0  0  0  0  0
  -23.9076  -10.4297   21.0414 C   0  0  0  0  0  0
  -24.3624   -9.4208   21.9181 C   0  0  0  0  0  0
  -23.6297   -8.2242   22.0751 C   0  0  0  0  0  0
  -22.4276   -8.0281   21.3543 C   0  0  0  0  0  0
  -21.9917   -9.0256   20.4646 C   0  0  0  0  0  0
  -22.7253  -10.2133   20.3059 C   0  0  0  0  0  0
  -21.6855   -6.0736   22.5278 C   0  0  0  0  0  0
  -21.4017   -6.5638   23.8211 C   0  0  0  0  0  0
  -21.3667   -5.6789   24.9172 C   0  0  0  0  0  0
  -21.6046   -4.3050   24.7221 C   0  0  0  0  0  0
  -21.8818   -3.8146   23.4340 C   0  0  0  0  0  0
  -21.9188   -4.6963   22.3399 C   0  0  0  0  0  0
  -22.7780  -13.5203   21.1884 C   0  0  0  0  0  0
  -22.1658   -4.2151   21.0975 F   0  0  0  0  0  0
  -21.5629   -3.4534   25.7732 F   0  0  0  0  0  0
  -29.9322  -13.7549   20.3631 N   0  0  0  0  0  0
  -26.2869  -12.9473   20.3240 N   0  0  0  0  0  0
  -25.9324  -11.6599   20.5740 N   0  0  0  0  0  0
  -22.0424  -12.8206   22.0449 N   0  0  0  0  0  0
  -25.4070  -15.1958   20.4154 N   0  0  0  0  0  0
  -31.7419  -15.0451   20.1671 O   0  0  0  0  0  0
  -21.6640   -6.8882   21.4242 O   0  0  0  0  0  0
  -22.3464  -14.5500   20.6718 O   0  0  0  0  0  0
  -24.6496  -31.8388   23.1824 C   0  0  0  0  0  0
  -25.9246  -32.4662   23.8233 C   0  0  1  0  0  0
  -27.2198  -27.0816   20.1657 C   0  0  0  0  0  0
  -25.5984  -33.8471   24.2162 N   0  0  0  0  0  0
  -23.4560  -30.4559   21.5288 C   0  0  2  0  0  0
  -24.9058  -28.8692   20.1128 C   0  0  0  0  0  0
  -22.7598  -29.4535   22.4835 C   0  0  0  0  0  0
  -18.0319  -28.1411   22.8466 C   0  0  0  0  0  0
  -24.1494  -36.7231   23.2640 C   0  0  0  0  0  0
  -26.0155  -30.6949   21.3891 C   0  0  0  0  0  0
  -26.0857  -29.3004   20.7320 C   0  0  0  0  0  0
  -27.2426  -28.4248   20.7366 C   0  0  0  0  0  0
  -26.0120  -26.7614   19.5073 C   0  0  0  0  0  0
  -24.8846  -27.6144   19.4842 C   0  0  0  0  0  0
  -23.6858  -29.7793   20.1505 C   0  0  0  0  0  0
  -25.4133  -36.3010   24.0308 C   0  0  1  0  0  0
  -20.5934  -28.3747   23.1215 C   0  0  2  0  0  0
  -20.6812  -26.9446   22.5399 C   0  0  0  0  0  0
  -19.5783  -26.6391   21.5212 C   0  0  0  0  0  0
  -18.1963  -26.7949   22.1617 C   0  0  0  0  0  0
  -19.1575  -28.8898   23.2830 C   0  0  0  0  0  0
  -18.9490  -30.1493   23.8860 C   0  0  0  0  0  0
  -17.6485  -30.6602   24.0565 C   0  0  0  0  0  0
  -25.9087  -34.9389   23.5045 C   0  0  0  0  0  0
  -16.5376  -29.9093   23.6346 C   0  0  0  0  0  0
  -16.7304  -28.6517   23.0356 C   0  0  0  0  0  0
  -26.4556  -31.6547   25.0695 C   0  0  0  0  0  0
  -25.3725  -31.3750   26.1380 C   0  0  0  0  0  0
  -27.0435  -30.2936   24.6312 C   0  0  0  0  0  0
  -27.6075  -32.4326   25.7489 C   0  0  0  0  0  0
  -27.5576  -37.1774   24.8468 C   0  0  0  0  0  0
  -21.4287  -29.3055   22.3571 N   0  0  0  0  0  0
  -26.4288  -37.3734   23.9411 N   0  0  0  0  0  0
  -24.7270  -31.0198   22.0878 N   0  0  0  0  0  0
  -23.4212  -28.8093   23.3016 O   0  0  0  0  0  0
  -28.2648  -26.0707   20.2403 O   0  0  0  0  0  0
  -26.5666  -34.8901   22.4619 O   0  0  0  0  0  0
  -23.5604  -32.1288   23.7019 O   0  0  0  0  0  0
  -31.4361  -18.1587   20.6000 C   0  0  0  0  0  0
  -30.9268  -20.5913   20.5402 C   0  0  0  0  0  0
  -31.8482  -19.5174   20.6245 C   0  0  0  0  0  0
  -30.0824  -17.7640   20.4942 C   0  0  0  0  0  0
  -29.5355  -20.4021   20.4195 C   0  0  0  0  0  0
  -29.1497  -18.9428   20.4055 C   0  0  0  0  0  0
  -29.0569  -23.1865   20.3955 C   0  0  0  0  0  0
  -27.9966  -24.5143   20.1310 C   0  0  0  0  0  0
  -33.3313  -19.8564   20.7149 C   0  0  0  0  0  0
  -29.7597  -16.2356   20.5067 N   0  0  0  0  0  0
  -28.6833  -21.6425   20.3144 N   0  0  0  0  0  0
  -27.8286  -18.6634   20.2949 F   0  0  0  0  0  0
  -34.0650  -18.8166   21.1127 F   0  0  0  0  0  0
  -33.7613  -20.2392   19.5131 F   0  0  0  0  0  0
  -33.5318  -20.8548   21.5756 F   0  0  0  0  0  0
  -31.4727  -12.7990   19.1965 H   0  0  0  0  0  0
  -30.4423  -11.6975   20.0626 H   0  0  0  0  0  0
  -29.8592  -11.7335   17.6086 H   0  0  0  0  0  0
  -29.5987  -13.4588   17.6832 H   0  0  0  0  0  0
  -27.9769  -11.2738   19.0157 H   0  0  0  0  0  0
  -27.3959  -12.4118   17.8280 H   0  0  0  0  0  0
  -27.5740  -14.2475   19.3824 H   0  0  0  0  0  0
  -28.7711  -12.3612   21.4721 H   0  0  0  0  0  0
  -28.3532  -14.0385   21.7343 H   0  0  0  0  0  0
  -25.2763   -9.5684   22.4756 H   0  0  0  0  0  0
  -24.0004   -7.4636   22.7468 H   0  0  0  0  0  0
  -21.0847   -8.8781   19.8951 H   0  0  0  0  0  0
  -22.3712  -10.9670   19.6168 H   0  0  0  0  0  0
  -21.2016   -7.6145   23.9724 H   0  0  0  0  0  0
  -21.1492   -6.0514   25.9082 H   0  0  0  0  0  0
  -22.0589   -2.7606   23.2836 H   0  0  0  0  0  0
  -22.4040  -11.9884   22.4869 H   0  0  0  0  0  0
  -21.1033  -13.1223   22.2624 H   0  0  0  0  0  0
  -24.6317  -15.8399   20.5285 H   0  0  0  0  0  0
  -26.2425  -15.6456   20.0655 H   0  0  0  0  0  0
  -26.7308  -32.5258   23.0952 H   0  0  0  0  0  0
  -25.0149  -33.9570   25.0324 H   0  0  0  0  0  0
  -22.7624  -31.2843   21.3695 H   0  0  0  0  0  0
  -23.3767  -35.9548   23.3285 H   0  0  0  0  0  0
  -24.3575  -36.8882   22.2056 H   0  0  0  0  0  0
  -23.7236  -37.6416   23.6690 H   0  0  0  0  0  0
  -26.1816  -31.4455   20.6152 H   0  0  0  0  0  0
  -26.8814  -30.7455   22.0373 H   0  0  0  0  0  0
  -28.1412  -28.7522   21.2405 H   0  0  0  0  0  0
  -25.9065  -25.8013   19.0246 H   0  0  0  0  0  0
  -23.9844  -27.2765   18.9899 H   0  0  0  0  0  0
  -23.8307  -30.5516   19.3936 H   0  0  0  0  0  0
  -22.7988  -29.2261   19.8366 H   0  0  0  0  0  0
  -25.1326  -36.1825   25.0797 H   0  0  0  0  0  0
  -21.0030  -28.3354   24.1336 H   0  0  0  0  0  0
  -20.5728  -26.2365   23.3625 H   0  0  0  0  0  0
  -21.6678  -26.7467   22.1189 H   0  0  0  0  0  0
  -19.6950  -25.6293   21.1269 H   0  0  0  0  0  0
  -19.6724  -27.3180   20.6722 H   0  0  0  0  0  0
  -17.4241  -26.6692   21.4013 H   0  0  0  0  0  0
  -18.0357  -26.0100   22.9019 H   0  0  0  0  0  0
  -19.7967  -30.7321   24.2204 H   0  0  0  0  0  0
  -17.5044  -31.6274   24.5181 H   0  0  0  0  0  0
  -15.5379  -30.2988   23.7692 H   0  0  0  0  0  0
  -15.8705  -28.0829   22.7087 H   0  0  0  0  0  0
  -24.5916  -30.7090   25.7694 H   0  0  0  0  0  0
  -24.8903  -32.2936   26.4732 H   0  0  0  0  0  0
  -25.7998  -30.8970   27.0201 H   0  0  0  0  0  0
  -26.3063  -29.6638   24.1321 H   0  0  0  0  0  0
  -27.4043  -29.7265   25.4901 H   0  0  0  0  0  0
  -27.8974  -30.4167   23.9647 H   0  0  0  0  0  0
  -27.2662  -33.3654   26.1988 H   0  0  0  0  0  0
  -28.3927  -32.6839   25.0346 H   0  0  0  0  0  0
  -28.0693  -31.8498   26.5469 H   0  0  0  0  0  0
  -28.2588  -38.0075   24.7526 H   0  0  0  0  0  0
  -28.1079  -36.2611   24.6292 H   0  0  0  0  0  0
  -27.2292  -37.1413   25.8867 H   0  0  0  0  0  0
  -20.9522  -29.8724   21.6698 H   0  0  0  0  0  0
  -26.0148  -38.2794   24.1423 H   0  0  0  0  0  0
  -32.2047  -17.4059   20.6692 H   0  0  0  0  0  0
  -31.3289  -21.5928   20.5588 H   0  0  0  0  0  0
  -29.4800  -23.3302   21.3907 H   0  0  0  0  0  0
  -29.8998  -23.3295   19.7181 H   0  0  0  0  0  0
  -27.1376  -24.3366   20.7784 H   0  0  0  0  0  0
  -27.6197  -24.3686   19.1192 H   0  0  0  0  0  0
  -28.7726  -16.0467   20.5869 H   0  0  0  0  0  0
  -27.6870  -21.4522   20.2294 H   0  0  0  0  0  0
  1 25  1  0  0  0
  1 30  2  0  0  0
  1 80  1  0  0  0
  2  3  1  0  0  0
  2 25  1  0  0  0
  2 86  1  0  0  0
  2 87  1  0  0  0
  3  4  1  0  0  0
  3 88  1  0  0  0
  3 89  1  0  0  0
  4  5  1  0  0  0
  4 90  1  0  0  0
  4 91  1  0  0  0
  5  6  1  0  0  0
  5 26  1  0  0  0
  5 92  1  0  0  0
  6 25  1  0  0  0
  6 93  1  0  0  0
  6 94  1  0  0  0
  7  8  2  0  0  0
  7 26  1  0  0  0
  7 29  1  0  0  0
  8  9  1  0  0  0
  8 22  1  0  0  0
  9 10  1  0  0  0
  9 27  2  0  0  0
 10 11  2  0  0  0
 10 15  1  0  0  0
 11 12  1  0  0  0
 11 95  1  0  0  0
 12 13  2  0  0  0
 12 96  1  0  0  0
 13 14  1  0  0  0
 13 31  1  0  0  0
 14 15  2  0  0  0
 14 97  1  0  0  0
 15 98  1  0  0  0
 16 17  2  0  0  0
 16 21  1  0  0  0
 16 31  1  0  0  0
 17 18  1  0  0  0
 17 99  1  0  0  0
 18 19  2  0  0  0
 18100  1  0  0  0
 19 20  1  0  0  0
 19 24  1  0  0  0
 20 21  2  0  0  0
 20101  1  0  0  0
 21 23  1  0  0  0
 22 28  1  0  0  0
 22 32  2  0  0  0
 26 27  1  0  0  0
 28102  1  0  0  0
 28103  1  0  0  0
 29104  1  0  0  0
 29105  1  0  0  0
 33 34  1  0  0  0
 33 66  1  0  0  0
 33 70  2  0  0  0
 34 36  1  0  0  0
 34 59  1  0  0  0
 34106  1  0  0  0
 35 44  2  0  0  0
 35 45  1  0  0  0
 35 68  1  0  0  0
 36 56  1  0  0  0
 36107  1  0  0  0
 37 39  1  0  0  0
 37 47  1  0  0  0
 37 66  1  0  0  0
 37108  1  0  0  0
 38 43  2  0  0  0
 38 46  1  0  0  0
 38 47  1  0  0  0
 39 64  1  0  0  0
 39 67  2  0  0  0
 40 52  1  0  0  0
 40 53  2  0  0  0
 40 58  1  0  0  0
 41109  1  0  0  0
 41110  1  0  0  0
 41111  1  0  0  0
 41 48  1  0  0  0
 42 43  1  0  0  0
 42 66  1  0  0  0
 42112  1  0  0  0
 42113  1  0  0  0
 43 44  1  0  0  0
 44114  1  0  0  0
 45 46  2  0  0  0
 45115  1  0  0  0
 46116  1  0  0  0
 47117  1  0  0  0
 47118  1  0  0  0
 48 56  1  0  0  0
 48 65  1  0  0  0
 48119  1  0  0  0
 49 50  1  0  0  0
 49 53  1  0  0  0
 49 64  1  0  0  0
 49120  1  0  0  0
 50 51  1  0  0  0
 50121  1  0  0  0
 50122  1  0  0  0
 51 52  1  0  0  0
 51123  1  0  0  0
 51124  1  0  0  0
 52125  1  0  0  0
 52126  1  0  0  0
 53 54  1  0  0  0
 54 55  2  0  0  0
 54127  1  0  0  0
 55 57  1  0  0  0
 55128  1  0  0  0
 56 69  2  0  0  0
 57 58  2  0  0  0
 57129  1  0  0  0
 58130  1  0  0  0
 59 60  1  0  0  0
 59 61  1  0  0  0
 59 62  1  0  0  0
 60131  1  0  0  0
 60132  1  0  0  0
 60133  1  0  0  0
 61134  1  0  0  0
 61135  1  0  0  0
 61136  1  0  0  0
 62137  1  0  0  0
 62138  1  0  0  0
 62139  1  0  0  0
 63 65  1  0  0  0
 63140  1  0  0  0
 63141  1  0  0  0
 63142  1  0  0  0
 64143  1  0  0  0
 65144  1  0  0  0
 68 78  1  0  0  0
 71 73  2  0  0  0
 71 74  1  0  0  0
 71145  1  0  0  0
 72 73  1  0  0  0
 72 75  2  0  0  0
 72146  1  0  0  0
 73 79  1  0  0  0
 74 76  2  0  0  0
 74 80  1  0  0  0
 75 76  1  0  0  0
 75 81  1  0  0  0
 76 82  1  0  0  0
 77 78  1  0  0  0
 77 81  1  0  0  0
 77147  1  0  0  0
 77148  1  0  0  0
 78149  1  0  0  0
 78150  1  0  0  0
 79 83  1  0  0  0
 79 84  1  0  0  0
 79 85  1  0  0  0
 80151  1  0  0  0
 81152  1  0  0  0
M  ISO  4   1 100  68 101  78 101  80 100
M  END
> <chiral flag>
0

> <version>
0

> <s_m_source_file>
/data/baiqing/PycharmProjects/Reinvent-master-3.2/result/LINK_invent/BTK/process_docking_weight1_custom_sum_contain_oxygen_bond_distance_aromatic_linkinvent_7_9_3/rearranged_h_0014.sdf

> <i_m_source_file_index>
70

> <r_mmod_Potential_Energy-OPLS-2005>
618.91796875

> <r_mmod_Stretch_Energy-OPLS-2005>
320.771667480469

> <r_mmod_Bend_Energy-OPLS-2005>
276.286651611328

> <r_mmod_Torsional_Energy-OPLS-2005>
201.258544921875

> <r_mmod_Improper_Torsional_Energy-OPLS-2005>
4.82255506515503

> <r_mmod_Van_der_Waal_Energy-OPLS-2005>
133.750686645508

> <r_mmod_Electrostatic_Energy-OPLS-2005>
-350.139373779297

> <r_mmod_Solvation_Energy-OPLS-2005>
-212.679718017578

> <b_mmod_Minimization_Converged-OPLS-2005>
0

> <r_mmod_RMS_Derivative-OPLS-2005>
1.21659243106842

$$$$
70
                    3D
 Structure written by MMmdl.
159167  0  0  1  0            999 V2000
  -30.6738  -14.6721   20.4932 C   0  0  0  0  0  0
  -30.4421  -12.4171   19.4540 C   0  0  0  0  0  0
  -29.5041  -12.4988   18.2293 C   0  0  0  0  0  0
  -28.0309  -12.3346   18.6531 C   0  0  0  0  0  0
  -27.6486  -13.2209   19.8687 C   0  0  2  0  0  0
  -28.7108  -13.1214   20.9915 C   0  0  0  0  0  0
  -25.2287  -13.7950   20.5578 C   0  0  0  0  0  0
  -24.1670  -13.0229   20.9174 C   0  0  0  0  0  0
  -24.6393  -11.6777   20.8793 C   0  0  0  0  0  0
  -23.9110  -10.4192   21.0444 C   0  0  0  0  0  0
  -24.3648   -9.4120   21.9226 C   0  0  0  0  0  0
  -23.6290   -8.2183   22.0791 C   0  0  0  0  0  0
  -22.4268   -8.0267   21.3566 C   0  0  0  0  0  0
  -21.9924   -9.0251   20.4665 C   0  0  0  0  0  0
  -22.7295  -10.2093   20.3074 C   0  0  0  0  0  0
  -21.6829   -6.0745   22.5296 C   0  0  0  0  0  0
  -21.4005   -6.5649   23.8235 C   0  0  0  0  0  0
  -21.3629   -5.6790   24.9188 C   0  0  0  0  0  0
  -21.6037   -4.3057   24.7228 C   0  0  0  0  0  0
  -21.8831   -3.8159   23.4346 C   0  0  0  0  0  0
  -21.9199   -4.6981   22.3405 C   0  0  0  0  0  0
  -22.7706  -13.5070   21.1848 C   0  0  0  0  0  0
  -22.1663   -4.2180   21.0972 F   0  0  0  0  0  0
  -21.5619   -3.4528   25.7728 F   0  0  0  0  0  0
  -30.0262  -13.4600   20.4156 N   0  0  0  0  0  0
  -26.2945  -12.9322   20.3434 N   0  0  0  0  0  0
  -25.9360  -11.6463   20.5909 N   0  0  0  0  0  0
  -22.0356  -12.8122   22.0442 N   0  0  0  0  0  0
  -25.3371  -15.1599   20.3792 N   0  0  0  0  0  0
  -31.8308  -14.8008   20.0869 O   0  0  0  0  0  0
  -21.6611   -6.8886   21.4260 O   0  0  0  0  0  0
  -22.3414  -14.5420   20.6738 O   0  0  0  0  0  0
  -24.6248  -31.8586   23.2036 C   0  0  0  0  0  0
  -25.9111  -32.4764   23.8352 C   0  0  1  0  0  0
  -27.2340  -27.3372   20.1116 C   0  0  0  0  0  0
  -25.5927  -33.8560   24.2262 N   0  0  0  0  0  0
  -23.4195  -30.4832   21.5429 C   0  0  2  0  0  0
  -24.8681  -28.9417   20.1101 C   0  0  0  0  0  0
  -22.7489  -29.4584   22.4898 C   0  0  0  0  0  0
  -18.0286  -28.1362   22.8427 C   0  0  0  0  0  0
  -24.1508  -36.7291   23.2644 C   0  0  0  0  0  0
  -25.9601  -30.7955   21.3739 C   0  0  0  0  0  0
  -26.0365  -29.4261   20.7133 C   0  0  0  0  0  0
  -27.2214  -28.6374   20.7013 C   0  0  0  0  0  0
  -26.0404  -26.8981   19.4902 C   0  0  0  0  0  0
  -24.8707  -27.6818   19.4899 C   0  0  0  0  0  0
  -23.6398  -29.8246   20.1556 C   0  0  0  0  0  0
  -25.4117  -36.3062   24.0323 C   0  0  1  0  0  0
  -20.5887  -28.3668   23.1231 C   0  0  2  0  0  0
  -20.6786  -26.9381   22.5369 C   0  0  0  0  0  0
  -19.5786  -26.6347   21.5150 C   0  0  0  0  0  0
  -18.1950  -26.7901   22.1565 C   0  0  0  0  0  0
  -19.1541  -28.8831   23.2825 C   0  0  0  0  0  0
  -18.9482  -30.1435   23.8838 C   0  0  0  0  0  0
  -17.6488  -30.6564   24.0536 C   0  0  0  0  0  0
  -25.9053  -34.9437   23.5089 C   0  0  0  0  0  0
  -16.5373  -29.9047   23.6327 C   0  0  0  0  0  0
  -16.7278  -28.6483   23.0299 C   0  0  0  0  0  0
  -26.4506  -31.6589   25.0731 C   0  0  0  0  0  0
  -25.3754  -31.3726   26.1481 C   0  0  0  0  0  0
  -27.0362  -30.3018   24.6163 C   0  0  0  0  0  0
  -27.6073  -32.4318   25.7491 C   0  0  0  0  0  0
  -27.5578  -37.1793   24.8461 C   0  0  0  0  0  0
  -21.4197  -29.3034   22.3664 N   0  0  0  0  0  0
  -26.4285  -37.3761   23.9410 N   0  0  0  0  0  0
  -24.6864  -31.0624   22.0979 N   0  0  0  0  0  0
  -23.4218  -28.8084   23.2951 O   0  0  0  0  0  0
  -28.3674  -26.5145   20.1598 O   0  0  0  0  0  0
  -26.5621  -34.8906   22.4652 O   0  0  0  0  0  0
  -23.5410  -32.1351   23.7385 O   0  0  0  0  0  0
  -31.1250  -19.4136   21.2235 C   0  0  0  0  0  0
  -30.1982  -20.1522   20.4359 C   0  0  0  0  0  0
  -29.1497  -17.9656   19.8897 C   0  0  0  0  0  0
  -30.1031  -17.2105   20.6563 C   0  0  0  0  0  0
  -29.2190  -19.3920   19.7638 C   0  0  0  0  0  0
  -31.0889  -17.9886   21.3310 C   0  0  0  0  0  0
  -29.8525  -24.5583   21.9534 C   0  0  0  0  0  0
  -30.3209  -21.7092   20.2181 C   0  0  0  0  0  0
  -28.1858  -25.0487   20.0841 C   0  0  0  0  0  0
  -29.3992  -24.1242   20.5431 C   0  0  2  0  0  0
  -27.9742  -17.2307   19.2756 C   0  0  0  0  0  0
  -29.9284  -15.7548   20.8828 N   0  0  0  0  0  0
  -29.1423  -22.6165   20.5248 N   0  3  0  0  0  0
  -28.3253  -20.0796   19.0123 F   0  0  0  0  0  0
  -28.3857  -16.2984   18.4149 F   0  0  0  0  0  0
  -27.3959  -16.6488   20.3153 F   0  0  0  0  0  0
  -27.0535  -17.9861   18.6764 F   0  0  0  0  0  0
  -32.2428  -17.2289   22.3697 Cl  0  0  0  0  0  0
  -31.4793  -12.5341   19.1366 H   0  0  0  0  0  0
  -30.3885  -11.4317   19.9192 H   0  0  0  0  0  0
  -29.7677  -11.7266   17.5049 H   0  0  0  0  0  0
  -29.6395  -13.4547   17.7193 H   0  0  0  0  0  0
  -27.8827  -11.2836   18.9043 H   0  0  0  0  0  0
  -27.3713  -12.5427   17.8104 H   0  0  0  0  0  0
  -27.6426  -14.2462   19.5083 H   0  0  0  0  0  0
  -28.7350  -12.1116   21.4028 H   0  0  0  0  0  0
  -28.4584  -13.7760   21.8243 H   0  0  0  0  0  0
  -25.2794   -9.5599   22.4804 H   0  0  0  0  0  0
  -23.9988   -7.4570   22.7516 H   0  0  0  0  0  0
  -21.0859   -8.8808   19.8957 H   0  0  0  0  0  0
  -22.3806  -10.9655   19.6182 H   0  0  0  0  0  0
  -21.1999   -7.6159   23.9751 H   0  0  0  0  0  0
  -21.1415   -6.0505   25.9090 H   0  0  0  0  0  0
  -22.0635   -2.7627   23.2827 H   0  0  0  0  0  0
  -22.3940  -11.9774   22.4832 H   0  0  0  0  0  0
  -21.1010  -13.1225   22.2711 H   0  0  0  0  0  0
  -24.5412  -15.7756   20.4931 H   0  0  0  0  0  0
  -26.2007  -15.6611   20.1959 H   0  0  0  0  0  0
  -26.7182  -32.5445   23.1111 H   0  0  0  0  0  0
  -25.0131  -33.9692   25.0433 H   0  0  0  0  0  0
  -22.7127  -31.3014   21.4009 H   0  0  0  0  0  0
  -23.3754  -35.9651   23.3282 H   0  0  0  0  0  0
  -24.3613  -36.8928   22.2068 H   0  0  0  0  0  0
  -23.7256  -37.6483   23.6681 H   0  0  0  0  0  0
  -26.0932  -31.5644   20.6114 H   0  0  0  0  0  0
  -26.8368  -30.8362   22.0090 H   0  0  0  0  0  0
  -28.1219  -29.0060   21.1765 H   0  0  0  0  0  0
  -25.9815  -25.9362   19.0035 H   0  0  0  0  0  0
  -23.9757  -27.3052   19.0139 H   0  0  0  0  0  0
  -23.7764  -30.6068   19.4083 H   0  0  0  0  0  0
  -22.7586  -29.2658   19.8386 H   0  0  0  0  0  0
  -25.1278  -36.1924   25.0806 H   0  0  0  0  0  0
  -20.9952  -28.3281   24.1354 H   0  0  0  0  0  0
  -20.5666  -26.2281   23.3588 H   0  0  0  0  0  0
  -21.6660  -26.7405   22.1185 H   0  0  0  0  0  0
  -19.6961  -25.6243   21.1200 H   0  0  0  0  0  0
  -19.6748  -27.3151   20.6685 H   0  0  0  0  0  0
  -17.4213  -26.6602   21.3967 H   0  0  0  0  0  0
  -18.0379  -26.0045   22.8964 H   0  0  0  0  0  0
  -19.7986  -30.7220   24.2184 H   0  0  0  0  0  0
  -17.5065  -31.6239   24.5148 H   0  0  0  0  0  0
  -15.5367  -30.2920   23.7717 H   0  0  0  0  0  0
  -15.8679  -28.0819   22.6978 H   0  0  0  0  0  0
  -24.5970  -30.6987   25.7866 H   0  0  0  0  0  0
  -24.8899  -32.2902   26.4817 H   0  0  0  0  0  0
  -25.8119  -30.9024   27.0299 H   0  0  0  0  0  0
  -26.2945  -29.6744   24.1219 H   0  0  0  0  0  0
  -27.4112  -29.7274   25.4635 H   0  0  0  0  0  0
  -27.8773  -30.4294   23.9353 H   0  0  0  0  0  0
  -27.2712  -33.3678   26.1942 H   0  0  0  0  0  0
  -28.3974  -32.6728   25.0375 H   0  0  0  0  0  0
  -28.0624  -31.8497   26.5517 H   0  0  0  0  0  0
  -28.2548  -38.0140   24.7513 H   0  0  0  0  0  0
  -28.1106  -36.2635   24.6261 H   0  0  0  0  0  0
  -27.2295  -37.1411   25.8872 H   0  0  0  0  0  0
  -20.9387  -29.8827   21.6919 H   0  0  0  0  0  0
  -26.0159  -38.2813   24.1464 H   0  0  0  0  0  0
  -31.8950  -19.9473   21.7616 H   0  0  0  0  0  0
  -30.2341  -25.5811   21.9455 H   0  0  0  0  0  0
  -30.6461  -23.9238   22.3460 H   0  0  0  0  0  0
  -29.0259  -24.5406   22.6639 H   0  0  0  0  0  0
  -30.5785  -21.8596   19.1688 H   0  0  0  0  0  0
  -31.1891  -22.0629   20.7753 H   0  0  0  0  0  0
  -27.3167  -24.7820   20.6879 H   0  0  0  0  0  0
  -27.9345  -24.7955   19.0536 H   0  0  0  0  0  0
  -30.2178  -24.3161   19.8486 H   0  0  0  0  0  0
  -28.9840  -15.4898   21.1268 H   0  0  0  0  0  0
  -28.7577  -22.3489   21.4167 H   0  0  0  0  0  0
  -28.4386  -22.4059   19.8304 H   0  0  0  0  0  0
  1 25  1  0  0  0
  1 30  2  0  0  0
  1 82  1  0  0  0
  2  3  1  0  0  0
  2 25  1  0  0  0
  2 89  1  0  0  0
  2 90  1  0  0  0
  3  4  1  0  0  0
  3 91  1  0  0  0
  3 92  1  0  0  0
  4  5  1  0  0  0
  4 93  1  0  0  0
  4 94  1  0  0  0
  5  6  1  0  0  0
  5 26  1  0  0  0
  5 95  1  0  0  0
  6 25  1  0  0  0
  6 96  1  0  0  0
  6 97  1  0  0  0
  7  8  2  0  0  0
  7 26  1  0  0  0
  7 29  1  0  0  0
  8  9  1  0  0  0
  8 22  1  0  0  0
  9 10  1  0  0  0
  9 27  2  0  0  0
 10 11  2  0  0  0
 10 15  1  0  0  0
 11 12  1  0  0  0
 11 98  1  0  0  0
 12 13  2  0  0  0
 12 99  1  0  0  0
 13 14  1  0  0  0
 13 31  1  0  0  0
 14 15  2  0  0  0
 14100  1  0  0  0
 15101  1  0  0  0
 16 17  2  0  0  0
 16 21  1  0  0  0
 16 31  1  0  0  0
 17 18  1  0  0  0
 17102  1  0  0  0
 18 19  2  0  0  0
 18103  1  0  0  0
 19 20  1  0  0  0
 19 24  1  0  0  0
 20 21  2  0  0  0
 20104  1  0  0  0
 21 23  1  0  0  0
 22 28  1  0  0  0
 22 32  2  0  0  0
 26 27  1  0  0  0
 28105  1  0  0  0
 28106  1  0  0  0
 29107  1  0  0  0
 29108  1  0  0  0
 33 34  1  0  0  0
 33 66  1  0  0  0
 33 70  2  0  0  0
 34 36  1  0  0  0
 34 59  1  0  0  0
 34109  1  0  0  0
 35 44  2  0  0  0
 35 45  1  0  0  0
 35 68  1  0  0  0
 36 56  1  0  0  0
 36110  1  0  0  0
 37 39  1  0  0  0
 37 47  1  0  0  0
 37 66  1  0  0  0
 37111  1  0  0  0
 38 43  2  0  0  0
 38 46  1  0  0  0
 38 47  1  0  0  0
 39 64  1  0  0  0
 39 67  2  0  0  0
 40 52  1  0  0  0
 40 53  2  0  0  0
 40 58  1  0  0  0
 41112  1  0  0  0
 41113  1  0  0  0
 41114  1  0  0  0
 41 48  1  0  0  0
 42 43  1  0  0  0
 42 66  1  0  0  0
 42115  1  0  0  0
 42116  1  0  0  0
 43 44  1  0  0  0
 44117  1  0  0  0
 45 46  2  0  0  0
 45118  1  0  0  0
 46119  1  0  0  0
 47120  1  0  0  0
 47121  1  0  0  0
 48 56  1  0  0  0
 48 65  1  0  0  0
 48122  1  0  0  0
 49 50  1  0  0  0
 49 53  1  0  0  0
 49 64  1  0  0  0
 49123  1  0  0  0
 50 51  1  0  0  0
 50124  1  0  0  0
 50125  1  0  0  0
 51 52  1  0  0  0
 51126  1  0  0  0
 51127  1  0  0  0
 52128  1  0  0  0
 52129  1  0  0  0
 53 54  1  0  0  0
 54 55  2  0  0  0
 54130  1  0  0  0
 55 57  1  0  0  0
 55131  1  0  0  0
 56 69  2  0  0  0
 57 58  2  0  0  0
 57132  1  0  0  0
 58133  1  0  0  0
 59 60  1  0  0  0
 59 61  1  0  0  0
 59 62  1  0  0  0
 60134  1  0  0  0
 60135  1  0  0  0
 60136  1  0  0  0
 61137  1  0  0  0
 61138  1  0  0  0
 61139  1  0  0  0
 62140  1  0  0  0
 62141  1  0  0  0
 62142  1  0  0  0
 63 65  1  0  0  0
 63143  1  0  0  0
 63144  1  0  0  0
 63145  1  0  0  0
 64146  1  0  0  0
 65147  1  0  0  0
 68 79  1  0  0  0
 71 72  2  0  0  0
 71 76  1  0  0  0
 71148  1  0  0  0
 72 75  1  0  0  0
 72 78  1  0  0  0
 73 74  1  0  0  0
 73 75  2  0  0  0
 73 81  1  0  0  0
 74 76  2  0  0  0
 74 82  1  0  0  0
 75 84  1  0  0  0
 76 88  1  0  0  0
 77149  1  0  0  0
 77150  1  0  0  0
 77151  1  0  0  0
 77 80  1  0  0  0
 78 83  1  0  0  0
 78152  1  0  0  0
 78153  1  0  0  0
 79 80  1  0  0  0
 79154  1  0  0  0
 79155  1  0  0  0
 80 83  1  0  0  0
 80156  1  0  0  0
 81 85  1  0  0  0
 81 86  1  0  0  0
 81 87  1  0  0  0
 82157  1  0  0  0
 83158  1  0  0  0
 83159  1  0  0  0
M  CHG  1  83   1
M  ISO  4   1 100  68 101  79 101  82 100
M  END
> <chiral flag>
0

> <version>
0

> <s_m_source_file>
/data/baiqing/PycharmProjects/Reinvent-master-3.2/result/LINK_invent/BTK/process_docking_weight1_custom_sum_contain_oxygen_bond_distance_aromatic_linkinvent_7_9_3/rearranged_h_0014.sdf

> <i_m_source_file_index>
71

> <r_mmod_Potential_Energy-OPLS-2005>
-65.542839050293

> <r_mmod_Stretch_Energy-OPLS-2005>
85.6295928955078

> <r_mmod_Bend_Energy-OPLS-2005>
138.713119506836

> <r_mmod_Torsional_Energy-OPLS-2005>
235.932022094727

> <r_mmod_Improper_Torsional_Energy-OPLS-2005>
5.9260458946228

> <r_mmod_Van_der_Waal_Energy-OPLS-2005>
153.761688232422

> <r_mmod_Electrostatic_Energy-OPLS-2005>
-267.834838867188

> <r_mmod_Solvation_Energy-OPLS-2005>
-469.20849609375

> <b_mmod_Minimization_Converged-OPLS-2005>
0

> <r_mmod_RMS_Derivative-OPLS-2005>
3.60119557380676

$$$$
71
                    3D
 Structure written by MMmdl.
172180  0  0  1  0            999 V2000
  -30.6372  -14.6985   20.4752 C   0  0  0  0  0  0
  -30.4367  -12.4263   19.4641 C   0  0  0  0  0  0
  -29.5072  -12.4919   18.2331 C   0  0  0  0  0  0
  -28.0378  -12.3005   18.6541 C   0  0  0  0  0  0
  -27.6453  -13.1943   19.8574 C   0  0  2  0  0  0
  -28.6971  -13.1332   20.9902 C   0  0  0  0  0  0
  -25.2400  -13.7852   20.5567 C   0  0  0  0  0  0
  -24.1733  -13.0202   20.9237 C   0  0  0  0  0  0
  -24.6372  -11.6721   20.8836 C   0  0  0  0  0  0
  -23.9045  -10.4157   21.0464 C   0  0  0  0  0  0
  -24.3595   -9.4085   21.9236 C   0  0  0  0  0  0
  -23.6252   -8.2142   22.0776 C   0  0  0  0  0  0
  -22.4240   -8.0226   21.3543 C   0  0  0  0  0  0
  -21.9889   -9.0206   20.4655 C   0  0  0  0  0  0
  -22.7235  -10.2063   20.3083 C   0  0  0  0  0  0
  -21.6815   -6.0713   22.5282 C   0  0  0  0  0  0
  -21.3989   -6.5625   23.8218 C   0  0  0  0  0  0
  -21.3648   -5.6781   24.9183 C   0  0  0  0  0  0
  -21.6044   -4.3045   24.7231 C   0  0  0  0  0  0
  -21.8820   -3.8135   23.4352 C   0  0  0  0  0  0
  -21.9184   -4.6948   22.3407 C   0  0  0  0  0  0
  -22.7781  -13.5080   21.1879 C   0  0  0  0  0  0
  -22.1657   -4.2140   21.0981 F   0  0  0  0  0  0
  -21.5634   -3.4532   25.7746 F   0  0  0  0  0  0
  -30.0044  -13.4782   20.4100 N   0  0  0  0  0  0
  -26.2934  -12.9133   20.3335 N   0  0  0  0  0  0
  -25.9312  -11.6313   20.5873 N   0  0  0  0  0  0
  -22.0404  -12.8143   22.0470 N   0  0  0  0  0  0
  -25.3739  -15.1441   20.3660 N   0  0  0  0  0  0
  -31.8106  -14.8002   20.1107 O   0  0  0  0  0  0
  -21.6585   -6.8845   21.4237 O   0  0  0  0  0  0
  -22.3507  -14.5410   20.6731 O   0  0  0  0  0  0
  -24.6233  -31.8597   23.2011 C   0  0  0  0  0  0
  -25.9094  -32.4781   23.8331 C   0  0  1  0  0  0
  -27.2433  -27.3434   20.1205 C   0  0  0  0  0  0
  -25.5926  -33.8573   24.2259 N   0  0  0  0  0  0
  -23.4174  -30.4798   21.5438 C   0  0  2  0  0  0
  -24.8684  -28.9355   20.1129 C   0  0  0  0  0  0
  -22.7472  -29.4598   22.4937 C   0  0  0  0  0  0
  -18.0284  -28.1366   22.8460 C   0  0  0  0  0  0
  -24.1506  -36.7302   23.2641 C   0  0  0  0  0  0
  -25.9542  -30.7998   21.3681 C   0  0  0  0  0  0
  -26.0333  -29.4269   20.7147 C   0  0  0  0  0  0
  -27.2210  -28.6429   20.7087 C   0  0  0  0  0  0
  -26.0530  -26.8944   19.4994 C   0  0  0  0  0  0
  -24.8789  -27.6729   19.4987 C   0  0  0  0  0  0
  -23.6330  -29.8110   20.1608 C   0  0  0  0  0  0
  -25.4122  -36.3073   24.0327 C   0  0  1  0  0  0
  -20.5874  -28.3656   23.1280 C   0  0  2  0  0  0
  -20.6781  -26.9381   22.5399 C   0  0  0  0  0  0
  -19.5770  -26.6356   21.5195 C   0  0  0  0  0  0
  -18.1936  -26.7903   22.1591 C   0  0  0  0  0  0
  -19.1533  -28.8829   23.2859 C   0  0  0  0  0  0
  -18.9472  -30.1443   23.8858 C   0  0  0  0  0  0
  -17.6469  -30.6572   24.0549 C   0  0  0  0  0  0
  -25.9055  -34.9447   23.5087 C   0  0  0  0  0  0
  -16.5357  -29.9066   23.6324 C   0  0  0  0  0  0
  -16.7268  -28.6494   23.0317 C   0  0  0  0  0  0
  -26.4493  -31.6586   25.0701 C   0  0  0  0  0  0
  -25.3722  -31.3728   26.1439 C   0  0  0  0  0  0
  -27.0346  -30.3020   24.6122 C   0  0  0  0  0  0
  -27.6053  -32.4315   25.7476 C   0  0  0  0  0  0
  -27.5585  -37.1801   24.8461 C   0  0  0  0  0  0
  -21.4184  -29.3018   22.3695 N   0  0  0  0  0  0
  -26.4296  -37.3764   23.9403 N   0  0  0  0  0  0
  -24.6837  -31.0630   22.0952 N   0  0  0  0  0  0
  -23.4197  -28.8134   23.3002 O   0  0  0  0  0  0
  -28.3900  -26.5397   20.1733 O   0  0  0  0  0  0
  -26.5622  -34.8917   22.4655 O   0  0  0  0  0  0
  -23.5404  -32.1385   23.7363 O   0  0  0  0  0  0
  -29.1060  -19.5720   20.3070 C   0  0  0  0  0  0
  -31.3874  -19.3453   20.9599 C   0  0  0  0  0  0
  -30.3162  -20.2134   20.6176 C   0  0  0  0  0  0
  -28.9492  -18.1527   20.3177 C   0  0  0  0  0  0
  -30.0408  -17.2622   20.6463 C   0  0  0  0  0  0
  -31.2586  -17.9197   20.9912 C   0  0  0  0  0  0
  -33.3614  -16.0763   23.2712 C   0  0  0  0  0  0
  -29.8621  -24.5897   22.0091 C   0  0  0  0  0  0
  -26.7610  -17.6961   21.4027 C   0  0  0  0  0  0
  -26.7538  -18.4353   18.9716 C   0  0  0  0  0  0
  -30.4883  -21.7778   20.6101 C   0  0  0  0  0  0
  -32.6316  -17.3338   22.7948 C   0  0  0  0  0  0
  -28.2421  -25.0740   20.0915 C   0  0  0  0  0  0
  -29.4756  -24.1884   20.5697 C   0  0  2  0  0  0
  -27.5239  -17.6683   20.0678 C   0  0  0  0  0  0
  -29.8489  -15.7940   20.7582 N   0  0  0  0  0  0
  -29.2735  -22.6757   20.4661 N   0  3  0  0  0  0
  -32.3214  -17.1699   21.4187 O   0  0  0  0  0  0
  -27.5671  -16.4359   19.5874 F   0  0  0  0  0  0
  -31.4767  -12.5459   19.1559 H   0  0  0  0  0  0
  -30.3789  -11.4462   19.9390 H   0  0  0  0  0  0
  -29.7871  -11.7253   17.5098 H   0  0  0  0  0  0
  -29.6266  -13.4507   17.7250 H   0  0  0  0  0  0
  -27.9059  -11.2515   18.9211 H   0  0  0  0  0  0
  -27.3725  -12.4866   17.8100 H   0  0  0  0  0  0
  -27.6370  -14.1990   19.4565 H   0  0  0  0  0  0
  -28.7338  -12.1369   21.4295 H   0  0  0  0  0  0
  -28.4309  -13.8116   21.8033 H   0  0  0  0  0  0
  -25.2732   -9.5553   22.4829 H   0  0  0  0  0  0
  -23.9945   -7.4515   22.7494 H   0  0  0  0  0  0
  -21.0819   -8.8739   19.8952 H   0  0  0  0  0  0
  -22.3721  -10.9623   19.6205 H   0  0  0  0  0  0
  -21.1965   -7.6134   23.9720 H   0  0  0  0  0  0
  -21.1475   -6.0511   25.9089 H   0  0  0  0  0  0
  -22.0614   -2.7599   23.2851 H   0  0  0  0  0  0
  -22.3974  -11.9780   22.4851 H   0  0  0  0  0  0
  -21.1044  -13.1236   22.2688 H   0  0  0  0  0  0
  -24.5887  -15.7749   20.4585 H   0  0  0  0  0  0
  -26.2158  -15.5968   20.0196 H   0  0  0  0  0  0
  -26.7174  -32.5465   23.1094 H   0  0  0  0  0  0
  -25.0078  -33.9699   25.0408 H   0  0  0  0  0  0
  -22.7091  -31.2982   21.3987 H   0  0  0  0  0  0
  -23.3748  -35.9661   23.3298 H   0  0  0  0  0  0
  -24.3607  -36.8933   22.2061 H   0  0  0  0  0  0
  -23.7284  -37.6507   23.6667 H   0  0  0  0  0  0
  -26.0753  -31.5634   20.5970 H   0  0  0  0  0  0
  -26.8378  -30.8541   21.9920 H   0  0  0  0  0  0
  -28.1173  -29.0155   21.1874 H   0  0  0  0  0  0
  -26.0066  -25.9291   19.0165 H   0  0  0  0  0  0
  -23.9844  -27.2873   19.0258 H   0  0  0  0  0  0
  -23.7486  -30.5853   19.4019 H   0  0  0  0  0  0
  -22.7552  -29.2358   19.8593 H   0  0  0  0  0  0
  -25.1297  -36.1929   25.0815 H   0  0  0  0  0  0
  -20.9947  -28.3248   24.1409 H   0  0  0  0  0  0
  -20.5701  -26.2258   23.3593 H   0  0  0  0  0  0
  -21.6655  -26.7437   22.1185 H   0  0  0  0  0  0
  -19.6950  -25.6267   21.1222 H   0  0  0  0  0  0
  -19.6734  -27.3175   20.6730 H   0  0  0  0  0  0
  -17.4210  -26.6627   21.3997 H   0  0  0  0  0  0
  -18.0356  -26.0055   22.8998 H   0  0  0  0  0  0
  -19.7961  -30.7251   24.2204 H   0  0  0  0  0  0
  -17.5033  -31.6252   24.5152 H   0  0  0  0  0  0
  -15.5353  -30.2940   23.7702 H   0  0  0  0  0  0
  -15.8670  -28.0833   22.6992 H   0  0  0  0  0  0
  -24.5888  -30.7094   25.7774 H   0  0  0  0  0  0
  -24.8930  -32.2908   26.4831 H   0  0  0  0  0  0
  -25.8048  -30.8919   27.0223 H   0  0  0  0  0  0
  -26.2926  -29.6757   24.1167 H   0  0  0  0  0  0
  -27.4100  -29.7275   25.4594 H   0  0  0  0  0  0
  -27.8753  -30.4319   23.9308 H   0  0  0  0  0  0
  -27.2657  -33.3613   26.2029 H   0  0  0  0  0  0
  -28.3870  -32.6873   25.0318 H   0  0  0  0  0  0
  -28.0700  -31.8452   26.5401 H   0  0  0  0  0  0
  -28.2574  -38.0122   24.7487 H   0  0  0  0  0  0
  -28.1098  -36.2633   24.6292 H   0  0  0  0  0  0
  -27.2295  -37.1461   25.8865 H   0  0  0  0  0  0
  -20.9368  -29.8738   21.6910 H   0  0  0  0  0  0
  -26.0176  -38.2841   24.1393 H   0  0  0  0  0  0
  -28.2569  -20.1968   20.0875 H   0  0  0  0  0  0
  -32.3383  -19.7834   21.2297 H   0  0  0  0  0  0
  -33.5977  -16.1372   24.3339 H   0  0  0  0  0  0
  -34.2960  -15.9395   22.7265 H   0  0  0  0  0  0
  -32.7498  -15.1863   23.1160 H   0  0  0  0  0  0
  -30.0195  -25.6659   22.0850 H   0  0  0  0  0  0
  -30.7891  -24.1185   22.3337 H   0  0  0  0  0  0
  -29.0801  -24.3264   22.7230 H   0  0  0  0  0  0
  -26.8333  -18.6750   21.8767 H   0  0  0  0  0  0
  -27.1667  -16.9608   22.0980 H   0  0  0  0  0  0
  -25.6984  -17.4968   21.2796 H   0  0  0  0  0  0
  -26.4662  -19.4410   19.2735 H   0  0  0  0  0  0
  -25.8245  -17.9196   18.7259 H   0  0  0  0  0  0
  -27.3393  -18.5065   18.0539 H   0  0  0  0  0  0
  -31.1894  -22.0285   19.8119 H   0  0  0  0  0  0
  -30.9947  -22.0291   21.5413 H   0  0  0  0  0  0
  -33.2572  -18.2156   22.9338 H   0  0  0  0  0  0
  -31.7246  -17.4764   23.3865 H   0  0  0  0  0  0
  -27.3729  -24.7812   20.6832 H   0  0  0  0  0  0
  -28.0104  -24.8162   19.0568 H   0  0  0  0  0  0
  -30.3115  -24.4382   19.9140 H   0  0  0  0  0  0
  -28.8830  -15.5298   20.8796 H   0  0  0  0  0  0
  -28.5958  -22.3889   21.1547 H   0  0  0  0  0  0
  -28.8815  -22.4775   19.5579 H   0  0  0  0  0  0
  1 25  1  0  0  0
  1 30  2  0  0  0
  1 86  1  0  0  0
  2  3  1  0  0  0
  2 25  1  0  0  0
  2 90  1  0  0  0
  2 91  1  0  0  0
  3  4  1  0  0  0
  3 92  1  0  0  0
  3 93  1  0  0  0
  4  5  1  0  0  0
  4 94  1  0  0  0
  4 95  1  0  0  0
  5  6  1  0  0  0
  5 26  1  0  0  0
  5 96  1  0  0  0
  6 25  1  0  0  0
  6 97  1  0  0  0
  6 98  1  0  0  0
  7  8  2  0  0  0
  7 26  1  0  0  0
  7 29  1  0  0  0
  8  9  1  0  0  0
  8 22  1  0  0  0
  9 10  1  0  0  0
  9 27  2  0  0  0
 10 11  2  0  0  0
 10 15  1  0  0  0
 11 12  1  0  0  0
 11 99  1  0  0  0
 12 13  2  0  0  0
 12100  1  0  0  0
 13 14  1  0  0  0
 13 31  1  0  0  0
 14 15  2  0  0  0
 14101  1  0  0  0
 15102  1  0  0  0
 16 17  2  0  0  0
 16 21  1  0  0  0
 16 31  1  0  0  0
 17 18  1  0  0  0
 17103  1  0  0  0
 18 19  2  0  0  0
 18104  1  0  0  0
 19 20  1  0  0  0
 19 24  1  0  0  0
 20 21  2  0  0  0
 20105  1  0  0  0
 21 23  1  0  0  0
 22 28  1  0  0  0
 22 32  2  0  0  0
 26 27  1  0  0  0
 28106  1  0  0  0
 28107  1  0  0  0
 29108  1  0  0  0
 29109  1  0  0  0
 33 34  1  0  0  0
 33 66  1  0  0  0
 33 70  2  0  0  0
 34 36  1  0  0  0
 34 59  1  0  0  0
 34110  1  0  0  0
 35 44  2  0  0  0
 35 45  1  0  0  0
 35 68  1  0  0  0
 36 56  1  0  0  0
 36111  1  0  0  0
 37 39  1  0  0  0
 37 47  1  0  0  0
 37 66  1  0  0  0
 37112  1  0  0  0
 38 43  2  0  0  0
 38 46  1  0  0  0
 38 47  1  0  0  0
 39 64  1  0  0  0
 39 67  2  0  0  0
 40 52  1  0  0  0
 40 53  2  0  0  0
 40 58  1  0  0  0
 41113  1  0  0  0
 41114  1  0  0  0
 41115  1  0  0  0
 41 48  1  0  0  0
 42 43  1  0  0  0
 42 66  1  0  0  0
 42116  1  0  0  0
 42117  1  0  0  0
 43 44  1  0  0  0
 44118  1  0  0  0
 45 46  2  0  0  0
 45119  1  0  0  0
 46120  1  0  0  0
 47121  1  0  0  0
 47122  1  0  0  0
 48 56  1  0  0  0
 48 65  1  0  0  0
 48123  1  0  0  0
 49 50  1  0  0  0
 49 53  1  0  0  0
 49 64  1  0  0  0
 49124  1  0  0  0
 50 51  1  0  0  0
 50125  1  0  0  0
 50126  1  0  0  0
 51 52  1  0  0  0
 51127  1  0  0  0
 51128  1  0  0  0
 52129  1  0  0  0
 52130  1  0  0  0
 53 54  1  0  0  0
 54 55  2  0  0  0
 54131  1  0  0  0
 55 57  1  0  0  0
 55132  1  0  0  0
 56 69  2  0  0  0
 57 58  2  0  0  0
 57133  1  0  0  0
 58134  1  0  0  0
 59 60  1  0  0  0
 59 61  1  0  0  0
 59 62  1  0  0  0
 60135  1  0  0  0
 60136  1  0  0  0
 60137  1  0  0  0
 61138  1  0  0  0
 61139  1  0  0  0
 61140  1  0  0  0
 62141  1  0  0  0
 62142  1  0  0  0
 62143  1  0  0  0
 63 65  1  0  0  0
 63144  1  0  0  0
 63145  1  0  0  0
 63146  1  0  0  0
 64147  1  0  0  0
 65148  1  0  0  0
 68 83  1  0  0  0
 71 73  2  0  0  0
 71 74  1  0  0  0
 71149  1  0  0  0
 72 73  1  0  0  0
 72 76  2  0  0  0
 72150  1  0  0  0
 73 81  1  0  0  0
 74 75  2  0  0  0
 74 85  1  0  0  0
 75 76  1  0  0  0
 75 86  1  0  0  0
 76 88  1  0  0  0
 77 82  1  0  0  0
 77151  1  0  0  0
 77152  1  0  0  0
 77153  1  0  0  0
 78154  1  0  0  0
 78155  1  0  0  0
 78156  1  0  0  0
 78 84  1  0  0  0
 79157  1  0  0  0
 79158  1  0  0  0
 79159  1  0  0  0
 79 85  1  0  0  0
 80 85  1  0  0  0
 80160  1  0  0  0
 80161  1  0  0  0
 80162  1  0  0  0
 81 87  1  0  0  0
 81163  1  0  0  0
 81164  1  0  0  0
 82 88  1  0  0  0
 82165  1  0  0  0
 82166  1  0  0  0
 83 84  1  0  0  0
 83167  1  0  0  0
 83168  1  0  0  0
 84 87  1  0  0  0
 84169  1  0  0  0
 85 89  1  0  0  0
 86170  1  0  0  0
 87171  1  0  0  0
 87172  1  0  0  0
M  CHG  1  87   1
M  ISO  4   1 100  68 101  83 101  86 100
M  END
> <chiral flag>
0

> <version>
0

> <s_m_source_file>
/data/baiqing/PycharmProjects/Reinvent-master-3.2/result/LINK_invent/BTK/process_docking_weight1_custom_sum_contain_oxygen_bond_distance_aromatic_linkinvent_7_9_3/rearranged_h_0014.sdf

> <i_m_source_file_index>
72

> <r_mmod_Potential_Energy-OPLS-2005>
-66.5960464477539

> <r_mmod_Stretch_Energy-OPLS-2005>
86.2127532958984

> <r_mmod_Bend_Energy-OPLS-2005>
148.104385375977

> <r_mmod_Torsional_Energy-OPLS-2005>
253.244277954102

> <r_mmod_Improper_Torsional_Energy-OPLS-2005>
5.98627519607544

> <r_mmod_Van_der_Waal_Energy-OPLS-2005>
158.944961547852

> <r_mmod_Electrostatic_Energy-OPLS-2005>
-306.079254150391

> <r_mmod_Solvation_Energy-OPLS-2005>
-468.658630371094

> <b_mmod_Minimization_Converged-OPLS-2005>
0

> <r_mmod_RMS_Derivative-OPLS-2005>
2.34909772872925

$$$$
72
                    3D
 Structure written by MMmdl.
159167  0  0  1  0            999 V2000
  -30.6622  -14.5874   20.4539 C   0  0  0  0  0  0
  -30.4255  -12.3500   19.4484 C   0  0  0  0  0  0
  -29.4969  -12.4707   18.2192 C   0  0  0  0  0  0
  -28.0202  -12.3286   18.6348 C   0  0  0  0  0  0
  -27.6485  -13.2148   19.8536 C   0  0  2  0  0  0
  -28.6946  -13.0880   20.9843 C   0  0  0  0  0  0
  -25.2559  -13.8178   20.5683 C   0  0  0  0  0  0
  -24.1827  -13.0456   20.9194 C   0  0  0  0  0  0
  -24.6384  -11.6925   20.8764 C   0  0  0  0  0  0
  -23.9067  -10.4313   21.0436 C   0  0  0  0  0  0
  -24.3635   -9.4223   21.9202 C   0  0  0  0  0  0
  -23.6306   -8.2254   22.0757 C   0  0  0  0  0  0
  -22.4293   -8.0298   21.3547 C   0  0  0  0  0  0
  -21.9932   -9.0270   20.4651 C   0  0  0  0  0  0
  -22.7255  -10.2151   20.3077 C   0  0  0  0  0  0
  -21.6843   -6.0768   22.5295 C   0  0  0  0  0  0
  -21.3999   -6.5660   23.8233 C   0  0  0  0  0  0
  -21.3656   -5.6802   24.9188 C   0  0  0  0  0  0
  -21.6036   -4.3065   24.7226 C   0  0  0  0  0  0
  -21.8810   -3.8169   23.4342 C   0  0  0  0  0  0
  -21.9180   -4.6998   22.3408 C   0  0  0  0  0  0
  -22.7853  -13.5252   21.1850 C   0  0  0  0  0  0
  -22.1648   -4.2192   21.0982 F   0  0  0  0  0  0
  -21.5646   -3.4541   25.7735 F   0  0  0  0  0  0
  -30.0166  -13.3860   20.4124 N   0  0  0  0  0  0
  -26.2969  -12.9348   20.3285 N   0  0  0  0  0  0
  -25.9304  -11.6512   20.5762 N   0  0  0  0  0  0
  -22.0470  -12.8269   22.0409 N   0  0  0  0  0  0
  -25.4317  -15.1894   20.4101 N   0  0  0  0  0  0
  -31.8658  -14.6801   20.2042 O   0  0  0  0  0  0
  -21.6628   -6.8914   21.4259 O   0  0  0  0  0  0
  -22.3550  -14.5558   20.6690 O   0  0  0  0  0  0
  -24.6192  -31.8637   23.2040 C   0  0  0  0  0  0
  -25.9065  -32.4796   23.8355 C   0  0  1  0  0  0
  -27.2337  -27.3820   20.1142 C   0  0  0  0  0  0
  -25.5911  -33.8589   24.2301 N   0  0  0  0  0  0
  -23.4089  -30.4841   21.5456 C   0  0  2  0  0  0
  -24.8566  -28.9380   20.1161 C   0  0  0  0  0  0
  -22.7428  -29.4639   22.4972 C   0  0  0  0  0  0
  -18.0288  -28.1371   22.8471 C   0  0  0  0  0  0
  -24.1487  -36.7301   23.2639 C   0  0  0  0  0  0
  -25.9414  -30.8141   21.3613 C   0  0  0  0  0  0
  -26.0192  -29.4423   20.7125 C   0  0  0  0  0  0
  -27.2132  -28.6757   20.6988 C   0  0  0  0  0  0
  -26.0530  -26.9009   19.5110 C   0  0  0  0  0  0
  -24.8706  -27.6684   19.5104 C   0  0  0  0  0  0
  -23.6193  -29.8101   20.1625 C   0  0  0  0  0  0
  -25.4106  -36.3091   24.0336 C   0  0  1  0  0  0
  -20.5867  -28.3664   23.1303 C   0  0  2  0  0  0
  -20.6769  -26.9406   22.5379 C   0  0  0  0  0  0
  -19.5773  -26.6425   21.5151 C   0  0  0  0  0  0
  -18.1948  -26.7932   22.1560 C   0  0  0  0  0  0
  -19.1527  -28.8829   23.2897 C   0  0  0  0  0  0
  -18.9450  -30.1422   23.8928 C   0  0  0  0  0  0
  -17.6451  -30.6557   24.0573 C   0  0  0  0  0  0
  -25.9038  -34.9461   23.5112 C   0  0  0  0  0  0
  -16.5348  -29.9053   23.6331 C   0  0  0  0  0  0
  -16.7272  -28.6481   23.0330 C   0  0  0  0  0  0
  -26.4482  -31.6586   25.0706 C   0  0  0  0  0  0
  -25.3749  -31.3707   26.1463 C   0  0  0  0  0  0
  -27.0317  -30.3028   24.6100 C   0  0  0  0  0  0
  -27.6052  -32.4304   25.7478 C   0  0  0  0  0  0
  -27.5568  -37.1805   24.8473 C   0  0  0  0  0  0
  -21.4147  -29.3048   22.3725 N   0  0  0  0  0  0
  -26.4285  -37.3772   23.9407 N   0  0  0  0  0  0
  -24.6749  -31.0714   22.0945 N   0  0  0  0  0  0
  -23.4186  -28.8183   23.3025 O   0  0  0  0  0  0
  -28.3890  -26.6143   20.0981 O   0  0  0  0  0  0
  -26.5607  -34.8931   22.4677 O   0  0  0  0  0  0
  -23.5371  -32.1407   23.7415 O   0  0  0  0  0  0
  -30.5505  -18.6577   18.2667 C   0  0  0  0  0  0
  -29.8612  -19.6877   18.9180 C   0  0  0  0  0  0
  -30.5986  -17.3481   18.7828 C   0  0  0  0  0  0
  -29.3200  -18.1372   20.7167 C   0  0  0  0  0  0
  -29.2433  -19.4692   20.1642 C   0  0  0  0  0  0
  -29.9819  -17.0466   20.0394 C   0  0  0  0  0  0
  -28.4213  -21.7591   20.7669 C   0  0  0  0  0  0
  -31.2669  -16.3261   17.8755 C   0  0  0  0  0  0
  -28.6250  -17.8781   22.0508 C   0  0  0  0  0  0
  -29.4031  -22.7998   20.1751 C   0  0  0  0  0  0
  -28.7892  -24.1393   19.6005 C   0  0  0  0  0  0
  -28.3146  -25.2476   20.6017 C   0  0  0  0  0  0
  -28.4220  -20.4580   20.7864 N   0  0  0  0  0  0
  -29.8649  -15.6873   20.5737 N   0  0  0  0  0  0
  -27.3964  -22.3002   21.4485 F   0  0  0  0  0  0
  -31.4700  -12.4516   19.1459 H   0  0  0  0  0  0
  -30.3380  -11.3619   19.9011 H   0  0  0  0  0  0
  -29.7486  -11.7109   17.4779 H   0  0  0  0  0  0
  -29.6418  -13.4313   17.7260 H   0  0  0  0  0  0
  -27.8517  -11.2778   18.8751 H   0  0  0  0  0  0
  -27.3665  -12.5523   17.7917 H   0  0  0  0  0  0
  -27.6591  -14.2441   19.4938 H   0  0  0  0  0  0
  -28.6884  -12.0801   21.3997 H   0  0  0  0  0  0
  -28.4573  -13.7576   21.8139 H   0  0  0  0  0  0
  -25.2784   -9.5697   22.4772 H   0  0  0  0  0  0
  -24.0011   -7.4652   22.7481 H   0  0  0  0  0  0
  -21.0862   -8.8801   19.8967 H   0  0  0  0  0  0
  -22.3720  -10.9703   19.6193 H   0  0  0  0  0  0
  -21.1978   -7.6163   23.9749 H   0  0  0  0  0  0
  -21.1488   -6.0525   25.9096 H   0  0  0  0  0  0
  -22.0588   -2.7634   23.2818 H   0  0  0  0  0  0
  -22.4029  -11.9916   22.4815 H   0  0  0  0  0  0
  -21.1104  -13.1361   22.2590 H   0  0  0  0  0  0
  -24.6702  -15.8494   20.5237 H   0  0  0  0  0  0
  -26.2837  -15.6239   20.0783 H   0  0  0  0  0  0
  -26.7125  -32.5498   23.1105 H   0  0  0  0  0  0
  -25.0080  -33.9735   25.0460 H   0  0  0  0  0  0
  -22.6992  -31.3012   21.4006 H   0  0  0  0  0  0
  -23.3733  -35.9649   23.3328 H   0  0  0  0  0  0
  -24.3586  -36.8897   22.2048 H   0  0  0  0  0  0
  -23.7276  -37.6525   23.6644 H   0  0  0  0  0  0
  -26.0590  -31.5737   20.5858 H   0  0  0  0  0  0
  -26.8274  -30.8720   21.9812 H   0  0  0  0  0  0
  -28.1134  -29.0626   21.1558 H   0  0  0  0  0  0
  -26.0454  -25.9277   19.0403 H   0  0  0  0  0  0
  -23.9776  -27.2732   19.0443 H   0  0  0  0  0  0
  -23.7272  -30.5808   19.3990 H   0  0  0  0  0  0
  -22.7422  -29.2305   19.8674 H   0  0  0  0  0  0
  -25.1276  -36.1930   25.0827 H   0  0  0  0  0  0
  -20.9955  -28.3207   24.1423 H   0  0  0  0  0  0
  -20.5649  -26.2263   23.3550 H   0  0  0  0  0  0
  -21.6644  -26.7448   22.1174 H   0  0  0  0  0  0
  -19.6939  -25.6363   21.1114 H   0  0  0  0  0  0
  -19.6718  -27.3286   20.6723 H   0  0  0  0  0  0
  -17.4222  -26.6705   21.3947 H   0  0  0  0  0  0
  -18.0351  -26.0041   22.8922 H   0  0  0  0  0  0
  -19.7931  -30.7215   24.2318 H   0  0  0  0  0  0
  -17.5013  -31.6234   24.5172 H   0  0  0  0  0  0
  -15.5348  -30.2955   23.7651 H   0  0  0  0  0  0
  -15.8675  -28.0813   22.7024 H   0  0  0  0  0  0
  -24.5906  -30.7066   25.7816 H   0  0  0  0  0  0
  -24.8950  -32.2865   26.4918 H   0  0  0  0  0  0
  -25.8102  -30.8875   27.0220 H   0  0  0  0  0  0
  -26.2864  -29.6791   24.1150 H   0  0  0  0  0  0
  -27.4086  -29.7265   25.4558 H   0  0  0  0  0  0
  -27.8703  -30.4349   23.9261 H   0  0  0  0  0  0
  -27.2660  -33.3584   26.2090 H   0  0  0  0  0  0
  -28.3852  -32.6892   25.0308 H   0  0  0  0  0  0
  -28.0736  -31.8409   26.5373 H   0  0  0  0  0  0
  -28.2598  -38.0081   24.7464 H   0  0  0  0  0  0
  -28.1042  -36.2606   24.6339 H   0  0  0  0  0  0
  -27.2294  -37.1517   25.8882 H   0  0  0  0  0  0
  -20.9319  -29.8798   21.6965 H   0  0  0  0  0  0
  -26.0172  -38.2857   24.1369 H   0  0  0  0  0  0
  -30.9998  -18.8754   17.3072 H   0  0  0  0  0  0
  -29.7751  -20.6197   18.3855 H   0  0  0  0  0  0
  -31.3222  -16.6866   16.8487 H   0  0  0  0  0  0
  -30.7114  -15.3932   17.8369 H   0  0  0  0  0  0
  -32.2899  -16.1335   18.2000 H   0  0  0  0  0  0
  -28.8352  -18.6869   22.7507 H   0  0  0  0  0  0
  -28.9514  -16.9608   22.5391 H   0  0  0  0  0  0
  -27.5458  -17.8242   21.9090 H   0  0  0  0  0  0
  -30.0010  -22.3514   19.3936 H   0  0  0  0  0  0
  -30.1211  -23.0583   20.9516 H   0  0  0  0  0  0
  -27.9908  -23.9110   18.8936 H   0  0  0  0  0  0
  -29.5766  -24.5937   18.9988 H   0  0  0  0  0  0
  -28.9652  -25.2261   21.4764 H   0  0  0  0  0  0
  -27.3207  -25.0052   20.9820 H   0  0  0  0  0  0
  -28.9678  -15.4803   20.9843 H   0  0  0  0  0  0
  1 25  1  0  0  0
  1 30  2  0  0  0
  1 84  1  0  0  0
  2  3  1  0  0  0
  2 25  1  0  0  0
  2 86  1  0  0  0
  2 87  1  0  0  0
  3  4  1  0  0  0
  3 88  1  0  0  0
  3 89  1  0  0  0
  4  5  1  0  0  0
  4 90  1  0  0  0
  4 91  1  0  0  0
  5  6  1  0  0  0
  5 26  1  0  0  0
  5 92  1  0  0  0
  6 25  1  0  0  0
  6 93  1  0  0  0
  6 94  1  0  0  0
  7  8  2  0  0  0
  7 26  1  0  0  0
  7 29  1  0  0  0
  8  9  1  0  0  0
  8 22  1  0  0  0
  9 10  1  0  0  0
  9 27  2  0  0  0
 10 11  2  0  0  0
 10 15  1  0  0  0
 11 12  1  0  0  0
 11 95  1  0  0  0
 12 13  2  0  0  0
 12 96  1  0  0  0
 13 14  1  0  0  0
 13 31  1  0  0  0
 14 15  2  0  0  0
 14 97  1  0  0  0
 15 98  1  0  0  0
 16 17  2  0  0  0
 16 21  1  0  0  0
 16 31  1  0  0  0
 17 18  1  0  0  0
 17 99  1  0  0  0
 18 19  2  0  0  0
 18100  1  0  0  0
 19 20  1  0  0  0
 19 24  1  0  0  0
 20 21  2  0  0  0
 20101  1  0  0  0
 21 23  1  0  0  0
 22 28  1  0  0  0
 22 32  2  0  0  0
 26 27  1  0  0  0
 28102  1  0  0  0
 28103  1  0  0  0
 29104  1  0  0  0
 29105  1  0  0  0
 33 34  1  0  0  0
 33 66  1  0  0  0
 33 70  2  0  0  0
 34 36  1  0  0  0
 34 59  1  0  0  0
 34106  1  0  0  0
 35 44  2  0  0  0
 35 45  1  0  0  0
 35 68  1  0  0  0
 36 56  1  0  0  0
 36107  1  0  0  0
 37 39  1  0  0  0
 37 47  1  0  0  0
 37 66  1  0  0  0
 37108  1  0  0  0
 38 43  2  0  0  0
 38 46  1  0  0  0
 38 47  1  0  0  0
 39 64  1  0  0  0
 39 67  2  0  0  0
 40 52  1  0  0  0
 40 53  2  0  0  0
 40 58  1  0  0  0
 41109  1  0  0  0
 41110  1  0  0  0
 41111  1  0  0  0
 41 48  1  0  0  0
 42 43  1  0  0  0
 42 66  1  0  0  0
 42112  1  0  0  0
 42113  1  0  0  0
 43 44  1  0  0  0
 44114  1  0  0  0
 45 46  2  0  0  0
 45115  1  0  0  0
 46116  1  0  0  0
 47117  1  0  0  0
 47118  1  0  0  0
 48 56  1  0  0  0
 48 65  1  0  0  0
 48119  1  0  0  0
 49 50  1  0  0  0
 49 53  1  0  0  0
 49 64  1  0  0  0
 49120  1  0  0  0
 50 51  1  0  0  0
 50121  1  0  0  0
 50122  1  0  0  0
 51 52  1  0  0  0
 51123  1  0  0  0
 51124  1  0  0  0
 52125  1  0  0  0
 52126  1  0  0  0
 53 54  1  0  0  0
 54 55  2  0  0  0
 54127  1  0  0  0
 55 57  1  0  0  0
 55128  1  0  0  0
 56 69  2  0  0  0
 57 58  2  0  0  0
 57129  1  0  0  0
 58130  1  0  0  0
 59 60  1  0  0  0
 59 61  1  0  0  0
 59 62  1  0  0  0
 60131  1  0  0  0
 60132  1  0  0  0
 60133  1  0  0  0
 61134  1  0  0  0
 61135  1  0  0  0
 61136  1  0  0  0
 62137  1  0  0  0
 62138  1  0  0  0
 62139  1  0  0  0
 63 65  1  0  0  0
 63140  1  0  0  0
 63141  1  0  0  0
 63142  1  0  0  0
 64143  1  0  0  0
 65144  1  0  0  0
 68 82  1  0  0  0
 71 72  2  0  0  0
 71 73  1  0  0  0
 71145  1  0  0  0
 72 75  1  0  0  0
 72146  1  0  0  0
 73 76  2  0  0  0
 73 78  1  0  0  0
 74 75  2  0  0  0
 74 76  1  0  0  0
 74 79  1  0  0  0
 75 83  1  0  0  0
 76 84  1  0  0  0
 77 80  1  0  0  0
 77 83  2  0  0  0
 77 85  1  0  0  0
 78147  1  0  0  0
 78148  1  0  0  0
 78149  1  0  0  0
 79150  1  0  0  0
 79151  1  0  0  0
 79152  1  0  0  0
 80 81  1  0  0  0
 80153  1  0  0  0
 80154  1  0  0  0
 81 82  1  0  0  0
 81155  1  0  0  0
 81156  1  0  0  0
 82157  1  0  0  0
 82158  1  0  0  0
 84159  1  0  0  0
M  ISO  4   1 100  68 101  82 101  84 100
M  END
> <chiral flag>
0

> <version>
0

> <s_m_source_file>
/data/baiqing/PycharmProjects/Reinvent-master-3.2/result/LINK_invent/BTK/process_docking_weight1_custom_sum_contain_oxygen_bond_distance_aromatic_linkinvent_7_9_3/rearranged_h_0014.sdf

> <i_m_source_file_index>
73

> <r_mmod_Potential_Energy-OPLS-2005>
41.4516830444336

> <r_mmod_Stretch_Energy-OPLS-2005>
66.0397186279297

> <r_mmod_Bend_Energy-OPLS-2005>
167.813201904297

> <r_mmod_Torsional_Energy-OPLS-2005>
262.829620361328

> <r_mmod_Improper_Torsional_Energy-OPLS-2005>
6.75206661224365

> <r_mmod_Van_der_Waal_Energy-OPLS-2005>
154.887557983398

> <r_mmod_Electrostatic_Energy-OPLS-2005>
-443.127136230469

> <r_mmod_Solvation_Energy-OPLS-2005>
-207.20068359375

> <b_mmod_Minimization_Converged-OPLS-2005>
0

> <r_mmod_RMS_Derivative-OPLS-2005>
2.1876847743988

$$$$
73
                    3D
 Structure written by MMmdl.
163171  0  0  1  0            999 V2000
  -30.5829  -14.7554   20.4205 C   0  0  0  0  0  0
  -30.4537  -12.4325   19.4999 C   0  0  0  0  0  0
  -29.5280  -12.3740   18.2602 C   0  0  0  0  0  0
  -28.0371  -12.3073   18.6548 C   0  0  0  0  0  0
  -27.6492  -13.2193   19.8514 C   0  0  2  0  0  0
  -28.6919  -13.1535   20.9878 C   0  0  0  0  0  0
  -25.2557  -13.8188   20.5678 C   0  0  0  0  0  0
  -24.1828  -13.0449   20.9193 C   0  0  0  0  0  0
  -24.6402  -11.6924   20.8774 C   0  0  0  0  0  0
  -23.9070  -10.4304   21.0428 C   0  0  0  0  0  0
  -24.3624   -9.4214   21.9194 C   0  0  0  0  0  0
  -23.6295   -8.2251   22.0755 C   0  0  0  0  0  0
  -22.4280   -8.0288   21.3542 C   0  0  0  0  0  0
  -21.9919   -9.0271   20.4653 C   0  0  0  0  0  0
  -22.7249  -10.2148   20.3071 C   0  0  0  0  0  0
  -21.6850   -6.0738   22.5277 C   0  0  0  0  0  0
  -21.4012   -6.5640   23.8216 C   0  0  0  0  0  0
  -21.3663   -5.6791   24.9174 C   0  0  0  0  0  0
  -21.6054   -4.3054   24.7222 C   0  0  0  0  0  0
  -21.8818   -3.8146   23.4345 C   0  0  0  0  0  0
  -21.9194   -4.6968   22.3400 C   0  0  0  0  0  0
  -22.7845  -13.5228   21.1848 C   0  0  0  0  0  0
  -22.1649   -4.2153   21.0975 F   0  0  0  0  0  0
  -21.5647   -3.4539   25.7735 F   0  0  0  0  0  0
  -29.9920  -13.5102   20.4075 N   0  0  0  0  0  0
  -26.2979  -12.9369   20.3289 N   0  0  0  0  0  0
  -25.9334  -11.6533   20.5809 N   0  0  0  0  0  0
  -22.0486  -12.8230   22.0412 N   0  0  0  0  0  0
  -25.4272  -15.1911   20.4097 N   0  0  0  0  0  0
  -31.7686  -14.8757   20.0969 O   0  0  0  0  0  0
  -21.6640   -6.8886   21.4238 O   0  0  0  0  0  0
  -22.3528  -14.5527   20.6690 O   0  0  0  0  0  0
  -24.6297  -31.8571   23.2002 C   0  0  0  0  0  0
  -25.9131  -32.4762   23.8341 C   0  0  1  0  0  0
  -27.2215  -27.2757   20.1322 C   0  0  0  0  0  0
  -25.5930  -33.8563   24.2267 N   0  0  0  0  0  0
  -23.4254  -30.4806   21.5425 C   0  0  2  0  0  0
  -24.8741  -28.9343   20.1066 C   0  0  0  0  0  0
  -22.7497  -29.4604   22.4905 C   0  0  0  0  0  0
  -18.0293  -28.1384   22.8481 C   0  0  0  0  0  0
  -24.1490  -36.7288   23.2640 C   0  0  0  0  0  0
  -25.9704  -30.7753   21.3786 C   0  0  0  0  0  0
  -26.0439  -29.3995   20.7200 C   0  0  0  0  0  0
  -27.2190  -28.5826   20.7236 C   0  0  0  0  0  0
  -26.0321  -26.8856   19.4722 C   0  0  0  0  0  0
  -24.8738  -27.6853   19.4697 C   0  0  0  0  0  0
  -23.6429  -29.8178   20.1571 C   0  0  0  0  0  0
  -25.4114  -36.3072   24.0329 C   0  0  1  0  0  0
  -20.5897  -28.3692   23.1269 C   0  0  2  0  0  0
  -20.6779  -26.9408   22.5405 C   0  0  0  0  0  0
  -19.5751  -26.6378   21.5212 C   0  0  0  0  0  0
  -18.1935  -26.7926   22.1626 C   0  0  0  0  0  0
  -19.1547  -28.8856   23.2870 C   0  0  0  0  0  0
  -18.9466  -30.1459   23.8885 C   0  0  0  0  0  0
  -17.6463  -30.6583   24.0562 C   0  0  0  0  0  0
  -25.9052  -34.9443   23.5098 C   0  0  0  0  0  0
  -16.5354  -29.9078   23.6330 C   0  0  0  0  0  0
  -16.7279  -28.6497   23.0348 C   0  0  0  0  0  0
  -26.4504  -31.6577   25.0722 C   0  0  0  0  0  0
  -25.3728  -31.3722   26.1441 C   0  0  0  0  0  0
  -27.0357  -30.2994   24.6203 C   0  0  0  0  0  0
  -27.6052  -32.4323   25.7499 C   0  0  0  0  0  0
  -27.5579  -37.1801   24.8465 C   0  0  0  0  0  0
  -21.4206  -29.3041   22.3658 N   0  0  0  0  0  0
  -26.4290  -37.3768   23.9407 N   0  0  0  0  0  0
  -24.6939  -31.0556   22.0966 N   0  0  0  0  0  0
  -23.4208  -28.8147   23.3000 O   0  0  0  0  0  0
  -28.3125  -26.3786   20.2229 O   0  0  0  0  0  0
  -26.5624  -34.8916   22.4667 O   0  0  0  0  0  0
  -23.5452  -32.1382   23.7309 O   0  0  0  0  0  0
  -29.5322  -19.7111   18.5088 C   0  0  0  0  0  0
  -29.5730  -18.5062   17.7947 C   0  0  0  0  0  0
  -29.5817  -17.2536   18.4674 C   0  0  0  0  0  0
  -29.6208  -18.4753   20.6004 C   0  0  0  0  0  0
  -29.4848  -19.7583   19.9129 C   0  0  0  0  0  0
  -29.7144  -17.1916   19.8975 C   0  0  0  0  0  0
  -28.7458  -22.2434   20.0239 C   0  0  0  0  0  0
  -29.5636  -18.6323   16.2747 C   0  0  0  0  0  0
  -29.6458  -18.4768   22.1193 C   0  0  0  0  0  0
  -27.9270  -15.8717   17.0688 C   0  0  0  0  0  0
  -29.3597  -16.0064   17.6122 C   0  0  0  0  0  0
  -29.0218  -23.7299   20.5459 C   0  0  0  0  0  0
  -28.0695  -24.9143   19.9897 C   0  0  0  0  0  0
  -29.3869  -21.1126   20.5231 N   0  0  0  0  0  0
  -29.7608  -15.8657   20.5943 N   0  0  0  0  0  0
  -27.8868  -22.1230   19.1466 O   0  0  0  0  0  0
  -31.4882  -12.5752   19.1824 H   0  0  0  0  0  0
  -30.4403  -11.4770   20.0272 H   0  0  0  0  0  0
  -29.7761  -11.4844   17.6803 H   0  0  0  0  0  0
  -29.7221  -13.1917   17.5746 H   0  0  0  0  0  0
  -27.8326  -11.2682   18.9142 H   0  0  0  0  0  0
  -27.4081  -12.5254   17.7910 H   0  0  0  0  0  0
  -27.6466  -14.2387   19.4717 H   0  0  0  0  0  0
  -28.7291  -12.1545   21.4248 H   0  0  0  0  0  0
  -28.4247  -13.8319   21.8002 H   0  0  0  0  0  0
  -25.2782   -9.5685   22.4757 H   0  0  0  0  0  0
  -24.0021   -7.4634   22.7459 H   0  0  0  0  0  0
  -21.0859   -8.8790   19.8946 H   0  0  0  0  0  0
  -22.3713  -10.9695   19.6181 H   0  0  0  0  0  0
  -21.1983   -7.6143   23.9719 H   0  0  0  0  0  0
  -21.1491   -6.0515   25.9079 H   0  0  0  0  0  0
  -22.0593   -2.7608   23.2839 H   0  0  0  0  0  0
  -22.4081  -11.9896   22.4828 H   0  0  0  0  0  0
  -21.1107  -13.1272   22.2613 H   0  0  0  0  0  0
  -24.6616  -15.8473   20.5211 H   0  0  0  0  0  0
  -26.2762  -15.6298   20.0797 H   0  0  0  0  0  0
  -26.7196  -32.5425   23.1085 H   0  0  0  0  0  0
  -25.0075  -33.9704   25.0412 H   0  0  0  0  0  0
  -22.7203  -31.3023   21.3991 H   0  0  0  0  0  0
  -23.3750  -35.9620   23.3298 H   0  0  0  0  0  0
  -24.3577  -36.8915   22.2052 H   0  0  0  0  0  0
  -23.7251  -37.6491   23.6666 H   0  0  0  0  0  0
  -26.1090  -31.5378   20.6109 H   0  0  0  0  0  0
  -26.8475  -30.8228   22.0120 H   0  0  0  0  0  0
  -28.1106  -28.9319   21.2251 H   0  0  0  0  0  0
  -25.9623  -25.9368   18.9620 H   0  0  0  0  0  0
  -23.9819  -27.3276   18.9739 H   0  0  0  0  0  0
  -23.7636  -30.5958   19.4023 H   0  0  0  0  0  0
  -22.7625  -29.2494   19.8527 H   0  0  0  0  0  0
  -25.1298  -36.1914   25.0822 H   0  0  0  0  0  0
  -20.9995  -28.3270   24.1390 H   0  0  0  0  0  0
  -20.5675  -26.2306   23.3613 H   0  0  0  0  0  0
  -21.6647  -26.7429   22.1203 H   0  0  0  0  0  0
  -19.6911  -25.6288   21.1247 H   0  0  0  0  0  0
  -19.6690  -27.3189   20.6740 H   0  0  0  0  0  0
  -17.4206  -26.6675   21.4028 H   0  0  0  0  0  0
  -18.0327  -26.0067   22.9019 H   0  0  0  0  0  0
  -19.7941  -30.7280   24.2246 H   0  0  0  0  0  0
  -17.5015  -31.6261   24.5164 H   0  0  0  0  0  0
  -15.5354  -30.2975   23.7657 H   0  0  0  0  0  0
  -15.8682  -28.0817   22.7061 H   0  0  0  0  0  0
  -24.5905  -30.7071   25.7768 H   0  0  0  0  0  0
  -24.8921  -32.2891   26.4857 H   0  0  0  0  0  0
  -25.8045  -30.8904   27.0222 H   0  0  0  0  0  0
  -26.2944  -29.6732   24.1223 H   0  0  0  0  0  0
  -27.4037  -29.7262   25.4723 H   0  0  0  0  0  0
  -27.8820  -30.4269   23.9451 H   0  0  0  0  0  0
  -27.2647  -33.3621   26.2066 H   0  0  0  0  0  0
  -28.3866  -32.6885   25.0333 H   0  0  0  0  0  0
  -28.0712  -31.8456   26.5425 H   0  0  0  0  0  0
  -28.2593  -38.0100   24.7506 H   0  0  0  0  0  0
  -28.1081  -36.2632   24.6297 H   0  0  0  0  0  0
  -27.2299  -37.1453   25.8869 H   0  0  0  0  0  0
  -20.9387  -29.8772   21.6875 H   0  0  0  0  0  0
  -26.0169  -38.2843   24.1399 H   0  0  0  0  0  0
  -29.5107  -20.6292   17.9396 H   0  0  0  0  0  0
  -30.0919  -17.8274   15.7675 H   0  0  0  0  0  0
  -30.0538  -19.5554   15.9645 H   0  0  0  0  0  0
  -28.5412  -18.6737   15.9006 H   0  0  0  0  0  0
  -30.6721  -18.5427   22.4794 H   0  0  0  0  0  0
  -29.1971  -17.5726   22.5283 H   0  0  0  0  0  0
  -29.0859  -19.3194   22.5236 H   0  0  0  0  0  0
  -27.8107  -14.9313   16.5298 H   0  0  0  0  0  0
  -27.6622  -16.6694   16.3799 H   0  0  0  0  0  0
  -27.1917  -15.8808   17.8723 H   0  0  0  0  0  0
  -29.5372  -15.1224   18.1854 H   0  0  0  0  0  0
  -30.0928  -15.9512   16.8095 H   0  0  0  0  0  0
  -30.0532  -23.9674   20.2878 H   0  0  0  0  0  0
  -28.9798  -23.7207   21.6352 H   0  0  0  0  0  0
  -27.0831  -24.6727   20.3879 H   0  0  0  0  0  0
  -27.9950  -24.7931   18.9084 H   0  0  0  0  0  0
  -29.9226  -21.2523   21.3693 H   0  0  0  0  0  0
  -28.9012  -15.6349   21.0681 H   0  0  0  0  0  0
  1 25  1  0  0  0
  1 30  2  0  0  0
  1 85  1  0  0  0
  2  3  1  0  0  0
  2 25  1  0  0  0
  2 87  1  0  0  0
  2 88  1  0  0  0
  3  4  1  0  0  0
  3 89  1  0  0  0
  3 90  1  0  0  0
  4  5  1  0  0  0
  4 91  1  0  0  0
  4 92  1  0  0  0
  5  6  1  0  0  0
  5 26  1  0  0  0
  5 93  1  0  0  0
  6 25  1  0  0  0
  6 94  1  0  0  0
  6 95  1  0  0  0
  7  8  2  0  0  0
  7 26  1  0  0  0
  7 29  1  0  0  0
  8  9  1  0  0  0
  8 22  1  0  0  0
  9 10  1  0  0  0
  9 27  2  0  0  0
 10 11  2  0  0  0
 10 15  1  0  0  0
 11 12  1  0  0  0
 11 96  1  0  0  0
 12 13  2  0  0  0
 12 97  1  0  0  0
 13 14  1  0  0  0
 13 31  1  0  0  0
 14 15  2  0  0  0
 14 98  1  0  0  0
 15 99  1  0  0  0
 16 17  2  0  0  0
 16 21  1  0  0  0
 16 31  1  0  0  0
 17 18  1  0  0  0
 17100  1  0  0  0
 18 19  2  0  0  0
 18101  1  0  0  0
 19 20  1  0  0  0
 19 24  1  0  0  0
 20 21  2  0  0  0
 20102  1  0  0  0
 21 23  1  0  0  0
 22 28  1  0  0  0
 22 32  2  0  0  0
 26 27  1  0  0  0
 28103  1  0  0  0
 28104  1  0  0  0
 29105  1  0  0  0
 29106  1  0  0  0
 33 34  1  0  0  0
 33 66  1  0  0  0
 33 70  2  0  0  0
 34 36  1  0  0  0
 34 59  1  0  0  0
 34107  1  0  0  0
 35 44  2  0  0  0
 35 45  1  0  0  0
 35 68  1  0  0  0
 36 56  1  0  0  0
 36108  1  0  0  0
 37 39  1  0  0  0
 37 47  1  0  0  0
 37 66  1  0  0  0
 37109  1  0  0  0
 38 43  2  0  0  0
 38 46  1  0  0  0
 38 47  1  0  0  0
 39 64  1  0  0  0
 39 67  2  0  0  0
 40 52  1  0  0  0
 40 53  2  0  0  0
 40 58  1  0  0  0
 41110  1  0  0  0
 41111  1  0  0  0
 41112  1  0  0  0
 41 48  1  0  0  0
 42 43  1  0  0  0
 42 66  1  0  0  0
 42113  1  0  0  0
 42114  1  0  0  0
 43 44  1  0  0  0
 44115  1  0  0  0
 45 46  2  0  0  0
 45116  1  0  0  0
 46117  1  0  0  0
 47118  1  0  0  0
 47119  1  0  0  0
 48 56  1  0  0  0
 48 65  1  0  0  0
 48120  1  0  0  0
 49 50  1  0  0  0
 49 53  1  0  0  0
 49 64  1  0  0  0
 49121  1  0  0  0
 50 51  1  0  0  0
 50122  1  0  0  0
 50123  1  0  0  0
 51 52  1  0  0  0
 51124  1  0  0  0
 51125  1  0  0  0
 52126  1  0  0  0
 52127  1  0  0  0
 53 54  1  0  0  0
 54 55  2  0  0  0
 54128  1  0  0  0
 55 57  1  0  0  0
 55129  1  0  0  0
 56 69  2  0  0  0
 57 58  2  0  0  0
 57130  1  0  0  0
 58131  1  0  0  0
 59 60  1  0  0  0
 59 61  1  0  0  0
 59 62  1  0  0  0
 60132  1  0  0  0
 60133  1  0  0  0
 60134  1  0  0  0
 61135  1  0  0  0
 61136  1  0  0  0
 61137  1  0  0  0
 62138  1  0  0  0
 62139  1  0  0  0
 62140  1  0  0  0
 63 65  1  0  0  0
 63141  1  0  0  0
 63142  1  0  0  0
 63143  1  0  0  0
 64144  1  0  0  0
 65145  1  0  0  0
 68 83  1  0  0  0
 71 72  2  0  0  0
 71 75  1  0  0  0
 71146  1  0  0  0
 72 73  1  0  0  0
 72 78  1  0  0  0
 73 76  2  0  0  0
 73 81  1  0  0  0
 74 75  2  0  0  0
 74 76  1  0  0  0
 74 79  1  0  0  0
 75 84  1  0  0  0
 76 85  1  0  0  0
 77 82  1  0  0  0
 77 84  1  0  0  0
 77 86  2  0  0  0
 78147  1  0  0  0
 78148  1  0  0  0
 78149  1  0  0  0
 79150  1  0  0  0
 79151  1  0  0  0
 79152  1  0  0  0
 80 81  1  0  0  0
 80153  1  0  0  0
 80154  1  0  0  0
 80155  1  0  0  0
 81156  1  0  0  0
 81157  1  0  0  0
 82 83  1  0  0  0
 82158  1  0  0  0
 82159  1  0  0  0
 83160  1  0  0  0
 83161  1  0  0  0
 84162  1  0  0  0
 85163  1  0  0  0
M  ISO  4   1 100  68 101  83 101  85 100
M  END
> <chiral flag>
0

> <version>
0

> <s_m_source_file>
/data/baiqing/PycharmProjects/Reinvent-master-3.2/result/LINK_invent/BTK/process_docking_weight1_custom_sum_contain_oxygen_bond_distance_aromatic_linkinvent_7_9_3/rearranged_h_0014.sdf

> <i_m_source_file_index>
74

> <r_mmod_Potential_Energy-OPLS-2005>
160.100296020508

> <r_mmod_Stretch_Energy-OPLS-2005>
130.794464111328

> <r_mmod_Bend_Energy-OPLS-2005>
160.000549316406

> <r_mmod_Torsional_Energy-OPLS-2005>
275.225982666016

> <r_mmod_Improper_Torsional_Energy-OPLS-2005>
6.90195655822754

> <r_mmod_Van_der_Waal_Energy-OPLS-2005>
157.769165039062

> <r_mmod_Electrostatic_Energy-OPLS-2005>
-431.261749267578

> <r_mmod_Solvation_Energy-OPLS-2005>
-229.337097167969

> <b_mmod_Minimization_Converged-OPLS-2005>
0

> <r_mmod_RMS_Derivative-OPLS-2005>
1.23001217842102

$$$$
74
                    3D
 Structure written by MMmdl.
164172  0  0  1  0            999 V2000
  -30.6002  -14.7073   20.3790 C   0  0  0  0  0  0
  -30.4386  -12.3981   19.4679 C   0  0  0  0  0  0
  -29.5055  -12.3646   18.2351 C   0  0  0  0  0  0
  -28.0215  -12.2885   18.6481 C   0  0  0  0  0  0
  -27.6400  -13.2109   19.8403 C   0  0  2  0  0  0
  -28.6907  -13.1588   20.9685 C   0  0  0  0  0  0
  -25.2552  -13.8171   20.5708 C   0  0  0  0  0  0
  -24.1817  -13.0449   20.9193 C   0  0  0  0  0  0
  -24.6367  -11.6910   20.8777 C   0  0  0  0  0  0
  -23.9033  -10.4305   21.0443 C   0  0  0  0  0  0
  -24.3592   -9.4221   21.9205 C   0  0  0  0  0  0
  -23.6272   -8.2256   22.0771 C   0  0  0  0  0  0
  -22.4258   -8.0294   21.3554 C   0  0  0  0  0  0
  -21.9895   -9.0270   20.4659 C   0  0  0  0  0  0
  -22.7224  -10.2146   20.3075 C   0  0  0  0  0  0
  -21.6850   -6.0740   22.5279 C   0  0  0  0  0  0
  -21.4009   -6.5635   23.8216 C   0  0  0  0  0  0
  -21.3650   -5.6786   24.9172 C   0  0  0  0  0  0
  -21.6045   -4.3052   24.7225 C   0  0  0  0  0  0
  -21.8823   -3.8148   23.4346 C   0  0  0  0  0  0
  -21.9194   -4.6966   22.3404 C   0  0  0  0  0  0
  -22.7847  -13.5247   21.1849 C   0  0  0  0  0  0
  -22.1660   -4.2156   21.0982 F   0  0  0  0  0  0
  -21.5626   -3.4535   25.7735 F   0  0  0  0  0  0
  -29.9834  -13.4822   20.3595 N   0  0  0  0  0  0
  -26.2944  -12.9321   20.3298 N   0  0  0  0  0  0
  -25.9293  -11.6489   20.5820 N   0  0  0  0  0  0
  -22.0476  -12.8260   22.0399 N   0  0  0  0  0  0
  -25.4297  -15.1896   20.4147 N   0  0  0  0  0  0
  -31.8306  -14.7816   20.3038 O   0  0  0  0  0  0
  -21.6623   -6.8889   21.4247 O   0  0  0  0  0  0
  -22.3545  -14.5561   20.6697 O   0  0  0  0  0  0
  -24.6238  -31.8611   23.2032 C   0  0  0  0  0  0
  -25.9089  -32.4789   23.8359 C   0  0  1  0  0  0
  -27.2231  -27.3195   20.1167 C   0  0  0  0  0  0
  -25.5915  -33.8588   24.2291 N   0  0  0  0  0  0
  -23.4176  -30.4833   21.5454 C   0  0  2  0  0  0
  -24.8631  -28.9348   20.1138 C   0  0  0  0  0  0
  -22.7453  -29.4637   22.4950 C   0  0  0  0  0  0
  -18.0278  -28.1360   22.8495 C   0  0  0  0  0  0
  -24.1478  -36.7284   23.2641 C   0  0  0  0  0  0
  -25.9581  -30.7907   21.3738 C   0  0  0  0  0  0
  -26.0300  -29.4172   20.7168 C   0  0  0  0  0  0
  -27.2100  -28.6191   20.7100 C   0  0  0  0  0  0
  -26.0272  -26.8795   19.5054 C   0  0  0  0  0  0
  -24.8620  -27.6710   19.5037 C   0  0  0  0  0  0
  -23.6320  -29.8167   20.1611 C   0  0  0  0  0  0
  -25.4106  -36.3086   24.0334 C   0  0  1  0  0  0
  -20.5881  -28.3657   23.1291 C   0  0  2  0  0  0
  -20.6773  -26.9385   22.5404 C   0  0  0  0  0  0
  -19.5755  -26.6366   21.5204 C   0  0  0  0  0  0
  -18.1928  -26.7911   22.1612 C   0  0  0  0  0  0
  -19.1532  -28.8824   23.2890 C   0  0  0  0  0  0
  -18.9458  -30.1432   23.8895 C   0  0  0  0  0  0
  -17.6460  -30.6574   24.0552 C   0  0  0  0  0  0
  -25.9047  -34.9455   23.5114 C   0  0  0  0  0  0
  -16.5348  -29.9073   23.6332 C   0  0  0  0  0  0
  -16.7266  -28.6484   23.0371 C   0  0  0  0  0  0
  -26.4480  -31.6590   25.0718 C   0  0  0  0  0  0
  -25.3720  -31.3693   26.1451 C   0  0  0  0  0  0
  -27.0339  -30.3024   24.6162 C   0  0  0  0  0  0
  -27.6052  -32.4320   25.7477 C   0  0  0  0  0  0
  -27.5581  -37.1793   24.8470 C   0  0  0  0  0  0
  -21.4170  -29.3025   22.3680 N   0  0  0  0  0  0
  -26.4285  -37.3778   23.9424 N   0  0  0  0  0  0
  -24.6852  -31.0624   22.0978 N   0  0  0  0  0  0
  -23.4174  -28.8198   23.3045 O   0  0  0  0  0  0
  -28.3762  -26.5228   20.1700 O   0  0  0  0  0  0
  -26.5613  -34.8914   22.4678 O   0  0  0  0  0  0
  -23.5406  -32.1426   23.7353 O   0  0  0  0  0  0
  -30.1901  -17.8235   21.2752 C   0  0  0  0  0  0
  -28.4798  -17.7996   19.5999 C   0  0  0  0  0  0
  -29.8999  -19.2093   21.5215 C   0  0  0  0  0  0
  -28.1833  -19.1744   19.8243 C   0  0  0  0  0  0
  -29.5070  -17.0808   20.2769 C   0  0  0  0  0  0
  -28.9071  -19.9377   20.7857 C   0  0  0  0  0  0
  -30.6966  -19.9228   22.6015 C   0  0  0  0  0  0
  -27.0634  -19.7830   18.9954 C   0  0  0  0  0  0
  -29.9140  -15.6877   18.3196 C   0  0  0  0  0  0
  -27.5433  -21.3694   22.1305 C   0  0  0  0  0  0
  -28.4103  -23.9209   20.7019 C   0  0  0  0  0  0
  -28.6072  -22.4416   20.1227 C   0  0  0  0  0  0
  -28.4409  -25.1316   19.6703 C   0  0  0  0  0  0
  -29.8615  -15.7298   19.7956 N   0  0  0  0  0  0
  -28.5911  -21.3098   21.1126 N   0  0  0  0  0  0
  -31.4731  -12.5369   19.1491 H   0  0  0  0  0  0
  -30.4079  -11.4434   19.9958 H   0  0  0  0  0  0
  -29.7527  -11.4958   17.6247 H   0  0  0  0  0  0
  -29.6761  -13.2082   17.5751 H   0  0  0  0  0  0
  -27.8303  -11.2493   18.9181 H   0  0  0  0  0  0
  -27.3809  -12.4941   17.7899 H   0  0  0  0  0  0
  -27.6231  -14.2266   19.4493 H   0  0  0  0  0  0
  -28.7198  -12.1738   21.4367 H   0  0  0  0  0  0
  -28.4448  -13.8758   21.7537 H   0  0  0  0  0  0
  -25.2744   -9.5696   22.4769 H   0  0  0  0  0  0
  -23.9984   -7.4644   22.7491 H   0  0  0  0  0  0
  -21.0831   -8.8798   19.8953 H   0  0  0  0  0  0
  -22.3701  -10.9684   19.6182 H   0  0  0  0  0  0
  -21.1986   -7.6137   23.9722 H   0  0  0  0  0  0
  -21.1460   -6.0510   25.9074 H   0  0  0  0  0  0
  -22.0603   -2.7610   23.2842 H   0  0  0  0  0  0
  -22.4041  -11.9891   22.4770 H   0  0  0  0  0  0
  -21.1108  -13.1345   22.2592 H   0  0  0  0  0  0
  -24.6695  -15.8479   20.5410 H   0  0  0  0  0  0
  -26.2982  -15.6332   20.1467 H   0  0  0  0  0  0
  -26.7156  -32.5444   23.1108 H   0  0  0  0  0  0
  -25.0089  -33.9747   25.0454 H   0  0  0  0  0  0
  -22.7105  -31.3026   21.4003 H   0  0  0  0  0  0
  -23.3752  -35.9601   23.3303 H   0  0  0  0  0  0
  -24.3577  -36.8913   22.2057 H   0  0  0  0  0  0
  -23.7221  -37.6477   23.6672 H   0  0  0  0  0  0
  -26.0890  -31.5535   20.6049 H   0  0  0  0  0  0
  -26.8387  -30.8415   22.0036 H   0  0  0  0  0  0
  -28.1073  -28.9853   21.1875 H   0  0  0  0  0  0
  -25.9457  -25.9117   19.0390 H   0  0  0  0  0  0
  -23.9622  -27.2935   19.0370 H   0  0  0  0  0  0
  -23.7530  -30.5924   19.4037 H   0  0  0  0  0  0
  -22.7515  -29.2465   19.8593 H   0  0  0  0  0  0
  -25.1284  -36.1939   25.0824 H   0  0  0  0  0  0
  -20.9966  -28.3221   24.1422 H   0  0  0  0  0  0
  -20.5672  -26.2259   23.3595 H   0  0  0  0  0  0
  -21.6645  -26.7431   22.1202 H   0  0  0  0  0  0
  -19.6923  -25.6275   21.1248 H   0  0  0  0  0  0
  -19.6705  -27.3158   20.6720 H   0  0  0  0  0  0
  -17.4206  -26.6654   21.4009 H   0  0  0  0  0  0
  -18.0330  -26.0035   22.8982 H   0  0  0  0  0  0
  -19.7934  -30.7240   24.2274 H   0  0  0  0  0  0
  -17.5023  -31.6271   24.5124 H   0  0  0  0  0  0
  -15.5356  -30.2978   23.7666 H   0  0  0  0  0  0
  -15.8660  -28.0803   22.7107 H   0  0  0  0  0  0
  -24.5915  -30.7023   25.7781 H   0  0  0  0  0  0
  -24.8866  -32.2823   26.4890 H   0  0  0  0  0  0
  -25.8047  -30.8874   27.0222 H   0  0  0  0  0  0
  -26.2905  -29.6748   24.1236 H   0  0  0  0  0  0
  -27.4116  -29.7309   25.4649 H   0  0  0  0  0  0
  -27.8729  -30.4340   23.9331 H   0  0  0  0  0  0
  -27.2700  -33.3638   26.2036 H   0  0  0  0  0  0
  -28.3855  -32.6852   25.0292 H   0  0  0  0  0  0
  -28.0721  -31.8453   26.5400 H   0  0  0  0  0  0
  -28.2590  -38.0099   24.7550 H   0  0  0  0  0  0
  -28.1093  -36.2638   24.6262 H   0  0  0  0  0  0
  -27.2311  -37.1404   25.8875 H   0  0  0  0  0  0
  -20.9330  -29.8729   21.6885 H   0  0  0  0  0  0
  -26.0170  -38.2850   24.1432 H   0  0  0  0  0  0
  -30.9873  -17.3453   21.8265 H   0  0  0  0  0  0
  -27.9101  -17.2904   18.8355 H   0  0  0  0  0  0
  -31.5281  -19.3151   22.9585 H   0  0  0  0  0  0
  -30.0553  -20.1561   23.4515 H   0  0  0  0  0  0
  -31.1061  -20.8576   22.2192 H   0  0  0  0  0  0
  -26.3374  -19.0277   18.6957 H   0  0  0  0  0  0
  -27.4729  -20.2307   18.0901 H   0  0  0  0  0  0
  -26.5127  -20.5433   19.5464 H   0  0  0  0  0  0
  -28.9793  -15.3035   17.9124 H   0  0  0  0  0  0
  -30.7360  -15.0850   17.9300 H   0  0  0  0  0  0
  -30.0769  -16.6729   17.8821 H   0  0  0  0  0  0
  -27.3877  -20.4146   22.6343 H   0  0  0  0  0  0
  -26.5898  -21.6676   21.6916 H   0  0  0  0  0  0
  -27.8023  -22.1025   22.8954 H   0  0  0  0  0  0
  -29.1811  -24.0971   21.4524 H   0  0  0  0  0  0
  -27.4615  -23.9738   21.2352 H   0  0  0  0  0  0
  -29.5558  -22.4003   19.5858 H   0  0  0  0  0  0
  -27.8385  -22.2820   19.3686 H   0  0  0  0  0  0
  -27.7381  -24.9441   18.8627 H   0  0  0  0  0  0
  -29.4068  -25.0722   19.1698 H   0  0  0  0  0  0
  1 25  1  0  0  0
  1 30  2  0  0  0
  1 84  1  0  0  0
  2  3  1  0  0  0
  2 25  1  0  0  0
  2 86  1  0  0  0
  2 87  1  0  0  0
  3  4  1  0  0  0
  3 88  1  0  0  0
  3 89  1  0  0  0
  4  5  1  0  0  0
  4 90  1  0  0  0
  4 91  1  0  0  0
  5  6  1  0  0  0
  5 26  1  0  0  0
  5 92  1  0  0  0
  6 25  1  0  0  0
  6 93  1  0  0  0
  6 94  1  0  0  0
  7  8  2  0  0  0
  7 26  1  0  0  0
  7 29  1  0  0  0
  8  9  1  0  0  0
  8 22  1  0  0  0
  9 10  1  0  0  0
  9 27  2  0  0  0
 10 11  2  0  0  0
 10 15  1  0  0  0
 11 12  1  0  0  0
 11 95  1  0  0  0
 12 13  2  0  0  0
 12 96  1  0  0  0
 13 14  1  0  0  0
 13 31  1  0  0  0
 14 15  2  0  0  0
 14 97  1  0  0  0
 15 98  1  0  0  0
 16 17  2  0  0  0
 16 21  1  0  0  0
 16 31  1  0  0  0
 17 18  1  0  0  0
 17 99  1  0  0  0
 18 19  2  0  0  0
 18100  1  0  0  0
 19 20  1  0  0  0
 19 24  1  0  0  0
 20 21  2  0  0  0
 20101  1  0  0  0
 21 23  1  0  0  0
 22 28  1  0  0  0
 22 32  2  0  0  0
 26 27  1  0  0  0
 28102  1  0  0  0
 28103  1  0  0  0
 29104  1  0  0  0
 29105  1  0  0  0
 33 34  1  0  0  0
 33 66  1  0  0  0
 33 70  2  0  0  0
 34 36  1  0  0  0
 34 59  1  0  0  0
 34106  1  0  0  0
 35 44  2  0  0  0
 35 45  1  0  0  0
 35 68  1  0  0  0
 36 56  1  0  0  0
 36107  1  0  0  0
 37 39  1  0  0  0
 37 47  1  0  0  0
 37 66  1  0  0  0
 37108  1  0  0  0
 38 43  2  0  0  0
 38 46  1  0  0  0
 38 47  1  0  0  0
 39 64  1  0  0  0
 39 67  2  0  0  0
 40 52  1  0  0  0
 40 53  2  0  0  0
 40 58  1  0  0  0
 41109  1  0  0  0
 41110  1  0  0  0
 41111  1  0  0  0
 41 48  1  0  0  0
 42 43  1  0  0  0
 42 66  1  0  0  0
 42112  1  0  0  0
 42113  1  0  0  0
 43 44  1  0  0  0
 44114  1  0  0  0
 45 46  2  0  0  0
 45115  1  0  0  0
 46116  1  0  0  0
 47117  1  0  0  0
 47118  1  0  0  0
 48 56  1  0  0  0
 48 65  1  0  0  0
 48119  1  0  0  0
 49 50  1  0  0  0
 49 53  1  0  0  0
 49 64  1  0  0  0
 49120  1  0  0  0
 50 51  1  0  0  0
 50121  1  0  0  0
 50122  1  0  0  0
 51 52  1  0  0  0
 51123  1  0  0  0
 51124  1  0  0  0
 52125  1  0  0  0
 52126  1  0  0  0
 53 54  1  0  0  0
 54 55  2  0  0  0
 54127  1  0  0  0
 55 57  1  0  0  0
 55128  1  0  0  0
 56 69  2  0  0  0
 57 58  2  0  0  0
 57129  1  0  0  0
 58130  1  0  0  0
 59 60  1  0  0  0
 59 61  1  0  0  0
 59 62  1  0  0  0
 60131  1  0  0  0
 60132  1  0  0  0
 60133  1  0  0  0
 61134  1  0  0  0
 61135  1  0  0  0
 61136  1  0  0  0
 62137  1  0  0  0
 62138  1  0  0  0
 62139  1  0  0  0
 63 65  1  0  0  0
 63140  1  0  0  0
 63141  1  0  0  0
 63142  1  0  0  0
 64143  1  0  0  0
 65144  1  0  0  0
 68 83  1  0  0  0
 71 73  2  0  0  0
 71 75  1  0  0  0
 71145  1  0  0  0
 72 74  1  0  0  0
 72 75  2  0  0  0
 72146  1  0  0  0
 73 76  1  0  0  0
 73 77  1  0  0  0
 74 76  2  0  0  0
 74 78  1  0  0  0
 75 84  1  0  0  0
 76 85  1  0  0  0
 77147  1  0  0  0
 77148  1  0  0  0
 77149  1  0  0  0
 78150  1  0  0  0
 78151  1  0  0  0
 78152  1  0  0  0
 79 84  1  0  0  0
 79153  1  0  0  0
 79154  1  0  0  0
 79155  1  0  0  0
 80 85  1  0  0  0
 80156  1  0  0  0
 80157  1  0  0  0
 80158  1  0  0  0
 81 82  1  0  0  0
 81 83  1  0  0  0
 81159  1  0  0  0
 81160  1  0  0  0
 82 85  1  0  0  0
 82161  1  0  0  0
 82162  1  0  0  0
 83163  1  0  0  0
 83164  1  0  0  0
M  ISO  4   1 100  68 101  83 101  84 100
M  END
> <chiral flag>
0

> <version>
0

> <s_m_source_file>
/data/baiqing/PycharmProjects/Reinvent-master-3.2/result/LINK_invent/BTK/process_docking_weight1_custom_sum_contain_oxygen_bond_distance_aromatic_linkinvent_7_9_3/rearranged_h_0014.sdf

> <i_m_source_file_index>
75

> <r_mmod_Potential_Energy-OPLS-2005>
305.280395507812

> <r_mmod_Stretch_Energy-OPLS-2005>
89.1406021118164

> <r_mmod_Bend_Energy-OPLS-2005>
169.553909301758

> <r_mmod_Torsional_Energy-OPLS-2005>
323.939575195312

> <r_mmod_Improper_Torsional_Energy-OPLS-2005>
31.0668125152588

> <r_mmod_Van_der_Waal_Energy-OPLS-2005>
154.593948364258

> <r_mmod_Electrostatic_Energy-OPLS-2005>
-340.485778808594

> <r_mmod_Solvation_Energy-OPLS-2005>
-196.22868347168

> <b_mmod_Minimization_Converged-OPLS-2005>
0

> <r_mmod_RMS_Derivative-OPLS-2005>
2.33312702178955

$$$$
75
                    3D
 Structure written by MMmdl.
153161  0  0  1  0            999 V2000
  -30.6129  -14.7806   20.4397 C   0  0  0  0  0  0
  -30.4260  -12.4754   19.4775 C   0  0  0  0  0  0
  -29.5095  -12.5097   18.2356 C   0  0  0  0  0  0
  -28.0363  -12.3311   18.6496 C   0  0  0  0  0  0
  -27.6355  -13.2395   19.8432 C   0  0  2  0  0  0
  -28.6808  -13.2019   20.9791 C   0  0  0  0  0  0
  -25.2478  -13.8209   20.5695 C   0  0  0  0  0  0
  -24.1782  -13.0442   20.9208 C   0  0  0  0  0  0
  -24.6385  -11.6923   20.8736 C   0  0  0  0  0  0
  -23.9063  -10.4295   21.0400 C   0  0  0  0  0  0
  -24.3612   -9.4210   21.9178 C   0  0  0  0  0  0
  -23.6288   -8.2245   22.0750 C   0  0  0  0  0  0
  -22.4268   -8.0282   21.3543 C   0  0  0  0  0  0
  -21.9906   -9.0257   20.4645 C   0  0  0  0  0  0
  -22.7236  -10.2137   20.3050 C   0  0  0  0  0  0
  -21.6859   -6.0729   22.5277 C   0  0  0  0  0  0
  -21.4020   -6.5633   23.8209 C   0  0  0  0  0  0
  -21.3661   -5.6786   24.9173 C   0  0  0  0  0  0
  -21.6042   -4.3047   24.7225 C   0  0  0  0  0  0
  -21.8821   -3.8142   23.4343 C   0  0  0  0  0  0
  -21.9194   -4.6957   22.3400 C   0  0  0  0  0  0
  -22.7801  -13.5220   21.1868 C   0  0  0  0  0  0
  -22.1661   -4.2141   21.0976 F   0  0  0  0  0  0
  -21.5629   -3.4532   25.7738 F   0  0  0  0  0  0
  -29.9754  -13.5573   20.3870 N   0  0  0  0  0  0
  -26.2907  -12.9435   20.3253 N   0  0  0  0  0  0
  -25.9317  -11.6569   20.5725 N   0  0  0  0  0  0
  -22.0449  -12.8212   22.0428 N   0  0  0  0  0  0
  -25.4131  -15.1937   20.4126 N   0  0  0  0  0  0
  -31.8103  -14.8247   20.1454 O   0  0  0  0  0  0
  -21.6643   -6.8873   21.4238 O   0  0  0  0  0  0
  -22.3475  -14.5520   20.6710 O   0  0  0  0  0  0
  -24.6346  -31.8527   23.1971 C   0  0  0  0  0  0
  -25.9158  -32.4743   23.8325 C   0  0  1  0  0  0
  -27.2108  -27.2275   20.1334 C   0  0  0  0  0  0
  -25.5941  -33.8546   24.2250 N   0  0  0  0  0  0
  -23.4325  -30.4750   21.5417 C   0  0  2  0  0  0
  -24.8775  -28.9151   20.1135 C   0  0  0  0  0  0
  -22.7517  -29.4588   22.4910 C   0  0  0  0  0  0
  -18.0295  -28.1385   22.8481 C   0  0  0  0  0  0
  -24.1490  -36.7272   23.2640 C   0  0  0  0  0  0
  -25.9814  -30.7539   21.3827 C   0  0  0  0  0  0
  -26.0515  -29.3730   20.7250 C   0  0  0  0  0  0
  -27.2222  -28.5433   20.7190 C   0  0  0  0  0  0
  -26.0163  -26.8486   19.4847 C   0  0  0  0  0  0
  -24.8670  -27.6629   19.4812 C   0  0  0  0  0  0
  -23.6523  -29.8082   20.1586 C   0  0  0  0  0  0
  -25.4118  -36.3062   24.0325 C   0  0  1  0  0  0
  -20.5900  -28.3699   23.1263 C   0  0  2  0  0  0
  -20.6782  -26.9415   22.5405 C   0  0  0  0  0  0
  -19.5759  -26.6380   21.5208 C   0  0  0  0  0  0
  -18.1939  -26.7927   22.1621 C   0  0  0  0  0  0
  -19.1548  -28.8861   23.2864 C   0  0  0  0  0  0
  -18.9466  -30.1460   23.8886 C   0  0  0  0  0  0
  -17.6463  -30.6588   24.0555 C   0  0  0  0  0  0
  -25.9058  -34.9433   23.5091 C   0  0  0  0  0  0
  -16.5356  -29.9079   23.6330 C   0  0  0  0  0  0
  -16.7280  -28.6497   23.0352 C   0  0  0  0  0  0
  -26.4508  -31.6578   25.0730 C   0  0  0  0  0  0
  -25.3717  -31.3741   26.1442 C   0  0  0  0  0  0
  -27.0353  -30.2987   24.6246 C   0  0  0  0  0  0
  -27.6062  -32.4320   25.7506 C   0  0  0  0  0  0
  -27.5578  -37.1795   24.8465 C   0  0  0  0  0  0
  -21.4223  -29.3042   22.3653 N   0  0  0  0  0  0
  -26.4290  -37.3764   23.9406 N   0  0  0  0  0  0
  -24.7022  -31.0460   22.0963 N   0  0  0  0  0  0
  -23.4204  -28.8123   23.3017 O   0  0  0  0  0  0
  -28.3044  -26.3238   20.1567 O   0  0  0  0  0  0
  -26.5629  -34.8909   22.4661 O   0  0  0  0  0  0
  -23.5488  -32.1361   23.7244 O   0  0  0  0  0  0
  -31.6062  -17.7474   20.8134 C   0  0  0  0  0  0
  -29.7620  -19.9584   20.5078 C   0  0  0  0  0  0
  -30.2519  -17.4043   20.5968 C   0  0  0  0  0  0
  -32.0379  -19.0839   20.8804 C   0  0  0  0  0  0
  -31.1431  -20.1619   20.7440 C   0  0  0  0  0  0
  -29.3399  -18.5478   20.4483 C   0  0  0  0  0  0
  -29.1586  -23.8121   19.7016 C   0  0  0  0  0  0
  -30.0903  -24.6049   18.8075 C   0  0  0  0  0  0
  -28.8264  -21.2775   20.4173 C   0  0  0  0  0  0
  -28.0961  -24.8251   20.3576 C   0  0  0  0  0  0
  -29.4116  -22.5040   19.7290 N   0  0  0  0  0  0
  -29.8581  -15.9512   20.5832 N   0  0  0  0  0  0
  -33.3499  -19.3382   21.1019 F   0  0  0  0  0  0
  -31.6445  -21.4140   20.8741 F   0  0  0  0  0  0
  -27.6668  -18.1936   20.2035 Cl  0  0  0  0  0  0
  -31.4690  -12.5882   19.1767 H   0  0  0  0  0  0
  -30.3640  -11.5071   19.9764 H   0  0  0  0  0  0
  -29.7984  -11.7302   17.5299 H   0  0  0  0  0  0
  -29.6326  -13.4588   17.7113 H   0  0  0  0  0  0
  -27.8970  -11.2838   18.9198 H   0  0  0  0  0  0
  -27.3793  -12.5141   17.7983 H   0  0  0  0  0  0
  -27.6201  -14.2553   19.4487 H   0  0  0  0  0  0
  -28.7247  -12.2126   21.4368 H   0  0  0  0  0  0
  -28.4120  -13.8983   21.7753 H   0  0  0  0  0  0
  -25.2764   -9.5694   22.4743 H   0  0  0  0  0  0
  -24.0006   -7.4638   22.7470 H   0  0  0  0  0  0
  -21.0838   -8.8772   19.8953 H   0  0  0  0  0  0
  -22.3693  -10.9667   19.6151 H   0  0  0  0  0  0
  -21.2019   -7.6141   23.9710 H   0  0  0  0  0  0
  -21.1480   -6.0517   25.9074 H   0  0  0  0  0  0
  -22.0598   -2.7604   23.2847 H   0  0  0  0  0  0
  -22.4074  -11.9889   22.4838 H   0  0  0  0  0  0
  -21.1061  -13.1228   22.2626 H   0  0  0  0  0  0
  -24.6413  -15.8406   20.5310 H   0  0  0  0  0  0
  -26.2562  -15.6468   20.0864 H   0  0  0  0  0  0
  -26.7223  -32.5372   23.1059 H   0  0  0  0  0  0
  -25.0088  -33.9681   25.0397 H   0  0  0  0  0  0
  -22.7303  -31.2982   21.3943 H   0  0  0  0  0  0
  -23.3753  -35.9604   23.3310 H   0  0  0  0  0  0
  -24.3574  -36.8888   22.2052 H   0  0  0  0  0  0
  -23.7248  -37.6478   23.6658 H   0  0  0  0  0  0
  -26.1259  -31.5124   20.6122 H   0  0  0  0  0  0
  -26.8572  -30.8019   22.0182 H   0  0  0  0  0  0
  -28.1233  -28.8894   21.2055 H   0  0  0  0  0  0
  -25.9477  -25.9036   18.9679 H   0  0  0  0  0  0
  -23.9712  -27.3129   18.9866 H   0  0  0  0  0  0
  -23.7834  -30.5836   19.4033 H   0  0  0  0  0  0
  -22.7688  -29.2460   19.8508 H   0  0  0  0  0  0
  -25.1302  -36.1907   25.0818 H   0  0  0  0  0  0
  -20.9987  -28.3277   24.1387 H   0  0  0  0  0  0
  -20.5680  -26.2307   23.3610 H   0  0  0  0  0  0
  -21.6650  -26.7435   22.1202 H   0  0  0  0  0  0
  -19.6919  -25.6286   21.1251 H   0  0  0  0  0  0
  -19.6701  -27.3176   20.6726 H   0  0  0  0  0  0
  -17.4208  -26.6667   21.4026 H   0  0  0  0  0  0
  -18.0344  -26.0075   22.9024 H   0  0  0  0  0  0
  -19.7941  -30.7279   24.2255 H   0  0  0  0  0  0
  -17.5016  -31.6267   24.5155 H   0  0  0  0  0  0
  -15.5355  -30.2973   23.7666 H   0  0  0  0  0  0
  -15.8680  -28.0809   22.7079 H   0  0  0  0  0  0
  -24.5890  -30.7098   25.7763 H   0  0  0  0  0  0
  -24.8906  -32.2911   26.4851 H   0  0  0  0  0  0
  -25.8015  -30.8922   27.0232 H   0  0  0  0  0  0
  -26.2944  -29.6737   24.1249 H   0  0  0  0  0  0
  -27.3989  -29.7257   25.4785 H   0  0  0  0  0  0
  -27.8844  -30.4248   23.9528 H   0  0  0  0  0  0
  -27.2674  -33.3623   26.2076 H   0  0  0  0  0  0
  -28.3875  -32.6875   25.0336 H   0  0  0  0  0  0
  -28.0727  -31.8448   26.5427 H   0  0  0  0  0  0
  -28.2598  -38.0090   24.7501 H   0  0  0  0  0  0
  -28.1072  -36.2618   24.6302 H   0  0  0  0  0  0
  -27.2291  -37.1462   25.8867 H   0  0  0  0  0  0
  -20.9416  -29.8763   21.6851 H   0  0  0  0  0  0
  -26.0166  -38.2839   24.1396 H   0  0  0  0  0  0
  -32.3621  -16.9937   20.9597 H   0  0  0  0  0  0
  -29.5175  -25.1561   18.0613 H   0  0  0  0  0  0
  -30.7913  -23.9561   18.2812 H   0  0  0  0  0  0
  -30.6655  -25.3169   19.3993 H   0  0  0  0  0  0
  -28.5195  -21.5376   21.4313 H   0  0  0  0  0  0
  -27.9094  -20.9945   19.8991 H   0  0  0  0  0  0
  -28.0981  -24.6493   21.4333 H   0  0  0  0  0  0
  -27.1114  -24.5049   20.0253 H   0  0  0  0  0  0
  -28.8655  -15.7908   20.6612 H   0  0  0  0  0  0
  1 25  1  0  0  0
  1 30  2  0  0  0
  1 82  1  0  0  0
  2  3  1  0  0  0
  2 25  1  0  0  0
  2 86  1  0  0  0
  2 87  1  0  0  0
  3  4  1  0  0  0
  3 88  1  0  0  0
  3 89  1  0  0  0
  4  5  1  0  0  0
  4 90  1  0  0  0
  4 91  1  0  0  0
  5  6  1  0  0  0
  5 26  1  0  0  0
  5 92  1  0  0  0
  6 25  1  0  0  0
  6 93  1  0  0  0
  6 94  1  0  0  0
  7  8  2  0  0  0
  7 26  1  0  0  0
  7 29  1  0  0  0
  8  9  1  0  0  0
  8 22  1  0  0  0
  9 10  1  0  0  0
  9 27  2  0  0  0
 10 11  2  0  0  0
 10 15  1  0  0  0
 11 12  1  0  0  0
 11 95  1  0  0  0
 12 13  2  0  0  0
 12 96  1  0  0  0
 13 14  1  0  0  0
 13 31  1  0  0  0
 14 15  2  0  0  0
 14 97  1  0  0  0
 15 98  1  0  0  0
 16 17  2  0  0  0
 16 21  1  0  0  0
 16 31  1  0  0  0
 17 18  1  0  0  0
 17 99  1  0  0  0
 18 19  2  0  0  0
 18100  1  0  0  0
 19 20  1  0  0  0
 19 24  1  0  0  0
 20 21  2  0  0  0
 20101  1  0  0  0
 21 23  1  0  0  0
 22 28  1  0  0  0
 22 32  2  0  0  0
 26 27  1  0  0  0
 28102  1  0  0  0
 28103  1  0  0  0
 29104  1  0  0  0
 29105  1  0  0  0
 33 34  1  0  0  0
 33 66  1  0  0  0
 33 70  2  0  0  0
 34 36  1  0  0  0
 34 59  1  0  0  0
 34106  1  0  0  0
 35 44  2  0  0  0
 35 45  1  0  0  0
 35 68  1  0  0  0
 36 56  1  0  0  0
 36107  1  0  0  0
 37 39  1  0  0  0
 37 47  1  0  0  0
 37 66  1  0  0  0
 37108  1  0  0  0
 38 43  2  0  0  0
 38 46  1  0  0  0
 38 47  1  0  0  0
 39 64  1  0  0  0
 39 67  2  0  0  0
 40 52  1  0  0  0
 40 53  2  0  0  0
 40 58  1  0  0  0
 41109  1  0  0  0
 41110  1  0  0  0
 41111  1  0  0  0
 41 48  1  0  0  0
 42 43  1  0  0  0
 42 66  1  0  0  0
 42112  1  0  0  0
 42113  1  0  0  0
 43 44  1  0  0  0
 44114  1  0  0  0
 45 46  2  0  0  0
 45115  1  0  0  0
 46116  1  0  0  0
 47117  1  0  0  0
 47118  1  0  0  0
 48 56  1  0  0  0
 48 65  1  0  0  0
 48119  1  0  0  0
 49 50  1  0  0  0
 49 53  1  0  0  0
 49 64  1  0  0  0
 49120  1  0  0  0
 50 51  1  0  0  0
 50121  1  0  0  0
 50122  1  0  0  0
 51 52  1  0  0  0
 51123  1  0  0  0
 51124  1  0  0  0
 52125  1  0  0  0
 52126  1  0  0  0
 53 54  1  0  0  0
 54 55  2  0  0  0
 54127  1  0  0  0
 55 57  1  0  0  0
 55128  1  0  0  0
 56 69  2  0  0  0
 57 58  2  0  0  0
 57129  1  0  0  0
 58130  1  0  0  0
 59 60  1  0  0  0
 59 61  1  0  0  0
 59 62  1  0  0  0
 60131  1  0  0  0
 60132  1  0  0  0
 60133  1  0  0  0
 61134  1  0  0  0
 61135  1  0  0  0
 61136  1  0  0  0
 62137  1  0  0  0
 62138  1  0  0  0
 62139  1  0  0  0
 63 65  1  0  0  0
 63140  1  0  0  0
 63141  1  0  0  0
 63142  1  0  0  0
 64143  1  0  0  0
 65144  1  0  0  0
 68 80  1  0  0  0
 71 73  2  0  0  0
 71 74  1  0  0  0
 71145  1  0  0  0
 72 75  1  0  0  0
 72 76  2  0  0  0
 72 79  1  0  0  0
 73 76  1  0  0  0
 73 82  1  0  0  0
 74 75  2  0  0  0
 74 83  1  0  0  0
 75 84  1  0  0  0
 76 85  1  0  0  0
 77 78  1  0  0  0
 77 80  1  0  0  0
 77 81  2  0  0  0
 78146  1  0  0  0
 78147  1  0  0  0
 78148  1  0  0  0
 79 81  1  0  0  0
 79149  1  0  0  0
 79150  1  0  0  0
 80151  1  0  0  0
 80152  1  0  0  0
 82153  1  0  0  0
M  ISO  4   1 100  68 101  80 101  82 100
M  END
> <chiral flag>
0

> <version>
0

> <s_m_source_file>
/data/baiqing/PycharmProjects/Reinvent-master-3.2/result/LINK_invent/BTK/process_docking_weight1_custom_sum_contain_oxygen_bond_distance_aromatic_linkinvent_7_9_3/rearranged_h_0014.sdf

> <i_m_source_file_index>
76

> <r_mmod_Potential_Energy-OPLS-2005>
257.580474853516

> <r_mmod_Stretch_Energy-OPLS-2005>
157.587982177734

> <r_mmod_Bend_Energy-OPLS-2005>
221.380004882812

> <r_mmod_Torsional_Energy-OPLS-2005>
217.308334350586

> <r_mmod_Improper_Torsional_Energy-OPLS-2005>
5.48238277435303

> <r_mmod_Van_der_Waal_Energy-OPLS-2005>
141.234786987305

> <r_mmod_Electrostatic_Energy-OPLS-2005>
-387.584716796875

> <r_mmod_Solvation_Energy-OPLS-2005>
-200.01628112793

> <b_mmod_Minimization_Converged-OPLS-2005>
0

> <r_mmod_RMS_Derivative-OPLS-2005>
0.978830695152283

$$$$
76
                    3D
 Structure written by MMmdl.
170178  0  0  1  0            999 V2000
  -30.4526  -14.8526   20.5109 C   0  0  0  0  0  0
  -30.4673  -12.5191   19.4960 C   0  0  0  0  0  0
  -29.5386  -12.5360   18.2554 C   0  0  0  0  0  0
  -28.0526  -12.3340   18.6493 C   0  0  0  0  0  0
  -27.6445  -13.2104   19.8565 C   0  0  2  0  0  0
  -28.6867  -13.0693   20.9771 C   0  0  0  0  0  0
  -25.2581  -13.8115   20.5819 C   0  0  0  0  0  0
  -24.1833  -13.0451   20.9255 C   0  0  0  0  0  0
  -24.6347  -11.6870   20.8735 C   0  0  0  0  0  0
  -23.9006  -10.4273   21.0382 C   0  0  0  0  0  0
  -24.3583   -9.4178   21.9150 C   0  0  0  0  0  0
  -23.6249   -8.2219   22.0713 C   0  0  0  0  0  0
  -22.4219   -8.0265   21.3508 C   0  0  0  0  0  0
  -21.9868   -9.0246   20.4604 C   0  0  0  0  0  0
  -22.7199  -10.2105   20.3011 C   0  0  0  0  0  0
  -21.6810   -6.0724   22.5282 C   0  0  0  0  0  0
  -21.3975   -6.5621   23.8233 C   0  0  0  0  0  0
  -21.3666   -5.6759   24.9202 C   0  0  0  0  0  0
  -21.6045   -4.3028   24.7250 C   0  0  0  0  0  0
  -21.8828   -3.8137   23.4377 C   0  0  0  0  0  0
  -21.9171   -4.6951   22.3420 C   0  0  0  0  0  0
  -22.7845  -13.5221   21.1992 C   0  0  0  0  0  0
  -22.1621   -4.2159   21.0981 F   0  0  0  0  0  0
  -21.5633   -3.4509   25.7744 F   0  0  0  0  0  0
  -29.9577  -13.5528   20.4317 N   0  0  0  0  0  0
  -26.2957  -12.9261   20.3277 N   0  0  0  0  0  0
  -25.9258  -11.6427   20.5654 N   0  0  0  0  0  0
  -22.0509  -12.8195   22.0530 N   0  0  0  0  0  0
  -25.4397  -15.1843   20.4288 N   0  0  0  0  0  0
  -31.6464  -15.0388   20.2281 O   0  0  0  0  0  0
  -21.6551   -6.8869   21.4233 O   0  0  0  0  0  0
  -22.3557  -14.5586   20.6904 O   0  0  0  0  0  0
  -24.6421  -31.8476   23.1965 C   0  0  0  0  0  0
  -25.9187  -32.4687   23.8290 C   0  0  1  0  0  0
  -27.2140  -27.2171   20.0782 C   0  0  0  0  0  0
  -25.5950  -33.8454   24.2222 N   0  0  0  0  0  0
  -23.4421  -30.4695   21.5423 C   0  0  2  0  0  0
  -24.8750  -28.8911   20.1313 C   0  0  0  0  0  0
  -22.7558  -29.4560   22.4860 C   0  0  0  0  0  0
  -18.0296  -28.1350   22.8395 C   0  0  0  0  0  0
  -24.1515  -36.7291   23.2636 C   0  0  0  0  0  0
  -25.9922  -30.7480   21.3751 C   0  0  0  0  0  0
  -26.0565  -29.3570   20.7197 C   0  0  0  0  0  0
  -27.2332  -28.5344   20.6721 C   0  0  0  0  0  0
  -25.9967  -26.8089   19.5011 C   0  0  0  0  0  0
  -24.8461  -27.6245   19.5234 C   0  0  0  0  0  0
  -23.6636  -29.8015   20.1604 C   0  0  0  0  0  0
  -25.4128  -36.2998   24.0308 C   0  0  1  0  0  0
  -20.5893  -28.3666   23.1187 C   0  0  2  0  0  0
  -20.6806  -26.9358   22.5380 C   0  0  0  0  0  0
  -19.5803  -26.6330   21.5116 C   0  0  0  0  0  0
  -18.1960  -26.7881   22.1497 C   0  0  0  0  0  0
  -19.1553  -28.8819   23.2768 C   0  0  0  0  0  0
  -18.9505  -30.1422   23.8813 C   0  0  0  0  0  0
  -17.6495  -30.6560   24.0513 C   0  0  0  0  0  0
  -25.9062  -34.9336   23.5089 C   0  0  0  0  0  0
  -16.5406  -29.9057   23.6259 C   0  0  0  0  0  0
  -16.7278  -28.6484   23.0262 C   0  0  0  0  0  0
  -26.4494  -31.6573   25.0706 C   0  0  0  0  0  0
  -25.3640  -31.3756   26.1401 C   0  0  0  0  0  0
  -27.0364  -30.2993   24.6213 C   0  0  0  0  0  0
  -27.6048  -32.4395   25.7464 C   0  0  0  0  0  0
  -27.5596  -37.1785   24.8446 C   0  0  0  0  0  0
  -21.4245  -29.3044   22.3624 N   0  0  0  0  0  0
  -26.4279  -37.3745   23.9439 N   0  0  0  0  0  0
  -24.7129  -31.0431   22.0912 N   0  0  0  0  0  0
  -23.4215  -28.8023   23.2919 O   0  0  0  0  0  0
  -28.3260  -26.3534   19.9621 O   0  0  0  0  0  0
  -26.5655  -34.8832   22.4657 O   0  0  0  0  0  0
  -23.5583  -32.1240   23.7253 O   0  0  0  0  0  0
  -29.3234  -19.2661   22.6034 C   0  0  0  0  0  0
  -29.2905  -17.8652   22.3658 C   0  0  0  0  0  0
  -29.3205  -18.4377   19.9745 C   0  0  0  0  0  0
  -29.4907  -17.3805   21.0035 C   0  0  0  0  0  0
  -29.2313  -19.8844   20.2521 C   0  0  0  0  0  0
  -29.2922  -20.2426   21.6012 C   0  0  0  0  0  0
  -29.0349  -18.0165   18.5400 C   0  0  0  0  0  0
  -30.5994  -22.9305   19.4728 C   0  0  0  0  0  0
  -29.8867  -17.2013   24.8173 C   0  0  0  0  0  0
  -28.6253  -15.5757   23.4535 C   0  0  0  0  0  0
  -27.4401  -17.6078   24.1288 C   0  0  0  0  0  0
  -28.0425  -23.4685   19.9419 C   0  0  0  0  0  0
  -28.3341  -24.9709   20.5620 C   0  0  0  0  0  0
  -29.1455  -22.4716   19.2796 C   0  0  1  0  0  0
  -28.8480  -17.0718   23.6546 C   0  0  0  0  0  0
  -29.5071  -15.8915   20.6772 N   0  0  0  0  0  0
  -28.9863  -20.9368   19.2656 N   0  0  0  0  0  0
  -29.2048  -21.5413   21.9735 F   0  0  0  0  0  0
  -31.5025  -12.7267   19.2120 H   0  0  0  0  0  0
  -30.4742  -11.5252   19.9536 H   0  0  0  0  0  0
  -29.8310  -11.7701   17.5321 H   0  0  0  0  0  0
  -29.6674  -13.4952   17.7546 H   0  0  0  0  0  0
  -27.9140  -11.2820   18.8993 H   0  0  0  0  0  0
  -27.3988  -12.5311   17.7989 H   0  0  0  0  0  0
  -27.6380  -14.2406   19.4939 H   0  0  0  0  0  0
  -28.7608  -12.0287   21.2956 H   0  0  0  0  0  0
  -28.3991  -13.5902   21.8768 H   0  0  0  0  0  0
  -25.2760   -9.5612   22.4722 H   0  0  0  0  0  0
  -23.9959   -7.4569   22.7413 H   0  0  0  0  0  0
  -21.0825   -8.8832   19.8853 H   0  0  0  0  0  0
  -22.3761  -10.9660   19.6110 H   0  0  0  0  0  0
  -21.1922   -7.6135   23.9761 H   0  0  0  0  0  0
  -21.1462   -6.0479   25.9113 H   0  0  0  0  0  0
  -22.0592   -2.7604   23.2867 H   0  0  0  0  0  0
  -22.4048  -11.9738   22.4765 H   0  0  0  0  0  0
  -21.1174  -13.1269   22.2848 H   0  0  0  0  0  0
  -24.6916  -15.8483   20.5888 H   0  0  0  0  0  0
  -26.2849  -15.6089   20.0786 H   0  0  0  0  0  0
  -26.7277  -32.5267   23.1048 H   0  0  0  0  0  0
  -24.9931  -33.9588   25.0230 H   0  0  0  0  0  0
  -22.7380  -31.2875   21.3946 H   0  0  0  0  0  0
  -23.3688  -35.9696   23.3265 H   0  0  0  0  0  0
  -24.3635  -36.8987   22.2081 H   0  0  0  0  0  0
  -23.7365  -37.6480   23.6726 H   0  0  0  0  0  0
  -26.1323  -31.5161   20.6051 H   0  0  0  0  0  0
  -26.8706  -30.8040   22.0075 H   0  0  0  0  0  0
  -28.1587  -28.9010   21.0916 H   0  0  0  0  0  0
  -25.9266  -25.8458   19.0133 H   0  0  0  0  0  0
  -23.9344  -27.2723   19.0653 H   0  0  0  0  0  0
  -23.8394  -30.5870   19.4230 H   0  0  0  0  0  0
  -22.7706  -29.2713   19.8261 H   0  0  0  0  0  0
  -25.1313  -36.1825   25.0819 H   0  0  0  0  0  0
  -20.9931  -28.3335   24.1305 H   0  0  0  0  0  0
  -20.5736  -26.2263   23.3597 H   0  0  0  0  0  0
  -21.6656  -26.7397   22.1160 H   0  0  0  0  0  0
  -19.6988  -25.6200   21.1217 H   0  0  0  0  0  0
  -19.6810  -27.3021   20.6562 H   0  0  0  0  0  0
  -17.4239  -26.6550   21.3930 H   0  0  0  0  0  0
  -18.0455  -26.0029   22.8937 H   0  0  0  0  0  0
  -19.8038  -30.7188   24.2201 H   0  0  0  0  0  0
  -17.5093  -31.6223   24.5118 H   0  0  0  0  0  0
  -15.5386  -30.2942   23.7661 H   0  0  0  0  0  0
  -15.8673  -28.0832   22.6946 H   0  0  0  0  0  0
  -24.5837  -30.7099   25.7734 H   0  0  0  0  0  0
  -24.8705  -32.2902   26.4681 H   0  0  0  0  0  0
  -25.7875  -30.9026   27.0276 H   0  0  0  0  0  0
  -26.2935  -29.6715   24.1255 H   0  0  0  0  0  0
  -27.4048  -29.7340   25.4774 H   0  0  0  0  0  0
  -27.8835  -30.4272   23.9452 H   0  0  0  0  0  0
  -27.2670  -33.3793   26.1889 H   0  0  0  0  0  0
  -28.3897  -32.6838   25.0302 H   0  0  0  0  0  0
  -28.0601  -31.8570   26.5499 H   0  0  0  0  0  0
  -28.2490  -38.0181   24.7517 H   0  0  0  0  0  0
  -28.1228  -36.2670   24.6221 H   0  0  0  0  0  0
  -27.2309  -37.1373   25.8846 H   0  0  0  0  0  0
  -20.9457  -29.8900   21.6890 H   0  0  0  0  0  0
  -26.0088  -38.2791   24.1500 H   0  0  0  0  0  0
  -29.2378  -19.6504   23.6063 H   0  0  0  0  0  0
  -28.8467  -16.9481   18.4349 H   0  0  0  0  0  0
  -29.8472  -18.2957   17.8654 H   0  0  0  0  0  0
  -28.1290  -18.5089   18.1953 H   0  0  0  0  0  0
  -30.6479  -24.0094   19.3384 H   0  0  0  0  0  0
  -31.2522  -22.5039   18.7116 H   0  0  0  0  0  0
  -31.0008  -22.6963   20.4602 H   0  0  0  0  0  0
  -30.8998  -16.9530   24.4949 H   0  0  0  0  0  0
  -29.6675  -16.5192   25.6428 H   0  0  0  0  0  0
  -29.9216  -18.1879   25.2781 H   0  0  0  0  0  0
  -29.5522  -15.0603   23.2042 H   0  0  0  0  0  0
  -27.8751  -15.4295   22.6799 H   0  0  0  0  0  0
  -28.2329  -15.0829   24.3448 H   0  0  0  0  0  0
  -27.4209  -18.6668   24.3956 H   0  0  0  0  0  0
  -27.0565  -17.0911   25.0137 H   0  0  0  0  0  0
  -26.6616  -17.4865   23.3713 H   0  0  0  0  0  0
  -27.6910  -22.8998   20.8034 H   0  0  0  0  0  0
  -27.1645  -23.4896   19.2987 H   0  0  0  0  0  0
  -29.3217  -24.8958   21.0266 H   0  0  0  0  0  0
  -27.6726  -25.0593   21.4227 H   0  0  0  0  0  0
  -29.0066  -22.7011   18.2194 H   0  0  0  0  0  0
  -28.5768  -15.5088   20.7430 H   0  0  0  0  0  0
  -28.8863  -20.5734   18.3260 H   0  0  0  0  0  0
  1 25  1  0  0  0
  1 30  2  0  0  0
  1 86  1  0  0  0
  2  3  1  0  0  0
  2 25  1  0  0  0
  2 89  1  0  0  0
  2 90  1  0  0  0
  3  4  1  0  0  0
  3 91  1  0  0  0
  3 92  1  0  0  0
  4  5  1  0  0  0
  4 93  1  0  0  0
  4 94  1  0  0  0
  5  6  1  0  0  0
  5 26  1  0  0  0
  5 95  1  0  0  0
  6 25  1  0  0  0
  6 96  1  0  0  0
  6 97  1  0  0  0
  7  8  2  0  0  0
  7 26  1  0  0  0
  7 29  1  0  0  0
  8  9  1  0  0  0
  8 22  1  0  0  0
  9 10  1  0  0  0
  9 27  2  0  0  0
 10 11  2  0  0  0
 10 15  1  0  0  0
 11 12  1  0  0  0
 11 98  1  0  0  0
 12 13  2  0  0  0
 12 99  1  0  0  0
 13 14  1  0  0  0
 13 31  1  0  0  0
 14 15  2  0  0  0
 14100  1  0  0  0
 15101  1  0  0  0
 16 17  2  0  0  0
 16 21  1  0  0  0
 16 31  1  0  0  0
 17 18  1  0  0  0
 17102  1  0  0  0
 18 19  2  0  0  0
 18103  1  0  0  0
 19 20  1  0  0  0
 19 24  1  0  0  0
 20 21  2  0  0  0
 20104  1  0  0  0
 21 23  1  0  0  0
 22 28  1  0  0  0
 22 32  2  0  0  0
 26 27  1  0  0  0
 28105  1  0  0  0
 28106  1  0  0  0
 29107  1  0  0  0
 29108  1  0  0  0
 33 34  1  0  0  0
 33 66  1  0  0  0
 33 70  2  0  0  0
 34 36  1  0  0  0
 34 59  1  0  0  0
 34109  1  0  0  0
 35 44  2  0  0  0
 35 45  1  0  0  0
 35 68  1  0  0  0
 36 56  1  0  0  0
 36110  1  0  0  0
 37 39  1  0  0  0
 37 47  1  0  0  0
 37 66  1  0  0  0
 37111  1  0  0  0
 38 43  2  0  0  0
 38 46  1  0  0  0
 38 47  1  0  0  0
 39 64  1  0  0  0
 39 67  2  0  0  0
 40 52  1  0  0  0
 40 53  2  0  0  0
 40 58  1  0  0  0
 41112  1  0  0  0
 41113  1  0  0  0
 41114  1  0  0  0
 41 48  1  0  0  0
 42 43  1  0  0  0
 42 66  1  0  0  0
 42115  1  0  0  0
 42116  1  0  0  0
 43 44  1  0  0  0
 44117  1  0  0  0
 45 46  2  0  0  0
 45118  1  0  0  0
 46119  1  0  0  0
 47120  1  0  0  0
 47121  1  0  0  0
 48 56  1  0  0  0
 48 65  1  0  0  0
 48122  1  0  0  0
 49 50  1  0  0  0
 49 53  1  0  0  0
 49 64  1  0  0  0
 49123  1  0  0  0
 50 51  1  0  0  0
 50124  1  0  0  0
 50125  1  0  0  0
 51 52  1  0  0  0
 51126  1  0  0  0
 51127  1  0  0  0
 52128  1  0  0  0
 52129  1  0  0  0
 53 54  1  0  0  0
 54 55  2  0  0  0
 54130  1  0  0  0
 55 57  1  0  0  0
 55131  1  0  0  0
 56 69  2  0  0  0
 57 58  2  0  0  0
 57132  1  0  0  0
 58133  1  0  0  0
 59 60  1  0  0  0
 59 61  1  0  0  0
 59 62  1  0  0  0
 60134  1  0  0  0
 60135  1  0  0  0
 60136  1  0  0  0
 61137  1  0  0  0
 61138  1  0  0  0
 61139  1  0  0  0
 62140  1  0  0  0
 62141  1  0  0  0
 62142  1  0  0  0
 63 65  1  0  0  0
 63143  1  0  0  0
 63144  1  0  0  0
 63145  1  0  0  0
 64146  1  0  0  0
 65147  1  0  0  0
 68 83  1  0  0  0
 71 72  2  0  0  0
 71 76  1  0  0  0
 71148  1  0  0  0
 72 74  1  0  0  0
 72 85  1  0  0  0
 73 74  2  0  0  0
 73 75  1  0  0  0
 73 77  1  0  0  0
 74 86  1  0  0  0
 75 76  2  0  0  0
 75 87  1  0  0  0
 76 88  1  0  0  0
 77149  1  0  0  0
 77150  1  0  0  0
 77151  1  0  0  0
 78152  1  0  0  0
 78153  1  0  0  0
 78154  1  0  0  0
 78 84  1  0  0  0
 79155  1  0  0  0
 79156  1  0  0  0
 79157  1  0  0  0
 79 85  1  0  0  0
 80 85  1  0  0  0
 80158  1  0  0  0
 80159  1  0  0  0
 80160  1  0  0  0
 81 85  1  0  0  0
 81161  1  0  0  0
 81162  1  0  0  0
 81163  1  0  0  0
 82 83  1  0  0  0
 82 84  1  0  0  0
 82164  1  0  0  0
 82165  1  0  0  0
 83166  1  0  0  0
 83167  1  0  0  0
 84 87  1  0  0  0
 84168  1  0  0  0
 86169  1  0  0  0
 87170  1  0  0  0
M  ISO  4   1 100  68 101  83 101  86 100
M  END
> <chiral flag>
0

> <version>
0

> <s_m_source_file>
/data/baiqing/PycharmProjects/Reinvent-master-3.2/result/LINK_invent/BTK/process_docking_weight1_custom_sum_contain_oxygen_bond_distance_aromatic_linkinvent_7_9_3/rearranged_h_0014.sdf

> <i_m_source_file_index>
77

> <r_mmod_Potential_Energy-OPLS-2005>
494.515838623047

> <r_mmod_Stretch_Energy-OPLS-2005>
193.118408203125

> <r_mmod_Bend_Energy-OPLS-2005>
313.316497802734

> <r_mmod_Torsional_Energy-OPLS-2005>
288.107696533203

> <r_mmod_Improper_Torsional_Energy-OPLS-2005>
11.2819595336914

> <r_mmod_Van_der_Waal_Energy-OPLS-2005>
142.018432617188

> <r_mmod_Electrostatic_Energy-OPLS-2005>
-377.704040527344

> <r_mmod_Solvation_Energy-OPLS-2005>
-203.201354980469

> <b_mmod_Minimization_Converged-OPLS-2005>
0

> <r_mmod_RMS_Derivative-OPLS-2005>
12.0815725326538

$$$$
77
                    3D
 Structure written by MMmdl.
161169  0  0  1  0            999 V2000
  -30.5268  -15.0928   20.4521 C   0  0  0  0  0  0
  -30.4596  -12.7017   19.5045 C   0  0  0  0  0  0
  -29.5317  -12.5698   18.2705 C   0  0  0  0  0  0
  -28.0711  -12.3144   18.6904 C   0  0  0  0  0  0
  -27.6353  -13.2424   19.8506 C   0  0  2  0  0  0
  -28.6920  -13.2547   20.9810 C   0  0  0  0  0  0
  -25.2422  -13.8123   20.5655 C   0  0  0  0  0  0
  -24.1761  -13.0373   20.9252 C   0  0  0  0  0  0
  -24.6416  -11.6883   20.8816 C   0  0  0  0  0  0
  -23.9089  -10.4260   21.0442 C   0  0  0  0  0  0
  -24.3623   -9.4166   21.9212 C   0  0  0  0  0  0
  -23.6285   -8.2207   22.0766 C   0  0  0  0  0  0
  -22.4267   -8.0271   21.3549 C   0  0  0  0  0  0
  -21.9915   -9.0251   20.4650 C   0  0  0  0  0  0
  -22.7267  -10.2120   20.3071 C   0  0  0  0  0  0
  -21.6838   -6.0729   22.5283 C   0  0  0  0  0  0
  -21.4009   -6.5634   23.8220 C   0  0  0  0  0  0
  -21.3662   -5.6789   24.9185 C   0  0  0  0  0  0
  -21.6042   -4.3050   24.7226 C   0  0  0  0  0  0
  -21.8821   -3.8143   23.4344 C   0  0  0  0  0  0
  -21.9179   -4.6961   22.3403 C   0  0  0  0  0  0
  -22.7788  -13.5172   21.1886 C   0  0  0  0  0  0
  -22.1646   -4.2163   21.0982 F   0  0  0  0  0  0
  -21.5625   -3.4525   25.7727 F   0  0  0  0  0  0
  -29.9350  -13.8014   20.3888 N   0  0  0  0  0  0
  -26.2920  -12.9382   20.3324 N   0  0  0  0  0  0
  -25.9358  -11.6520   20.5809 N   0  0  0  0  0  0
  -22.0429  -12.8180   22.0461 N   0  0  0  0  0  0
  -25.3872  -15.1817   20.3882 N   0  0  0  0  0  0
  -31.7096  -15.1043   20.0877 O   0  0  0  0  0  0
  -21.6625   -6.8873   21.4244 O   0  0  0  0  0  0
  -22.3491  -14.5477   20.6727 O   0  0  0  0  0  0
  -24.6488  -31.8384   23.1822 C   0  0  0  0  0  0
  -25.9240  -32.4662   23.8235 C   0  0  1  0  0  0
  -27.2322  -27.0925   20.1471 C   0  0  0  0  0  0
  -25.5974  -33.8472   24.2146 N   0  0  0  0  0  0
  -23.4542  -30.4525   21.5322 C   0  0  2  0  0  0
  -24.9044  -28.8663   20.1116 C   0  0  0  0  0  0
  -22.7606  -29.4492   22.4886 C   0  0  0  0  0  0
  -18.0309  -28.1379   22.8479 C   0  0  0  0  0  0
  -24.1495  -36.7237   23.2640 C   0  0  0  0  0  0
  -26.0116  -30.6956   21.3856 C   0  0  0  0  0  0
  -26.0834  -29.3010   20.7286 C   0  0  0  0  0  0
  -27.2449  -28.4328   20.7252 C   0  0  0  0  0  0
  -26.0195  -26.7633   19.5013 C   0  0  0  0  0  0
  -24.8868  -27.6111   19.4833 C   0  0  0  0  0  0
  -23.6821  -29.7748   20.1538 C   0  0  0  0  0  0
  -25.4131  -36.3017   24.0303 C   0  0  1  0  0  0
  -20.5930  -28.3700   23.1252 C   0  0  2  0  0  0
  -20.6807  -26.9403   22.5414 C   0  0  0  0  0  0
  -19.5774  -26.6358   21.5232 C   0  0  0  0  0  0
  -18.1953  -26.7920   22.1627 C   0  0  0  0  0  0
  -19.1568  -28.8859   23.2854 C   0  0  0  0  0  0
  -18.9481  -30.1467   23.8857 C   0  0  0  0  0  0
  -17.6475  -30.6584   24.0553 C   0  0  0  0  0  0
  -25.9077  -34.9395   23.5031 C   0  0  0  0  0  0
  -16.5366  -29.9067   23.6343 C   0  0  0  0  0  0
  -16.7292  -28.6487   23.0362 C   0  0  0  0  0  0
  -26.4538  -31.6569   25.0708 C   0  0  0  0  0  0
  -25.3713  -31.3773   26.1399 C   0  0  0  0  0  0
  -27.0399  -30.2963   24.6321 C   0  0  0  0  0  0
  -27.6057  -32.4347   25.7501 C   0  0  0  0  0  0
  -27.5575  -37.1775   24.8467 C   0  0  0  0  0  0
  -21.4293  -29.3017   22.3633 N   0  0  0  0  0  0
  -26.4284  -37.3745   23.9411 N   0  0  0  0  0  0
  -24.7252  -31.0195   22.0870 N   0  0  0  0  0  0
  -23.4249  -28.8062   23.3062 O   0  0  0  0  0  0
  -28.2976  -26.1016   20.2029 O   0  0  0  0  0  0
  -26.5670  -34.8911   22.4615 O   0  0  0  0  0  0
  -23.5590  -32.1285   23.7000 O   0  0  0  0  0  0
  -30.9798  -20.6000   20.7925 C   0  0  0  0  0  0
  -29.3600  -18.9491   20.1598 C   0  0  0  0  0  0
  -29.7274  -20.4628   20.3309 C   0  0  0  0  0  0
  -30.1879  -17.8313   20.5272 C   0  0  0  0  0  0
  -31.4975  -18.2063   21.1124 C   0  0  0  0  0  0
  -28.0153  -18.6769   19.5065 C   0  0  0  0  0  0
  -30.3881  -23.6359   19.2449 C   0  0  0  0  0  0
  -33.1946  -19.9153   21.5528 C   0  0  0  0  0  0
  -28.6035  -16.2767   21.5188 C   0  0  0  0  0  0
  -28.0869  -24.5422   20.0432 C   0  0  0  0  0  0
  -29.2398  -23.2810   20.2064 C   0  0  2  0  0  0
  -31.8470  -19.5345   21.1075 N   0  0  0  0  0  0
  -28.9456  -21.7237   20.0804 N   0  0  0  0  0  0
  -29.7930  -16.3486   20.6644 N   0  0  0  0  0  0
  -32.2621  -17.3827   21.6268 O   0  0  0  0  0  0
  -31.4771  -12.9009   19.1649 H   0  0  0  0  0  0
  -30.5259  -11.7562   20.0450 H   0  0  0  0  0  0
  -29.8797  -11.7701   17.6166 H   0  0  0  0  0  0
  -29.5850  -13.4893   17.6857 H   0  0  0  0  0  0
  -27.9946  -11.2728   19.0093 H   0  0  0  0  0  0
  -27.4038  -12.4223   17.8352 H   0  0  0  0  0  0
  -27.5902  -14.2396   19.4161 H   0  0  0  0  0  0
  -28.8447  -12.2423   21.3561 H   0  0  0  0  0  0
  -28.3556  -13.7951   21.8604 H   0  0  0  0  0  0
  -25.2756   -9.5626   22.4811 H   0  0  0  0  0  0
  -23.9983   -7.4582   22.7470 H   0  0  0  0  0  0
  -21.0848   -8.8774   19.8942 H   0  0  0  0  0  0
  -22.3732  -10.9665   19.6181 H   0  0  0  0  0  0
  -21.2010   -7.6149   23.9733 H   0  0  0  0  0  0
  -21.1487   -6.0518   25.9097 H   0  0  0  0  0  0
  -22.0604   -2.7607   23.2838 H   0  0  0  0  0  0
  -22.4029  -11.9844   22.4859 H   0  0  0  0  0  0
  -21.1063  -13.1225   22.2668 H   0  0  0  0  0  0
  -24.6070  -15.8202   20.5008 H   0  0  0  0  0  0
  -26.2155  -15.6280   20.0175 H   0  0  0  0  0  0
  -26.7304  -32.5260   23.0958 H   0  0  0  0  0  0
  -25.0147  -33.9583   25.0315 H   0  0  0  0  0  0
  -22.7588  -31.2796   21.3757 H   0  0  0  0  0  0
  -23.3765  -35.9562   23.3283 H   0  0  0  0  0  0
  -24.3568  -36.8892   22.2057 H   0  0  0  0  0  0
  -23.7243  -37.6417   23.6690 H   0  0  0  0  0  0
  -26.1726  -31.4451   20.6108 H   0  0  0  0  0  0
  -26.8794  -30.7489   22.0307 H   0  0  0  0  0  0
  -28.1424  -28.7660   21.2271 H   0  0  0  0  0  0
  -25.9134  -25.8023   19.0218 H   0  0  0  0  0  0
  -23.9870  -27.2719   18.9890 H   0  0  0  0  0  0
  -23.8179  -30.5479   19.3968 H   0  0  0  0  0  0
  -22.7954  -29.2173   19.8441 H   0  0  0  0  0  0
  -25.1329  -36.1826   25.0793 H   0  0  0  0  0  0
  -20.9994  -28.3263   24.1388 H   0  0  0  0  0  0
  -20.5736  -26.2291   23.3632 H   0  0  0  0  0  0
  -21.6674  -26.7442   22.1192 H   0  0  0  0  0  0
  -19.6947  -25.6270   21.1268 H   0  0  0  0  0  0
  -19.6713  -27.3165   20.6769 H   0  0  0  0  0  0
  -17.4243  -26.6680   21.4013 H   0  0  0  0  0  0
  -18.0326  -26.0075   22.9026 H   0  0  0  0  0  0
  -19.7952  -30.7310   24.2199 H   0  0  0  0  0  0
  -17.5016  -31.6260   24.5153 H   0  0  0  0  0  0
  -15.5359  -30.2948   23.7677 H   0  0  0  0  0  0
  -15.8701  -28.0784   22.7091 H   0  0  0  0  0  0
  -24.5906  -30.7105   25.7725 H   0  0  0  0  0  0
  -24.8877  -32.2946   26.4759 H   0  0  0  0  0  0
  -25.7981  -30.8997   27.0230 H   0  0  0  0  0  0
  -26.3013  -29.6689   24.1310 H   0  0  0  0  0  0
  -27.3981  -29.7274   25.4912 H   0  0  0  0  0  0
  -27.8949  -30.4189   23.9672 H   0  0  0  0  0  0
  -27.2648  -33.3681   26.2003 H   0  0  0  0  0  0
  -28.3908  -32.6855   25.0355 H   0  0  0  0  0  0
  -28.0696  -31.8531   26.5483 H   0  0  0  0  0  0
  -28.2583  -38.0081   24.7521 H   0  0  0  0  0  0
  -28.1075  -36.2603   24.6282 H   0  0  0  0  0  0
  -27.2287  -37.1428   25.8870 H   0  0  0  0  0  0
  -20.9519  -29.8694   21.6775 H   0  0  0  0  0  0
  -26.0135  -38.2805   24.1429 H   0  0  0  0  0  0
  -31.4053  -21.5732   20.9886 H   0  0  0  0  0  0
  -28.0365  -17.7496   18.9317 H   0  0  0  0  0  0
  -27.7655  -19.4736   18.8033 H   0  0  0  0  0  0
  -27.2176  -18.6118   20.2449 H   0  0  0  0  0  0
  -30.7520  -24.6449   19.4409 H   0  0  0  0  0  0
  -30.0685  -23.6009   18.2041 H   0  0  0  0  0  0
  -31.2429  -22.9705   19.3390 H   0  0  0  0  0  0
  -33.4232  -20.9695   21.3899 H   0  0  0  0  0  0
  -33.9533  -19.3487   21.0126 H   0  0  0  0  0  0
  -33.3190  -19.7183   22.6183 H   0  0  0  0  0  0
  -28.2137  -17.2478   21.8274 H   0  0  0  0  0  0
  -28.8412  -15.7815   22.4610 H   0  0  0  0  0  0
  -27.7881  -15.7721   21.0203 H   0  0  0  0  0  0
  -27.2669  -24.2908   20.7158 H   0  0  0  0  0  0
  -27.6771  -24.4157   19.0416 H   0  0  0  0  0  0
  -29.6380  -23.3875   21.2160 H   0  0  0  0  0  0
  -27.9974  -21.5590   19.7544 H   0  0  0  0  0  0
  1 25  1  0  0  0
  1 30  2  0  0  0
  1 84  1  0  0  0
  2  3  1  0  0  0
  2 25  1  0  0  0
  2 86  1  0  0  0
  2 87  1  0  0  0
  3  4  1  0  0  0
  3 88  1  0  0  0
  3 89  1  0  0  0
  4  5  1  0  0  0
  4 90  1  0  0  0
  4 91  1  0  0  0
  5  6  1  0  0  0
  5 26  1  0  0  0
  5 92  1  0  0  0
  6 25  1  0  0  0
  6 93  1  0  0  0
  6 94  1  0  0  0
  7  8  2  0  0  0
  7 26  1  0  0  0
  7 29  1  0  0  0
  8  9  1  0  0  0
  8 22  1  0  0  0
  9 10  1  0  0  0
  9 27  2  0  0  0
 10 11  2  0  0  0
 10 15  1  0  0  0
 11 12  1  0  0  0
 11 95  1  0  0  0
 12 13  2  0  0  0
 12 96  1  0  0  0
 13 14  1  0  0  0
 13 31  1  0  0  0
 14 15  2  0  0  0
 14 97  1  0  0  0
 15 98  1  0  0  0
 16 17  2  0  0  0
 16 21  1  0  0  0
 16 31  1  0  0  0
 17 18  1  0  0  0
 17 99  1  0  0  0
 18 19  2  0  0  0
 18100  1  0  0  0
 19 20  1  0  0  0
 19 24  1  0  0  0
 20 21  2  0  0  0
 20101  1  0  0  0
 21 23  1  0  0  0
 22 28  1  0  0  0
 22 32  2  0  0  0
 26 27  1  0  0  0
 28102  1  0  0  0
 28103  1  0  0  0
 29104  1  0  0  0
 29105  1  0  0  0
 33 34  1  0  0  0
 33 66  1  0  0  0
 33 70  2  0  0  0
 34 36  1  0  0  0
 34 59  1  0  0  0
 34106  1  0  0  0
 35 44  2  0  0  0
 35 45  1  0  0  0
 35 68  1  0  0  0
 36 56  1  0  0  0
 36107  1  0  0  0
 37 39  1  0  0  0
 37 47  1  0  0  0
 37 66  1  0  0  0
 37108  1  0  0  0
 38 43  2  0  0  0
 38 46  1  0  0  0
 38 47  1  0  0  0
 39 64  1  0  0  0
 39 67  2  0  0  0
 40 52  1  0  0  0
 40 53  2  0  0  0
 40 58  1  0  0  0
 41109  1  0  0  0
 41110  1  0  0  0
 41111  1  0  0  0
 41 48  1  0  0  0
 42 43  1  0  0  0
 42 66  1  0  0  0
 42112  1  0  0  0
 42113  1  0  0  0
 43 44  1  0  0  0
 44114  1  0  0  0
 45 46  2  0  0  0
 45115  1  0  0  0
 46116  1  0  0  0
 47117  1  0  0  0
 47118  1  0  0  0
 48 56  1  0  0  0
 48 65  1  0  0  0
 48119  1  0  0  0
 49 50  1  0  0  0
 49 53  1  0  0  0
 49 64  1  0  0  0
 49120  1  0  0  0
 50 51  1  0  0  0
 50121  1  0  0  0
 50122  1  0  0  0
 51 52  1  0  0  0
 51123  1  0  0  0
 51124  1  0  0  0
 52125  1  0  0  0
 52126  1  0  0  0
 53 54  1  0  0  0
 54 55  2  0  0  0
 54127  1  0  0  0
 55 57  1  0  0  0
 55128  1  0  0  0
 56 69  2  0  0  0
 57 58  2  0  0  0
 57129  1  0  0  0
 58130  1  0  0  0
 59 60  1  0  0  0
 59 61  1  0  0  0
 59 62  1  0  0  0
 60131  1  0  0  0
 60132  1  0  0  0
 60133  1  0  0  0
 61134  1  0  0  0
 61135  1  0  0  0
 61136  1  0  0  0
 62137  1  0  0  0
 62138  1  0  0  0
 62139  1  0  0  0
 63 65  1  0  0  0
 63140  1  0  0  0
 63141  1  0  0  0
 63142  1  0  0  0
 64143  1  0  0  0
 65144  1  0  0  0
 68 80  1  0  0  0
 71 73  2  0  0  0
 71 82  1  0  0  0
 71145  1  0  0  0
 72 73  1  0  0  0
 72 74  2  0  0  0
 72 76  1  0  0  0
 73 83  1  0  0  0
 74 75  1  0  0  0
 74 84  1  0  0  0
 75 82  1  0  0  0
 75 85  2  0  0  0
 76146  1  0  0  0
 76147  1  0  0  0
 76148  1  0  0  0
 77149  1  0  0  0
 77150  1  0  0  0
 77151  1  0  0  0
 77 81  1  0  0  0
 78 82  1  0  0  0
 78152  1  0  0  0
 78153  1  0  0  0
 78154  1  0  0  0
 79 84  1  0  0  0
 79155  1  0  0  0
 79156  1  0  0  0
 79157  1  0  0  0
 80 81  1  0  0  0
 80158  1  0  0  0
 80159  1  0  0  0
 81 83  1  0  0  0
 81160  1  0  0  0
 83161  1  0  0  0
M  ISO  4   1 100  68 101  80 101  84 100
M  END
> <chiral flag>
0

> <version>
0

> <s_m_source_file>
/data/baiqing/PycharmProjects/Reinvent-master-3.2/result/LINK_invent/BTK/process_docking_weight1_custom_sum_contain_oxygen_bond_distance_aromatic_linkinvent_7_9_3/rearranged_h_0014.sdf

> <i_m_source_file_index>
78

> <r_mmod_Potential_Energy-OPLS-2005>
779.201721191406

> <r_mmod_Stretch_Energy-OPLS-2005>
353.297271728516

> <r_mmod_Bend_Energy-OPLS-2005>
307.635314941406

> <r_mmod_Torsional_Energy-OPLS-2005>
266.896911621094

> <r_mmod_Improper_Torsional_Energy-OPLS-2005>
7.32150983810425

> <r_mmod_Van_der_Waal_Energy-OPLS-2005>
162.38020324707

> <r_mmod_Electrostatic_Energy-OPLS-2005>
-355.342987060547

> <r_mmod_Solvation_Energy-OPLS-2005>
-217.448181152344

> <b_mmod_Minimization_Converged-OPLS-2005>
0

> <r_mmod_RMS_Derivative-OPLS-2005>
3.11417007446289

$$$$
78
                    3D
 Structure written by MMmdl.
171179  0  0  1  0            999 V2000
  -30.8331  -14.4706   20.6202 C   0  0  0  0  0  0
  -30.3881  -12.3204   19.4778 C   0  0  0  0  0  0
  -29.5026  -12.5286   18.2331 C   0  0  0  0  0  0
  -28.0203  -12.3841   18.6151 C   0  0  0  0  0  0
  -27.6550  -13.2218   19.8667 C   0  0  2  0  0  0
  -28.6824  -13.0203   20.9986 C   0  0  0  0  0  0
  -25.2546  -13.8208   20.5651 C   0  0  0  0  0  0
  -24.1819  -13.0464   20.9196 C   0  0  0  0  0  0
  -24.6399  -11.6942   20.8740 C   0  0  0  0  0  0
  -23.9080  -10.4315   21.0425 C   0  0  0  0  0  0
  -24.3642   -9.4230   21.9191 C   0  0  0  0  0  0
  -23.6324   -8.2261   22.0758 C   0  0  0  0  0  0
  -22.4301   -8.0296   21.3554 C   0  0  0  0  0  0
  -21.9942   -9.0267   20.4647 C   0  0  0  0  0  0
  -22.7258  -10.2153   20.3076 C   0  0  0  0  0  0
  -21.6858   -6.0754   22.5283 C   0  0  0  0  0  0
  -21.4013   -6.5656   23.8216 C   0  0  0  0  0  0
  -21.3669   -5.6804   24.9179 C   0  0  0  0  0  0
  -21.6050   -4.3065   24.7229 C   0  0  0  0  0  0
  -21.8822   -3.8164   23.4349 C   0  0  0  0  0  0
  -21.9201   -4.6982   22.3405 C   0  0  0  0  0  0
  -22.7844  -13.5246   21.1868 C   0  0  0  0  0  0
  -22.1663   -4.2172   21.0980 F   0  0  0  0  0  0
  -21.5640   -3.4550   25.7746 F   0  0  0  0  0  0
  -30.0289  -13.3523   20.4892 N   0  0  0  0  0  0
  -26.2970  -12.9396   20.3256 N   0  0  0  0  0  0
  -25.9320  -11.6549   20.5708 N   0  0  0  0  0  0
  -22.0483  -12.8222   22.0417 N   0  0  0  0  0  0
  -25.4247  -15.1919   20.4043 N   0  0  0  0  0  0
  -31.9122  -14.4556   20.0269 O   0  0  0  0  0  0
  -21.6661   -6.8900   21.4249 O   0  0  0  0  0  0
  -22.3531  -14.5545   20.6720 O   0  0  0  0  0  0
  -24.6193  -31.8670   23.2110 C   0  0  0  0  0  0
  -25.9074  -32.4810   23.8413 C   0  0  1  0  0  0
  -27.2160  -27.3970   20.0999 C   0  0  0  0  0  0
  -25.5926  -33.8612   24.2333 N   0  0  0  0  0  0
  -23.4069  -30.4971   21.5522 C   0  0  2  0  0  0
  -24.8486  -28.9679   20.1125 C   0  0  0  0  0  0
  -22.7422  -29.4677   22.4951 C   0  0  0  0  0  0
  -18.0274  -28.1390   22.8484 C   0  0  0  0  0  0
  -24.1488  -36.7314   23.2636 C   0  0  0  0  0  0
  -25.9432  -30.8207   21.3717 C   0  0  0  0  0  0
  -26.0157  -29.4564   20.7137 C   0  0  0  0  0  0
  -27.2029  -28.6811   20.7034 C   0  0  0  0  0  0
  -26.0254  -26.9466   19.4749 C   0  0  0  0  0  0
  -24.8510  -27.7133   19.4901 C   0  0  0  0  0  0
  -23.6150  -29.8394   20.1643 C   0  0  0  0  0  0
  -25.4112  -36.3109   24.0332 C   0  0  1  0  0  0
  -20.5874  -28.3700   23.1285 C   0  0  2  0  0  0
  -20.6765  -26.9422   22.5418 C   0  0  0  0  0  0
  -19.5745  -26.6395   21.5217 C   0  0  0  0  0  0
  -18.1924  -26.7938   22.1614 C   0  0  0  0  0  0
  -19.1525  -28.8854   23.2886 C   0  0  0  0  0  0
  -18.9456  -30.1454   23.8908 C   0  0  0  0  0  0
  -17.6465  -30.6591   24.0575 C   0  0  0  0  0  0
  -25.9050  -34.9470   23.5128 C   0  0  0  0  0  0
  -16.5355  -29.9102   23.6328 C   0  0  0  0  0  0
  -16.7268  -28.6515   23.0356 C   0  0  0  0  0  0
  -26.4485  -31.6589   25.0752 C   0  0  0  0  0  0
  -25.3742  -31.3695   26.1492 C   0  0  0  0  0  0
  -27.0337  -30.3021   24.6174 C   0  0  0  0  0  0
  -27.6061  -32.4315   25.7512 C   0  0  0  0  0  0
  -27.5585  -37.1804   24.8458 C   0  0  0  0  0  0
  -21.4145  -29.3062   22.3676 N   0  0  0  0  0  0
  -26.4292  -37.3801   23.9410 N   0  0  0  0  0  0
  -24.6751  -31.0757   22.1027 N   0  0  0  0  0  0
  -23.4174  -28.8208   23.2998 O   0  0  0  0  0  0
  -28.3560  -26.6023   20.1511 O   0  0  0  0  0  0
  -26.5604  -34.8925   22.4684 O   0  0  0  0  0  0
  -23.5373  -32.1442   23.7471 O   0  0  0  0  0  0
  -28.3770  -20.6248   23.4503 C   0  0  0  0  0  0
  -29.4551  -19.9403   21.4121 C   0  0  0  0  0  0
  -28.5293  -21.9854   23.0863 C   0  0  0  0  0  0
  -28.8233  -19.5601   22.6210 C   0  0  0  0  0  0
  -29.1676  -22.3431   21.8723 C   0  0  0  0  0  0
  -29.6572  -21.2908   21.0542 C   0  0  0  0  0  0
  -29.5275  -15.8620   22.1773 C   0  0  0  0  0  0
  -27.9916  -23.0617   24.0186 C   0  0  0  0  0  0
  -32.7850  -16.6920   21.7489 C   0  0  0  0  0  0
  -31.4963  -17.3607   19.6187 C   0  0  0  0  0  0
  -28.1671  -17.9028   24.3545 C   0  0  0  0  0  0
  -28.5822  -17.0910   22.0070 C   0  0  0  0  0  0
  -29.3192  -24.2256   20.1811 C   0  0  0  0  0  0
  -28.1582  -25.1970   19.8612 C   0  0  0  0  0  0
  -31.4010  -16.8493   21.0765 C   0  0  0  0  0  0
  -29.3035  -23.7201   21.5612 N   0  0  0  0  0  0
  -28.6678  -18.1894   23.0041 N   0  0  0  0  0  0
  -30.4953  -15.6572   21.2488 N   0  0  0  0  0  0
  -29.4111  -15.1525   23.1818 O   0  0  0  0  0  0
  -30.3595  -21.5519   19.9240 F   0  0  0  0  0  0
  -31.4393  -12.3187   19.1867 H   0  0  0  0  0  0
  -30.2302  -11.3225   19.8890 H   0  0  0  0  0  0
  -29.7637  -11.8095   17.4552 H   0  0  0  0  0  0
  -29.6829  -13.5182   17.8087 H   0  0  0  0  0  0
  -27.8255  -11.3276   18.8018 H   0  0  0  0  0  0
  -27.3859  -12.6680   17.7761 H   0  0  0  0  0  0
  -27.6947  -14.2694   19.5690 H   0  0  0  0  0  0
  -28.6674  -11.9796   21.3266 H   0  0  0  0  0  0
  -28.3532  -13.5600   21.8727 H   0  0  0  0  0  0
  -25.2800   -9.5720   22.4745 H   0  0  0  0  0  0
  -24.0061   -7.4664   22.7474 H   0  0  0  0  0  0
  -21.0889   -8.8785   19.8932 H   0  0  0  0  0  0
  -22.3723  -10.9706   19.6194 H   0  0  0  0  0  0
  -21.1976   -7.6162   23.9725 H   0  0  0  0  0  0
  -21.1494   -6.0532   25.9084 H   0  0  0  0  0  0
  -22.0589   -2.7629   23.2838 H   0  0  0  0  0  0
  -22.4106  -11.9908   22.4837 H   0  0  0  0  0  0
  -21.1077  -13.1204   22.2567 H   0  0  0  0  0  0
  -24.6461  -15.8363   20.4887 H   0  0  0  0  0  0
  -26.2476  -15.6210   20.0021 H   0  0  0  0  0  0
  -26.7141  -32.5509   23.1168 H   0  0  0  0  0  0
  -25.0074  -33.9783   25.0476 H   0  0  0  0  0  0
  -22.6990  -31.3166   21.4158 H   0  0  0  0  0  0
  -23.3758  -35.9637   23.3298 H   0  0  0  0  0  0
  -24.3574  -36.8950   22.2052 H   0  0  0  0  0  0
  -23.7238  -37.6510   23.6665 H   0  0  0  0  0  0
  -26.0676  -31.5862   20.6041 H   0  0  0  0  0  0
  -26.8272  -30.8665   21.9964 H   0  0  0  0  0  0
  -28.0995  -29.0504   21.1810 H   0  0  0  0  0  0
  -25.9636  -25.9938   18.9710 H   0  0  0  0  0  0
  -23.9559  -27.3297   19.0192 H   0  0  0  0  0  0
  -23.7270  -30.6191   19.4093 H   0  0  0  0  0  0
  -22.7355  -29.2660   19.8649 H   0  0  0  0  0  0
  -25.1277  -36.1976   25.0824 H   0  0  0  0  0  0
  -20.9965  -28.3304   24.1402 H   0  0  0  0  0  0
  -20.5682  -26.2319   23.3618 H   0  0  0  0  0  0
  -21.6642  -26.7455   22.1224 H   0  0  0  0  0  0
  -19.6919  -25.6313   21.1240 H   0  0  0  0  0  0
  -19.6686  -27.3207   20.6748 H   0  0  0  0  0  0
  -17.4195  -26.6691   21.4010 H   0  0  0  0  0  0
  -18.0299  -26.0077   22.9001 H   0  0  0  0  0  0
  -19.7942  -30.7261   24.2282 H   0  0  0  0  0  0
  -17.5029  -31.6265   24.5191 H   0  0  0  0  0  0
  -15.5359  -30.3019   23.7645 H   0  0  0  0  0  0
  -15.8663  -28.0847   22.7069 H   0  0  0  0  0  0
  -24.5974  -30.6964   25.7842 H   0  0  0  0  0  0
  -24.8860  -32.2842   26.4867 H   0  0  0  0  0  0
  -25.8112  -30.8947   27.0291 H   0  0  0  0  0  0
  -26.2912  -29.6756   24.1219 H   0  0  0  0  0  0
  -27.4081  -29.7272   25.4658 H   0  0  0  0  0  0
  -27.8751  -30.4319   23.9365 H   0  0  0  0  0  0
  -27.2700  -33.3631   26.2071 H   0  0  0  0  0  0
  -28.3879  -32.6848   25.0341 H   0  0  0  0  0  0
  -28.0720  -31.8454   26.5444 H   0  0  0  0  0  0
  -28.2585  -38.0116   24.7529 H   0  0  0  0  0  0
  -28.1105  -36.2652   24.6261 H   0  0  0  0  0  0
  -27.2297  -37.1427   25.8858 H   0  0  0  0  0  0
  -20.9306  -29.8790   21.6901 H   0  0  0  0  0  0
  -26.0181  -38.2871   24.1452 H   0  0  0  0  0  0
  -27.8919  -20.4231   24.3921 H   0  0  0  0  0  0
  -29.8343  -19.2109   20.7218 H   0  0  0  0  0  0
  -27.5647  -22.6364   24.9269 H   0  0  0  0  0  0
  -27.2096  -23.6361   23.5205 H   0  0  0  0  0  0
  -28.7846  -23.7488   24.3153 H   0  0  0  0  0  0
  -33.2915  -17.6571   21.8010 H   0  0  0  0  0  0
  -33.4511  -16.0158   21.2129 H   0  0  0  0  0  0
  -32.6870  -16.3313   22.7741 H   0  0  0  0  0  0
  -32.0409  -16.6820   18.9628 H   0  0  0  0  0  0
  -32.0239  -18.3144   19.5749 H   0  0  0  0  0  0
  -30.5109  -17.5084   19.1759 H   0  0  0  0  0  0
  -28.8456  -18.2904   25.1161 H   0  0  0  0  0  0
  -28.0621  -16.8339   24.5443 H   0  0  0  0  0  0
  -27.1783  -18.3317   24.5227 H   0  0  0  0  0  0
  -27.5686  -16.6927   22.0600 H   0  0  0  0  0  0
  -28.6493  -17.4528   20.9826 H   0  0  0  0  0  0
  -30.2838  -24.6715   19.9396 H   0  0  0  0  0  0
  -29.1885  -23.3929   19.4924 H   0  0  0  0  0  0
  -27.2649  -24.8156   20.3604 H   0  0  0  0  0  0
  -27.9778  -25.1192   18.7876 H   0  0  0  0  0  0
  -31.0122  -17.6941   21.6386 H   0  0  0  0  0  0
  -28.9243  -24.3671   22.2446 H   0  0  0  0  0  0
  1 25  1  0  0  0
  1 30  2  0  0  0
  1 88  1  0  0  0
  2  3  1  0  0  0
  2 25  1  0  0  0
  2 91  1  0  0  0
  2 92  1  0  0  0
  3  4  1  0  0  0
  3 93  1  0  0  0
  3 94  1  0  0  0
  4  5  1  0  0  0
  4 95  1  0  0  0
  4 96  1  0  0  0
  5  6  1  0  0  0
  5 26  1  0  0  0
  5 97  1  0  0  0
  6 25  1  0  0  0
  6 98  1  0  0  0
  6 99  1  0  0  0
  7  8  2  0  0  0
  7 26  1  0  0  0
  7 29  1  0  0  0
  8  9  1  0  0  0
  8 22  1  0  0  0
  9 10  1  0  0  0
  9 27  2  0  0  0
 10 11  2  0  0  0
 10 15  1  0  0  0
 11 12  1  0  0  0
 11100  1  0  0  0
 12 13  2  0  0  0
 12101  1  0  0  0
 13 14  1  0  0  0
 13 31  1  0  0  0
 14 15  2  0  0  0
 14102  1  0  0  0
 15103  1  0  0  0
 16 17  2  0  0  0
 16 21  1  0  0  0
 16 31  1  0  0  0
 17 18  1  0  0  0
 17104  1  0  0  0
 18 19  2  0  0  0
 18105  1  0  0  0
 19 20  1  0  0  0
 19 24  1  0  0  0
 20 21  2  0  0  0
 20106  1  0  0  0
 21 23  1  0  0  0
 22 28  1  0  0  0
 22 32  2  0  0  0
 26 27  1  0  0  0
 28107  1  0  0  0
 28108  1  0  0  0
 29109  1  0  0  0
 29110  1  0  0  0
 33 34  1  0  0  0
 33 66  1  0  0  0
 33 70  2  0  0  0
 34 36  1  0  0  0
 34 59  1  0  0  0
 34111  1  0  0  0
 35 44  2  0  0  0
 35 45  1  0  0  0
 35 68  1  0  0  0
 36 56  1  0  0  0
 36112  1  0  0  0
 37 39  1  0  0  0
 37 47  1  0  0  0
 37 66  1  0  0  0
 37113  1  0  0  0
 38 43  2  0  0  0
 38 46  1  0  0  0
 38 47  1  0  0  0
 39 64  1  0  0  0
 39 67  2  0  0  0
 40 52  1  0  0  0
 40 53  2  0  0  0
 40 58  1  0  0  0
 41114  1  0  0  0
 41115  1  0  0  0
 41116  1  0  0  0
 41 48  1  0  0  0
 42 43  1  0  0  0
 42 66  1  0  0  0
 42117  1  0  0  0
 42118  1  0  0  0
 43 44  1  0  0  0
 44119  1  0  0  0
 45 46  2  0  0  0
 45120  1  0  0  0
 46121  1  0  0  0
 47122  1  0  0  0
 47123  1  0  0  0
 48 56  1  0  0  0
 48 65  1  0  0  0
 48124  1  0  0  0
 49 50  1  0  0  0
 49 53  1  0  0  0
 49 64  1  0  0  0
 49125  1  0  0  0
 50 51  1  0  0  0
 50126  1  0  0  0
 50127  1  0  0  0
 51 52  1  0  0  0
 51128  1  0  0  0
 51129  1  0  0  0
 52130  1  0  0  0
 52131  1  0  0  0
 53 54  1  0  0  0
 54 55  2  0  0  0
 54132  1  0  0  0
 55 57  1  0  0  0
 55133  1  0  0  0
 56 69  2  0  0  0
 57 58  2  0  0  0
 57134  1  0  0  0
 58135  1  0  0  0
 59 60  1  0  0  0
 59 61  1  0  0  0
 59 62  1  0  0  0
 60136  1  0  0  0
 60137  1  0  0  0
 60138  1  0  0  0
 61139  1  0  0  0
 61140  1  0  0  0
 61141  1  0  0  0
 62142  1  0  0  0
 62143  1  0  0  0
 62144  1  0  0  0
 63 65  1  0  0  0
 63145  1  0  0  0
 63146  1  0  0  0
 63147  1  0  0  0
 64148  1  0  0  0
 65149  1  0  0  0
 68 84  1  0  0  0
 71 73  2  0  0  0
 71 74  1  0  0  0
 71150  1  0  0  0
 72 74  2  0  0  0
 72 76  1  0  0  0
 72151  1  0  0  0
 73 75  1  0  0  0
 73 78  1  0  0  0
 74 87  1  0  0  0
 75 76  2  0  0  0
 75 86  1  0  0  0
 76 90  1  0  0  0
 77 82  1  0  0  0
 77 88  1  0  0  0
 77 89  2  0  0  0
 78152  1  0  0  0
 78153  1  0  0  0
 78154  1  0  0  0
 79155  1  0  0  0
 79156  1  0  0  0
 79157  1  0  0  0
 79 85  1  0  0  0
 80 85  1  0  0  0
 80158  1  0  0  0
 80159  1  0  0  0
 80160  1  0  0  0
 81 87  1  0  0  0
 81161  1  0  0  0
 81162  1  0  0  0
 81163  1  0  0  0
 82 87  1  0  0  0
 82164  1  0  0  0
 82165  1  0  0  0
 83 84  1  0  0  0
 83 86  1  0  0  0
 83166  1  0  0  0
 83167  1  0  0  0
 84168  1  0  0  0
 84169  1  0  0  0
 85 88  1  0  0  0
 85170  1  0  0  0
 86171  1  0  0  0
M  ISO  4   1 100  68 101  84 101  88 100
M  END
> <chiral flag>
0

> <version>
0

> <s_m_source_file>
/data/baiqing/PycharmProjects/Reinvent-master-3.2/result/LINK_invent/BTK/process_docking_weight1_custom_sum_contain_oxygen_bond_distance_aromatic_linkinvent_7_9_3/rearranged_h_0014.sdf

> <i_m_source_file_index>
79

> <r_mmod_Potential_Energy-OPLS-2005>
271.946044921875

> <r_mmod_Stretch_Energy-OPLS-2005>
64.2622756958008

> <r_mmod_Bend_Energy-OPLS-2005>
190.267135620117

> <r_mmod_Torsional_Energy-OPLS-2005>
241.704223632812

> <r_mmod_Improper_Torsional_Energy-OPLS-2005>
6.86228513717651

> <r_mmod_Van_der_Waal_Energy-OPLS-2005>
202.856201171875

> <r_mmod_Electrostatic_Energy-OPLS-2005>
-254.707244873047

> <r_mmod_Solvation_Energy-OPLS-2005>
-205.591094970703

> <b_mmod_Minimization_Converged-OPLS-2005>
0

> <r_mmod_RMS_Derivative-OPLS-2005>
2.43187594413757

$$$$
79
                    3D
 Structure written by MMmdl.
156164  0  0  1  0            999 V2000
  -30.6154  -14.7861   20.4488 C   0  0  0  0  0  0
  -30.4296  -12.4820   19.4804 C   0  0  0  0  0  0
  -29.5110  -12.5095   18.2398 C   0  0  0  0  0  0
  -28.0384  -12.3289   18.6544 C   0  0  0  0  0  0
  -27.6365  -13.2400   19.8453 C   0  0  2  0  0  0
  -28.6821  -13.2060   20.9814 C   0  0  0  0  0  0
  -25.2484  -13.8214   20.5707 C   0  0  0  0  0  0
  -24.1786  -13.0445   20.9215 C   0  0  0  0  0  0
  -24.6391  -11.6926   20.8745 C   0  0  0  0  0  0
  -23.9068  -10.4297   21.0401 C   0  0  0  0  0  0
  -24.3617   -9.4210   21.9179 C   0  0  0  0  0  0
  -23.6291   -8.2244   22.0751 C   0  0  0  0  0  0
  -22.4271   -8.0283   21.3544 C   0  0  0  0  0  0
  -21.9909   -9.0258   20.4648 C   0  0  0  0  0  0
  -22.7240  -10.2138   20.3053 C   0  0  0  0  0  0
  -21.6857   -6.0731   22.5275 C   0  0  0  0  0  0
  -21.4020   -6.5635   23.8209 C   0  0  0  0  0  0
  -21.3660   -5.6787   24.9171 C   0  0  0  0  0  0
  -21.6044   -4.3049   24.7223 C   0  0  0  0  0  0
  -21.8820   -3.8143   23.4343 C   0  0  0  0  0  0
  -21.9195   -4.6959   22.3398 C   0  0  0  0  0  0
  -22.7804  -13.5219   21.1873 C   0  0  0  0  0  0
  -22.1661   -4.2145   21.0975 F   0  0  0  0  0  0
  -21.5628   -3.4533   25.7734 F   0  0  0  0  0  0
  -29.9767  -13.5630   20.3898 N   0  0  0  0  0  0
  -26.2915  -12.9438   20.3272 N   0  0  0  0  0  0
  -25.9324  -11.6572   20.5742 N   0  0  0  0  0  0
  -22.0453  -12.8211   22.0431 N   0  0  0  0  0  0
  -25.4142  -15.1940   20.4135 N   0  0  0  0  0  0
  -31.8116  -14.8330   20.1508 O   0  0  0  0  0  0
  -21.6642   -6.8876   21.4237 O   0  0  0  0  0  0
  -22.3479  -14.5519   20.6712 O   0  0  0  0  0  0
  -24.6340  -31.8528   23.1966 C   0  0  0  0  0  0
  -25.9156  -32.4737   23.8317 C   0  0  1  0  0  0
  -27.2114  -27.2283   20.1372 C   0  0  0  0  0  0
  -25.5943  -33.8542   24.2239 N   0  0  0  0  0  0
  -23.4316  -30.4751   21.5413 C   0  0  2  0  0  0
  -24.8768  -28.9151   20.1135 C   0  0  0  0  0  0
  -22.7512  -29.4589   22.4908 C   0  0  0  0  0  0
  -18.0294  -28.1387   22.8482 C   0  0  0  0  0  0
  -24.1492  -36.7275   23.2638 C   0  0  0  0  0  0
  -25.9802  -30.7545   21.3823 C   0  0  0  0  0  0
  -26.0503  -29.3737   20.7251 C   0  0  0  0  0  0
  -27.2213  -28.5444   20.7215 C   0  0  0  0  0  0
  -26.0173  -26.8478   19.4881 C   0  0  0  0  0  0
  -24.8672  -27.6616   19.4830 C   0  0  0  0  0  0
  -23.6513  -29.8084   20.1582 C   0  0  0  0  0  0
  -25.4119  -36.3057   24.0320 C   0  0  1  0  0  0
  -20.5899  -28.3700   23.1266 C   0  0  2  0  0  0
  -20.6785  -26.9415   22.5413 C   0  0  0  0  0  0
  -19.5762  -26.6381   21.5216 C   0  0  0  0  0  0
  -18.1939  -26.7930   22.1622 C   0  0  0  0  0  0
  -19.1547  -28.8863   23.2868 C   0  0  0  0  0  0
  -18.9466  -30.1463   23.8885 C   0  0  0  0  0  0
  -17.6465  -30.6590   24.0558 C   0  0  0  0  0  0
  -25.9062  -34.9429   23.5082 C   0  0  0  0  0  0
  -16.5357  -29.9082   23.6331 C   0  0  0  0  0  0
  -16.7279  -28.6501   23.0351 C   0  0  0  0  0  0
  -26.4507  -31.6576   25.0724 C   0  0  0  0  0  0
  -25.3715  -31.3755   26.1437 C   0  0  0  0  0  0
  -27.0349  -30.2978   24.6251 C   0  0  0  0  0  0
  -27.6055  -32.4322   25.7504 C   0  0  0  0  0  0
  -27.5579  -37.1792   24.8459 C   0  0  0  0  0  0
  -21.4217  -29.3042   22.3651 N   0  0  0  0  0  0
  -26.4287  -37.3762   23.9405 N   0  0  0  0  0  0
  -24.7011  -31.0465   22.0959 N   0  0  0  0  0  0
  -23.4198  -28.8132   23.3020 O   0  0  0  0  0  0
  -28.3065  -26.3264   20.1629 O   0  0  0  0  0  0
  -26.5636  -34.8910   22.4653 O   0  0  0  0  0  0
  -23.5482  -32.1365   23.7245 O   0  0  0  0  0  0
  -31.5954  -17.7406   20.9457 C   0  0  0  0  0  0
  -32.0267  -19.0775   21.0573 C   0  0  0  0  0  0
  -29.7709  -19.9604   20.5692 C   0  0  0  0  0  0
  -30.2545  -17.4064   20.6499 C   0  0  0  0  0  0
  -31.1358  -20.1577   20.8878 C   0  0  0  0  0  0
  -29.3520  -18.5519   20.4678 C   0  0  0  0  0  0
  -29.1860  -23.8181   19.7443 C   0  0  0  0  0  0
  -33.4784  -19.3699   21.3897 C   0  0  0  0  0  0
  -30.1436  -24.6158   18.8822 C   0  0  0  0  0  0
  -28.8399  -21.2812   20.4484 C   0  0  0  0  0  0
  -28.1018  -24.8281   20.3692 C   0  0  0  0  0  0
  -29.4407  -22.5101   19.7761 N   0  0  0  0  0  0
  -29.8602  -15.9556   20.6024 N   0  0  0  0  0  0
  -31.6232  -21.4088   21.0715 F   0  0  0  0  0  0
  -27.6932  -18.2015   20.1323 Cl  0  0  0  0  0  0
  -31.4710  -12.6005   19.1768 H   0  0  0  0  0  0
  -30.3757  -11.5150   19.9824 H   0  0  0  0  0  0
  -29.8013  -11.7281   17.5366 H   0  0  0  0  0  0
  -29.6318  -13.4572   17.7125 H   0  0  0  0  0  0
  -27.9028  -11.2823   18.9296 H   0  0  0  0  0  0
  -27.3804  -12.5067   17.8026 H   0  0  0  0  0  0
  -27.6201  -14.2548   19.4477 H   0  0  0  0  0  0
  -28.7285  -12.2180   21.4417 H   0  0  0  0  0  0
  -28.4124  -13.9043   21.7755 H   0  0  0  0  0  0
  -25.2764   -9.5690   22.4749 H   0  0  0  0  0  0
  -24.0007   -7.4636   22.7469 H   0  0  0  0  0  0
  -21.0839   -8.8776   19.8953 H   0  0  0  0  0  0
  -22.3696  -10.9672   19.6159 H   0  0  0  0  0  0
  -21.2015   -7.6143   23.9711 H   0  0  0  0  0  0
  -21.1481   -6.0517   25.9074 H   0  0  0  0  0  0
  -22.0598   -2.7605   23.2841 H   0  0  0  0  0  0
  -22.4077  -11.9887   22.4839 H   0  0  0  0  0  0
  -21.1069  -13.1232   22.2635 H   0  0  0  0  0  0
  -24.6437  -15.8426   20.5320 H   0  0  0  0  0  0
  -26.2572  -15.6451   20.0841 H   0  0  0  0  0  0
  -26.7220  -32.5369   23.1050 H   0  0  0  0  0  0
  -25.0081  -33.9675   25.0379 H   0  0  0  0  0  0
  -22.7290  -31.2981   21.3941 H   0  0  0  0  0  0
  -23.3753  -35.9606   23.3297 H   0  0  0  0  0  0
  -24.3580  -36.8904   22.2053 H   0  0  0  0  0  0
  -23.7251  -37.6476   23.6670 H   0  0  0  0  0  0
  -26.1250  -31.5134   20.6123 H   0  0  0  0  0  0
  -26.8554  -30.8019   22.0188 H   0  0  0  0  0  0
  -28.1213  -28.8914   21.2095 H   0  0  0  0  0  0
  -25.9497  -25.9016   18.9733 H   0  0  0  0  0  0
  -23.9714  -27.3098   18.9899 H   0  0  0  0  0  0
  -23.7822  -30.5843   19.4031 H   0  0  0  0  0  0
  -22.7678  -29.2465   19.8506 H   0  0  0  0  0  0
  -25.1304  -36.1895   25.0813 H   0  0  0  0  0  0
  -20.9987  -28.3284   24.1389 H   0  0  0  0  0  0
  -20.5690  -26.2307   23.3619 H   0  0  0  0  0  0
  -21.6653  -26.7441   22.1205 H   0  0  0  0  0  0
  -19.6923  -25.6289   21.1255 H   0  0  0  0  0  0
  -19.6704  -27.3180   20.6736 H   0  0  0  0  0  0
  -17.4212  -26.6673   21.4023 H   0  0  0  0  0  0
  -18.0336  -26.0077   22.9023 H   0  0  0  0  0  0
  -19.7942  -30.7282   24.2250 H   0  0  0  0  0  0
  -17.5018  -31.6269   24.5161 H   0  0  0  0  0  0
  -15.5356  -30.2976   23.7669 H   0  0  0  0  0  0
  -15.8679  -28.0815   22.7069 H   0  0  0  0  0  0
  -24.5891  -30.7100   25.7771 H   0  0  0  0  0  0
  -24.8901  -32.2934   26.4820 H   0  0  0  0  0  0
  -25.8013  -30.8964   27.0241 H   0  0  0  0  0  0
  -26.2942  -29.6728   24.1247 H   0  0  0  0  0  0
  -27.3968  -29.7248   25.4798 H   0  0  0  0  0  0
  -27.8850  -30.4225   23.9541 H   0  0  0  0  0  0
  -27.2654  -33.3624   26.2068 H   0  0  0  0  0  0
  -28.3872  -32.6881   25.0340 H   0  0  0  0  0  0
  -28.0713  -31.8455   26.5431 H   0  0  0  0  0  0
  -28.2589  -38.0096   24.7505 H   0  0  0  0  0  0
  -28.1082  -36.2624   24.6281 H   0  0  0  0  0  0
  -27.2296  -37.1439   25.8862 H   0  0  0  0  0  0
  -20.9407  -29.8751   21.6843 H   0  0  0  0  0  0
  -26.0160  -38.2832   24.1408 H   0  0  0  0  0  0
  -32.3266  -16.9675   21.1229 H   0  0  0  0  0  0
  -34.0815  -18.4620   21.4195 H   0  0  0  0  0  0
  -33.5509  -19.8587   22.3616 H   0  0  0  0  0  0
  -33.9118  -20.0354   20.6422 H   0  0  0  0  0  0
  -29.5956  -25.1403   18.0991 H   0  0  0  0  0  0
  -30.8852  -23.9747   18.4045 H   0  0  0  0  0  0
  -30.6728  -25.3516   19.4875 H   0  0  0  0  0  0
  -28.5060  -21.5418   21.4536 H   0  0  0  0  0  0
  -27.9375  -20.9980   19.9059 H   0  0  0  0  0  0
  -28.0807  -24.6597   21.4459 H   0  0  0  0  0  0
  -27.1272  -24.5006   20.0154 H   0  0  0  0  0  0
  -28.8672  -15.7951   20.6691 H   0  0  0  0  0  0
  1 25  1  0  0  0
  1 30  2  0  0  0
  1 83  1  0  0  0
  2  3  1  0  0  0
  2 25  1  0  0  0
  2 86  1  0  0  0
  2 87  1  0  0  0
  3  4  1  0  0  0
  3 88  1  0  0  0
  3 89  1  0  0  0
  4  5  1  0  0  0
  4 90  1  0  0  0
  4 91  1  0  0  0
  5  6  1  0  0  0
  5 26  1  0  0  0
  5 92  1  0  0  0
  6 25  1  0  0  0
  6 93  1  0  0  0
  6 94  1  0  0  0
  7  8  2  0  0  0
  7 26  1  0  0  0
  7 29  1  0  0  0
  8  9  1  0  0  0
  8 22  1  0  0  0
  9 10  1  0  0  0
  9 27  2  0  0  0
 10 11  2  0  0  0
 10 15  1  0  0  0
 11 12  1  0  0  0
 11 95  1  0  0  0
 12 13  2  0  0  0
 12 96  1  0  0  0
 13 14  1  0  0  0
 13 31  1  0  0  0
 14 15  2  0  0  0
 14 97  1  0  0  0
 15 98  1  0  0  0
 16 17  2  0  0  0
 16 21  1  0  0  0
 16 31  1  0  0  0
 17 18  1  0  0  0
 17 99  1  0  0  0
 18 19  2  0  0  0
 18100  1  0  0  0
 19 20  1  0  0  0
 19 24  1  0  0  0
 20 21  2  0  0  0
 20101  1  0  0  0
 21 23  1  0  0  0
 22 28  1  0  0  0
 22 32  2  0  0  0
 26 27  1  0  0  0
 28102  1  0  0  0
 28103  1  0  0  0
 29104  1  0  0  0
 29105  1  0  0  0
 33 34  1  0  0  0
 33 66  1  0  0  0
 33 70  2  0  0  0
 34 36  1  0  0  0
 34 59  1  0  0  0
 34106  1  0  0  0
 35 44  2  0  0  0
 35 45  1  0  0  0
 35 68  1  0  0  0
 36 56  1  0  0  0
 36107  1  0  0  0
 37 39  1  0  0  0
 37 47  1  0  0  0
 37 66  1  0  0  0
 37108  1  0  0  0
 38 43  2  0  0  0
 38 46  1  0  0  0
 38 47  1  0  0  0
 39 64  1  0  0  0
 39 67  2  0  0  0
 40 52  1  0  0  0
 40 53  2  0  0  0
 40 58  1  0  0  0
 41109  1  0  0  0
 41110  1  0  0  0
 41111  1  0  0  0
 41 48  1  0  0  0
 42 43  1  0  0  0
 42 66  1  0  0  0
 42112  1  0  0  0
 42113  1  0  0  0
 43 44  1  0  0  0
 44114  1  0  0  0
 45 46  2  0  0  0
 45115  1  0  0  0
 46116  1  0  0  0
 47117  1  0  0  0
 47118  1  0  0  0
 48 56  1  0  0  0
 48 65  1  0  0  0
 48119  1  0  0  0
 49 50  1  0  0  0
 49 53  1  0  0  0
 49 64  1  0  0  0
 49120  1  0  0  0
 50 51  1  0  0  0
 50121  1  0  0  0
 50122  1  0  0  0
 51 52  1  0  0  0
 51123  1  0  0  0
 51124  1  0  0  0
 52125  1  0  0  0
 52126  1  0  0  0
 53 54  1  0  0  0
 54 55  2  0  0  0
 54127  1  0  0  0
 55 57  1  0  0  0
 55128  1  0  0  0
 56 69  2  0  0  0
 57 58  2  0  0  0
 57129  1  0  0  0
 58130  1  0  0  0
 59 60  1  0  0  0
 59 61  1  0  0  0
 59 62  1  0  0  0
 60131  1  0  0  0
 60132  1  0  0  0
 60133  1  0  0  0
 61134  1  0  0  0
 61135  1  0  0  0
 61136  1  0  0  0
 62137  1  0  0  0
 62138  1  0  0  0
 62139  1  0  0  0
 63 65  1  0  0  0
 63140  1  0  0  0
 63141  1  0  0  0
 63142  1  0  0  0
 64143  1  0  0  0
 65144  1  0  0  0
 68 81  1  0  0  0
 71 72  2  0  0  0
 71 74  1  0  0  0
 71145  1  0  0  0
 72 75  1  0  0  0
 72 78  1  0  0  0
 73 75  2  0  0  0
 73 76  1  0  0  0
 73 80  1  0  0  0
 74 76  2  0  0  0
 74 83  1  0  0  0
 75 84  1  0  0  0
 76 85  1  0  0  0
 77 79  1  0  0  0
 77 81  1  0  0  0
 77 82  2  0  0  0
 78146  1  0  0  0
 78147  1  0  0  0
 78148  1  0  0  0
 79149  1  0  0  0
 79150  1  0  0  0
 79151  1  0  0  0
 80 82  1  0  0  0
 80152  1  0  0  0
 80153  1  0  0  0
 81154  1  0  0  0
 81155  1  0  0  0
 83156  1  0  0  0
M  ISO  4   1 100  68 101  81 101  83 100
M  END
> <chiral flag>
0

> <version>
0

> <s_m_source_file>
/data/baiqing/PycharmProjects/Reinvent-master-3.2/result/LINK_invent/BTK/process_docking_weight1_custom_sum_contain_oxygen_bond_distance_aromatic_linkinvent_7_9_3/rearranged_h_0014.sdf

> <i_m_source_file_index>
80

> <r_mmod_Potential_Energy-OPLS-2005>
255.101959228516

> <r_mmod_Stretch_Energy-OPLS-2005>
157.756317138672

> <r_mmod_Bend_Energy-OPLS-2005>
220.758712768555

> <r_mmod_Torsional_Energy-OPLS-2005>
217.994171142578

> <r_mmod_Improper_Torsional_Energy-OPLS-2005>
5.53645944595337

> <r_mmod_Van_der_Waal_Energy-OPLS-2005>
140.734649658203

> <r_mmod_Electrostatic_Energy-OPLS-2005>
-390.752105712891

> <r_mmod_Solvation_Energy-OPLS-2005>
-200.19465637207

> <b_mmod_Minimization_Converged-OPLS-2005>
0

> <r_mmod_RMS_Derivative-OPLS-2005>
0.728828847408295

$$$$
80
                    3D
 Structure written by MMmdl.
160168  0  0  1  0            999 V2000
  -30.5545  -15.0141   20.4221 C   0  0  0  0  0  0
  -30.4324  -12.6376   19.5109 C   0  0  0  0  0  0
  -29.5181  -12.5303   18.2693 C   0  0  0  0  0  0
  -28.0605  -12.2937   18.6985 C   0  0  0  0  0  0
  -27.6213  -13.2573   19.8314 C   0  0  2  0  0  0
  -28.6595  -13.3458   20.9715 C   0  0  0  0  0  0
  -25.2423  -13.8248   20.5728 C   0  0  0  0  0  0
  -24.1761  -13.0447   20.9250 C   0  0  0  0  0  0
  -24.6394  -11.6938   20.8788 C   0  0  0  0  0  0
  -23.9093  -10.4297   21.0432 C   0  0  0  0  0  0
  -24.3635   -9.4203   21.9202 C   0  0  0  0  0  0
  -23.6301   -8.2243   22.0757 C   0  0  0  0  0  0
  -22.4281   -8.0294   21.3545 C   0  0  0  0  0  0
  -21.9932   -9.0276   20.4649 C   0  0  0  0  0  0
  -22.7271  -10.2146   20.3069 C   0  0  0  0  0  0
  -21.6853   -6.0752   22.5287 C   0  0  0  0  0  0
  -21.4010   -6.5651   23.8220 C   0  0  0  0  0  0
  -21.3649   -5.6800   24.9179 C   0  0  0  0  0  0
  -21.6042   -4.3063   24.7227 C   0  0  0  0  0  0
  -21.8820   -3.8159   23.4345 C   0  0  0  0  0  0
  -21.9186   -4.6980   22.3400 C   0  0  0  0  0  0
  -22.7779  -13.5215   21.1902 C   0  0  0  0  0  0
  -22.1662   -4.2169   21.0975 F   0  0  0  0  0  0
  -21.5617   -3.4538   25.7732 F   0  0  0  0  0  0
  -29.9285  -13.7624   20.3611 N   0  0  0  0  0  0
  -26.2845  -12.9493   20.3256 N   0  0  0  0  0  0
  -25.9321  -11.6616   20.5767 N   0  0  0  0  0  0
  -22.0420  -12.8198   22.0448 N   0  0  0  0  0  0
  -25.4090  -15.1973   20.4113 N   0  0  0  0  0  0
  -31.7672  -14.9938   20.1835 O   0  0  0  0  0  0
  -21.6636   -6.8897   21.4249 O   0  0  0  0  0  0
  -22.3462  -14.5516   20.6747 O   0  0  0  0  0  0
  -24.6460  -31.8366   23.1854 C   0  0  0  0  0  0
  -25.9224  -32.4632   23.8251 C   0  0  1  0  0  0
  -27.2228  -27.0941   20.1677 C   0  0  0  0  0  0
  -25.5972  -33.8455   24.2132 N   0  0  0  0  0  0
  -23.4533  -30.4522   21.5300 C   0  0  2  0  0  0
  -24.9052  -28.8703   20.1061 C   0  0  0  0  0  0
  -22.7598  -29.4472   22.4826 C   0  0  0  0  0  0
  -18.0291  -28.1370   22.8431 C   0  0  0  0  0  0
  -24.1499  -36.7217   23.2645 C   0  0  0  0  0  0
  -26.0111  -30.6948   21.3969 C   0  0  0  0  0  0
  -26.0792  -29.3061   20.7313 C   0  0  0  0  0  0
  -27.2344  -28.4339   20.7422 C   0  0  0  0  0  0
  -26.0248  -26.7661   19.4967 C   0  0  0  0  0  0
  -24.8933  -27.6166   19.4726 C   0  0  0  0  0  0
  -23.6836  -29.7785   20.1505 C   0  0  0  0  0  0
  -25.4129  -36.2961   24.0287 C   0  0  1  0  0  0
  -20.5910  -28.3695   23.1190 C   0  0  2  0  0  0
  -20.6781  -26.9381   22.5387 C   0  0  0  0  0  0
  -19.5760  -26.6345   21.5186 C   0  0  0  0  0  0
  -18.1931  -26.7907   22.1576 C   0  0  0  0  0  0
  -19.1555  -28.8857   23.2789 C   0  0  0  0  0  0
  -18.9489  -30.1459   23.8793 C   0  0  0  0  0  0
  -17.6495  -30.6570   24.0538 C   0  0  0  0  0  0
  -25.9086  -34.9358   23.5008 C   0  0  0  0  0  0
  -16.5370  -29.9060   23.6358 C   0  0  0  0  0  0
  -16.7280  -28.6493   23.0335 C   0  0  0  0  0  0
  -26.4547  -31.6582   25.0755 C   0  0  0  0  0  0
  -25.3727  -31.3809   26.1465 C   0  0  0  0  0  0
  -27.0490  -30.2959   24.6489 C   0  0  0  0  0  0
  -27.6003  -32.4466   25.7545 C   0  0  0  0  0  0
  -27.5565  -37.1735   24.8445 C   0  0  0  0  0  0
  -21.4276  -29.3013   22.3570 N   0  0  0  0  0  0
  -26.4261  -37.3704   23.9416 N   0  0  0  0  0  0
  -24.7216  -31.0193   22.0910 N   0  0  0  0  0  0
  -23.4222  -28.8000   23.2970 O   0  0  0  0  0  0
  -28.2850  -26.1164   20.3086 O   0  0  0  0  0  0
  -26.5668  -34.8856   22.4594 O   0  0  0  0  0  0
  -23.5572  -32.1265   23.7071 O   0  0  0  0  0  0
  -31.6465  -17.8940   20.3932 C   0  0  0  0  0  0
  -29.9061  -19.1229   18.5668 C   0  0  0  0  0  0
  -32.1620  -18.4461   19.2002 C   0  0  0  0  0  0
  -30.2430  -17.7642   20.5046 C   0  0  0  0  0  0
  -29.5418  -18.9795   19.9238 C   0  0  0  0  0  0
  -31.2638  -18.9433   18.2309 C   0  0  0  0  0  0
  -28.9219  -21.6761   19.9880 C   0  0  0  0  0  0
  -33.6488  -18.3707   18.9117 C   0  0  0  0  0  0
  -27.0382  -22.9317   21.3300 C   0  0  0  0  0  0
  -29.0103  -20.2859   22.0381 C   0  0  0  0  0  0
  -28.3322  -24.6137   19.8319 C   0  0  0  0  0  0
  -28.4259  -23.1307   20.6887 C   0  0  1  0  0  0
  -29.8256  -16.2601   20.5273 N   0  0  0  0  0  0
  -29.1441  -20.3559   20.5817 N   0  0  0  0  0  0
  -29.1265  -21.8283   18.7838 O   0  0  0  0  0  0
  -31.7114  -19.3253   17.0116 F   0  0  0  0  0  0
  -31.4650  -12.7918   19.1912 H   0  0  0  0  0  0
  -30.4349  -11.7033   20.0738 H   0  0  0  0  0  0
  -29.8528  -11.7213   17.6188 H   0  0  0  0  0  0
  -29.5860  -13.4479   17.6837 H   0  0  0  0  0  0
  -27.9868  -11.2645   19.0495 H   0  0  0  0  0  0
  -27.3888  -12.3700   17.8434 H   0  0  0  0  0  0
  -27.5661  -14.2438   19.3688 H   0  0  0  0  0  0
  -28.7618  -12.3930   21.4933 H   0  0  0  0  0  0
  -28.3433  -14.0766   21.7187 H   0  0  0  0  0  0
  -25.2774   -9.5674   22.4791 H   0  0  0  0  0  0
  -24.0002   -7.4634   22.7481 H   0  0  0  0  0  0
  -21.0868   -8.8822   19.8953 H   0  0  0  0  0  0
  -22.3751  -10.9700   19.6189 H   0  0  0  0  0  0
  -21.2011   -7.6154   23.9738 H   0  0  0  0  0  0
  -21.1468   -6.0518   25.9084 H   0  0  0  0  0  0
  -22.0607   -2.7620   23.2840 H   0  0  0  0  0  0
  -22.4013  -11.9841   22.4817 H   0  0  0  0  0  0
  -21.1048  -13.1251   22.2673 H   0  0  0  0  0  0
  -24.6389  -15.8497   20.5087 H   0  0  0  0  0  0
  -26.2530  -15.6348   20.0648 H   0  0  0  0  0  0
  -26.7294  -32.5167   23.0970 H   0  0  0  0  0  0
  -25.0143  -33.9577   25.0291 H   0  0  0  0  0  0
  -22.7578  -31.2783   21.3728 H   0  0  0  0  0  0
  -23.3760  -35.9556   23.3277 H   0  0  0  0  0  0
  -24.3560  -36.8913   22.2066 H   0  0  0  0  0  0
  -23.7280  -37.6390   23.6748 H   0  0  0  0  0  0
  -26.1960  -31.4584   20.6402 H   0  0  0  0  0  0
  -26.8677  -30.7193   22.0593 H   0  0  0  0  0  0
  -28.1285  -28.7582   21.2571 H   0  0  0  0  0  0
  -25.9170  -25.8035   19.0220 H   0  0  0  0  0  0
  -23.9939  -27.2715   18.9814 H   0  0  0  0  0  0
  -23.8279  -30.5562   19.3994 H   0  0  0  0  0  0
  -22.7986  -29.2236   19.8332 H   0  0  0  0  0  0
  -25.1334  -36.1749   25.0775 H   0  0  0  0  0  0
  -20.9974  -28.3304   24.1316 H   0  0  0  0  0  0
  -20.5696  -26.2275   23.3597 H   0  0  0  0  0  0
  -21.6639  -26.7373   22.1155 H   0  0  0  0  0  0
  -19.6933  -25.6258   21.1211 H   0  0  0  0  0  0
  -19.6740  -27.3154   20.6718 H   0  0  0  0  0  0
  -17.4210  -26.6640   21.3968 H   0  0  0  0  0  0
  -18.0306  -26.0074   22.8986 H   0  0  0  0  0  0
  -19.7990  -30.7275   24.2098 H   0  0  0  0  0  0
  -17.5068  -31.6239   24.5153 H   0  0  0  0  0  0
  -15.5369  -30.2928   23.7777 H   0  0  0  0  0  0
  -15.8658  -28.0810   22.7073 H   0  0  0  0  0  0
  -24.5844  -30.7226   25.7794 H   0  0  0  0  0  0
  -24.9003  -32.3022   26.4887 H   0  0  0  0  0  0
  -25.8013  -30.8965   27.0256 H   0  0  0  0  0  0
  -26.3149  -29.6574   24.1562 H   0  0  0  0  0  0
  -27.4075  -29.7394   25.5159 H   0  0  0  0  0  0
  -27.9068  -30.4119   23.9862 H   0  0  0  0  0  0
  -27.2486  -33.3783   26.2007 H   0  0  0  0  0  0
  -28.3863  -32.7052   25.0434 H   0  0  0  0  0  0
  -28.0644  -31.8729   26.5584 H   0  0  0  0  0  0
  -28.2495  -38.0107   24.7552 H   0  0  0  0  0  0
  -28.1133  -36.2625   24.6195 H   0  0  0  0  0  0
  -27.2268  -37.1280   25.8837 H   0  0  0  0  0  0
  -20.9490  -29.8711   21.6727 H   0  0  0  0  0  0
  -26.0094  -38.2724   24.1556 H   0  0  0  0  0  0
  -32.3168  -17.2811   20.9776 H   0  0  0  0  0  0
  -29.3165  -19.6938   17.8705 H   0  0  0  0  0  0
  -33.9172  -17.3621   18.6003 H   0  0  0  0  0  0
  -34.2241  -18.6227   19.8013 H   0  0  0  0  0  0
  -33.9369  -19.0569   18.1152 H   0  0  0  0  0  0
  -26.9780  -22.0381   21.9474 H   0  0  0  0  0  0
  -26.2678  -22.8455   20.5620 H   0  0  0  0  0  0
  -26.7722  -23.7764   21.9674 H   0  0  0  0  0  0
  -27.9987  -19.9851   22.3111 H   0  0  0  0  0  0
  -29.2289  -21.2323   22.5336 H   0  0  0  0  0  0
  -29.6908  -19.5514   22.4704 H   0  0  0  0  0  0
  -27.5791  -24.4843   19.0568 H   0  0  0  0  0  0
  -29.2603  -24.6156   19.2617 H   0  0  0  0  0  0
  -29.1413  -23.3011   21.4922 H   0  0  0  0  0  0
  -28.8295  -16.1172   20.6011 H   0  0  0  0  0  0
  1 25  1  0  0  0
  1 30  2  0  0  0
  1 83  1  0  0  0
  2  3  1  0  0  0
  2 25  1  0  0  0
  2 87  1  0  0  0
  2 88  1  0  0  0
  3  4  1  0  0  0
  3 89  1  0  0  0
  3 90  1  0  0  0
  4  5  1  0  0  0
  4 91  1  0  0  0
  4 92  1  0  0  0
  5  6  1  0  0  0
  5 26  1  0  0  0
  5 93  1  0  0  0
  6 25  1  0  0  0
  6 94  1  0  0  0
  6 95  1  0  0  0
  7  8  2  0  0  0
  7 26  1  0  0  0
  7 29  1  0  0  0
  8  9  1  0  0  0
  8 22  1  0  0  0
  9 10  1  0  0  0
  9 27  2  0  0  0
 10 11  2  0  0  0
 10 15  1  0  0  0
 11 12  1  0  0  0
 11 96  1  0  0  0
 12 13  2  0  0  0
 12 97  1  0  0  0
 13 14  1  0  0  0
 13 31  1  0  0  0
 14 15  2  0  0  0
 14 98  1  0  0  0
 15 99  1  0  0  0
 16 17  2  0  0  0
 16 21  1  0  0  0
 16 31  1  0  0  0
 17 18  1  0  0  0
 17100  1  0  0  0
 18 19  2  0  0  0
 18101  1  0  0  0
 19 20  1  0  0  0
 19 24  1  0  0  0
 20 21  2  0  0  0
 20102  1  0  0  0
 21 23  1  0  0  0
 22 28  1  0  0  0
 22 32  2  0  0  0
 26 27  1  0  0  0
 28103  1  0  0  0
 28104  1  0  0  0
 29105  1  0  0  0
 29106  1  0  0  0
 33 34  1  0  0  0
 33 66  1  0  0  0
 33 70  2  0  0  0
 34 36  1  0  0  0
 34 59  1  0  0  0
 34107  1  0  0  0
 35 44  2  0  0  0
 35 45  1  0  0  0
 35 68  1  0  0  0
 36 56  1  0  0  0
 36108  1  0  0  0
 37 39  1  0  0  0
 37 47  1  0  0  0
 37 66  1  0  0  0
 37109  1  0  0  0
 38 43  2  0  0  0
 38 46  1  0  0  0
 38 47  1  0  0  0
 39 64  1  0  0  0
 39 67  2  0  0  0
 40 52  1  0  0  0
 40 53  2  0  0  0
 40 58  1  0  0  0
 41110  1  0  0  0
 41111  1  0  0  0
 41112  1  0  0  0
 41 48  1  0  0  0
 42 43  1  0  0  0
 42 66  1  0  0  0
 42113  1  0  0  0
 42114  1  0  0  0
 43 44  1  0  0  0
 44115  1  0  0  0
 45 46  2  0  0  0
 45116  1  0  0  0
 46117  1  0  0  0
 47118  1  0  0  0
 47119  1  0  0  0
 48 56  1  0  0  0
 48 65  1  0  0  0
 48120  1  0  0  0
 49 50  1  0  0  0
 49 53  1  0  0  0
 49 64  1  0  0  0
 49121  1  0  0  0
 50 51  1  0  0  0
 50122  1  0  0  0
 50123  1  0  0  0
 51 52  1  0  0  0
 51124  1  0  0  0
 51125  1  0  0  0
 52126  1  0  0  0
 52127  1  0  0  0
 53 54  1  0  0  0
 54 55  2  0  0  0
 54128  1  0  0  0
 55 57  1  0  0  0
 55129  1  0  0  0
 56 69  2  0  0  0
 57 58  2  0  0  0
 57130  1  0  0  0
 58131  1  0  0  0
 59 60  1  0  0  0
 59 61  1  0  0  0
 59 62  1  0  0  0
 60132  1  0  0  0
 60133  1  0  0  0
 60134  1  0  0  0
 61135  1  0  0  0
 61136  1  0  0  0
 61137  1  0  0  0
 62138  1  0  0  0
 62139  1  0  0  0
 62140  1  0  0  0
 63 65  1  0  0  0
 63141  1  0  0  0
 63142  1  0  0  0
 63143  1  0  0  0
 64144  1  0  0  0
 65145  1  0  0  0
 68 81  1  0  0  0
 71 73  2  0  0  0
 71 74  1  0  0  0
 71146  1  0  0  0
 72 75  1  0  0  0
 72 76  2  0  0  0
 72147  1  0  0  0
 73 76  1  0  0  0
 73 78  1  0  0  0
 74 75  2  0  0  0
 74 83  1  0  0  0
 75 84  1  0  0  0
 76 86  1  0  0  0
 77 82  1  0  0  0
 77 84  1  0  0  0
 77 85  2  0  0  0
 78148  1  0  0  0
 78149  1  0  0  0
 78150  1  0  0  0
 79151  1  0  0  0
 79152  1  0  0  0
 79153  1  0  0  0
 79 82  1  0  0  0
 80 84  1  0  0  0
 80154  1  0  0  0
 80155  1  0  0  0
 80156  1  0  0  0
 81 82  1  0  0  0
 81157  1  0  0  0
 81158  1  0  0  0
 82159  1  0  0  0
 83160  1  0  0  0
M  ISO  4   1 100  68 101  81 101  83 100
M  END
> <chiral flag>
0

> <version>
0

> <s_m_source_file>
/data/baiqing/PycharmProjects/Reinvent-master-3.2/result/LINK_invent/BTK/process_docking_weight1_custom_sum_contain_oxygen_bond_distance_aromatic_linkinvent_7_9_3/rearranged_h_0014.sdf

> <i_m_source_file_index>
81

> <r_mmod_Potential_Energy-OPLS-2005>
979.330810546875

> <r_mmod_Stretch_Energy-OPLS-2005>
353.697235107422

> <r_mmod_Bend_Energy-OPLS-2005>
321.60595703125

> <r_mmod_Torsional_Energy-OPLS-2005>
484.667236328125

> <r_mmod_Improper_Torsional_Energy-OPLS-2005>
29.2740879058838

> <r_mmod_Van_der_Waal_Energy-OPLS-2005>
152.108795166016

> <r_mmod_Electrostatic_Energy-OPLS-2005>
-385.352569580078

> <r_mmod_Solvation_Energy-OPLS-2005>
-213.888793945312

> <b_mmod_Minimization_Converged-OPLS-2005>
0

> <r_mmod_RMS_Derivative-OPLS-2005>
2.9931309223175

$$$$
81
                    3D
 Structure written by MMmdl.
156164  0  0  1  0            999 V2000
  -30.5937  -14.8023   20.4438 C   0  0  0  0  0  0
  -30.4388  -12.4942   19.4755 C   0  0  0  0  0  0
  -29.5138  -12.5043   18.2389 C   0  0  0  0  0  0
  -28.0457  -12.3070   18.6624 C   0  0  0  0  0  0
  -27.6377  -13.2301   19.8406 C   0  0  2  0  0  0
  -28.6823  -13.2062   20.9761 C   0  0  0  0  0  0
  -25.2520  -13.8197   20.5686 C   0  0  0  0  0  0
  -24.1814  -13.0446   20.9194 C   0  0  0  0  0  0
  -24.6408  -11.6914   20.8759 C   0  0  0  0  0  0
  -23.9088  -10.4281   21.0436 C   0  0  0  0  0  0
  -24.3636   -9.4188   21.9206 C   0  0  0  0  0  0
  -23.6291   -8.2238   22.0781 C   0  0  0  0  0  0
  -22.4271   -8.0295   21.3564 C   0  0  0  0  0  0
  -21.9908   -9.0270   20.4665 C   0  0  0  0  0  0
  -22.7263  -10.2136   20.3078 C   0  0  0  0  0  0
  -21.6848   -6.0739   22.5279 C   0  0  0  0  0  0
  -21.4010   -6.5643   23.8214 C   0  0  0  0  0  0
  -21.3656   -5.6801   24.9173 C   0  0  0  0  0  0
  -21.6047   -4.3059   24.7224 C   0  0  0  0  0  0
  -21.8822   -3.8146   23.4343 C   0  0  0  0  0  0
  -21.9183   -4.6961   22.3405 C   0  0  0  0  0  0
  -22.7831  -13.5230   21.1844 C   0  0  0  0  0  0
  -22.1661   -4.2158   21.0977 F   0  0  0  0  0  0
  -21.5621   -3.4547   25.7735 F   0  0  0  0  0  0
  -29.9742  -13.5712   20.3823 N   0  0  0  0  0  0
  -26.2930  -12.9394   20.3240 N   0  0  0  0  0  0
  -25.9332  -11.6537   20.5742 N   0  0  0  0  0  0
  -22.0461  -12.8249   22.0399 N   0  0  0  0  0  0
  -25.4204  -15.1933   20.4150 N   0  0  0  0  0  0
  -31.7950  -14.8820   20.1734 O   0  0  0  0  0  0
  -21.6634   -6.8887   21.4250 O   0  0  0  0  0  0
  -22.3527  -14.5535   20.6679 O   0  0  0  0  0  0
  -24.6347  -31.8510   23.1936 C   0  0  0  0  0  0
  -25.9163  -32.4720   23.8297 C   0  0  1  0  0  0
  -27.2251  -27.2383   20.1361 C   0  0  0  0  0  0
  -25.5937  -33.8522   24.2218 N   0  0  0  0  0  0
  -23.4319  -30.4729   21.5348 C   0  0  2  0  0  0
  -24.8790  -28.9089   20.1100 C   0  0  0  0  0  0
  -22.7512  -29.4605   22.4885 C   0  0  0  0  0  0
  -18.0303  -28.1408   22.8483 C   0  0  0  0  0  0
  -24.1482  -36.7285   23.2636 C   0  0  0  0  0  0
  -25.9778  -30.7590   21.3727 C   0  0  0  0  0  0
  -26.0504  -29.3776   20.7186 C   0  0  0  0  0  0
  -27.2244  -28.5551   20.7170 C   0  0  0  0  0  0
  -26.0304  -26.8385   19.4989 C   0  0  0  0  0  0
  -24.8757  -27.6487   19.4883 C   0  0  0  0  0  0
  -23.6496  -29.7990   20.1541 C   0  0  0  0  0  0
  -25.4107  -36.3045   24.0317 C   0  0  1  0  0  0
  -20.5909  -28.3735   23.1247 C   0  0  2  0  0  0
  -20.6786  -26.9446   22.5405 C   0  0  0  0  0  0
  -19.5754  -26.6401   21.5214 C   0  0  0  0  0  0
  -18.1936  -26.7944   22.1631 C   0  0  0  0  0  0
  -19.1556  -28.8888   23.2858 C   0  0  0  0  0  0
  -18.9475  -30.1484   23.8877 C   0  0  0  0  0  0
  -17.6475  -30.6593   24.0574 C   0  0  0  0  0  0
  -25.9056  -34.9417   23.5071 C   0  0  0  0  0  0
  -16.5367  -29.9096   23.6337 C   0  0  0  0  0  0
  -16.7288  -28.6523   23.0338 C   0  0  0  0  0  0
  -26.4519  -31.6558   25.0701 C   0  0  0  0  0  0
  -25.3748  -31.3738   26.1433 C   0  0  0  0  0  0
  -27.0360  -30.2950   24.6224 C   0  0  0  0  0  0
  -27.6035  -32.4336   25.7491 C   0  0  0  0  0  0
  -27.5571  -37.1794   24.8462 C   0  0  0  0  0  0
  -21.4222  -29.3072   22.3628 N   0  0  0  0  0  0
  -26.4280  -37.3752   23.9410 N   0  0  0  0  0  0
  -24.7006  -31.0478   22.0894 N   0  0  0  0  0  0
  -23.4180  -28.8154   23.3015 O   0  0  0  0  0  0
  -28.3283  -26.3499   20.2020 O   0  0  0  0  0  0
  -26.5642  -34.8910   22.4648 O   0  0  0  0  0  0
  -23.5499  -32.1356   23.7231 O   0  0  0  0  0  0
  -28.4411  -18.6920   19.4106 C   0  0  0  0  0  0
  -28.1330  -21.1590   19.4397 C   0  0  0  0  0  0
  -27.7898  -19.8701   18.9536 C   0  0  0  0  0  0
  -29.4877  -18.7476   20.3570 C   0  0  0  0  0  0
  -29.1621  -21.3243   20.3855 C   0  0  0  0  0  0
  -29.8280  -20.0927   20.8170 C   0  0  0  0  0  0
  -29.2449  -23.9177   20.8202 C   0  0  0  0  0  0
  -26.7154  -19.7534   17.8897 C   0  0  0  0  0  0
  -30.0980  -24.8116   21.7017 C   0  0  0  0  0  0
  -30.2740  -17.4167   20.8261 C   0  0  0  0  0  0
  -28.1688  -24.8425   20.0653 C   0  0  0  0  0  0
  -29.5654  -22.6274   20.9023 N   0  0  0  0  0  0
  -29.8237  -15.9555   20.6186 N   0  0  0  0  0  0
  -31.1306  -20.2381   21.9479 Cl  0  0  0  0  0  0
  -31.4765  -12.6328   19.1682 H   0  0  0  0  0  0
  -30.4029  -11.5290   19.9821 H   0  0  0  0  0  0
  -29.8105  -11.7223   17.5387 H   0  0  0  0  0  0
  -29.6246  -13.4500   17.7037 H   0  0  0  0  0  0
  -27.9298  -11.2633   18.9618 H   0  0  0  0  0  0
  -27.3813  -12.4555   17.8121 H   0  0  0  0  0  0
  -27.6206  -14.2410   19.4335 H   0  0  0  0  0  0
  -28.7338  -12.2227   21.4453 H   0  0  0  0  0  0
  -28.4084  -13.9099   21.7621 H   0  0  0  0  0  0
  -25.2793   -9.5645   22.4766 H   0  0  0  0  0  0
  -23.9984   -7.4629   22.7520 H   0  0  0  0  0  0
  -21.0821   -8.8815   19.8985 H   0  0  0  0  0  0
  -22.3750  -10.9679   19.6180 H   0  0  0  0  0  0
  -21.2021   -7.6151   23.9713 H   0  0  0  0  0  0
  -21.1475   -6.0531   25.9077 H   0  0  0  0  0  0
  -22.0602   -2.7609   23.2845 H   0  0  0  0  0  0
  -22.4058  -11.9919   22.4810 H   0  0  0  0  0  0
  -21.1102  -13.1332   22.2627 H   0  0  0  0  0  0
  -24.6541  -15.8452   20.5433 H   0  0  0  0  0  0
  -26.2656  -15.6368   20.0827 H   0  0  0  0  0  0
  -26.7230  -32.5365   23.1043 H   0  0  0  0  0  0
  -25.0052  -33.9627   25.0339 H   0  0  0  0  0  0
  -22.7306  -31.2963   21.3852 H   0  0  0  0  0  0
  -23.3728  -35.9634   23.3287 H   0  0  0  0  0  0
  -24.3580  -36.8922   22.2054 H   0  0  0  0  0  0
  -23.7260  -37.6486   23.6682 H   0  0  0  0  0  0
  -26.1152  -31.5176   20.6008 H   0  0  0  0  0  0
  -26.8551  -30.8112   22.0072 H   0  0  0  0  0  0
  -28.1200  -28.9098   21.2065 H   0  0  0  0  0  0
  -25.9671  -25.8720   19.0203 H   0  0  0  0  0  0
  -23.9778  -27.2823   19.0089 H   0  0  0  0  0  0
  -23.7755  -30.5712   19.3946 H   0  0  0  0  0  0
  -22.7678  -29.2314   19.8534 H   0  0  0  0  0  0
  -25.1295  -36.1866   25.0811 H   0  0  0  0  0  0
  -21.0000  -28.3328   24.1367 H   0  0  0  0  0  0
  -20.5683  -26.2348   23.3625 H   0  0  0  0  0  0
  -21.6645  -26.7465   22.1195 H   0  0  0  0  0  0
  -19.6906  -25.6306   21.1251 H   0  0  0  0  0  0
  -19.6661  -27.3200   20.6728 H   0  0  0  0  0  0
  -17.4197  -26.6691   21.4039 H   0  0  0  0  0  0
  -18.0339  -26.0095   22.9039 H   0  0  0  0  0  0
  -19.7954  -30.7323   24.2193 H   0  0  0  0  0  0
  -17.5031  -31.6259   24.5211 H   0  0  0  0  0  0
  -15.5357  -30.2992   23.7679 H   0  0  0  0  0  0
  -15.8694  -28.0850   22.7026 H   0  0  0  0  0  0
  -24.5904  -30.7090   25.7802 H   0  0  0  0  0  0
  -24.8978  -32.2917   26.4861 H   0  0  0  0  0  0
  -25.8084  -30.8931   27.0202 H   0  0  0  0  0  0
  -26.2943  -29.6686   24.1248 H   0  0  0  0  0  0
  -27.3993  -29.7233   25.4770 H   0  0  0  0  0  0
  -27.8843  -30.4171   23.9492 H   0  0  0  0  0  0
  -27.2570  -33.3619   26.2042 H   0  0  0  0  0  0
  -28.3856  -32.6921   25.0347 H   0  0  0  0  0  0
  -28.0686  -31.8494   26.5439 H   0  0  0  0  0  0
  -28.2577  -38.0099   24.7502 H   0  0  0  0  0  0
  -28.1076  -36.2626   24.6283 H   0  0  0  0  0  0
  -27.2300  -37.1441   25.8869 H   0  0  0  0  0  0
  -20.9419  -29.8775   21.6811 H   0  0  0  0  0  0
  -26.0142  -38.2817   24.1419 H   0  0  0  0  0  0
  -28.1526  -17.7340   19.0029 H   0  0  0  0  0  0
  -27.6121  -22.0274   19.0652 H   0  0  0  0  0  0
  -25.8522  -19.2061   18.2686 H   0  0  0  0  0  0
  -27.1026  -19.2260   17.0179 H   0  0  0  0  0  0
  -26.3722  -20.7345   17.5570 H   0  0  0  0  0  0
  -29.4631  -25.3729   22.3881 H   0  0  0  0  0  0
  -30.6663  -25.5174   21.0964 H   0  0  0  0  0  0
  -30.8023  -24.2335   22.3015 H   0  0  0  0  0  0
  -30.3866  -17.5128   21.9062 H   0  0  0  0  0  0
  -31.2871  -17.5106   20.4345 H   0  0  0  0  0  0
  -27.1913  -24.5477   20.4450 H   0  0  0  0  0  0
  -28.1782  -24.5887   19.0041 H   0  0  0  0  0  0
  -28.8378  -15.7922   20.7525 H   0  0  0  0  0  0
  1 25  1  0  0  0
  1 30  2  0  0  0
  1 83  1  0  0  0
  2  3  1  0  0  0
  2 25  1  0  0  0
  2 85  1  0  0  0
  2 86  1  0  0  0
  3  4  1  0  0  0
  3 87  1  0  0  0
  3 88  1  0  0  0
  4  5  1  0  0  0
  4 89  1  0  0  0
  4 90  1  0  0  0
  5  6  1  0  0  0
  5 26  1  0  0  0
  5 91  1  0  0  0
  6 25  1  0  0  0
  6 92  1  0  0  0
  6 93  1  0  0  0
  7  8  2  0  0  0
  7 26  1  0  0  0
  7 29  1  0  0  0
  8  9  1  0  0  0
  8 22  1  0  0  0
  9 10  1  0  0  0
  9 27  2  0  0  0
 10 11  2  0  0  0
 10 15  1  0  0  0
 11 12  1  0  0  0
 11 94  1  0  0  0
 12 13  2  0  0  0
 12 95  1  0  0  0
 13 14  1  0  0  0
 13 31  1  0  0  0
 14 15  2  0  0  0
 14 96  1  0  0  0
 15 97  1  0  0  0
 16 17  2  0  0  0
 16 21  1  0  0  0
 16 31  1  0  0  0
 17 18  1  0  0  0
 17 98  1  0  0  0
 18 19  2  0  0  0
 18 99  1  0  0  0
 19 20  1  0  0  0
 19 24  1  0  0  0
 20 21  2  0  0  0
 20100  1  0  0  0
 21 23  1  0  0  0
 22 28  1  0  0  0
 22 32  2  0  0  0
 26 27  1  0  0  0
 28101  1  0  0  0
 28102  1  0  0  0
 29103  1  0  0  0
 29104  1  0  0  0
 33 34  1  0  0  0
 33 66  1  0  0  0
 33 70  2  0  0  0
 34 36  1  0  0  0
 34 59  1  0  0  0
 34105  1  0  0  0
 35 44  2  0  0  0
 35 45  1  0  0  0
 35 68  1  0  0  0
 36 56  1  0  0  0
 36106  1  0  0  0
 37 39  1  0  0  0
 37 47  1  0  0  0
 37 66  1  0  0  0
 37107  1  0  0  0
 38 43  2  0  0  0
 38 46  1  0  0  0
 38 47  1  0  0  0
 39 64  1  0  0  0
 39 67  2  0  0  0
 40 52  1  0  0  0
 40 53  2  0  0  0
 40 58  1  0  0  0
 41108  1  0  0  0
 41109  1  0  0  0
 41110  1  0  0  0
 41 48  1  0  0  0
 42 43  1  0  0  0
 42 66  1  0  0  0
 42111  1  0  0  0
 42112  1  0  0  0
 43 44  1  0  0  0
 44113  1  0  0  0
 45 46  2  0  0  0
 45114  1  0  0  0
 46115  1  0  0  0
 47116  1  0  0  0
 47117  1  0  0  0
 48 56  1  0  0  0
 48 65  1  0  0  0
 48118  1  0  0  0
 49 50  1  0  0  0
 49 53  1  0  0  0
 49 64  1  0  0  0
 49119  1  0  0  0
 50 51  1  0  0  0
 50120  1  0  0  0
 50121  1  0  0  0
 51 52  1  0  0  0
 51122  1  0  0  0
 51123  1  0  0  0
 52124  1  0  0  0
 52125  1  0  0  0
 53 54  1  0  0  0
 54 55  2  0  0  0
 54126  1  0  0  0
 55 57  1  0  0  0
 55127  1  0  0  0
 56 69  2  0  0  0
 57 58  2  0  0  0
 57128  1  0  0  0
 58129  1  0  0  0
 59 60  1  0  0  0
 59 61  1  0  0  0
 59 62  1  0  0  0
 60130  1  0  0  0
 60131  1  0  0  0
 60132  1  0  0  0
 61133  1  0  0  0
 61134  1  0  0  0
 61135  1  0  0  0
 62136  1  0  0  0
 62137  1  0  0  0
 62138  1  0  0  0
 63 65  1  0  0  0
 63139  1  0  0  0
 63140  1  0  0  0
 63141  1  0  0  0
 64142  1  0  0  0
 65143  1  0  0  0
 68 81  1  0  0  0
 71 73  2  0  0  0
 71 74  1  0  0  0
 71144  1  0  0  0
 72 73  1  0  0  0
 72 75  2  0  0  0
 72145  1  0  0  0
 73 78  1  0  0  0
 74 76  2  0  0  0
 74 80  1  0  0  0
 75 76  1  0  0  0
 75 82  1  0  0  0
 76 84  1  0  0  0
 77 79  1  0  0  0
 77 81  1  0  0  0
 77 82  2  0  0  0
 78146  1  0  0  0
 78147  1  0  0  0
 78148  1  0  0  0
 79149  1  0  0  0
 79150  1  0  0  0
 79151  1  0  0  0
 80 83  1  0  0  0
 80152  1  0  0  0
 80153  1  0  0  0
 81154  1  0  0  0
 81155  1  0  0  0
 83156  1  0  0  0
M  ISO  4   1 100  68 101  81 101  83 100
M  END
> <chiral flag>
0

> <version>
0

> <s_m_source_file>
/data/baiqing/PycharmProjects/Reinvent-master-3.2/result/LINK_invent/BTK/process_docking_weight1_custom_sum_contain_oxygen_bond_distance_aromatic_linkinvent_7_9_3/rearranged_h_0014.sdf

> <i_m_source_file_index>
82

> <r_mmod_Potential_Energy-OPLS-2005>
231.074783325195

> <r_mmod_Stretch_Energy-OPLS-2005>
145.883422851562

> <r_mmod_Bend_Energy-OPLS-2005>
244.274398803711

> <r_mmod_Torsional_Energy-OPLS-2005>
198.285095214844

> <r_mmod_Improper_Torsional_Energy-OPLS-2005>
4.32086181640625

> <r_mmod_Van_der_Waal_Energy-OPLS-2005>
132.847564697266

> <r_mmod_Electrostatic_Energy-OPLS-2005>
-389.473571777344

> <r_mmod_Solvation_Energy-OPLS-2005>
-212.529449462891

> <b_mmod_Minimization_Converged-OPLS-2005>
0

> <r_mmod_RMS_Derivative-OPLS-2005>
2.53052234649658

$$$$
82
                    3D
 Structure written by MMmdl.
161169  0  0  1  0            999 V2000
  -30.7182  -14.4616   20.5810 C   0  0  0  0  0  0
  -30.4239  -12.3039   19.4132 C   0  0  0  0  0  0
  -29.4910  -12.4987   18.2012 C   0  0  0  0  0  0
  -28.0161  -12.3524   18.6223 C   0  0  0  0  0  0
  -27.6644  -13.2022   19.8727 C   0  0  2  0  0  0
  -28.7090  -12.9852   20.9922 C   0  0  0  0  0  0
  -25.2621  -13.8144   20.5685 C   0  0  0  0  0  0
  -24.1854  -13.0431   20.9161 C   0  0  0  0  0  0
  -24.6400  -11.6900   20.8734 C   0  0  0  0  0  0
  -23.9056  -10.4290   21.0400 C   0  0  0  0  0  0
  -24.3606   -9.4211   21.9186 C   0  0  0  0  0  0
  -23.6287   -8.2248   22.0761 C   0  0  0  0  0  0
  -22.4275   -8.0282   21.3547 C   0  0  0  0  0  0
  -21.9901   -9.0249   20.4644 C   0  0  0  0  0  0
  -22.7227  -10.2132   20.3048 C   0  0  0  0  0  0
  -21.6846   -6.0734   22.5279 C   0  0  0  0  0  0
  -21.4009   -6.5641   23.8213 C   0  0  0  0  0  0
  -21.3658   -5.6794   24.9175 C   0  0  0  0  0  0
  -21.6045   -4.3054   24.7225 C   0  0  0  0  0  0
  -21.8818   -3.8145   23.4344 C   0  0  0  0  0  0
  -21.9197   -4.6964   22.3400 C   0  0  0  0  0  0
  -22.7876  -13.5246   21.1821 C   0  0  0  0  0  0
  -22.1663   -4.2151   21.0976 F   0  0  0  0  0  0
  -21.5633   -3.4537   25.7735 F   0  0  0  0  0  0
  -30.0402  -13.2894   20.4374 N   0  0  0  0  0  0
  -26.3046  -12.9315   20.3370 N   0  0  0  0  0  0
  -25.9331  -11.6478   20.5770 N   0  0  0  0  0  0
  -22.0495  -12.8243   22.0363 N   0  0  0  0  0  0
  -25.4359  -15.1857   20.4122 N   0  0  0  0  0  0
  -31.8141  -14.6650   20.0546 O   0  0  0  0  0  0
  -21.6641   -6.8876   21.4241 O   0  0  0  0  0  0
  -22.3574  -14.5560   20.6679 O   0  0  0  0  0  0
  -24.6178  -31.8652   23.2038 C   0  0  0  0  0  0
  -25.9060  -32.4802   23.8337 C   0  0  1  0  0  0
  -27.2466  -27.4150   20.1048 C   0  0  0  0  0  0
  -25.5928  -33.8595   24.2298 N   0  0  0  0  0  0
  -23.4076  -30.4874   21.5444 C   0  0  2  0  0  0
  -24.8587  -28.9492   20.1122 C   0  0  0  0  0  0
  -22.7432  -29.4642   22.4941 C   0  0  0  0  0  0
  -18.0287  -28.1362   22.8484 C   0  0  0  0  0  0
  -24.1505  -36.7295   23.2637 C   0  0  0  0  0  0
  -25.9354  -30.8322   21.3512 C   0  0  0  0  0  0
  -26.0207  -29.4613   20.7062 C   0  0  0  0  0  0
  -27.2184  -28.7034   20.6946 C   0  0  0  0  0  0
  -26.0688  -26.9241   19.4999 C   0  0  0  0  0  0
  -24.8807  -27.6814   19.5038 C   0  0  0  0  0  0
  -23.6179  -29.8153   20.1606 C   0  0  0  0  0  0
  -25.4110  -36.3087   24.0348 C   0  0  1  0  0  0
  -20.5880  -28.3652   23.1298 C   0  0  2  0  0  0
  -20.6792  -26.9384   22.5397 C   0  0  0  0  0  0
  -19.5769  -26.6372   21.5198 C   0  0  0  0  0  0
  -18.1942  -26.7911   22.1608 C   0  0  0  0  0  0
  -19.1541  -28.8818   23.2903 C   0  0  0  0  0  0
  -18.9467  -30.1425   23.8902 C   0  0  0  0  0  0
  -17.6473  -30.6571   24.0552 C   0  0  0  0  0  0
  -25.9029  -34.9463   23.5109 C   0  0  0  0  0  0
  -16.5361  -29.9078   23.6310 C   0  0  0  0  0  0
  -16.7280  -28.6494   23.0329 C   0  0  0  0  0  0
  -26.4484  -31.6563   25.0654 C   0  0  0  0  0  0
  -25.3758  -31.3671   26.1405 C   0  0  0  0  0  0
  -27.0288  -30.3015   24.5961 C   0  0  0  0  0  0
  -27.6062  -32.4247   25.7443 C   0  0  0  0  0  0
  -27.5582  -37.1801   24.8461 C   0  0  0  0  0  0
  -21.4151  -29.3037   22.3708 N   0  0  0  0  0  0
  -26.4282  -37.3780   23.9428 N   0  0  0  0  0  0
  -24.6730  -31.0749   22.0933 N   0  0  0  0  0  0
  -23.4207  -28.8172   23.2970 O   0  0  0  0  0  0
  -28.4004  -26.6494   20.0872 O   0  0  0  0  0  0
  -26.5569  -34.8929   22.4651 O   0  0  0  0  0  0
  -23.5364  -32.1399   23.7427 O   0  0  0  0  0  0
  -31.0619  -19.5428   21.7564 C   0  0  0  0  0  0
  -31.9652  -18.5474   22.1899 C   0  0  0  0  0  0
  -29.8318  -19.2116   21.1455 C   0  0  0  0  0  0
  -30.4454  -16.8064   21.3786 C   0  0  0  0  0  0
  -31.6424  -17.1797   22.0420 C   0  0  0  0  0  0
  -29.5585  -17.8196   20.9162 C   0  0  0  0  0  0
  -33.2744  -18.9549   22.8467 C   0  0  0  0  0  0
  -27.5027  -20.0494   21.1570 C   0  0  0  0  0  0
  -28.8055  -22.8244   20.8435 C   0  0  0  0  0  0
  -29.0092  -24.1651   20.0679 C   0  0  0  0  0  0
  -29.3385  -21.5163   20.1726 C   0  0  0  0  0  0
  -28.3170  -25.3760   20.7690 C   0  0  0  0  0  0
  -30.0625  -15.4292   21.2464 N   0  0  0  0  0  0
  -28.9183  -20.2694   20.8531 N   0  0  0  0  0  0
  -32.6971  -15.9900   22.7369 Cl  0  0  0  0  0  0
  -28.1601  -17.2990   20.0239 Cl  0  0  0  0  0  0
  -31.4683  -12.3968   19.1085 H   0  0  0  0  0  0
  -30.3249  -11.2926   19.8100 H   0  0  0  0  0  0
  -29.7289  -11.7733   17.4218 H   0  0  0  0  0  0
  -29.6538  -13.4838   17.7622 H   0  0  0  0  0  0
  -27.8381  -11.2963   18.8313 H   0  0  0  0  0  0
  -27.3575  -12.6080   17.7920 H   0  0  0  0  0  0
  -27.7081  -14.2478   19.5671 H   0  0  0  0  0  0
  -28.6876  -11.9484   21.3307 H   0  0  0  0  0  0
  -28.4682  -13.5800   21.8745 H   0  0  0  0  0  0
  -25.2746   -9.5699   22.4767 H   0  0  0  0  0  0
  -23.9994   -7.4641   22.7482 H   0  0  0  0  0  0
  -21.0835   -8.8754   19.8947 H   0  0  0  0  0  0
  -22.3676  -10.9668   19.6155 H   0  0  0  0  0  0
  -21.1988   -7.6151   23.9714 H   0  0  0  0  0  0
  -21.1483   -6.0524   25.9079 H   0  0  0  0  0  0
  -22.0600   -2.7608   23.2839 H   0  0  0  0  0  0
  -22.4081  -11.9884   22.4735 H   0  0  0  0  0  0
  -21.1109  -13.1285   22.2536 H   0  0  0  0  0  0
  -24.6740  -15.8425   20.5318 H   0  0  0  0  0  0
  -26.2959  -15.6305   20.1145 H   0  0  0  0  0  0
  -26.7134  -32.5541   23.1097 H   0  0  0  0  0  0
  -25.0177  -33.9736   25.0513 H   0  0  0  0  0  0
  -22.6986  -31.3047   21.3979 H   0  0  0  0  0  0
  -23.3764  -35.9628   23.3275 H   0  0  0  0  0  0
  -24.3629  -36.8902   22.2058 H   0  0  0  0  0  0
  -23.7246  -37.6501   23.6635 H   0  0  0  0  0  0
  -26.0312  -31.5933   20.5754 H   0  0  0  0  0  0
  -26.8295  -30.9005   21.9582 H   0  0  0  0  0  0
  -28.1159  -29.0994   21.1495 H   0  0  0  0  0  0
  -26.0737  -25.9534   19.0238 H   0  0  0  0  0  0
  -23.9907  -27.2821   19.0352 H   0  0  0  0  0  0
  -23.7210  -30.5888   19.3988 H   0  0  0  0  0  0
  -22.7430  -29.2329   19.8676 H   0  0  0  0  0  0
  -25.1280  -36.1929   25.0835 H   0  0  0  0  0  0
  -20.9977  -28.3209   24.1414 H   0  0  0  0  0  0
  -20.5678  -26.2258   23.3585 H   0  0  0  0  0  0
  -21.6670  -26.7405   22.1188 H   0  0  0  0  0  0
  -19.6940  -25.6287   21.1227 H   0  0  0  0  0  0
  -19.6732  -27.3191   20.6739 H   0  0  0  0  0  0
  -17.4221  -26.6655   21.4004 H   0  0  0  0  0  0
  -18.0327  -26.0047   22.8990 H   0  0  0  0  0  0
  -19.7953  -30.7224   24.2279 H   0  0  0  0  0  0
  -17.5040  -31.6261   24.5132 H   0  0  0  0  0  0
  -15.5358  -30.2974   23.7647 H   0  0  0  0  0  0
  -15.8685  -28.0821   22.7014 H   0  0  0  0  0  0
  -24.5969  -30.6962   25.7765 H   0  0  0  0  0  0
  -24.8913  -32.2832   26.4798 H   0  0  0  0  0  0
  -25.8136  -30.8912   27.0187 H   0  0  0  0  0  0
  -26.2807  -29.6789   24.1041 H   0  0  0  0  0  0
  -27.4143  -29.7204   25.4345 H   0  0  0  0  0  0
  -27.8595  -30.4359   23.9026 H   0  0  0  0  0  0
  -27.2705  -33.3559   26.2011 H   0  0  0  0  0  0
  -28.3916  -32.6753   25.0303 H   0  0  0  0  0  0
  -28.0669  -31.8349   26.5380 H   0  0  0  0  0  0
  -28.2550  -38.0145   24.7520 H   0  0  0  0  0  0
  -28.1113  -36.2662   24.6232 H   0  0  0  0  0  0
  -27.2307  -37.1366   25.8867 H   0  0  0  0  0  0
  -20.9292  -29.8786   21.6969 H   0  0  0  0  0  0
  -26.0157  -38.2844   24.1461 H   0  0  0  0  0  0
  -31.3051  -20.5797   21.9414 H   0  0  0  0  0  0
  -33.3920  -20.0381   22.8857 H   0  0  0  0  0  0
  -34.1177  -18.5497   22.2856 H   0  0  0  0  0  0
  -33.3323  -18.5742   23.8669 H   0  0  0  0  0  0
  -27.3431  -19.1445   21.7445 H   0  0  0  0  0  0
  -26.9190  -19.9697   20.2384 H   0  0  0  0  0  0
  -27.0865  -20.8580   21.7559 H   0  0  0  0  0  0
  -27.7309  -22.7305   20.9915 H   0  0  0  0  0  0
  -29.2407  -22.9105   21.8399 H   0  0  0  0  0  0
  -28.6018  -24.0546   19.0622 H   0  0  0  0  0  0
  -30.0734  -24.3653   19.9426 H   0  0  0  0  0  0
  -30.4258  -21.5658   20.0946 H   0  0  0  0  0  0
  -28.9767  -21.4706   19.1443 H   0  0  0  0  0  0
  -28.7738  -25.5181   21.7484 H   0  0  0  0  0  0
  -27.2802  -25.1053   20.9736 H   0  0  0  0  0  0
  -29.1112  -15.2093   21.4932 H   0  0  0  0  0  0
  1 25  1  0  0  0
  1 30  2  0  0  0
  1 83  1  0  0  0
  2  3  1  0  0  0
  2 25  1  0  0  0
  2 87  1  0  0  0
  2 88  1  0  0  0
  3  4  1  0  0  0
  3 89  1  0  0  0
  3 90  1  0  0  0
  4  5  1  0  0  0
  4 91  1  0  0  0
  4 92  1  0  0  0
  5  6  1  0  0  0
  5 26  1  0  0  0
  5 93  1  0  0  0
  6 25  1  0  0  0
  6 94  1  0  0  0
  6 95  1  0  0  0
  7  8  2  0  0  0
  7 26  1  0  0  0
  7 29  1  0  0  0
  8  9  1  0  0  0
  8 22  1  0  0  0
  9 10  1  0  0  0
  9 27  2  0  0  0
 10 11  2  0  0  0
 10 15  1  0  0  0
 11 12  1  0  0  0
 11 96  1  0  0  0
 12 13  2  0  0  0
 12 97  1  0  0  0
 13 14  1  0  0  0
 13 31  1  0  0  0
 14 15  2  0  0  0
 14 98  1  0  0  0
 15 99  1  0  0  0
 16 17  2  0  0  0
 16 21  1  0  0  0
 16 31  1  0  0  0
 17 18  1  0  0  0
 17100  1  0  0  0
 18 19  2  0  0  0
 18101  1  0  0  0
 19 20  1  0  0  0
 19 24  1  0  0  0
 20 21  2  0  0  0
 20102  1  0  0  0
 21 23  1  0  0  0
 22 28  1  0  0  0
 22 32  2  0  0  0
 26 27  1  0  0  0
 28103  1  0  0  0
 28104  1  0  0  0
 29105  1  0  0  0
 29106  1  0  0  0
 33 34  1  0  0  0
 33 66  1  0  0  0
 33 70  2  0  0  0
 34 36  1  0  0  0
 34 59  1  0  0  0
 34107  1  0  0  0
 35 44  2  0  0  0
 35 45  1  0  0  0
 35 68  1  0  0  0
 36 56  1  0  0  0
 36108  1  0  0  0
 37 39  1  0  0  0
 37 47  1  0  0  0
 37 66  1  0  0  0
 37109  1  0  0  0
 38 43  2  0  0  0
 38 46  1  0  0  0
 38 47  1  0  0  0
 39 64  1  0  0  0
 39 67  2  0  0  0
 40 52  1  0  0  0
 40 53  2  0  0  0
 40 58  1  0  0  0
 41110  1  0  0  0
 41111  1  0  0  0
 41112  1  0  0  0
 41 48  1  0  0  0
 42 43  1  0  0  0
 42 66  1  0  0  0
 42113  1  0  0  0
 42114  1  0  0  0
 43 44  1  0  0  0
 44115  1  0  0  0
 45 46  2  0  0  0
 45116  1  0  0  0
 46117  1  0  0  0
 47118  1  0  0  0
 47119  1  0  0  0
 48 56  1  0  0  0
 48 65  1  0  0  0
 48120  1  0  0  0
 49 50  1  0  0  0
 49 53  1  0  0  0
 49 64  1  0  0  0
 49121  1  0  0  0
 50 51  1  0  0  0
 50122  1  0  0  0
 50123  1  0  0  0
 51 52  1  0  0  0
 51124  1  0  0  0
 51125  1  0  0  0
 52126  1  0  0  0
 52127  1  0  0  0
 53 54  1  0  0  0
 54 55  2  0  0  0
 54128  1  0  0  0
 55 57  1  0  0  0
 55129  1  0  0  0
 56 69  2  0  0  0
 57 58  2  0  0  0
 57130  1  0  0  0
 58131  1  0  0  0
 59 60  1  0  0  0
 59 61  1  0  0  0
 59 62  1  0  0  0
 60132  1  0  0  0
 60133  1  0  0  0
 60134  1  0  0  0
 61135  1  0  0  0
 61136  1  0  0  0
 61137  1  0  0  0
 62138  1  0  0  0
 62139  1  0  0  0
 62140  1  0  0  0
 63 65  1  0  0  0
 63141  1  0  0  0
 63142  1  0  0  0
 63143  1  0  0  0
 64144  1  0  0  0
 65145  1  0  0  0
 68 82  1  0  0  0
 71 72  2  0  0  0
 71 73  1  0  0  0
 71146  1  0  0  0
 72 75  1  0  0  0
 72 77  1  0  0  0
 73 76  2  0  0  0
 73 84  1  0  0  0
 74 75  2  0  0  0
 74 76  1  0  0  0
 74 83  1  0  0  0
 75 85  1  0  0  0
 76 86  1  0  0  0
 77147  1  0  0  0
 77148  1  0  0  0
 77149  1  0  0  0
 78 84  1  0  0  0
 78150  1  0  0  0
 78151  1  0  0  0
 78152  1  0  0  0
 79 80  1  0  0  0
 79 81  1  0  0  0
 79153  1  0  0  0
 79154  1  0  0  0
 80 82  1  0  0  0
 80155  1  0  0  0
 80156  1  0  0  0
 81 84  1  0  0  0
 81157  1  0  0  0
 81158  1  0  0  0
 82159  1  0  0  0
 82160  1  0  0  0
 83161  1  0  0  0
M  ISO  4   1 100  68 101  82 101  83 100
M  END
> <chiral flag>
0

> <version>
0

> <s_m_source_file>
/data/baiqing/PycharmProjects/Reinvent-master-3.2/result/LINK_invent/BTK/process_docking_weight1_custom_sum_contain_oxygen_bond_distance_aromatic_linkinvent_7_9_3/rearranged_h_0014.sdf

> <i_m_source_file_index>
83

> <r_mmod_Potential_Energy-OPLS-2005>
2.14053726196289

> <r_mmod_Stretch_Energy-OPLS-2005>
48.8224716186523

> <r_mmod_Bend_Energy-OPLS-2005>
113.487831115723

> <r_mmod_Torsional_Energy-OPLS-2005>
253.068344116211

> <r_mmod_Improper_Torsional_Energy-OPLS-2005>
3.50051832199097

> <r_mmod_Van_der_Waal_Energy-OPLS-2005>
160.792358398438

> <r_mmod_Electrostatic_Energy-OPLS-2005>
-386.646179199219

> <r_mmod_Solvation_Energy-OPLS-2005>
-203.467041015625

> <b_mmod_Minimization_Converged-OPLS-2005>
0

> <r_mmod_RMS_Derivative-OPLS-2005>
2.29697036743164

$$$$
83
                    3D
 Structure written by MMmdl.
154162  0  0  1  0            999 V2000
  -30.6203  -14.7551   20.4680 C   0  0  0  0  0  0
  -30.4279  -12.4642   19.4813 C   0  0  0  0  0  0
  -29.5109  -12.5124   18.2394 C   0  0  0  0  0  0
  -28.0363  -12.3354   18.6494 C   0  0  0  0  0  0
  -27.6389  -13.2371   19.8503 C   0  0  2  0  0  0
  -28.6820  -13.1831   20.9872 C   0  0  0  0  0  0
  -25.2495  -13.8204   20.5702 C   0  0  0  0  0  0
  -24.1790  -13.0438   20.9198 C   0  0  0  0  0  0
  -24.6392  -11.6920   20.8746 C   0  0  0  0  0  0
  -23.9075  -10.4300   21.0408 C   0  0  0  0  0  0
  -24.3630   -9.4215   21.9186 C   0  0  0  0  0  0
  -23.6300   -8.2251   22.0761 C   0  0  0  0  0  0
  -22.4280   -8.0289   21.3552 C   0  0  0  0  0  0
  -21.9918   -9.0260   20.4647 C   0  0  0  0  0  0
  -22.7249  -10.2136   20.3053 C   0  0  0  0  0  0
  -21.6857   -6.0744   22.5280 C   0  0  0  0  0  0
  -21.4009   -6.5647   23.8214 C   0  0  0  0  0  0
  -21.3658   -5.6798   24.9174 C   0  0  0  0  0  0
  -21.6035   -4.3061   24.7222 C   0  0  0  0  0  0
  -21.8822   -3.8155   23.4343 C   0  0  0  0  0  0
  -21.9193   -4.6971   22.3399 C   0  0  0  0  0  0
  -22.7810  -13.5218   21.1852 C   0  0  0  0  0  0
  -22.1662   -4.2159   21.0976 F   0  0  0  0  0  0
  -21.5629   -3.4541   25.7733 F   0  0  0  0  0  0
  -29.9828  -13.5346   20.4049 N   0  0  0  0  0  0
  -26.2929  -12.9426   20.3293 N   0  0  0  0  0  0
  -25.9330  -11.6560   20.5754 N   0  0  0  0  0  0
  -22.0469  -12.8210   22.0419 N   0  0  0  0  0  0
  -25.4154  -15.1935   20.4152 N   0  0  0  0  0  0
  -31.8097  -14.8194   20.1475 O   0  0  0  0  0  0
  -21.6643   -6.8888   21.4241 O   0  0  0  0  0  0
  -22.3495  -14.5528   20.6713 O   0  0  0  0  0  0
  -24.6290  -31.8528   23.1937 C   0  0  0  0  0  0
  -25.9099  -32.4748   23.8294 C   0  0  1  0  0  0
  -27.2304  -27.2603   20.1278 C   0  0  0  0  0  0
  -25.5890  -33.8544   24.2233 N   0  0  0  0  0  0
  -23.4278  -30.4721   21.5366 C   0  0  2  0  0  0
  -24.8769  -28.9155   20.1045 C   0  0  0  0  0  0
  -22.7500  -29.4591   22.4905 C   0  0  0  0  0  0
  -18.0293  -28.1385   22.8496 C   0  0  0  0  0  0
  -24.1476  -36.7267   23.2655 C   0  0  0  0  0  0
  -25.9709  -30.7653   21.3716 C   0  0  0  0  0  0
  -26.0441  -29.3856   20.7190 C   0  0  0  0  0  0
  -27.2169  -28.5678   20.7229 C   0  0  0  0  0  0
  -26.0375  -26.8500   19.4915 C   0  0  0  0  0  0
  -24.8800  -27.6564   19.4810 C   0  0  0  0  0  0
  -23.6437  -29.7981   20.1542 C   0  0  0  0  0  0
  -25.4107  -36.3061   24.0340 C   0  0  1  0  0  0
  -20.5899  -28.3683   23.1271 C   0  0  2  0  0  0
  -20.6773  -26.9390   22.5421 C   0  0  0  0  0  0
  -19.5746  -26.6360   21.5230 C   0  0  0  0  0  0
  -18.1925  -26.7927   22.1633 C   0  0  0  0  0  0
  -19.1553  -28.8854   23.2880 C   0  0  0  0  0  0
  -18.9472  -30.1460   23.8898 C   0  0  0  0  0  0
  -17.6469  -30.6592   24.0556 C   0  0  0  0  0  0
  -25.9047  -34.9441   23.5096 C   0  0  0  0  0  0
  -16.5361  -29.9082   23.6331 C   0  0  0  0  0  0
  -16.7278  -28.6499   23.0358 C   0  0  0  0  0  0
  -26.4476  -31.6574   25.0684 C   0  0  0  0  0  0
  -25.3686  -31.3714   26.1393 C   0  0  0  0  0  0
  -27.0344  -30.3010   24.6152 C   0  0  0  0  0  0
  -27.6042  -32.4314   25.7447 C   0  0  0  0  0  0
  -27.5569  -37.1781   24.8480 C   0  0  0  0  0  0
  -21.4206  -29.3028   22.3650 N   0  0  0  0  0  0
  -26.4281  -37.3758   23.9427 N   0  0  0  0  0  0
  -24.6955  -31.0494   22.0909 N   0  0  0  0  0  0
  -23.4206  -28.8153   23.3006 O   0  0  0  0  0  0
  -28.3530  -26.4046   20.2223 O   0  0  0  0  0  0
  -26.5648  -34.8924   22.4684 O   0  0  0  0  0  0
  -23.5442  -32.1338   23.7245 O   0  0  0  0  0  0
  -31.5610  -17.7555   20.8420 C   0  0  0  0  0  0
  -31.9444  -19.1151   20.8511 C   0  0  0  0  0  0
  -29.6196  -19.8688   20.5409 C   0  0  0  0  0  0
  -30.2172  -17.3568   20.6629 C   0  0  0  0  0  0
  -30.9949  -20.1506   20.7018 C   0  0  0  0  0  0
  -29.2573  -18.4481   20.5283 C   0  0  0  0  0  0
  -28.3232  -23.7194   20.4272 C   0  0  0  0  0  0
  -33.4075  -19.4707   21.0402 C   0  0  0  0  0  0
  -28.5678  -21.0801   20.4812 C   0  0  0  0  0  0
  -28.4819  -25.0612   19.5573 C   0  0  0  0  0  0
  -29.8572  -15.9041   20.6705 N   0  0  0  0  0  0
  -28.8904  -22.5137   20.0275 N   0  0  0  0  0  0
  -27.6277  -23.7653   21.4430 O   0  0  0  0  0  0
  -31.4240  -21.4350   20.7421 F   0  0  0  0  0  0
  -27.5917  -18.0183   20.3516 Cl  0  0  0  0  0  0
  -31.4718  -12.5777   19.1823 H   0  0  0  0  0  0
  -30.3662  -11.4916   19.9712 H   0  0  0  0  0  0
  -29.7993  -11.7385   17.5268 H   0  0  0  0  0  0
  -29.6348  -13.4660   17.7238 H   0  0  0  0  0  0
  -27.8914  -11.2862   18.9081 H   0  0  0  0  0  0
  -27.3811  -12.5309   17.8002 H   0  0  0  0  0  0
  -27.6272  -14.2571   19.4662 H   0  0  0  0  0  0
  -28.7204  -12.1902   21.4380 H   0  0  0  0  0  0
  -28.4131  -13.8737   21.7886 H   0  0  0  0  0  0
  -25.2779   -9.5690   22.4756 H   0  0  0  0  0  0
  -24.0005   -7.4639   22.7486 H   0  0  0  0  0  0
  -21.0855   -8.8776   19.8948 H   0  0  0  0  0  0
  -22.3719  -10.9672   19.6159 H   0  0  0  0  0  0
  -21.2002   -7.6157   23.9722 H   0  0  0  0  0  0
  -21.1472   -6.0529   25.9081 H   0  0  0  0  0  0
  -22.0603   -2.7615   23.2837 H   0  0  0  0  0  0
  -22.4091  -11.9862   22.4779 H   0  0  0  0  0  0
  -21.1093  -13.1240   22.2643 H   0  0  0  0  0  0
  -24.6456  -15.8418   20.5372 H   0  0  0  0  0  0
  -26.2651  -15.6510   20.1113 H   0  0  0  0  0  0
  -26.7162  -32.5393   23.1029 H   0  0  0  0  0  0
  -24.9981  -33.9674   25.0341 H   0  0  0  0  0  0
  -22.7248  -31.2936   21.3861 H   0  0  0  0  0  0
  -23.3756  -35.9579   23.3315 H   0  0  0  0  0  0
  -24.3567  -36.8884   22.2072 H   0  0  0  0  0  0
  -23.7205  -37.6459   23.6674 H   0  0  0  0  0  0
  -26.1029  -31.5214   20.5962 H   0  0  0  0  0  0
  -26.8524  -30.8212   21.9986 H   0  0  0  0  0  0
  -28.1099  -28.9216   21.2213 H   0  0  0  0  0  0
  -25.9580  -25.8802   19.0265 H   0  0  0  0  0  0
  -23.9853  -27.2890   18.9964 H   0  0  0  0  0  0
  -23.7511  -30.5683   19.3890 H   0  0  0  0  0  0
  -22.7652  -29.2185   19.8636 H   0  0  0  0  0  0
  -25.1280  -36.1901   25.0828 H   0  0  0  0  0  0
  -21.0004  -28.3251   24.1387 H   0  0  0  0  0  0
  -20.5666  -26.2291   23.3630 H   0  0  0  0  0  0
  -21.6628  -26.7380   22.1203 H   0  0  0  0  0  0
  -19.6901  -25.6269   21.1249 H   0  0  0  0  0  0
  -19.6690  -27.3180   20.6769 H   0  0  0  0  0  0
  -17.4189  -26.6685   21.4037 H   0  0  0  0  0  0
  -18.0302  -26.0078   22.9037 H   0  0  0  0  0  0
  -19.7956  -30.7266   24.2258 H   0  0  0  0  0  0
  -17.5034  -31.6287   24.5137 H   0  0  0  0  0  0
  -15.5363  -30.2993   23.7680 H   0  0  0  0  0  0
  -15.8670  -28.0824   22.7070 H   0  0  0  0  0  0
  -24.5886  -30.7045   25.7691 H   0  0  0  0  0  0
  -24.8845  -32.2885   26.4773 H   0  0  0  0  0  0
  -25.7977  -30.8907   27.0193 H   0  0  0  0  0  0
  -26.2929  -29.6745   24.1187 H   0  0  0  0  0  0
  -27.4086  -29.7265   25.4634 H   0  0  0  0  0  0
  -27.8764  -30.4328   23.9350 H   0  0  0  0  0  0
  -27.2671  -33.3648   26.1963 H   0  0  0  0  0  0
  -28.3875  -32.6812   25.0275 H   0  0  0  0  0  0
  -28.0681  -31.8463   26.5399 H   0  0  0  0  0  0
  -28.2578  -38.0082   24.7512 H   0  0  0  0  0  0
  -28.1057  -36.2609   24.6302 H   0  0  0  0  0  0
  -27.2288  -37.1417   25.8881 H   0  0  0  0  0  0
  -20.9392  -29.8739   21.6847 H   0  0  0  0  0  0
  -26.0160  -38.2825   24.1439 H   0  0  0  0  0  0
  -32.3308  -17.0154   20.9932 H   0  0  0  0  0  0
  -34.0505  -18.6004   20.9014 H   0  0  0  0  0  0
  -33.5797  -19.8651   22.0425 H   0  0  0  0  0  0
  -33.7119  -20.2289   20.3179 H   0  0  0  0  0  0
  -28.1239  -21.1436   21.4755 H   0  0  0  0  0  0
  -27.7563  -20.7531   19.8315 H   0  0  0  0  0  0
  -27.8444  -24.9854   18.6787 H   0  0  0  0  0  0
  -29.4927  -25.0381   19.1498 H   0  0  0  0  0  0
  -28.8734  -15.7235   20.7932 H   0  0  0  0  0  0
  -29.4906  -22.5753   19.2157 H   0  0  0  0  0  0
  1 25  1  0  0  0
  1 30  2  0  0  0
  1 81  1  0  0  0
  2  3  1  0  0  0
  2 25  1  0  0  0
  2 86  1  0  0  0
  2 87  1  0  0  0
  3  4  1  0  0  0
  3 88  1  0  0  0
  3 89  1  0  0  0
  4  5  1  0  0  0
  4 90  1  0  0  0
  4 91  1  0  0  0
  5  6  1  0  0  0
  5 26  1  0  0  0
  5 92  1  0  0  0
  6 25  1  0  0  0
  6 93  1  0  0  0
  6 94  1  0  0  0
  7  8  2  0  0  0
  7 26  1  0  0  0
  7 29  1  0  0  0
  8  9  1  0  0  0
  8 22  1  0  0  0
  9 10  1  0  0  0
  9 27  2  0  0  0
 10 11  2  0  0  0
 10 15  1  0  0  0
 11 12  1  0  0  0
 11 95  1  0  0  0
 12 13  2  0  0  0
 12 96  1  0  0  0
 13 14  1  0  0  0
 13 31  1  0  0  0
 14 15  2  0  0  0
 14 97  1  0  0  0
 15 98  1  0  0  0
 16 17  2  0  0  0
 16 21  1  0  0  0
 16 31  1  0  0  0
 17 18  1  0  0  0
 17 99  1  0  0  0
 18 19  2  0  0  0
 18100  1  0  0  0
 19 20  1  0  0  0
 19 24  1  0  0  0
 20 21  2  0  0  0
 20101  1  0  0  0
 21 23  1  0  0  0
 22 28  1  0  0  0
 22 32  2  0  0  0
 26 27  1  0  0  0
 28102  1  0  0  0
 28103  1  0  0  0
 29104  1  0  0  0
 29105  1  0  0  0
 33 34  1  0  0  0
 33 66  1  0  0  0
 33 70  2  0  0  0
 34 36  1  0  0  0
 34 59  1  0  0  0
 34106  1  0  0  0
 35 44  2  0  0  0
 35 45  1  0  0  0
 35 68  1  0  0  0
 36 56  1  0  0  0
 36107  1  0  0  0
 37 39  1  0  0  0
 37 47  1  0  0  0
 37 66  1  0  0  0
 37108  1  0  0  0
 38 43  2  0  0  0
 38 46  1  0  0  0
 38 47  1  0  0  0
 39 64  1  0  0  0
 39 67  2  0  0  0
 40 52  1  0  0  0
 40 53  2  0  0  0
 40 58  1  0  0  0
 41109  1  0  0  0
 41110  1  0  0  0
 41111  1  0  0  0
 41 48  1  0  0  0
 42 43  1  0  0  0
 42 66  1  0  0  0
 42112  1  0  0  0
 42113  1  0  0  0
 43 44  1  0  0  0
 44114  1  0  0  0
 45 46  2  0  0  0
 45115  1  0  0  0
 46116  1  0  0  0
 47117  1  0  0  0
 47118  1  0  0  0
 48 56  1  0  0  0
 48 65  1  0  0  0
 48119  1  0  0  0
 49 50  1  0  0  0
 49 53  1  0  0  0
 49 64  1  0  0  0
 49120  1  0  0  0
 50 51  1  0  0  0
 50121  1  0  0  0
 50122  1  0  0  0
 51 52  1  0  0  0
 51123  1  0  0  0
 51124  1  0  0  0
 52125  1  0  0  0
 52126  1  0  0  0
 53 54  1  0  0  0
 54 55  2  0  0  0
 54127  1  0  0  0
 55 57  1  0  0  0
 55128  1  0  0  0
 56 69  2  0  0  0
 57 58  2  0  0  0
 57129  1  0  0  0
 58130  1  0  0  0
 59 60  1  0  0  0
 59 61  1  0  0  0
 59 62  1  0  0  0
 60131  1  0  0  0
 60132  1  0  0  0
 60133  1  0  0  0
 61134  1  0  0  0
 61135  1  0  0  0
 61136  1  0  0  0
 62137  1  0  0  0
 62138  1  0  0  0
 62139  1  0  0  0
 63 65  1  0  0  0
 63140  1  0  0  0
 63141  1  0  0  0
 63142  1  0  0  0
 64143  1  0  0  0
 65144  1  0  0  0
 68 80  1  0  0  0
 71 72  2  0  0  0
 71 74  1  0  0  0
 71145  1  0  0  0
 72 75  1  0  0  0
 72 78  1  0  0  0
 73 75  2  0  0  0
 73 76  1  0  0  0
 73 79  1  0  0  0
 74 76  2  0  0  0
 74 81  1  0  0  0
 75 84  1  0  0  0
 76 85  1  0  0  0
 77 80  1  0  0  0
 77 82  1  0  0  0
 77 83  2  0  0  0
 78146  1  0  0  0
 78147  1  0  0  0
 78148  1  0  0  0
 79 82  1  0  0  0
 79149  1  0  0  0
 79150  1  0  0  0
 80151  1  0  0  0
 80152  1  0  0  0
 81153  1  0  0  0
 82154  1  0  0  0
M  ISO  4   1 100  68 101  80 101  81 100
M  END
> <chiral flag>
0

> <version>
0

> <s_m_source_file>
/data/baiqing/PycharmProjects/Reinvent-master-3.2/result/LINK_invent/BTK/process_docking_weight1_custom_sum_contain_oxygen_bond_distance_aromatic_linkinvent_7_9_3/rearranged_h_0014.sdf

> <i_m_source_file_index>
84

> <r_mmod_Potential_Energy-OPLS-2005>
79.7313232421875

> <r_mmod_Stretch_Energy-OPLS-2005>
131.295211791992

> <r_mmod_Bend_Energy-OPLS-2005>
175.270156860352

> <r_mmod_Torsional_Energy-OPLS-2005>
205.981384277344

> <r_mmod_Improper_Torsional_Energy-OPLS-2005>
5.7934308052063

> <r_mmod_Van_der_Waal_Energy-OPLS-2005>
137.081787109375

> <r_mmod_Electrostatic_Energy-OPLS-2005>
-429.076446533203

> <r_mmod_Solvation_Energy-OPLS-2005>
-232.909759521484

> <b_mmod_Minimization_Converged-OPLS-2005>
0

> <r_mmod_RMS_Derivative-OPLS-2005>
2.01984357833862

$$$$
84
                    3D
 Structure written by MMmdl.
151159  0  0  1  0            999 V2000
  -30.2166  -15.8824   20.3218 C   0  0  0  0  0  0
  -30.4241  -13.2575   19.5609 C   0  0  0  0  0  0
  -29.5798  -12.7366   18.3519 C   0  0  0  0  0  0
  -28.1673  -12.3188   18.7894 C   0  0  0  0  0  0
  -27.6010  -13.3275   19.8112 C   0  0  2  0  0  0
  -28.6079  -13.7225   20.9263 C   0  0  0  0  0  0
  -25.2261  -13.8222   20.5649 C   0  0  0  0  0  0
  -24.1703  -13.0387   20.9230 C   0  0  0  0  0  0
  -24.6470  -11.6909   20.8747 C   0  0  0  0  0  0
  -23.9167  -10.4271   21.0400 C   0  0  0  0  0  0
  -24.3694   -9.4185   21.9191 C   0  0  0  0  0  0
  -23.6344   -8.2227   22.0755 C   0  0  0  0  0  0
  -22.4318   -8.0287   21.3545 C   0  0  0  0  0  0
  -21.9981   -9.0253   20.4626 C   0  0  0  0  0  0
  -22.7337  -10.2114   20.3033 C   0  0  0  0  0  0
  -21.6849   -6.0750   22.5272 C   0  0  0  0  0  0
  -21.4031   -6.5649   23.8203 C   0  0  0  0  0  0
  -21.3654   -5.6798   24.9158 C   0  0  0  0  0  0
  -21.6043   -4.3067   24.7208 C   0  0  0  0  0  0
  -21.8811   -3.8160   23.4329 C   0  0  0  0  0  0
  -21.9187   -4.6976   22.3387 C   0  0  0  0  0  0
  -22.7714  -13.5124   21.1880 C   0  0  0  0  0  0
  -22.1669   -4.2165   21.0963 F   0  0  0  0  0  0
  -21.5619   -3.4544   25.7719 F   0  0  0  0  0  0
  -29.7422  -14.4552   20.2784 N   0  0  0  0  0  0
  -26.2827  -12.9637   20.3199 N   0  0  0  0  0  0
  -25.9439  -11.6698   20.5670 N   0  0  0  0  0  0
  -22.0388  -12.8120   22.0427 N   0  0  0  0  0  0
  -25.3646  -15.1949   20.3889 N   0  0  0  0  0  0
  -31.4413  -15.7975   20.0849 O   0  0  0  0  0  0
  -21.6647   -6.8912   21.4243 O   0  0  0  0  0  0
  -22.3393  -14.5443   20.6733 O   0  0  0  0  0  0
  -24.6984  -31.7894   23.1464 C   0  0  0  0  0  0
  -25.9529  -32.4431   23.8015 C   0  0  1  0  0  0
  -27.2256  -26.5684   20.2270 C   0  0  0  0  0  0
  -25.6108  -33.8256   24.1937 N   0  0  0  0  0  0
  -23.5260  -30.3905   21.5057 C   0  0  2  0  0  0
  -24.9806  -28.7015   20.1259 C   0  0  0  0  0  0
  -22.7817  -29.4280   22.4714 C   0  0  0  0  0  0
  -18.0339  -28.1453   22.8450 C   0  0  0  0  0  0
  -24.1441  -36.7063   23.2636 C   0  0  0  0  0  0
  -26.1108  -30.4846   21.4168 C   0  0  0  0  0  0
  -26.1753  -29.0304   20.7758 C   0  0  0  0  0  0
  -27.2763  -27.9979   20.7862 C   0  0  0  0  0  0
  -25.9952  -26.4905   19.5129 C   0  0  0  0  0  0
  -24.9409  -27.4620   19.4633 C   0  0  0  0  0  0
  -23.7859  -29.6785   20.1462 C   0  0  0  0  0  0
  -25.4095  -36.2855   24.0287 C   0  0  1  0  0  0
  -20.5982  -28.3814   23.1125 C   0  0  2  0  0  0
  -20.6803  -26.9467   22.5412 C   0  0  0  0  0  0
  -19.5774  -26.6395   21.5228 C   0  0  0  0  0  0
  -18.1952  -26.7978   22.1622 C   0  0  0  0  0  0
  -19.1610  -28.8955   23.2760 C   0  0  0  0  0  0
  -18.9515  -30.1547   23.8800 C   0  0  0  0  0  0
  -17.6490  -30.6634   24.0552 C   0  0  0  0  0  0
  -25.9126  -34.9275   23.4927 C   0  0  0  0  0  0
  -16.5382  -29.9106   23.6369 C   0  0  0  0  0  0
  -16.7314  -28.6548   23.0359 C   0  0  0  0  0  0
  -26.4664  -31.6470   25.0646 C   0  0  0  0  0  0
  -25.3727  -31.3849   26.1266 C   0  0  0  0  0  0
  -27.0568  -30.2798   24.6551 C   0  0  0  0  0  0
  -27.6112  -32.4305   25.7495 C   0  0  0  0  0  0
  -27.5531  -37.1646   24.8453 C   0  0  0  0  0  0
  -21.4457  -29.3046   22.3460 N   0  0  0  0  0  0
  -26.4171  -37.3678   23.9500 N   0  0  0  0  0  0
  -24.8044  -30.9242   22.0769 N   0  0  0  0  0  0
  -23.4188  -28.7935   23.3154 O   0  0  0  0  0  0
  -28.1746  -25.2835   20.2706 O   0  0  0  0  0  0
  -26.5691  -34.8893   22.4494 O   0  0  0  0  0  0
  -23.5991  -32.1010   23.6393 O   0  0  0  0  0  0
  -28.5272  -20.1342   20.5699 C   0  0  0  0  0  0
  -28.8149  -21.6843   20.2112 C   0  0  0  0  0  0
  -30.0354  -21.2591   19.6454 C   0  0  0  0  0  0
  -29.4301  -18.9308   20.2786 C   0  0  0  0  0  0
  -30.9768  -22.2119   18.9642 C   0  0  0  0  0  0
  -31.6315  -19.2892   19.1343 C   0  0  0  0  0  0
  -28.2430  -16.9808   21.2696 C   0  0  0  0  0  0
  -27.9323  -23.4701   20.2672 C   0  0  0  0  0  0
  -30.3851  -19.8082   19.6824 N   0  0  0  0  0  0
  -29.4292  -17.3027   20.4814 N   0  0  0  0  0  0
  -31.4111  -13.5368   19.1901 H   0  0  0  0  0  0
  -30.6328  -12.4425   20.2572 H   0  0  0  0  0  0
  -30.0877  -11.9103   17.8503 H   0  0  0  0  0  0
  -29.5041  -13.5358   17.6136 H   0  0  0  0  0  0
  -28.2329  -11.3331   19.2518 H   0  0  0  0  0  0
  -27.5086  -12.2137   17.9259 H   0  0  0  0  0  0
  -27.4413  -14.2267   19.2146 H   0  0  0  0  0  0
  -28.9355  -12.8552   21.5014 H   0  0  0  0  0  0
  -28.1128  -14.3559   21.6597 H   0  0  0  0  0  0
  -25.2818   -9.5681   22.4799 H   0  0  0  0  0  0
  -24.0031   -7.4630   22.7500 H   0  0  0  0  0  0
  -21.0902   -8.8793   19.8942 H   0  0  0  0  0  0
  -22.3811  -10.9659   19.6152 H   0  0  0  0  0  0
  -21.2056   -7.6164   23.9711 H   0  0  0  0  0  0
  -21.1494   -6.0529   25.9059 H   0  0  0  0  0  0
  -22.0603   -2.7623   23.2800 H   0  0  0  0  0  0
  -22.4016  -11.9802   22.4859 H   0  0  0  0  0  0
  -21.0977  -13.1117   22.2542 H   0  0  0  0  0  0
  -24.5772  -15.8291   20.4631 H   0  0  0  0  0  0
  -26.1875  -15.6295   19.9956 H   0  0  0  0  0  0
  -26.7603  -32.4907   23.0713 H   0  0  0  0  0  0
  -25.0434  -33.9285   25.0220 H   0  0  0  0  0  0
  -22.8575  -31.2330   21.3118 H   0  0  0  0  0  0
  -23.3812  -35.9276   23.3143 H   0  0  0  0  0  0
  -24.3556  -36.8880   22.2093 H   0  0  0  0  0  0
  -23.7054  -37.6139   23.6783 H   0  0  0  0  0  0
  -26.2991  -31.1951   20.6094 H   0  0  0  0  0  0
  -26.9681  -30.5783   22.0720 H   0  0  0  0  0  0
  -28.1775  -28.2747   21.3131 H   0  0  0  0  0  0
  -25.8071  -25.5649   18.9880 H   0  0  0  0  0  0
  -24.0486  -27.2125   18.9055 H   0  0  0  0  0  0
  -23.9747  -30.4367   19.3864 H   0  0  0  0  0  0
  -22.8805  -29.1670   19.8171 H   0  0  0  0  0  0
  -25.1282  -36.1561   25.0766 H   0  0  0  0  0  0
  -21.0023  -28.3446   24.1258 H   0  0  0  0  0  0
  -20.5663  -26.2449   23.3687 H   0  0  0  0  0  0
  -21.6662  -26.7414   22.1231 H   0  0  0  0  0  0
  -19.6922  -25.6284   21.1320 H   0  0  0  0  0  0
  -19.6725  -27.3149   20.6710 H   0  0  0  0  0  0
  -17.4231  -26.6721   21.4015 H   0  0  0  0  0  0
  -18.0319  -26.0161   22.9053 H   0  0  0  0  0  0
  -19.7993  -30.7406   24.2088 H   0  0  0  0  0  0
  -17.5059  -31.6301   24.5191 H   0  0  0  0  0  0
  -15.5380  -30.2971   23.7788 H   0  0  0  0  0  0
  -15.8712  -28.0867   22.7064 H   0  0  0  0  0  0
  -24.5997  -30.7055   25.7656 H   0  0  0  0  0  0
  -24.8833  -32.3095   26.4342 H   0  0  0  0  0  0
  -25.7953  -30.9338   27.0254 H   0  0  0  0  0  0
  -26.3300  -29.6431   24.1494 H   0  0  0  0  0  0
  -27.3935  -29.7228   25.5302 H   0  0  0  0  0  0
  -27.9312  -30.3921   24.0137 H   0  0  0  0  0  0
  -27.2708  -33.3782   26.1689 H   0  0  0  0  0  0
  -28.4168  -32.6525   25.0477 H   0  0  0  0  0  0
  -28.0446  -31.8626   26.5741 H   0  0  0  0  0  0
  -28.2401  -38.0080   24.7711 H   0  0  0  0  0  0
  -28.1145  -36.2623   24.5973 H   0  0  0  0  0  0
  -27.2302  -37.0957   25.8855 H   0  0  0  0  0  0
  -20.9778  -29.8663   21.6482 H   0  0  0  0  0  0
  -25.9955  -38.2665   24.1717 H   0  0  0  0  0  0
  -27.5819  -19.9302   21.0525 H   0  0  0  0  0  0
  -30.7107  -23.2494   19.1738 H   0  0  0  0  0  0
  -30.9342  -22.0828   17.8811 H   0  0  0  0  0  0
  -32.0114  -22.0735   19.2811 H   0  0  0  0  0  0
  -32.4247  -19.3489   19.8800 H   0  0  0  0  0  0
  -31.9276  -19.8483   18.2490 H   0  0  0  0  0  0
  -31.5097  -18.2501   18.8374 H   0  0  0  0  0  0
  -27.6408  -16.2522   20.7413 H   0  0  0  0  0  0
  -27.5794  -17.8216   21.4434 H   0  0  0  0  0  0
  -28.5189  -16.6024   22.2568 H   0  0  0  0  0  0
  -27.3096  -23.3520   21.1550 H   0  0  0  0  0  0
  -27.2128  -23.3695   19.4548 H   0  0  0  0  0  0
  1 25  1  0  0  0
  1 30  2  0  0  0
  1 80  1  0  0  0
  2  3  1  0  0  0
  2 25  1  0  0  0
  2 81  1  0  0  0
  2 82  1  0  0  0
  3  4  1  0  0  0
  3 83  1  0  0  0
  3 84  1  0  0  0
  4  5  1  0  0  0
  4 85  1  0  0  0
  4 86  1  0  0  0
  5  6  1  0  0  0
  5 26  1  0  0  0
  5 87  1  0  0  0
  6 25  1  0  0  0
  6 88  1  0  0  0
  6 89  1  0  0  0
  7  8  2  0  0  0
  7 26  1  0  0  0
  7 29  1  0  0  0
  8  9  1  0  0  0
  8 22  1  0  0  0
  9 10  1  0  0  0
  9 27  2  0  0  0
 10 11  2  0  0  0
 10 15  1  0  0  0
 11 12  1  0  0  0
 11 90  1  0  0  0
 12 13  2  0  0  0
 12 91  1  0  0  0
 13 14  1  0  0  0
 13 31  1  0  0  0
 14 15  2  0  0  0
 14 92  1  0  0  0
 15 93  1  0  0  0
 16 17  2  0  0  0
 16 21  1  0  0  0
 16 31  1  0  0  0
 17 18  1  0  0  0
 17 94  1  0  0  0
 18 19  2  0  0  0
 18 95  1  0  0  0
 19 20  1  0  0  0
 19 24  1  0  0  0
 20 21  2  0  0  0
 20 96  1  0  0  0
 21 23  1  0  0  0
 22 28  1  0  0  0
 22 32  2  0  0  0
 26 27  1  0  0  0
 28 97  1  0  0  0
 28 98  1  0  0  0
 29 99  1  0  0  0
 29100  1  0  0  0
 33 34  1  0  0  0
 33 66  1  0  0  0
 33 70  2  0  0  0
 34 36  1  0  0  0
 34 59  1  0  0  0
 34101  1  0  0  0
 35 44  2  0  0  0
 35 45  1  0  0  0
 35 68  1  0  0  0
 36 56  1  0  0  0
 36102  1  0  0  0
 37 39  1  0  0  0
 37 47  1  0  0  0
 37 66  1  0  0  0
 37103  1  0  0  0
 38 43  2  0  0  0
 38 46  1  0  0  0
 38 47  1  0  0  0
 39 64  1  0  0  0
 39 67  2  0  0  0
 40 52  1  0  0  0
 40 53  2  0  0  0
 40 58  1  0  0  0
 41104  1  0  0  0
 41105  1  0  0  0
 41106  1  0  0  0
 41 48  1  0  0  0
 42 43  1  0  0  0
 42 66  1  0  0  0
 42107  1  0  0  0
 42108  1  0  0  0
 43 44  1  0  0  0
 44109  1  0  0  0
 45 46  2  0  0  0
 45110  1  0  0  0
 46111  1  0  0  0
 47112  1  0  0  0
 47113  1  0  0  0
 48 56  1  0  0  0
 48 65  1  0  0  0
 48114  1  0  0  0
 49 50  1  0  0  0
 49 53  1  0  0  0
 49 64  1  0  0  0
 49115  1  0  0  0
 50 51  1  0  0  0
 50116  1  0  0  0
 50117  1  0  0  0
 51 52  1  0  0  0
 51118  1  0  0  0
 51119  1  0  0  0
 52120  1  0  0  0
 52121  1  0  0  0
 53 54  1  0  0  0
 54 55  2  0  0  0
 54122  1  0  0  0
 55 57  1  0  0  0
 55123  1  0  0  0
 56 69  2  0  0  0
 57 58  2  0  0  0
 57124  1  0  0  0
 58125  1  0  0  0
 59 60  1  0  0  0
 59 61  1  0  0  0
 59 62  1  0  0  0
 60126  1  0  0  0
 60127  1  0  0  0
 60128  1  0  0  0
 61129  1  0  0  0
 61130  1  0  0  0
 61131  1  0  0  0
 62132  1  0  0  0
 62133  1  0  0  0
 62134  1  0  0  0
 63 65  1  0  0  0
 63135  1  0  0  0
 63136  1  0  0  0
 63137  1  0  0  0
 64138  1  0  0  0
 65139  1  0  0  0
 68 78  1  0  0  0
 71 72  1  0  0  0
 71 74  2  0  0  0
 71140  1  0  0  0
 72 73  2  0  0  0
 72 78  1  0  0  0
 73 75  1  0  0  0
 73 79  1  0  0  0
 74 79  1  0  0  0
 74 80  1  0  0  0
 75141  1  0  0  0
 75142  1  0  0  0
 75143  1  0  0  0
 76 79  1  0  0  0
 76144  1  0  0  0
 76145  1  0  0  0
 76146  1  0  0  0
 77 80  1  0  0  0
 77147  1  0  0  0
 77148  1  0  0  0
 77149  1  0  0  0
 78150  1  0  0  0
 78151  1  0  0  0
M  ISO  4   1 100  68 101  78 101  80 100
M  END
> <chiral flag>
0

> <version>
0

> <s_m_source_file>
/data/baiqing/PycharmProjects/Reinvent-master-3.2/result/LINK_invent/BTK/process_docking_weight1_custom_sum_contain_oxygen_bond_distance_aromatic_linkinvent_7_9_3/rearranged_h_0014.sdf

> <i_m_source_file_index>
85

> <r_mmod_Potential_Energy-OPLS-2005>
3257.28076171875

> <r_mmod_Stretch_Energy-OPLS-2005>
1342.318359375

> <r_mmod_Bend_Energy-OPLS-2005>
775.222229003906

> <r_mmod_Torsional_Energy-OPLS-2005>
262.967834472656

> <r_mmod_Improper_Torsional_Energy-OPLS-2005>
3.77264833450317

> <r_mmod_Van_der_Waal_Energy-OPLS-2005>
121.767295837402

> <r_mmod_Electrostatic_Energy-OPLS-2005>
-297.794158935547

> <r_mmod_Solvation_Energy-OPLS-2005>
-197.013336181641

> <b_mmod_Minimization_Converged-OPLS-2005>
0

> <r_mmod_RMS_Derivative-OPLS-2005>
5.02763319015503

$$$$
85
                    3D
 Structure written by MMmdl.
162169  0  0  1  0            999 V2000
  -30.4178  -15.2956   20.3522 C   0  0  0  0  0  0
  -30.4253  -12.8241   19.5508 C   0  0  0  0  0  0
  -29.5362  -12.6093   18.3017 C   0  0  0  0  0  0
  -28.0850  -12.3252   18.7179 C   0  0  0  0  0  0
  -27.6081  -13.2877   19.8330 C   0  0  2  0  0  0
  -28.6332  -13.4716   20.9714 C   0  0  0  0  0  0
  -25.2360  -13.8287   20.5780 C   0  0  0  0  0  0
  -24.1723  -13.0445   20.9284 C   0  0  0  0  0  0
  -24.6401  -11.6949   20.8774 C   0  0  0  0  0  0
  -23.9113  -10.4288   21.0412 C   0  0  0  0  0  0
  -24.3645   -9.4214   21.9200 C   0  0  0  0  0  0
  -23.6314   -8.2258   22.0760 C   0  0  0  0  0  0
  -22.4293   -8.0297   21.3559 C   0  0  0  0  0  0
  -21.9941   -9.0270   20.4655 C   0  0  0  0  0  0
  -22.7280  -10.2147   20.3065 C   0  0  0  0  0  0
  -21.6882   -6.0739   22.5278 C   0  0  0  0  0  0
  -21.4027   -6.5634   23.8216 C   0  0  0  0  0  0
  -21.3666   -5.6791   24.9174 C   0  0  0  0  0  0
  -21.6050   -4.3056   24.7237 C   0  0  0  0  0  0
  -21.8817   -3.8152   23.4353 C   0  0  0  0  0  0
  -21.9206   -4.6966   22.3405 C   0  0  0  0  0  0
  -22.7738  -13.5189   21.1924 C   0  0  0  0  0  0
  -22.1665   -4.2140   21.0991 F   0  0  0  0  0  0
  -21.5629   -3.4538   25.7758 F   0  0  0  0  0  0
  -29.8678  -13.9802   20.3531 N   0  0  0  0  0  0
  -26.2790  -12.9566   20.3263 N   0  0  0  0  0  0
  -25.9333  -11.6653   20.5726 N   0  0  0  0  0  0
  -22.0383  -12.8154   22.0467 N   0  0  0  0  0  0
  -25.3971  -15.2024   20.4210 N   0  0  0  0  0  0
  -31.6259  -15.2781   20.0732 O   0  0  0  0  0  0
  -21.6661   -6.8882   21.4240 O   0  0  0  0  0  0
  -22.3422  -14.5496   20.6786 O   0  0  0  0  0  0
  -24.6603  -31.8277   23.1695 C   0  0  0  0  0  0
  -25.9283  -32.4619   23.8186 C   0  0  1  0  0  0
  -27.2177  -26.9356   20.1702 C   0  0  0  0  0  0
  -25.5964  -33.8436   24.2118 N   0  0  0  0  0  0
  -23.4777  -30.4382   21.5198 C   0  0  2  0  0  0
  -24.9311  -28.8308   20.1052 C   0  0  0  0  0  0
  -22.7662  -29.4452   22.4762 C   0  0  0  0  0  0
  -18.0323  -28.1394   22.8472 C   0  0  0  0  0  0
  -24.1483  -36.7208   23.2654 C   0  0  0  0  0  0
  -26.0467  -30.6362   21.3993 C   0  0  0  0  0  0
  -26.1157  -29.2282   20.7379 C   0  0  0  0  0  0
  -27.2563  -28.3042   20.7425 C   0  0  0  0  0  0
  -26.0109  -26.6964   19.4795 C   0  0  0  0  0  0
  -24.9072  -27.5869   19.4527 C   0  0  0  0  0  0
  -23.7142  -29.7540   20.1442 C   0  0  0  0  0  0
  -25.4132  -36.3018   24.0315 C   0  0  1  0  0  0
  -20.5950  -28.3768   23.1163 C   0  0  2  0  0  0
  -20.6788  -26.9440   22.5384 C   0  0  0  0  0  0
  -19.5764  -26.6368   21.5197 C   0  0  0  0  0  0
  -18.1950  -26.7932   22.1608 C   0  0  0  0  0  0
  -19.1585  -28.8902   23.2819 C   0  0  0  0  0  0
  -18.9492  -30.1475   23.8870 C   0  0  0  0  0  0
  -17.6489  -30.6592   24.0558 C   0  0  0  0  0  0
  -25.9099  -34.9375   23.5051 C   0  0  0  0  0  0
  -16.5383  -29.9069   23.6328 C   0  0  0  0  0  0
  -16.7315  -28.6482   23.0383 C   0  0  0  0  0  0
  -26.4533  -31.6556   25.0717 C   0  0  0  0  0  0
  -25.3634  -31.3762   26.1358 C   0  0  0  0  0  0
  -27.0452  -30.2940   24.6447 C   0  0  0  0  0  0
  -27.6085  -32.4334   25.7475 C   0  0  0  0  0  0
  -27.5583  -37.1758   24.8467 C   0  0  0  0  0  0
  -21.4327  -29.3061   22.3507 N   0  0  0  0  0  0
  -26.4299  -37.3733   23.9412 N   0  0  0  0  0  0
  -24.7503  -30.9921   22.0830 N   0  0  0  0  0  0
  -23.4212  -28.8034   23.3013 O   0  0  0  0  0  0
  -28.2102  -25.8241   20.2690 O   0  0  0  0  0  0
  -26.5718  -34.8908   22.4657 O   0  0  0  0  0  0
  -23.5665  -32.1269   23.6772 O   0  0  0  0  0  0
  -29.2128  -19.7321   20.6071 C   0  0  0  0  0  0
  -27.5122  -21.5619   16.3996 C   0  0  0  0  0  0
  -28.6327  -22.7316   22.0677 C   0  0  0  0  0  0
  -31.3061  -18.4371   19.9253 C   0  0  0  0  0  0
  -29.3306  -18.0750   18.4626 C   0  0  0  0  0  0
  -28.5102  -21.5447   17.5636 C   0  0  0  0  0  0
  -27.8790  -21.0232   18.8697 C   0  0  0  0  0  0
  -28.0128  -24.2067   19.9651 C   0  0  0  0  0  0
  -28.8195  -22.6830   20.5438 C   0  0  2  0  0  0
  -29.7849  -18.1812   19.9296 C   0  0  0  0  0  0
  -29.6593  -16.5809   20.4615 N   0  0  0  0  0  0
  -28.7792  -21.0635   20.0305 N   0  0  0  0  0  0
  -29.3112  -19.7157   21.8342 O   0  0  0  0  0  0
  -31.4526  -13.0056   19.2348 H   0  0  0  0  0  0
  -30.4675  -11.9181   20.1553 H   0  0  0  0  0  0
  -29.9189  -11.7898   17.6925 H   0  0  0  0  0  0
  -29.5685  -13.5064   17.6796 H   0  0  0  0  0  0
  -28.0382  -11.2950   19.0738 H   0  0  0  0  0  0
  -27.4230  -12.3862   17.8552 H   0  0  0  0  0  0
  -27.5208  -14.2572   19.3404 H   0  0  0  0  0  0
  -28.7992  -12.5406   21.5155 H   0  0  0  0  0  0
  -28.2684  -14.1959   21.7017 H   0  0  0  0  0  0
  -25.2765   -9.5695   22.4810 H   0  0  0  0  0  0
  -24.0025   -7.4641   22.7472 H   0  0  0  0  0  0
  -21.0887   -8.8779   19.8950 H   0  0  0  0  0  0
  -22.3726  -10.9688   19.6183 H   0  0  0  0  0  0
  -21.2001   -7.6143   23.9716 H   0  0  0  0  0  0
  -21.1495   -6.0520   25.9075 H   0  0  0  0  0  0
  -22.0588   -2.7604   23.2873 H   0  0  0  0  0  0
  -22.4008  -11.9820   22.4864 H   0  0  0  0  0  0
  -21.0989  -13.1153   22.2659 H   0  0  0  0  0  0
  -24.6246  -15.8507   20.5272 H   0  0  0  0  0  0
  -26.2331  -15.6400   20.0578 H   0  0  0  0  0  0
  -26.7370  -32.5157   23.0924 H   0  0  0  0  0  0
  -25.0036  -33.9530   25.0221 H   0  0  0  0  0  0
  -22.7940  -31.2728   21.3498 H   0  0  0  0  0  0
  -23.3800  -35.9473   23.3267 H   0  0  0  0  0  0
  -24.3564  -36.8896   22.2074 H   0  0  0  0  0  0
  -23.7149  -37.6349   23.6732 H   0  0  0  0  0  0
  -26.2289  -31.3862   20.6289 H   0  0  0  0  0  0
  -26.9036  -30.6908   22.0576 H   0  0  0  0  0  0
  -28.1590  -28.6189   21.2474 H   0  0  0  0  0  0
  -25.8909  -25.7496   18.9731 H   0  0  0  0  0  0
  -24.0091  -27.2832   18.9313 H   0  0  0  0  0  0
  -23.8574  -30.5268   19.3878 H   0  0  0  0  0  0
  -22.8264  -29.2020   19.8336 H   0  0  0  0  0  0
  -25.1300  -36.1857   25.0798 H   0  0  0  0  0  0
  -21.0065  -28.3374   24.1284 H   0  0  0  0  0  0
  -20.5618  -26.2400   23.3648 H   0  0  0  0  0  0
  -21.6655  -26.7360   22.1231 H   0  0  0  0  0  0
  -19.6914  -25.6260   21.1281 H   0  0  0  0  0  0
  -19.6697  -27.3136   20.6697 H   0  0  0  0  0  0
  -17.4213  -26.6705   21.4013 H   0  0  0  0  0  0
  -18.0350  -26.0061   22.8999 H   0  0  0  0  0  0
  -19.7961  -30.7295   24.2247 H   0  0  0  0  0  0
  -17.5032  -31.6270   24.5159 H   0  0  0  0  0  0
  -15.5381  -30.2979   23.7639 H   0  0  0  0  0  0
  -15.8722  -28.0771   22.7150 H   0  0  0  0  0  0
  -24.5877  -30.7083   25.7594 H   0  0  0  0  0  0
  -24.8753  -32.2935   26.4667 H   0  0  0  0  0  0
  -25.7828  -30.8975   27.0223 H   0  0  0  0  0  0
  -26.3130  -29.6608   24.1445 H   0  0  0  0  0  0
  -27.3997  -29.7312   25.5091 H   0  0  0  0  0  0
  -27.9046  -30.4147   23.9854 H   0  0  0  0  0  0
  -27.2765  -33.3729   26.1899 H   0  0  0  0  0  0
  -28.3944  -32.6734   25.0300 H   0  0  0  0  0  0
  -28.0716  -31.8552   26.5492 H   0  0  0  0  0  0
  -28.2576  -38.0086   24.7581 H   0  0  0  0  0  0
  -28.1115  -36.2623   24.6225 H   0  0  0  0  0  0
  -27.2318  -37.1307   25.8877 H   0  0  0  0  0  0
  -20.9587  -29.8792   21.6664 H   0  0  0  0  0  0
  -26.0171  -38.2794   24.1447 H   0  0  0  0  0  0
  -27.9946  -21.8790   15.4736 H   0  0  0  0  0  0
  -26.6866  -22.2501   16.5893 H   0  0  0  0  0  0
  -27.0910  -20.5713   16.2300 H   0  0  0  0  0  0
  -28.7251  -23.7566   22.4326 H   0  0  0  0  0  0
  -29.3795  -22.1396   22.5935 H   0  0  0  0  0  0
  -27.6432  -22.3793   22.3530 H   0  0  0  0  0  0
  -31.5502  -19.4417   19.5755 H   0  0  0  0  0  0
  -31.8426  -17.7423   19.2806 H   0  0  0  0  0  0
  -31.7138  -18.3346   20.9327 H   0  0  0  0  0  0
  -29.6210  -18.9424   17.8837 H   0  0  0  0  0  0
  -28.2506  -17.9459   18.3820 H   0  0  0  0  0  0
  -29.7904  -17.2205   17.9623 H   0  0  0  0  0  0
  -28.9051  -22.5484   17.6994 H   0  0  0  0  0  0
  -29.3687  -20.9451   17.2783 H   0  0  0  0  0  0
  -27.4767  -20.0245   18.7151 H   0  0  0  0  0  0
  -26.9984  -21.6207   19.1115 H   0  0  0  0  0  0
  -26.9498  -24.0297   20.1333 H   0  0  0  0  0  0
  -28.1069  -24.1894   18.8820 H   0  0  0  0  0  0
  -29.8730  -22.9033   20.3712 H   0  0  0  0  0  0
  -28.7274  -16.3999   20.8059 H   0  0  0  0  0  0
  1 25  1  0  0  0
  1 30  2  0  0  0
  1 81  1  0  0  0
  2  3  1  0  0  0
  2 25  1  0  0  0
  2 84  1  0  0  0
  2 85  1  0  0  0
  3  4  1  0  0  0
  3 86  1  0  0  0
  3 87  1  0  0  0
  4  5  1  0  0  0
  4 88  1  0  0  0
  4 89  1  0  0  0
  5  6  1  0  0  0
  5 26  1  0  0  0
  5 90  1  0  0  0
  6 25  1  0  0  0
  6 91  1  0  0  0
  6 92  1  0  0  0
  7  8  2  0  0  0
  7 26  1  0  0  0
  7 29  1  0  0  0
  8  9  1  0  0  0
  8 22  1  0  0  0
  9 10  1  0  0  0
  9 27  2  0  0  0
 10 11  2  0  0  0
 10 15  1  0  0  0
 11 12  1  0  0  0
 11 93  1  0  0  0
 12 13  2  0  0  0
 12 94  1  0  0  0
 13 14  1  0  0  0
 13 31  1  0  0  0
 14 15  2  0  0  0
 14 95  1  0  0  0
 15 96  1  0  0  0
 16 17  2  0  0  0
 16 21  1  0  0  0
 16 31  1  0  0  0
 17 18  1  0  0  0
 17 97  1  0  0  0
 18 19  2  0  0  0
 18 98  1  0  0  0
 19 20  1  0  0  0
 19 24  1  0  0  0
 20 21  2  0  0  0
 20 99  1  0  0  0
 21 23  1  0  0  0
 22 28  1  0  0  0
 22 32  2  0  0  0
 26 27  1  0  0  0
 28100  1  0  0  0
 28101  1  0  0  0
 29102  1  0  0  0
 29103  1  0  0  0
 33 34  1  0  0  0
 33 66  1  0  0  0
 33 70  2  0  0  0
 34 36  1  0  0  0
 34 59  1  0  0  0
 34104  1  0  0  0
 35 44  2  0  0  0
 35 45  1  0  0  0
 35 68  1  0  0  0
 36 56  1  0  0  0
 36105  1  0  0  0
 37 39  1  0  0  0
 37 47  1  0  0  0
 37 66  1  0  0  0
 37106  1  0  0  0
 38 43  2  0  0  0
 38 46  1  0  0  0
 38 47  1  0  0  0
 39 64  1  0  0  0
 39 67  2  0  0  0
 40 52  1  0  0  0
 40 53  2  0  0  0
 40 58  1  0  0  0
 41107  1  0  0  0
 41108  1  0  0  0
 41109  1  0  0  0
 41 48  1  0  0  0
 42 43  1  0  0  0
 42 66  1  0  0  0
 42110  1  0  0  0
 42111  1  0  0  0
 43 44  1  0  0  0
 44112  1  0  0  0
 45 46  2  0  0  0
 45113  1  0  0  0
 46114  1  0  0  0
 47115  1  0  0  0
 47116  1  0  0  0
 48 56  1  0  0  0
 48 65  1  0  0  0
 48117  1  0  0  0
 49 50  1  0  0  0
 49 53  1  0  0  0
 49 64  1  0  0  0
 49118  1  0  0  0
 50 51  1  0  0  0
 50119  1  0  0  0
 50120  1  0  0  0
 51 52  1  0  0  0
 51121  1  0  0  0
 51122  1  0  0  0
 52123  1  0  0  0
 52124  1  0  0  0
 53 54  1  0  0  0
 54 55  2  0  0  0
 54125  1  0  0  0
 55 57  1  0  0  0
 55126  1  0  0  0
 56 69  2  0  0  0
 57 58  2  0  0  0
 57127  1  0  0  0
 58128  1  0  0  0
 59 60  1  0  0  0
 59 61  1  0  0  0
 59 62  1  0  0  0
 60129  1  0  0  0
 60130  1  0  0  0
 60131  1  0  0  0
 61132  1  0  0  0
 61133  1  0  0  0
 61134  1  0  0  0
 62135  1  0  0  0
 62136  1  0  0  0
 62137  1  0  0  0
 63 65  1  0  0  0
 63138  1  0  0  0
 63139  1  0  0  0
 63140  1  0  0  0
 64141  1  0  0  0
 65142  1  0  0  0
 68 78  1  0  0  0
 71 80  1  0  0  0
 71 82  1  0  0  0
 71 83  2  0  0  0
 72 76  1  0  0  0
 72143  1  0  0  0
 72144  1  0  0  0
 72145  1  0  0  0
 73146  1  0  0  0
 73147  1  0  0  0
 73148  1  0  0  0
 73 79  1  0  0  0
 74149  1  0  0  0
 74150  1  0  0  0
 74151  1  0  0  0
 74 80  1  0  0  0
 75 80  1  0  0  0
 75152  1  0  0  0
 75153  1  0  0  0
 75154  1  0  0  0
 76 77  1  0  0  0
 76155  1  0  0  0
 76156  1  0  0  0
 77 82  1  0  0  0
 77157  1  0  0  0
 77158  1  0  0  0
 78 79  1  0  0  0
 78159  1  0  0  0
 78160  1  0  0  0
 79 82  1  0  0  0
 79161  1  0  0  0
 80 81  1  0  0  0
 81162  1  0  0  0
M  ISO  4   1 100  68 101  78 101  81 100
M  END
> <chiral flag>
0

> <version>
0

> <s_m_source_file>
/data/baiqing/PycharmProjects/Reinvent-master-3.2/result/LINK_invent/BTK/process_docking_weight1_custom_sum_contain_oxygen_bond_distance_aromatic_linkinvent_7_9_3/rearranged_h_0014.sdf

> <i_m_source_file_index>
86

> <r_mmod_Potential_Energy-OPLS-2005>
1431.12524414062

> <r_mmod_Stretch_Energy-OPLS-2005>
674.111877441406

> <r_mmod_Bend_Energy-OPLS-2005>
470.628082275391

> <r_mmod_Torsional_Energy-OPLS-2005>
287.416076660156

> <r_mmod_Improper_Torsional_Energy-OPLS-2005>
6.56944227218628

> <r_mmod_Van_der_Waal_Energy-OPLS-2005>
111.362602233887

> <r_mmod_Electrostatic_Energy-OPLS-2005>
-366.694519042969

> <r_mmod_Solvation_Energy-OPLS-2005>
-224.76399230957

> <b_mmod_Minimization_Converged-OPLS-2005>
0

> <r_mmod_RMS_Derivative-OPLS-2005>
3.79415273666382

$$$$
86
                    3D
 Structure written by MMmdl.
151159  0  0  1  0            999 V2000
  -30.6272  -14.7417   20.4570 C   0  0  0  0  0  0
  -30.4228  -12.4511   19.4775 C   0  0  0  0  0  0
  -29.5053  -12.5033   18.2373 C   0  0  0  0  0  0
  -28.0315  -12.3323   18.6509 C   0  0  0  0  0  0
  -27.6379  -13.2362   19.8499 C   0  0  2  0  0  0
  -28.6819  -13.1807   20.9862 C   0  0  0  0  0  0
  -25.2480  -13.8205   20.5697 C   0  0  0  0  0  0
  -24.1779  -13.0440   20.9203 C   0  0  0  0  0  0
  -24.6385  -11.6924   20.8751 C   0  0  0  0  0  0
  -23.9068  -10.4295   21.0410 C   0  0  0  0  0  0
  -24.3618   -9.4209   21.9187 C   0  0  0  0  0  0
  -23.6293   -8.2243   22.0755 C   0  0  0  0  0  0
  -22.4276   -8.0279   21.3544 C   0  0  0  0  0  0
  -21.9912   -9.0255   20.4647 C   0  0  0  0  0  0
  -22.7241  -10.2134   20.3058 C   0  0  0  0  0  0
  -21.6853   -6.0735   22.5278 C   0  0  0  0  0  0
  -21.4014   -6.5640   23.8210 C   0  0  0  0  0  0
  -21.3659   -5.6793   24.9173 C   0  0  0  0  0  0
  -21.6040   -4.3055   24.7223 C   0  0  0  0  0  0
  -21.8821   -3.8147   23.4344 C   0  0  0  0  0  0
  -21.9193   -4.6962   22.3401 C   0  0  0  0  0  0
  -22.7800  -13.5217   21.1867 C   0  0  0  0  0  0
  -22.1661   -4.2147   21.0978 F   0  0  0  0  0  0
  -21.5628   -3.4540   25.7737 F   0  0  0  0  0  0
  -29.9825  -13.5249   20.4007 N   0  0  0  0  0  0
  -26.2913  -12.9428   20.3290 N   0  0  0  0  0  0
  -25.9318  -11.6564   20.5763 N   0  0  0  0  0  0
  -22.0455  -12.8206   22.0430 N   0  0  0  0  0  0
  -25.4149  -15.1929   20.4130 N   0  0  0  0  0  0
  -31.8174  -14.7883   20.1381 O   0  0  0  0  0  0
  -21.6640   -6.8877   21.4239 O   0  0  0  0  0  0
  -22.3479  -14.5522   20.6719 O   0  0  0  0  0  0
  -24.6305  -31.8538   23.1963 C   0  0  0  0  0  0
  -25.9127  -32.4746   23.8310 C   0  0  1  0  0  0
  -27.2240  -27.2595   20.1249 C   0  0  0  0  0  0
  -25.5921  -33.8550   24.2234 N   0  0  0  0  0  0
  -23.4270  -30.4751   21.5396 C   0  0  2  0  0  0
  -24.8738  -28.9192   20.1070 C   0  0  0  0  0  0
  -22.7495  -29.4595   22.4906 C   0  0  0  0  0  0
  -18.0287  -28.1387   22.8487 C   0  0  0  0  0  0
  -24.1484  -36.7276   23.2644 C   0  0  0  0  0  0
  -25.9718  -30.7659   21.3750 C   0  0  0  0  0  0
  -26.0428  -29.3881   20.7169 C   0  0  0  0  0  0
  -27.2158  -28.5690   20.7163 C   0  0  0  0  0  0
  -26.0267  -26.8507   19.4962 C   0  0  0  0  0  0
  -24.8714  -27.6596   19.4865 C   0  0  0  0  0  0
  -23.6435  -29.8060   20.1557 C   0  0  0  0  0  0
  -25.4114  -36.3064   24.0325 C   0  0  1  0  0  0
  -20.5892  -28.3695   23.1270 C   0  0  2  0  0  0
  -20.6773  -26.9411   22.5411 C   0  0  0  0  0  0
  -19.5749  -26.6381   21.5216 C   0  0  0  0  0  0
  -18.1931  -26.7929   22.1627 C   0  0  0  0  0  0
  -19.1543  -28.8858   23.2874 C   0  0  0  0  0  0
  -18.9465  -30.1459   23.8896 C   0  0  0  0  0  0
  -17.6466  -30.6590   24.0563 C   0  0  0  0  0  0
  -25.9058  -34.9439   23.5086 C   0  0  0  0  0  0
  -16.5355  -29.9088   23.6331 C   0  0  0  0  0  0
  -16.7275  -28.6504   23.0358 C   0  0  0  0  0  0
  -26.4497  -31.6580   25.0707 C   0  0  0  0  0  0
  -25.3712  -31.3739   26.1422 C   0  0  0  0  0  0
  -27.0349  -30.2998   24.6196 C   0  0  0  0  0  0
  -27.6045  -32.4332   25.7481 C   0  0  0  0  0  0
  -27.5576  -37.1791   24.8469 C   0  0  0  0  0  0
  -21.4202  -29.3040   22.3659 N   0  0  0  0  0  0
  -26.4285  -37.3767   23.9416 N   0  0  0  0  0  0
  -24.6955  -31.0502   22.0933 N   0  0  0  0  0  0
  -23.4197  -28.8143   23.3012 O   0  0  0  0  0  0
  -28.3450  -26.4022   20.2146 O   0  0  0  0  0  0
  -26.5643  -34.8921   22.4662 O   0  0  0  0  0  0
  -23.5455  -32.1358   23.7264 O   0  0  0  0  0  0
  -31.6044  -17.7393   20.5371 C   0  0  0  0  0  0
  -31.9883  -19.0902   20.4785 C   0  0  0  0  0  0
  -29.6581  -19.8769   20.5245 C   0  0  0  0  0  0
  -30.2462  -17.3519   20.5843 C   0  0  0  0  0  0
  -31.0521  -20.1414   20.4763 C   0  0  0  0  0  0
  -29.2879  -18.4560   20.5872 C   0  0  0  0  0  0
  -28.3484  -23.7261   20.4870 C   0  0  0  0  0  0
  -28.6035  -21.0875   20.6243 C   0  0  0  0  0  0
  -28.4478  -25.0434   19.5745 C   0  0  0  0  0  0
  -29.8790  -15.9016   20.6580 N   0  0  0  0  0  0
  -28.8078  -22.4933   20.0391 N   0  0  0  0  0  0
  -27.8126  -23.8201   21.5932 O   0  0  0  0  0  0
  -31.6991  -21.7452   20.4653 Cl  0  0  0  0  0  0
  -27.6146  -18.0353   20.6919 Cl  0  0  0  0  0  0
  -31.4655  -12.5586   19.1745 H   0  0  0  0  0  0
  -30.3559  -11.4779   19.9661 H   0  0  0  0  0  0
  -29.7858  -11.7263   17.5250 H   0  0  0  0  0  0
  -29.6357  -13.4551   17.7203 H   0  0  0  0  0  0
  -27.8860  -11.2843   18.9152 H   0  0  0  0  0  0
  -27.3748  -12.5237   17.8013 H   0  0  0  0  0  0
  -27.6294  -14.2561   19.4646 H   0  0  0  0  0  0
  -28.7149  -12.1879   21.4375 H   0  0  0  0  0  0
  -28.4180  -13.8730   21.7871 H   0  0  0  0  0  0
  -25.2764   -9.5682   22.4762 H   0  0  0  0  0  0
  -23.9998   -7.4634   22.7477 H   0  0  0  0  0  0
  -21.0843   -8.8772   19.8954 H   0  0  0  0  0  0
  -22.3698  -10.9672   19.6165 H   0  0  0  0  0  0
  -21.2008   -7.6150   23.9711 H   0  0  0  0  0  0
  -21.1477   -6.0526   25.9074 H   0  0  0  0  0  0
  -22.0601   -2.7609   23.2846 H   0  0  0  0  0  0
  -22.4077  -11.9861   22.4799 H   0  0  0  0  0  0
  -21.1078  -13.1231   22.2662 H   0  0  0  0  0  0
  -24.6485  -15.8441   20.5401 H   0  0  0  0  0  0
  -26.2664  -15.6465   20.1091 H   0  0  0  0  0  0
  -26.7186  -32.5390   23.1043 H   0  0  0  0  0  0
  -25.0050  -33.9684   25.0366 H   0  0  0  0  0  0
  -22.7235  -31.2973   21.3924 H   0  0  0  0  0  0
  -23.3753  -35.9601   23.3305 H   0  0  0  0  0  0
  -24.3573  -36.8903   22.2059 H   0  0  0  0  0  0
  -23.7232  -37.6473   23.6669 H   0  0  0  0  0  0
  -26.1101  -31.5258   20.6049 H   0  0  0  0  0  0
  -26.8496  -30.8146   22.0078 H   0  0  0  0  0  0
  -28.1109  -28.9235   21.2074 H   0  0  0  0  0  0
  -25.9380  -25.8798   19.0357 H   0  0  0  0  0  0
  -23.9730  -27.2919   19.0105 H   0  0  0  0  0  0
  -23.7641  -30.5806   19.3974 H   0  0  0  0  0  0
  -22.7619  -29.2373   19.8540 H   0  0  0  0  0  0
  -25.1296  -36.1903   25.0816 H   0  0  0  0  0  0
  -20.9984  -28.3270   24.1390 H   0  0  0  0  0  0
  -20.5670  -26.2308   23.3618 H   0  0  0  0  0  0
  -21.6639  -26.7430   22.1205 H   0  0  0  0  0  0
  -19.6912  -25.6290   21.1249 H   0  0  0  0  0  0
  -19.6685  -27.3189   20.6744 H   0  0  0  0  0  0
  -17.4198  -26.6677   21.4033 H   0  0  0  0  0  0
  -18.0327  -26.0073   22.9025 H   0  0  0  0  0  0
  -19.7946  -30.7272   24.2266 H   0  0  0  0  0  0
  -17.5024  -31.6273   24.5159 H   0  0  0  0  0  0
  -15.5359  -30.2995   23.7659 H   0  0  0  0  0  0
  -15.8672  -28.0821   22.7082 H   0  0  0  0  0  0
  -24.5889  -30.7085   25.7750 H   0  0  0  0  0  0
  -24.8899  -32.2915   26.4816 H   0  0  0  0  0  0
  -25.8017  -30.8936   27.0217 H   0  0  0  0  0  0
  -26.2932  -29.6745   24.1211 H   0  0  0  0  0  0
  -27.4029  -29.7259   25.4711 H   0  0  0  0  0  0
  -27.8806  -30.4280   23.9436 H   0  0  0  0  0  0
  -27.2642  -33.3646   26.2020 H   0  0  0  0  0  0
  -28.3869  -32.6875   25.0317 H   0  0  0  0  0  0
  -28.0690  -31.8482   26.5429 H   0  0  0  0  0  0
  -28.2587  -38.0094   24.7520 H   0  0  0  0  0  0
  -28.1076  -36.2627   24.6281 H   0  0  0  0  0  0
  -27.2299  -37.1421   25.8873 H   0  0  0  0  0  0
  -20.9387  -29.8760   21.6861 H   0  0  0  0  0  0
  -26.0163  -38.2837   24.1423 H   0  0  0  0  0  0
  -32.4027  -17.0162   20.5622 H   0  0  0  0  0  0
  -33.0420  -19.3281   20.4546 H   0  0  0  0  0  0
  -28.3908  -21.2054   21.6876 H   0  0  0  0  0  0
  -27.6704  -20.7317   20.1881 H   0  0  0  0  0  0
  -27.7754  -24.9358   18.7264 H   0  0  0  0  0  0
  -29.4410  -25.0159   19.1264 H   0  0  0  0  0  0
  -28.8992  -15.7319   20.8262 H   0  0  0  0  0  0
  -29.2676  -22.5123   19.1388 H   0  0  0  0  0  0
  1 25  1  0  0  0
  1 30  2  0  0  0
  1 80  1  0  0  0
  2  3  1  0  0  0
  2 25  1  0  0  0
  2 85  1  0  0  0
  2 86  1  0  0  0
  3  4  1  0  0  0
  3 87  1  0  0  0
  3 88  1  0  0  0
  4  5  1  0  0  0
  4 89  1  0  0  0
  4 90  1  0  0  0
  5  6  1  0  0  0
  5 26  1  0  0  0
  5 91  1  0  0  0
  6 25  1  0  0  0
  6 92  1  0  0  0
  6 93  1  0  0  0
  7  8  2  0  0  0
  7 26  1  0  0  0
  7 29  1  0  0  0
  8  9  1  0  0  0
  8 22  1  0  0  0
  9 10  1  0  0  0
  9 27  2  0  0  0
 10 11  2  0  0  0
 10 15  1  0  0  0
 11 12  1  0  0  0
 11 94  1  0  0  0
 12 13  2  0  0  0
 12 95  1  0  0  0
 13 14  1  0  0  0
 13 31  1  0  0  0
 14 15  2  0  0  0
 14 96  1  0  0  0
 15 97  1  0  0  0
 16 17  2  0  0  0
 16 21  1  0  0  0
 16 31  1  0  0  0
 17 18  1  0  0  0
 17 98  1  0  0  0
 18 19  2  0  0  0
 18 99  1  0  0  0
 19 20  1  0  0  0
 19 24  1  0  0  0
 20 21  2  0  0  0
 20100  1  0  0  0
 21 23  1  0  0  0
 22 28  1  0  0  0
 22 32  2  0  0  0
 26 27  1  0  0  0
 28101  1  0  0  0
 28102  1  0  0  0
 29103  1  0  0  0
 29104  1  0  0  0
 33 34  1  0  0  0
 33 66  1  0  0  0
 33 70  2  0  0  0
 34 36  1  0  0  0
 34 59  1  0  0  0
 34105  1  0  0  0
 35 44  2  0  0  0
 35 45  1  0  0  0
 35 68  1  0  0  0
 36 56  1  0  0  0
 36106  1  0  0  0
 37 39  1  0  0  0
 37 47  1  0  0  0
 37 66  1  0  0  0
 37107  1  0  0  0
 38 43  2  0  0  0
 38 46  1  0  0  0
 38 47  1  0  0  0
 39 64  1  0  0  0
 39 67  2  0  0  0
 40 52  1  0  0  0
 40 53  2  0  0  0
 40 58  1  0  0  0
 41108  1  0  0  0
 41109  1  0  0  0
 41110  1  0  0  0
 41 48  1  0  0  0
 42 43  1  0  0  0
 42 66  1  0  0  0
 42111  1  0  0  0
 42112  1  0  0  0
 43 44  1  0  0  0
 44113  1  0  0  0
 45 46  2  0  0  0
 45114  1  0  0  0
 46115  1  0  0  0
 47116  1  0  0  0
 47117  1  0  0  0
 48 56  1  0  0  0
 48 65  1  0  0  0
 48118  1  0  0  0
 49 50  1  0  0  0
 49 53  1  0  0  0
 49 64  1  0  0  0
 49119  1  0  0  0
 50 51  1  0  0  0
 50120  1  0  0  0
 50121  1  0  0  0
 51 52  1  0  0  0
 51122  1  0  0  0
 51123  1  0  0  0
 52124  1  0  0  0
 52125  1  0  0  0
 53 54  1  0  0  0
 54 55  2  0  0  0
 54126  1  0  0  0
 55 57  1  0  0  0
 55127  1  0  0  0
 56 69  2  0  0  0
 57 58  2  0  0  0
 57128  1  0  0  0
 58129  1  0  0  0
 59 60  1  0  0  0
 59 61  1  0  0  0
 59 62  1  0  0  0
 60130  1  0  0  0
 60131  1  0  0  0
 60132  1  0  0  0
 61133  1  0  0  0
 61134  1  0  0  0
 61135  1  0  0  0
 62136  1  0  0  0
 62137  1  0  0  0
 62138  1  0  0  0
 63 65  1  0  0  0
 63139  1  0  0  0
 63140  1  0  0  0
 63141  1  0  0  0
 64142  1  0  0  0
 65143  1  0  0  0
 68 79  1  0  0  0
 71 72  2  0  0  0
 71 74  1  0  0  0
 71144  1  0  0  0
 72 75  1  0  0  0
 72145  1  0  0  0
 73 75  2  0  0  0
 73 76  1  0  0  0
 73 78  1  0  0  0
 74 76  2  0  0  0
 74 80  1  0  0  0
 75 83  1  0  0  0
 76 84  1  0  0  0
 77 79  1  0  0  0
 77 81  1  0  0  0
 77 82  2  0  0  0
 78 81  1  0  0  0
 78146  1  0  0  0
 78147  1  0  0  0
 79148  1  0  0  0
 79149  1  0  0  0
 80150  1  0  0  0
 81151  1  0  0  0
M  ISO  4   1 100  68 101  79 101  80 100
M  END
> <chiral flag>
0

> <version>
0

> <s_m_source_file>
/data/baiqing/PycharmProjects/Reinvent-master-3.2/result/LINK_invent/BTK/process_docking_weight1_custom_sum_contain_oxygen_bond_distance_aromatic_linkinvent_7_9_3/rearranged_h_0014.sdf

> <i_m_source_file_index>
87

> <r_mmod_Potential_Energy-OPLS-2005>
80.2558975219727

> <r_mmod_Stretch_Energy-OPLS-2005>
133.087020874023

> <r_mmod_Bend_Energy-OPLS-2005>
178.474182128906

> <r_mmod_Torsional_Energy-OPLS-2005>
202.679824829102

> <r_mmod_Improper_Torsional_Energy-OPLS-2005>
5.28032827377319

> <r_mmod_Van_der_Waal_Energy-OPLS-2005>
142.770431518555

> <r_mmod_Electrostatic_Energy-OPLS-2005>
-426.509857177734

> <r_mmod_Solvation_Energy-OPLS-2005>
-238.741622924805

> <b_mmod_Minimization_Converged-OPLS-2005>
0

> <r_mmod_RMS_Derivative-OPLS-2005>
0.741690874099731

$$$$
87
                    3D
 Structure written by MMmdl.
160168  0  0  1  0            999 V2000
  -30.6628  -14.5263   20.4757 C   0  0  0  0  0  0
  -30.4275  -12.3105   19.4388 C   0  0  0  0  0  0
  -29.4951  -12.4523   18.2151 C   0  0  0  0  0  0
  -28.0150  -12.3340   18.6282 C   0  0  0  0  0  0
  -27.6556  -13.2042   19.8621 C   0  0  2  0  0  0
  -28.7004  -13.0319   20.9885 C   0  0  0  0  0  0
  -25.2584  -13.8159   20.5677 C   0  0  0  0  0  0
  -24.1833  -13.0444   20.9183 C   0  0  0  0  0  0
  -24.6380  -11.6908   20.8746 C   0  0  0  0  0  0
  -23.9051  -10.4293   21.0411 C   0  0  0  0  0  0
  -24.3607   -9.4207   21.9184 C   0  0  0  0  0  0
  -23.6284   -8.2242   22.0754 C   0  0  0  0  0  0
  -22.4267   -8.0280   21.3544 C   0  0  0  0  0  0
  -21.9900   -9.0255   20.4650 C   0  0  0  0  0  0
  -22.7225  -10.2135   20.3058 C   0  0  0  0  0  0
  -21.6854   -6.0733   22.5276 C   0  0  0  0  0  0
  -21.4017   -6.5636   23.8209 C   0  0  0  0  0  0
  -21.3658   -5.6788   24.9171 C   0  0  0  0  0  0
  -21.6044   -4.3052   24.7221 C   0  0  0  0  0  0
  -21.8821   -3.8144   23.4342 C   0  0  0  0  0  0
  -21.9193   -4.6961   22.3399 C   0  0  0  0  0  0
  -22.7858  -13.5248   21.1840 C   0  0  0  0  0  0
  -22.1663   -4.2145   21.0978 F   0  0  0  0  0  0
  -21.5625   -3.4537   25.7736 F   0  0  0  0  0  0
  -30.0264  -13.3256   20.4246 N   0  0  0  0  0  0
  -26.2998  -12.9319   20.3328 N   0  0  0  0  0  0
  -25.9303  -11.6486   20.5781 N   0  0  0  0  0  0
  -22.0496  -12.8247   22.0401 N   0  0  0  0  0  0
  -25.4314  -15.1877   20.4076 N   0  0  0  0  0  0
  -31.8504  -14.6606   20.1749 O   0  0  0  0  0  0
  -21.6637   -6.8875   21.4237 O   0  0  0  0  0  0
  -22.3545  -14.5552   20.6686 O   0  0  0  0  0  0
  -24.6142  -31.8672   23.2078 C   0  0  0  0  0  0
  -25.9035  -32.4817   23.8378 C   0  0  1  0  0  0
  -27.2361  -27.4275   20.1116 C   0  0  0  0  0  0
  -25.5895  -33.8618   24.2321 N   0  0  0  0  0  0
  -23.4031  -30.4882   21.5478 C   0  0  2  0  0  0
  -24.8523  -28.9475   20.1187 C   0  0  0  0  0  0
  -22.7413  -29.4648   22.4984 C   0  0  0  0  0  0
  -18.0276  -28.1374   22.8492 C   0  0  0  0  0  0
  -24.1488  -36.7318   23.2635 C   0  0  0  0  0  0
  -25.9301  -30.8325   21.3597 C   0  0  0  0  0  0
  -26.0105  -29.4624   20.7154 C   0  0  0  0  0  0
  -27.2079  -28.7105   20.7059 C   0  0  0  0  0  0
  -26.0651  -26.9239   19.5107 C   0  0  0  0  0  0
  -24.8747  -27.6778   19.5124 C   0  0  0  0  0  0
  -23.6136  -29.8151   20.1639 C   0  0  0  0  0  0
  -25.4106  -36.3116   24.0340 C   0  0  1  0  0  0
  -20.5865  -28.3659   23.1321 C   0  0  2  0  0  0
  -20.6766  -26.9394   22.5423 C   0  0  0  0  0  0
  -19.5747  -26.6384   21.5213 C   0  0  0  0  0  0
  -18.1926  -26.7922   22.1624 C   0  0  0  0  0  0
  -19.1524  -28.8834   23.2905 C   0  0  0  0  0  0
  -18.9450  -30.1442   23.8911 C   0  0  0  0  0  0
  -17.6451  -30.6578   24.0567 C   0  0  0  0  0  0
  -25.9033  -34.9478   23.5131 C   0  0  0  0  0  0
  -16.5345  -29.9081   23.6319 C   0  0  0  0  0  0
  -16.7265  -28.6502   23.0334 C   0  0  0  0  0  0
  -26.4467  -31.6586   25.0699 C   0  0  0  0  0  0
  -25.3739  -31.3697   26.1455 C   0  0  0  0  0  0
  -27.0272  -30.3026   24.6055 C   0  0  0  0  0  0
  -27.6051  -32.4287   25.7465 C   0  0  0  0  0  0
  -27.5583  -37.1812   24.8465 C   0  0  0  0  0  0
  -21.4140  -29.3030   22.3728 N   0  0  0  0  0  0
  -26.4296  -37.3795   23.9410 N   0  0  0  0  0  0
  -24.6674  -31.0772   22.0973 N   0  0  0  0  0  0
  -23.4188  -28.8196   23.3027 O   0  0  0  0  0  0
  -28.3993  -26.6925   20.0729 O   0  0  0  0  0  0
  -26.5593  -34.8929   22.4690 O   0  0  0  0  0  0
  -23.5335  -32.1424   23.7475 O   0  0  0  0  0  0
  -30.0932  -19.6979   19.4337 C   0  0  0  0  0  0
  -29.4355  -19.3553   20.6306 C   0  0  0  0  0  0
  -30.5329  -17.3399   18.9456 C   0  0  0  0  0  0
  -29.9794  -16.9594   20.2094 C   0  0  0  0  0  0
  -30.6220  -18.7054   18.5987 C   0  0  0  0  0  0
  -29.4119  -17.9840   21.0268 C   0  0  0  0  0  0
  -28.7526  -22.9532   21.0968 C   0  0  0  0  0  0
  -30.9819  -16.3437   17.8872 C   0  0  0  0  0  0
  -27.3640  -21.4737   19.6830 C   0  0  0  0  0  0
  -28.7706  -20.4665   21.4717 C   0  0  0  0  0  0
  -28.2740  -24.1855   20.2736 C   0  0  0  0  0  0
  -28.4740  -25.5657   20.9662 C   0  0  0  0  0  0
  -29.8470  -15.5901   20.6579 N   0  0  0  0  0  0
  -28.3496  -21.6980   20.7466 N   0  0  0  0  0  0
  -29.5126  -23.1399   22.0517 O   0  0  0  0  0  0
  -31.1916  -19.0773   17.4268 F   0  0  0  0  0  0
  -28.6594  -17.5375   22.5223 Cl  0  0  0  0  0  0
  -31.4700  -12.4156   19.1325 H   0  0  0  0  0  0
  -30.3420  -11.3143   19.8745 H   0  0  0  0  0  0
  -29.7331  -11.6862   17.4763 H   0  0  0  0  0  0
  -29.6599  -13.4050   17.7171 H   0  0  0  0  0  0
  -27.8233  -11.2835   18.8502 H   0  0  0  0  0  0
  -27.3680  -12.5867   17.7874 H   0  0  0  0  0  0
  -27.6838  -14.2410   19.5267 H   0  0  0  0  0  0
  -28.6819  -12.0118   21.3747 H   0  0  0  0  0  0
  -28.4703  -13.6777   21.8378 H   0  0  0  0  0  0
  -25.2753   -9.5683   22.4757 H   0  0  0  0  0  0
  -23.9997   -7.4633   22.7471 H   0  0  0  0  0  0
  -21.0831   -8.8774   19.8955 H   0  0  0  0  0  0
  -22.3683  -10.9675   19.6170 H   0  0  0  0  0  0
  -21.2014   -7.6145   23.9712 H   0  0  0  0  0  0
  -21.1477   -6.0519   25.9074 H   0  0  0  0  0  0
  -22.0603   -2.7605   23.2846 H   0  0  0  0  0  0
  -22.4106  -11.9910   22.4797 H   0  0  0  0  0  0
  -21.1116  -13.1284   22.2605 H   0  0  0  0  0  0
  -24.6658  -15.8432   20.5192 H   0  0  0  0  0  0
  -26.2826  -15.6268   20.0821 H   0  0  0  0  0  0
  -26.7106  -32.5541   23.1141 H   0  0  0  0  0  0
  -25.0054  -33.9772   25.0472 H   0  0  0  0  0  0
  -22.6911  -31.3038   21.4055 H   0  0  0  0  0  0
  -23.3742  -35.9658   23.3308 H   0  0  0  0  0  0
  -24.3584  -36.8917   22.2046 H   0  0  0  0  0  0
  -23.7245  -37.6533   23.6634 H   0  0  0  0  0  0
  -26.0363  -31.5931   20.5848 H   0  0  0  0  0  0
  -26.8201  -30.8933   21.9738 H   0  0  0  0  0  0
  -28.1061  -29.1075   21.1572 H   0  0  0  0  0  0
  -26.0770  -25.9542   19.0343 H   0  0  0  0  0  0
  -23.9862  -27.2766   19.0446 H   0  0  0  0  0  0
  -23.7236  -30.5866   19.4012 H   0  0  0  0  0  0
  -22.7384  -29.2339   19.8685 H   0  0  0  0  0  0
  -25.1278  -36.1984   25.0832 H   0  0  0  0  0  0
  -20.9958  -28.3224   24.1440 H   0  0  0  0  0  0
  -20.5659  -26.2263   23.3610 H   0  0  0  0  0  0
  -21.6639  -26.7433   22.1219 H   0  0  0  0  0  0
  -19.6909  -25.6299   21.1229 H   0  0  0  0  0  0
  -19.6687  -27.3204   20.6752 H   0  0  0  0  0  0
  -17.4196  -26.6664   21.4028 H   0  0  0  0  0  0
  -18.0329  -26.0058   22.9017 H   0  0  0  0  0  0
  -19.7926  -30.7257   24.2282 H   0  0  0  0  0  0
  -17.5005  -31.6257   24.5169 H   0  0  0  0  0  0
  -15.5345  -30.2985   23.7633 H   0  0  0  0  0  0
  -15.8668  -28.0834   22.7020 H   0  0  0  0  0  0
  -24.5920  -30.7029   25.7808 H   0  0  0  0  0  0
  -24.8919  -32.2850   26.4902 H   0  0  0  0  0  0
  -25.8104  -30.8882   27.0213 H   0  0  0  0  0  0
  -26.2799  -29.6815   24.1103 H   0  0  0  0  0  0
  -27.4034  -29.7240   25.4501 H   0  0  0  0  0  0
  -27.8643  -30.4342   23.9193 H   0  0  0  0  0  0
  -27.2684  -33.3575   26.2084 H   0  0  0  0  0  0
  -28.3846  -32.6860   25.0280 H   0  0  0  0  0  0
  -28.0729  -31.8375   26.5348 H   0  0  0  0  0  0
  -28.2612  -38.0099   24.7501 H   0  0  0  0  0  0
  -28.1067  -36.2631   24.6299 H   0  0  0  0  0  0
  -27.2304  -37.1477   25.8870 H   0  0  0  0  0  0
  -20.9298  -29.8764   21.6963 H   0  0  0  0  0  0
  -26.0192  -38.2881   24.1390 H   0  0  0  0  0  0
  -30.1663  -20.7275   19.1166 H   0  0  0  0  0  0
  -30.3490  -15.4619   17.8870 H   0  0  0  0  0  0
  -32.0197  -16.0512   18.0410 H   0  0  0  0  0  0
  -30.9066  -16.7673   16.8855 H   0  0  0  0  0  0
  -26.4158  -21.9570   19.9214 H   0  0  0  0  0  0
  -27.1454  -20.4153   19.5406 H   0  0  0  0  0  0
  -27.7227  -21.8620   18.7286 H   0  0  0  0  0  0
  -29.4499  -20.6927   22.2948 H   0  0  0  0  0  0
  -27.8713  -20.0678   21.9411 H   0  0  0  0  0  0
  -27.2209  -24.0855   20.0171 H   0  0  0  0  0  0
  -28.8277  -24.1742   19.3350 H   0  0  0  0  0  0
  -29.4650  -25.6137   21.4180 H   0  0  0  0  0  0
  -27.7689  -25.6735   21.7931 H   0  0  0  0  0  0
  -28.9735  -15.3785   21.1149 H   0  0  0  0  0  0
  1 25  1  0  0  0
  1 30  2  0  0  0
  1 83  1  0  0  0
  2  3  1  0  0  0
  2 25  1  0  0  0
  2 88  1  0  0  0
  2 89  1  0  0  0
  3  4  1  0  0  0
  3 90  1  0  0  0
  3 91  1  0  0  0
  4  5  1  0  0  0
  4 92  1  0  0  0
  4 93  1  0  0  0
  5  6  1  0  0  0
  5 26  1  0  0  0
  5 94  1  0  0  0
  6 25  1  0  0  0
  6 95  1  0  0  0
  6 96  1  0  0  0
  7  8  2  0  0  0
  7 26  1  0  0  0
  7 29  1  0  0  0
  8  9  1  0  0  0
  8 22  1  0  0  0
  9 10  1  0  0  0
  9 27  2  0  0  0
 10 11  2  0  0  0
 10 15  1  0  0  0
 11 12  1  0  0  0
 11 97  1  0  0  0
 12 13  2  0  0  0
 12 98  1  0  0  0
 13 14  1  0  0  0
 13 31  1  0  0  0
 14 15  2  0  0  0
 14 99  1  0  0  0
 15100  1  0  0  0
 16 17  2  0  0  0
 16 21  1  0  0  0
 16 31  1  0  0  0
 17 18  1  0  0  0
 17101  1  0  0  0
 18 19  2  0  0  0
 18102  1  0  0  0
 19 20  1  0  0  0
 19 24  1  0  0  0
 20 21  2  0  0  0
 20103  1  0  0  0
 21 23  1  0  0  0
 22 28  1  0  0  0
 22 32  2  0  0  0
 26 27  1  0  0  0
 28104  1  0  0  0
 28105  1  0  0  0
 29106  1  0  0  0
 29107  1  0  0  0
 33 34  1  0  0  0
 33 66  1  0  0  0
 33 70  2  0  0  0
 34 36  1  0  0  0
 34 59  1  0  0  0
 34108  1  0  0  0
 35 44  2  0  0  0
 35 45  1  0  0  0
 35 68  1  0  0  0
 36 56  1  0  0  0
 36109  1  0  0  0
 37 39  1  0  0  0
 37 47  1  0  0  0
 37 66  1  0  0  0
 37110  1  0  0  0
 38 43  2  0  0  0
 38 46  1  0  0  0
 38 47  1  0  0  0
 39 64  1  0  0  0
 39 67  2  0  0  0
 40 52  1  0  0  0
 40 53  2  0  0  0
 40 58  1  0  0  0
 41111  1  0  0  0
 41112  1  0  0  0
 41113  1  0  0  0
 41 48  1  0  0  0
 42 43  1  0  0  0
 42 66  1  0  0  0
 42114  1  0  0  0
 42115  1  0  0  0
 43 44  1  0  0  0
 44116  1  0  0  0
 45 46  2  0  0  0
 45117  1  0  0  0
 46118  1  0  0  0
 47119  1  0  0  0
 47120  1  0  0  0
 48 56  1  0  0  0
 48 65  1  0  0  0
 48121  1  0  0  0
 49 50  1  0  0  0
 49 53  1  0  0  0
 49 64  1  0  0  0
 49122  1  0  0  0
 50 51  1  0  0  0
 50123  1  0  0  0
 50124  1  0  0  0
 51 52  1  0  0  0
 51125  1  0  0  0
 51126  1  0  0  0
 52127  1  0  0  0
 52128  1  0  0  0
 53 54  1  0  0  0
 54 55  2  0  0  0
 54129  1  0  0  0
 55 57  1  0  0  0
 55130  1  0  0  0
 56 69  2  0  0  0
 57 58  2  0  0  0
 57131  1  0  0  0
 58132  1  0  0  0
 59 60  1  0  0  0
 59 61  1  0  0  0
 59 62  1  0  0  0
 60133  1  0  0  0
 60134  1  0  0  0
 60135  1  0  0  0
 61136  1  0  0  0
 61137  1  0  0  0
 61138  1  0  0  0
 62139  1  0  0  0
 62140  1  0  0  0
 62141  1  0  0  0
 63 65  1  0  0  0
 63142  1  0  0  0
 63143  1  0  0  0
 63144  1  0  0  0
 64145  1  0  0  0
 65146  1  0  0  0
 68 82  1  0  0  0
 71 72  2  0  0  0
 71 75  1  0  0  0
 71147  1  0  0  0
 72 76  1  0  0  0
 72 80  1  0  0  0
 73 74  1  0  0  0
 73 75  2  0  0  0
 73 78  1  0  0  0
 74 76  2  0  0  0
 74 83  1  0  0  0
 75 86  1  0  0  0
 76 87  1  0  0  0
 77 81  1  0  0  0
 77 84  1  0  0  0
 77 85  2  0  0  0
 78148  1  0  0  0
 78149  1  0  0  0
 78150  1  0  0  0
 79 84  1  0  0  0
 79151  1  0  0  0
 79152  1  0  0  0
 79153  1  0  0  0
 80 84  1  0  0  0
 80154  1  0  0  0
 80155  1  0  0  0
 81 82  1  0  0  0
 81156  1  0  0  0
 81157  1  0  0  0
 82158  1  0  0  0
 82159  1  0  0  0
 83160  1  0  0  0
M  ISO  4   1 100  68 101  82 101  83 100
M  END
> <chiral flag>
0

> <version>
0

> <s_m_source_file>
/data/baiqing/PycharmProjects/Reinvent-master-3.2/result/LINK_invent/BTK/process_docking_weight1_custom_sum_contain_oxygen_bond_distance_aromatic_linkinvent_7_9_3/rearranged_h_0014.sdf

> <i_m_source_file_index>
88

> <r_mmod_Potential_Energy-OPLS-2005>
-43.5449485778809

> <r_mmod_Stretch_Energy-OPLS-2005>
48.2636528015137

> <r_mmod_Bend_Energy-OPLS-2005>
104.06111907959

> <r_mmod_Torsional_Energy-OPLS-2005>
267.432952880859

> <r_mmod_Improper_Torsional_Energy-OPLS-2005>
5.86763286590576

> <r_mmod_Van_der_Waal_Energy-OPLS-2005>
162.278656005859

> <r_mmod_Electrostatic_Energy-OPLS-2005>
-431.656036376953

> <r_mmod_Solvation_Energy-OPLS-2005>
-220.670852661133

> <b_mmod_Minimization_Converged-OPLS-2005>
0

> <r_mmod_RMS_Derivative-OPLS-2005>
0.833857774734497

$$$$
88
                    3D
 Structure written by MMmdl.
157165  0  0  1  0            999 V2000
  -30.6261  -14.7450   20.4494 C   0  0  0  0  0  0
  -30.4280  -12.4533   19.4710 C   0  0  0  0  0  0
  -29.5055  -12.5024   18.2333 C   0  0  0  0  0  0
  -28.0327  -12.3304   18.6487 C   0  0  0  0  0  0
  -27.6392  -13.2350   19.8466 C   0  0  2  0  0  0
  -28.6854  -13.1850   20.9820 C   0  0  0  0  0  0
  -25.2487  -13.8192   20.5690 C   0  0  0  0  0  0
  -24.1796  -13.0433   20.9230 C   0  0  0  0  0  0
  -24.6399  -11.6919   20.8762 C   0  0  0  0  0  0
  -23.9079  -10.4292   21.0409 C   0  0  0  0  0  0
  -24.3629   -9.4204   21.9184 C   0  0  0  0  0  0
  -23.6298   -8.2240   22.0754 C   0  0  0  0  0  0
  -22.4281   -8.0282   21.3546 C   0  0  0  0  0  0
  -21.9922   -9.0255   20.4647 C   0  0  0  0  0  0
  -22.7253  -10.2130   20.3053 C   0  0  0  0  0  0
  -21.6851   -6.0740   22.5280 C   0  0  0  0  0  0
  -21.4018   -6.5640   23.8212 C   0  0  0  0  0  0
  -21.3657   -5.6795   24.9174 C   0  0  0  0  0  0
  -21.6035   -4.3057   24.7223 C   0  0  0  0  0  0
  -21.8822   -3.8150   23.4345 C   0  0  0  0  0  0
  -21.9194   -4.6969   22.3403 C   0  0  0  0  0  0
  -22.7816  -13.5214   21.1880 C   0  0  0  0  0  0
  -22.1663   -4.2159   21.0978 F   0  0  0  0  0  0
  -21.5624   -3.4538   25.7734 F   0  0  0  0  0  0
  -29.9871  -13.5260   20.3949 N   0  0  0  0  0  0
  -26.2926  -12.9415   20.3274 N   0  0  0  0  0  0
  -25.9331  -11.6554   20.5758 N   0  0  0  0  0  0
  -22.0453  -12.8201   22.0427 N   0  0  0  0  0  0
  -25.4109  -15.1905   20.4065 N   0  0  0  0  0  0
  -31.8190  -14.8036   20.1402 O   0  0  0  0  0  0
  -21.6638   -6.8881   21.4241 O   0  0  0  0  0  0
  -22.3498  -14.5514   20.6719 O   0  0  0  0  0  0
  -24.6313  -31.8526   23.1963 C   0  0  0  0  0  0
  -25.9140  -32.4734   23.8314 C   0  0  1  0  0  0
  -27.2238  -27.2554   20.1252 C   0  0  0  0  0  0
  -25.5939  -33.8538   24.2246 N   0  0  0  0  0  0
  -23.4269  -30.4723   21.5398 C   0  0  2  0  0  0
  -24.8736  -28.9128   20.1084 C   0  0  0  0  0  0
  -22.7499  -29.4575   22.4924 C   0  0  0  0  0  0
  -18.0290  -28.1371   22.8453 C   0  0  0  0  0  0
  -24.1499  -36.7268   23.2632 C   0  0  0  0  0  0
  -25.9723  -30.7622   21.3761 C   0  0  0  0  0  0
  -26.0437  -29.3849   20.7144 C   0  0  0  0  0  0
  -27.2171  -28.5664   20.7128 C   0  0  0  0  0  0
  -26.0275  -26.8418   19.4995 C   0  0  0  0  0  0
  -24.8695  -27.6482   19.4949 C   0  0  0  0  0  0
  -23.6439  -29.7984   20.1579 C   0  0  0  0  0  0
  -25.4132  -36.3050   24.0323 C   0  0  1  0  0  0
  -20.5894  -28.3677   23.1273 C   0  0  2  0  0  0
  -20.6787  -26.9400   22.5402 C   0  0  0  0  0  0
  -19.5768  -26.6367   21.5194 C   0  0  0  0  0  0
  -18.1941  -26.7906   22.1596 C   0  0  0  0  0  0
  -19.1546  -28.8841   23.2840 C   0  0  0  0  0  0
  -18.9467  -30.1437   23.8862 C   0  0  0  0  0  0
  -17.6474  -30.6568   24.0546 C   0  0  0  0  0  0
  -25.9071  -34.9422   23.5089 C   0  0  0  0  0  0
  -16.5364  -29.9062   23.6333 C   0  0  0  0  0  0
  -16.7284  -28.6482   23.0345 C   0  0  0  0  0  0
  -26.4496  -31.6584   25.0726 C   0  0  0  0  0  0
  -25.3721  -31.3743   26.1457 C   0  0  0  0  0  0
  -27.0354  -30.2998   24.6238 C   0  0  0  0  0  0
  -27.6043  -32.4343   25.7503 C   0  0  0  0  0  0
  -27.5597  -37.1776   24.8455 C   0  0  0  0  0  0
  -21.4216  -29.3015   22.3666 N   0  0  0  0  0  0
  -26.4289  -37.3767   23.9420 N   0  0  0  0  0  0
  -24.6952  -31.0486   22.0930 N   0  0  0  0  0  0
  -23.4199  -28.8138   23.3036 O   0  0  0  0  0  0
  -28.3430  -26.3962   20.2265 O   0  0  0  0  0  0
  -26.5636  -34.8889   22.4652 O   0  0  0  0  0  0
  -23.5467  -32.1363   23.7264 O   0  0  0  0  0  0
  -31.5404  -17.7657   20.6654 C   0  0  0  0  0  0
  -31.9144  -19.1263   20.6600 C   0  0  0  0  0  0
  -29.2107  -18.4379   20.4919 C   0  0  0  0  0  0
  -29.5712  -19.8605   20.5070 C   0  0  0  0  0  0
  -30.1903  -17.3534   20.5835 C   0  0  0  0  0  0
  -30.9492  -20.1532   20.5991 C   0  0  0  0  0  0
  -28.2677  -23.7061   20.4315 C   0  0  0  0  0  0
  -33.3841  -19.4934   20.7307 C   0  0  0  0  0  0
  -27.7389  -18.0780   20.3558 C   0  0  0  0  0  0
  -28.5232  -21.0753   20.5166 C   0  0  0  0  0  0
  -28.4677  -25.0475   19.5708 C   0  0  0  0  0  0
  -29.8567  -15.8949   20.6271 N   0  0  0  0  0  0
  -28.8430  -22.5004   20.0487 N   0  0  0  0  0  0
  -27.5347  -23.7505   21.4214 O   0  0  0  0  0  0
  -31.3687  -21.4399   20.6436 F   0  0  0  0  0  0
  -31.4688  -12.5692   19.1624 H   0  0  0  0  0  0
  -30.3699  -11.4792   19.9590 H   0  0  0  0  0  0
  -29.7846  -11.7253   17.5205 H   0  0  0  0  0  0
  -29.6339  -13.4533   17.7143 H   0  0  0  0  0  0
  -27.8887  -11.2821   18.9113 H   0  0  0  0  0  0
  -27.3750  -12.5210   17.8002 H   0  0  0  0  0  0
  -27.6277  -14.2535   19.4583 H   0  0  0  0  0  0
  -28.7184  -12.1961   21.4397 H   0  0  0  0  0  0
  -28.4221  -13.8825   21.7792 H   0  0  0  0  0  0
  -25.2765   -9.5678   22.4776 H   0  0  0  0  0  0
  -24.0002   -7.4628   22.7477 H   0  0  0  0  0  0
  -21.0852   -8.8775   19.8951 H   0  0  0  0  0  0
  -22.3709  -10.9674   19.6173 H   0  0  0  0  0  0
  -21.2014   -7.6152   23.9724 H   0  0  0  0  0  0
  -21.1472   -6.0520   25.9077 H   0  0  0  0  0  0
  -22.0600   -2.7617   23.2838 H   0  0  0  0  0  0
  -22.4082  -11.9870   22.4813 H   0  0  0  0  0  0
  -21.1068  -13.1220   22.2635 H   0  0  0  0  0  0
  -24.6288  -15.8294   20.4984 H   0  0  0  0  0  0
  -26.2308  -15.6236   20.0064 H   0  0  0  0  0  0
  -26.7203  -32.5380   23.1047 H   0  0  0  0  0  0
  -25.0092  -33.9671   25.0398 H   0  0  0  0  0  0
  -22.7225  -31.2934   21.3906 H   0  0  0  0  0  0
  -23.3771  -35.9583   23.3262 H   0  0  0  0  0  0
  -24.3590  -36.8933   22.2048 H   0  0  0  0  0  0
  -23.7232  -37.6447   23.6695 H   0  0  0  0  0  0
  -26.1221  -31.5259   20.6122 H   0  0  0  0  0  0
  -26.8436  -30.8043   22.0173 H   0  0  0  0  0  0
  -28.1107  -28.9207   21.2065 H   0  0  0  0  0  0
  -25.9428  -25.8636   19.0508 H   0  0  0  0  0  0
  -23.9669  -27.2710   19.0352 H   0  0  0  0  0  0
  -23.7642  -30.5705   19.3969 H   0  0  0  0  0  0
  -22.7632  -29.2282   19.8573 H   0  0  0  0  0  0
  -25.1304  -36.1879   25.0813 H   0  0  0  0  0  0
  -20.9971  -28.3244   24.1402 H   0  0  0  0  0  0
  -20.5705  -26.2267   23.3586 H   0  0  0  0  0  0
  -21.6656  -26.7439   22.1195 H   0  0  0  0  0  0
  -19.6948  -25.6277   21.1220 H   0  0  0  0  0  0
  -19.6726  -27.3167   20.6720 H   0  0  0  0  0  0
  -17.4224  -26.6629   21.3992 H   0  0  0  0  0  0
  -18.0355  -26.0049   22.8997 H   0  0  0  0  0  0
  -19.7956  -30.7242   24.2228 H   0  0  0  0  0  0
  -17.5040  -31.6255   24.5135 H   0  0  0  0  0  0
  -15.5367  -30.2953   23.7696 H   0  0  0  0  0  0
  -15.8675  -28.0801   22.7095 H   0  0  0  0  0  0
  -24.5908  -30.7071   25.7810 H   0  0  0  0  0  0
  -24.8885  -32.2896   26.4869 H   0  0  0  0  0  0
  -25.8027  -30.8951   27.0257 H   0  0  0  0  0  0
  -26.2943  -29.6740   24.1248 H   0  0  0  0  0  0
  -27.4007  -29.7278   25.4781 H   0  0  0  0  0  0
  -27.8840  -30.4269   23.9511 H   0  0  0  0  0  0
  -27.2653  -33.3665   26.2036 H   0  0  0  0  0  0
  -28.3871  -32.6875   25.0342 H   0  0  0  0  0  0
  -28.0692  -31.8500   26.5453 H   0  0  0  0  0  0
  -28.2567  -38.0120   24.7577 H   0  0  0  0  0  0
  -28.1140  -36.2653   24.6201 H   0  0  0  0  0  0
  -27.2312  -37.1332   25.8850 H   0  0  0  0  0  0
  -20.9421  -29.8697   21.6826 H   0  0  0  0  0  0
  -26.0162  -38.2828   24.1449 H   0  0  0  0  0  0
  -32.3338  -17.0398   20.7463 H   0  0  0  0  0  0
  -34.0236  -18.6311   20.5394 H   0  0  0  0  0  0
  -33.6260  -19.8922   21.7158 H   0  0  0  0  0  0
  -33.6237  -20.2518   19.9846 H   0  0  0  0  0  0
  -27.1702  -18.4221   21.2192 H   0  0  0  0  0  0
  -27.5763  -17.0073   20.2596 H   0  0  0  0  0  0
  -27.3187  -18.5375   19.4610 H   0  0  0  0  0  0
  -28.1547  -21.1451   21.5405 H   0  0  0  0  0  0
  -27.6588  -20.7668   19.9289 H   0  0  0  0  0  0
  -27.8530  -24.9858   18.6751 H   0  0  0  0  0  0
  -29.4919  -25.0067   19.2005 H   0  0  0  0  0  0
  -28.8802  -15.6927   20.7656 H   0  0  0  0  0  0
  -29.4774  -22.5544   19.2623 H   0  0  0  0  0  0
  1 25  1  0  0  0
  1 30  2  0  0  0
  1 82  1  0  0  0
  2  3  1  0  0  0
  2 25  1  0  0  0
  2 86  1  0  0  0
  2 87  1  0  0  0
  3  4  1  0  0  0
  3 88  1  0  0  0
  3 89  1  0  0  0
  4  5  1  0  0  0
  4 90  1  0  0  0
  4 91  1  0  0  0
  5  6  1  0  0  0
  5 26  1  0  0  0
  5 92  1  0  0  0
  6 25  1  0  0  0
  6 93  1  0  0  0
  6 94  1  0  0  0
  7  8  2  0  0  0
  7 26  1  0  0  0
  7 29  1  0  0  0
  8  9  1  0  0  0
  8 22  1  0  0  0
  9 10  1  0  0  0
  9 27  2  0  0  0
 10 11  2  0  0  0
 10 15  1  0  0  0
 11 12  1  0  0  0
 11 95  1  0  0  0
 12 13  2  0  0  0
 12 96  1  0  0  0
 13 14  1  0  0  0
 13 31  1  0  0  0
 14 15  2  0  0  0
 14 97  1  0  0  0
 15 98  1  0  0  0
 16 17  2  0  0  0
 16 21  1  0  0  0
 16 31  1  0  0  0
 17 18  1  0  0  0
 17 99  1  0  0  0
 18 19  2  0  0  0
 18100  1  0  0  0
 19 20  1  0  0  0
 19 24  1  0  0  0
 20 21  2  0  0  0
 20101  1  0  0  0
 21 23  1  0  0  0
 22 28  1  0  0  0
 22 32  2  0  0  0
 26 27  1  0  0  0
 28102  1  0  0  0
 28103  1  0  0  0
 29104  1  0  0  0
 29105  1  0  0  0
 33 34  1  0  0  0
 33 66  1  0  0  0
 33 70  2  0  0  0
 34 36  1  0  0  0
 34 59  1  0  0  0
 34106  1  0  0  0
 35 44  2  0  0  0
 35 45  1  0  0  0
 35 68  1  0  0  0
 36 56  1  0  0  0
 36107  1  0  0  0
 37 39  1  0  0  0
 37 47  1  0  0  0
 37 66  1  0  0  0
 37108  1  0  0  0
 38 43  2  0  0  0
 38 46  1  0  0  0
 38 47  1  0  0  0
 39 64  1  0  0  0
 39 67  2  0  0  0
 40 52  1  0  0  0
 40 53  2  0  0  0
 40 58  1  0  0  0
 41109  1  0  0  0
 41110  1  0  0  0
 41111  1  0  0  0
 41 48  1  0  0  0
 42 43  1  0  0  0
 42 66  1  0  0  0
 42112  1  0  0  0
 42113  1  0  0  0
 43 44  1  0  0  0
 44114  1  0  0  0
 45 46  2  0  0  0
 45115  1  0  0  0
 46116  1  0  0  0
 47117  1  0  0  0
 47118  1  0  0  0
 48 56  1  0  0  0
 48 65  1  0  0  0
 48119  1  0  0  0
 49 50  1  0  0  0
 49 53  1  0  0  0
 49 64  1  0  0  0
 49120  1  0  0  0
 50 51  1  0  0  0
 50121  1  0  0  0
 50122  1  0  0  0
 51 52  1  0  0  0
 51123  1  0  0  0
 51124  1  0  0  0
 52125  1  0  0  0
 52126  1  0  0  0
 53 54  1  0  0  0
 54 55  2  0  0  0
 54127  1  0  0  0
 55 57  1  0  0  0
 55128  1  0  0  0
 56 69  2  0  0  0
 57 58  2  0  0  0
 57129  1  0  0  0
 58130  1  0  0  0
 59 60  1  0  0  0
 59 61  1  0  0  0
 59 62  1  0  0  0
 60131  1  0  0  0
 60132  1  0  0  0
 60133  1  0  0  0
 61134  1  0  0  0
 61135  1  0  0  0
 61136  1  0  0  0
 62137  1  0  0  0
 62138  1  0  0  0
 62139  1  0  0  0
 63 65  1  0  0  0
 63140  1  0  0  0
 63141  1  0  0  0
 63142  1  0  0  0
 64143  1  0  0  0
 65144  1  0  0  0
 68 81  1  0  0  0
 71 72  2  0  0  0
 71 75  1  0  0  0
 71145  1  0  0  0
 72 76  1  0  0  0
 72 78  1  0  0  0
 73 74  1  0  0  0
 73 75  2  0  0  0
 73 79  1  0  0  0
 74 76  2  0  0  0
 74 80  1  0  0  0
 75 82  1  0  0  0
 76 85  1  0  0  0
 77 81  1  0  0  0
 77 83  1  0  0  0
 77 84  2  0  0  0
 78146  1  0  0  0
 78147  1  0  0  0
 78148  1  0  0  0
 79149  1  0  0  0
 79150  1  0  0  0
 79151  1  0  0  0
 80 83  1  0  0  0
 80152  1  0  0  0
 80153  1  0  0  0
 81154  1  0  0  0
 81155  1  0  0  0
 82156  1  0  0  0
 83157  1  0  0  0
M  ISO  4   1 100  68 101  81 101  82 100
M  END
> <chiral flag>
0

> <version>
0

> <s_m_source_file>
/data/baiqing/PycharmProjects/Reinvent-master-3.2/result/LINK_invent/BTK/process_docking_weight1_custom_sum_contain_oxygen_bond_distance_aromatic_linkinvent_7_9_3/rearranged_h_0014.sdf

> <i_m_source_file_index>
89

> <r_mmod_Potential_Energy-OPLS-2005>
101.725631713867

> <r_mmod_Stretch_Energy-OPLS-2005>
131.326110839844

> <r_mmod_Bend_Energy-OPLS-2005>
174.624130249023

> <r_mmod_Torsional_Energy-OPLS-2005>
206.255828857422

> <r_mmod_Improper_Torsional_Energy-OPLS-2005>
6.19489622116089

> <r_mmod_Van_der_Waal_Energy-OPLS-2005>
140.75505065918

> <r_mmod_Electrostatic_Energy-OPLS-2005>
-406.630767822266

> <r_mmod_Solvation_Energy-OPLS-2005>
-237.196548461914

> <b_mmod_Minimization_Converged-OPLS-2005>
0

> <r_mmod_RMS_Derivative-OPLS-2005>
2.16977286338806

$$$$
89
                    3D
 Structure written by MMmdl.
163171  0  0  1  0            999 V2000
  -30.7111  -14.4622   20.6053 C   0  0  0  0  0  0
  -30.4270  -12.3127   19.4147 C   0  0  0  0  0  0
  -29.4961  -12.5150   18.2018 C   0  0  0  0  0  0
  -28.0175  -12.3738   18.6151 C   0  0  0  0  0  0
  -27.6641  -13.2083   19.8761 C   0  0  2  0  0  0
  -28.7063  -12.9762   20.9935 C   0  0  0  0  0  0
  -25.2603  -13.8160   20.5680 C   0  0  0  0  0  0
  -24.1850  -13.0436   20.9168 C   0  0  0  0  0  0
  -24.6409  -11.6903   20.8728 C   0  0  0  0  0  0
  -23.9076  -10.4291   21.0398 C   0  0  0  0  0  0
  -24.3621   -9.4205   21.9180 C   0  0  0  0  0  0
  -23.6290   -8.2245   22.0755 C   0  0  0  0  0  0
  -22.4273   -8.0283   21.3549 C   0  0  0  0  0  0
  -21.9912   -9.0257   20.4651 C   0  0  0  0  0  0
  -22.7250  -10.2132   20.3049 C   0  0  0  0  0  0
  -21.6851   -6.0733   22.5280 C   0  0  0  0  0  0
  -21.4010   -6.5638   23.8214 C   0  0  0  0  0  0
  -21.3659   -5.6793   24.9176 C   0  0  0  0  0  0
  -21.6043   -4.3054   24.7233 C   0  0  0  0  0  0
  -21.8815   -3.8145   23.4354 C   0  0  0  0  0  0
  -21.9194   -4.6961   22.3406 C   0  0  0  0  0  0
  -22.7872  -13.5234   21.1836 C   0  0  0  0  0  0
  -22.1658   -4.2146   21.0985 F   0  0  0  0  0  0
  -21.5635   -3.4536   25.7741 F   0  0  0  0  0  0
  -30.0377  -13.2896   20.4436 N   0  0  0  0  0  0
  -26.3043  -12.9336   20.3373 N   0  0  0  0  0  0
  -25.9339  -11.6496   20.5762 N   0  0  0  0  0  0
  -22.0511  -12.8225   22.0390 N   0  0  0  0  0  0
  -25.4329  -15.1873   20.4110 N   0  0  0  0  0  0
  -31.8187  -14.6688   20.1001 O   0  0  0  0  0  0
  -21.6641   -6.8878   21.4242 O   0  0  0  0  0  0
  -22.3557  -14.5545   20.6698 O   0  0  0  0  0  0
  -24.6160  -31.8666   23.2104 C   0  0  0  0  0  0
  -25.9046  -32.4821   23.8405 C   0  0  1  0  0  0
  -27.2309  -27.4220   20.1039 C   0  0  0  0  0  0
  -25.5894  -33.8625   24.2323 N   0  0  0  0  0  0
  -23.4056  -30.4925   21.5495 C   0  0  2  0  0  0
  -24.8542  -28.9620   20.1103 C   0  0  0  0  0  0
  -22.7418  -29.4667   22.4960 C   0  0  0  0  0  0
  -18.0258  -28.1375   22.8483 C   0  0  0  0  0  0
  -24.1490  -36.7326   23.2643 C   0  0  0  0  0  0
  -25.9365  -30.8308   21.3652 C   0  0  0  0  0  0
  -26.0154  -29.4659   20.7105 C   0  0  0  0  0  0
  -27.2106  -28.7045   20.7029 C   0  0  0  0  0  0
  -26.0581  -26.9487   19.4747 C   0  0  0  0  0  0
  -24.8712  -27.7038   19.4866 C   0  0  0  0  0  0
  -23.6145  -29.8277   20.1628 C   0  0  0  0  0  0
  -25.4107  -36.3116   24.0336 C   0  0  1  0  0  0
  -20.5852  -28.3673   23.1296 C   0  0  2  0  0  0
  -20.6755  -26.9403   22.5413 C   0  0  0  0  0  0
  -19.5745  -26.6372   21.5208 C   0  0  0  0  0  0
  -18.1915  -26.7918   22.1607 C   0  0  0  0  0  0
  -19.1512  -28.8838   23.2890 C   0  0  0  0  0  0
  -18.9446  -30.1442   23.8900 C   0  0  0  0  0  0
  -17.6458  -30.6592   24.0561 C   0  0  0  0  0  0
  -25.9035  -34.9476   23.5128 C   0  0  0  0  0  0
  -16.5345  -29.9097   23.6319 C   0  0  0  0  0  0
  -16.7247  -28.6510   23.0341 C   0  0  0  0  0  0
  -26.4465  -31.6605   25.0739 C   0  0  0  0  0  0
  -25.3728  -31.3713   26.1494 C   0  0  0  0  0  0
  -27.0303  -30.3050   24.6127 C   0  0  0  0  0  0
  -27.6068  -32.4308   25.7478 C   0  0  0  0  0  0
  -27.5575  -37.1816   24.8457 C   0  0  0  0  0  0
  -21.4142  -29.3047   22.3708 N   0  0  0  0  0  0
  -26.4290  -37.3805   23.9405 N   0  0  0  0  0  0
  -24.6712  -31.0771   22.1001 N   0  0  0  0  0  0
  -23.4188  -28.8187   23.2989 O   0  0  0  0  0  0
  -28.3603  -26.6255   20.1392 O   0  0  0  0  0  0
  -26.5617  -34.8930   22.4698 O   0  0  0  0  0  0
  -23.5353  -32.1396   23.7501 O   0  0  0  0  0  0
  -31.1232  -19.4594   22.0647 C   0  0  0  0  0  0
  -31.9795  -18.4082   22.4527 C   0  0  0  0  0  0
  -29.9074  -19.1997   21.3934 C   0  0  0  0  0  0
  -30.4301  -16.7782   21.4825 C   0  0  0  0  0  0
  -31.6254  -17.0663   22.1897 C   0  0  0  0  0  0
  -29.5696  -17.8449   21.1008 C   0  0  0  0  0  0
  -33.2638  -18.7276   23.1974 C   0  0  0  0  0  0
  -32.0076  -15.5043   23.8892 C   0  0  0  0  0  0
  -28.9285  -20.3603   21.1116 C   0  0  0  0  0  0
  -29.1112  -24.2078   20.4057 C   0  0  0  0  0  0
  -28.6111  -22.8300   20.9390 C   0  0  0  0  0  0
  -28.1543  -25.3614   20.8121 C   0  0  0  0  0  0
  -30.0237  -15.4281   21.2433 N   0  0  0  0  0  0
  -29.5351  -21.6737   20.7448 N   0  3  0  0  0  0
  -32.4373  -16.0609   22.6529 O   0  0  0  0  0  0
  -28.0785  -17.4615   20.3056 Cl  0  0  0  0  0  0
  -31.4717  -12.4158   19.1140 H   0  0  0  0  0  0
  -30.3320  -11.2986   19.8056 H   0  0  0  0  0  0
  -29.7357  -11.7933   17.4201 H   0  0  0  0  0  0
  -29.6636  -13.5024   17.7682 H   0  0  0  0  0  0
  -27.8278  -11.3168   18.8055 H   0  0  0  0  0  0
  -27.3660  -12.6520   17.7859 H   0  0  0  0  0  0
  -27.7107  -14.2582   19.5862 H   0  0  0  0  0  0
  -28.6852  -11.9350   21.3181 H   0  0  0  0  0  0
  -28.4644  -13.5579   21.8838 H   0  0  0  0  0  0
  -25.2764   -9.5673   22.4757 H   0  0  0  0  0  0
  -23.9994   -7.4633   22.7470 H   0  0  0  0  0  0
  -21.0843   -8.8776   19.8960 H   0  0  0  0  0  0
  -22.3712  -10.9664   19.6152 H   0  0  0  0  0  0
  -21.1990   -7.6146   23.9719 H   0  0  0  0  0  0
  -21.1487   -6.0524   25.9083 H   0  0  0  0  0  0
  -22.0596   -2.7606   23.2858 H   0  0  0  0  0  0
  -22.4104  -11.9869   22.4757 H   0  0  0  0  0  0
  -21.1132  -13.1262   22.2597 H   0  0  0  0  0  0
  -24.6712  -15.8451   20.5319 H   0  0  0  0  0  0
  -26.2947  -15.6339   20.1212 H   0  0  0  0  0  0
  -26.7122  -32.5527   23.1176 H   0  0  0  0  0  0
  -25.0036  -33.9802   25.0460 H   0  0  0  0  0  0
  -22.6970  -31.3105   21.4089 H   0  0  0  0  0  0
  -23.3755  -35.9655   23.3300 H   0  0  0  0  0  0
  -24.3595  -36.8954   22.2062 H   0  0  0  0  0  0
  -23.7235  -37.6522   23.6671 H   0  0  0  0  0  0
  -26.0497  -31.5967   20.5962 H   0  0  0  0  0  0
  -26.8247  -30.8845   21.9828 H   0  0  0  0  0  0
  -28.1040  -29.0836   21.1783 H   0  0  0  0  0  0
  -26.0545  -25.9867   18.9820 H   0  0  0  0  0  0
  -23.9811  -27.3151   19.0118 H   0  0  0  0  0  0
  -23.7208  -30.6044   19.4052 H   0  0  0  0  0  0
  -22.7386  -29.2490   19.8632 H   0  0  0  0  0  0
  -25.1276  -36.1992   25.0828 H   0  0  0  0  0  0
  -20.9935  -28.3247   24.1419 H   0  0  0  0  0  0
  -20.5647  -26.2288   23.3611 H   0  0  0  0  0  0
  -21.6627  -26.7447   22.1205 H   0  0  0  0  0  0
  -19.6933  -25.6281   21.1236 H   0  0  0  0  0  0
  -19.6697  -27.3196   20.6750 H   0  0  0  0  0  0
  -17.4189  -26.6657   21.4010 H   0  0  0  0  0  0
  -18.0313  -26.0045   22.8983 H   0  0  0  0  0  0
  -19.7936  -30.7236   24.2277 H   0  0  0  0  0  0
  -17.5031  -31.6275   24.5164 H   0  0  0  0  0  0
  -15.5356  -30.3027   23.7662 H   0  0  0  0  0  0
  -15.8620  -28.0865   22.7053 H   0  0  0  0  0  0
  -24.5881  -30.7089   25.7825 H   0  0  0  0  0  0
  -24.8938  -32.2869   26.4978 H   0  0  0  0  0  0
  -25.8059  -30.8843   27.0239 H   0  0  0  0  0  0
  -26.2852  -29.6804   24.1192 H   0  0  0  0  0  0
  -27.4085  -29.7305   25.4591 H   0  0  0  0  0  0
  -27.8678  -30.4374   23.9273 H   0  0  0  0  0  0
  -27.2736  -33.3625   26.2060 H   0  0  0  0  0  0
  -28.3872  -32.6833   25.0285 H   0  0  0  0  0  0
  -28.0736  -31.8410   26.5377 H   0  0  0  0  0  0
  -28.2599  -38.0112   24.7505 H   0  0  0  0  0  0
  -28.1056  -36.2642   24.6265 H   0  0  0  0  0  0
  -27.2290  -37.1436   25.8861 H   0  0  0  0  0  0
  -20.9300  -29.8827   21.6976 H   0  0  0  0  0  0
  -26.0179  -38.2879   24.1416 H   0  0  0  0  0  0
  -31.3951  -20.4725   22.3255 H   0  0  0  0  0  0
  -33.5534  -19.7701   23.0622 H   0  0  0  0  0  0
  -34.0847  -18.1055   22.8390 H   0  0  0  0  0  0
  -33.1399  -18.5467   24.2652 H   0  0  0  0  0  0
  -32.7503  -14.7912   24.2458 H   0  0  0  0  0  0
  -31.0609  -14.9736   23.7848 H   0  0  0  0  0  0
  -31.8903  -16.2720   24.6554 H   0  0  0  0  0  0
  -28.3263  -20.4816   22.0136 H   0  0  0  0  0  0
  -28.2307  -20.0972   20.3174 H   0  0  0  0  0  0
  -29.1847  -24.1636   19.3190 H   0  0  0  0  0  0
  -30.1118  -24.4244   20.7814 H   0  0  0  0  0  0
  -27.6605  -22.5989   20.4551 H   0  0  0  0  0  0
  -28.3951  -22.9142   22.0056 H   0  0  0  0  0  0
  -28.2523  -25.5409   21.8842 H   0  0  0  0  0  0
  -27.1353  -24.9960   20.6815 H   0  0  0  0  0  0
  -29.0594  -15.2140   21.4433 H   0  0  0  0  0  0
  -29.8282  -21.6276   19.7822 H   0  0  0  0  0  0
  -30.3544  -21.8200   21.3100 H   0  0  0  0  0  0
  1 25  1  0  0  0
  1 30  2  0  0  0
  1 83  1  0  0  0
  2  3  1  0  0  0
  2 25  1  0  0  0
  2 87  1  0  0  0
  2 88  1  0  0  0
  3  4  1  0  0  0
  3 89  1  0  0  0
  3 90  1  0  0  0
  4  5  1  0  0  0
  4 91  1  0  0  0
  4 92  1  0  0  0
  5  6  1  0  0  0
  5 26  1  0  0  0
  5 93  1  0  0  0
  6 25  1  0  0  0
  6 94  1  0  0  0
  6 95  1  0  0  0
  7  8  2  0  0  0
  7 26  1  0  0  0
  7 29  1  0  0  0
  8  9  1  0  0  0
  8 22  1  0  0  0
  9 10  1  0  0  0
  9 27  2  0  0  0
 10 11  2  0  0  0
 10 15  1  0  0  0
 11 12  1  0  0  0
 11 96  1  0  0  0
 12 13  2  0  0  0
 12 97  1  0  0  0
 13 14  1  0  0  0
 13 31  1  0  0  0
 14 15  2  0  0  0
 14 98  1  0  0  0
 15 99  1  0  0  0
 16 17  2  0  0  0
 16 21  1  0  0  0
 16 31  1  0  0  0
 17 18  1  0  0  0
 17100  1  0  0  0
 18 19  2  0  0  0
 18101  1  0  0  0
 19 20  1  0  0  0
 19 24  1  0  0  0
 20 21  2  0  0  0
 20102  1  0  0  0
 21 23  1  0  0  0
 22 28  1  0  0  0
 22 32  2  0  0  0
 26 27  1  0  0  0
 28103  1  0  0  0
 28104  1  0  0  0
 29105  1  0  0  0
 29106  1  0  0  0
 33 34  1  0  0  0
 33 66  1  0  0  0
 33 70  2  0  0  0
 34 36  1  0  0  0
 34 59  1  0  0  0
 34107  1  0  0  0
 35 44  2  0  0  0
 35 45  1  0  0  0
 35 68  1  0  0  0
 36 56  1  0  0  0
 36108  1  0  0  0
 37 39  1  0  0  0
 37 47  1  0  0  0
 37 66  1  0  0  0
 37109  1  0  0  0
 38 43  2  0  0  0
 38 46  1  0  0  0
 38 47  1  0  0  0
 39 64  1  0  0  0
 39 67  2  0  0  0
 40 52  1  0  0  0
 40 53  2  0  0  0
 40 58  1  0  0  0
 41110  1  0  0  0
 41111  1  0  0  0
 41112  1  0  0  0
 41 48  1  0  0  0
 42 43  1  0  0  0
 42 66  1  0  0  0
 42113  1  0  0  0
 42114  1  0  0  0
 43 44  1  0  0  0
 44115  1  0  0  0
 45 46  2  0  0  0
 45116  1  0  0  0
 46117  1  0  0  0
 47118  1  0  0  0
 47119  1  0  0  0
 48 56  1  0  0  0
 48 65  1  0  0  0
 48120  1  0  0  0
 49 50  1  0  0  0
 49 53  1  0  0  0
 49 64  1  0  0  0
 49121  1  0  0  0
 50 51  1  0  0  0
 50122  1  0  0  0
 50123  1  0  0  0
 51 52  1  0  0  0
 51124  1  0  0  0
 51125  1  0  0  0
 52126  1  0  0  0
 52127  1  0  0  0
 53 54  1  0  0  0
 54 55  2  0  0  0
 54128  1  0  0  0
 55 57  1  0  0  0
 55129  1  0  0  0
 56 69  2  0  0  0
 57 58  2  0  0  0
 57130  1  0  0  0
 58131  1  0  0  0
 59 60  1  0  0  0
 59 61  1  0  0  0
 59 62  1  0  0  0
 60132  1  0  0  0
 60133  1  0  0  0
 60134  1  0  0  0
 61135  1  0  0  0
 61136  1  0  0  0
 61137  1  0  0  0
 62138  1  0  0  0
 62139  1  0  0  0
 62140  1  0  0  0
 63 65  1  0  0  0
 63141  1  0  0  0
 63142  1  0  0  0
 63143  1  0  0  0
 64144  1  0  0  0
 65145  1  0  0  0
 68 82  1  0  0  0
 71 72  2  0  0  0
 71 73  1  0  0  0
 71146  1  0  0  0
 72 75  1  0  0  0
 72 77  1  0  0  0
 73 76  2  0  0  0
 73 79  1  0  0  0
 74 75  2  0  0  0
 74 76  1  0  0  0
 74 83  1  0  0  0
 75 85  1  0  0  0
 76 86  1  0  0  0
 77147  1  0  0  0
 77148  1  0  0  0
 77149  1  0  0  0
 78 85  1  0  0  0
 78150  1  0  0  0
 78151  1  0  0  0
 78152  1  0  0  0
 79 84  1  0  0  0
 79153  1  0  0  0
 79154  1  0  0  0
 80 81  1  0  0  0
 80 82  1  0  0  0
 80155  1  0  0  0
 80156  1  0  0  0
 81 84  1  0  0  0
 81157  1  0  0  0
 81158  1  0  0  0
 82159  1  0  0  0
 82160  1  0  0  0
 83161  1  0  0  0
 84162  1  0  0  0
 84163  1  0  0  0
M  CHG  1  84   1
M  ISO  4   1 100  68 101  82 101  83 100
M  END
> <chiral flag>
0

> <version>
0

> <s_m_source_file>
/data/baiqing/PycharmProjects/Reinvent-master-3.2/result/LINK_invent/BTK/process_docking_weight1_custom_sum_contain_oxygen_bond_distance_aromatic_linkinvent_7_9_3/rearranged_h_0014.sdf

> <i_m_source_file_index>
90

> <r_mmod_Potential_Energy-OPLS-2005>
-275.064453125

> <r_mmod_Stretch_Energy-OPLS-2005>
42.7396621704102

> <r_mmod_Bend_Energy-OPLS-2005>
95.9437637329102

> <r_mmod_Torsional_Energy-OPLS-2005>
271.930725097656

> <r_mmod_Improper_Torsional_Energy-OPLS-2005>
3.75894379615784

> <r_mmod_Van_der_Waal_Energy-OPLS-2005>
151.381805419922

> <r_mmod_Electrostatic_Energy-OPLS-2005>
-367.158142089844

> <r_mmod_Solvation_Energy-OPLS-2005>
-487.553863525391

> <b_mmod_Minimization_Converged-OPLS-2005>
0

> <r_mmod_RMS_Derivative-OPLS-2005>
1.54637026786804

$$$$
90
                    3D
 Structure written by MMmdl.
155163  0  0  1  0            999 V2000
  -30.5488  -14.8010   20.4858 C   0  0  0  0  0  0
  -30.4527  -12.4967   19.4740 C   0  0  0  0  0  0
  -29.5187  -12.5287   18.2410 C   0  0  0  0  0  0
  -28.0477  -12.3286   18.6571 C   0  0  0  0  0  0
  -27.6473  -13.2248   19.8582 C   0  0  2  0  0  0
  -28.6923  -13.1413   20.9932 C   0  0  0  0  0  0
  -25.2550  -13.8173   20.5707 C   0  0  0  0  0  0
  -24.1822  -13.0432   20.9203 C   0  0  0  0  0  0
  -24.6401  -11.6906   20.8751 C   0  0  0  0  0  0
  -23.9072  -10.4292   21.0411 C   0  0  0  0  0  0
  -24.3618   -9.4208   21.9196 C   0  0  0  0  0  0
  -23.6294   -8.2242   22.0762 C   0  0  0  0  0  0
  -22.4278   -8.0283   21.3547 C   0  0  0  0  0  0
  -21.9915   -9.0253   20.4643 C   0  0  0  0  0  0
  -22.7245  -10.2134   20.3054 C   0  0  0  0  0  0
  -21.6850   -6.0743   22.5286 C   0  0  0  0  0  0
  -21.4007   -6.5644   23.8221 C   0  0  0  0  0  0
  -21.3658   -5.6793   24.9181 C   0  0  0  0  0  0
  -21.6043   -4.3057   24.7226 C   0  0  0  0  0  0
  -21.8818   -3.8153   23.4348 C   0  0  0  0  0  0
  -21.9191   -4.6970   22.3406 C   0  0  0  0  0  0
  -22.7845  -13.5230   21.1860 C   0  0  0  0  0  0
  -22.1662   -4.2157   21.0982 F   0  0  0  0  0  0
  -21.5628   -3.4541   25.7738 F   0  0  0  0  0  0
  -29.9888  -13.5381   20.4225 N   0  0  0  0  0  0
  -26.2971  -12.9364   20.3304 N   0  0  0  0  0  0
  -25.9332  -11.6515   20.5756 N   0  0  0  0  0  0
  -22.0466  -12.8210   22.0386 N   0  0  0  0  0  0
  -25.4259  -15.1901   20.4140 N   0  0  0  0  0  0
  -31.7210  -14.9668   20.1285 O   0  0  0  0  0  0
  -21.6638   -6.8883   21.4244 O   0  0  0  0  0  0
  -22.3542  -14.5549   20.6723 O   0  0  0  0  0  0
  -24.6348  -31.8512   23.1938 C   0  0  0  0  0  0
  -25.9157  -32.4737   23.8302 C   0  0  1  0  0  0
  -27.2300  -27.2265   20.1505 C   0  0  0  0  0  0
  -25.5937  -33.8537   24.2228 N   0  0  0  0  0  0
  -23.4350  -30.4719   21.5366 C   0  0  2  0  0  0
  -24.8866  -28.9072   20.1168 C   0  0  0  0  0  0
  -22.7523  -29.4594   22.4885 C   0  0  0  0  0  0
  -18.0303  -28.1393   22.8484 C   0  0  0  0  0  0
  -24.1486  -36.7254   23.2636 C   0  0  0  0  0  0
  -25.9838  -30.7562   21.3769 C   0  0  0  0  0  0
  -26.0599  -29.3735   20.7234 C   0  0  0  0  0  0
  -27.2367  -28.5491   20.7221 C   0  0  0  0  0  0
  -26.0337  -26.8361   19.5120 C   0  0  0  0  0  0
  -24.8799  -27.6468   19.4989 C   0  0  0  0  0  0
  -23.6573  -29.7976   20.1571 C   0  0  0  0  0  0
  -25.4109  -36.3052   24.0325 C   0  0  1  0  0  0
  -20.5912  -28.3706   23.1248 C   0  0  2  0  0  0
  -20.6787  -26.9418   22.5394 C   0  0  0  0  0  0
  -19.5758  -26.6393   21.5201 C   0  0  0  0  0  0
  -18.1941  -26.7941   22.1612 C   0  0  0  0  0  0
  -19.1559  -28.8866   23.2872 C   0  0  0  0  0  0
  -18.9479  -30.1462   23.8897 C   0  0  0  0  0  0
  -17.6473  -30.6588   24.0567 C   0  0  0  0  0  0
  -25.9056  -34.9427   23.5079 C   0  0  0  0  0  0
  -16.5365  -29.9082   23.6343 C   0  0  0  0  0  0
  -16.7286  -28.6501   23.0360 C   0  0  0  0  0  0
  -26.4518  -31.6575   25.0700 C   0  0  0  0  0  0
  -25.3725  -31.3711   26.1405 C   0  0  0  0  0  0
  -27.0391  -30.3002   24.6196 C   0  0  0  0  0  0
  -27.6055  -32.4333   25.7489 C   0  0  0  0  0  0
  -27.5582  -37.1771   24.8449 C   0  0  0  0  0  0
  -21.4225  -29.3049   22.3629 N   0  0  0  0  0  0
  -26.4268  -37.3768   23.9429 N   0  0  0  0  0  0
  -24.7037  -31.0453   22.0917 N   0  0  0  0  0  0
  -23.4203  -28.8138   23.3006 O   0  0  0  0  0  0
  -28.3166  -26.3094   20.1732 O   0  0  0  0  0  0
  -26.5631  -34.8917   22.4651 O   0  0  0  0  0  0
  -23.5487  -32.1335   23.7216 O   0  0  0  0  0  0
  -29.1433  -19.2683   21.8408 C   0  0  0  0  0  0
  -29.5288  -19.5974   20.5635 C   0  0  0  0  0  0
  -29.9015  -18.2842   19.9854 C   0  0  0  0  0  0
  -29.7064  -17.2587   20.9201 C   0  0  0  0  0  0
  -28.9601  -23.6623   20.0379 C   0  0  0  0  0  0
  -30.3849  -18.0554   18.5784 C   0  0  0  0  0  0
  -28.8566  -17.2291   23.3023 C   0  0  0  0  0  0
  -29.5673  -21.0807   19.9145 C   0  0  0  0  0  0
  -28.0778  -24.8799   20.6447 C   0  0  0  0  0  0
  -29.2309  -17.8888   22.0621 N   0  0  0  0  0  0
  -29.6787  -15.8469   20.7978 N   0  0  0  0  0  0
  -28.8708  -22.3360   20.4834 N   0  0  0  0  0  0
  -29.7400  -23.9322   19.1214 O   0  0  0  0  0  0
  -31.4866  -12.6600   19.1667 H   0  0  0  0  0  0
  -30.4336  -11.5139   19.9475 H   0  0  0  0  0  0
  -29.8126  -11.7622   17.5229 H   0  0  0  0  0  0
  -29.6245  -13.4853   17.7263 H   0  0  0  0  0  0
  -27.9227  -11.2789   18.9261 H   0  0  0  0  0  0
  -27.3836  -12.5073   17.8106 H   0  0  0  0  0  0
  -27.6430  -14.2482   19.4825 H   0  0  0  0  0  0
  -28.7457  -12.1288   21.3962 H   0  0  0  0  0  0
  -28.4114  -13.7810   21.8311 H   0  0  0  0  0  0
  -25.2759   -9.5692   22.4775 H   0  0  0  0  0  0
  -24.0004   -7.4634   22.7482 H   0  0  0  0  0  0
  -21.0851   -8.8769   19.8941 H   0  0  0  0  0  0
  -22.3711  -10.9671   19.6160 H   0  0  0  0  0  0
  -21.1993   -7.6151   23.9727 H   0  0  0  0  0  0
  -21.1477   -6.0524   25.9085 H   0  0  0  0  0  0
  -22.0595   -2.7614   23.2845 H   0  0  0  0  0  0
  -22.4050  -11.9840   22.4742 H   0  0  0  0  0  0
  -21.1080  -13.1240   22.2569 H   0  0  0  0  0  0
  -24.6564  -15.8418   20.5202 H   0  0  0  0  0  0
  -26.2710  -15.6313   20.0748 H   0  0  0  0  0  0
  -26.7221  -32.5392   23.1038 H   0  0  0  0  0  0
  -25.0103  -33.9663   25.0389 H   0  0  0  0  0  0
  -22.7342  -31.2954   21.3818 H   0  0  0  0  0  0
  -23.3780  -35.9553   23.3254 H   0  0  0  0  0  0
  -24.3592  -36.8914   22.2060 H   0  0  0  0  0  0
  -23.7191  -37.6419   23.6687 H   0  0  0  0  0  0
  -26.1252  -31.5134   20.6047 H   0  0  0  0  0  0
  -26.8597  -30.8082   22.0113 H   0  0  0  0  0  0
  -28.1368  -28.9060   21.2023 H   0  0  0  0  0  0
  -25.9767  -25.8727   19.0266 H   0  0  0  0  0  0
  -23.9822  -27.2814   19.0192 H   0  0  0  0  0  0
  -23.7840  -30.5680   19.3956 H   0  0  0  0  0  0
  -22.7760  -29.2296   19.8528 H   0  0  0  0  0  0
  -25.1286  -36.1881   25.0814 H   0  0  0  0  0  0
  -21.0020  -28.3290   24.1360 H   0  0  0  0  0  0
  -20.5688  -26.2312   23.3597 H   0  0  0  0  0  0
  -21.6649  -26.7432   22.1176 H   0  0  0  0  0  0
  -19.6922  -25.6313   21.1206 H   0  0  0  0  0  0
  -19.6700  -27.3224   20.6750 H   0  0  0  0  0  0
  -17.4209  -26.6709   21.4015 H   0  0  0  0  0  0
  -18.0338  -26.0075   22.8998 H   0  0  0  0  0  0
  -19.7956  -30.7283   24.2262 H   0  0  0  0  0  0
  -17.5027  -31.6270   24.5170 H   0  0  0  0  0  0
  -15.5366  -30.2980   23.7677 H   0  0  0  0  0  0
  -15.8686  -28.0813   22.7081 H   0  0  0  0  0  0
  -24.5922  -30.7043   25.7715 H   0  0  0  0  0  0
  -24.8892  -32.2866   26.4817 H   0  0  0  0  0  0
  -25.8027  -30.8889   27.0190 H   0  0  0  0  0  0
  -26.2987  -29.6724   24.1217 H   0  0  0  0  0  0
  -27.4091  -29.7280   25.4715 H   0  0  0  0  0  0
  -27.8855  -30.4294   23.9444 H   0  0  0  0  0  0
  -27.2659  -33.3665   26.1990 H   0  0  0  0  0  0
  -28.3912  -32.6830   25.0346 H   0  0  0  0  0  0
  -28.0669  -31.8494   26.5460 H   0  0  0  0  0  0
  -28.2519  -38.0150   24.7604 H   0  0  0  0  0  0
  -28.1157  -36.2678   24.6137 H   0  0  0  0  0  0
  -27.2313  -37.1240   25.8851 H   0  0  0  0  0  0
  -20.9422  -29.8749   21.6805 H   0  0  0  0  0  0
  -26.0135  -38.2820   24.1504 H   0  0  0  0  0  0
  -28.7889  -19.9136   22.6346 H   0  0  0  0  0  0
  -30.3460  -18.9696   17.9870 H   0  0  0  0  0  0
  -29.7715  -17.3009   18.0853 H   0  0  0  0  0  0
  -31.4150  -17.6987   18.5929 H   0  0  0  0  0  0
  -28.6995  -17.9633   24.0930 H   0  0  0  0  0  0
  -29.6499  -16.5490   23.6146 H   0  0  0  0  0  0
  -27.9359  -16.6627   23.1598 H   0  0  0  0  0  0
  -29.2068  -20.9713   18.8911 H   0  0  0  0  0  0
  -30.6245  -21.3314   19.8116 H   0  0  0  0  0  0
  -28.2578  -24.8830   21.7198 H   0  0  0  0  0  0
  -27.0302  -24.6026   20.5385 H   0  0  0  0  0  0
  -28.8054  -15.4575   21.1176 H   0  0  0  0  0  0
  -28.2231  -22.1691   21.2417 H   0  0  0  0  0  0
  1 25  1  0  0  0
  1 30  2  0  0  0
  1 81  1  0  0  0
  2  3  1  0  0  0
  2 25  1  0  0  0
  2 84  1  0  0  0
  2 85  1  0  0  0
  3  4  1  0  0  0
  3 86  1  0  0  0
  3 87  1  0  0  0
  4  5  1  0  0  0
  4 88  1  0  0  0
  4 89  1  0  0  0
  5  6  1  0  0  0
  5 26  1  0  0  0
  5 90  1  0  0  0
  6 25  1  0  0  0
  6 91  1  0  0  0
  6 92  1  0  0  0
  7  8  2  0  0  0
  7 26  1  0  0  0
  7 29  1  0  0  0
  8  9  1  0  0  0
  8 22  1  0  0  0
  9 10  1  0  0  0
  9 27  2  0  0  0
 10 11  2  0  0  0
 10 15  1  0  0  0
 11 12  1  0  0  0
 11 93  1  0  0  0
 12 13  2  0  0  0
 12 94  1  0  0  0
 13 14  1  0  0  0
 13 31  1  0  0  0
 14 15  2  0  0  0
 14 95  1  0  0  0
 15 96  1  0  0  0
 16 17  2  0  0  0
 16 21  1  0  0  0
 16 31  1  0  0  0
 17 18  1  0  0  0
 17 97  1  0  0  0
 18 19  2  0  0  0
 18 98  1  0  0  0
 19 20  1  0  0  0
 19 24  1  0  0  0
 20 21  2  0  0  0
 20 99  1  0  0  0
 21 23  1  0  0  0
 22 28  1  0  0  0
 22 32  2  0  0  0
 26 27  1  0  0  0
 28100  1  0  0  0
 28101  1  0  0  0
 29102  1  0  0  0
 29103  1  0  0  0
 33 34  1  0  0  0
 33 66  1  0  0  0
 33 70  2  0  0  0
 34 36  1  0  0  0
 34 59  1  0  0  0
 34104  1  0  0  0
 35 44  2  0  0  0
 35 45  1  0  0  0
 35 68  1  0  0  0
 36 56  1  0  0  0
 36105  1  0  0  0
 37 39  1  0  0  0
 37 47  1  0  0  0
 37 66  1  0  0  0
 37106  1  0  0  0
 38 43  2  0  0  0
 38 46  1  0  0  0
 38 47  1  0  0  0
 39 64  1  0  0  0
 39 67  2  0  0  0
 40 52  1  0  0  0
 40 53  2  0  0  0
 40 58  1  0  0  0
 41107  1  0  0  0
 41108  1  0  0  0
 41109  1  0  0  0
 41 48  1  0  0  0
 42 43  1  0  0  0
 42 66  1  0  0  0
 42110  1  0  0  0
 42111  1  0  0  0
 43 44  1  0  0  0
 44112  1  0  0  0
 45 46  2  0  0  0
 45113  1  0  0  0
 46114  1  0  0  0
 47115  1  0  0  0
 47116  1  0  0  0
 48 56  1  0  0  0
 48 65  1  0  0  0
 48117  1  0  0  0
 49 50  1  0  0  0
 49 53  1  0  0  0
 49 64  1  0  0  0
 49118  1  0  0  0
 50 51  1  0  0  0
 50119  1  0  0  0
 50120  1  0  0  0
 51 52  1  0  0  0
 51121  1  0  0  0
 51122  1  0  0  0
 52123  1  0  0  0
 52124  1  0  0  0
 53 54  1  0  0  0
 54 55  2  0  0  0
 54125  1  0  0  0
 55 57  1  0  0  0
 55126  1  0  0  0
 56 69  2  0  0  0
 57 58  2  0  0  0
 57127  1  0  0  0
 58128  1  0  0  0
 59 60  1  0  0  0
 59 61  1  0  0  0
 59 62  1  0  0  0
 60129  1  0  0  0
 60130  1  0  0  0
 60131  1  0  0  0
 61132  1  0  0  0
 61133  1  0  0  0
 61134  1  0  0  0
 62135  1  0  0  0
 62136  1  0  0  0
 62137  1  0  0  0
 63 65  1  0  0  0
 63138  1  0  0  0
 63139  1  0  0  0
 63140  1  0  0  0
 64141  1  0  0  0
 65142  1  0  0  0
 68 79  1  0  0  0
 71 72  2  0  0  0
 71 80  1  0  0  0
 71143  1  0  0  0
 72 73  1  0  0  0
 72 78  1  0  0  0
 73 74  2  0  0  0
 73 76  1  0  0  0
 74 80  1  0  0  0
 74 81  1  0  0  0
 75 79  1  0  0  0
 75 82  1  0  0  0
 75 83  2  0  0  0
 76144  1  0  0  0
 76145  1  0  0  0
 76146  1  0  0  0
 77 80  1  0  0  0
 77147  1  0  0  0
 77148  1  0  0  0
 77149  1  0  0  0
 78 82  1  0  0  0
 78150  1  0  0  0
 78151  1  0  0  0
 79152  1  0  0  0
 79153  1  0  0  0
 81154  1  0  0  0
 82155  1  0  0  0
M  ISO  4   1 100  68 101  79 101  81 100
M  END
> <chiral flag>
0

> <version>
0

> <s_m_source_file>
/data/baiqing/PycharmProjects/Reinvent-master-3.2/result/LINK_invent/BTK/process_docking_weight1_custom_sum_contain_oxygen_bond_distance_aromatic_linkinvent_7_9_3/rearranged_h_0014.sdf

> <i_m_source_file_index>
91

> <r_mmod_Potential_Energy-OPLS-2005>
111.563850402832

> <r_mmod_Stretch_Energy-OPLS-2005>
145.292404174805

> <r_mmod_Bend_Energy-OPLS-2005>
202.296249389648

> <r_mmod_Torsional_Energy-OPLS-2005>
241.709701538086

> <r_mmod_Improper_Torsional_Energy-OPLS-2005>
6.10946893692017

> <r_mmod_Van_der_Waal_Energy-OPLS-2005>
106.58243560791

> <r_mmod_Electrostatic_Energy-OPLS-2005>
-442.228088378906

> <r_mmod_Solvation_Energy-OPLS-2005>
-257.035034179688

> <b_mmod_Minimization_Converged-OPLS-2005>
0

> <r_mmod_RMS_Derivative-OPLS-2005>
1.26118505001068

$$$$
91
                    3D
 Structure written by MMmdl.
143150  0  0  1  0            999 V2000
  -30.1636  -16.0165   20.2837 C   0  0  0  0  0  0
  -30.4021  -13.3807   19.5097 C   0  0  0  0  0  0
  -29.5672  -12.7447   18.3499 C   0  0  0  0  0  0
  -28.1808  -12.2975   18.8321 C   0  0  0  0  0  0
  -27.5888  -13.3376   19.8001 C   0  0  2  0  0  0
  -28.5861  -13.8471   20.8777 C   0  0  0  0  0  0
  -25.2337  -13.8308   20.5832 C   0  0  0  0  0  0
  -24.1745  -13.0427   20.9297 C   0  0  0  0  0  0
  -24.6485  -11.6955   20.8763 C   0  0  0  0  0  0
  -23.9183  -10.4297   21.0405 C   0  0  0  0  0  0
  -24.3690   -9.4205   21.9200 C   0  0  0  0  0  0
  -23.6323   -8.2263   22.0773 C   0  0  0  0  0  0
  -22.4301   -8.0322   21.3557 C   0  0  0  0  0  0
  -21.9971   -9.0311   20.4658 C   0  0  0  0  0  0
  -22.7347  -10.2160   20.3056 C   0  0  0  0  0  0
  -21.6865   -6.0767   22.5277 C   0  0  0  0  0  0
  -21.4023   -6.5660   23.8211 C   0  0  0  0  0  0
  -21.3650   -5.6801   24.9170 C   0  0  0  0  0  0
  -21.6034   -4.3069   24.7210 C   0  0  0  0  0  0
  -21.8818   -3.8167   23.4328 C   0  0  0  0  0  0
  -21.9194   -4.6989   22.3390 C   0  0  0  0  0  0
  -22.7748  -13.5156   21.1899 C   0  0  0  0  0  0
  -22.1667   -4.2180   21.0968 F   0  0  0  0  0  0
  -21.5617   -3.4544   25.7721 F   0  0  0  0  0  0
  -29.6793  -14.5908   20.1704 N   0  0  0  0  0  0
  -26.2827  -12.9698   20.3296 N   0  0  0  0  0  0
  -25.9450  -11.6736   20.5678 N   0  0  0  0  0  0
  -22.0376  -12.8144   22.0431 N   0  0  0  0  0  0
  -25.3914  -15.2038   20.4227 N   0  0  0  0  0  0
  -31.4110  -15.8730   20.3150 O   0  0  0  0  0  0
  -21.6650   -6.8922   21.4243 O   0  0  0  0  0  0
  -22.3446  -14.5464   20.6738 O   0  0  0  0  0  0
  -24.7056  -31.7721   23.1279 C   0  0  0  0  0  0
  -25.9532  -32.4316   23.7901 C   0  0  1  0  0  0
  -27.2397  -26.4470   20.2423 C   0  0  0  0  0  0
  -25.6018  -33.8158   24.1777 N   0  0  0  0  0  0
  -23.5424  -30.3631   21.4905 C   0  0  2  0  0  0
  -25.0002  -28.6446   20.1351 C   0  0  0  0  0  0
  -22.7854  -29.4187   22.4644 C   0  0  0  0  0  0
  -18.0371  -28.1416   22.8423 C   0  0  0  0  0  0
  -24.1517  -36.7085   23.2660 C   0  0  0  0  0  0
  -26.1337  -30.4200   21.4327 C   0  0  0  0  0  0
  -26.1981  -28.9547   20.7902 C   0  0  0  0  0  0
  -27.2916  -27.8963   20.7967 C   0  0  0  0  0  0
  -26.0015  -26.4115   19.5305 C   0  0  0  0  0  0
  -24.9557  -27.3989   19.4822 C   0  0  0  0  0  0
  -23.8105  -29.6337   20.1397 C   0  0  0  0  0  0
  -25.4171  -36.2793   24.0256 C   0  0  1  0  0  0
  -20.6014  -28.3800   23.1070 C   0  0  2  0  0  0
  -20.6839  -26.9442   22.5381 C   0  0  0  0  0  0
  -19.5827  -26.6358   21.5191 C   0  0  0  0  0  0
  -18.2003  -26.7940   22.1583 C   0  0  0  0  0  0
  -19.1638  -28.8931   23.2716 C   0  0  0  0  0  0
  -18.9548  -30.1508   23.8772 C   0  0  0  0  0  0
  -17.6539  -30.6592   24.0541 C   0  0  0  0  0  0
  -25.9163  -34.9196   23.4875 C   0  0  0  0  0  0
  -16.5425  -29.9075   23.6350 C   0  0  0  0  0  0
  -16.7348  -28.6498   23.0359 C   0  0  0  0  0  0
  -26.4636  -31.6450   25.0620 C   0  0  0  0  0  0
  -25.3610  -31.3840   26.1159 C   0  0  0  0  0  0
  -27.0610  -30.2754   24.6715 C   0  0  0  0  0  0
  -27.6057  -32.4362   25.7419 C   0  0  0  0  0  0
  -27.5566  -37.1691   24.8469 C   0  0  0  0  0  0
  -21.4482  -29.3015   22.3371 N   0  0  0  0  0  0
  -26.4271  -37.3581   23.9410 N   0  0  0  0  0  0
  -24.8204  -30.8911   22.0685 N   0  0  0  0  0  0
  -23.4189  -28.7845   23.3110 O   0  0  0  0  0  0
  -28.2103  -25.1382   20.2091 O   0  0  0  0  0  0
  -26.5834  -34.8827   22.4520 O   0  0  0  0  0  0
  -23.6030  -32.0923   23.6086 O   0  0  0  0  0  0
  -28.1464  -17.3478   19.4672 C   0  0  0  0  0  0
  -28.8124  -21.3013   19.9737 C   0  0  0  0  0  0
  -29.3809  -19.3622   20.5689 C   0  0  0  0  0  0
  -28.2518  -23.2636   20.5080 C   0  0  0  0  0  0
  -29.4090  -17.4905   20.1879 N   0  0  0  0  0  0
  -31.3491  -13.7206   19.0871 H   0  0  0  0  0  0
  -30.6891  -12.6298   20.2484 H   0  0  0  0  0  0
  -30.1007  -11.9032   17.9056 H   0  0  0  0  0  0
  -29.4507  -13.4882   17.5599 H   0  0  0  0  0  0
  -28.2969  -11.3475   19.3561 H   0  0  0  0  0  0
  -27.5119  -12.1116   17.9905 H   0  0  0  0  0  0
  -27.3888  -14.1854   19.1460 H   0  0  0  0  0  0
  -28.9521  -13.0395   21.5131 H   0  0  0  0  0  0
  -28.0824  -14.5461   21.5462 H   0  0  0  0  0  0
  -25.2818   -9.5670   22.4811 H   0  0  0  0  0  0
  -24.0006   -7.4646   22.7503 H   0  0  0  0  0  0
  -21.0901   -8.8859   19.8964 H   0  0  0  0  0  0
  -22.3825  -10.9720   19.6176 H   0  0  0  0  0  0
  -21.2033   -7.6171   23.9723 H   0  0  0  0  0  0
  -21.1463   -6.0535   25.9069 H   0  0  0  0  0  0
  -22.0599   -2.7631   23.2819 H   0  0  0  0  0  0
  -22.3953  -11.9803   22.4832 H   0  0  0  0  0  0
  -21.0994  -13.1198   22.2586 H   0  0  0  0  0  0
  -24.6180  -15.8537   20.5135 H   0  0  0  0  0  0
  -26.2365  -15.6377   20.0778 H   0  0  0  0  0  0
  -26.7628  -32.4715   23.0604 H   0  0  0  0  0  0
  -25.0022  -33.9142   24.9835 H   0  0  0  0  0  0
  -22.8827  -31.2078   21.2796 H   0  0  0  0  0  0
  -23.3793  -35.9400   23.3237 H   0  0  0  0  0  0
  -24.3589  -36.8852   22.2098 H   0  0  0  0  0  0
  -23.7284  -37.6231   23.6819 H   0  0  0  0  0  0
  -26.3696  -31.1317   20.6405 H   0  0  0  0  0  0
  -26.9701  -30.4928   22.1139 H   0  0  0  0  0  0
  -28.1969  -28.1645   21.3228 H   0  0  0  0  0  0
  -25.7942  -25.4939   18.9988 H   0  0  0  0  0  0
  -24.0597  -27.1443   18.9321 H   0  0  0  0  0  0
  -24.0068  -30.3831   19.3723 H   0  0  0  0  0  0
  -22.9079  -29.1151   19.8100 H   0  0  0  0  0  0
  -25.1403  -36.1503   25.0741 H   0  0  0  0  0  0
  -21.0074  -28.3462   24.1202 H   0  0  0  0  0  0
  -20.5710  -26.2429   23.3662 H   0  0  0  0  0  0
  -21.6702  -26.7377   22.1213 H   0  0  0  0  0  0
  -19.7002  -25.6243   21.1297 H   0  0  0  0  0  0
  -19.6788  -27.3096   20.6667 H   0  0  0  0  0  0
  -17.4282  -26.6659   21.3976 H   0  0  0  0  0  0
  -18.0400  -26.0087   22.8982 H   0  0  0  0  0  0
  -19.8041  -30.7337   24.2090 H   0  0  0  0  0  0
  -17.5110  -31.6270   24.5154 H   0  0  0  0  0  0
  -15.5426  -30.2945   23.7749 H   0  0  0  0  0  0
  -15.8745  -28.0788   22.7127 H   0  0  0  0  0  0
  -24.5835  -30.7168   25.7404 H   0  0  0  0  0  0
  -24.8745  -32.3083   26.4274 H   0  0  0  0  0  0
  -25.7670  -30.9167   27.0138 H   0  0  0  0  0  0
  -26.3378  -29.6279   24.1734 H   0  0  0  0  0  0
  -27.3964  -29.7306   25.5554 H   0  0  0  0  0  0
  -27.9394  -30.3809   24.0341 H   0  0  0  0  0  0
  -27.2609  -33.3796   26.1651 H   0  0  0  0  0  0
  -28.4001  -32.6704   25.0320 H   0  0  0  0  0  0
  -28.0563  -31.8717   26.5586 H   0  0  0  0  0  0
  -28.2518  -38.0043   24.7519 H   0  0  0  0  0  0
  -28.1127  -36.2561   24.6293 H   0  0  0  0  0  0
  -27.2274  -37.1305   25.8866 H   0  0  0  0  0  0
  -20.9828  -29.8607   21.6350 H   0  0  0  0  0  0
  -26.0066  -38.2612   24.1440 H   0  0  0  0  0  0
  -28.1011  -18.0711   18.6522 H   0  0  0  0  0  0
  -27.3084  -17.5390   20.1372 H   0  0  0  0  0  0
  -28.0019  -16.3666   19.0140 H   0  0  0  0  0  0
  -28.0363  -21.0683   19.2450 H   0  0  0  0  0  0
  -29.6673  -21.5348   19.3396 H   0  0  0  0  0  0
  -28.8748  -19.3113   21.5346 H   0  0  0  0  0  0
  -30.4241  -19.5134   20.8524 H   0  0  0  0  0  0
  -27.2187  -23.1099   20.8199 H   0  0  0  0  0  0
  -28.7962  -23.3194   21.4512 H   0  0  0  0  0  0
  1 25  1  0  0  0
  1 30  2  0  0  0
  1 75  1  0  0  0
  2  3  1  0  0  0
  2 25  1  0  0  0
  2 76  1  0  0  0
  2 77  1  0  0  0
  3  4  1  0  0  0
  3 78  1  0  0  0
  3 79  1  0  0  0
  4  5  1  0  0  0
  4 80  1  0  0  0
  4 81  1  0  0  0
  5  6  1  0  0  0
  5 26  1  0  0  0
  5 82  1  0  0  0
  6 25  1  0  0  0
  6 83  1  0  0  0
  6 84  1  0  0  0
  7  8  2  0  0  0
  7 26  1  0  0  0
  7 29  1  0  0  0
  8  9  1  0  0  0
  8 22  1  0  0  0
  9 10  1  0  0  0
  9 27  2  0  0  0
 10 11  2  0  0  0
 10 15  1  0  0  0
 11 12  1  0  0  0
 11 85  1  0  0  0
 12 13  2  0  0  0
 12 86  1  0  0  0
 13 14  1  0  0  0
 13 31  1  0  0  0
 14 15  2  0  0  0
 14 87  1  0  0  0
 15 88  1  0  0  0
 16 17  2  0  0  0
 16 21  1  0  0  0
 16 31  1  0  0  0
 17 18  1  0  0  0
 17 89  1  0  0  0
 18 19  2  0  0  0
 18 90  1  0  0  0
 19 20  1  0  0  0
 19 24  1  0  0  0
 20 21  2  0  0  0
 20 91  1  0  0  0
 21 23  1  0  0  0
 22 28  1  0  0  0
 22 32  2  0  0  0
 26 27  1  0  0  0
 28 92  1  0  0  0
 28 93  1  0  0  0
 29 94  1  0  0  0
 29 95  1  0  0  0
 33 34  1  0  0  0
 33 66  1  0  0  0
 33 70  2  0  0  0
 34 36  1  0  0  0
 34 59  1  0  0  0
 34 96  1  0  0  0
 35 44  2  0  0  0
 35 45  1  0  0  0
 35 68  1  0  0  0
 36 56  1  0  0  0
 36 97  1  0  0  0
 37 39  1  0  0  0
 37 47  1  0  0  0
 37 66  1  0  0  0
 37 98  1  0  0  0
 38 43  2  0  0  0
 38 46  1  0  0  0
 38 47  1  0  0  0
 39 64  1  0  0  0
 39 67  2  0  0  0
 40 52  1  0  0  0
 40 53  2  0  0  0
 40 58  1  0  0  0
 41 99  1  0  0  0
 41100  1  0  0  0
 41101  1  0  0  0
 41 48  1  0  0  0
 42 43  1  0  0  0
 42 66  1  0  0  0
 42102  1  0  0  0
 42103  1  0  0  0
 43 44  1  0  0  0
 44104  1  0  0  0
 45 46  2  0  0  0
 45105  1  0  0  0
 46106  1  0  0  0
 47107  1  0  0  0
 47108  1  0  0  0
 48 56  1  0  0  0
 48 65  1  0  0  0
 48109  1  0  0  0
 49 50  1  0  0  0
 49 53  1  0  0  0
 49 64  1  0  0  0
 49110  1  0  0  0
 50 51  1  0  0  0
 50111  1  0  0  0
 50112  1  0  0  0
 51 52  1  0  0  0
 51113  1  0  0  0
 51114  1  0  0  0
 52115  1  0  0  0
 52116  1  0  0  0
 53 54  1  0  0  0
 54 55  2  0  0  0
 54117  1  0  0  0
 55 57  1  0  0  0
 55118  1  0  0  0
 56 69  2  0  0  0
 57 58  2  0  0  0
 57119  1  0  0  0
 58120  1  0  0  0
 59 60  1  0  0  0
 59 61  1  0  0  0
 59 62  1  0  0  0
 60121  1  0  0  0
 60122  1  0  0  0
 60123  1  0  0  0
 61124  1  0  0  0
 61125  1  0  0  0
 61126  1  0  0  0
 62127  1  0  0  0
 62128  1  0  0  0
 62129  1  0  0  0
 63 65  1  0  0  0
 63130  1  0  0  0
 63131  1  0  0  0
 63132  1  0  0  0
 64133  1  0  0  0
 65134  1  0  0  0
 68 74  1  0  0  0
 71 75  1  0  0  0
 71135  1  0  0  0
 71136  1  0  0  0
 71137  1  0  0  0
 72 73  1  0  0  0
 72 74  1  0  0  0
 72138  1  0  0  0
 72139  1  0  0  0
 73 75  1  0  0  0
 73140  1  0  0  0
 73141  1  0  0  0
 74142  1  0  0  0
 74143  1  0  0  0
M  ISO  4   1 100  68 101  74 101  75 100
M  END
> <chiral flag>
0

> <version>
0

> <s_m_source_file>
/data/baiqing/PycharmProjects/Reinvent-master-3.2/result/LINK_invent/BTK/process_docking_weight1_custom_sum_contain_oxygen_bond_distance_aromatic_linkinvent_7_9_3/rearranged_h_0014.sdf

> <i_m_source_file_index>
92

> <r_mmod_Potential_Energy-OPLS-2005>
4303.49072265625

> <r_mmod_Stretch_Energy-OPLS-2005>
1937.3203125

> <r_mmod_Bend_Energy-OPLS-2005>
891.069641113281

> <r_mmod_Torsional_Energy-OPLS-2005>
308.0107421875

> <r_mmod_Improper_Torsional_Energy-OPLS-2005>
4.89766931533813

> <r_mmod_Van_der_Waal_Energy-OPLS-2005>
112.25927734375

> <r_mmod_Electrostatic_Energy-OPLS-2005>
-274.442291259766

> <r_mmod_Solvation_Energy-OPLS-2005>
-215.008483886719

> <b_mmod_Minimization_Converged-OPLS-2005>
0

> <r_mmod_RMS_Derivative-OPLS-2005>
2.3036835193634

$$$$
92
                    3D
 Structure written by MMmdl.
162170  0  0  1  0            999 V2000
  -30.5938  -14.7266   20.4968 C   0  0  0  0  0  0
  -30.4279  -12.4363   19.4971 C   0  0  0  0  0  0
  -29.5140  -12.5144   18.2522 C   0  0  0  0  0  0
  -28.0362  -12.3446   18.6504 C   0  0  0  0  0  0
  -27.6430  -13.2274   19.8638 C   0  0  2  0  0  0
  -28.6819  -13.1249   21.0031 C   0  0  0  0  0  0
  -25.2513  -13.8197   20.5702 C   0  0  0  0  0  0
  -24.1787  -13.0434   20.9182 C   0  0  0  0  0  0
  -24.6363  -11.6917   20.8729 C   0  0  0  0  0  0
  -23.9052  -10.4294   21.0401 C   0  0  0  0  0  0
  -24.3611   -9.4201   21.9180 C   0  0  0  0  0  0
  -23.6273   -8.2233   22.0742 C   0  0  0  0  0  0
  -22.4253   -8.0266   21.3530 C   0  0  0  0  0  0
  -21.9893   -9.0252   20.4645 C   0  0  0  0  0  0
  -22.7213  -10.2140   20.3044 C   0  0  0  0  0  0
  -21.6856   -6.0709   22.5263 C   0  0  0  0  0  0
  -21.4033   -6.5630   23.8199 C   0  0  0  0  0  0
  -21.3662   -5.6787   24.9171 C   0  0  0  0  0  0
  -21.6032   -4.3045   24.7220 C   0  0  0  0  0  0
  -21.8820   -3.8125   23.4356 C   0  0  0  0  0  0
  -21.9201   -4.6929   22.3405 C   0  0  0  0  0  0
  -22.7819  -13.5220   21.1873 C   0  0  0  0  0  0
  -22.1667   -4.2104   21.0987 F   0  0  0  0  0  0
  -21.5619   -3.4526   25.7740 F   0  0  0  0  0  0
  -29.9944  -13.4845   20.4493 N   0  0  0  0  0  0
  -26.2921  -12.9385   20.3311 N   0  0  0  0  0  0
  -25.9301  -11.6537   20.5745 N   0  0  0  0  0  0
  -22.0503  -12.8214   22.0446 N   0  0  0  0  0  0
  -25.4253  -15.1906   20.4178 N   0  0  0  0  0  0
  -31.7325  -14.8878   20.0500 O   0  0  0  0  0  0
  -21.6622   -6.8857   21.4226 O   0  0  0  0  0  0
  -22.3495  -14.5521   20.6717 O   0  0  0  0  0  0
  -24.6323  -31.8533   23.1976 C   0  0  0  0  0  0
  -25.9142  -32.4746   23.8325 C   0  0  1  0  0  0
  -27.2375  -27.2481   20.1583 C   0  0  0  0  0  0
  -25.5928  -33.8550   24.2247 N   0  0  0  0  0  0
  -23.4316  -30.4735   21.5389 C   0  0  2  0  0  0
  -24.8844  -28.9161   20.1167 C   0  0  0  0  0  0
  -22.7526  -29.4575   22.4892 C   0  0  0  0  0  0
  -18.0300  -28.1409   22.8486 C   0  0  0  0  0  0
  -24.1487  -36.7266   23.2628 C   0  0  0  0  0  0
  -25.9765  -30.7685   21.3737 C   0  0  0  0  0  0
  -26.0562  -29.3872   20.7227 C   0  0  0  0  0  0
  -27.2339  -28.5704   20.7261 C   0  0  0  0  0  0
  -26.0356  -26.8445   19.5297 C   0  0  0  0  0  0
  -24.8805  -27.6530   19.5066 C   0  0  0  0  0  0
  -23.6560  -29.8070   20.1565 C   0  0  0  0  0  0
  -25.4117  -36.3052   24.0321 C   0  0  1  0  0  0
  -20.5911  -28.3711   23.1266 C   0  0  2  0  0  0
  -20.6799  -26.9430   22.5413 C   0  0  0  0  0  0
  -19.5767  -26.6408   21.5218 C   0  0  0  0  0  0
  -18.1947  -26.7951   22.1637 C   0  0  0  0  0  0
  -19.1563  -28.8878   23.2866 C   0  0  0  0  0  0
  -18.9474  -30.1474   23.8888 C   0  0  0  0  0  0
  -17.6474  -30.6597   24.0584 C   0  0  0  0  0  0
  -25.9073  -34.9436   23.5099 C   0  0  0  0  0  0
  -16.5361  -29.9107   23.6334 C   0  0  0  0  0  0
  -16.7287  -28.6535   23.0336 C   0  0  0  0  0  0
  -26.4521  -31.6562   25.0707 C   0  0  0  0  0  0
  -25.3751  -31.3720   26.1429 C   0  0  0  0  0  0
  -27.0353  -30.2975   24.6177 C   0  0  0  0  0  0
  -27.6083  -32.4294   25.7471 C   0  0  0  0  0  0
  -27.5579  -37.1785   24.8466 C   0  0  0  0  0  0
  -21.4236  -29.3034   22.3636 N   0  0  0  0  0  0
  -26.4274  -37.3771   23.9426 N   0  0  0  0  0  0
  -24.6985  -31.0516   22.0932 N   0  0  0  0  0  0
  -23.4210  -28.8118   23.3005 O   0  0  0  0  0  0
  -28.3384  -26.3531   20.2355 O   0  0  0  0  0  0
  -26.5666  -34.8912   22.4677 O   0  0  0  0  0  0
  -23.5467  -32.1332   23.7274 O   0  0  0  0  0  0
  -30.0820  -18.3607   20.8790 C   0  0  0  0  0  0
  -29.3833  -19.5450   20.3154 C   0  0  0  0  0  0
  -28.3241  -19.0841   19.5526 C   0  0  0  0  0  0
  -29.6070  -17.0775   20.5332 C   0  0  0  0  0  0
  -24.8156  -20.7034   19.1373 C   0  0  0  0  0  0
  -29.8512  -24.0264   21.9218 C   0  0  0  0  0  0
  -29.7985  -21.0791   20.5011 C   0  0  0  0  0  0
  -27.2284  -19.8426   18.8669 C   0  0  0  0  0  0
  -25.9103  -19.7674   19.6595 C   0  0  0  0  0  0
  -28.0966  -24.8605   20.1594 C   0  0  0  0  0  0
  -29.2130  -23.7255   20.5447 C   0  0  2  0  0  0
  -29.8572  -15.7810   21.0127 N   0  0  0  0  0  0
  -28.7692  -22.2320   20.4780 N   0  3  0  0  0  0
  -28.2613  -17.3256   19.4568 S   0  0  0  0  0  0
  -31.4739  -12.5520   19.2119 H   0  0  0  0  0  0
  -30.3568  -11.4541   19.9702 H   0  0  0  0  0  0
  -29.7900  -11.7458   17.5297 H   0  0  0  0  0  0
  -29.6518  -13.4737   17.7505 H   0  0  0  0  0  0
  -27.8847  -11.2930   18.8980 H   0  0  0  0  0  0
  -27.3883  -12.5518   17.7972 H   0  0  0  0  0  0
  -27.6442  -14.2557   19.5039 H   0  0  0  0  0  0
  -28.7040  -12.1126   21.4113 H   0  0  0  0  0  0
  -28.4077  -13.7714   21.8362 H   0  0  0  0  0  0
  -25.2771   -9.5646   22.4747 H   0  0  0  0  0  0
  -23.9968   -7.4624   22.7468 H   0  0  0  0  0  0
  -21.0804   -8.8756   19.8975 H   0  0  0  0  0  0
  -22.3655  -10.9669   19.6132 H   0  0  0  0  0  0
  -21.2040   -7.6138   23.9695 H   0  0  0  0  0  0
  -21.1474   -6.0524   25.9074 H   0  0  0  0  0  0
  -22.0595   -2.7572   23.2872 H   0  0  0  0  0  0
  -22.4158  -11.9871   22.4803 H   0  0  0  0  0  0
  -21.1106  -13.1212   22.2686 H   0  0  0  0  0  0
  -24.6705  -15.8543   20.5570 H   0  0  0  0  0  0
  -26.2867  -15.6267   20.1196 H   0  0  0  0  0  0
  -26.7207  -32.5418   23.1066 H   0  0  0  0  0  0
  -25.0037  -33.9699   25.0359 H   0  0  0  0  0  0
  -22.7238  -31.2924   21.3908 H   0  0  0  0  0  0
  -23.3752  -35.9596   23.3294 H   0  0  0  0  0  0
  -24.3544  -36.8896   22.2040 H   0  0  0  0  0  0
  -23.7258  -37.6470   23.6656 H   0  0  0  0  0  0
  -26.1098  -31.5223   20.5965 H   0  0  0  0  0  0
  -26.8562  -30.8264   22.0037 H   0  0  0  0  0  0
  -28.1279  -28.9340   21.2135 H   0  0  0  0  0  0
  -25.9469  -25.8716   19.0723 H   0  0  0  0  0  0
  -23.9862  -27.2779   19.0276 H   0  0  0  0  0  0
  -23.7927  -30.5850   19.4046 H   0  0  0  0  0  0
  -22.7740  -29.2477   19.8393 H   0  0  0  0  0  0
  -25.1295  -36.1887   25.0812 H   0  0  0  0  0  0
  -20.9987  -28.3321   24.1394 H   0  0  0  0  0  0
  -20.5718  -26.2331   23.3623 H   0  0  0  0  0  0
  -21.6667  -26.7477   22.1191 H   0  0  0  0  0  0
  -19.6941  -25.6327   21.1232 H   0  0  0  0  0  0
  -19.6713  -27.3235   20.6757 H   0  0  0  0  0  0
  -17.4223  -26.6682   21.4041 H   0  0  0  0  0  0
  -18.0344  -26.0097   22.9036 H   0  0  0  0  0  0
  -19.7944  -30.7294   24.2259 H   0  0  0  0  0  0
  -17.5024  -31.6261   24.5220 H   0  0  0  0  0  0
  -15.5363  -30.3013   23.7662 H   0  0  0  0  0  0
  -15.8686  -28.0866   22.7027 H   0  0  0  0  0  0
  -24.5919  -30.7079   25.7751 H   0  0  0  0  0  0
  -24.8951  -32.2897   26.4837 H   0  0  0  0  0  0
  -25.8063  -30.8896   27.0211 H   0  0  0  0  0  0
  -26.2917  -29.6718   24.1222 H   0  0  0  0  0  0
  -27.4055  -29.7244   25.4688 H   0  0  0  0  0  0
  -27.8786  -30.4252   23.9390 H   0  0  0  0  0  0
  -27.2706  -33.3616   26.2010 H   0  0  0  0  0  0
  -28.3904  -32.6818   25.0298 H   0  0  0  0  0  0
  -28.0717  -31.8427   26.5413 H   0  0  0  0  0  0
  -28.2594  -38.0079   24.7504 H   0  0  0  0  0  0
  -28.1073  -36.2618   24.6290 H   0  0  0  0  0  0
  -27.2287  -37.1422   25.8860 H   0  0  0  0  0  0
  -20.9429  -29.8715   21.6802 H   0  0  0  0  0  0
  -26.0146  -38.2833   24.1450 H   0  0  0  0  0  0
  -30.9107  -18.5008   21.5577 H   0  0  0  0  0  0
  -23.8996  -20.5778   19.7193 H   0  0  0  0  0  0
  -24.5762  -20.4851   18.0975 H   0  0  0  0  0  0
  -25.1082  -21.7534   19.2000 H   0  0  0  0  0  0
  -30.1699  -25.0676   21.9926 H   0  0  0  0  0  0
  -30.7372  -23.4130   22.0995 H   0  0  0  0  0  0
  -29.1573  -23.8434   22.7440 H   0  0  0  0  0  0
  -30.5207  -21.3118   19.7179 H   0  0  0  0  0  0
  -30.3685  -21.1632   21.4277 H   0  0  0  0  0  0
  -27.0654  -19.4258   17.8726 H   0  0  0  0  0  0
  -27.5082  -20.8796   18.6895 H   0  0  0  0  0  0
  -25.5412  -18.7405   19.6445 H   0  0  0  0  0  0
  -26.0986  -20.0022   20.7083 H   0  0  0  0  0  0
  -27.2079  -24.6463   20.7552 H   0  0  0  0  0  0
  -27.8168  -24.6629   19.1237 H   0  0  0  0  0  0
  -30.0085  -23.8345   19.8043 H   0  0  0  0  0  0
  -29.0519  -15.3947   21.4796 H   0  0  0  0  0  0
  -28.1159  -22.0486   21.2245 H   0  0  0  0  0  0
  -28.2604  -22.1154   19.6165 H   0  0  0  0  0  0
  1 25  1  0  0  0
  1 30  2  0  0  0
  1 82  1  0  0  0
  2  3  1  0  0  0
  2 25  1  0  0  0
  2 85  1  0  0  0
  2 86  1  0  0  0
  3  4  1  0  0  0
  3 87  1  0  0  0
  3 88  1  0  0  0
  4  5  1  0  0  0
  4 89  1  0  0  0
  4 90  1  0  0  0
  5  6  1  0  0  0
  5 26  1  0  0  0
  5 91  1  0  0  0
  6 25  1  0  0  0
  6 92  1  0  0  0
  6 93  1  0  0  0
  7  8  2  0  0  0
  7 26  1  0  0  0
  7 29  1  0  0  0
  8  9  1  0  0  0
  8 22  1  0  0  0
  9 10  1  0  0  0
  9 27  2  0  0  0
 10 11  2  0  0  0
 10 15  1  0  0  0
 11 12  1  0  0  0
 11 94  1  0  0  0
 12 13  2  0  0  0
 12 95  1  0  0  0
 13 14  1  0  0  0
 13 31  1  0  0  0
 14 15  2  0  0  0
 14 96  1  0  0  0
 15 97  1  0  0  0
 16 17  2  0  0  0
 16 21  1  0  0  0
 16 31  1  0  0  0
 17 18  1  0  0  0
 17 98  1  0  0  0
 18 19  2  0  0  0
 18 99  1  0  0  0
 19 20  1  0  0  0
 19 24  1  0  0  0
 20 21  2  0  0  0
 20100  1  0  0  0
 21 23  1  0  0  0
 22 28  1  0  0  0
 22 32  2  0  0  0
 26 27  1  0  0  0
 28101  1  0  0  0
 28102  1  0  0  0
 29103  1  0  0  0
 29104  1  0  0  0
 33 34  1  0  0  0
 33 66  1  0  0  0
 33 70  2  0  0  0
 34 36  1  0  0  0
 34 59  1  0  0  0
 34105  1  0  0  0
 35 44  2  0  0  0
 35 45  1  0  0  0
 35 68  1  0  0  0
 36 56  1  0  0  0
 36106  1  0  0  0
 37 39  1  0  0  0
 37 47  1  0  0  0
 37 66  1  0  0  0
 37107  1  0  0  0
 38 43  2  0  0  0
 38 46  1  0  0  0
 38 47  1  0  0  0
 39 64  1  0  0  0
 39 67  2  0  0  0
 40 52  1  0  0  0
 40 53  2  0  0  0
 40 58  1  0  0  0
 41108  1  0  0  0
 41109  1  0  0  0
 41110  1  0  0  0
 41 48  1  0  0  0
 42 43  1  0  0  0
 42 66  1  0  0  0
 42111  1  0  0  0
 42112  1  0  0  0
 43 44  1  0  0  0
 44113  1  0  0  0
 45 46  2  0  0  0
 45114  1  0  0  0
 46115  1  0  0  0
 47116  1  0  0  0
 47117  1  0  0  0
 48 56  1  0  0  0
 48 65  1  0  0  0
 48118  1  0  0  0
 49 50  1  0  0  0
 49 53  1  0  0  0
 49 64  1  0  0  0
 49119  1  0  0  0
 50 51  1  0  0  0
 50120  1  0  0  0
 50121  1  0  0  0
 51 52  1  0  0  0
 51122  1  0  0  0
 51123  1  0  0  0
 52124  1  0  0  0
 52125  1  0  0  0
 53 54  1  0  0  0
 54 55  2  0  0  0
 54126  1  0  0  0
 55 57  1  0  0  0
 55127  1  0  0  0
 56 69  2  0  0  0
 57 58  2  0  0  0
 57128  1  0  0  0
 58129  1  0  0  0
 59 60  1  0  0  0
 59 61  1  0  0  0
 59 62  1  0  0  0
 60130  1  0  0  0
 60131  1  0  0  0
 60132  1  0  0  0
 61133  1  0  0  0
 61134  1  0  0  0
 61135  1  0  0  0
 62136  1  0  0  0
 62137  1  0  0  0
 62138  1  0  0  0
 63 65  1  0  0  0
 63139  1  0  0  0
 63140  1  0  0  0
 63141  1  0  0  0
 64142  1  0  0  0
 65143  1  0  0  0
 68 80  1  0  0  0
 71 72  1  0  0  0
 71 74  2  0  0  0
 71144  1  0  0  0
 72 73  2  0  0  0
 72 77  1  0  0  0
 73 78  1  0  0  0
 73 84  1  0  0  0
 74 82  1  0  0  0
 74 84  1  0  0  0
 75 79  1  0  0  0
 75145  1  0  0  0
 75146  1  0  0  0
 75147  1  0  0  0
 76148  1  0  0  0
 76149  1  0  0  0
 76150  1  0  0  0
 76 81  1  0  0  0
 77 83  1  0  0  0
 77151  1  0  0  0
 77152  1  0  0  0
 78 79  1  0  0  0
 78153  1  0  0  0
 78154  1  0  0  0
 79155  1  0  0  0
 79156  1  0  0  0
 80 81  1  0  0  0
 80157  1  0  0  0
 80158  1  0  0  0
 81 83  1  0  0  0
 81159  1  0  0  0
 82160  1  0  0  0
 83161  1  0  0  0
 83162  1  0  0  0
M  CHG  1  83   1
M  ISO  4   1 100  68 101  80 101  82 100
M  END
> <chiral flag>
0

> <version>
0

> <s_m_source_file>
/data/baiqing/PycharmProjects/Reinvent-master-3.2/result/LINK_invent/BTK/process_docking_weight1_custom_sum_contain_oxygen_bond_distance_aromatic_linkinvent_7_9_3/rearranged_h_0014.sdf

> <i_m_source_file_index>
93

> <r_mmod_Potential_Energy-OPLS-2005>
27.2738609313965

> <r_mmod_Stretch_Energy-OPLS-2005>
131.706726074219

> <r_mmod_Bend_Energy-OPLS-2005>
184.205459594727

> <r_mmod_Torsional_Energy-OPLS-2005>
234.441177368164

> <r_mmod_Improper_Torsional_Energy-OPLS-2005>
5.88146257400513

> <r_mmod_Van_der_Waal_Energy-OPLS-2005>
104.512718200684

> <r_mmod_Electrostatic_Energy-OPLS-2005>
-261.575347900391

> <r_mmod_Solvation_Energy-OPLS-2005>
-456.623992919922

> <b_mmod_Minimization_Converged-OPLS-2005>
0

> <r_mmod_RMS_Derivative-OPLS-2005>
4.27939701080322

$$$$
93
                    3D
 Structure written by MMmdl.
160168  0  0  1  0            999 V2000
  -30.5981  -14.7380   20.4392 C   0  0  0  0  0  0
  -30.4288  -12.4434   19.4647 C   0  0  0  0  0  0
  -29.5053  -12.4910   18.2299 C   0  0  0  0  0  0
  -28.0310  -12.3249   18.6434 C   0  0  0  0  0  0
  -27.6384  -13.2262   19.8486 C   0  0  2  0  0  0
  -28.6853  -13.1563   20.9809 C   0  0  0  0  0  0
  -25.2504  -13.8191   20.5681 C   0  0  0  0  0  0
  -24.1804  -13.0437   20.9238 C   0  0  0  0  0  0
  -24.6367  -11.6910   20.8741 C   0  0  0  0  0  0
  -23.9022  -10.4280   21.0374 C   0  0  0  0  0  0
  -24.3600   -9.4216   21.9159 C   0  0  0  0  0  0
  -23.6299   -8.2237   22.0726 C   0  0  0  0  0  0
  -22.4289   -8.0249   21.3519 C   0  0  0  0  0  0
  -21.9894   -9.0197   20.4613 C   0  0  0  0  0  0
  -22.7185  -10.2096   20.3026 C   0  0  0  0  0  0
  -21.6857   -6.0716   22.5266 C   0  0  0  0  0  0
  -21.4008   -6.5621   23.8202 C   0  0  0  0  0  0
  -21.3677   -5.6775   24.9166 C   0  0  0  0  0  0
  -21.6058   -4.3040   24.7215 C   0  0  0  0  0  0
  -21.8836   -3.8125   23.4338 C   0  0  0  0  0  0
  -21.9209   -4.6946   22.3397 C   0  0  0  0  0  0
  -22.7840  -13.5246   21.1871 C   0  0  0  0  0  0
  -22.1666   -4.2134   21.0976 F   0  0  0  0  0  0
  -21.5647   -3.4530   25.7736 F   0  0  0  0  0  0
  -29.9791  -13.5090   20.3874 N   0  0  0  0  0  0
  -26.2923  -12.9369   20.3282 N   0  0  0  0  0  0
  -25.9319  -11.6529   20.5772 N   0  0  0  0  0  0
  -22.0472  -12.8244   22.0426 N   0  0  0  0  0  0
  -25.4128  -15.1904   20.4038 N   0  0  0  0  0  0
  -31.7945  -14.8242   20.1511 O   0  0  0  0  0  0
  -21.6666   -6.8842   21.4223 O   0  0  0  0  0  0
  -22.3518  -14.5508   20.6645 O   0  0  0  0  0  0
  -24.6311  -31.8558   23.1997 C   0  0  0  0  0  0
  -25.9157  -32.4749   23.8321 C   0  0  1  0  0  0
  -27.2043  -27.2906   20.0889 C   0  0  0  0  0  0
  -25.5977  -33.8556   24.2253 N   0  0  0  0  0  0
  -23.4198  -30.4788   21.5516 C   0  0  2  0  0  0
  -24.8568  -28.9229   20.1143 C   0  0  0  0  0  0
  -22.7468  -29.4605   22.5022 C   0  0  0  0  0  0
  -18.0263  -28.1352   22.8473 C   0  0  0  0  0  0
  -24.1483  -36.7263   23.2642 C   0  0  0  0  0  0
  -25.9635  -30.7757   21.3673 C   0  0  0  0  0  0
  -26.0322  -29.4009   20.7084 C   0  0  0  0  0  0
  -27.2146  -28.5977   20.6790 C   0  0  0  0  0  0
  -26.0049  -26.8629   19.4914 C   0  0  0  0  0  0
  -24.8452  -27.6615   19.5003 C   0  0  0  0  0  0
  -23.6251  -29.8029   20.1710 C   0  0  0  0  0  0
  -25.4111  -36.3049   24.0320 C   0  0  1  0  0  0
  -20.5860  -28.3645   23.1292 C   0  0  2  0  0  0
  -20.6768  -26.9377   22.5411 C   0  0  0  0  0  0
  -19.5754  -26.6370   21.5198 C   0  0  0  0  0  0
  -18.1920  -26.7915   22.1590 C   0  0  0  0  0  0
  -19.1515  -28.8824   23.2875 C   0  0  0  0  0  0
  -18.9439  -30.1450   23.8850 C   0  0  0  0  0  0
  -17.6441  -30.6578   24.0522 C   0  0  0  0  0  0
  -25.9058  -34.9428   23.5080 C   0  0  0  0  0  0
  -16.5327  -29.9043   23.6352 C   0  0  0  0  0  0
  -16.7259  -28.6454   23.0388 C   0  0  0  0  0  0
  -26.4542  -31.6567   25.0690 C   0  0  0  0  0  0
  -25.3752  -31.3721   26.1384 C   0  0  0  0  0  0
  -27.0400  -30.2983   24.6181 C   0  0  0  0  0  0
  -27.6111  -32.4311   25.7437 C   0  0  0  0  0  0
  -27.5565  -37.1773   24.8455 C   0  0  0  0  0  0
  -21.4186  -29.2999   22.3715 N   0  0  0  0  0  0
  -26.4277  -37.3746   23.9411 N   0  0  0  0  0  0
  -24.6918  -31.0534   22.0983 N   0  0  0  0  0  0
  -23.4189  -28.8164   23.3116 O   0  0  0  0  0  0
  -28.3151  -26.4346   20.0401 O   0  0  0  0  0  0
  -26.5623  -34.8907   22.4638 O   0  0  0  0  0  0
  -23.5468  -32.1367   23.7331 O   0  0  0  0  0  0
  -31.4096  -17.6857   21.1308 C   0  0  0  0  0  0
  -29.5691  -19.8388   20.5114 C   0  0  0  0  0  0
  -30.1372  -17.3179   20.6550 C   0  0  0  0  0  0
  -31.7544  -19.0330   21.3647 C   0  0  0  0  0  0
  -29.2268  -18.4198   20.3529 C   0  0  0  0  0  0
  -30.8576  -20.0865   21.0710 C   0  0  0  0  0  0
  -28.9565  -24.0947   18.1692 C   0  0  0  0  0  0
  -33.3930  -18.6814   23.0599 C   0  0  0  0  0  0
  -28.5720  -21.0520   20.1194 C   0  0  0  0  0  0
  -28.1695  -25.0179   20.4883 C   0  0  0  0  0  0
  -28.3022  -23.7167   19.5300 C   0  0  2  0  0  0
  -29.7963  -15.8682   20.5530 N   0  0  0  0  0  0
  -29.0457  -22.5212   20.1689 N   0  3  0  0  0  0
  -32.9918  -19.3605   21.8721 O   0  0  0  0  0  0
  -27.6477  -18.0007   19.7893 Cl  0  0  0  0  0  0
  -31.4169  -21.6700   21.5052 Cl  0  0  0  0  0  0
  -31.4687  -12.5660   19.1566 H   0  0  0  0  0  0
  -30.3701  -11.4649   19.9487 H   0  0  0  0  0  0
  -29.7848  -11.7131   17.5193 H   0  0  0  0  0  0
  -29.6377  -13.4405   17.7082 H   0  0  0  0  0  0
  -27.8841  -11.2726   18.8950 H   0  0  0  0  0  0
  -27.3736  -12.5201   17.7931 H   0  0  0  0  0  0
  -27.6286  -14.2502   19.4751 H   0  0  0  0  0  0
  -28.7236  -12.1538   21.4084 H   0  0  0  0  0  0
  -28.4262  -13.8363   21.7966 H   0  0  0  0  0  0
  -25.2717   -9.5764   22.4755 H   0  0  0  0  0  0
  -24.0015   -7.4654   22.7457 H   0  0  0  0  0  0
  -21.0820   -8.8657   19.8952 H   0  0  0  0  0  0
  -22.3551  -10.9624   19.6157 H   0  0  0  0  0  0
  -21.1957   -7.6114   23.9711 H   0  0  0  0  0  0
  -21.1503   -6.0488   25.9067 H   0  0  0  0  0  0
  -22.0608   -2.7591   23.2843 H   0  0  0  0  0  0
  -22.4037  -11.9909   22.4863 H   0  0  0  0  0  0
  -21.1074  -13.1242   22.2552 H   0  0  0  0  0  0
  -24.6228  -15.8216   20.4764 H   0  0  0  0  0  0
  -26.2343  -15.6404   20.0226 H   0  0  0  0  0  0
  -26.7201  -32.5392   23.1041 H   0  0  0  0  0  0
  -25.0178  -33.9713   25.0433 H   0  0  0  0  0  0
  -22.7124  -31.2992   21.4082 H   0  0  0  0  0  0
  -23.3766  -35.9577   23.3271 H   0  0  0  0  0  0
  -24.3547  -36.8929   22.2057 H   0  0  0  0  0  0
  -23.7218  -37.6447   23.6696 H   0  0  0  0  0  0
  -26.0875  -31.5378   20.5962 H   0  0  0  0  0  0
  -26.8488  -30.8299   21.9908 H   0  0  0  0  0  0
  -28.1244  -28.9685   21.1270 H   0  0  0  0  0  0
  -25.9531  -25.8987   19.0072 H   0  0  0  0  0  0
  -23.9401  -27.2912   19.0396 H   0  0  0  0  0  0
  -23.7195  -30.5709   19.4038 H   0  0  0  0  0  0
  -22.7446  -29.2212   19.8902 H   0  0  0  0  0  0
  -25.1299  -36.1879   25.0818 H   0  0  0  0  0  0
  -20.9912  -28.3202   24.1428 H   0  0  0  0  0  0
  -20.5677  -26.2250   23.3608 H   0  0  0  0  0  0
  -21.6644  -26.7439   22.1176 H   0  0  0  0  0  0
  -19.6933  -25.6292   21.1229 H   0  0  0  0  0  0
  -19.6716  -27.3177   20.6731 H   0  0  0  0  0  0
  -17.4229  -26.6688   21.3972 H   0  0  0  0  0  0
  -18.0273  -26.0033   22.8934 H   0  0  0  0  0  0
  -19.7921  -30.7290   24.2182 H   0  0  0  0  0  0
  -17.4988  -31.6266   24.5096 H   0  0  0  0  0  0
  -15.5332  -30.2924   23.7735 H   0  0  0  0  0  0
  -15.8635  -28.0760   22.7160 H   0  0  0  0  0  0
  -24.5974  -30.7023   25.7686 H   0  0  0  0  0  0
  -24.8888  -32.2891   26.4728 H   0  0  0  0  0  0
  -25.8037  -30.8940   27.0197 H   0  0  0  0  0  0
  -26.2980  -29.6689   24.1244 H   0  0  0  0  0  0
  -27.4129  -29.7275   25.4703 H   0  0  0  0  0  0
  -27.8839  -30.4243   23.9385 H   0  0  0  0  0  0
  -27.2773  -33.3665   26.1924 H   0  0  0  0  0  0
  -28.3966  -32.6772   25.0283 H   0  0  0  0  0  0
  -28.0731  -31.8479   26.5402 H   0  0  0  0  0  0
  -28.2574  -38.0080   24.7523 H   0  0  0  0  0  0
  -28.1084  -36.2613   24.6269 H   0  0  0  0  0  0
  -27.2269  -37.1384   25.8854 H   0  0  0  0  0  0
  -20.9392  -29.8667   21.6856 H   0  0  0  0  0  0
  -26.0152  -38.2832   24.1423 H   0  0  0  0  0  0
  -32.1439  -16.9283   21.3626 H   0  0  0  0  0  0
  -28.3352  -24.7915   17.5985 H   0  0  0  0  0  0
  -29.1056  -23.2215   17.5272 H   0  0  0  0  0  0
  -29.9275  -24.5780   18.3052 H   0  0  0  0  0  0
  -33.2985  -19.3614   23.9079 H   0  0  0  0  0  0
  -34.4458  -18.4067   22.9774 H   0  0  0  0  0  0
  -32.8264  -17.7798   23.3015 H   0  0  0  0  0  0
  -27.7139  -20.9867   20.7892 H   0  0  0  0  0  0
  -28.1711  -20.8497   19.1240 H   0  0  0  0  0  0
  -28.9510  -24.9235   21.2419 H   0  0  0  0  0  0
  -27.2461  -24.9211   21.0626 H   0  0  0  0  0  0
  -27.2874  -23.3769   19.3063 H   0  0  0  0  0  0
  -28.8077  -15.6718   20.5530 H   0  0  0  0  0  0
  -29.9830  -22.5309   19.7963 H   0  0  0  0  0  0
  -29.1674  -22.7292   21.1489 H   0  0  0  0  0  0
  1 25  1  0  0  0
  1 30  2  0  0  0
  1 82  1  0  0  0
  2  3  1  0  0  0
  2 25  1  0  0  0
  2 87  1  0  0  0
  2 88  1  0  0  0
  3  4  1  0  0  0
  3 89  1  0  0  0
  3 90  1  0  0  0
  4  5  1  0  0  0
  4 91  1  0  0  0
  4 92  1  0  0  0
  5  6  1  0  0  0
  5 26  1  0  0  0
  5 93  1  0  0  0
  6 25  1  0  0  0
  6 94  1  0  0  0
  6 95  1  0  0  0
  7  8  2  0  0  0
  7 26  1  0  0  0
  7 29  1  0  0  0
  8  9  1  0  0  0
  8 22  1  0  0  0
  9 10  1  0  0  0
  9 27  2  0  0  0
 10 11  2  0  0  0
 10 15  1  0  0  0
 11 12  1  0  0  0
 11 96  1  0  0  0
 12 13  2  0  0  0
 12 97  1  0  0  0
 13 14  1  0  0  0
 13 31  1  0  0  0
 14 15  2  0  0  0
 14 98  1  0  0  0
 15 99  1  0  0  0
 16 17  2  0  0  0
 16 21  1  0  0  0
 16 31  1  0  0  0
 17 18  1  0  0  0
 17100  1  0  0  0
 18 19  2  0  0  0
 18101  1  0  0  0
 19 20  1  0  0  0
 19 24  1  0  0  0
 20 21  2  0  0  0
 20102  1  0  0  0
 21 23  1  0  0  0
 22 28  1  0  0  0
 22 32  2  0  0  0
 26 27  1  0  0  0
 28103  1  0  0  0
 28104  1  0  0  0
 29105  1  0  0  0
 29106  1  0  0  0
 33 34  1  0  0  0
 33 66  1  0  0  0
 33 70  2  0  0  0
 34 36  1  0  0  0
 34 59  1  0  0  0
 34107  1  0  0  0
 35 44  2  0  0  0
 35 45  1  0  0  0
 35 68  1  0  0  0
 36 56  1  0  0  0
 36108  1  0  0  0
 37 39  1  0  0  0
 37 47  1  0  0  0
 37 66  1  0  0  0
 37109  1  0  0  0
 38 43  2  0  0  0
 38 46  1  0  0  0
 38 47  1  0  0  0
 39 64  1  0  0  0
 39 67  2  0  0  0
 40 52  1  0  0  0
 40 53  2  0  0  0
 40 58  1  0  0  0
 41110  1  0  0  0
 41111  1  0  0  0
 41112  1  0  0  0
 41 48  1  0  0  0
 42 43  1  0  0  0
 42 66  1  0  0  0
 42113  1  0  0  0
 42114  1  0  0  0
 43 44  1  0  0  0
 44115  1  0  0  0
 45 46  2  0  0  0
 45116  1  0  0  0
 46117  1  0  0  0
 47118  1  0  0  0
 47119  1  0  0  0
 48 56  1  0  0  0
 48 65  1  0  0  0
 48120  1  0  0  0
 49 50  1  0  0  0
 49 53  1  0  0  0
 49 64  1  0  0  0
 49121  1  0  0  0
 50 51  1  0  0  0
 50122  1  0  0  0
 50123  1  0  0  0
 51 52  1  0  0  0
 51124  1  0  0  0
 51125  1  0  0  0
 52126  1  0  0  0
 52127  1  0  0  0
 53 54  1  0  0  0
 54 55  2  0  0  0
 54128  1  0  0  0
 55 57  1  0  0  0
 55129  1  0  0  0
 56 69  2  0  0  0
 57 58  2  0  0  0
 57130  1  0  0  0
 58131  1  0  0  0
 59 60  1  0  0  0
 59 61  1  0  0  0
 59 62  1  0  0  0
 60132  1  0  0  0
 60133  1  0  0  0
 60134  1  0  0  0
 61135  1  0  0  0
 61136  1  0  0  0
 61137  1  0  0  0
 62138  1  0  0  0
 62139  1  0  0  0
 62140  1  0  0  0
 63 65  1  0  0  0
 63141  1  0  0  0
 63142  1  0  0  0
 63143  1  0  0  0
 64144  1  0  0  0
 65145  1  0  0  0
 68 80  1  0  0  0
 71 73  2  0  0  0
 71 74  1  0  0  0
 71146  1  0  0  0
 72 75  2  0  0  0
 72 76  1  0  0  0
 72 79  1  0  0  0
 73 75  1  0  0  0
 73 82  1  0  0  0
 74 76  2  0  0  0
 74 84  1  0  0  0
 75 85  1  0  0  0
 76 86  1  0  0  0
 77147  1  0  0  0
 77148  1  0  0  0
 77149  1  0  0  0
 77 81  1  0  0  0
 78 84  1  0  0  0
 78150  1  0  0  0
 78151  1  0  0  0
 78152  1  0  0  0
 79 83  1  0  0  0
 79153  1  0  0  0
 79154  1  0  0  0
 80 81  1  0  0  0
 80155  1  0  0  0
 80156  1  0  0  0
 81 83  1  0  0  0
 81157  1  0  0  0
 82158  1  0  0  0
 83159  1  0  0  0
 83160  1  0  0  0
M  CHG  1  83   1
M  ISO  4   1 100  68 101  80 101  82 100
M  END
> <chiral flag>
0

> <version>
0

> <s_m_source_file>
/data/baiqing/PycharmProjects/Reinvent-master-3.2/result/LINK_invent/BTK/process_docking_weight1_custom_sum_contain_oxygen_bond_distance_aromatic_linkinvent_7_9_3/rearranged_h_0014.sdf

> <i_m_source_file_index>
94

> <r_mmod_Potential_Energy-OPLS-2005>
35.8705406188965

> <r_mmod_Stretch_Energy-OPLS-2005>
128.918380737305

> <r_mmod_Bend_Energy-OPLS-2005>
173.302673339844

> <r_mmod_Torsional_Energy-OPLS-2005>
276.297180175781

> <r_mmod_Improper_Torsional_Energy-OPLS-2005>
6.60707950592041

> <r_mmod_Van_der_Waal_Energy-OPLS-2005>
149.377975463867

> <r_mmod_Electrostatic_Energy-OPLS-2005>
-328.902893066406

> <r_mmod_Solvation_Energy-OPLS-2005>
-444.347747802734

> <b_mmod_Minimization_Converged-OPLS-2005>
0

> <r_mmod_RMS_Derivative-OPLS-2005>
5.53190088272095

$$$$
94
                    3D
 Structure written by MMmdl.
178186  0  0  1  0            999 V2000
  -30.6291  -14.8063   20.3971 C   0  0  0  0  0  0
  -30.4467  -12.4858   19.4658 C   0  0  0  0  0  0
  -29.5122  -12.4694   18.2358 C   0  0  0  0  0  0
  -28.0522  -12.2423   18.6712 C   0  0  0  0  0  0
  -27.6382  -13.1793   19.8295 C   0  0  2  0  0  0
  -28.6962  -13.2292   20.9592 C   0  0  0  0  0  0
  -25.2480  -13.7949   20.5753 C   0  0  0  0  0  0
  -24.1761  -13.0275   20.9256 C   0  0  0  0  0  0
  -24.6340  -11.6781   20.8800 C   0  0  0  0  0  0
  -23.9015  -10.4213   21.0453 C   0  0  0  0  0  0
  -24.3586   -9.4145   21.9216 C   0  0  0  0  0  0
  -23.6261   -8.2193   22.0759 C   0  0  0  0  0  0
  -22.4244   -8.0247   21.3550 C   0  0  0  0  0  0
  -21.9871   -9.0221   20.4654 C   0  0  0  0  0  0
  -22.7199  -10.2097   20.3075 C   0  0  0  0  0  0
  -21.6843   -6.0713   22.5277 C   0  0  0  0  0  0
  -21.4002   -6.5625   23.8201 C   0  0  0  0  0  0
  -21.3648   -5.6778   24.9171 C   0  0  0  0  0  0
  -21.6029   -4.3039   24.7228 C   0  0  0  0  0  0
  -21.8838   -3.8130   23.4357 C   0  0  0  0  0  0
  -21.9191   -4.6943   22.3410 C   0  0  0  0  0  0
  -22.7810  -13.5146   21.1903 C   0  0  0  0  0  0
  -22.1662   -4.2119   21.0992 F   0  0  0  0  0  0
  -21.5633   -3.4531   25.7755 F   0  0  0  0  0  0
  -29.9928  -13.5797   20.3578 N   0  0  0  0  0  0
  -26.2919  -12.9142   20.3257 N   0  0  0  0  0  0
  -25.9256  -11.6347   20.5790 N   0  0  0  0  0  0
  -22.0428  -12.8148   22.0450 N   0  0  0  0  0  0
  -25.3857  -15.1655   20.4295 N   0  0  0  0  0  0
  -31.8341  -14.8629   20.1350 O   0  0  0  0  0  0
  -21.6608   -6.8854   21.4240 O   0  0  0  0  0  0
  -22.3549  -14.5467   20.6731 O   0  0  0  0  0  0
  -24.6321  -31.8578   23.2011 C   0  0  0  0  0  0
  -25.9143  -32.4766   23.8366 C   0  0  1  0  0  0
  -27.2214  -27.2715   20.1275 C   0  0  0  0  0  0
  -25.5930  -33.8565   24.2302 N   0  0  0  0  0  0
  -23.4254  -30.4825   21.5462 C   0  0  2  0  0  0
  -24.8710  -28.9237   20.1209 C   0  0  0  0  0  0
  -22.7494  -29.4642   22.4953 C   0  0  0  0  0  0
  -18.0288  -28.1368   22.8498 C   0  0  0  0  0  0
  -24.1463  -36.7285   23.2644 C   0  0  0  0  0  0
  -25.9697  -30.7712   21.3774 C   0  0  0  0  0  0
  -26.0431  -29.3920   20.7267 C   0  0  0  0  0  0
  -27.2235  -28.5809   20.7146 C   0  0  0  0  0  0
  -26.0301  -26.8766   19.4850 C   0  0  0  0  0  0
  -24.8689  -27.6732   19.4854 C   0  0  0  0  0  0
  -23.6424  -29.8116   20.1656 C   0  0  0  0  0  0
  -25.4085  -36.3087   24.0357 C   0  0  1  0  0  0
  -20.5884  -28.3695   23.1282 C   0  0  2  0  0  0
  -20.6756  -26.9403   22.5424 C   0  0  0  0  0  0
  -19.5731  -26.6376   21.5218 C   0  0  0  0  0  0
  -18.1923  -26.7913   22.1644 C   0  0  0  0  0  0
  -19.1540  -28.8847   23.2886 C   0  0  0  0  0  0
  -18.9457  -30.1444   23.8905 C   0  0  0  0  0  0
  -17.6455  -30.6577   24.0557 C   0  0  0  0  0  0
  -25.9028  -34.9457   23.5128 C   0  0  0  0  0  0
  -16.5349  -29.9066   23.6324 C   0  0  0  0  0  0
  -16.7277  -28.6472   23.0363 C   0  0  0  0  0  0
  -26.4493  -31.6585   25.0753 C   0  0  0  0  0  0
  -25.3714  -31.3732   26.1475 C   0  0  0  0  0  0
  -27.0345  -30.3022   24.6213 C   0  0  0  0  0  0
  -27.6056  -32.4307   25.7511 C   0  0  0  0  0  0
  -27.5574  -37.1800   24.8479 C   0  0  0  0  0  0
  -21.4203  -29.3062   22.3688 N   0  0  0  0  0  0
  -26.4274  -37.3787   23.9430 N   0  0  0  0  0  0
  -24.6950  -31.0549   22.0984 N   0  0  0  0  0  0
  -23.4203  -28.8189   23.3056 O   0  0  0  0  0  0
  -28.3403  -26.4111   20.0879 O   0  0  0  0  0  0
  -26.5593  -34.8929   22.4694 O   0  0  0  0  0  0
  -23.5478  -32.1397   23.7334 O   0  0  0  0  0  0
  -31.2748  -17.9740   20.3689 C   0  0  0  0  0  0
  -31.1159  -19.3860   20.1093 C   0  0  0  0  0  0
  -29.7544  -19.6809   20.0742 C   0  0  0  0  0  0
  -30.0677  -17.3452   20.3075 C   0  0  0  0  0  0
  -26.9303  -23.2259   19.4916 C   0  0  0  0  0  0
  -32.0168  -21.7476   19.5540 C   0  0  0  0  0  0
  -33.1191  -19.7234   18.6609 C   0  0  0  0  0  0
  -33.2352  -20.2522   21.1226 C   0  0  0  0  0  0
  -26.8412  -18.1834   20.8905 C   0  0  0  0  0  0
  -27.5285  -16.8155   18.8988 C   0  0  0  0  0  0
  -27.1186  -19.1488   18.5470 C   0  0  0  0  0  0
  -28.9281  -21.0356   19.8677 C   0  0  0  0  0  0
  -28.3275  -25.0423   20.7162 C   0  0  0  0  0  0
  -28.3714  -23.6364   19.8845 C   0  0  2  0  0  0
  -32.3413  -20.2787   19.8724 C   0  0  0  0  0  0
  -27.6878  -18.1608   19.6063 C   0  0  0  0  0  0
  -29.1223  -18.3839   19.9739 N   0  0  0  0  0  0
  -29.8451  -15.9561   20.5030 N   0  0  0  0  0  0
  -29.1292  -22.4212   20.5013 N   0  3  0  0  0  0
  -31.4808  -12.6185   19.1431 H   0  0  0  0  0  0
  -30.4189  -11.5304   19.9936 H   0  0  0  0  0  0
  -29.8202  -11.6854   17.5413 H   0  0  0  0  0  0
  -29.5931  -13.4099   17.6892 H   0  0  0  0  0  0
  -27.9579  -11.2013   18.9845 H   0  0  0  0  0  0
  -27.3792  -12.3652   17.8209 H   0  0  0  0  0  0
  -27.5937  -14.1285   19.3278 H   0  0  0  0  0  0
  -28.7702  -12.2685   21.4689 H   0  0  0  0  0  0
  -28.4174  -13.9600   21.7199 H   0  0  0  0  0  0
  -25.2760   -9.5606   22.4759 H   0  0  0  0  0  0
  -23.9965   -7.4582   22.7470 H   0  0  0  0  0  0
  -21.0793   -8.8748   19.8970 H   0  0  0  0  0  0
  -22.3689  -10.9638   19.6161 H   0  0  0  0  0  0
  -21.1985   -7.6125   23.9694 H   0  0  0  0  0  0
  -21.1441   -6.0510   25.9062 H   0  0  0  0  0  0
  -22.0629   -2.7585   23.2872 H   0  0  0  0  0  0
  -22.4031  -11.9813   22.4850 H   0  0  0  0  0  0
  -21.1049  -13.1189   22.2645 H   0  0  0  0  0  0
  -24.5836  -15.7769   20.5320 H   0  0  0  0  0  0
  -26.1917  -15.6367   20.0473 H   0  0  0  0  0  0
  -26.7196  -32.5447   23.1104 H   0  0  0  0  0  0
  -25.0095  -33.9676   25.0458 H   0  0  0  0  0  0
  -22.7238  -31.3074   21.4010 H   0  0  0  0  0  0
  -23.3738  -35.9609   23.3325 H   0  0  0  0  0  0
  -24.3557  -36.8878   22.2058 H   0  0  0  0  0  0
  -23.7193  -37.6493   23.6626 H   0  0  0  0  0  0
  -26.1006  -31.5240   20.6001 H   0  0  0  0  0  0
  -26.8502  -30.8272   22.0057 H   0  0  0  0  0  0
  -28.1288  -28.9445   21.1805 H   0  0  0  0  0  0
  -25.9823  -25.9525   18.9420 H   0  0  0  0  0  0
  -23.9779  -27.3196   18.9834 H   0  0  0  0  0  0
  -23.7705  -30.5828   19.4057 H   0  0  0  0  0  0
  -22.7578  -29.2474   19.8608 H   0  0  0  0  0  0
  -25.1250  -36.1961   25.0853 H   0  0  0  0  0  0
  -20.9978  -28.3236   24.1402 H   0  0  0  0  0  0
  -20.5631  -26.2289   23.3625 H   0  0  0  0  0  0
  -21.6625  -26.7401   22.1231 H   0  0  0  0  0  0
  -19.6874  -25.6287   21.1232 H   0  0  0  0  0  0
  -19.6647  -27.3204   20.6758 H   0  0  0  0  0  0
  -17.4193  -26.6686   21.4054 H   0  0  0  0  0  0
  -18.0312  -26.0033   22.9016 H   0  0  0  0  0  0
  -19.7926  -30.7260   24.2288 H   0  0  0  0  0  0
  -17.5005  -31.6269   24.5154 H   0  0  0  0  0  0
  -15.5347  -30.2978   23.7634 H   0  0  0  0  0  0
  -15.8670  -28.0796   22.7077 H   0  0  0  0  0  0
  -24.5903  -30.7039   25.7835 H   0  0  0  0  0  0
  -24.8871  -32.2888   26.4887 H   0  0  0  0  0  0
  -25.8048  -30.8955   27.0269 H   0  0  0  0  0  0
  -26.2941  -29.6779   24.1185 H   0  0  0  0  0  0
  -27.3993  -29.7280   25.4744 H   0  0  0  0  0  0
  -27.8827  -30.4353   23.9487 H   0  0  0  0  0  0
  -27.2685  -33.3619   26.2082 H   0  0  0  0  0  0
  -28.3859  -32.6837   25.0317 H   0  0  0  0  0  0
  -28.0700  -31.8414   26.5433 H   0  0  0  0  0  0
  -28.2605  -38.0084   24.7515 H   0  0  0  0  0  0
  -28.1046  -36.2622   24.6291 H   0  0  0  0  0  0
  -27.2302  -37.1446   25.8884 H   0  0  0  0  0  0
  -20.9398  -29.8791   21.6889 H   0  0  0  0  0  0
  -26.0175  -38.2880   24.1404 H   0  0  0  0  0  0
  -32.2133  -17.4577   20.5162 H   0  0  0  0  0  0
  -26.8894  -22.3600   18.8319 H   0  0  0  0  0  0
  -26.4400  -24.0068   18.9254 H   0  0  0  0  0  0
  -26.3140  -23.0184   20.3687 H   0  0  0  0  0  0
  -31.3289  -21.8393   18.7131 H   0  0  0  0  0  0
  -32.9207  -22.2949   19.2772 H   0  0  0  0  0  0
  -31.6244  -22.2623   20.4264 H   0  0  0  0  0  0
  -32.5036  -19.7290   17.7597 H   0  0  0  0  0  0
  -33.4459  -18.6951   18.8147 H   0  0  0  0  0  0
  -34.0096  -20.3143   18.4473 H   0  0  0  0  0  0
  -32.6822  -20.5888   21.9984 H   0  0  0  0  0  0
  -34.1034  -20.9036   21.0099 H   0  0  0  0  0  0
  -33.6150  -19.2513   21.3305 H   0  0  0  0  0  0
  -25.7918  -18.0130   20.6584 H   0  0  0  0  0  0
  -26.9093  -19.1406   21.4055 H   0  0  0  0  0  0
  -27.1630  -17.4175   21.5994 H   0  0  0  0  0  0
  -26.5497  -16.6606   18.4406 H   0  0  0  0  0  0
  -27.6301  -16.0556   19.6451 H   0  0  0  0  0  0
  -28.2838  -16.6649   18.1262 H   0  0  0  0  0  0
  -26.3632  -18.7001   17.9014 H   0  0  0  0  0  0
  -27.8879  -19.4918   17.8559 H   0  0  0  0  0  0
  -26.5917  -19.9941   18.9858 H   0  0  0  0  0  0
  -28.8506  -21.2043   18.7966 H   0  0  0  0  0  0
  -27.9404  -20.8342   20.2686 H   0  0  0  0  0  0
  -29.2080  -25.0470   21.3571 H   0  0  0  0  0  0
  -27.5051  -25.0031   21.4302 H   0  0  0  0  0  0
  -28.8954  -23.8489   18.9517 H   0  0  0  0  0  0
  -28.8756  -15.7177   20.6372 H   0  0  0  0  0  0
  -30.1165  -22.6218   20.4810 H   0  0  0  0  0  0
  -28.8620  -22.3269   21.4695 H   0  0  0  0  0  0
  1 25  1  0  0  0
  1 30  2  0  0  0
  1 88  1  0  0  0
  2  3  1  0  0  0
  2 25  1  0  0  0
  2 90  1  0  0  0
  2 91  1  0  0  0
  3  4  1  0  0  0
  3 92  1  0  0  0
  3 93  1  0  0  0
  4  5  1  0  0  0
  4 94  1  0  0  0
  4 95  1  0  0  0
  5  6  1  0  0  0
  5 26  1  0  0  0
  5 96  1  0  0  0
  6 25  1  0  0  0
  6 97  1  0  0  0
  6 98  1  0  0  0
  7  8  2  0  0  0
  7 26  1  0  0  0
  7 29  1  0  0  0
  8  9  1  0  0  0
  8 22  1  0  0  0
  9 10  1  0  0  0
  9 27  2  0  0  0
 10 11  2  0  0  0
 10 15  1  0  0  0
 11 12  1  0  0  0
 11 99  1  0  0  0
 12 13  2  0  0  0
 12100  1  0  0  0
 13 14  1  0  0  0
 13 31  1  0  0  0
 14 15  2  0  0  0
 14101  1  0  0  0
 15102  1  0  0  0
 16 17  2  0  0  0
 16 21  1  0  0  0
 16 31  1  0  0  0
 17 18  1  0  0  0
 17103  1  0  0  0
 18 19  2  0  0  0
 18104  1  0  0  0
 19 20  1  0  0  0
 19 24  1  0  0  0
 20 21  2  0  0  0
 20105  1  0  0  0
 21 23  1  0  0  0
 22 28  1  0  0  0
 22 32  2  0  0  0
 26 27  1  0  0  0
 28106  1  0  0  0
 28107  1  0  0  0
 29108  1  0  0  0
 29109  1  0  0  0
 33 34  1  0  0  0
 33 66  1  0  0  0
 33 70  2  0  0  0
 34 36  1  0  0  0
 34 59  1  0  0  0
 34110  1  0  0  0
 35 44  2  0  0  0
 35 45  1  0  0  0
 35 68  1  0  0  0
 36 56  1  0  0  0
 36111  1  0  0  0
 37 39  1  0  0  0
 37 47  1  0  0  0
 37 66  1  0  0  0
 37112  1  0  0  0
 38 43  2  0  0  0
 38 46  1  0  0  0
 38 47  1  0  0  0
 39 64  1  0  0  0
 39 67  2  0  0  0
 40 52  1  0  0  0
 40 53  2  0  0  0
 40 58  1  0  0  0
 41113  1  0  0  0
 41114  1  0  0  0
 41115  1  0  0  0
 41 48  1  0  0  0
 42 43  1  0  0  0
 42 66  1  0  0  0
 42116  1  0  0  0
 42117  1  0  0  0
 43 44  1  0  0  0
 44118  1  0  0  0
 45 46  2  0  0  0
 45119  1  0  0  0
 46120  1  0  0  0
 47121  1  0  0  0
 47122  1  0  0  0
 48 56  1  0  0  0
 48 65  1  0  0  0
 48123  1  0  0  0
 49 50  1  0  0  0
 49 53  1  0  0  0
 49 64  1  0  0  0
 49124  1  0  0  0
 50 51  1  0  0  0
 50125  1  0  0  0
 50126  1  0  0  0
 51 52  1  0  0  0
 51127  1  0  0  0
 51128  1  0  0  0
 52129  1  0  0  0
 52130  1  0  0  0
 53 54  1  0  0  0
 54 55  2  0  0  0
 54131  1  0  0  0
 55 57  1  0  0  0
 55132  1  0  0  0
 56 69  2  0  0  0
 57 58  2  0  0  0
 57133  1  0  0  0
 58134  1  0  0  0
 59 60  1  0  0  0
 59 61  1  0  0  0
 59 62  1  0  0  0
 60135  1  0  0  0
 60136  1  0  0  0
 60137  1  0  0  0
 61138  1  0  0  0
 61139  1  0  0  0
 61140  1  0  0  0
 62141  1  0  0  0
 62142  1  0  0  0
 62143  1  0  0  0
 63 65  1  0  0  0
 63144  1  0  0  0
 63145  1  0  0  0
 63146  1  0  0  0
 64147  1  0  0  0
 65148  1  0  0  0
 68 83  1  0  0  0
 71 72  1  0  0  0
 71 74  2  0  0  0
 71149  1  0  0  0
 72 73  2  0  0  0
 72 85  1  0  0  0
 73 82  1  0  0  0
 73 87  1  0  0  0
 74 87  1  0  0  0
 74 88  1  0  0  0
 75150  1  0  0  0
 75151  1  0  0  0
 75152  1  0  0  0
 75 84  1  0  0  0
 76153  1  0  0  0
 76154  1  0  0  0
 76155  1  0  0  0
 76 85  1  0  0  0
 77 85  1  0  0  0
 77156  1  0  0  0
 77157  1  0  0  0
 77158  1  0  0  0
 78 85  1  0  0  0
 78159  1  0  0  0
 78160  1  0  0  0
 78161  1  0  0  0
 79162  1  0  0  0
 79163  1  0  0  0
 79164  1  0  0  0
 79 86  1  0  0  0
 80 86  1  0  0  0
 80165  1  0  0  0
 80166  1  0  0  0
 80167  1  0  0  0
 81 86  1  0  0  0
 81168  1  0  0  0
 81169  1  0  0  0
 81170  1  0  0  0
 82 89  1  0  0  0
 82171  1  0  0  0
 82172  1  0  0  0
 83 84  1  0  0  0
 83173  1  0  0  0
 83174  1  0  0  0
 84 89  1  0  0  0
 84175  1  0  0  0
 86 87  1  0  0  0
 88176  1  0  0  0
 89177  1  0  0  0
 89178  1  0  0  0
M  CHG  1  89   1
M  ISO  4   1 100  68 101  83 101  88 100
M  END
> <chiral flag>
0

> <version>
0

> <s_m_source_file>
/data/baiqing/PycharmProjects/Reinvent-master-3.2/result/LINK_invent/BTK/process_docking_weight1_custom_sum_contain_oxygen_bond_distance_aromatic_linkinvent_7_9_3/rearranged_h_0014.sdf

> <i_m_source_file_index>
95

> <r_mmod_Potential_Energy-OPLS-2005>
206.750122070312

> <r_mmod_Stretch_Energy-OPLS-2005>
145.013412475586

> <r_mmod_Bend_Energy-OPLS-2005>
248.842697143555

> <r_mmod_Torsional_Energy-OPLS-2005>
305.122711181641

> <r_mmod_Improper_Torsional_Energy-OPLS-2005>
6.90870809555054

> <r_mmod_Van_der_Waal_Energy-OPLS-2005>
157.471405029297

> <r_mmod_Electrostatic_Energy-OPLS-2005>
-326.935211181641

> <r_mmod_Solvation_Energy-OPLS-2005>
-429.010375976562

> <b_mmod_Minimization_Converged-OPLS-2005>
0

> <r_mmod_RMS_Derivative-OPLS-2005>
4.04771566390991

$$$$
