0
                    3D
 Structure written by MMmdl.
161169  0  0  1  0            999 V2000
  -30.6836  -14.5641   20.4765 C   0  0  0  0  0  0
  -30.4114  -12.3366   19.4451 C   0  0  0  0  0  0
  -29.4892  -12.4688   18.2154 C   0  0  0  0  0  0
  -28.0136  -12.3118   18.6305 C   0  0  0  0  0  0
  -27.6379  -13.1859   19.8568 C   0  0  2  0  0  0
  -28.6896  -13.0931   20.9848 C   0  0  0  0  0  0
  -25.2541  -13.8071   20.5712 C   0  0  0  0  0  0
  -24.1788  -13.0381   20.9229 C   0  0  0  0  0  0
  -24.6311  -11.6846   20.8759 C   0  0  0  0  0  0
  -23.8973  -10.4262   21.0429 C   0  0  0  0  0  0
  -24.3564   -9.4201   21.9200 C   0  0  0  0  0  0
  -23.6274   -8.2216   22.0755 C   0  0  0  0  0  0
  -22.4249   -8.0255   21.3544 C   0  0  0  0  0  0
  -21.9860   -9.0209   20.4638 C   0  0  0  0  0  0
  -22.7161  -10.2104   20.3068 C   0  0  0  0  0  0
  -21.6837   -6.0729   22.5277 C   0  0  0  0  0  0
  -21.3998   -6.5636   23.8210 C   0  0  0  0  0  0
  -21.3656   -5.6787   24.9167 C   0  0  0  0  0  0
  -21.6056   -4.3060   24.7214 C   0  0  0  0  0  0
  -21.8823   -3.8150   23.4329 C   0  0  0  0  0  0
  -21.9198   -4.6969   22.3393 C   0  0  0  0  0  0
  -22.7843  -13.5228   21.1897 C   0  0  0  0  0  0
  -22.1685   -4.2160   21.0970 F   0  0  0  0  0  0
  -21.5642   -3.4558   25.7739 F   0  0  0  0  0  0
  -30.0058  -13.3812   20.4000 N   0  0  0  0  0  0
  -26.2899  -12.9157   20.3349 N   0  0  0  0  0  0
  -25.9217  -11.6352   20.5771 N   0  0  0  0  0  0
  -22.0481  -12.8204   22.0446 N   0  0  0  0  0  0
  -25.4328  -15.1775   20.4139 N   0  0  0  0  0  0
  -31.8835  -14.6448   20.1974 O   0  0  0  0  0  0
  -21.6629   -6.8848   21.4233 O   0  0  0  0  0  0
  -22.3563  -14.5565   20.6778 O   0  0  0  0  0  0
  -24.6153  -31.8654   23.2046 C   0  0  0  0  0  0
  -25.9030  -32.4818   23.8359 C   0  0  1  0  0  0
  -27.2425  -27.4083   20.1099 C   0  0  0  0  0  0
  -25.5851  -33.8620   24.2267 N   0  0  0  0  0  0
  -23.4080  -30.4842   21.5464 C   0  0  2  0  0  0
  -24.8581  -28.9410   20.1197 C   0  0  0  0  0  0
  -22.7410  -29.4638   22.4972 C   0  0  0  0  0  0
  -18.0262  -28.1386   22.8477 C   0  0  0  0  0  0
  -24.1484  -36.7311   23.2645 C   0  0  0  0  0  0
  -25.9401  -30.8226   21.3643 C   0  0  0  0  0  0
  -26.0202  -29.4561   20.7082 C   0  0  0  0  0  0
  -27.2200  -28.7024   20.6863 C   0  0  0  0  0  0
  -26.0620  -26.9089   19.5224 C   0  0  0  0  0  0
  -24.8758  -27.6692   19.5190 C   0  0  0  0  0  0
  -23.6199  -29.8098   20.1644 C   0  0  0  0  0  0
  -25.4118  -36.3112   24.0322 C   0  0  1  0  0  0
  -20.5851  -28.3671   23.1295 C   0  0  2  0  0  0
  -20.6744  -26.9398   22.5409 C   0  0  0  0  0  0
  -19.5737  -26.6384   21.5194 C   0  0  0  0  0  0
  -18.1919  -26.7928   22.1615 C   0  0  0  0  0  0
  -19.1519  -28.8846   23.2881 C   0  0  0  0  0  0
  -18.9457  -30.1445   23.8904 C   0  0  0  0  0  0
  -17.6462  -30.6593   24.0562 C   0  0  0  0  0  0
  -25.9042  -34.9478   23.5104 C   0  0  0  0  0  0
  -16.5347  -29.9097   23.6325 C   0  0  0  0  0  0
  -16.7256  -28.6515   23.0349 C   0  0  0  0  0  0
  -26.4435  -31.6639   25.0730 C   0  0  0  0  0  0
  -25.3672  -31.3784   26.1461 C   0  0  0  0  0  0
  -27.0260  -30.3064   24.6170 C   0  0  0  0  0  0
  -27.5994  -32.4384   25.7494 C   0  0  0  0  0  0
  -27.5578  -37.1810   24.8459 C   0  0  0  0  0  0
  -21.4140  -29.3031   22.3704 N   0  0  0  0  0  0
  -26.4298  -37.3797   23.9395 N   0  0  0  0  0  0
  -24.6725  -31.0724   22.0967 N   0  0  0  0  0  0
  -23.4165  -28.8186   23.3045 O   0  0  0  0  0  0
  -28.4037  -26.6577   20.0750 O   0  0  0  0  0  0
  -26.5645  -34.8932   22.4697 O   0  0  0  0  0  0
  -23.5330  -32.1416   23.7414 O   0  0  0  0  0  0
  -31.2376  -20.9879   21.7686 C   0  0  0  0  0  0
  -30.8316  -23.3640   21.4631 C   0  0  0  0  0  0
  -31.6055  -22.3253   22.0128 C   0  0  0  0  0  0
  -30.1253  -20.7002   20.9449 C   0  0  0  0  0  0
  -29.7227  -23.0659   20.6392 C   0  0  0  0  0  0
  -29.2269  -16.2114   19.4756 C   0  0  0  0  0  0
  -29.8344  -19.2441   20.5109 C   0  0  0  0  0  0
  -28.9978  -24.2037   19.8796 C   0  0  0  0  0  0
  -29.7076  -18.1601   21.6395 C   0  0  0  0  0  0
  -30.5210  -16.8164   21.4722 C   0  0  0  0  0  0
  -28.3856  -25.3656   20.7328 C   0  0  0  0  0  0
  -29.4131  -21.7476   20.4209 N   0  3  0  0  0  0
  -32.7516  -22.6162   22.7520 N   0  0  0  0  0  0
  -29.9505  -15.7085   20.6525 N   0  0  0  0  0  0
  -31.4571  -12.4239   19.1471 H   0  0  0  0  0  0
  -30.3124  -11.3481   19.8998 H   0  0  0  0  0  0
  -29.7485  -11.7190   17.4664 H   0  0  0  0  0  0
  -29.6358  -13.4359   17.7334 H   0  0  0  0  0  0
  -27.8464  -11.2575   18.8549 H   0  0  0  0  0  0
  -27.3599  -12.5483   17.7903 H   0  0  0  0  0  0
  -27.6141  -14.2045   19.4944 H   0  0  0  0  0  0
  -28.6912  -12.1006   21.4360 H   0  0  0  0  0  0
  -28.4498  -13.7932   21.7869 H   0  0  0  0  0  0
  -25.2713   -9.5745   22.4752 H   0  0  0  0  0  0
  -24.0044   -7.4603   22.7422 H   0  0  0  0  0  0
  -21.0823   -8.8674   19.8895 H   0  0  0  0  0  0
  -22.3592  -10.9641   19.6190 H   0  0  0  0  0  0
  -21.1965   -7.6142   23.9736 H   0  0  0  0  0  0
  -21.1495   -6.0505   25.9075 H   0  0  0  0  0  0
  -22.0604   -2.7618   23.2824 H   0  0  0  0  0  0
  -22.4074  -11.9829   22.4778 H   0  0  0  0  0  0
  -21.1102  -13.1234   22.2643 H   0  0  0  0  0  0
  -24.6784  -15.8456   20.5262 H   0  0  0  0  0  0
  -26.3052  -15.6080   20.1349 H   0  0  0  0  0  0
  -26.7107  -32.5506   23.1120 H   0  0  0  0  0  0
  -24.9893  -33.9784   25.0331 H   0  0  0  0  0  0
  -22.6982  -31.3008   21.4006 H   0  0  0  0  0  0
  -23.3740  -35.9649   23.3342 H   0  0  0  0  0  0
  -24.3554  -36.8908   22.2049 H   0  0  0  0  0  0
  -23.7240  -37.6522   23.6657 H   0  0  0  0  0  0
  -26.0665  -31.5919   20.6013 H   0  0  0  0  0  0
  -26.8199  -30.8658   21.9947 H   0  0  0  0  0  0
  -28.1244  -29.1054   21.1206 H   0  0  0  0  0  0
  -26.0635  -25.9309   19.0626 H   0  0  0  0  0  0
  -23.9841  -27.2665   19.0582 H   0  0  0  0  0  0
  -23.7276  -30.5806   19.4001 H   0  0  0  0  0  0
  -22.7444  -29.2262   19.8702 H   0  0  0  0  0  0
  -25.1308  -36.1976   25.0813 H   0  0  0  0  0  0
  -20.9938  -28.3242   24.1419 H   0  0  0  0  0  0
  -20.5610  -26.2284   23.3608 H   0  0  0  0  0  0
  -21.6624  -26.7418   22.1235 H   0  0  0  0  0  0
  -19.6899  -25.6292   21.1236 H   0  0  0  0  0  0
  -19.6688  -27.3182   20.6720 H   0  0  0  0  0  0
  -17.4173  -26.6635   21.4037 H   0  0  0  0  0  0
  -18.0353  -26.0078   22.9031 H   0  0  0  0  0  0
  -19.7937  -30.7242   24.2288 H   0  0  0  0  0  0
  -17.5031  -31.6282   24.5155 H   0  0  0  0  0  0
  -15.5356  -30.3019   23.7659 H   0  0  0  0  0  0
  -15.8642  -28.0847   22.7072 H   0  0  0  0  0  0
  -24.5797  -30.7206   25.7767 H   0  0  0  0  0  0
  -24.8926  -32.2967   26.4931 H   0  0  0  0  0  0
  -25.7975  -30.8897   27.0209 H   0  0  0  0  0  0
  -26.2834  -29.6869   24.1131 H   0  0  0  0  0  0
  -27.3872  -29.7282   25.4684 H   0  0  0  0  0  0
  -27.8738  -30.4350   23.9439 H   0  0  0  0  0  0
  -27.2580  -33.3650   26.2118 H   0  0  0  0  0  0
  -28.3764  -32.7017   25.0309 H   0  0  0  0  0  0
  -28.0708  -31.8504   26.5373 H   0  0  0  0  0  0
  -28.2618  -38.0086   24.7496 H   0  0  0  0  0  0
  -28.1054  -36.2620   24.6313 H   0  0  0  0  0  0
  -27.2286  -37.1485   25.8859 H   0  0  0  0  0  0
  -20.9307  -29.8750   21.6912 H   0  0  0  0  0  0
  -26.0191  -38.2878   24.1396 H   0  0  0  0  0  0
  -31.8318  -20.1790   22.1680 H   0  0  0  0  0  0
  -31.1186  -24.3924   21.6241 H   0  0  0  0  0  0
  -28.2305  -16.5554   19.7567 H   0  0  0  0  0  0
  -29.7546  -17.0385   19.0050 H   0  0  0  0  0  0
  -29.1142  -15.4716   18.6845 H   0  0  0  0  0  0
  -30.6562  -18.9693   19.8499 H   0  0  0  0  0  0
  -28.9425  -19.2169   19.8837 H   0  0  0  0  0  0
  -28.2285  -23.7858   19.2301 H   0  0  0  0  0  0
  -29.7445  -24.6328   19.2091 H   0  0  0  0  0  0
  -28.6563  -17.9539   21.8370 H   0  0  0  0  0  0
  -30.0664  -18.6098   22.5665 H   0  0  0  0  0  0
  -30.6620  -16.3949   22.4695 H   0  0  0  0  0  0
  -31.5263  -17.0558   21.1225 H   0  0  0  0  0  0
  -28.9862  -25.5039   21.6308 H   0  0  0  0  0  0
  -27.3922  -25.0868   21.0890 H   0  0  0  0  0  0
  -28.6479  -21.5311   19.7788 H   0  0  0  0  0  0
  -33.4600  -21.8917   22.7621 H   0  0  0  0  0  0
  -33.1667  -23.5276   22.5866 H   0  0  0  0  0  0
  1 25  1  0  0  0
  1 30  2  0  0  0
  1 84  1  0  0  0
  2  3  1  0  0  0
  2 25  1  0  0  0
  2 85  1  0  0  0
  2 86  1  0  0  0
  3  4  1  0  0  0
  3 87  1  0  0  0
  3 88  1  0  0  0
  4  5  1  0  0  0
  4 89  1  0  0  0
  4 90  1  0  0  0
  5  6  1  0  0  0
  5 26  1  0  0  0
  5 91  1  0  0  0
  6 25  1  0  0  0
  6 92  1  0  0  0
  6 93  1  0  0  0
  7  8  2  0  0  0
  7 26  1  0  0  0
  7 29  1  0  0  0
  8  9  1  0  0  0
  8 22  1  0  0  0
  9 10  1  0  0  0
  9 27  2  0  0  0
 10 11  2  0  0  0
 10 15  1  0  0  0
 11 12  1  0  0  0
 11 94  1  0  0  0
 12 13  2  0  0  0
 12 95  1  0  0  0
 13 14  1  0  0  0
 13 31  1  0  0  0
 14 15  2  0  0  0
 14 96  1  0  0  0
 15 97  1  0  0  0
 16 17  2  0  0  0
 16 21  1  0  0  0
 16 31  1  0  0  0
 17 18  1  0  0  0
 17 98  1  0  0  0
 18 19  2  0  0  0
 18 99  1  0  0  0
 19 20  1  0  0  0
 19 24  1  0  0  0
 20 21  2  0  0  0
 20100  1  0  0  0
 21 23  1  0  0  0
 22 28  1  0  0  0
 22 32  2  0  0  0
 26 27  1  0  0  0
 28101  1  0  0  0
 28102  1  0  0  0
 29103  1  0  0  0
 29104  1  0  0  0
 33 34  1  0  0  0
 33 66  1  0  0  0
 33 70  2  0  0  0
 34 36  1  0  0  0
 34 59  1  0  0  0
 34105  1  0  0  0
 35 44  2  0  0  0
 35 45  1  0  0  0
 35 68  1  0  0  0
 36 56  1  0  0  0
 36106  1  0  0  0
 37 39  1  0  0  0
 37 47  1  0  0  0
 37 66  1  0  0  0
 37107  1  0  0  0
 38 43  2  0  0  0
 38 46  1  0  0  0
 38 47  1  0  0  0
 39 64  1  0  0  0
 39 67  2  0  0  0
 40 52  1  0  0  0
 40 53  2  0  0  0
 40 58  1  0  0  0
 41108  1  0  0  0
 41109  1  0  0  0
 41110  1  0  0  0
 41 48  1  0  0  0
 42 43  1  0  0  0
 42 66  1  0  0  0
 42111  1  0  0  0
 42112  1  0  0  0
 43 44  1  0  0  0
 44113  1  0  0  0
 45 46  2  0  0  0
 45114  1  0  0  0
 46115  1  0  0  0
 47116  1  0  0  0
 47117  1  0  0  0
 48 56  1  0  0  0
 48 65  1  0  0  0
 48118  1  0  0  0
 49 50  1  0  0  0
 49 53  1  0  0  0
 49 64  1  0  0  0
 49119  1  0  0  0
 50 51  1  0  0  0
 50120  1  0  0  0
 50121  1  0  0  0
 51 52  1  0  0  0
 51122  1  0  0  0
 51123  1  0  0  0
 52124  1  0  0  0
 52125  1  0  0  0
 53 54  1  0  0  0
 54 55  2  0  0  0
 54126  1  0  0  0
 55 57  1  0  0  0
 55127  1  0  0  0
 56 69  2  0  0  0
 57 58  2  0  0  0
 57128  1  0  0  0
 58129  1  0  0  0
 59 60  1  0  0  0
 59 61  1  0  0  0
 59 62  1  0  0  0
 60130  1  0  0  0
 60131  1  0  0  0
 60132  1  0  0  0
 61133  1  0  0  0
 61134  1  0  0  0
 61135  1  0  0  0
 62136  1  0  0  0
 62137  1  0  0  0
 62138  1  0  0  0
 63 65  1  0  0  0
 63139  1  0  0  0
 63140  1  0  0  0
 63141  1  0  0  0
 64142  1  0  0  0
 65143  1  0  0  0
 68 81  1  0  0  0
 71 73  2  0  0  0
 71 74  1  0  0  0
 71144  1  0  0  0
 72 73  1  0  0  0
 72 75  2  0  0  0
 72145  1  0  0  0
 73 83  1  0  0  0
 74 77  1  0  0  0
 74 82  2  0  0  0
 75 78  1  0  0  0
 75 82  1  0  0  0
 76 84  1  0  0  0
 76146  1  0  0  0
 76147  1  0  0  0
 76148  1  0  0  0
 77 79  1  0  0  0
 77149  1  0  0  0
 77150  1  0  0  0
 78 81  1  0  0  0
 78151  1  0  0  0
 78152  1  0  0  0
 79 80  1  0  0  0
 79153  1  0  0  0
 79154  1  0  0  0
 80 84  1  0  0  0
 80155  1  0  0  0
 80156  1  0  0  0
 81157  1  0  0  0
 81158  1  0  0  0
 82159  1  0  0  0
 83160  1  0  0  0
 83161  1  0  0  0
M  CHG  1  82   1
M  ISO  4   1 100  68 101  81 101  84 100
M  END
> <chiral flag>
0

> <version>
0

> <s_m_source_file>
/data/baiqing/PycharmProjects/Reinvent-master-3.2/result/LINK_invent/BTK/process_docking_weight1_custom_sum_contain_oxygen_bond_distance_aromatic_linkinvent_7_9_3/rearranged_h_0051.sdf

> <i_m_source_file_index>
1

> <r_mmod_Potential_Energy-OPLS-2005>
110.12126159668

> <r_mmod_Stretch_Energy-OPLS-2005>
52.7926788330078

> <r_mmod_Bend_Energy-OPLS-2005>
119.987167358398

> <r_mmod_Torsional_Energy-OPLS-2005>
340.400177001953

> <r_mmod_Improper_Torsional_Energy-OPLS-2005>
14.1076574325562

> <r_mmod_Van_der_Waal_Energy-OPLS-2005>
150.202499389648

> <r_mmod_Electrostatic_Energy-OPLS-2005>
-177.991424560547

> <r_mmod_Solvation_Energy-OPLS-2005>
-418.610931396484

> <b_mmod_Minimization_Converged-OPLS-2005>
0

> <r_mmod_RMS_Derivative-OPLS-2005>
3.01773571968079

$$$$
1
                    3D
 Structure written by MMmdl.
157165  0  0  1  0            999 V2000
  -30.6983  -14.6621   20.3577 C   0  0  0  0  0  0
  -30.4192  -12.3773   19.4482 C   0  0  0  0  0  0
  -29.4916  -12.4110   18.2180 C   0  0  0  0  0  0
  -28.0124  -12.3107   18.6459 C   0  0  0  0  0  0
  -27.6325  -13.2195   19.8506 C   0  0  2  0  0  0
  -28.7059  -13.1957   20.9629 C   0  0  0  0  0  0
  -25.2483  -13.8194   20.5795 C   0  0  0  0  0  0
  -24.1786  -13.0444   20.9292 C   0  0  0  0  0  0
  -24.6364  -11.6916   20.8798 C   0  0  0  0  0  0
  -23.9039  -10.4310   21.0419 C   0  0  0  0  0  0
  -24.3599   -9.4235   21.9191 C   0  0  0  0  0  0
  -23.6292   -8.2266   22.0728 C   0  0  0  0  0  0
  -22.4279   -8.0296   21.3518 C   0  0  0  0  0  0
  -21.9906   -9.0270   20.4632 C   0  0  0  0  0  0
  -22.7227  -10.2162   20.3066 C   0  0  0  0  0  0
  -21.6843   -6.0750   22.5280 C   0  0  0  0  0  0
  -21.4008   -6.5637   23.8228 C   0  0  0  0  0  0
  -21.3648   -5.6779   24.9176 C   0  0  0  0  0  0
  -21.6057   -4.3056   24.7193 C   0  0  0  0  0  0
  -21.8847   -3.8153   23.4315 C   0  0  0  0  0  0
  -21.9188   -4.6979   22.3384 C   0  0  0  0  0  0
  -22.7798  -13.5194   21.1935 C   0  0  0  0  0  0
  -22.1658   -4.2192   21.0942 F   0  0  0  0  0  0
  -21.5625   -3.4515   25.7698 F   0  0  0  0  0  0
  -30.0025  -13.4792   20.3309 N   0  0  0  0  0  0
  -26.2923  -12.9378   20.3454 N   0  0  0  0  0  0
  -25.9316  -11.6532   20.5922 N   0  0  0  0  0  0
  -22.0432  -12.8224   22.0501 N   0  0  0  0  0  0
  -25.4081  -15.1953   20.4187 N   0  0  0  0  0  0
  -31.9253  -14.6740   20.2438 O   0  0  0  0  0  0
  -21.6615   -6.8917   21.4252 O   0  0  0  0  0  0
  -22.3493  -14.5479   20.6736 O   0  0  0  0  0  0
  -24.6247  -31.8593   23.2061 C   0  0  0  0  0  0
  -25.9119  -32.4767   23.8363 C   0  0  1  0  0  0
  -27.2244  -27.3388   20.0788 C   0  0  0  0  0  0
  -25.5926  -33.8577   24.2271 N   0  0  0  0  0  0
  -23.4163  -30.4903   21.5439 C   0  0  2  0  0  0
  -24.8616  -28.9540   20.1069 C   0  0  0  0  0  0
  -22.7456  -29.4647   22.4884 C   0  0  0  0  0  0
  -18.0278  -28.1398   22.8459 C   0  0  0  0  0  0
  -24.1498  -36.7310   23.2637 C   0  0  0  0  0  0
  -25.9612  -30.7901   21.3829 C   0  0  0  0  0  0
  -26.0320  -29.4230   20.7174 C   0  0  0  0  0  0
  -27.2120  -28.6217   20.7066 C   0  0  0  0  0  0
  -26.0321  -26.9404   19.4248 C   0  0  0  0  0  0
  -24.8620  -27.7138   19.4572 C   0  0  0  0  0  0
  -23.6314  -29.8316   20.1576 C   0  0  0  0  0  0
  -25.4125  -36.3078   24.0308 C   0  0  1  0  0  0
  -20.5887  -28.3697   23.1229 C   0  0  2  0  0  0
  -20.6781  -26.9414   22.5370 C   0  0  0  0  0  0
  -19.5758  -26.6393   21.5171 C   0  0  0  0  0  0
  -18.1935  -26.7937   22.1603 C   0  0  0  0  0  0
  -19.1539  -28.8864   23.2847 C   0  0  0  0  0  0
  -18.9471  -30.1464   23.8869 C   0  0  0  0  0  0
  -17.6469  -30.6579   24.0570 C   0  0  0  0  0  0
  -25.9060  -34.9443   23.5095 C   0  0  0  0  0  0
  -16.5355  -29.9083   23.6342 C   0  0  0  0  0  0
  -16.7270  -28.6524   23.0326 C   0  0  0  0  0  0
  -26.4508  -31.6597   25.0742 C   0  0  0  0  0  0
  -25.3763  -31.3733   26.1479 C   0  0  0  0  0  0
  -27.0347  -30.3004   24.6235 C   0  0  0  0  0  0
  -27.6053  -32.4343   25.7521 C   0  0  0  0  0  0
  -27.5576  -37.1807   24.8453 C   0  0  0  0  0  0
  -21.4171  -29.3066   22.3643 N   0  0  0  0  0  0
  -26.4287  -37.3777   23.9401 N   0  0  0  0  0  0
  -24.6856  -31.0627   22.1008 N   0  0  0  0  0  0
  -23.4197  -28.8163   23.2934 O   0  0  0  0  0  0
  -28.3422  -26.4863   20.1236 O   0  0  0  0  0  0
  -26.5623  -34.8894   22.4644 O   0  0  0  0  0  0
  -23.5416  -32.1386   23.7407 O   0  0  0  0  0  0
  -30.8238  -19.5115   20.0189 C   0  0  0  0  0  0
  -29.9304  -18.5473   20.5323 C   0  0  0  0  0  0
  -28.6330  -19.0504   20.7470 C   0  0  0  0  0  0
  -29.2029  -21.1574   19.9642 C   0  0  0  0  0  0
  -30.4100  -16.6979   17.8228 C   0  0  0  0  0  0
  -30.4037  -17.1025   20.9522 C   0  0  0  0  0  0
  -28.7146  -22.5376   19.4256 C   0  0  0  0  0  0
  -29.0913  -23.9062   20.1271 C   0  0  0  0  0  0
  -29.4161  -16.1460   18.8756 C   0  0  0  0  0  0
  -28.1767  -25.1004   19.6421 C   0  0  0  0  0  0
  -30.4604  -20.7886   19.7248 N   0  0  0  0  0  0
  -28.2845  -20.3329   20.4664 N   0  0  0  0  0  0
  -30.0040  -15.8538   20.2033 N   0  0  0  0  0  0
  -27.6852  -18.2298   21.2579 F   0  0  0  0  0  0
  -30.3345  -11.4234   19.9720 H   0  0  0  0  0  0
  -31.4631  -12.4647   19.1393 H   0  0  0  0  0  0
  -29.7348  -11.5753   17.5619 H   0  0  0  0  0  0
  -29.6679  -13.3069   17.6232 H   0  0  0  0  0  0
  -27.8425  -11.2669   18.9165 H   0  0  0  0  0  0
  -27.3555  -12.5124   17.7981 H   0  0  0  0  0  0
  -27.5759  -14.2303   19.4671 H   0  0  0  0  0  0
  -28.4867  -13.9465   21.7283 H   0  0  0  0  0  0
  -28.7284  -12.2262   21.4649 H   0  0  0  0  0  0
  -25.2740   -9.5719   22.4770 H   0  0  0  0  0  0
  -24.0022   -7.4615   22.7400 H   0  0  0  0  0  0
  -21.0868   -8.8780   19.8894 H   0  0  0  0  0  0
  -22.3680  -10.9688   19.6186 H   0  0  0  0  0  0
  -21.1991   -7.6136   23.9747 H   0  0  0  0  0  0
  -21.1426   -6.0474   25.9082 H   0  0  0  0  0  0
  -22.0620   -2.7610   23.2767 H   0  0  0  0  0  0
  -22.4029  -11.9936   22.5003 H   0  0  0  0  0  0
  -21.1012  -13.1235   22.2596 H   0  0  0  0  0  0
  -24.6364  -15.8396   20.5490 H   0  0  0  0  0  0
  -26.2666  -15.6507   20.1356 H   0  0  0  0  0  0
  -26.7168  -32.5430   23.1099 H   0  0  0  0  0  0
  -25.0081  -33.9739   25.0413 H   0  0  0  0  0  0
  -22.7114  -31.3123   21.4044 H   0  0  0  0  0  0
  -23.3739  -35.9665   23.3307 H   0  0  0  0  0  0
  -24.3586  -36.8928   22.2050 H   0  0  0  0  0  0
  -23.7270  -37.6522   23.6656 H   0  0  0  0  0  0
  -26.1053  -31.5548   20.6191 H   0  0  0  0  0  0
  -26.8392  -30.8268   22.0177 H   0  0  0  0  0  0
  -28.1035  -28.9779   21.2042 H   0  0  0  0  0  0
  -25.9617  -26.0206   18.8659 H   0  0  0  0  0  0
  -23.9705  -27.3581   18.9604 H   0  0  0  0  0  0
  -23.7497  -30.6113   19.4026 H   0  0  0  0  0  0
  -22.7509  -29.2612   19.8554 H   0  0  0  0  0  0
  -25.1308  -36.1919   25.0794 H   0  0  0  0  0  0
  -20.9990  -28.3281   24.1343 H   0  0  0  0  0  0
  -20.5650  -26.2321   23.3585 H   0  0  0  0  0  0
  -21.6656  -26.7418   22.1189 H   0  0  0  0  0  0
  -19.6922  -25.6303   21.1219 H   0  0  0  0  0  0
  -19.6706  -27.3193   20.6694 H   0  0  0  0  0  0
  -17.4201  -26.6633   21.4018 H   0  0  0  0  0  0
  -18.0358  -26.0084   22.9015 H   0  0  0  0  0  0
  -19.7939  -30.7286   24.2232 H   0  0  0  0  0  0
  -17.5024  -31.6257   24.5185 H   0  0  0  0  0  0
  -15.5361  -30.2985   23.7693 H   0  0  0  0  0  0
  -15.8662  -28.0857   22.7021 H   0  0  0  0  0  0
  -24.5917  -30.7097   25.7828 H   0  0  0  0  0  0
  -24.9005  -32.2907   26.4954 H   0  0  0  0  0  0
  -25.8123  -30.8884   27.0220 H   0  0  0  0  0  0
  -26.2916  -29.6753   24.1272 H   0  0  0  0  0  0
  -27.4013  -29.7268   25.4763 H   0  0  0  0  0  0
  -27.8808  -30.4266   23.9479 H   0  0  0  0  0  0
  -27.2632  -33.3614   26.2133 H   0  0  0  0  0  0
  -28.3863  -32.6951   25.0371 H   0  0  0  0  0  0
  -28.0730  -31.8462   26.5431 H   0  0  0  0  0  0
  -28.2589  -38.0111   24.7499 H   0  0  0  0  0  0
  -28.1069  -36.2635   24.6279 H   0  0  0  0  0  0
  -27.2279  -37.1456   25.8850 H   0  0  0  0  0  0
  -20.9320  -29.8838   21.6913 H   0  0  0  0  0  0
  -26.0161  -38.2836   24.1421 H   0  0  0  0  0  0
  -31.8560  -19.2576   19.8359 H   0  0  0  0  0  0
  -30.0460  -16.4956   16.8142 H   0  0  0  0  0  0
  -31.3992  -16.2487   17.8954 H   0  0  0  0  0  0
  -30.5270  -17.7803   17.8886 H   0  0  0  0  0  0
  -30.1157  -16.9593   21.9943 H   0  0  0  0  0  0
  -31.4936  -17.1332   20.9677 H   0  0  0  0  0  0
  -27.6261  -22.4728   19.3990 H   0  0  0  0  0  0
  -29.0093  -22.5924   18.3781 H   0  0  0  0  0  0
  -30.1429  -24.1233   19.9449 H   0  0  0  0  0  0
  -28.9827  -23.7934   21.2042 H   0  0  0  0  0  0
  -29.0293  -15.2301   18.4393 H   0  0  0  0  0  0
  -28.5453  -16.7964   18.9739 H   0  0  0  0  0  0
  -27.1802  -24.7484   19.9058 H   0  0  0  0  0  0
  -28.2237  -25.1393   18.5520 H   0  0  0  0  0  0
  1 25  1  0  0  0
  1 30  2  0  0  0
  1 83  1  0  0  0
  2  3  1  0  0  0
  2 25  1  0  0  0
  2 85  1  0  0  0
  2 86  1  0  0  0
  3  4  1  0  0  0
  3 87  1  0  0  0
  3 88  1  0  0  0
  4  5  1  0  0  0
  4 89  1  0  0  0
  4 90  1  0  0  0
  5  6  1  0  0  0
  5 26  1  0  0  0
  5 91  1  0  0  0
  6 25  1  0  0  0
  6 92  1  0  0  0
  6 93  1  0  0  0
  7  8  2  0  0  0
  7 26  1  0  0  0
  7 29  1  0  0  0
  8  9  1  0  0  0
  8 22  1  0  0  0
  9 10  1  0  0  0
  9 27  2  0  0  0
 10 11  2  0  0  0
 10 15  1  0  0  0
 11 12  1  0  0  0
 11 94  1  0  0  0
 12 13  2  0  0  0
 12 95  1  0  0  0
 13 14  1  0  0  0
 13 31  1  0  0  0
 14 15  2  0  0  0
 14 96  1  0  0  0
 15 97  1  0  0  0
 16 17  2  0  0  0
 16 21  1  0  0  0
 16 31  1  0  0  0
 17 18  1  0  0  0
 17 98  1  0  0  0
 18 19  2  0  0  0
 18 99  1  0  0  0
 19 20  1  0  0  0
 19 24  1  0  0  0
 20 21  2  0  0  0
 20100  1  0  0  0
 21 23  1  0  0  0
 22 28  1  0  0  0
 22 32  2  0  0  0
 26 27  1  0  0  0
 28101  1  0  0  0
 28102  1  0  0  0
 29103  1  0  0  0
 29104  1  0  0  0
 33 34  1  0  0  0
 33 66  1  0  0  0
 33 70  2  0  0  0
 34 36  1  0  0  0
 34 59  1  0  0  0
 34105  1  0  0  0
 35 44  2  0  0  0
 35 45  1  0  0  0
 35 68  1  0  0  0
 36 56  1  0  0  0
 36106  1  0  0  0
 37 39  1  0  0  0
 37 47  1  0  0  0
 37 66  1  0  0  0
 37107  1  0  0  0
 38 43  2  0  0  0
 38 46  1  0  0  0
 38 47  1  0  0  0
 39 64  1  0  0  0
 39 67  2  0  0  0
 40 52  1  0  0  0
 40 53  2  0  0  0
 40 58  1  0  0  0
 41108  1  0  0  0
 41109  1  0  0  0
 41110  1  0  0  0
 41 48  1  0  0  0
 42 43  1  0  0  0
 42 66  1  0  0  0
 42111  1  0  0  0
 42112  1  0  0  0
 43 44  1  0  0  0
 44113  1  0  0  0
 45 46  2  0  0  0
 45114  1  0  0  0
 46115  1  0  0  0
 47116  1  0  0  0
 47117  1  0  0  0
 48 56  1  0  0  0
 48 65  1  0  0  0
 48118  1  0  0  0
 49 50  1  0  0  0
 49 53  1  0  0  0
 49 64  1  0  0  0
 49119  1  0  0  0
 50 51  1  0  0  0
 50120  1  0  0  0
 50121  1  0  0  0
 51 52  1  0  0  0
 51122  1  0  0  0
 51123  1  0  0  0
 52124  1  0  0  0
 52125  1  0  0  0
 53 54  1  0  0  0
 54 55  2  0  0  0
 54126  1  0  0  0
 55 57  1  0  0  0
 55127  1  0  0  0
 56 69  2  0  0  0
 57 58  2  0  0  0
 57128  1  0  0  0
 58129  1  0  0  0
 59 60  1  0  0  0
 59 61  1  0  0  0
 59 62  1  0  0  0
 60130  1  0  0  0
 60131  1  0  0  0
 60132  1  0  0  0
 61133  1  0  0  0
 61134  1  0  0  0
 61135  1  0  0  0
 62136  1  0  0  0
 62137  1  0  0  0
 62138  1  0  0  0
 63 65  1  0  0  0
 63139  1  0  0  0
 63140  1  0  0  0
 63141  1  0  0  0
 64142  1  0  0  0
 65143  1  0  0  0
 68 80  1  0  0  0
 71 72  2  0  0  0
 71 81  1  0  0  0
 71144  1  0  0  0
 72 73  1  0  0  0
 72 76  1  0  0  0
 73 82  2  0  0  0
 73 84  1  0  0  0
 74 77  1  0  0  0
 74 81  2  0  0  0
 74 82  1  0  0  0
 75 79  1  0  0  0
 75145  1  0  0  0
 75146  1  0  0  0
 75147  1  0  0  0
 76 83  1  0  0  0
 76148  1  0  0  0
 76149  1  0  0  0
 77 78  1  0  0  0
 77150  1  0  0  0
 77151  1  0  0  0
 78 80  1  0  0  0
 78152  1  0  0  0
 78153  1  0  0  0
 79 83  1  0  0  0
 79154  1  0  0  0
 79155  1  0  0  0
 80156  1  0  0  0
 80157  1  0  0  0
M  ISO  4   1 100  68 101  80 101  83 100
M  END
> <chiral flag>
0

> <version>
0

> <s_m_source_file>
/data/baiqing/PycharmProjects/Reinvent-master-3.2/result/LINK_invent/BTK/process_docking_weight1_custom_sum_contain_oxygen_bond_distance_aromatic_linkinvent_7_9_3/rearranged_h_0051.sdf

> <i_m_source_file_index>
2

> <r_mmod_Potential_Energy-OPLS-2005>
-142.662994384766

> <r_mmod_Stretch_Energy-OPLS-2005>
73.9438171386719

> <r_mmod_Bend_Energy-OPLS-2005>
152.29411315918

> <r_mmod_Torsional_Energy-OPLS-2005>
291.535522460938

> <r_mmod_Improper_Torsional_Energy-OPLS-2005>
10.8487348556519

> <r_mmod_Van_der_Waal_Energy-OPLS-2005>
160.524063110352

> <r_mmod_Electrostatic_Energy-OPLS-2005>
-694.192993164062

> <r_mmod_Solvation_Energy-OPLS-2005>
-205.162338256836

> <b_mmod_Minimization_Converged-OPLS-2005>
0

> <r_mmod_RMS_Derivative-OPLS-2005>
4.76087188720703

$$$$
2
                    3D
 Structure written by MMmdl.
179187  0  0  1  0            999 V2000
  -30.8072  -14.4857   20.7261 C   0  0  0  0  0  0
  -30.4064  -12.3556   19.5007 C   0  0  0  0  0  0
  -29.5099  -12.5180   18.2546 C   0  0  0  0  0  0
  -28.0325  -12.3637   18.6480 C   0  0  0  0  0  0
  -27.6651  -13.2219   19.8805 C   0  0  2  0  0  0
  -28.6850  -13.1004   21.0376 C   0  0  0  0  0  0
  -25.2483  -13.8069   20.5312 C   0  0  0  0  0  0
  -24.1854  -13.0381   20.9082 C   0  0  0  0  0  0
  -24.6445  -11.6874   20.8762 C   0  0  0  0  0  0
  -23.9057  -10.4286   21.0381 C   0  0  0  0  0  0
  -24.3610   -9.4228   21.9137 C   0  0  0  0  0  0
  -23.6328   -8.2271   22.0740 C   0  0  0  0  0  0
  -22.4331   -8.0278   21.3508 C   0  0  0  0  0  0
  -21.9897   -9.0251   20.4611 C   0  0  0  0  0  0
  -22.7210  -10.2130   20.3024 C   0  0  0  0  0  0
  -21.6882   -6.0749   22.5263 C   0  0  0  0  0  0
  -21.4044   -6.5642   23.8197 C   0  0  0  0  0  0
  -21.3678   -5.6779   24.9156 C   0  0  0  0  0  0
  -21.6067   -4.3041   24.7197 C   0  0  0  0  0  0
  -21.8830   -3.8146   23.4306 C   0  0  0  0  0  0
  -21.9217   -4.6973   22.3376 C   0  0  0  0  0  0
  -22.7910  -13.5234   21.1758 C   0  0  0  0  0  0
  -22.1682   -4.2168   21.0954 F   0  0  0  0  0  0
  -21.5635   -3.4523   25.7702 F   0  0  0  0  0  0
  -30.0375  -13.3656   20.5179 N   0  0  0  0  0  0
  -26.3020  -12.9360   20.3299 N   0  0  0  0  0  0
  -25.9429  -11.6518   20.5936 N   0  0  0  0  0  0
  -22.0551  -12.8356   22.0376 N   0  0  0  0  0  0
  -25.3913  -15.1690   20.3104 N   0  0  0  0  0  0
  -31.7551  -14.7276   19.9727 O   0  0  0  0  0  0
  -21.6670   -6.8892   21.4226 O   0  0  0  0  0  0
  -22.3641  -14.5553   20.6551 O   0  0  0  0  0  0
  -24.6249  -31.8650   23.2051 C   0  0  0  0  0  0
  -25.9067  -32.4840   23.8369 C   0  0  1  0  0  0
  -27.2328  -27.3885   20.0417 C   0  0  0  0  0  0
  -25.5909  -33.8638   24.2330 N   0  0  0  0  0  0
  -23.4148  -30.4802   21.5580 C   0  0  2  0  0  0
  -24.8472  -28.9513   20.1151 C   0  0  0  0  0  0
  -22.7482  -29.4570   22.5062 C   0  0  0  0  0  0
  -18.0283  -28.1360   22.8476 C   0  0  0  0  0  0
  -24.1468  -36.7316   23.2623 C   0  0  0  0  0  0
  -25.9464  -30.8094   21.3610 C   0  0  0  0  0  0
  -26.0174  -29.4389   20.7059 C   0  0  0  0  0  0
  -27.2110  -28.6716   20.6609 C   0  0  0  0  0  0
  -26.0214  -26.9166   19.4911 C   0  0  0  0  0  0
  -24.8450  -27.6873   19.5081 C   0  0  0  0  0  0
  -23.6187  -29.8311   20.1683 C   0  0  0  0  0  0
  -25.4092  -36.3146   24.0351 C   0  0  1  0  0  0
  -20.5878  -28.3627   23.1306 C   0  0  2  0  0  0
  -20.6772  -26.9375   22.5343 C   0  0  0  0  0  0
  -19.5736  -26.6425   21.5123 C   0  0  0  0  0  0
  -18.1930  -26.7891   22.1575 C   0  0  0  0  0  0
  -19.1538  -28.8820   23.2882 C   0  0  0  0  0  0
  -18.9426  -30.1429   23.8895 C   0  0  0  0  0  0
  -17.6414  -30.6535   24.0582 C   0  0  0  0  0  0
  -25.9042  -34.9511   23.5129 C   0  0  0  0  0  0
  -16.5317  -29.9017   23.6345 C   0  0  0  0  0  0
  -16.7268  -28.6473   23.0301 C   0  0  0  0  0  0
  -26.4444  -31.6608   25.0723 C   0  0  0  0  0  0
  -25.3692  -31.3710   26.1466 C   0  0  0  0  0  0
  -27.0224  -30.3054   24.6052 C   0  0  0  0  0  0
  -27.6037  -32.4309   25.7458 C   0  0  0  0  0  0
  -27.5591  -37.1815   24.8474 C   0  0  0  0  0  0
  -21.4200  -29.3039   22.3841 N   0  0  0  0  0  0
  -26.4291  -37.3844   23.9436 N   0  0  0  0  0  0
  -24.6803  -31.0684   22.0987 N   0  0  0  0  0  0
  -23.4220  -28.8082   23.3133 O   0  0  0  0  0  0
  -28.4298  -26.6659   20.0101 O   0  0  0  0  0  0
  -26.5617  -34.8986   22.4714 O   0  0  0  0  0  0
  -23.5415  -32.1400   23.7432 O   0  0  0  0  0  0
  -31.2965  -18.8045   20.4007 C   0  0  0  0  0  0
  -30.3854  -17.9673   21.0903 C   0  0  0  0  0  0
  -29.0373  -18.4528   21.1996 C   0  0  0  0  0  0
  -28.6899  -19.5294   20.3029 C   0  0  0  0  0  0
  -29.7166  -20.3873   19.8258 C   0  0  0  0  0  0
  -26.7146  -18.3849   19.1078 C   0  0  0  0  0  0
  -31.6299  -15.0267   24.1385 C   0  0  0  0  0  0
  -28.7591  -18.1250   23.7327 C   0  0  0  0  0  0
  -27.6163  -16.5352   22.1483 C   0  0  0  0  0  0
  -26.7867  -18.8423   22.5188 C   0  0  0  0  0  0
  -27.2957  -19.6938   19.6754 C   0  0  0  0  0  0
  -31.0628  -16.7432   21.7905 C   0  0  0  0  0  0
  -29.4836  -21.8030   19.2250 C   0  0  0  0  0  0
  -28.4701  -22.7238   19.9897 C   0  0  0  0  0  0
  -28.8412  -24.2012   20.3899 C   0  0  0  0  0  0
  -30.4837  -14.6949   23.1498 C   0  0  0  0  0  0
  -28.5305  -25.3503   19.3799 C   0  0  0  0  0  0
  -28.0742  -17.9884   22.3471 C   0  0  0  0  0  0
  -31.0055  -20.0107   19.8777 N   0  0  0  0  0  0
  -30.5374  -15.3243   21.7896 N   0  0  0  0  0  0
  -31.4613  -12.3977   19.2311 H   0  0  0  0  0  0
  -30.2795  -11.3646   19.9388 H   0  0  0  0  0  0
  -29.7781  -11.7781   17.4951 H   0  0  0  0  0  0
  -29.6751  -13.4980   17.8058 H   0  0  0  0  0  0
  -27.8450  -11.3139   18.8561 H   0  0  0  0  0  0
  -27.3843  -12.6280   17.8119 H   0  0  0  0  0  0
  -27.6951  -14.2624   19.5525 H   0  0  0  0  0  0
  -28.3988  -13.8224   21.8000 H   0  0  0  0  0  0
  -28.6494  -12.1195   21.5173 H   0  0  0  0  0  0
  -25.2710   -9.5858   22.4764 H   0  0  0  0  0  0
  -24.0031   -7.4753   22.7605 H   0  0  0  0  0  0
  -21.0747   -8.8781   19.8991 H   0  0  0  0  0  0
  -22.3551  -10.9719   19.6219 H   0  0  0  0  0  0
  -21.2046   -7.6144   23.9696 H   0  0  0  0  0  0
  -21.1438   -6.0496   25.9046 H   0  0  0  0  0  0
  -22.0571   -2.7612   23.2793 H   0  0  0  0  0  0
  -22.4067  -11.9959   22.4748 H   0  0  0  0  0  0
  -21.1208  -13.1494   22.2582 H   0  0  0  0  0  0
  -24.5971  -15.7951   20.3587 H   0  0  0  0  0  0
  -26.2113  -15.5929   19.8997 H   0  0  0  0  0  0
  -26.7168  -32.5518   23.1138 H   0  0  0  0  0  0
  -25.0103  -33.9779   25.0508 H   0  0  0  0  0  0
  -22.7016  -31.2958   21.4333 H   0  0  0  0  0  0
  -23.3792  -35.9602   23.3292 H   0  0  0  0  0  0
  -24.3535  -36.8903   22.2038 H   0  0  0  0  0  0
  -23.7168  -37.6502   23.6613 H   0  0  0  0  0  0
  -26.0678  -31.5705   20.5925 H   0  0  0  0  0  0
  -26.8320  -30.8564   21.9772 H   0  0  0  0  0  0
  -28.1246  -29.0612   21.0822 H   0  0  0  0  0  0
  -25.9171  -25.9452   19.0382 H   0  0  0  0  0  0
  -23.9417  -27.2890   19.0627 H   0  0  0  0  0  0
  -23.7582  -30.6176   19.4244 H   0  0  0  0  0  0
  -22.7322  -29.2695   19.8694 H   0  0  0  0  0  0
  -25.1258  -36.2012   25.0852 H   0  0  0  0  0  0
  -20.9932  -28.3109   24.1412 H   0  0  0  0  0  0
  -20.5661  -26.2207   23.3493 H   0  0  0  0  0  0
  -21.6627  -26.7474   22.1055 H   0  0  0  0  0  0
  -19.6847  -25.6387   21.0984 H   0  0  0  0  0  0
  -19.6683  -27.3309   20.6703 H   0  0  0  0  0  0
  -17.4146  -26.6621   21.3992 H   0  0  0  0  0  0
  -18.0404  -25.9987   22.8944 H   0  0  0  0  0  0
  -19.7927  -30.7266   24.2190 H   0  0  0  0  0  0
  -17.4951  -31.6165   24.5254 H   0  0  0  0  0  0
  -15.5278  -30.2891   23.7668 H   0  0  0  0  0  0
  -15.8699  -28.0851   22.6860 H   0  0  0  0  0  0
  -24.5895  -30.7019   25.7792 H   0  0  0  0  0  0
  -24.8852  -32.2858   26.4885 H   0  0  0  0  0  0
  -25.8029  -30.8895   27.0235 H   0  0  0  0  0  0
  -26.2742  -29.6902   24.1039 H   0  0  0  0  0  0
  -27.3919  -29.7200   25.4457 H   0  0  0  0  0  0
  -27.8625  -30.4396   23.9251 H   0  0  0  0  0  0
  -27.2695  -33.3620   26.2053 H   0  0  0  0  0  0
  -28.3814  -32.6830   25.0242 H   0  0  0  0  0  0
  -28.0756  -31.8417   26.5323 H   0  0  0  0  0  0
  -28.2625  -38.0092   24.7571 H   0  0  0  0  0  0
  -28.1068  -36.2646   24.6250 H   0  0  0  0  0  0
  -27.2332  -37.1441   25.8876 H   0  0  0  0  0  0
  -20.9376  -29.8861   21.7136 H   0  0  0  0  0  0
  -26.0191  -38.2935   24.1427 H   0  0  0  0  0  0
  -32.3448  -18.5454   20.3526 H   0  0  0  0  0  0
  -26.5495  -17.6096   19.8504 H   0  0  0  0  0  0
  -27.3997  -17.9735   18.3706 H   0  0  0  0  0  0
  -25.7701  -18.5657   18.5956 H   0  0  0  0  0  0
  -31.5278  -16.0128   24.6001 H   0  0  0  0  0  0
  -32.6032  -14.9617   23.6515 H   0  0  0  0  0  0
  -31.6271  -14.3170   24.9678 H   0  0  0  0  0  0
  -29.6074  -17.4686   23.8529 H   0  0  0  0  0  0
  -28.0900  -17.8387   24.5423 H   0  0  0  0  0  0
  -29.0806  -19.1444   23.9452 H   0  0  0  0  0  0
  -27.8915  -15.8984   22.9801 H   0  0  0  0  0  0
  -27.9882  -16.1041   21.2199 H   0  0  0  0  0  0
  -26.5321  -16.4659   22.1348 H   0  0  0  0  0  0
  -27.0022  -19.9087   22.6040 H   0  0  0  0  0  0
  -26.2603  -18.5681   23.4355 H   0  0  0  0  0  0
  -26.0518  -18.6877   21.7266 H   0  0  0  0  0  0
  -27.3904  -20.3140   18.7878 H   0  0  0  0  0  0
  -26.5976  -20.2396   20.3043 H   0  0  0  0  0  0
  -31.3085  -17.0982   22.7829 H   0  0  0  0  0  0
  -32.0647  -16.6787   21.3566 H   0  0  0  0  0  0
  -29.1882  -21.6773   18.1833 H   0  0  0  0  0  0
  -30.4400  -22.3177   19.1723 H   0  0  0  0  0  0
  -28.2684  -22.2270   20.9383 H   0  0  0  0  0  0
  -27.5172  -22.7130   19.4598 H   0  0  0  0  0  0
  -28.2491  -24.4183   21.2792 H   0  0  0  0  0  0
  -29.8694  -24.2728   20.7493 H   0  0  0  0  0  0
  -29.5497  -14.9113   23.6570 H   0  0  0  0  0  0
  -30.5069  -13.6063   23.0662 H   0  0  0  0  0  0
  -27.6773  -25.0713   18.7706 H   0  0  0  0  0  0
  -29.3555  -25.4072   18.6677 H   0  0  0  0  0  0
  1 25  1  0  0  0
  1 30  2  0  0  0
  1 90  1  0  0  0
  2  3  1  0  0  0
  2 25  1  0  0  0
  2 91  1  0  0  0
  2 92  1  0  0  0
  3  4  1  0  0  0
  3 93  1  0  0  0
  3 94  1  0  0  0
  4  5  1  0  0  0
  4 95  1  0  0  0
  4 96  1  0  0  0
  5  6  1  0  0  0
  5 26  1  0  0  0
  5 97  1  0  0  0
  6 25  1  0  0  0
  6 98  1  0  0  0
  6 99  1  0  0  0
  7  8  2  0  0  0
  7 26  1  0  0  0
  7 29  1  0  0  0
  8  9  1  0  0  0
  8 22  1  0  0  0
  9 10  1  0  0  0
  9 27  2  0  0  0
 10 11  2  0  0  0
 10 15  1  0  0  0
 11 12  1  0  0  0
 11100  1  0  0  0
 12 13  2  0  0  0
 12101  1  0  0  0
 13 14  1  0  0  0
 13 31  1  0  0  0
 14 15  2  0  0  0
 14102  1  0  0  0
 15103  1  0  0  0
 16 17  2  0  0  0
 16 21  1  0  0  0
 16 31  1  0  0  0
 17 18  1  0  0  0
 17104  1  0  0  0
 18 19  2  0  0  0
 18105  1  0  0  0
 19 20  1  0  0  0
 19 24  1  0  0  0
 20 21  2  0  0  0
 20106  1  0  0  0
 21 23  1  0  0  0
 22 28  1  0  0  0
 22 32  2  0  0  0
 26 27  1  0  0  0
 28107  1  0  0  0
 28108  1  0  0  0
 29109  1  0  0  0
 29110  1  0  0  0
 33 34  1  0  0  0
 33 66  1  0  0  0
 33 70  2  0  0  0
 34 36  1  0  0  0
 34 59  1  0  0  0
 34111  1  0  0  0
 35 44  2  0  0  0
 35 45  1  0  0  0
 35 68  1  0  0  0
 36 56  1  0  0  0
 36112  1  0  0  0
 37 39  1  0  0  0
 37 47  1  0  0  0
 37 66  1  0  0  0
 37113  1  0  0  0
 38 43  2  0  0  0
 38 46  1  0  0  0
 38 47  1  0  0  0
 39 64  1  0  0  0
 39 67  2  0  0  0
 40 52  1  0  0  0
 40 53  2  0  0  0
 40 58  1  0  0  0
 41114  1  0  0  0
 41115  1  0  0  0
 41116  1  0  0  0
 41 48  1  0  0  0
 42 43  1  0  0  0
 42 66  1  0  0  0
 42117  1  0  0  0
 42118  1  0  0  0
 43 44  1  0  0  0
 44119  1  0  0  0
 45 46  2  0  0  0
 45120  1  0  0  0
 46121  1  0  0  0
 47122  1  0  0  0
 47123  1  0  0  0
 48 56  1  0  0  0
 48 65  1  0  0  0
 48124  1  0  0  0
 49 50  1  0  0  0
 49 53  1  0  0  0
 49 64  1  0  0  0
 49125  1  0  0  0
 50 51  1  0  0  0
 50126  1  0  0  0
 50127  1  0  0  0
 51 52  1  0  0  0
 51128  1  0  0  0
 51129  1  0  0  0
 52130  1  0  0  0
 52131  1  0  0  0
 53 54  1  0  0  0
 54 55  2  0  0  0
 54132  1  0  0  0
 55 57  1  0  0  0
 55133  1  0  0  0
 56 69  2  0  0  0
 57 58  2  0  0  0
 57134  1  0  0  0
 58135  1  0  0  0
 59 60  1  0  0  0
 59 61  1  0  0  0
 59 62  1  0  0  0
 60136  1  0  0  0
 60137  1  0  0  0
 60138  1  0  0  0
 61139  1  0  0  0
 61140  1  0  0  0
 61141  1  0  0  0
 62142  1  0  0  0
 62143  1  0  0  0
 62144  1  0  0  0
 63 65  1  0  0  0
 63145  1  0  0  0
 63146  1  0  0  0
 63147  1  0  0  0
 64148  1  0  0  0
 65149  1  0  0  0
 68 87  1  0  0  0
 71 72  2  0  0  0
 71 89  1  0  0  0
 71150  1  0  0  0
 72 73  1  0  0  0
 72 82  1  0  0  0
 73 74  2  0  0  0
 73 88  1  0  0  0
 74 75  1  0  0  0
 74 81  1  0  0  0
 75 83  1  0  0  0
 75 89  2  0  0  0
 76 81  1  0  0  0
 76151  1  0  0  0
 76152  1  0  0  0
 76153  1  0  0  0
 77 86  1  0  0  0
 77154  1  0  0  0
 77155  1  0  0  0
 77156  1  0  0  0
 78157  1  0  0  0
 78158  1  0  0  0
 78159  1  0  0  0
 78 88  1  0  0  0
 79 88  1  0  0  0
 79160  1  0  0  0
 79161  1  0  0  0
 79162  1  0  0  0
 80 88  1  0  0  0
 80163  1  0  0  0
 80164  1  0  0  0
 80165  1  0  0  0
 81166  1  0  0  0
 81167  1  0  0  0
 82 90  1  0  0  0
 82168  1  0  0  0
 82169  1  0  0  0
 83 84  1  0  0  0
 83170  1  0  0  0
 83171  1  0  0  0
 84 85  1  0  0  0
 84172  1  0  0  0
 84173  1  0  0  0
 85 87  1  0  0  0
 85174  1  0  0  0
 85175  1  0  0  0
 86 90  1  0  0  0
 86176  1  0  0  0
 86177  1  0  0  0
 87178  1  0  0  0
 87179  1  0  0  0
M  ISO  4   1 100  68 101  87 101  90 100
M  END
> <chiral flag>
0

> <version>
0

> <s_m_source_file>
/data/baiqing/PycharmProjects/Reinvent-master-3.2/result/LINK_invent/BTK/process_docking_weight1_custom_sum_contain_oxygen_bond_distance_aromatic_linkinvent_7_9_3/rearranged_h_0051.sdf

> <i_m_source_file_index>
3

> <r_mmod_Potential_Energy-OPLS-2005>
224.824005126953

> <r_mmod_Stretch_Energy-OPLS-2005>
80.9512634277344

> <r_mmod_Bend_Energy-OPLS-2005>
200.01335144043

> <r_mmod_Torsional_Energy-OPLS-2005>
368.431671142578

> <r_mmod_Improper_Torsional_Energy-OPLS-2005>
7.36999368667603

> <r_mmod_Van_der_Waal_Energy-OPLS-2005>
185.250518798828

> <r_mmod_Electrostatic_Energy-OPLS-2005>
-450.940124511719

> <r_mmod_Solvation_Energy-OPLS-2005>
-191.251327514648

> <b_mmod_Minimization_Converged-OPLS-2005>
0

> <r_mmod_RMS_Derivative-OPLS-2005>
9.50448799133301

$$$$
3
                    3D
 Structure written by MMmdl.
160168  0  0  1  0            999 V2000
  -30.5129  -14.8714   20.4241 C   0  0  0  0  0  0
  -30.4504  -12.5376   19.4556 C   0  0  0  0  0  0
  -29.5065  -12.4869   18.2300 C   0  0  0  0  0  0
  -28.0408  -12.2858   18.6650 C   0  0  0  0  0  0
  -27.6312  -13.2231   19.8316 C   0  0  2  0  0  0
  -28.6817  -13.2002   20.9599 C   0  0  0  0  0  0
  -25.2482  -13.8167   20.5678 C   0  0  0  0  0  0
  -24.1790  -13.0413   20.9235 C   0  0  0  0  0  0
  -24.6391  -11.6891   20.8788 C   0  0  0  0  0  0
  -23.9072  -10.4272   21.0438 C   0  0  0  0  0  0
  -24.3629   -9.4181   21.9203 C   0  0  0  0  0  0
  -23.6299   -8.2215   22.0763 C   0  0  0  0  0  0
  -22.4277   -8.0273   21.3546 C   0  0  0  0  0  0
  -21.9929   -9.0253   20.4637 C   0  0  0  0  0  0
  -22.7260  -10.2127   20.3058 C   0  0  0  0  0  0
  -21.6839   -6.0732   22.5275 C   0  0  0  0  0  0
  -21.4001   -6.5628   23.8208 C   0  0  0  0  0  0
  -21.3651   -5.6789   24.9175 C   0  0  0  0  0  0
  -21.6061   -4.3056   24.7232 C   0  0  0  0  0  0
  -21.8817   -3.8148   23.4348 C   0  0  0  0  0  0
  -21.9189   -4.6965   22.3403 C   0  0  0  0  0  0
  -22.7809  -13.5197   21.1919 C   0  0  0  0  0  0
  -22.1662   -4.2154   21.0978 F   0  0  0  0  0  0
  -21.5633   -3.4537   25.7746 F   0  0  0  0  0  0
  -29.9561  -13.6069   20.3563 N   0  0  0  0  0  0
  -26.2883  -12.9347   20.3216 N   0  0  0  0  0  0
  -25.9301  -11.6511   20.5764 N   0  0  0  0  0  0
  -22.0478  -12.8154   22.0463 N   0  0  0  0  0  0
  -25.4121  -15.1892   20.4053 N   0  0  0  0  0  0
  -31.7285  -15.0004   20.2482 O   0  0  0  0  0  0
  -21.6625   -6.8876   21.4242 O   0  0  0  0  0  0
  -22.3471  -14.5502   20.6779 O   0  0  0  0  0  0
  -24.6492  -31.8502   23.1955 C   0  0  0  0  0  0
  -25.9268  -32.4724   23.8315 C   0  0  1  0  0  0
  -27.1975  -27.1353   20.1326 C   0  0  0  0  0  0
  -25.5985  -33.8524   24.2246 N   0  0  0  0  0  0
  -23.4500  -30.4748   21.5399 C   0  0  2  0  0  0
  -24.8918  -28.9196   20.1096 C   0  0  0  0  0  0
  -22.7613  -29.4564   22.4859 C   0  0  0  0  0  0
  -18.0307  -28.1403   22.8477 C   0  0  0  0  0  0
  -24.1475  -36.7242   23.2648 C   0  0  0  0  0  0
  -26.0084  -30.7225   21.3943 C   0  0  0  0  0  0
  -26.0754  -29.3367   20.7316 C   0  0  0  0  0  0
  -27.2309  -28.4617   20.7294 C   0  0  0  0  0  0
  -25.9908  -26.8412   19.4575 C   0  0  0  0  0  0
  -24.8666  -27.6836   19.4589 C   0  0  0  0  0  0
  -23.6713  -29.8223   20.1560 C   0  0  0  0  0  0
  -25.4111  -36.3045   24.0333 C   0  0  1  0  0  0
  -20.5941  -28.3734   23.1218 C   0  0  2  0  0  0
  -20.6801  -26.9435   22.5397 C   0  0  0  0  0  0
  -19.5743  -26.6387   21.5235 C   0  0  0  0  0  0
  -18.1919  -26.7946   22.1627 C   0  0  0  0  0  0
  -19.1575  -28.8886   23.2835 C   0  0  0  0  0  0
  -18.9495  -30.1493   23.8856 C   0  0  0  0  0  0
  -17.6485  -30.6594   24.0556 C   0  0  0  0  0  0
  -25.9064  -34.9423   23.5091 C   0  0  0  0  0  0
  -16.5376  -29.9082   23.6351 C   0  0  0  0  0  0
  -16.7294  -28.6516   23.0347 C   0  0  0  0  0  0
  -26.4557  -31.6573   25.0744 C   0  0  0  0  0  0
  -25.3727  -31.3721   26.1416 C   0  0  0  0  0  0
  -27.0459  -30.2994   24.6291 C   0  0  0  0  0  0
  -27.6090  -32.4351   25.7501 C   0  0  0  0  0  0
  -27.5574  -37.1758   24.8468 C   0  0  0  0  0  0
  -21.4299  -29.3051   22.3585 N   0  0  0  0  0  0
  -26.4271  -37.3749   23.9442 N   0  0  0  0  0  0
  -24.7231  -31.0370   22.0967 N   0  0  0  0  0  0
  -23.4245  -28.8076   23.3000 O   0  0  0  0  0  0
  -28.2139  -26.1088   20.1928 O   0  0  0  0  0  0
  -26.5649  -34.8898   22.4663 O   0  0  0  0  0  0
  -23.5607  -32.1359   23.7155 O   0  0  0  0  0  0
  -28.7089  -21.1052   18.9574 C   0  0  0  0  0  0
  -29.0556  -22.3998   21.2827 C   0  0  0  0  0  0
  -28.5481  -23.1912   20.1794 C   0  0  0  0  0  0
  -29.2167  -20.3114   20.0507 C   0  0  0  0  0  0
  -28.4884  -20.5064   17.5728 C   0  0  0  0  0  0
  -28.0205  -22.5130   23.6002 C   0  0  0  0  0  0
  -31.2074  -18.7970   19.3760 C   0  0  0  0  0  0
  -29.1511  -22.9938   22.6780 C   0  0  0  0  0  0
  -27.7393  -24.6282   20.2426 C   0  0  0  0  0  0
  -29.6217  -17.4813   20.8817 C   0  0  0  0  0  0
  -29.7462  -18.7571   19.8377 C   0  0  1  0  0  0
  -28.4002  -22.4565   19.0268 N   0  0  0  0  0  0
  -29.4207  -21.0454   21.2005 N   0  0  0  0  0  0
  -29.6290  -15.9647   20.4753 N   0  0  0  0  0  0
  -31.4748  -12.7229   19.1288 H   0  0  0  0  0  0
  -30.4657  -11.5767   19.9748 H   0  0  0  0  0  0
  -29.8054  -11.6763   17.5614 H   0  0  0  0  0  0
  -29.5949  -13.4074   17.6524 H   0  0  0  0  0  0
  -27.9386  -11.2463   18.9854 H   0  0  0  0  0  0
  -27.3652  -12.4086   17.8180 H   0  0  0  0  0  0
  -27.6068  -14.2274   19.4104 H   0  0  0  0  0  0
  -28.7610  -12.2044   21.4003 H   0  0  0  0  0  0
  -28.3998  -13.8765   21.7675 H   0  0  0  0  0  0
  -25.2783   -9.5643   22.4763 H   0  0  0  0  0  0
  -24.0010   -7.4596   22.7471 H   0  0  0  0  0  0
  -21.0861   -8.8774   19.8931 H   0  0  0  0  0  0
  -22.3742  -10.9674   19.6150 H   0  0  0  0  0  0
  -21.1980   -7.6127   23.9719 H   0  0  0  0  0  0
  -21.1474   -6.0510   25.9076 H   0  0  0  0  0  0
  -22.0606   -2.7613   23.2847 H   0  0  0  0  0  0
  -22.4131  -11.9792   22.4776 H   0  0  0  0  0  0
  -21.1097  -13.1149   22.2716 H   0  0  0  0  0  0
  -24.6358  -15.8327   20.5109 H   0  0  0  0  0  0
  -26.2370  -15.6361   20.0269 H   0  0  0  0  0  0
  -26.7336  -32.5298   23.1039 H   0  0  0  0  0  0
  -25.0196  -33.9654   25.0440 H   0  0  0  0  0  0
  -22.7544  -31.3026   21.3958 H   0  0  0  0  0  0
  -23.3747  -35.9544   23.3292 H   0  0  0  0  0  0
  -24.3562  -36.8906   22.2064 H   0  0  0  0  0  0
  -23.7203  -37.6429   23.6687 H   0  0  0  0  0  0
  -26.1718  -31.4786   20.6221 H   0  0  0  0  0  0
  -26.8810  -30.7686   22.0355 H   0  0  0  0  0  0
  -28.1249  -28.7719   21.2479 H   0  0  0  0  0  0
  -25.8424  -25.9295   18.9036 H   0  0  0  0  0  0
  -23.9713  -27.3609   18.9456 H   0  0  0  0  0  0
  -23.8068  -30.6043   19.4081 H   0  0  0  0  0  0
  -22.7818  -29.2752   19.8402 H   0  0  0  0  0  0
  -25.1271  -36.1898   25.0827 H   0  0  0  0  0  0
  -21.0036  -28.3338   24.1345 H   0  0  0  0  0  0
  -20.5759  -26.2331   23.3623 H   0  0  0  0  0  0
  -21.6651  -26.7479   22.1144 H   0  0  0  0  0  0
  -19.6907  -25.6308   21.1260 H   0  0  0  0  0  0
  -19.6676  -27.3201   20.6776 H   0  0  0  0  0  0
  -17.4212  -26.6742   21.3999 H   0  0  0  0  0  0
  -18.0245  -26.0092   22.9033 H   0  0  0  0  0  0
  -19.7978  -30.7307   24.2178 H   0  0  0  0  0  0
  -17.5045  -31.6261   24.5181 H   0  0  0  0  0  0
  -15.5369  -30.2950   23.7719 H   0  0  0  0  0  0
  -15.8704  -28.0820   22.7079 H   0  0  0  0  0  0
  -24.5946  -30.7049   25.7718 H   0  0  0  0  0  0
  -24.8824  -32.2846   26.4823 H   0  0  0  0  0  0
  -25.7979  -30.8934   27.0246 H   0  0  0  0  0  0
  -26.3130  -29.6643   24.1305 H   0  0  0  0  0  0
  -27.4148  -29.7353   25.4866 H   0  0  0  0  0  0
  -27.8961  -30.4284   23.9583 H   0  0  0  0  0  0
  -27.2777  -33.3739   26.1948 H   0  0  0  0  0  0
  -28.3928  -32.6793   25.0325 H   0  0  0  0  0  0
  -28.0685  -31.8547   26.5503 H   0  0  0  0  0  0
  -28.2558  -38.0085   24.7605 H   0  0  0  0  0  0
  -28.1103  -36.2640   24.6200 H   0  0  0  0  0  0
  -27.2291  -37.1328   25.8859 H   0  0  0  0  0  0
  -20.9525  -29.8829   21.6824 H   0  0  0  0  0  0
  -26.0141  -38.2810   24.1484 H   0  0  0  0  0  0
  -29.4387  -20.2748   17.0883 H   0  0  0  0  0  0
  -27.9514  -21.1997   16.9252 H   0  0  0  0  0  0
  -27.8912  -19.5954   17.6150 H   0  0  0  0  0  0
  -28.1021  -22.9641   24.5902 H   0  0  0  0  0  0
  -28.0461  -21.4305   23.7274 H   0  0  0  0  0  0
  -27.0426  -22.7713   23.1939 H   0  0  0  0  0  0
  -31.3425  -19.4743   18.5339 H   0  0  0  0  0  0
  -31.5512  -17.8083   19.0686 H   0  0  0  0  0  0
  -31.8553  -19.1388   20.1832 H   0  0  0  0  0  0
  -29.1384  -24.0823   22.6165 H   0  0  0  0  0  0
  -30.1164  -22.7327   23.1158 H   0  0  0  0  0  0
  -27.0553  -24.5494   21.0872 H   0  0  0  0  0  0
  -27.1233  -24.4915   19.3629 H   0  0  0  0  0  0
  -28.6475  -17.5934   21.3612 H   0  0  0  0  0  0
  -30.3363  -17.6121   21.6939 H   0  0  0  0  0  0
  -29.1689  -18.4068   18.9862 H   0  0  0  0  0  0
  -28.6864  -15.6192   20.3774 H   0  0  0  0  0  0
  1 25  1  0  0  0
  1 30  2  0  0  0
  1 84  1  0  0  0
  2  3  1  0  0  0
  2 25  1  0  0  0
  2 85  1  0  0  0
  2 86  1  0  0  0
  3  4  1  0  0  0
  3 87  1  0  0  0
  3 88  1  0  0  0
  4  5  1  0  0  0
  4 89  1  0  0  0
  4 90  1  0  0  0
  5  6  1  0  0  0
  5 26  1  0  0  0
  5 91  1  0  0  0
  6 25  1  0  0  0
  6 92  1  0  0  0
  6 93  1  0  0  0
  7  8  2  0  0  0
  7 26  1  0  0  0
  7 29  1  0  0  0
  8  9  1  0  0  0
  8 22  1  0  0  0
  9 10  1  0  0  0
  9 27  2  0  0  0
 10 11  2  0  0  0
 10 15  1  0  0  0
 11 12  1  0  0  0
 11 94  1  0  0  0
 12 13  2  0  0  0
 12 95  1  0  0  0
 13 14  1  0  0  0
 13 31  1  0  0  0
 14 15  2  0  0  0
 14 96  1  0  0  0
 15 97  1  0  0  0
 16 17  2  0  0  0
 16 21  1  0  0  0
 16 31  1  0  0  0
 17 18  1  0  0  0
 17 98  1  0  0  0
 18 19  2  0  0  0
 18 99  1  0  0  0
 19 20  1  0  0  0
 19 24  1  0  0  0
 20 21  2  0  0  0
 20100  1  0  0  0
 21 23  1  0  0  0
 22 28  1  0  0  0
 22 32  2  0  0  0
 26 27  1  0  0  0
 28101  1  0  0  0
 28102  1  0  0  0
 29103  1  0  0  0
 29104  1  0  0  0
 33 34  1  0  0  0
 33 66  1  0  0  0
 33 70  2  0  0  0
 34 36  1  0  0  0
 34 59  1  0  0  0
 34105  1  0  0  0
 35 44  2  0  0  0
 35 45  1  0  0  0
 35 68  1  0  0  0
 36 56  1  0  0  0
 36106  1  0  0  0
 37 39  1  0  0  0
 37 47  1  0  0  0
 37 66  1  0  0  0
 37107  1  0  0  0
 38 43  2  0  0  0
 38 46  1  0  0  0
 38 47  1  0  0  0
 39 64  1  0  0  0
 39 67  2  0  0  0
 40 52  1  0  0  0
 40 53  2  0  0  0
 40 58  1  0  0  0
 41108  1  0  0  0
 41109  1  0  0  0
 41110  1  0  0  0
 41 48  1  0  0  0
 42 43  1  0  0  0
 42 66  1  0  0  0
 42111  1  0  0  0
 42112  1  0  0  0
 43 44  1  0  0  0
 44113  1  0  0  0
 45 46  2  0  0  0
 45114  1  0  0  0
 46115  1  0  0  0
 47116  1  0  0  0
 47117  1  0  0  0
 48 56  1  0  0  0
 48 65  1  0  0  0
 48118  1  0  0  0
 49 50  1  0  0  0
 49 53  1  0  0  0
 49 64  1  0  0  0
 49119  1  0  0  0
 50 51  1  0  0  0
 50120  1  0  0  0
 50121  1  0  0  0
 51 52  1  0  0  0
 51122  1  0  0  0
 51123  1  0  0  0
 52124  1  0  0  0
 52125  1  0  0  0
 53 54  1  0  0  0
 54 55  2  0  0  0
 54126  1  0  0  0
 55 57  1  0  0  0
 55127  1  0  0  0
 56 69  2  0  0  0
 57 58  2  0  0  0
 57128  1  0  0  0
 58129  1  0  0  0
 59 60  1  0  0  0
 59 61  1  0  0  0
 59 62  1  0  0  0
 60130  1  0  0  0
 60131  1  0  0  0
 60132  1  0  0  0
 61133  1  0  0  0
 61134  1  0  0  0
 61135  1  0  0  0
 62136  1  0  0  0
 62137  1  0  0  0
 62138  1  0  0  0
 63 65  1  0  0  0
 63139  1  0  0  0
 63140  1  0  0  0
 63141  1  0  0  0
 64142  1  0  0  0
 65143  1  0  0  0
 68 79  1  0  0  0
 71 74  2  0  0  0
 71 75  1  0  0  0
 71 82  1  0  0  0
 72 73  1  0  0  0
 72 78  1  0  0  0
 72 83  2  0  0  0
 73 79  1  0  0  0
 73 82  2  0  0  0
 74 81  1  0  0  0
 74 83  1  0  0  0
 75144  1  0  0  0
 75145  1  0  0  0
 75146  1  0  0  0
 76 78  1  0  0  0
 76147  1  0  0  0
 76148  1  0  0  0
 76149  1  0  0  0
 77150  1  0  0  0
 77151  1  0  0  0
 77152  1  0  0  0
 77 81  1  0  0  0
 78153  1  0  0  0
 78154  1  0  0  0
 79155  1  0  0  0
 79156  1  0  0  0
 80 81  1  0  0  0
 80 84  1  0  0  0
 80157  1  0  0  0
 80158  1  0  0  0
 81159  1  0  0  0
 84160  1  0  0  0
M  ISO  4   1 100  68 101  79 101  84 100
M  END
> <chiral flag>
0

> <version>
0

> <s_m_source_file>
/data/baiqing/PycharmProjects/Reinvent-master-3.2/result/LINK_invent/BTK/process_docking_weight1_custom_sum_contain_oxygen_bond_distance_aromatic_linkinvent_7_9_3/rearranged_h_0051.sdf

> <i_m_source_file_index>
4

> <r_mmod_Potential_Energy-OPLS-2005>
503.330505371094

> <r_mmod_Stretch_Energy-OPLS-2005>
219.362716674805

> <r_mmod_Bend_Energy-OPLS-2005>
284.064331054688

> <r_mmod_Torsional_Energy-OPLS-2005>
226.270156860352

> <r_mmod_Improper_Torsional_Energy-OPLS-2005>
9.50751399993896

> <r_mmod_Van_der_Waal_Energy-OPLS-2005>
138.911315917969

> <r_mmod_Electrostatic_Energy-OPLS-2005>
-328.509857177734

> <r_mmod_Solvation_Energy-OPLS-2005>
-223.881896972656

> <b_mmod_Minimization_Converged-OPLS-2005>
0

> <r_mmod_RMS_Derivative-OPLS-2005>
5.10459518432617

$$$$
4
                    3D
 Structure written by MMmdl.
178186  0  0  1  0            999 V2000
  -30.7414  -14.4244   20.6170 C   0  0  0  0  0  0
  -30.4117  -12.2898   19.4265 C   0  0  0  0  0  0
  -29.4945  -12.5127   18.2078 C   0  0  0  0  0  0
  -28.0122  -12.3807   18.6130 C   0  0  0  0  0  0
  -27.6627  -13.2089   19.8777 C   0  0  2  0  0  0
  -28.7003  -12.9855   20.9989 C   0  0  0  0  0  0
  -25.2592  -13.8140   20.5664 C   0  0  0  0  0  0
  -24.1840  -13.0416   20.9151 C   0  0  0  0  0  0
  -24.6405  -11.6885   20.8719 C   0  0  0  0  0  0
  -23.9065  -10.4272   21.0399 C   0  0  0  0  0  0
  -24.3616   -9.4189   21.9184 C   0  0  0  0  0  0
  -23.6301   -8.2222   22.0767 C   0  0  0  0  0  0
  -22.4286   -8.0260   21.3560 C   0  0  0  0  0  0
  -21.9913   -9.0233   20.4661 C   0  0  0  0  0  0
  -22.7239  -10.2103   20.3054 C   0  0  0  0  0  0
  -21.6847   -6.0722   22.5291 C   0  0  0  0  0  0
  -21.4003   -6.5635   23.8229 C   0  0  0  0  0  0
  -21.3649   -5.6790   24.9200 C   0  0  0  0  0  0
  -21.6037   -4.3055   24.7266 C   0  0  0  0  0  0
  -21.8804   -3.8145   23.4384 C   0  0  0  0  0  0
  -21.9196   -4.6952   22.3431 C   0  0  0  0  0  0
  -22.7872  -13.5236   21.1824 C   0  0  0  0  0  0
  -22.1670   -4.2137   21.1016 F   0  0  0  0  0  0
  -21.5627   -3.4529   25.7772 F   0  0  0  0  0  0
  -30.0358  -13.2717   20.4543 N   0  0  0  0  0  0
  -26.3025  -12.9317   20.3372 N   0  0  0  0  0  0
  -25.9332  -11.6466   20.5751 N   0  0  0  0  0  0
  -22.0495  -12.8234   22.0364 N   0  0  0  0  0  0
  -25.4330  -15.1852   20.4039 N   0  0  0  0  0  0
  -31.8365  -14.6156   20.0757 O   0  0  0  0  0  0
  -21.6657   -6.8851   21.4249 O   0  0  0  0  0  0
  -22.3577  -14.5552   20.6670 O   0  0  0  0  0  0
  -24.6114  -31.8690   23.2113 C   0  0  0  0  0  0
  -25.9023  -32.4830   23.8404 C   0  0  1  0  0  0
  -27.2431  -27.4686   20.0767 C   0  0  0  0  0  0
  -25.5889  -33.8625   24.2338 N   0  0  0  0  0  0
  -23.3990  -30.4909   21.5513 C   0  0  2  0  0  0
  -24.8478  -28.9575   20.1134 C   0  0  0  0  0  0
  -22.7394  -29.4657   22.5012 C   0  0  0  0  0  0
  -18.0263  -28.1376   22.8491 C   0  0  0  0  0  0
  -24.1484  -36.7317   23.2638 C   0  0  0  0  0  0
  -25.9239  -30.8400   21.3622 C   0  0  0  0  0  0
  -26.0031  -29.4747   20.7137 C   0  0  0  0  0  0
  -27.2011  -28.7299   20.7064 C   0  0  0  0  0  0
  -26.0725  -26.9493   19.4860 C   0  0  0  0  0  0
  -24.8739  -27.6896   19.5032 C   0  0  0  0  0  0
  -23.6064  -29.8191   20.1664 C   0  0  0  0  0  0
  -25.4102  -36.3116   24.0343 C   0  0  1  0  0  0
  -20.5851  -28.3652   23.1333 C   0  0  2  0  0  0
  -20.6756  -26.9393   22.5425 C   0  0  0  0  0  0
  -19.5737  -26.6386   21.5215 C   0  0  0  0  0  0
  -18.1916  -26.7925   22.1621 C   0  0  0  0  0  0
  -19.1514  -28.8826   23.2910 C   0  0  0  0  0  0
  -18.9446  -30.1439   23.8909 C   0  0  0  0  0  0
  -17.6451  -30.6583   24.0563 C   0  0  0  0  0  0
  -25.9026  -34.9480   23.5134 C   0  0  0  0  0  0
  -16.5339  -29.9087   23.6331 C   0  0  0  0  0  0
  -16.7256  -28.6507   23.0345 C   0  0  0  0  0  0
  -26.4466  -31.6601   25.0721 C   0  0  0  0  0  0
  -25.3746  -31.3698   26.1481 C   0  0  0  0  0  0
  -27.0291  -30.3049   24.6074 C   0  0  0  0  0  0
  -27.6051  -32.4315   25.7474 C   0  0  0  0  0  0
  -27.5580  -37.1808   24.8465 C   0  0  0  0  0  0
  -21.4125  -29.3022   22.3744 N   0  0  0  0  0  0
  -26.4290  -37.3799   23.9415 N   0  0  0  0  0  0
  -24.6630  -31.0809   22.1008 N   0  0  0  0  0  0
  -23.4183  -28.8207   23.3044 O   0  0  0  0  0  0
  -28.4030  -26.7362   20.0882 O   0  0  0  0  0  0
  -26.5589  -34.8928   22.4697 O   0  0  0  0  0  0
  -23.5320  -32.1431   23.7533 O   0  0  0  0  0  0
  -27.3774  -18.8277   19.0143 C   0  0  0  0  0  0
  -28.4791  -18.6185   19.7994 C   0  0  0  0  0  0
  -28.8628  -20.3807   18.4676 C   0  0  0  0  0  0
  -29.3159  -15.6761   23.6356 C   0  0  0  0  0  0
  -25.2641  -19.8013   17.3293 C   0  0  0  0  0  0
  -27.1680  -19.9844   15.7428 C   0  0  0  0  0  0
  -26.4697  -21.9425   17.2052 C   0  0  0  0  0  0
  -28.7578  -17.5536   20.8251 C   0  0  0  0  0  0
  -29.6902  -21.4481   17.7949 C   0  0  0  0  0  0
  -30.0944  -22.6626   18.6633 C   0  0  0  0  0  0
  -29.1557  -23.8860   18.5693 C   0  0  0  0  0  0
  -29.8692  -25.2072   18.9173 C   0  0  0  0  0  0
  -30.5079  -15.6860   22.6614 C   0  0  0  0  0  0
  -29.9880  -16.6922   20.4682 C   0  0  0  0  0  0
  -28.9754  -26.4563   18.8166 C   0  0  0  0  0  0
  -26.6739  -20.4127   17.1408 C   0  0  0  0  0  0
  -27.6156  -19.9170   18.2013 N   0  0  0  0  0  0
  -29.3569  -19.6113   19.4502 N   0  3  0  0  0  0
  -30.1146  -15.4429   21.2572 N   0  0  0  0  0  0
  -31.4604  -12.3612   19.1370 H   0  0  0  0  0  0
  -30.2838  -11.2799   19.8192 H   0  0  0  0  0  0
  -29.7299  -11.7963   17.4186 H   0  0  0  0  0  0
  -29.6800  -13.5030   17.7860 H   0  0  0  0  0  0
  -27.8155  -11.3241   18.7988 H   0  0  0  0  0  0
  -27.3637  -12.6653   17.7841 H   0  0  0  0  0  0
  -27.7064  -14.2595   19.5872 H   0  0  0  0  0  0
  -28.6626  -11.9557   21.3572 H   0  0  0  0  0  0
  -28.4605  -13.6010   21.8637 H   0  0  0  0  0  0
  -25.2751   -9.5667   22.4774 H   0  0  0  0  0  0
  -23.9992   -7.4613   22.7497 H   0  0  0  0  0  0
  -21.0825   -8.8757   19.9002 H   0  0  0  0  0  0
  -22.3696  -10.9639   19.6154 H   0  0  0  0  0  0
  -21.1989   -7.6134   23.9719 H   0  0  0  0  0  0
  -21.1489   -6.0541   25.9102 H   0  0  0  0  0  0
  -22.0603   -2.7607   23.2914 H   0  0  0  0  0  0
  -22.4117  -11.9905   22.4788 H   0  0  0  0  0  0
  -21.1121  -13.1292   22.2578 H   0  0  0  0  0  0
  -24.6626  -15.8381   20.4925 H   0  0  0  0  0  0
  -26.2907  -15.6137   20.0873 H   0  0  0  0  0  0
  -26.7092  -32.5555   23.1173 H   0  0  0  0  0  0
  -25.0061  -33.9790   25.0497 H   0  0  0  0  0  0
  -22.6861  -31.3065   21.4116 H   0  0  0  0  0  0
  -23.3746  -35.9651   23.3310 H   0  0  0  0  0  0
  -24.3581  -36.8918   22.2051 H   0  0  0  0  0  0
  -23.7233  -37.6526   23.6638 H   0  0  0  0  0  0
  -26.0314  -31.6043   20.5916 H   0  0  0  0  0  0
  -26.8138  -30.8975   21.9771 H   0  0  0  0  0  0
  -28.0942  -29.1228   21.1723 H   0  0  0  0  0  0
  -26.0866  -25.9723   19.0229 H   0  0  0  0  0  0
  -23.9831  -27.2801   19.0479 H   0  0  0  0  0  0
  -23.7100  -30.5922   19.4041 H   0  0  0  0  0  0
  -22.7323  -29.2337   19.8745 H   0  0  0  0  0  0
  -25.1277  -36.1985   25.0836 H   0  0  0  0  0  0
  -20.9942  -28.3211   24.1452 H   0  0  0  0  0  0
  -20.5661  -26.2256   23.3607 H   0  0  0  0  0  0
  -21.6626  -26.7444   22.1210 H   0  0  0  0  0  0
  -19.6903  -25.6303   21.1227 H   0  0  0  0  0  0
  -19.6689  -27.3210   20.6757 H   0  0  0  0  0  0
  -17.4196  -26.6682   21.4016 H   0  0  0  0  0  0
  -18.0312  -26.0058   22.9005 H   0  0  0  0  0  0
  -19.7925  -30.7249   24.2289 H   0  0  0  0  0  0
  -17.5008  -31.6263   24.5166 H   0  0  0  0  0  0
  -15.5342  -30.2993   23.7647 H   0  0  0  0  0  0
  -15.8655  -28.0832   22.7049 H   0  0  0  0  0  0
  -24.5920  -30.7040   25.7827 H   0  0  0  0  0  0
  -24.8937  -32.2849   26.4943 H   0  0  0  0  0  0
  -25.8116  -30.8865   27.0227 H   0  0  0  0  0  0
  -26.2819  -29.6811   24.1154 H   0  0  0  0  0  0
  -27.4102  -29.7284   25.4512 H   0  0  0  0  0  0
  -27.8636  -30.4380   23.9186 H   0  0  0  0  0  0
  -27.2676  -33.3602   26.2085 H   0  0  0  0  0  0
  -28.3839  -32.6891   25.0286 H   0  0  0  0  0  0
  -28.0741  -31.8418   26.5361 H   0  0  0  0  0  0
  -28.2606  -38.0100   24.7514 H   0  0  0  0  0  0
  -28.1068  -36.2633   24.6283 H   0  0  0  0  0  0
  -27.2302  -37.1451   25.8870 H   0  0  0  0  0  0
  -20.9290  -29.8739   21.6957 H   0  0  0  0  0  0
  -26.0186  -38.2880   24.1417 H   0  0  0  0  0  0
  -26.4603  -18.2595   18.9789 H   0  0  0  0  0  0
  -28.5075  -16.3328   23.3202 H   0  0  0  0  0  0
  -29.6400  -16.0191   24.6178 H   0  0  0  0  0  0
  -28.9001  -14.6788   23.7731 H   0  0  0  0  0  0
  -24.5561  -20.1969   16.6002 H   0  0  0  0  0  0
  -24.8596  -20.0223   18.3184 H   0  0  0  0  0  0
  -25.2610  -18.7197   17.1946 H   0  0  0  0  0  0
  -26.4631  -20.2898   14.9679 H   0  0  0  0  0  0
  -27.2710  -18.8999   15.6750 H   0  0  0  0  0  0
  -28.1322  -20.4172   15.4820 H   0  0  0  0  0  0
  -25.5981  -22.2479   16.6253 H   0  0  0  0  0  0
  -27.2931  -22.5071   16.7820 H   0  0  0  0  0  0
  -26.3094  -22.2821   18.2289 H   0  0  0  0  0  0
  -27.8741  -16.9192   20.9001 H   0  0  0  0  0  0
  -28.8868  -18.0304   21.7971 H   0  0  0  0  0  0
  -29.2421  -21.7461   16.8549 H   0  0  0  0  0  0
  -30.6023  -20.9264   17.5061 H   0  0  0  0  0  0
  -31.0714  -22.9838   18.2977 H   0  0  0  0  0  0
  -30.2665  -22.3773   19.7023 H   0  0  0  0  0  0
  -28.2832  -23.7412   19.2081 H   0  0  0  0  0  0
  -28.7847  -23.9791   17.5490 H   0  0  0  0  0  0
  -30.6978  -25.3353   18.2204 H   0  0  0  0  0  0
  -30.3178  -25.1495   19.9102 H   0  0  0  0  0  0
  -31.2343  -14.9442   23.0058 H   0  0  0  0  0  0
  -31.0264  -16.6423   22.7442 H   0  0  0  0  0  0
  -30.9006  -17.2844   20.5497 H   0  0  0  0  0  0
  -29.9014  -16.4378   19.4085 H   0  0  0  0  0  0
  -28.2388  -26.3424   18.0212 H   0  0  0  0  0  0
  -29.5868  -27.3194   18.5469 H   0  0  0  0  0  0
  -30.2822  -19.7303   19.8460 H   0  0  0  0  0  0
  1 25  1  0  0  0
  1 30  2  0  0  0
  1 89  1  0  0  0
  2  3  1  0  0  0
  2 25  1  0  0  0
  2 90  1  0  0  0
  2 91  1  0  0  0
  3  4  1  0  0  0
  3 92  1  0  0  0
  3 93  1  0  0  0
  4  5  1  0  0  0
  4 94  1  0  0  0
  4 95  1  0  0  0
  5  6  1  0  0  0
  5 26  1  0  0  0
  5 96  1  0  0  0
  6 25  1  0  0  0
  6 97  1  0  0  0
  6 98  1  0  0  0
  7  8  2  0  0  0
  7 26  1  0  0  0
  7 29  1  0  0  0
  8  9  1  0  0  0
  8 22  1  0  0  0
  9 10  1  0  0  0
  9 27  2  0  0  0
 10 11  2  0  0  0
 10 15  1  0  0  0
 11 12  1  0  0  0
 11 99  1  0  0  0
 12 13  2  0  0  0
 12100  1  0  0  0
 13 14  1  0  0  0
 13 31  1  0  0  0
 14 15  2  0  0  0
 14101  1  0  0  0
 15102  1  0  0  0
 16 17  2  0  0  0
 16 21  1  0  0  0
 16 31  1  0  0  0
 17 18  1  0  0  0
 17103  1  0  0  0
 18 19  2  0  0  0
 18104  1  0  0  0
 19 20  1  0  0  0
 19 24  1  0  0  0
 20 21  2  0  0  0
 20105  1  0  0  0
 21 23  1  0  0  0
 22 28  1  0  0  0
 22 32  2  0  0  0
 26 27  1  0  0  0
 28106  1  0  0  0
 28107  1  0  0  0
 29108  1  0  0  0
 29109  1  0  0  0
 33 34  1  0  0  0
 33 66  1  0  0  0
 33 70  2  0  0  0
 34 36  1  0  0  0
 34 59  1  0  0  0
 34110  1  0  0  0
 35 44  2  0  0  0
 35 45  1  0  0  0
 35 68  1  0  0  0
 36 56  1  0  0  0
 36111  1  0  0  0
 37 39  1  0  0  0
 37 47  1  0  0  0
 37 66  1  0  0  0
 37112  1  0  0  0
 38 43  2  0  0  0
 38 46  1  0  0  0
 38 47  1  0  0  0
 39 64  1  0  0  0
 39 67  2  0  0  0
 40 52  1  0  0  0
 40 53  2  0  0  0
 40 58  1  0  0  0
 41113  1  0  0  0
 41114  1  0  0  0
 41115  1  0  0  0
 41 48  1  0  0  0
 42 43  1  0  0  0
 42 66  1  0  0  0
 42116  1  0  0  0
 42117  1  0  0  0
 43 44  1  0  0  0
 44118  1  0  0  0
 45 46  2  0  0  0
 45119  1  0  0  0
 46120  1  0  0  0
 47121  1  0  0  0
 47122  1  0  0  0
 48 56  1  0  0  0
 48 65  1  0  0  0
 48123  1  0  0  0
 49 50  1  0  0  0
 49 53  1  0  0  0
 49 64  1  0  0  0
 49124  1  0  0  0
 50 51  1  0  0  0
 50125  1  0  0  0
 50126  1  0  0  0
 51 52  1  0  0  0
 51127  1  0  0  0
 51128  1  0  0  0
 52129  1  0  0  0
 52130  1  0  0  0
 53 54  1  0  0  0
 54 55  2  0  0  0
 54131  1  0  0  0
 55 57  1  0  0  0
 55132  1  0  0  0
 56 69  2  0  0  0
 57 58  2  0  0  0
 57133  1  0  0  0
 58134  1  0  0  0
 59 60  1  0  0  0
 59 61  1  0  0  0
 59 62  1  0  0  0
 60135  1  0  0  0
 60136  1  0  0  0
 60137  1  0  0  0
 61138  1  0  0  0
 61139  1  0  0  0
 61140  1  0  0  0
 62141  1  0  0  0
 62142  1  0  0  0
 62143  1  0  0  0
 63 65  1  0  0  0
 63144  1  0  0  0
 63145  1  0  0  0
 63146  1  0  0  0
 64147  1  0  0  0
 65148  1  0  0  0
 68 85  1  0  0  0
 71 72  2  0  0  0
 71 87  1  0  0  0
 71149  1  0  0  0
 72 78  1  0  0  0
 72 88  1  0  0  0
 73 79  1  0  0  0
 73 87  1  0  0  0
 73 88  2  0  0  0
 74 83  1  0  0  0
 74150  1  0  0  0
 74151  1  0  0  0
 74152  1  0  0  0
 75153  1  0  0  0
 75154  1  0  0  0
 75155  1  0  0  0
 75 86  1  0  0  0
 76 86  1  0  0  0
 76156  1  0  0  0
 76157  1  0  0  0
 76158  1  0  0  0
 77 86  1  0  0  0
 77159  1  0  0  0
 77160  1  0  0  0
 77161  1  0  0  0
 78 84  1  0  0  0
 78162  1  0  0  0
 78163  1  0  0  0
 79 80  1  0  0  0
 79164  1  0  0  0
 79165  1  0  0  0
 80 81  1  0  0  0
 80166  1  0  0  0
 80167  1  0  0  0
 81 82  1  0  0  0
 81168  1  0  0  0
 81169  1  0  0  0
 82 85  1  0  0  0
 82170  1  0  0  0
 82171  1  0  0  0
 83 89  1  0  0  0
 83172  1  0  0  0
 83173  1  0  0  0
 84 89  1  0  0  0
 84174  1  0  0  0
 84175  1  0  0  0
 85176  1  0  0  0
 85177  1  0  0  0
 86 87  1  0  0  0
 88178  1  0  0  0
M  CHG  1  88   1
M  ISO  4   1 100  68 101  85 101  89 100
M  END
> <chiral flag>
0

> <version>
0

> <s_m_source_file>
/data/baiqing/PycharmProjects/Reinvent-master-3.2/result/LINK_invent/BTK/process_docking_weight1_custom_sum_contain_oxygen_bond_distance_aromatic_linkinvent_7_9_3/rearranged_h_0051.sdf

> <i_m_source_file_index>
5

> <r_mmod_Potential_Energy-OPLS-2005>
173.792678833008

> <r_mmod_Stretch_Energy-OPLS-2005>
39.5974082946777

> <r_mmod_Bend_Energy-OPLS-2005>
118.606063842773

> <r_mmod_Torsional_Energy-OPLS-2005>
368.350708007812

> <r_mmod_Improper_Torsional_Energy-OPLS-2005>
8.31601142883301

> <r_mmod_Van_der_Waal_Energy-OPLS-2005>
129.212921142578

> <r_mmod_Electrostatic_Energy-OPLS-2005>
-117.200790405273

> <r_mmod_Solvation_Energy-OPLS-2005>
-381.999450683594

> <b_mmod_Minimization_Converged-OPLS-2005>
0

> <r_mmod_RMS_Derivative-OPLS-2005>
2.94964027404785

$$$$
5
                    3D
 Structure written by MMmdl.
179187  0  0  1  0            999 V2000
  -30.6886  -14.4563   20.6092 C   0  0  0  0  0  0
  -30.4340  -12.3061   19.4209 C   0  0  0  0  0  0
  -29.4991  -12.4873   18.2054 C   0  0  0  0  0  0
  -28.0175  -12.3564   18.6084 C   0  0  0  0  0  0
  -27.6648  -13.1898   19.8713 C   0  0  2  0  0  0
  -28.7007  -12.9536   20.9909 C   0  0  0  0  0  0
  -25.2667  -13.8145   20.5631 C   0  0  0  0  0  0
  -24.1882  -13.0482   20.9123 C   0  0  0  0  0  0
  -24.6375  -11.6917   20.8714 C   0  0  0  0  0  0
  -23.9006  -10.4331   21.0398 C   0  0  0  0  0  0
  -24.3587   -9.4267   21.9176 C   0  0  0  0  0  0
  -23.6318   -8.2273   22.0728 C   0  0  0  0  0  0
  -22.4304   -8.0274   21.3515 C   0  0  0  0  0  0
  -21.9897   -9.0239   20.4637 C   0  0  0  0  0  0
  -22.7172  -10.2149   20.3073 C   0  0  0  0  0  0
  -21.6887   -6.0737   22.5259 C   0  0  0  0  0  0
  -21.4042   -6.5643   23.8189 C   0  0  0  0  0  0
  -21.3686   -5.6789   24.9145 C   0  0  0  0  0  0
  -21.6074   -4.3047   24.7203 C   0  0  0  0  0  0
  -21.8811   -3.8140   23.4314 C   0  0  0  0  0  0
  -21.9189   -4.6962   22.3383 C   0  0  0  0  0  0
  -22.7904  -13.5314   21.1776 C   0  0  0  0  0  0
  -22.1662   -4.2147   21.0963 F   0  0  0  0  0  0
  -21.5614   -3.4535   25.7708 F   0  0  0  0  0  0
  -30.0302  -13.2765   20.4488 N   0  0  0  0  0  0
  -26.3044  -12.9251   20.3305 N   0  0  0  0  0  0
  -25.9293  -11.6435   20.5758 N   0  0  0  0  0  0
  -22.0507  -12.8349   22.0324 N   0  0  0  0  0  0
  -25.4605  -15.1868   20.4050 N   0  0  0  0  0  0
  -31.8093  -14.6673   20.1277 O   0  0  0  0  0  0
  -21.6675   -6.8869   21.4218 O   0  0  0  0  0  0
  -22.3635  -14.5642   20.6610 O   0  0  0  0  0  0
  -24.6145  -31.8699   23.2124 C   0  0  0  0  0  0
  -25.9049  -32.4828   23.8404 C   0  0  1  0  0  0
  -27.2313  -27.4538   20.0520 C   0  0  0  0  0  0
  -25.5922  -33.8638   24.2334 N   0  0  0  0  0  0
  -23.3996  -30.4975   21.5555 C   0  0  2  0  0  0
  -24.8401  -28.9684   20.1178 C   0  0  0  0  0  0
  -22.7409  -29.4683   22.5006 C   0  0  0  0  0  0
  -18.0276  -28.1384   22.8485 C   0  0  0  0  0  0
  -24.1491  -36.7309   23.2634 C   0  0  0  0  0  0
  -25.9312  -30.8364   21.3664 C   0  0  0  0  0  0
  -26.0044  -29.4754   20.7066 C   0  0  0  0  0  0
  -27.2008  -28.7235   20.6736 C   0  0  0  0  0  0
  -26.0280  -26.9393   19.5102 C   0  0  0  0  0  0
  -24.8440  -27.6961   19.5264 C   0  0  0  0  0  0
  -23.6038  -29.8351   20.1687 C   0  0  0  0  0  0
  -25.4114  -36.3113   24.0330 C   0  0  1  0  0  0
  -20.5865  -28.3670   23.1328 C   0  0  2  0  0  0
  -20.6774  -26.9408   22.5419 C   0  0  0  0  0  0
  -19.5761  -26.6385   21.5220 C   0  0  0  0  0  0
  -18.1936  -26.7929   22.1618 C   0  0  0  0  0  0
  -19.1520  -28.8845   23.2902 C   0  0  0  0  0  0
  -18.9450  -30.1448   23.8911 C   0  0  0  0  0  0
  -17.6454  -30.6587   24.0566 C   0  0  0  0  0  0
  -25.9047  -34.9477   23.5124 C   0  0  0  0  0  0
  -16.5346  -29.9087   23.6327 C   0  0  0  0  0  0
  -16.7265  -28.6505   23.0348 C   0  0  0  0  0  0
  -26.4475  -31.6609   25.0728 C   0  0  0  0  0  0
  -25.3737  -31.3732   26.1474 C   0  0  0  0  0  0
  -27.0299  -30.3042   24.6118 C   0  0  0  0  0  0
  -27.6063  -32.4319   25.7476 C   0  0  0  0  0  0
  -27.5589  -37.1799   24.8454 C   0  0  0  0  0  0
  -21.4139  -29.3036   22.3734 N   0  0  0  0  0  0
  -26.4294  -37.3799   23.9412 N   0  0  0  0  0  0
  -24.6669  -31.0817   22.1016 N   0  0  0  0  0  0
  -23.4181  -28.8240   23.3057 O   0  0  0  0  0  0
  -28.4202  -26.7502   20.0200 O   0  0  0  0  0  0
  -26.5595  -34.8927   22.4679 O   0  0  0  0  0  0
  -23.5343  -32.1461   23.7528 O   0  0  0  0  0  0
  -29.4028  -22.4490   22.2340 C   0  0  0  0  0  0
  -29.9029  -23.3055   21.2428 C   0  0  0  0  0  0
  -28.0343  -22.1102   22.2270 C   0  0  0  0  0  0
  -29.0274  -23.8001   20.2654 C   0  0  0  0  0  0
  -27.2252  -22.6390   21.1902 C   0  0  0  0  0  0
  -25.3922  -21.3801   19.9637 C   0  0  0  0  0  0
  -29.7409  -16.6537   20.2200 C   0  0  0  0  0  0
  -29.8187  -18.9363   24.5912 C   0  0  0  0  0  0
  -27.5003  -21.2336   23.3567 C   0  0  0  0  0  0
  -29.5567  -24.7092   19.1674 C   0  0  0  0  0  0
  -25.7306  -22.3739   21.0806 C   0  0  0  0  0  0
  -27.4455  -19.7287   23.0146 C   0  0  0  0  0  0
  -28.6298  -16.2101   23.1259 C   0  0  0  0  0  0
  -30.0066  -15.8433   22.5183 C   0  0  0  0  0  0
  -27.3024  -18.8178   24.2650 C   0  0  0  0  0  0
  -28.6769  -16.7159   24.5926 C   0  0  0  0  0  0
  -28.6937  -25.9485   18.8587 C   0  0  0  0  0  0
  -27.7249  -23.4391   20.2192 N   0  0  0  0  0  0
  -29.9337  -15.4798   21.0882 N   0  0  0  0  0  0
  -28.5539  -18.1890   24.7849 N   0  3  1  0  0  0
  -31.4761  -12.4247   19.1153 H   0  0  0  0  0  0
  -30.3588  -11.2934   19.8208 H   0  0  0  0  0  0
  -29.7456  -11.7548   17.4369 H   0  0  0  0  0  0
  -29.6640  -13.4684   17.7581 H   0  0  0  0  0  0
  -27.8095  -11.3002   18.7842 H   0  0  0  0  0  0
  -27.3774  -12.6510   17.7749 H   0  0  0  0  0  0
  -27.7222  -14.2389   19.5812 H   0  0  0  0  0  0
  -28.6789  -11.9147   21.3253 H   0  0  0  0  0  0
  -28.4549  -13.5361   21.8754 H   0  0  0  0  0  0
  -25.2714   -9.5817   22.4756 H   0  0  0  0  0  0
  -24.0063   -7.4705   22.7452 H   0  0  0  0  0  0
  -21.0815   -8.8730   19.8985 H   0  0  0  0  0  0
  -22.3564  -10.9680   19.6225 H   0  0  0  0  0  0
  -21.2057   -7.6159   23.9696 H   0  0  0  0  0  0
  -21.1533   -6.0510   25.9047 H   0  0  0  0  0  0
  -22.0578   -2.7601   23.2789 H   0  0  0  0  0  0
  -22.4046  -12.0016   22.4795 H   0  0  0  0  0  0
  -21.1128  -13.1417   22.2416 H   0  0  0  0  0  0
  -24.7287  -15.8731   20.5382 H   0  0  0  0  0  0
  -26.3325  -15.5974   20.0951 H   0  0  0  0  0  0
  -26.7115  -32.5528   23.1164 H   0  0  0  0  0  0
  -25.0072  -33.9806   25.0476 H   0  0  0  0  0  0
  -22.6875  -31.3142   21.4216 H   0  0  0  0  0  0
  -23.3753  -35.9642   23.3304 H   0  0  0  0  0  0
  -24.3585  -36.8917   22.2046 H   0  0  0  0  0  0
  -23.7244  -37.6518   23.6643 H   0  0  0  0  0  0
  -26.0524  -31.6108   20.6077 H   0  0  0  0  0  0
  -26.8160  -30.8787   21.9892 H   0  0  0  0  0  0
  -28.1064  -29.1220   21.1085 H   0  0  0  0  0  0
  -25.9639  -25.9473   19.0883 H   0  0  0  0  0  0
  -23.9403  -27.2903   19.0937 H   0  0  0  0  0  0
  -23.7114  -30.6113   19.4114 H   0  0  0  0  0  0
  -22.7258  -29.2557   19.8732 H   0  0  0  0  0  0
  -25.1290  -36.1969   25.0821 H   0  0  0  0  0  0
  -20.9954  -28.3235   24.1452 H   0  0  0  0  0  0
  -20.5719  -26.2271   23.3600 H   0  0  0  0  0  0
  -21.6649  -26.7483   22.1201 H   0  0  0  0  0  0
  -19.6937  -25.6298   21.1246 H   0  0  0  0  0  0
  -19.6715  -27.3197   20.6756 H   0  0  0  0  0  0
  -17.4214  -26.6680   21.4005 H   0  0  0  0  0  0
  -18.0329  -26.0068   22.9010 H   0  0  0  0  0  0
  -19.7928  -30.7257   24.2289 H   0  0  0  0  0  0
  -17.5014  -31.6272   24.5158 H   0  0  0  0  0  0
  -15.5348  -30.2998   23.7654 H   0  0  0  0  0  0
  -15.8661  -28.0834   22.7064 H   0  0  0  0  0  0
  -24.5885  -30.7115   25.7795 H   0  0  0  0  0  0
  -24.8957  -32.2904   26.4928 H   0  0  0  0  0  0
  -25.8069  -30.8869   27.0225 H   0  0  0  0  0  0
  -26.2843  -29.6803   24.1172 H   0  0  0  0  0  0
  -27.4060  -29.7280   25.4586 H   0  0  0  0  0  0
  -27.8688  -30.4344   23.9278 H   0  0  0  0  0  0
  -27.2694  -33.3606   26.2097 H   0  0  0  0  0  0
  -28.3840  -32.6909   25.0275 H   0  0  0  0  0  0
  -28.0775  -31.8421   26.5348 H   0  0  0  0  0  0
  -28.2591  -38.0111   24.7536 H   0  0  0  0  0  0
  -28.1100  -36.2648   24.6231 H   0  0  0  0  0  0
  -27.2315  -37.1389   25.8857 H   0  0  0  0  0  0
  -20.9308  -29.8697   21.6896 H   0  0  0  0  0  0
  -26.0179  -38.2869   24.1448 H   0  0  0  0  0  0
  -30.0631  -22.0709   23.0009 H   0  0  0  0  0  0
  -30.9509  -23.5762   21.2345 H   0  0  0  0  0  0
  -24.3178  -21.2119   19.9112 H   0  0  0  0  0  0
  -25.8762  -20.4178   20.1313 H   0  0  0  0  0  0
  -25.7210  -21.7597   18.9963 H   0  0  0  0  0  0
  -28.7171  -17.0184   20.2919 H   0  0  0  0  0  0
  -29.9202  -16.4307   19.1642 H   0  0  0  0  0  0
  -30.4028  -17.4740   20.4985 H   0  0  0  0  0  0
  -29.6919  -20.0038   24.7587 H   0  0  0  0  0  0
  -30.2339  -18.7935   23.5936 H   0  0  0  0  0  0
  -30.5560  -18.6034   25.3207 H   0  0  0  0  0  0
  -26.5277  -21.5828   23.7008 H   0  0  0  0  0  0
  -28.1445  -21.3977   24.2196 H   0  0  0  0  0  0
  -29.6874  -24.1170   18.2604 H   0  0  0  0  0  0
  -30.5523  -25.0490   19.4501 H   0  0  0  0  0  0
  -25.2280  -23.3239   20.8879 H   0  0  0  0  0  0
  -25.3116  -22.0134   22.0168 H   0  0  0  0  0  0
  -28.3041  -19.4323   22.4126 H   0  0  0  0  0  0
  -26.5838  -19.5610   22.3673 H   0  0  0  0  0  0
  -28.0137  -15.3119   23.1280 H   0  0  0  0  0  0
  -28.0985  -16.9179   22.4945 H   0  0  0  0  0  0
  -30.7128  -16.6644   22.6473 H   0  0  0  0  0  0
  -30.4250  -15.0118   23.0899 H   0  0  0  0  0  0
  -26.5687  -18.0362   24.0629 H   0  0  0  0  0  0
  -26.8666  -19.3990   25.0791 H   0  0  0  0  0  0
  -27.8546  -16.2594   25.1451 H   0  0  0  0  0  0
  -29.5778  -16.3546   25.0914 H   0  0  0  0  0  0
  -27.8140  -25.5928   18.3300 H   0  0  0  0  0  0
  -29.2222  -26.5740   18.1387 H   0  0  0  0  0  0
  -28.4143  -18.2569   25.7843 H   0  0  0  0  0  0
  1 25  1  0  0  0
  1 30  2  0  0  0
  1 89  1  0  0  0
  2  3  1  0  0  0
  2 25  1  0  0  0
  2 91  1  0  0  0
  2 92  1  0  0  0
  3  4  1  0  0  0
  3 93  1  0  0  0
  3 94  1  0  0  0
  4  5  1  0  0  0
  4 95  1  0  0  0
  4 96  1  0  0  0
  5  6  1  0  0  0
  5 26  1  0  0  0
  5 97  1  0  0  0
  6 25  1  0  0  0
  6 98  1  0  0  0
  6 99  1  0  0  0
  7  8  2  0  0  0
  7 26  1  0  0  0
  7 29  1  0  0  0
  8  9  1  0  0  0
  8 22  1  0  0  0
  9 10  1  0  0  0
  9 27  2  0  0  0
 10 11  2  0  0  0
 10 15  1  0  0  0
 11 12  1  0  0  0
 11100  1  0  0  0
 12 13  2  0  0  0
 12101  1  0  0  0
 13 14  1  0  0  0
 13 31  1  0  0  0
 14 15  2  0  0  0
 14102  1  0  0  0
 15103  1  0  0  0
 16 17  2  0  0  0
 16 21  1  0  0  0
 16 31  1  0  0  0
 17 18  1  0  0  0
 17104  1  0  0  0
 18 19  2  0  0  0
 18105  1  0  0  0
 19 20  1  0  0  0
 19 24  1  0  0  0
 20 21  2  0  0  0
 20106  1  0  0  0
 21 23  1  0  0  0
 22 28  1  0  0  0
 22 32  2  0  0  0
 26 27  1  0  0  0
 28107  1  0  0  0
 28108  1  0  0  0
 29109  1  0  0  0
 29110  1  0  0  0
 33 34  1  0  0  0
 33 66  1  0  0  0
 33 70  2  0  0  0
 34 36  1  0  0  0
 34 59  1  0  0  0
 34111  1  0  0  0
 35 44  2  0  0  0
 35 45  1  0  0  0
 35 68  1  0  0  0
 36 56  1  0  0  0
 36112  1  0  0  0
 37 39  1  0  0  0
 37 47  1  0  0  0
 37 66  1  0  0  0
 37113  1  0  0  0
 38 43  2  0  0  0
 38 46  1  0  0  0
 38 47  1  0  0  0
 39 64  1  0  0  0
 39 67  2  0  0  0
 40 52  1  0  0  0
 40 53  2  0  0  0
 40 58  1  0  0  0
 41114  1  0  0  0
 41115  1  0  0  0
 41116  1  0  0  0
 41 48  1  0  0  0
 42 43  1  0  0  0
 42 66  1  0  0  0
 42117  1  0  0  0
 42118  1  0  0  0
 43 44  1  0  0  0
 44119  1  0  0  0
 45 46  2  0  0  0
 45120  1  0  0  0
 46121  1  0  0  0
 47122  1  0  0  0
 47123  1  0  0  0
 48 56  1  0  0  0
 48 65  1  0  0  0
 48124  1  0  0  0
 49 50  1  0  0  0
 49 53  1  0  0  0
 49 64  1  0  0  0
 49125  1  0  0  0
 50 51  1  0  0  0
 50126  1  0  0  0
 50127  1  0  0  0
 51 52  1  0  0  0
 51128  1  0  0  0
 51129  1  0  0  0
 52130  1  0  0  0
 52131  1  0  0  0
 53 54  1  0  0  0
 54 55  2  0  0  0
 54132  1  0  0  0
 55 57  1  0  0  0
 55133  1  0  0  0
 56 69  2  0  0  0
 57 58  2  0  0  0
 57134  1  0  0  0
 58135  1  0  0  0
 59 60  1  0  0  0
 59 61  1  0  0  0
 59 62  1  0  0  0
 60136  1  0  0  0
 60137  1  0  0  0
 60138  1  0  0  0
 61139  1  0  0  0
 61140  1  0  0  0
 61141  1  0  0  0
 62142  1  0  0  0
 62143  1  0  0  0
 62144  1  0  0  0
 63 65  1  0  0  0
 63145  1  0  0  0
 63146  1  0  0  0
 63147  1  0  0  0
 64148  1  0  0  0
 65149  1  0  0  0
 68 87  1  0  0  0
 71 72  2  0  0  0
 71 73  1  0  0  0
 71150  1  0  0  0
 72 74  1  0  0  0
 72151  1  0  0  0
 73 75  2  0  0  0
 73 79  1  0  0  0
 74 80  1  0  0  0
 74 88  2  0  0  0
 75 81  1  0  0  0
 75 88  1  0  0  0
 76 81  1  0  0  0
 76152  1  0  0  0
 76153  1  0  0  0
 76154  1  0  0  0
 77 89  1  0  0  0
 77155  1  0  0  0
 77156  1  0  0  0
 77157  1  0  0  0
 78158  1  0  0  0
 78159  1  0  0  0
 78160  1  0  0  0
 78 90  1  0  0  0
 79 82  1  0  0  0
 79161  1  0  0  0
 79162  1  0  0  0
 80 87  1  0  0  0
 80163  1  0  0  0
 80164  1  0  0  0
 81165  1  0  0  0
 81166  1  0  0  0
 82 85  1  0  0  0
 82167  1  0  0  0
 82168  1  0  0  0
 83 84  1  0  0  0
 83 86  1  0  0  0
 83169  1  0  0  0
 83170  1  0  0  0
 84 89  1  0  0  0
 84171  1  0  0  0
 84172  1  0  0  0
 85 90  1  0  0  0
 85173  1  0  0  0
 85174  1  0  0  0
 86 90  1  0  0  0
 86175  1  0  0  0
 86176  1  0  0  0
 87177  1  0  0  0
 87178  1  0  0  0
 90179  1  0  0  0
M  CHG  1  90   1
M  ISO  4   1 100  68 101  87 101  89 100
M  END
> <chiral flag>
0

> <version>
0

> <s_m_source_file>
/data/baiqing/PycharmProjects/Reinvent-master-3.2/result/LINK_invent/BTK/process_docking_weight1_custom_sum_contain_oxygen_bond_distance_aromatic_linkinvent_7_9_3/rearranged_h_0051.sdf

> <i_m_source_file_index>
6

> <r_mmod_Potential_Energy-OPLS-2005>
-102.370147705078

> <r_mmod_Stretch_Energy-OPLS-2005>
39.7207984924316

> <r_mmod_Bend_Energy-OPLS-2005>
121.051361083984

> <r_mmod_Torsional_Energy-OPLS-2005>
316.152923583984

> <r_mmod_Improper_Torsional_Energy-OPLS-2005>
9.30581283569336

> <r_mmod_Van_der_Waal_Energy-OPLS-2005>
150.237655639648

> <r_mmod_Electrostatic_Energy-OPLS-2005>
-286.680694580078

> <r_mmod_Solvation_Energy-OPLS-2005>
-464.125610351562

> <b_mmod_Minimization_Converged-OPLS-2005>
0

> <r_mmod_RMS_Derivative-OPLS-2005>
4.14800548553467

$$$$
6
                    3D
 Structure written by MMmdl.
172180  0  0  1  0            999 V2000
  -30.7003  -14.4638   20.4796 C   0  0  0  0  0  0
  -30.4159  -12.2838   19.4009 C   0  0  0  0  0  0
  -29.4763  -12.4711   18.1901 C   0  0  0  0  0  0
  -27.9981  -12.3506   18.6160 C   0  0  0  0  0  0
  -27.6536  -13.1973   19.8708 C   0  0  2  0  0  0
  -28.7135  -12.9860   20.9794 C   0  0  0  0  0  0
  -25.2610  -13.8126   20.5782 C   0  0  0  0  0  0
  -24.1853  -13.0423   20.9288 C   0  0  0  0  0  0
  -24.6371  -11.6884   20.8813 C   0  0  0  0  0  0
  -23.9021  -10.4276   21.0433 C   0  0  0  0  0  0
  -24.3576   -9.4189   21.9216 C   0  0  0  0  0  0
  -23.6273   -8.2210   22.0739 C   0  0  0  0  0  0
  -22.4253   -8.0250   21.3524 C   0  0  0  0  0  0
  -21.9888   -9.0231   20.4634 C   0  0  0  0  0  0
  -22.7190  -10.2132   20.3078 C   0  0  0  0  0  0
  -21.6842   -6.0714   22.5283 C   0  0  0  0  0  0
  -21.3989   -6.5631   23.8208 C   0  0  0  0  0  0
  -21.3679   -5.6792   24.9186 C   0  0  0  0  0  0
  -21.6059   -4.3053   24.7244 C   0  0  0  0  0  0
  -21.8819   -3.8137   23.4369 C   0  0  0  0  0  0
  -21.9186   -4.6947   22.3406 C   0  0  0  0  0  0
  -22.7873  -13.5227   21.1893 C   0  0  0  0  0  0
  -22.1650   -4.2125   21.0984 F   0  0  0  0  0  0
  -21.5653   -3.4540   25.7763 F   0  0  0  0  0  0
  -30.0285  -13.2872   20.3994 N   0  0  0  0  0  0
  -26.3003  -12.9262   20.3445 N   0  0  0  0  0  0
  -25.9296  -11.6441   20.5882 N   0  0  0  0  0  0
  -22.0482  -12.8219   22.0444 N   0  0  0  0  0  0
  -25.4385  -15.1816   20.4093 N   0  0  0  0  0  0
  -31.9124  -14.5442   20.2553 O   0  0  0  0  0  0
  -21.6627   -6.8842   21.4226 O   0  0  0  0  0  0
  -22.3578  -14.5538   20.6737 O   0  0  0  0  0  0
  -24.6169  -31.8702   23.2148 C   0  0  0  0  0  0
  -25.9080  -32.4819   23.8425 C   0  0  1  0  0  0
  -27.2100  -27.4400   20.0824 C   0  0  0  0  0  0
  -25.5958  -33.8626   24.2360 N   0  0  0  0  0  0
  -23.3981  -30.5012   21.5578 C   0  0  2  0  0  0
  -24.8355  -28.9776   20.1118 C   0  0  0  0  0  0
  -22.7399  -29.4663   22.4975 C   0  0  0  0  0  0
  -18.0276  -28.1373   22.8456 C   0  0  0  0  0  0
  -24.1498  -36.7303   23.2635 C   0  0  0  0  0  0
  -25.9311  -30.8389   21.3642 C   0  0  0  0  0  0
  -26.0009  -29.4789   20.7025 C   0  0  0  0  0  0
  -27.1957  -28.7218   20.6763 C   0  0  0  0  0  0
  -26.0221  -26.9567   19.4835 C   0  0  0  0  0  0
  -24.8406  -27.7140   19.5005 C   0  0  0  0  0  0
  -23.6020  -29.8487   20.1674 C   0  0  0  0  0  0
  -25.4111  -36.3100   24.0341 C   0  0  1  0  0  0
  -20.5872  -28.3626   23.1283 C   0  0  2  0  0  0
  -20.6733  -26.9375   22.5315 C   0  0  0  0  0  0
  -19.5687  -26.6392   21.5114 C   0  0  0  0  0  0
  -18.1914  -26.7915   22.1588 C   0  0  0  0  0  0
  -19.1527  -28.8819   23.2894 C   0  0  0  0  0  0
  -18.9472  -30.1415   23.8945 C   0  0  0  0  0  0
  -17.6480  -30.6542   24.0645 C   0  0  0  0  0  0
  -25.9036  -34.9475   23.5133 C   0  0  0  0  0  0
  -16.5362  -29.9077   23.6333 C   0  0  0  0  0  0
  -16.7262  -28.6525   23.0297 C   0  0  0  0  0  0
  -26.4525  -31.6570   25.0737 C   0  0  0  0  0  0
  -25.3839  -31.3615   26.1509 C   0  0  0  0  0  0
  -27.0355  -30.3024   24.6091 C   0  0  0  0  0  0
  -27.6099  -32.4279   25.7498 C   0  0  0  0  0  0
  -27.5579  -37.1813   24.8480 C   0  0  0  0  0  0
  -21.4127  -29.3025   22.3714 N   0  0  0  0  0  0
  -26.4293  -37.3789   23.9418 N   0  0  0  0  0  0
  -24.6676  -31.0834   22.1032 N   0  0  0  0  0  0
  -23.4169  -28.8184   23.2997 O   0  0  0  0  0  0
  -28.3637  -26.6821   20.1267 O   0  0  0  0  0  0
  -26.5541  -34.8925   22.4658 O   0  0  0  0  0  0
  -23.5373  -32.1443   23.7579 O   0  0  0  0  0  0
  -24.4087  -22.0132   21.1851 C   0  0  0  0  0  0
  -24.2216  -23.3738   20.9437 C   0  0  0  0  0  0
  -25.6924  -21.6128   21.5719 C   0  0  0  0  0  0
  -26.4277  -23.7798   21.4424 C   0  0  0  0  0  0
  -22.8819  -23.9151   20.4942 C   0  0  0  0  0  0
  -28.5796  -24.4517   22.6664 C   0  0  0  0  0  0
  -30.2832  -16.2119   18.8636 C   0  0  0  0  0  0
  -26.5592  -19.5556   19.5611 C   0  0  0  0  0  0
  -25.9868  -20.1592   21.8865 C   0  0  0  0  0  0
  -28.5654  -17.6301   20.5788 C   0  0  0  0  0  0
  -29.1238  -16.2846   21.1075 C   0  0  0  0  0  0
  -27.5599  -18.3308   21.5145 C   0  0  0  0  0  0
  -28.2018  -25.2515   20.2487 C   0  0  0  0  0  0
  -27.5393  -24.8269   21.5942 C   0  0  1  0  0  0
  -25.2290  -24.2460   21.0991 N   0  0  0  0  0  0
  -26.7186  -22.4897   21.6344 N   0  0  0  0  0  0
  -29.9392  -15.5307   20.1278 N   0  0  0  0  0  0
  -27.0162  -19.6137   20.9778 N   0  3  1  0  0  0
  -31.4561  -12.3844   19.0827 H   0  0  0  0  0  0
  -30.3245  -11.2795   19.8158 H   0  0  0  0  0  0
  -29.7017  -11.7325   17.4207 H   0  0  0  0  0  0
  -29.6459  -13.4468   17.7327 H   0  0  0  0  0  0
  -27.8020  -11.2982   18.8203 H   0  0  0  0  0  0
  -27.3409  -12.6281   17.7903 H   0  0  0  0  0  0
  -27.6782  -14.2404   19.5596 H   0  0  0  0  0  0
  -28.6968  -11.9486   21.3181 H   0  0  0  0  0  0
  -28.5132  -13.5832   21.8691 H   0  0  0  0  0  0
  -25.2710   -9.5670   22.4824 H   0  0  0  0  0  0
  -23.9994   -7.4584   22.7435 H   0  0  0  0  0  0
  -21.0840   -8.8737   19.8915 H   0  0  0  0  0  0
  -22.3634  -10.9691   19.6215 H   0  0  0  0  0  0
  -21.1940   -7.6139   23.9705 H   0  0  0  0  0  0
  -21.1526   -6.0528   25.9092 H   0  0  0  0  0  0
  -22.0587   -2.7602   23.2884 H   0  0  0  0  0  0
  -22.4060  -11.9874   22.4822 H   0  0  0  0  0  0
  -21.1094  -13.1246   22.2616 H   0  0  0  0  0  0
  -24.6606  -15.8265   20.4653 H   0  0  0  0  0  0
  -26.2697  -15.5848   19.9978 H   0  0  0  0  0  0
  -26.7120  -32.5510   23.1141 H   0  0  0  0  0  0
  -25.0245  -33.9801   25.0605 H   0  0  0  0  0  0
  -22.6861  -31.3202   21.4313 H   0  0  0  0  0  0
  -23.3758  -35.9636   23.3298 H   0  0  0  0  0  0
  -24.3611  -36.8915   22.2055 H   0  0  0  0  0  0
  -23.7275  -37.6518   23.6645 H   0  0  0  0  0  0
  -26.0463  -31.6090   20.6006 H   0  0  0  0  0  0
  -26.8184  -30.8806   21.9846 H   0  0  0  0  0  0
  -28.0963  -29.1087   21.1330 H   0  0  0  0  0  0
  -25.9675  -25.9872   19.0150 H   0  0  0  0  0  0
  -23.9411  -27.3187   19.0499 H   0  0  0  0  0  0
  -23.7231  -30.6391   19.4273 H   0  0  0  0  0  0
  -22.7223  -29.2840   19.8533 H   0  0  0  0  0  0
  -25.1281  -36.1927   25.0830 H   0  0  0  0  0  0
  -21.0000  -28.3124   24.1392 H   0  0  0  0  0  0
  -21.6601  -26.7337   22.1125 H   0  0  0  0  0  0
  -20.5567  -26.2245   23.3474 H   0  0  0  0  0  0
  -19.6758  -25.6308   21.1086 H   0  0  0  0  0  0
  -19.6582  -27.3227   20.6669 H   0  0  0  0  0  0
  -17.4116  -26.6668   21.4053 H   0  0  0  0  0  0
  -18.0367  -26.0082   22.9030 H   0  0  0  0  0  0
  -19.7957  -30.7207   24.2328 H   0  0  0  0  0  0
  -17.5012  -31.6180   24.5337 H   0  0  0  0  0  0
  -15.5380  -30.3002   23.7650 H   0  0  0  0  0  0
  -15.8636  -28.0903   22.6983 H   0  0  0  0  0  0
  -24.6038  -30.6916   25.7863 H   0  0  0  0  0  0
  -24.9018  -32.2743   26.5001 H   0  0  0  0  0  0
  -25.8281  -30.8783   27.0228 H   0  0  0  0  0  0
  -26.2873  -29.6735   24.1267 H   0  0  0  0  0  0
  -27.4249  -29.7295   25.4514 H   0  0  0  0  0  0
  -27.8655  -30.4328   23.9151 H   0  0  0  0  0  0
  -27.2717  -33.3566   26.2094 H   0  0  0  0  0  0
  -28.3918  -32.6846   25.0339 H   0  0  0  0  0  0
  -28.0762  -31.8402   26.5412 H   0  0  0  0  0  0
  -28.2584  -38.0120   24.7513 H   0  0  0  0  0  0
  -28.1085  -36.2657   24.6291 H   0  0  0  0  0  0
  -27.2320  -37.1436   25.8892 H   0  0  0  0  0  0
  -20.9258  -29.8820   21.7016 H   0  0  0  0  0  0
  -26.0164  -38.2852   24.1437 H   0  0  0  0  0  0
  -23.5915  -21.3092   21.0825 H   0  0  0  0  0  0
  -22.4578  -23.2832   19.7132 H   0  0  0  0  0  0
  -22.9711  -24.9253   20.0941 H   0  0  0  0  0  0
  -22.1813  -23.9328   21.3292 H   0  0  0  0  0  0
  -28.0978  -24.1606   23.6011 H   0  0  0  0  0  0
  -29.2392  -25.2930   22.8694 H   0  0  0  0  0  0
  -29.1998  -23.6178   22.3428 H   0  0  0  0  0  0
  -30.8126  -17.1472   19.0466 H   0  0  0  0  0  0
  -29.3920  -16.4100   18.2697 H   0  0  0  0  0  0
  -30.9210  -15.6088   18.2178 H   0  0  0  0  0  0
  -26.1037  -20.4915   19.2351 H   0  0  0  0  0  0
  -25.8363  -18.7557   19.4023 H   0  0  0  0  0  0
  -27.3960  -19.3916   18.8804 H   0  0  0  0  0  0
  -25.0790  -19.5592   21.8160 H   0  0  0  0  0  0
  -26.3191  -20.1067   22.9247 H   0  0  0  0  0  0
  -28.0512  -17.4192   19.6435 H   0  0  0  0  0  0
  -29.3810  -18.3204   20.3630 H   0  0  0  0  0  0
  -28.2740  -15.6752   21.4106 H   0  0  0  0  0  0
  -29.7122  -16.4534   22.0105 H   0  0  0  0  0  0
  -28.0381  -18.5345   22.4736 H   0  0  0  0  0  0
  -26.7362  -17.6453   21.7243 H   0  0  0  0  0  0
  -27.6609  -24.8489   19.3932 H   0  0  0  0  0  0
  -29.1851  -24.7883   20.1649 H   0  0  0  0  0  0
  -27.0282  -25.6990   22.0011 H   0  0  0  0  0  0
  -27.7333  -20.3259   21.0170 H   0  0  0  0  0  0
  1 25  1  0  0  0
  1 30  2  0  0  0
  1 87  1  0  0  0
  2  3  1  0  0  0
  2 25  1  0  0  0
  2 89  1  0  0  0
  2 90  1  0  0  0
  3  4  1  0  0  0
  3 91  1  0  0  0
  3 92  1  0  0  0
  4  5  1  0  0  0
  4 93  1  0  0  0
  4 94  1  0  0  0
  5  6  1  0  0  0
  5 26  1  0  0  0
  5 95  1  0  0  0
  6 25  1  0  0  0
  6 96  1  0  0  0
  6 97  1  0  0  0
  7  8  2  0  0  0
  7 26  1  0  0  0
  7 29  1  0  0  0
  8  9  1  0  0  0
  8 22  1  0  0  0
  9 10  1  0  0  0
  9 27  2  0  0  0
 10 11  2  0  0  0
 10 15  1  0  0  0
 11 12  1  0  0  0
 11 98  1  0  0  0
 12 13  2  0  0  0
 12 99  1  0  0  0
 13 14  1  0  0  0
 13 31  1  0  0  0
 14 15  2  0  0  0
 14100  1  0  0  0
 15101  1  0  0  0
 16 17  2  0  0  0
 16 21  1  0  0  0
 16 31  1  0  0  0
 17 18  1  0  0  0
 17102  1  0  0  0
 18 19  2  0  0  0
 18103  1  0  0  0
 19 20  1  0  0  0
 19 24  1  0  0  0
 20 21  2  0  0  0
 20104  1  0  0  0
 21 23  1  0  0  0
 22 28  1  0  0  0
 22 32  2  0  0  0
 26 27  1  0  0  0
 28105  1  0  0  0
 28106  1  0  0  0
 29107  1  0  0  0
 29108  1  0  0  0
 33 34  1  0  0  0
 33 66  1  0  0  0
 33 70  2  0  0  0
 34 36  1  0  0  0
 34 59  1  0  0  0
 34109  1  0  0  0
 35 44  2  0  0  0
 35 45  1  0  0  0
 35 68  1  0  0  0
 36 56  1  0  0  0
 36110  1  0  0  0
 37 39  1  0  0  0
 37 47  1  0  0  0
 37 66  1  0  0  0
 37111  1  0  0  0
 38 43  2  0  0  0
 38 46  1  0  0  0
 38 47  1  0  0  0
 39 64  1  0  0  0
 39 67  2  0  0  0
 40 52  1  0  0  0
 40 53  2  0  0  0
 40 58  1  0  0  0
 41112  1  0  0  0
 41113  1  0  0  0
 41114  1  0  0  0
 41 48  1  0  0  0
 42 43  1  0  0  0
 42 66  1  0  0  0
 42115  1  0  0  0
 42116  1  0  0  0
 43 44  1  0  0  0
 44117  1  0  0  0
 45 46  2  0  0  0
 45118  1  0  0  0
 46119  1  0  0  0
 47120  1  0  0  0
 47121  1  0  0  0
 48 56  1  0  0  0
 48 65  1  0  0  0
 48122  1  0  0  0
 49 50  1  0  0  0
 49 53  1  0  0  0
 49 64  1  0  0  0
 49123  1  0  0  0
 50 51  1  0  0  0
 50124  1  0  0  0
 50125  1  0  0  0
 51 52  1  0  0  0
 51126  1  0  0  0
 51127  1  0  0  0
 52128  1  0  0  0
 52129  1  0  0  0
 53 54  1  0  0  0
 54 55  2  0  0  0
 54130  1  0  0  0
 55 57  1  0  0  0
 55131  1  0  0  0
 56 69  2  0  0  0
 57 58  2  0  0  0
 57132  1  0  0  0
 58133  1  0  0  0
 59 60  1  0  0  0
 59 61  1  0  0  0
 59 62  1  0  0  0
 60134  1  0  0  0
 60135  1  0  0  0
 60136  1  0  0  0
 61137  1  0  0  0
 61138  1  0  0  0
 61139  1  0  0  0
 62140  1  0  0  0
 62141  1  0  0  0
 62142  1  0  0  0
 63 65  1  0  0  0
 63143  1  0  0  0
 63144  1  0  0  0
 63145  1  0  0  0
 64146  1  0  0  0
 65147  1  0  0  0
 68 83  1  0  0  0
 71 72  2  0  0  0
 71 73  1  0  0  0
 71148  1  0  0  0
 72 75  1  0  0  0
 72 85  1  0  0  0
 73 79  1  0  0  0
 73 86  2  0  0  0
 74 84  1  0  0  0
 74 85  2  0  0  0
 74 86  1  0  0  0
 75149  1  0  0  0
 75150  1  0  0  0
 75151  1  0  0  0
 76152  1  0  0  0
 76153  1  0  0  0
 76154  1  0  0  0
 76 84  1  0  0  0
 77 87  1  0  0  0
 77155  1  0  0  0
 77156  1  0  0  0
 77157  1  0  0  0
 78158  1  0  0  0
 78159  1  0  0  0
 78160  1  0  0  0
 78 88  1  0  0  0
 79 88  1  0  0  0
 79161  1  0  0  0
 79162  1  0  0  0
 80 81  1  0  0  0
 80 82  1  0  0  0
 80163  1  0  0  0
 80164  1  0  0  0
 81 87  1  0  0  0
 81165  1  0  0  0
 81166  1  0  0  0
 82 88  1  0  0  0
 82167  1  0  0  0
 82168  1  0  0  0
 83 84  1  0  0  0
 83169  1  0  0  0
 83170  1  0  0  0
 84171  1  0  0  0
 88172  1  0  0  0
M  CHG  1  88   1
M  ISO  4   1 100  68 101  83 101  87 100
M  END
> <chiral flag>
0

> <version>
0

> <s_m_source_file>
/data/baiqing/PycharmProjects/Reinvent-master-3.2/result/LINK_invent/BTK/process_docking_weight1_custom_sum_contain_oxygen_bond_distance_aromatic_linkinvent_7_9_3/rearranged_h_0051.sdf

> <i_m_source_file_index>
7

> <r_mmod_Potential_Energy-OPLS-2005>
-453.627746582031

> <r_mmod_Stretch_Energy-OPLS-2005>
39.0497398376465

> <r_mmod_Bend_Energy-OPLS-2005>
108.562438964844

> <r_mmod_Torsional_Energy-OPLS-2005>
296.316589355469

> <r_mmod_Improper_Torsional_Energy-OPLS-2005>
26.3907318115234

> <r_mmod_Van_der_Waal_Energy-OPLS-2005>
168.469604492188

> <r_mmod_Electrostatic_Energy-OPLS-2005>
-658.602111816406

> <r_mmod_Solvation_Energy-OPLS-2005>
-457.849395751953

> <b_mmod_Minimization_Converged-OPLS-2005>
0

> <r_mmod_RMS_Derivative-OPLS-2005>
4.387770652771

$$$$
8
                    3D
 Structure written by MMmdl.
160168  0  0  1  0            999 V2000
  -30.7214  -14.3766   20.6127 C   0  0  0  0  0  0
  -30.4099  -12.2627   19.3796 C   0  0  0  0  0  0
  -29.4728  -12.5467   18.1861 C   0  0  0  0  0  0
  -27.9907  -12.4073   18.6012 C   0  0  0  0  0  0
  -27.6662  -13.1951   19.8995 C   0  0  2  0  0  0
  -28.7178  -12.8709   20.9859 C   0  0  0  0  0  0
  -25.2602  -13.8111   20.5802 C   0  0  0  0  0  0
  -24.1819  -13.0402   20.9218 C   0  0  0  0  0  0
  -24.6350  -11.6863   20.8736 C   0  0  0  0  0  0
  -23.9005  -10.4260   21.0383 C   0  0  0  0  0  0
  -24.3586   -9.4198   21.9171 C   0  0  0  0  0  0
  -23.6267   -8.2233   22.0760 C   0  0  0  0  0  0
  -22.4259   -8.0262   21.3551 C   0  0  0  0  0  0
  -21.9878   -9.0209   20.4653 C   0  0  0  0  0  0
  -22.7190  -10.2099   20.3043 C   0  0  0  0  0  0
  -21.6869   -6.0723   22.5265 C   0  0  0  0  0  0
  -21.4028   -6.5630   23.8199 C   0  0  0  0  0  0
  -21.3665   -5.6807   24.9161 C   0  0  0  0  0  0
  -21.6033   -4.3052   24.7233 C   0  0  0  0  0  0
  -21.8823   -3.8134   23.4354 C   0  0  0  0  0  0
  -21.9212   -4.6942   22.3413 C   0  0  0  0  0  0
  -22.7867  -13.5241   21.1865 C   0  0  0  0  0  0
  -22.1686   -4.2125   21.0990 F   0  0  0  0  0  0
  -21.5604   -3.4539   25.7746 F   0  0  0  0  0  0
  -30.0452  -13.2063   20.4451 N   0  0  0  0  0  0
  -26.3036  -12.9262   20.3547 N   0  0  0  0  0  0
  -25.9280  -11.6417   20.5815 N   0  0  0  0  0  0
  -22.0523  -12.8247   22.0445 N   0  0  0  0  0  0
  -25.4290  -15.1828   20.4271 N   0  0  0  0  0  0
  -31.8246  -14.5725   20.0905 O   0  0  0  0  0  0
  -21.6654   -6.8840   21.4228 O   0  0  0  0  0  0
  -22.3546  -14.5564   20.6731 O   0  0  0  0  0  0
  -24.6109  -31.8728   23.2141 C   0  0  0  0  0  0
  -25.9017  -32.4862   23.8420 C   0  0  1  0  0  0
  -27.2348  -27.4427   20.0762 C   0  0  0  0  0  0
  -25.5884  -33.8669   24.2313 N   0  0  0  0  0  0
  -23.3985  -30.4960   21.5587 C   0  0  2  0  0  0
  -24.8404  -28.9672   20.1136 C   0  0  0  0  0  0
  -22.7410  -29.4645   22.5023 C   0  0  0  0  0  0
  -18.0296  -28.1370   22.8505 C   0  0  0  0  0  0
  -24.1497  -36.7345   23.2641 C   0  0  0  0  0  0
  -25.9320  -30.8253   21.3830 C   0  0  0  0  0  0
  -26.0017  -29.4662   20.7176 C   0  0  0  0  0  0
  -27.1978  -28.7138   20.6986 C   0  0  0  0  0  0
  -26.0539  -26.9637   19.4560 C   0  0  0  0  0  0
  -24.8626  -27.7112   19.4817 C   0  0  0  0  0  0
  -23.6054  -29.8397   20.1683 C   0  0  0  0  0  0
  -25.4138  -36.3149   24.0313 C   0  0  1  0  0  0
  -20.5880  -28.3660   23.1347 C   0  0  2  0  0  0
  -20.6793  -26.9399   22.5440 C   0  0  0  0  0  0
  -19.5763  -26.6355   21.5245 C   0  0  0  0  0  0
  -18.1939  -26.7919   22.1623 C   0  0  0  0  0  0
  -19.1547  -28.8837   23.2907 C   0  0  0  0  0  0
  -18.9449  -30.1440   23.8907 C   0  0  0  0  0  0
  -17.6452  -30.6577   24.0560 C   0  0  0  0  0  0
  -25.9056  -34.9507   23.5116 C   0  0  0  0  0  0
  -16.5344  -29.9072   23.6328 C   0  0  0  0  0  0
  -16.7282  -28.6485   23.0364 C   0  0  0  0  0  0
  -26.4445  -31.6704   25.0799 C   0  0  0  0  0  0
  -25.3720  -31.3845   26.1555 C   0  0  0  0  0  0
  -27.0343  -30.3146   24.6276 C   0  0  0  0  0  0
  -27.5975  -32.4524   25.7568 C   0  0  0  0  0  0
  -27.5600  -37.1852   24.8447 C   0  0  0  0  0  0
  -21.4151  -29.3013   22.3754 N   0  0  0  0  0  0
  -26.4334  -37.3816   23.9362 N   0  0  0  0  0  0
  -24.6647  -31.0801   22.1073 N   0  0  0  0  0  0
  -23.4188  -28.8197   23.3068 O   0  0  0  0  0  0
  -28.4220  -26.7311   20.0199 O   0  0  0  0  0  0
  -26.5617  -34.8943   22.4675 O   0  0  0  0  0  0
  -23.5293  -32.1512   23.7511 O   0  0  0  0  0  0
  -27.5258  -23.5194   21.1485 C   0  0  0  0  0  0
  -28.0784  -22.7383   20.1009 C   0  0  0  0  0  0
  -28.3619  -25.3791   20.1333 C   0  0  0  0  0  0
  -26.7082  -22.9358   22.2815 C   0  0  0  0  0  0
  -30.2826  -18.5172   22.4725 C   0  0  0  0  0  0
  -27.6806  -21.2785   19.8456 C   0  0  0  0  0  0
  -28.2036  -20.1870   20.8230 C   0  0  0  0  0  0
  -29.3335  -19.2360   20.3167 C   0  0  0  0  0  0
  -30.2318  -16.8984   20.6095 C   0  0  0  0  0  0
  -30.0981  -15.5514   21.3949 C   0  0  2  0  0  0
  -27.6870  -24.8615   21.1667 N   0  0  0  0  0  0
  -28.8380  -23.3397   19.1491 N   0  0  0  0  0  0
  -28.9776  -24.6778   19.1626 N   0  0  0  0  0  0
  -29.5663  -18.0831   21.2476 N   0  3  1  0  0  0
  -30.7209  -15.6135   22.5761 F   0  0  0  0  0  0
  -31.4545  -12.3446   19.0736 H   0  0  0  0  0  0
  -30.2868  -11.2332   19.7167 H   0  0  0  0  0  0
  -29.6899  -11.8796   17.3536 H   0  0  0  0  0  0
  -29.6553  -13.5600   17.8258 H   0  0  0  0  0  0
  -27.7757  -11.3464   18.7415 H   0  0  0  0  0  0
  -27.3369  -12.7398   17.7926 H   0  0  0  0  0  0
  -27.7345  -14.2589   19.6677 H   0  0  0  0  0  0
  -28.6793  -11.7964   21.1862 H   0  0  0  0  0  0
  -28.5043  -13.3303   21.9509 H   0  0  0  0  0  0
  -25.2706   -9.5715   22.4755 H   0  0  0  0  0  0
  -23.9979   -7.4642   22.7479 H   0  0  0  0  0  0
  -21.0808   -8.8692   19.8952 H   0  0  0  0  0  0
  -22.3611  -10.9623   19.6155 H   0  0  0  0  0  0
  -21.2028   -7.6132   23.9686 H   0  0  0  0  0  0
  -21.1499   -6.0539   25.9071 H   0  0  0  0  0  0
  -22.0611   -2.7590   23.2875 H   0  0  0  0  0  0
  -22.4211  -11.9957   22.4857 H   0  0  0  0  0  0
  -21.1168  -13.1276   22.2729 H   0  0  0  0  0  0
  -26.2637  -15.6344   20.0809 H   0  0  0  0  0  0
  -24.6475  -15.8215   20.5329 H   0  0  0  0  0  0
  -26.7094  -32.5514   23.1174 H   0  0  0  0  0  0
  -25.0036  -33.9876   25.0454 H   0  0  0  0  0  0
  -22.6863  -31.3128   21.4276 H   0  0  0  0  0  0
  -23.3767  -35.9674   23.3333 H   0  0  0  0  0  0
  -24.3574  -36.8951   22.2051 H   0  0  0  0  0  0
  -23.7250  -37.6553   23.6658 H   0  0  0  0  0  0
  -26.0792  -31.5994   20.6309 H   0  0  0  0  0  0
  -26.8058  -30.8459   22.0248 H   0  0  0  0  0  0
  -28.0962  -29.1069   21.1546 H   0  0  0  0  0  0
  -26.0482  -26.0112   18.9419 H   0  0  0  0  0  0
  -23.9742  -27.3272   18.9992 H   0  0  0  0  0  0
  -23.7242  -30.6280   19.4235 H   0  0  0  0  0  0
  -22.7238  -29.2730   19.8613 H   0  0  0  0  0  0
  -25.1322  -36.2042   25.0812 H   0  0  0  0  0  0
  -20.9947  -28.3218   24.1470 H   0  0  0  0  0  0
  -20.5764  -26.2246   23.3619 H   0  0  0  0  0  0
  -21.6661  -26.7494   22.1183 H   0  0  0  0  0  0
  -19.6936  -25.6249   21.1307 H   0  0  0  0  0  0
  -19.6727  -27.3150   20.6763 H   0  0  0  0  0  0
  -17.4220  -26.6721   21.3995 H   0  0  0  0  0  0
  -18.0291  -26.0056   22.9005 H   0  0  0  0  0  0
  -19.7928  -30.7275   24.2270 H   0  0  0  0  0  0
  -17.5000  -31.6263   24.5146 H   0  0  0  0  0  0
  -15.5335  -30.2959   23.7662 H   0  0  0  0  0  0
  -15.8688  -28.0790   22.7090 H   0  0  0  0  0  0
  -24.5739  -30.7385   25.7864 H   0  0  0  0  0  0
  -24.9095  -32.3040   26.5147 H   0  0  0  0  0  0
  -25.8029  -30.8840   27.0231 H   0  0  0  0  0  0
  -26.2898  -29.6844   24.1381 H   0  0  0  0  0  0
  -27.4136  -29.7466   25.4782 H   0  0  0  0  0  0
  -27.8726  -30.4458   23.9439 H   0  0  0  0  0  0
  -27.2460  -33.3730   26.2237 H   0  0  0  0  0  0
  -28.3697  -32.7294   25.0390 H   0  0  0  0  0  0
  -28.0759  -31.8680   26.5430 H   0  0  0  0  0  0
  -28.2612  -38.0149   24.7471 H   0  0  0  0  0  0
  -28.1103  -36.2678   24.6313 H   0  0  0  0  0  0
  -27.2299  -37.1536   25.8842 H   0  0  0  0  0  0
  -20.9333  -29.8716   21.6958 H   0  0  0  0  0  0
  -26.0242  -38.2916   24.1311 H   0  0  0  0  0  0
  -27.3764  -22.4909   23.0187 H   0  0  0  0  0  0
  -25.9961  -22.1815   21.9447 H   0  0  0  0  0  0
  -26.1457  -23.7172   22.7887 H   0  0  0  0  0  0
  -30.2410  -17.7697   23.2600 H   0  0  0  0  0  0
  -29.8574  -19.4218   22.9037 H   0  0  0  0  0  0
  -31.3332  -18.7180   22.2520 H   0  0  0  0  0  0
  -27.8807  -21.0191   18.8067 H   0  0  0  0  0  0
  -26.5920  -21.2884   19.9216 H   0  0  0  0  0  0
  -27.3481  -19.5399   21.0340 H   0  0  0  0  0  0
  -28.4520  -20.6476   21.7770 H   0  0  0  0  0  0
  -30.2645  -19.7856   20.1789 H   0  0  0  0  0  0
  -29.0638  -18.8653   19.3264 H   0  0  0  0  0  0
  -29.8111  -16.7401   19.6149 H   0  0  0  0  0  0
  -31.2847  -17.1330   20.4409 H   0  0  0  0  0  0
  -29.0485  -15.3706   21.6101 H   0  0  0  0  0  0
  -28.6474  -17.7708   21.5264 H   0  0  0  0  0  0
  1 25  1  0  0  0
  1 30  2  0  0  0
  1 80  1  0  0  0
  2  3  1  0  0  0
  2 25  1  0  0  0
  2 86  1  0  0  0
  2 87  1  0  0  0
  3  4  1  0  0  0
  3 88  1  0  0  0
  3 89  1  0  0  0
  4  5  1  0  0  0
  4 90  1  0  0  0
  4 91  1  0  0  0
  5  6  1  0  0  0
  5 26  1  0  0  0
  5 92  1  0  0  0
  6 25  1  0  0  0
  6 93  1  0  0  0
  6 94  1  0  0  0
  7  8  2  0  0  0
  7 26  1  0  0  0
  7 29  1  0  0  0
  8  9  1  0  0  0
  8 22  1  0  0  0
  9 10  1  0  0  0
  9 27  2  0  0  0
 10 11  2  0  0  0
 10 15  1  0  0  0
 11 12  1  0  0  0
 11 95  1  0  0  0
 12 13  2  0  0  0
 12 96  1  0  0  0
 13 14  1  0  0  0
 13 31  1  0  0  0
 14 15  2  0  0  0
 14 97  1  0  0  0
 15 98  1  0  0  0
 16 17  2  0  0  0
 16 21  1  0  0  0
 16 31  1  0  0  0
 17 18  1  0  0  0
 17 99  1  0  0  0
 18 19  2  0  0  0
 18100  1  0  0  0
 19 20  1  0  0  0
 19 24  1  0  0  0
 20 21  2  0  0  0
 20101  1  0  0  0
 21 23  1  0  0  0
 22 28  1  0  0  0
 22 32  2  0  0  0
 26 27  1  0  0  0
 28102  1  0  0  0
 28103  1  0  0  0
 29104  1  0  0  0
 29105  1  0  0  0
 33 34  1  0  0  0
 33 66  1  0  0  0
 33 70  2  0  0  0
 34 36  1  0  0  0
 34 59  1  0  0  0
 34106  1  0  0  0
 35 44  2  0  0  0
 35 45  1  0  0  0
 35 68  1  0  0  0
 36 56  1  0  0  0
 36107  1  0  0  0
 37 39  1  0  0  0
 37 47  1  0  0  0
 37 66  1  0  0  0
 37108  1  0  0  0
 38 43  2  0  0  0
 38 46  1  0  0  0
 38 47  1  0  0  0
 39 64  1  0  0  0
 39 67  2  0  0  0
 40 52  1  0  0  0
 40 53  2  0  0  0
 40 58  1  0  0  0
 41109  1  0  0  0
 41110  1  0  0  0
 41111  1  0  0  0
 41 48  1  0  0  0
 42 43  1  0  0  0
 42 66  1  0  0  0
 42112  1  0  0  0
 42113  1  0  0  0
 43 44  1  0  0  0
 44114  1  0  0  0
 45 46  2  0  0  0
 45115  1  0  0  0
 46116  1  0  0  0
 47117  1  0  0  0
 47118  1  0  0  0
 48 56  1  0  0  0
 48 65  1  0  0  0
 48119  1  0  0  0
 49 50  1  0  0  0
 49 53  1  0  0  0
 49 64  1  0  0  0
 49120  1  0  0  0
 50 51  1  0  0  0
 50121  1  0  0  0
 50122  1  0  0  0
 51 52  1  0  0  0
 51123  1  0  0  0
 51124  1  0  0  0
 52125  1  0  0  0
 52126  1  0  0  0
 53 54  1  0  0  0
 54 55  2  0  0  0
 54127  1  0  0  0
 55 57  1  0  0  0
 55128  1  0  0  0
 56 69  2  0  0  0
 57 58  2  0  0  0
 57129  1  0  0  0
 58130  1  0  0  0
 59 60  1  0  0  0
 59 61  1  0  0  0
 59 62  1  0  0  0
 60131  1  0  0  0
 60132  1  0  0  0
 60133  1  0  0  0
 61134  1  0  0  0
 61135  1  0  0  0
 61136  1  0  0  0
 62137  1  0  0  0
 62138  1  0  0  0
 62139  1  0  0  0
 63 65  1  0  0  0
 63140  1  0  0  0
 63141  1  0  0  0
 63142  1  0  0  0
 64143  1  0  0  0
 65144  1  0  0  0
 68 73  1  0  0  0
 71 72  2  0  0  0
 71 74  1  0  0  0
 71 81  1  0  0  0
 72 76  1  0  0  0
 72 82  1  0  0  0
 73 81  2  0  0  0
 73 83  1  0  0  0
 74145  1  0  0  0
 74146  1  0  0  0
 74147  1  0  0  0
 75148  1  0  0  0
 75149  1  0  0  0
 75150  1  0  0  0
 75 84  1  0  0  0
 76 77  1  0  0  0
 76151  1  0  0  0
 76152  1  0  0  0
 77 78  1  0  0  0
 77153  1  0  0  0
 77154  1  0  0  0
 78 84  1  0  0  0
 78155  1  0  0  0
 78156  1  0  0  0
 79 80  1  0  0  0
 79 84  1  0  0  0
 79157  1  0  0  0
 79158  1  0  0  0
 80 85  1  0  0  0
 80159  1  0  0  0
 82 83  2  0  0  0
 84160  1  0  0  0
M  CHG  1  84   1
M  ISO  4   1 100  68 101  73 101  80 100
M  END
> <chiral flag>
0

> <version>
0

> <s_m_source_file>
/data/baiqing/PycharmProjects/Reinvent-master-3.2/result/LINK_invent/BTK/process_docking_weight1_custom_sum_contain_oxygen_bond_distance_aromatic_linkinvent_7_9_3/rearranged_h_0051.sdf

> <i_m_source_file_index>
8

> <r_mmod_Potential_Energy-OPLS-2005>
-100.779525756836

> <r_mmod_Stretch_Energy-OPLS-2005>
43.2070770263672

> <r_mmod_Bend_Energy-OPLS-2005>
113.676208496094

> <r_mmod_Torsional_Energy-OPLS-2005>
206.489593505859

> <r_mmod_Improper_Torsional_Energy-OPLS-2005>
3.51223039627075

> <r_mmod_Van_der_Waal_Energy-OPLS-2005>
170.538101196289

> <r_mmod_Electrostatic_Energy-OPLS-2005>
-174.413940429688

> <r_mmod_Solvation_Energy-OPLS-2005>
-474.751861572266

> <b_mmod_Minimization_Converged-OPLS-2005>
0

> <r_mmod_RMS_Derivative-OPLS-2005>
5.46358299255371

$$$$
9
                    3D
 Structure written by MMmdl.
162170  0  0  1  0            999 V2000
  -30.6657  -14.7404   20.6251 C   0  0  0  0  0  0
  -30.4336  -12.4870   19.5083 C   0  0  0  0  0  0
  -29.5421  -12.5587   18.2524 C   0  0  0  0  0  0
  -28.0621  -12.3673   18.6252 C   0  0  0  0  0  0
  -27.6441  -13.2468   19.8290 C   0  0  2  0  0  0
  -28.6628  -13.1923   20.9848 C   0  0  0  0  0  0
  -25.2539  -13.8226   20.5599 C   0  0  0  0  0  0
  -24.1865  -13.0462   20.9137 C   0  0  0  0  0  0
  -24.6458  -11.6936   20.8654 C   0  0  0  0  0  0
  -23.9118  -10.4323   21.0365 C   0  0  0  0  0  0
  -24.3667   -9.4249   21.9144 C   0  0  0  0  0  0
  -23.6332   -8.2289   22.0756 C   0  0  0  0  0  0
  -22.4306   -8.0317   21.3562 C   0  0  0  0  0  0
  -21.9934   -9.0294   20.4663 C   0  0  0  0  0  0
  -22.7288  -10.2159   20.3043 C   0  0  0  0  0  0
  -21.6898   -6.0743   22.5280 C   0  0  0  0  0  0
  -21.4043   -6.5629   23.8199 C   0  0  0  0  0  0
  -21.3672   -5.6769   24.9150 C   0  0  0  0  0  0
  -21.6049   -4.3028   24.7208 C   0  0  0  0  0  0
  -21.8831   -3.8142   23.4323 C   0  0  0  0  0  0
  -21.9212   -4.6962   22.3379 C   0  0  0  0  0  0
  -22.7871  -13.5214   21.1826 C   0  0  0  0  0  0
  -22.1657   -4.2142   21.0949 F   0  0  0  0  0  0
  -21.5646   -3.4512   25.7710 F   0  0  0  0  0  0
  -29.9962  -13.5364   20.4658 N   0  0  0  0  0  0
  -26.2935  -12.9448   20.3002 N   0  0  0  0  0  0
  -25.9361  -11.6575   20.5505 N   0  0  0  0  0  0
  -22.0525  -12.8245   22.0421 N   0  0  0  0  0  0
  -25.4270  -15.1973   20.4118 N   0  0  0  0  0  0
  -31.7578  -14.8891   20.0631 O   0  0  0  0  0  0
  -21.6679   -6.8906   21.4254 O   0  0  0  0  0  0
  -22.3492  -14.5462   20.6603 O   0  0  0  0  0  0
  -24.6359  -31.8514   23.1990 C   0  0  0  0  0  0
  -25.9155  -32.4731   23.8318 C   0  0  1  0  0  0
  -27.2309  -27.2419   20.1461 C   0  0  0  0  0  0
  -25.5932  -33.8546   24.2202 N   0  0  0  0  0  0
  -23.4309  -30.4813   21.5426 C   0  0  2  0  0  0
  -24.8771  -28.9171   20.1151 C   0  0  0  0  0  0
  -22.7480  -29.4637   22.4893 C   0  0  0  0  0  0
  -18.0286  -28.1391   22.8489 C   0  0  0  0  0  0
  -24.1465  -36.7283   23.2656 C   0  0  0  0  0  0
  -25.9819  -30.7654   21.3749 C   0  0  0  0  0  0
  -26.0517  -29.3876   20.7123 C   0  0  0  0  0  0
  -27.2323  -28.5713   20.7011 C   0  0  0  0  0  0
  -26.0188  -26.8322   19.5411 C   0  0  0  0  0  0
  -24.8633  -27.6427   19.5258 C   0  0  0  0  0  0
  -23.6479  -29.8138   20.1607 C   0  0  0  0  0  0
  -25.4098  -36.3062   24.0313 C   0  0  1  0  0  0
  -20.5876  -28.3712   23.1252 C   0  0  2  0  0  0
  -20.6775  -26.9423   22.5428 C   0  0  0  0  0  0
  -19.5773  -26.6379   21.5221 C   0  0  0  0  0  0
  -18.1935  -26.7958   22.1618 C   0  0  0  0  0  0
  -19.1539  -28.8869   23.2864 C   0  0  0  0  0  0
  -18.9469  -30.1452   23.8916 C   0  0  0  0  0  0
  -17.6464  -30.6613   24.0565 C   0  0  0  0  0  0
  -25.9047  -34.9427   23.5052 C   0  0  0  0  0  0
  -16.5338  -29.9115   23.6327 C   0  0  0  0  0  0
  -16.7264  -28.6512   23.0376 C   0  0  0  0  0  0
  -26.4510  -31.6616   25.0746 C   0  0  0  0  0  0
  -25.3732  -31.3808   26.1469 C   0  0  0  0  0  0
  -27.0379  -30.3015   24.6326 C   0  0  0  0  0  0
  -27.6022  -32.4414   25.7557 C   0  0  0  0  0  0
  -27.5570  -37.1790   24.8469 C   0  0  0  0  0  0
  -21.4174  -29.3055   22.3626 N   0  0  0  0  0  0
  -26.4284  -37.3745   23.9411 N   0  0  0  0  0  0
  -24.7032  -31.0506   22.0955 N   0  0  0  0  0  0
  -23.4162  -28.8169   23.2999 O   0  0  0  0  0  0
  -28.3468  -26.3576   20.1889 O   0  0  0  0  0  0
  -26.5649  -34.8903   22.4632 O   0  0  0  0  0  0
  -23.5501  -32.1327   23.7284 O   0  0  0  0  0  0
  -28.2035  -21.4267   21.0581 C   0  0  0  0  0  0
  -30.1866  -21.1802   20.2706 C   0  0  0  0  0  0
  -29.2664  -22.2167   20.5118 C   0  0  0  0  0  0
  -31.0826  -18.2888   19.2768 C   0  0  0  0  0  0
  -30.0647  -14.4056   23.6274 C   0  0  0  0  0  0
  -31.8809  -16.0839   23.2072 C   0  0  0  0  0  0
  -29.3986  -23.8080   20.2616 C   0  0  0  0  0  0
  -29.5339  -17.1439   21.0011 C   0  0  0  0  0  0
  -28.1549  -24.8595   20.3501 C   0  0  0  0  0  0
  -30.3874  -18.4925   20.6371 C   0  0  2  0  0  0
  -30.4201  -15.7254   22.8959 C   0  0  0  0  0  0
  -28.4613  -20.1020   21.1474 N   0  0  0  0  0  0
  -29.7055  -19.8908   20.6448 N   0  0  0  0  0  0
  -30.1389  -15.7661   21.4227 N   0  0  0  0  0  0
  -31.4831  -12.6034   19.2308 H   0  0  0  0  0  0
  -30.3590  -11.5018   19.9711 H   0  0  0  0  0  0
  -29.8485  -11.8034   17.5271 H   0  0  0  0  0  0
  -29.6789  -13.5259   17.7644 H   0  0  0  0  0  0
  -27.9013  -11.3155   18.8535 H   0  0  0  0  0  0
  -27.4391  -12.5913   17.7571 H   0  0  0  0  0  0
  -27.6342  -14.2698   19.4517 H   0  0  0  0  0  0
  -28.6672  -12.2208   21.4794 H   0  0  0  0  0  0
  -28.3308  -13.9243   21.7163 H   0  0  0  0  0  0
  -25.2846   -9.5708   22.4661 H   0  0  0  0  0  0
  -24.0067   -7.4675   22.7454 H   0  0  0  0  0  0
  -21.0875   -8.8835   19.8953 H   0  0  0  0  0  0
  -22.3783  -10.9688   19.6113 H   0  0  0  0  0  0
  -21.2025   -7.6126   23.9720 H   0  0  0  0  0  0
  -21.1487   -6.0463   25.9042 H   0  0  0  0  0  0
  -22.0605   -2.7606   23.2810 H   0  0  0  0  0  0
  -22.4143  -11.9933   22.4837 H   0  0  0  0  0  0
  -21.1130  -13.1280   22.2594 H   0  0  0  0  0  0
  -24.6786  -15.8679   20.5654 H   0  0  0  0  0  0
  -26.2910  -15.6368   20.1238 H   0  0  0  0  0  0
  -26.7255  -32.5337   23.1084 H   0  0  0  0  0  0
  -25.0025  -33.9629   25.0327 H   0  0  0  0  0  0
  -22.7314  -31.3105   21.4014 H   0  0  0  0  0  0
  -23.3702  -35.9644   23.3338 H   0  0  0  0  0  0
  -24.3578  -36.8888   22.2083 H   0  0  0  0  0  0
  -23.7235  -37.6490   23.6671 H   0  0  0  0  0  0
  -26.1282  -31.5329   20.6134 H   0  0  0  0  0  0
  -26.8575  -30.8073   22.0143 H   0  0  0  0  0  0
  -28.1387  -28.9457   21.1555 H   0  0  0  0  0  0
  -25.9312  -25.8571   19.0929 H   0  0  0  0  0  0
  -23.9543  -27.2615   19.0826 H   0  0  0  0  0  0
  -23.7751  -30.5968   19.4114 H   0  0  0  0  0  0
  -22.7586  -29.2605   19.8521 H   0  0  0  0  0  0
  -25.1292  -36.1926   25.0811 H   0  0  0  0  0  0
  -20.9988  -28.3308   24.1365 H   0  0  0  0  0  0
  -20.5643  -26.2332   23.3625 H   0  0  0  0  0  0
  -21.6639  -26.7451   22.1229 H   0  0  0  0  0  0
  -19.6899  -25.6274   21.1291 H   0  0  0  0  0  0
  -19.6729  -27.3154   20.6722 H   0  0  0  0  0  0
  -17.4208  -26.6705   21.4021 H   0  0  0  0  0  0
  -18.0325  -26.0102   22.9026 H   0  0  0  0  0  0
  -19.7925  -30.7256   24.2329 H   0  0  0  0  0  0
  -17.5012  -31.6311   24.5139 H   0  0  0  0  0  0
  -15.5322  -30.3027   23.7645 H   0  0  0  0  0  0
  -15.8664  -28.0814   22.7131 H   0  0  0  0  0  0
  -24.5840  -30.7233   25.7808 H   0  0  0  0  0  0
  -24.9017  -32.3015   26.4929 H   0  0  0  0  0  0
  -25.8033  -30.8955   27.0236 H   0  0  0  0  0  0
  -26.3002  -29.6751   24.1295 H   0  0  0  0  0  0
  -27.3954  -29.7321   25.4923 H   0  0  0  0  0  0
  -27.8921  -30.4266   23.9661 H   0  0  0  0  0  0
  -27.2546  -33.3689   26.2127 H   0  0  0  0  0  0
  -28.3838  -32.7036   25.0417 H   0  0  0  0  0  0
  -28.0678  -31.8577   26.5502 H   0  0  0  0  0  0
  -28.2588  -38.0076   24.7456 H   0  0  0  0  0  0
  -28.1033  -36.2597   24.6342 H   0  0  0  0  0  0
  -27.2283  -37.1524   25.8866 H   0  0  0  0  0  0
  -20.9334  -29.8792   21.6854 H   0  0  0  0  0  0
  -26.0144  -38.2811   24.1409 H   0  0  0  0  0  0
  -27.2428  -21.7813   21.4057 H   0  0  0  0  0  0
  -31.1818  -21.2655   19.8567 H   0  0  0  0  0  0
  -31.6128  -17.3400   19.2371 H   0  0  0  0  0  0
  -31.8182  -19.0634   19.0571 H   0  0  0  0  0  0
  -30.3526  -18.2894   18.4674 H   0  0  0  0  0  0
  -30.4375  -14.4266   24.6527 H   0  0  0  0  0  0
  -30.5069  -13.5234   23.1625 H   0  0  0  0  0  0
  -28.9886  -14.2613   23.7107 H   0  0  0  0  0  0
  -31.9974  -16.3206   24.2673 H   0  0  0  0  0  0
  -32.2201  -16.9510   22.6414 H   0  0  0  0  0  0
  -32.5452  -15.2445   22.9906 H   0  0  0  0  0  0
  -29.8206  -23.9483   19.2668 H   0  0  0  0  0  0
  -30.1780  -24.1958   20.9195 H   0  0  0  0  0  0
  -28.8470  -16.9482   20.1758 H   0  0  0  0  0  0
  -28.8667  -17.4462   21.8070 H   0  0  0  0  0  0
  -27.6847  -24.7199   21.3235 H   0  0  0  0  0  0
  -27.4311  -24.5037   19.6180 H   0  0  0  0  0  0
  -31.1830  -18.5767   21.3774 H   0  0  0  0  0  0
  -29.8145  -16.4750   23.4010 H   0  0  0  0  0  0
  1 25  1  0  0  0
  1 30  2  0  0  0
  1 84  1  0  0  0
  2  3  1  0  0  0
  2 25  1  0  0  0
  2 85  1  0  0  0
  2 86  1  0  0  0
  3  4  1  0  0  0
  3 87  1  0  0  0
  3 88  1  0  0  0
  4  5  1  0  0  0
  4 89  1  0  0  0
  4 90  1  0  0  0
  5  6  1  0  0  0
  5 26  1  0  0  0
  5 91  1  0  0  0
  6 25  1  0  0  0
  6 92  1  0  0  0
  6 93  1  0  0  0
  7  8  2  0  0  0
  7 26  1  0  0  0
  7 29  1  0  0  0
  8  9  1  0  0  0
  8 22  1  0  0  0
  9 10  1  0  0  0
  9 27  2  0  0  0
 10 11  2  0  0  0
 10 15  1  0  0  0
 11 12  1  0  0  0
 11 94  1  0  0  0
 12 13  2  0  0  0
 12 95  1  0  0  0
 13 14  1  0  0  0
 13 31  1  0  0  0
 14 15  2  0  0  0
 14 96  1  0  0  0
 15 97  1  0  0  0
 16 17  2  0  0  0
 16 21  1  0  0  0
 16 31  1  0  0  0
 17 18  1  0  0  0
 17 98  1  0  0  0
 18 19  2  0  0  0
 18 99  1  0  0  0
 19 20  1  0  0  0
 19 24  1  0  0  0
 20 21  2  0  0  0
 20100  1  0  0  0
 21 23  1  0  0  0
 22 28  1  0  0  0
 22 32  2  0  0  0
 26 27  1  0  0  0
 28101  1  0  0  0
 28102  1  0  0  0
 29103  1  0  0  0
 29104  1  0  0  0
 33 34  1  0  0  0
 33 66  1  0  0  0
 33 70  2  0  0  0
 34 36  1  0  0  0
 34 59  1  0  0  0
 34105  1  0  0  0
 35 44  2  0  0  0
 35 45  1  0  0  0
 35 68  1  0  0  0
 36 56  1  0  0  0
 36106  1  0  0  0
 37 39  1  0  0  0
 37 47  1  0  0  0
 37 66  1  0  0  0
 37107  1  0  0  0
 38 43  2  0  0  0
 38 46  1  0  0  0
 38 47  1  0  0  0
 39 64  1  0  0  0
 39 67  2  0  0  0
 40 52  1  0  0  0
 40 53  2  0  0  0
 40 58  1  0  0  0
 41108  1  0  0  0
 41109  1  0  0  0
 41110  1  0  0  0
 41 48  1  0  0  0
 42 43  1  0  0  0
 42 66  1  0  0  0
 42111  1  0  0  0
 42112  1  0  0  0
 43 44  1  0  0  0
 44113  1  0  0  0
 45 46  2  0  0  0
 45114  1  0  0  0
 46115  1  0  0  0
 47116  1  0  0  0
 47117  1  0  0  0
 48 56  1  0  0  0
 48 65  1  0  0  0
 48118  1  0  0  0
 49 50  1  0  0  0
 49 53  1  0  0  0
 49 64  1  0  0  0
 49119  1  0  0  0
 50 51  1  0  0  0
 50120  1  0  0  0
 50121  1  0  0  0
 51 52  1  0  0  0
 51122  1  0  0  0
 51123  1  0  0  0
 52124  1  0  0  0
 52125  1  0  0  0
 53 54  1  0  0  0
 54 55  2  0  0  0
 54126  1  0  0  0
 55 57  1  0  0  0
 55127  1  0  0  0
 56 69  2  0  0  0
 57 58  2  0  0  0
 57128  1  0  0  0
 58129  1  0  0  0
 59 60  1  0  0  0
 59 61  1  0  0  0
 59 62  1  0  0  0
 60130  1  0  0  0
 60131  1  0  0  0
 60132  1  0  0  0
 61133  1  0  0  0
 61134  1  0  0  0
 61135  1  0  0  0
 62136  1  0  0  0
 62137  1  0  0  0
 62138  1  0  0  0
 63 65  1  0  0  0
 63139  1  0  0  0
 63140  1  0  0  0
 63141  1  0  0  0
 64142  1  0  0  0
 65143  1  0  0  0
 68 79  1  0  0  0
 71 73  1  0  0  0
 71 82  2  0  0  0
 71144  1  0  0  0
 72 73  2  0  0  0
 72 83  1  0  0  0
 72145  1  0  0  0
 73 77  1  0  0  0
 74146  1  0  0  0
 74147  1  0  0  0
 74148  1  0  0  0
 74 80  1  0  0  0
 75149  1  0  0  0
 75150  1  0  0  0
 75151  1  0  0  0
 75 81  1  0  0  0
 76 81  1  0  0  0
 76152  1  0  0  0
 76153  1  0  0  0
 76154  1  0  0  0
 77 79  1  0  0  0
 77155  1  0  0  0
 77156  1  0  0  0
 78 80  1  0  0  0
 78 84  1  0  0  0
 78157  1  0  0  0
 78158  1  0  0  0
 79159  1  0  0  0
 79160  1  0  0  0
 80 83  1  0  0  0
 80161  1  0  0  0
 81 84  1  0  0  0
 81162  1  0  0  0
 82 83  1  0  0  0
M  ISO  4   1 100  68 101  79 101  84 100
M  END
> <chiral flag>
0

> <version>
0

> <s_m_source_file>
/data/baiqing/PycharmProjects/Reinvent-master-3.2/result/LINK_invent/BTK/process_docking_weight1_custom_sum_contain_oxygen_bond_distance_aromatic_linkinvent_7_9_3/rearranged_h_0051.sdf

> <i_m_source_file_index>
9

> <r_mmod_Potential_Energy-OPLS-2005>
431.251739501953

> <r_mmod_Stretch_Energy-OPLS-2005>
164.250518798828

> <r_mmod_Bend_Energy-OPLS-2005>
205.651351928711

> <r_mmod_Torsional_Energy-OPLS-2005>
328.487396240234

> <r_mmod_Improper_Torsional_Energy-OPLS-2005>
2.29434466362

> <r_mmod_Van_der_Waal_Energy-OPLS-2005>
115.179321289062

> <r_mmod_Electrostatic_Energy-OPLS-2005>
-278.482269287109

> <r_mmod_Solvation_Energy-OPLS-2005>
-195.357147216797

> <b_mmod_Minimization_Converged-OPLS-2005>
0

> <r_mmod_RMS_Derivative-OPLS-2005>
6.41951179504395

$$$$
10
                    3D
 Structure written by MMmdl.
165173  0  0  1  0            999 V2000
  -30.6901  -14.7589   20.3992 C   0  0  0  0  0  0
  -30.4122  -12.4711   19.4468 C   0  0  0  0  0  0
  -29.4882  -12.4819   18.2157 C   0  0  0  0  0  0
  -28.0220  -12.3111   18.6519 C   0  0  0  0  0  0
  -27.6284  -13.2467   19.8273 C   0  0  2  0  0  0
  -28.6895  -13.2635   20.9475 C   0  0  0  0  0  0
  -25.2457  -13.8245   20.5748 C   0  0  0  0  0  0
  -24.1770  -13.0465   20.9249 C   0  0  0  0  0  0
  -24.6379  -11.6954   20.8767 C   0  0  0  0  0  0
  -23.9071  -10.4318   21.0405 C   0  0  0  0  0  0
  -24.3624   -9.4232   21.9183 C   0  0  0  0  0  0
  -23.6289   -8.2273   22.0753 C   0  0  0  0  0  0
  -22.4273   -8.0309   21.3543 C   0  0  0  0  0  0
  -21.9903   -9.0287   20.4640 C   0  0  0  0  0  0
  -22.7232  -10.2164   20.3045 C   0  0  0  0  0  0
  -21.6858   -6.0754   22.5269 C   0  0  0  0  0  0
  -21.4028   -6.5647   23.8205 C   0  0  0  0  0  0
  -21.3653   -5.6789   24.9158 C   0  0  0  0  0  0
  -21.6037   -4.3056   24.7206 C   0  0  0  0  0  0
  -21.8823   -3.8157   23.4320 C   0  0  0  0  0  0
  -21.9191   -4.6980   22.3381 C   0  0  0  0  0  0
  -22.7781  -13.5219   21.1895 C   0  0  0  0  0  0
  -22.1661   -4.2167   21.0961 F   0  0  0  0  0  0
  -21.5609   -3.4532   25.7715 F   0  0  0  0  0  0
  -29.9704  -13.5882   20.3120 N   0  0  0  0  0  0
  -26.2898  -12.9483   20.3281 N   0  0  0  0  0  0
  -25.9319  -11.6615   20.5808 N   0  0  0  0  0  0
  -22.0405  -12.8235   22.0451 N   0  0  0  0  0  0
  -25.4117  -15.1971   20.4173 N   0  0  0  0  0  0
  -31.9179  -14.6708   20.3230 O   0  0  0  0  0  0
  -21.6637   -6.8904   21.4236 O   0  0  0  0  0  0
  -22.3467  -14.5513   20.6708 O   0  0  0  0  0  0
  -24.6314  -31.8559   23.1967 C   0  0  0  0  0  0
  -25.9145  -32.4743   23.8313 C   0  0  1  0  0  0
  -27.2219  -27.2756   20.1279 C   0  0  0  0  0  0
  -25.5954  -33.8544   24.2256 N   0  0  0  0  0  0
  -23.4252  -30.4780   21.5402 C   0  0  2  0  0  0
  -24.8724  -28.9178   20.1144 C   0  0  0  0  0  0
  -22.7482  -29.4603   22.4908 C   0  0  0  0  0  0
  -18.0292  -28.1363   22.8474 C   0  0  0  0  0  0
  -24.1486  -36.7287   23.2633 C   0  0  0  0  0  0
  -25.9688  -30.7736   21.3711 C   0  0  0  0  0  0
  -26.0442  -29.3943   20.7189 C   0  0  0  0  0  0
  -27.2249  -28.5846   20.7140 C   0  0  0  0  0  0
  -26.0314  -26.8589   19.5007 C   0  0  0  0  0  0
  -24.8696  -27.6566   19.4961 C   0  0  0  0  0  0
  -23.6441  -29.8050   20.1583 C   0  0  0  0  0  0
  -25.4113  -36.3071   24.0325 C   0  0  1  0  0  0
  -20.5875  -28.3695   23.1271 C   0  0  2  0  0  0
  -20.6763  -26.9401   22.5432 C   0  0  0  0  0  0
  -19.5770  -26.6373   21.5216 C   0  0  0  0  0  0
  -18.1942  -26.7914   22.1595 C   0  0  0  0  0  0
  -19.1533  -28.8838   23.2861 C   0  0  0  0  0  0
  -18.9465  -30.1442   23.8885 C   0  0  0  0  0  0
  -17.6473  -30.6576   24.0549 C   0  0  0  0  0  0
  -25.9047  -34.9442   23.5089 C   0  0  0  0  0  0
  -16.5357  -29.9085   23.6314 C   0  0  0  0  0  0
  -16.7288  -28.6493   23.0341 C   0  0  0  0  0  0
  -26.4515  -31.6557   25.0689 C   0  0  0  0  0  0
  -25.3739  -31.3727   26.1406 C   0  0  0  0  0  0
  -27.0366  -30.2983   24.6156 C   0  0  0  0  0  0
  -27.6056  -32.4302   25.7474 C   0  0  0  0  0  0
  -27.5572  -37.1802   24.8460 C   0  0  0  0  0  0
  -21.4188  -29.3058   22.3668 N   0  0  0  0  0  0
  -26.4283  -37.3778   23.9406 N   0  0  0  0  0  0
  -24.6939  -31.0529   22.0929 N   0  0  0  0  0  0
  -23.4179  -28.8133   23.3001 O   0  0  0  0  0  0
  -28.3183  -26.3905   20.1231 O   0  0  0  0  0  0
  -26.5621  -34.8928   22.4656 O   0  0  0  0  0  0
  -23.5482  -32.1381   23.7283 O   0  0  0  0  0  0
  -28.3191  -18.9267   19.2089 C   0  0  0  0  0  0
  -29.1109  -18.5175   20.2695 C   0  0  0  0  0  0
  -28.8031  -20.8163   20.2461 C   0  0  0  0  0  0
  -26.0450  -18.1706   18.4654 C   0  0  0  0  0  0
  -31.9565  -17.4292   18.9385 C   0  0  0  0  0  0
  -30.1235  -19.9050   22.1756 C   0  0  0  0  0  0
  -27.5545  -18.0807   18.2288 C   0  0  0  0  0  0
  -29.4642  -17.0487   20.8005 C   0  0  0  0  0  0
  -28.6074  -22.2849   20.8081 C   0  0  0  0  0  0
  -28.5947  -23.6416   19.9210 C   0  0  0  0  0  0
  -30.7272  -16.5199   18.7102 C   0  0  0  0  0  0
  -28.1327  -25.0049   20.6694 C   0  0  0  0  0  0
  -28.1695  -20.3283   19.1818 N   0  0  0  0  0  0
  -29.3957  -19.7648   20.9236 N   0  0  0  0  0  0
  -30.1184  -15.9607   19.9447 N   0  0  0  0  0  0
  -31.4489  -12.5742   19.1247 H   0  0  0  0  0  0
  -30.3542  -11.5205   19.9794 H   0  0  0  0  0  0
  -29.7696  -11.6881   17.5224 H   0  0  0  0  0  0
  -29.6026  -13.4214   17.6714 H   0  0  0  0  0  0
  -27.8964  -11.2702   18.9544 H   0  0  0  0  0  0
  -27.3522  -12.4636   17.8049 H   0  0  0  0  0  0
  -27.5964  -14.2513   19.4036 H   0  0  0  0  0  0
  -28.7427  -12.3034   21.4601 H   0  0  0  0  0  0
  -28.4360  -14.0112   21.6998 H   0  0  0  0  0  0
  -25.2766   -9.5698   22.4766 H   0  0  0  0  0  0
  -23.9983   -7.4666   22.7471 H   0  0  0  0  0  0
  -21.0828   -8.8803   19.8952 H   0  0  0  0  0  0
  -22.3681  -10.9707   19.6156 H   0  0  0  0  0  0
  -21.2043   -7.6157   23.9725 H   0  0  0  0  0  0
  -21.1456   -6.0508   25.9063 H   0  0  0  0  0  0
  -22.0601   -2.7621   23.2803 H   0  0  0  0  0  0
  -22.3984  -11.9913   22.4905 H   0  0  0  0  0  0
  -21.1017  -13.1288   22.2609 H   0  0  0  0  0  0
  -24.6400  -15.8464   20.5187 H   0  0  0  0  0  0
  -26.2572  -15.6353   20.0782 H   0  0  0  0  0  0
  -26.7199  -32.5420   23.1053 H   0  0  0  0  0  0
  -25.0129  -33.9664   25.0426 H   0  0  0  0  0  0
  -22.7227  -31.3008   21.3909 H   0  0  0  0  0  0
  -23.3739  -35.9621   23.3290 H   0  0  0  0  0  0
  -24.3576  -36.8914   22.2043 H   0  0  0  0  0  0
  -23.7238  -37.6488   23.6665 H   0  0  0  0  0  0
  -26.1017  -31.5317   20.5968 H   0  0  0  0  0  0
  -26.8476  -30.8290   22.0010 H   0  0  0  0  0  0
  -28.1255  -28.9433   21.1936 H   0  0  0  0  0  0
  -25.9985  -25.8919   19.0193 H   0  0  0  0  0  0
  -23.9731  -27.2844   19.0169 H   0  0  0  0  0  0
  -23.7755  -30.5765   19.3976 H   0  0  0  0  0  0
  -22.7624  -29.2388   19.8533 H   0  0  0  0  0  0
  -25.1293  -36.1911   25.0817 H   0  0  0  0  0  0
  -20.9968  -28.3290   24.1383 H   0  0  0  0  0  0
  -20.5705  -26.2306   23.3650 H   0  0  0  0  0  0
  -21.6626  -26.7438   22.1251 H   0  0  0  0  0  0
  -19.6942  -25.6281   21.1251 H   0  0  0  0  0  0
  -19.6732  -27.3173   20.6747 H   0  0  0  0  0  0
  -17.4214  -26.6624   21.3993 H   0  0  0  0  0  0
  -18.0371  -26.0029   22.8978 H   0  0  0  0  0  0
  -19.7936  -30.7236   24.2263 H   0  0  0  0  0  0
  -17.5054  -31.6254   24.5152 H   0  0  0  0  0  0
  -15.5358  -30.2992   23.7649 H   0  0  0  0  0  0
  -15.8706  -28.0817   22.7040 H   0  0  0  0  0  0
  -24.5902  -30.7083   25.7756 H   0  0  0  0  0  0
  -24.8939  -32.2909   26.4811 H   0  0  0  0  0  0
  -25.8048  -30.8932   27.0199 H   0  0  0  0  0  0
  -26.2967  -29.6703   24.1180 H   0  0  0  0  0  0
  -27.4067  -29.7262   25.4665 H   0  0  0  0  0  0
  -27.8825  -30.4250   23.9391 H   0  0  0  0  0  0
  -27.2645  -33.3600   26.2044 H   0  0  0  0  0  0
  -28.3883  -32.6858   25.0316 H   0  0  0  0  0  0
  -28.0704  -31.8426   26.5401 H   0  0  0  0  0  0
  -28.2596  -38.0091   24.7521 H   0  0  0  0  0  0
  -28.1061  -36.2632   24.6279 H   0  0  0  0  0  0
  -27.2300  -37.1457   25.8863 H   0  0  0  0  0  0
  -20.9345  -29.8857   21.6963 H   0  0  0  0  0  0
  -26.0158  -38.2845   24.1422 H   0  0  0  0  0  0
  -25.5076  -17.4810   17.8150 H   0  0  0  0  0  0
  -25.6755  -19.1769   18.2698 H   0  0  0  0  0  0
  -25.8018  -17.9179   19.4975 H   0  0  0  0  0  0
  -31.7421  -18.2649   19.6024 H   0  0  0  0  0  0
  -32.2932  -17.8551   17.9925 H   0  0  0  0  0  0
  -32.8007  -16.8821   19.3576 H   0  0  0  0  0  0
  -30.8095  -19.0739   22.3279 H   0  0  0  0  0  0
  -29.4189  -19.9496   23.0068 H   0  0  0  0  0  0
  -30.7209  -20.8160   22.1652 H   0  0  0  0  0  0
  -27.8336  -17.0322   18.3173 H   0  0  0  0  0  0
  -27.7884  -18.3674   17.2030 H   0  0  0  0  0  0
  -28.5356  -16.6104   21.1674 H   0  0  0  0  0  0
  -30.0899  -17.1312   21.6868 H   0  0  0  0  0  0
  -29.3510  -22.4474   21.5855 H   0  0  0  0  0  0
  -27.6580  -22.2539   21.3430 H   0  0  0  0  0  0
  -27.9357  -23.4931   19.0657 H   0  0  0  0  0  0
  -29.5891  -23.7828   19.5021 H   0  0  0  0  0  0
  -31.0283  -15.7046   18.0484 H   0  0  0  0  0  0
  -29.9935  -17.0643   18.1281 H   0  0  0  0  0  0
  -28.6728  -25.0216   21.6179 H   0  0  0  0  0  0
  -27.0920  -24.8733   20.9712 H   0  0  0  0  0  0
  1 25  1  0  0  0
  1 30  2  0  0  0
  1 85  1  0  0  0
  2  3  1  0  0  0
  2 25  1  0  0  0
  2 86  1  0  0  0
  2 87  1  0  0  0
  3  4  1  0  0  0
  3 88  1  0  0  0
  3 89  1  0  0  0
  4  5  1  0  0  0
  4 90  1  0  0  0
  4 91  1  0  0  0
  5  6  1  0  0  0
  5 26  1  0  0  0
  5 92  1  0  0  0
  6 25  1  0  0  0
  6 93  1  0  0  0
  6 94  1  0  0  0
  7  8  2  0  0  0
  7 26  1  0  0  0
  7 29  1  0  0  0
  8  9  1  0  0  0
  8 22  1  0  0  0
  9 10  1  0  0  0
  9 27  2  0  0  0
 10 11  2  0  0  0
 10 15  1  0  0  0
 11 12  1  0  0  0
 11 95  1  0  0  0
 12 13  2  0  0  0
 12 96  1  0  0  0
 13 14  1  0  0  0
 13 31  1  0  0  0
 14 15  2  0  0  0
 14 97  1  0  0  0
 15 98  1  0  0  0
 16 17  2  0  0  0
 16 21  1  0  0  0
 16 31  1  0  0  0
 17 18  1  0  0  0
 17 99  1  0  0  0
 18 19  2  0  0  0
 18100  1  0  0  0
 19 20  1  0  0  0
 19 24  1  0  0  0
 20 21  2  0  0  0
 20101  1  0  0  0
 21 23  1  0  0  0
 22 28  1  0  0  0
 22 32  2  0  0  0
 26 27  1  0  0  0
 28102  1  0  0  0
 28103  1  0  0  0
 29104  1  0  0  0
 29105  1  0  0  0
 33 34  1  0  0  0
 33 66  1  0  0  0
 33 70  2  0  0  0
 34 36  1  0  0  0
 34 59  1  0  0  0
 34106  1  0  0  0
 35 44  2  0  0  0
 35 45  1  0  0  0
 35 68  1  0  0  0
 36 56  1  0  0  0
 36107  1  0  0  0
 37 39  1  0  0  0
 37 47  1  0  0  0
 37 66  1  0  0  0
 37108  1  0  0  0
 38 43  2  0  0  0
 38 46  1  0  0  0
 38 47  1  0  0  0
 39 64  1  0  0  0
 39 67  2  0  0  0
 40 52  1  0  0  0
 40 53  2  0  0  0
 40 58  1  0  0  0
 41109  1  0  0  0
 41110  1  0  0  0
 41111  1  0  0  0
 41 48  1  0  0  0
 42 43  1  0  0  0
 42 66  1  0  0  0
 42112  1  0  0  0
 42113  1  0  0  0
 43 44  1  0  0  0
 44114  1  0  0  0
 45 46  2  0  0  0
 45115  1  0  0  0
 46116  1  0  0  0
 47117  1  0  0  0
 47118  1  0  0  0
 48 56  1  0  0  0
 48 65  1  0  0  0
 48119  1  0  0  0
 49 50  1  0  0  0
 49 53  1  0  0  0
 49 64  1  0  0  0
 49120  1  0  0  0
 50 51  1  0  0  0
 50121  1  0  0  0
 50122  1  0  0  0
 51 52  1  0  0  0
 51123  1  0  0  0
 51124  1  0  0  0
 52125  1  0  0  0
 52126  1  0  0  0
 53 54  1  0  0  0
 54 55  2  0  0  0
 54127  1  0  0  0
 55 57  1  0  0  0
 55128  1  0  0  0
 56 69  2  0  0  0
 57 58  2  0  0  0
 57129  1  0  0  0
 58130  1  0  0  0
 59 60  1  0  0  0
 59 61  1  0  0  0
 59 62  1  0  0  0
 60131  1  0  0  0
 60132  1  0  0  0
 60133  1  0  0  0
 61134  1  0  0  0
 61135  1  0  0  0
 61136  1  0  0  0
 62137  1  0  0  0
 62138  1  0  0  0
 62139  1  0  0  0
 63 65  1  0  0  0
 63140  1  0  0  0
 63141  1  0  0  0
 63142  1  0  0  0
 64143  1  0  0  0
 65144  1  0  0  0
 68 82  1  0  0  0
 71 72  2  0  0  0
 71 77  1  0  0  0
 71 83  1  0  0  0
 72 78  1  0  0  0
 72 84  1  0  0  0
 73 79  1  0  0  0
 73 83  2  0  0  0
 73 84  1  0  0  0
 74 77  1  0  0  0
 74145  1  0  0  0
 74146  1  0  0  0
 74147  1  0  0  0
 75 81  1  0  0  0
 75148  1  0  0  0
 75149  1  0  0  0
 75150  1  0  0  0
 76 84  1  0  0  0
 76151  1  0  0  0
 76152  1  0  0  0
 76153  1  0  0  0
 77154  1  0  0  0
 77155  1  0  0  0
 78 85  1  0  0  0
 78156  1  0  0  0
 78157  1  0  0  0
 79 80  1  0  0  0
 79158  1  0  0  0
 79159  1  0  0  0
 80 82  1  0  0  0
 80160  1  0  0  0
 80161  1  0  0  0
 81 85  1  0  0  0
 81162  1  0  0  0
 81163  1  0  0  0
 82164  1  0  0  0
 82165  1  0  0  0
M  ISO  4   1 100  68 101  82 101  85 100
M  END
> <chiral flag>
0

> <version>
0

> <s_m_source_file>
/data/baiqing/PycharmProjects/Reinvent-master-3.2/result/LINK_invent/BTK/process_docking_weight1_custom_sum_contain_oxygen_bond_distance_aromatic_linkinvent_7_9_3/rearranged_h_0051.sdf

> <i_m_source_file_index>
10

> <r_mmod_Potential_Energy-OPLS-2005>
332.479827880859

> <r_mmod_Stretch_Energy-OPLS-2005>
130.444061279297

> <r_mmod_Bend_Energy-OPLS-2005>
192.258895874023

> <r_mmod_Torsional_Energy-OPLS-2005>
306.984893798828

> <r_mmod_Improper_Torsional_Energy-OPLS-2005>
28.0588855743408

> <r_mmod_Van_der_Waal_Energy-OPLS-2005>
110.518890380859

> <r_mmod_Electrostatic_Energy-OPLS-2005>
-333.905548095703

> <r_mmod_Solvation_Energy-OPLS-2005>
-203.141571044922

> <b_mmod_Minimization_Converged-OPLS-2005>
0

> <r_mmod_RMS_Derivative-OPLS-2005>
3.17067098617554

$$$$
11
                    3D
 Structure written by MMmdl.
169177  0  0  1  0            999 V2000
  -30.6811  -14.7757   20.4325 C   0  0  0  0  0  0
  -30.4134  -12.4901   19.4554 C   0  0  0  0  0  0
  -29.4984  -12.4925   18.2172 C   0  0  0  0  0  0
  -28.0330  -12.3120   18.6469 C   0  0  0  0  0  0
  -27.6293  -13.2416   19.8262 C   0  0  2  0  0  0
  -28.6803  -13.2628   20.9527 C   0  0  0  0  0  0
  -25.2482  -13.8189   20.5643 C   0  0  0  0  0  0
  -24.1813  -13.0407   20.9192 C   0  0  0  0  0  0
  -24.6420  -11.6890   20.8723 C   0  0  0  0  0  0
  -23.9090  -10.4265   21.0357 C   0  0  0  0  0  0
  -24.3651   -9.4192   21.9140 C   0  0  0  0  0  0
  -23.6328   -8.2234   22.0721 C   0  0  0  0  0  0
  -22.4315   -8.0257   21.3521 C   0  0  0  0  0  0
  -21.9955   -9.0210   20.4614 C   0  0  0  0  0  0
  -22.7260  -10.2097   20.3001 C   0  0  0  0  0  0
  -21.6879   -6.0737   22.5272 C   0  0  0  0  0  0
  -21.4043   -6.5647   23.8210 C   0  0  0  0  0  0
  -21.3645   -5.6795   24.9170 C   0  0  0  0  0  0
  -21.6028   -4.3054   24.7210 C   0  0  0  0  0  0
  -21.8816   -3.8148   23.4330 C   0  0  0  0  0  0
  -21.9232   -4.6972   22.3399 C   0  0  0  0  0  0
  -22.7846  -13.5169   21.1837 C   0  0  0  0  0  0
  -22.1668   -4.2162   21.0974 F   0  0  0  0  0  0
  -21.5638   -3.4523   25.7713 F   0  0  0  0  0  0
  -29.9556  -13.6076   20.3172 N   0  0  0  0  0  0
  -26.2905  -12.9417   20.3214 N   0  0  0  0  0  0
  -25.9365  -11.6553   20.5767 N   0  0  0  0  0  0
  -22.0530  -12.8142   22.0414 N   0  0  0  0  0  0
  -25.4162  -15.1903   20.3994 N   0  0  0  0  0  0
  -31.9035  -14.6603   20.3738 O   0  0  0  0  0  0
  -21.6657   -6.8862   21.4221 O   0  0  0  0  0  0
  -22.3517  -14.5462   20.6647 O   0  0  0  0  0  0
  -24.6346  -31.8515   23.1983 C   0  0  0  0  0  0
  -25.9165  -32.4732   23.8323 C   0  0  1  0  0  0
  -27.2157  -27.2653   20.1388 C   0  0  0  0  0  0
  -25.5931  -33.8547   24.2249 N   0  0  0  0  0  0
  -23.4300  -30.4756   21.5407 C   0  0  2  0  0  0
  -24.8696  -28.9139   20.1145 C   0  0  0  0  0  0
  -22.7510  -29.4621   22.4933 C   0  0  0  0  0  0
  -18.0305  -28.1426   22.8483 C   0  0  0  0  0  0
  -24.1489  -36.7293   23.2652 C   0  0  0  0  0  0
  -25.9729  -30.7665   21.3712 C   0  0  0  0  0  0
  -26.0412  -29.3870   20.7216 C   0  0  0  0  0  0
  -27.2182  -28.5779   20.7171 C   0  0  0  0  0  0
  -26.0244  -26.8462   19.5107 C   0  0  0  0  0  0
  -24.8666  -27.6510   19.4969 C   0  0  0  0  0  0
  -23.6446  -29.8035   20.1583 C   0  0  0  0  0  0
  -25.4106  -36.3073   24.0340 C   0  0  1  0  0  0
  -20.5914  -28.3725   23.1285 C   0  0  2  0  0  0
  -20.6824  -26.9433   22.5434 C   0  0  0  0  0  0
  -19.5795  -26.6406   21.5257 C   0  0  0  0  0  0
  -18.1960  -26.7960   22.1634 C   0  0  0  0  0  0
  -19.1557  -28.8891   23.2894 C   0  0  0  0  0  0
  -18.9466  -30.1493   23.8897 C   0  0  0  0  0  0
  -17.6464  -30.6628   24.0569 C   0  0  0  0  0  0
  -25.9034  -34.9441   23.5101 C   0  0  0  0  0  0
  -16.5369  -29.9117   23.6328 C   0  0  0  0  0  0
  -16.7288  -28.6550   23.0332 C   0  0  0  0  0  0
  -26.4525  -31.6561   25.0719 C   0  0  0  0  0  0
  -25.3733  -31.3692   26.1426 C   0  0  0  0  0  0
  -27.0379  -30.2989   24.6190 C   0  0  0  0  0  0
  -27.6061  -32.4312   25.7489 C   0  0  0  0  0  0
  -27.5571  -37.1797   24.8469 C   0  0  0  0  0  0
  -21.4224  -29.3067   22.3652 N   0  0  0  0  0  0
  -26.4282  -37.3771   23.9406 N   0  0  0  0  0  0
  -24.6988  -31.0482   22.0934 N   0  0  0  0  0  0
  -23.4191  -28.8182   23.3072 O   0  0  0  0  0  0
  -28.3236  -26.3979   20.1370 O   0  0  0  0  0  0
  -26.5644  -34.8924   22.4686 O   0  0  0  0  0  0
  -23.5509  -32.1341   23.7268 O   0  0  0  0  0  0
  -27.6207  -18.9030   19.0097 C   0  0  0  0  0  0
  -26.8189  -19.8547   18.4446 C   0  0  0  0  0  0
  -28.2376  -20.8999   19.8444 C   0  0  0  0  0  0
  -25.7015  -19.7721   17.4572 C   0  0  0  0  0  0
  -32.7573  -17.7833   19.9099 C   0  0  0  0  0  0
  -32.5328  -17.7570   17.4069 C   0  0  0  0  0  0
  -28.7454  -22.2196   20.5422 C   0  0  0  0  0  0
  -28.4629  -23.6705   19.8304 C   0  0  0  0  0  0
  -29.4830  -18.6817   20.6979 C   0  0  0  0  0  0
  -29.3338  -17.0375   20.8483 C   0  0  0  0  0  0
  -30.6698  -16.6235   18.7702 C   0  0  0  0  0  0
  -28.1962  -25.0103   20.6949 C   0  0  0  0  0  0
  -32.1907  -17.0052   18.7026 C   0  0  0  0  0  0
  -28.4745  -19.5161   19.8993 N   0  0  0  0  0  0
  -27.2251  -21.0411   18.9777 N   0  3  0  0  0  0
  -30.1339  -16.0140   20.0246 N   0  0  0  0  0  0
  -31.4533  -12.5999   19.1503 H   0  0  0  0  0  0
  -30.3537  -11.5343   19.9822 H   0  0  0  0  0  0
  -29.7865  -11.6973   17.5250 H   0  0  0  0  0  0
  -29.6128  -13.4287   17.6710 H   0  0  0  0  0  0
  -27.9174  -11.2676   18.9406 H   0  0  0  0  0  0
  -27.3703  -12.4645   17.7950 H   0  0  0  0  0  0
  -27.6009  -14.2459   19.4084 H   0  0  0  0  0  0
  -28.7461  -12.2956   21.4496 H   0  0  0  0  0  0
  -28.4160  -13.9963   21.7167 H   0  0  0  0  0  0
  -25.2785   -9.5713   22.4738 H   0  0  0  0  0  0
  -24.0054   -7.4640   22.7429 H   0  0  0  0  0  0
  -21.0906   -8.8669   19.8919 H   0  0  0  0  0  0
  -22.3644  -10.9629   19.6131 H   0  0  0  0  0  0
  -21.2002   -7.6153   23.9706 H   0  0  0  0  0  0
  -21.1493   -6.0531   25.9079 H   0  0  0  0  0  0
  -22.0620   -2.7609   23.2821 H   0  0  0  0  0  0
  -22.4240  -11.9892   22.4880 H   0  0  0  0  0  0
  -21.1087  -13.1041   22.2458 H   0  0  0  0  0  0
  -24.6404  -15.8384   20.4906 H   0  0  0  0  0  0
  -26.2647  -15.6300   20.0703 H   0  0  0  0  0  0
  -26.7217  -32.5352   23.1049 H   0  0  0  0  0  0
  -25.0064  -33.9694   25.0398 H   0  0  0  0  0  0
  -22.7324  -31.3031   21.3918 H   0  0  0  0  0  0
  -23.3763  -35.9614   23.3313 H   0  0  0  0  0  0
  -24.3588  -36.8914   22.2064 H   0  0  0  0  0  0
  -23.7239  -37.6498   23.6666 H   0  0  0  0  0  0
  -26.1156  -31.5192   20.5943 H   0  0  0  0  0  0
  -26.8540  -30.8188   21.9990 H   0  0  0  0  0  0
  -28.1176  -28.9364   21.1975 H   0  0  0  0  0  0
  -25.9879  -25.8754   19.0377 H   0  0  0  0  0  0
  -23.9705  -27.2839   19.0139 H   0  0  0  0  0  0
  -23.7730  -30.5768   19.4012 H   0  0  0  0  0  0
  -22.7610  -29.2400   19.8525 H   0  0  0  0  0  0
  -25.1296  -36.1924   25.0835 H   0  0  0  0  0  0
  -21.0005  -28.3320   24.1417 H   0  0  0  0  0  0
  -20.5801  -26.2341   23.3653 H   0  0  0  0  0  0
  -21.6673  -26.7534   22.1156 H   0  0  0  0  0  0
  -19.6958  -25.6318   21.1281 H   0  0  0  0  0  0
  -19.6716  -27.3231   20.6794 H   0  0  0  0  0  0
  -17.4234  -26.6725   21.4025 H   0  0  0  0  0  0
  -18.0311  -26.0147   22.9050 H   0  0  0  0  0  0
  -19.7957  -30.7326   24.2251 H   0  0  0  0  0  0
  -17.5028  -31.6290   24.5213 H   0  0  0  0  0  0
  -15.5374  -30.3016   23.7701 H   0  0  0  0  0  0
  -15.8689  -28.0902   22.7002 H   0  0  0  0  0  0
  -24.5918  -30.7044   25.7748 H   0  0  0  0  0  0
  -24.8937  -32.2865   26.4847 H   0  0  0  0  0  0
  -25.8050  -30.8856   27.0204 H   0  0  0  0  0  0
  -26.2964  -29.6715   24.1238 H   0  0  0  0  0  0
  -27.4137  -29.7259   25.4683 H   0  0  0  0  0  0
  -27.8804  -30.4325   23.9398 H   0  0  0  0  0  0
  -27.2657  -33.3626   26.2028 H   0  0  0  0  0  0
  -28.3875  -32.6838   25.0311 H   0  0  0  0  0  0
  -28.0722  -31.8456   26.5429 H   0  0  0  0  0  0
  -28.2591  -38.0093   24.7513 H   0  0  0  0  0  0
  -28.1056  -36.2625   24.6279 H   0  0  0  0  0  0
  -27.2294  -37.1437   25.8875 H   0  0  0  0  0  0
  -20.9440  -29.8733   21.6780 H   0  0  0  0  0  0
  -26.0171  -38.2858   24.1375 H   0  0  0  0  0  0
  -27.6232  -17.8328   18.8441 H   0  0  0  0  0  0
  -25.9191  -20.4001   16.5922 H   0  0  0  0  0  0
  -24.7685  -20.1146   17.9059 H   0  0  0  0  0  0
  -25.5643  -18.7461   17.1199 H   0  0  0  0  0  0
  -33.8390  -17.6404   19.9772 H   0  0  0  0  0  0
  -32.3363  -17.4578   20.8615 H   0  0  0  0  0  0
  -32.5950  -18.8591   19.8242 H   0  0  0  0  0  0
  -33.6080  -17.9255   17.3232 H   0  0  0  0  0  0
  -32.0519  -18.7359   17.3640 H   0  0  0  0  0  0
  -32.2212  -17.1914   16.5284 H   0  0  0  0  0  0
  -29.8176  -22.1005   20.7091 H   0  0  0  0  0  0
  -28.2848  -22.2182   21.5317 H   0  0  0  0  0  0
  -27.5919  -23.5892   19.1840 H   0  0  0  0  0  0
  -29.2935  -23.8697   19.1506 H   0  0  0  0  0  0
  -30.4673  -18.9728   20.3470 H   0  0  0  0  0  0
  -29.4330  -19.0887   21.7078 H   0  0  0  0  0  0
  -28.2796  -16.7617   20.8263 H   0  0  0  0  0  0
  -29.6291  -16.8271   21.8770 H   0  0  0  0  0  0
  -30.4573  -15.9113   17.9698 H   0  0  0  0  0  0
  -30.0880  -17.5010   18.4959 H   0  0  0  0  0  0
  -28.9075  -24.9879   21.5201 H   0  0  0  0  0  0
  -27.2199  -24.9075   21.1732 H   0  0  0  0  0  0
  -32.7588  -16.0777   18.6340 H   0  0  0  0  0  0
  -26.8066  -21.9369   18.7579 H   0  0  0  0  0  0
  1 25  1  0  0  0
  1 30  2  0  0  0
  1 86  1  0  0  0
  2  3  1  0  0  0
  2 25  1  0  0  0
  2 87  1  0  0  0
  2 88  1  0  0  0
  3  4  1  0  0  0
  3 89  1  0  0  0
  3 90  1  0  0  0
  4  5  1  0  0  0
  4 91  1  0  0  0
  4 92  1  0  0  0
  5  6  1  0  0  0
  5 26  1  0  0  0
  5 93  1  0  0  0
  6 25  1  0  0  0
  6 94  1  0  0  0
  6 95  1  0  0  0
  7  8  2  0  0  0
  7 26  1  0  0  0
  7 29  1  0  0  0
  8  9  1  0  0  0
  8 22  1  0  0  0
  9 10  1  0  0  0
  9 27  2  0  0  0
 10 11  2  0  0  0
 10 15  1  0  0  0
 11 12  1  0  0  0
 11 96  1  0  0  0
 12 13  2  0  0  0
 12 97  1  0  0  0
 13 14  1  0  0  0
 13 31  1  0  0  0
 14 15  2  0  0  0
 14 98  1  0  0  0
 15 99  1  0  0  0
 16 17  2  0  0  0
 16 21  1  0  0  0
 16 31  1  0  0  0
 17 18  1  0  0  0
 17100  1  0  0  0
 18 19  2  0  0  0
 18101  1  0  0  0
 19 20  1  0  0  0
 19 24  1  0  0  0
 20 21  2  0  0  0
 20102  1  0  0  0
 21 23  1  0  0  0
 22 28  1  0  0  0
 22 32  2  0  0  0
 26 27  1  0  0  0
 28103  1  0  0  0
 28104  1  0  0  0
 29105  1  0  0  0
 29106  1  0  0  0
 33 34  1  0  0  0
 33 66  1  0  0  0
 33 70  2  0  0  0
 34 36  1  0  0  0
 34 59  1  0  0  0
 34107  1  0  0  0
 35 44  2  0  0  0
 35 45  1  0  0  0
 35 68  1  0  0  0
 36 56  1  0  0  0
 36108  1  0  0  0
 37 39  1  0  0  0
 37 47  1  0  0  0
 37 66  1  0  0  0
 37109  1  0  0  0
 38 43  2  0  0  0
 38 46  1  0  0  0
 38 47  1  0  0  0
 39 64  1  0  0  0
 39 67  2  0  0  0
 40 52  1  0  0  0
 40 53  2  0  0  0
 40 58  1  0  0  0
 41110  1  0  0  0
 41111  1  0  0  0
 41112  1  0  0  0
 41 48  1  0  0  0
 42 43  1  0  0  0
 42 66  1  0  0  0
 42113  1  0  0  0
 42114  1  0  0  0
 43 44  1  0  0  0
 44115  1  0  0  0
 45 46  2  0  0  0
 45116  1  0  0  0
 46117  1  0  0  0
 47118  1  0  0  0
 47119  1  0  0  0
 48 56  1  0  0  0
 48 65  1  0  0  0
 48120  1  0  0  0
 49 50  1  0  0  0
 49 53  1  0  0  0
 49 64  1  0  0  0
 49121  1  0  0  0
 50 51  1  0  0  0
 50122  1  0  0  0
 50123  1  0  0  0
 51 52  1  0  0  0
 51124  1  0  0  0
 51125  1  0  0  0
 52126  1  0  0  0
 52127  1  0  0  0
 53 54  1  0  0  0
 54 55  2  0  0  0
 54128  1  0  0  0
 55 57  1  0  0  0
 55129  1  0  0  0
 56 69  2  0  0  0
 57 58  2  0  0  0
 57130  1  0  0  0
 58131  1  0  0  0
 59 60  1  0  0  0
 59 61  1  0  0  0
 59 62  1  0  0  0
 60132  1  0  0  0
 60133  1  0  0  0
 60134  1  0  0  0
 61135  1  0  0  0
 61136  1  0  0  0
 61137  1  0  0  0
 62138  1  0  0  0
 62139  1  0  0  0
 62140  1  0  0  0
 63 65  1  0  0  0
 63141  1  0  0  0
 63142  1  0  0  0
 63143  1  0  0  0
 64144  1  0  0  0
 65145  1  0  0  0
 68 82  1  0  0  0
 71 72  2  0  0  0
 71 84  1  0  0  0
 71146  1  0  0  0
 72 74  1  0  0  0
 72 85  1  0  0  0
 73 77  1  0  0  0
 73 84  1  0  0  0
 73 85  2  0  0  0
 74147  1  0  0  0
 74148  1  0  0  0
 74149  1  0  0  0
 75150  1  0  0  0
 75151  1  0  0  0
 75152  1  0  0  0
 75 83  1  0  0  0
 76 83  1  0  0  0
 76153  1  0  0  0
 76154  1  0  0  0
 76155  1  0  0  0
 77 78  1  0  0  0
 77156  1  0  0  0
 77157  1  0  0  0
 78 82  1  0  0  0
 78158  1  0  0  0
 78159  1  0  0  0
 79 80  1  0  0  0
 79 84  1  0  0  0
 79160  1  0  0  0
 79161  1  0  0  0
 80 86  1  0  0  0
 80162  1  0  0  0
 80163  1  0  0  0
 81 83  1  0  0  0
 81 86  1  0  0  0
 81164  1  0  0  0
 81165  1  0  0  0
 82166  1  0  0  0
 82167  1  0  0  0
 83168  1  0  0  0
 85169  1  0  0  0
M  CHG  1  85   1
M  ISO  4   1 100  68 101  82 101  86 100
M  END
> <chiral flag>
0

> <version>
0

> <s_m_source_file>
/data/baiqing/PycharmProjects/Reinvent-master-3.2/result/LINK_invent/BTK/process_docking_weight1_custom_sum_contain_oxygen_bond_distance_aromatic_linkinvent_7_9_3/rearranged_h_0051.sdf

> <i_m_source_file_index>
11

> <r_mmod_Potential_Energy-OPLS-2005>
447.996551513672

> <r_mmod_Stretch_Energy-OPLS-2005>
149.41423034668

> <r_mmod_Bend_Energy-OPLS-2005>
229.259826660156

> <r_mmod_Torsional_Energy-OPLS-2005>
361.859191894531

> <r_mmod_Improper_Torsional_Energy-OPLS-2005>
22.3221530914307

> <r_mmod_Van_der_Waal_Energy-OPLS-2005>
111.704231262207

> <r_mmod_Electrostatic_Energy-OPLS-2005>
-128.891296386719

> <r_mmod_Solvation_Energy-OPLS-2005>
-405.175109863281

> <b_mmod_Minimization_Converged-OPLS-2005>
0

> <r_mmod_RMS_Derivative-OPLS-2005>
5.11148500442505

$$$$
12
                    3D
 Structure written by MMmdl.
158167  0  0  1  0            999 V2000
  -30.6556  -14.7243   20.4882 C   0  0  0  0  0  0
  -30.4169  -12.4514   19.4736 C   0  0  0  0  0  0
  -29.5006  -12.5086   18.2342 C   0  0  0  0  0  0
  -28.0291  -12.3328   18.6498 C   0  0  0  0  0  0
  -27.6366  -13.2344   19.8503 C   0  0  2  0  0  0
  -28.6805  -13.1820   20.9872 C   0  0  0  0  0  0
  -25.2476  -13.8200   20.5702 C   0  0  0  0  0  0
  -24.1781  -13.0438   20.9224 C   0  0  0  0  0  0
  -24.6380  -11.6920   20.8762 C   0  0  0  0  0  0
  -23.9062  -10.4292   21.0411 C   0  0  0  0  0  0
  -24.3616   -9.4207   21.9185 C   0  0  0  0  0  0
  -23.6292   -8.2241   22.0752 C   0  0  0  0  0  0
  -22.4275   -8.0278   21.3543 C   0  0  0  0  0  0
  -21.9910   -9.0251   20.4645 C   0  0  0  0  0  0
  -22.7236  -10.2132   20.3057 C   0  0  0  0  0  0
  -21.6852   -6.0732   22.5275 C   0  0  0  0  0  0
  -21.4012   -6.5637   23.8208 C   0  0  0  0  0  0
  -21.3661   -5.6790   24.9171 C   0  0  0  0  0  0
  -21.6046   -4.3053   24.7221 C   0  0  0  0  0  0
  -21.8820   -3.8142   23.4343 C   0  0  0  0  0  0
  -21.9193   -4.6959   22.3400 C   0  0  0  0  0  0
  -22.7803  -13.5217   21.1874 C   0  0  0  0  0  0
  -22.1661   -4.2145   21.0977 F   0  0  0  0  0  0
  -21.5632   -3.4538   25.7735 F   0  0  0  0  0  0
  -29.9837  -13.5228   20.4047 N   0  0  0  0  0  0
  -26.2905  -12.9415   20.3291 N   0  0  0  0  0  0
  -25.9311  -11.6555   20.5766 N   0  0  0  0  0  0
  -22.0450  -12.8208   22.0431 N   0  0  0  0  0  0
  -25.4143  -15.1922   20.4087 N   0  0  0  0  0  0
  -31.8218  -14.7857   20.0851 O   0  0  0  0  0  0
  -21.6642   -6.8874   21.4237 O   0  0  0  0  0  0
  -22.3489  -14.5520   20.6714 O   0  0  0  0  0  0
  -24.6292  -31.8541   23.1965 C   0  0  0  0  0  0
  -25.9121  -32.4745   23.8311 C   0  0  1  0  0  0
  -27.2257  -27.2699   20.1215 C   0  0  0  0  0  0
  -25.5923  -33.8548   24.2238 N   0  0  0  0  0  0
  -23.4259  -30.4743   21.5389 C   0  0  2  0  0  0
  -24.8731  -28.9174   20.1049 C   0  0  0  0  0  0
  -22.7492  -29.4589   22.4908 C   0  0  0  0  0  0
  -18.0289  -28.1389   22.8487 C   0  0  0  0  0  0
  -24.1486  -36.7273   23.2642 C   0  0  0  0  0  0
  -25.9684  -30.7681   21.3740 C   0  0  0  0  0  0
  -26.0401  -29.3905   20.7163 C   0  0  0  0  0  0
  -27.2134  -28.5749   20.7184 C   0  0  0  0  0  0
  -26.0353  -26.8533   19.4878 C   0  0  0  0  0  0
  -24.8750  -27.6570   19.4823 C   0  0  0  0  0  0
  -23.6425  -29.8035   20.1551 C   0  0  0  0  0  0
  -25.4114  -36.3063   24.0329 C   0  0  1  0  0  0
  -20.5892  -28.3694   23.1276 C   0  0  2  0  0  0
  -20.6773  -26.9411   22.5416 C   0  0  0  0  0  0
  -19.5752  -26.6382   21.5215 C   0  0  0  0  0  0
  -18.1931  -26.7933   22.1623 C   0  0  0  0  0  0
  -19.1543  -28.8858   23.2877 C   0  0  0  0  0  0
  -18.9466  -30.1460   23.8894 C   0  0  0  0  0  0
  -17.6466  -30.6591   24.0563 C   0  0  0  0  0  0
  -25.9057  -34.9436   23.5088 C   0  0  0  0  0  0
  -16.5355  -29.9092   23.6332 C   0  0  0  0  0  0
  -16.7276  -28.6508   23.0354 C   0  0  0  0  0  0
  -26.4496  -31.6579   25.0705 C   0  0  0  0  0  0
  -25.3723  -31.3738   26.1430 C   0  0  0  0  0  0
  -27.0344  -30.2996   24.6192 C   0  0  0  0  0  0
  -27.6049  -32.4326   25.7476 C   0  0  0  0  0  0
  -27.5579  -37.1786   24.8464 C   0  0  0  0  0  0
  -21.4199  -29.3034   22.3657 N   0  0  0  0  0  0
  -26.4283  -37.3767   23.9419 N   0  0  0  0  0  0
  -24.6934  -31.0510   22.0930 N   0  0  0  0  0  0
  -23.4196  -28.8141   23.3014 O   0  0  0  0  0  0
  -28.3436  -26.4159   20.2261 O   0  0  0  0  0  0
  -26.5634  -34.8918   22.4661 O   0  0  0  0  0  0
  -23.5446  -32.1361   23.7270 O   0  0  0  0  0  0
  -29.2099  -19.9758   18.5121 C   0  0  0  0  0  0
  -28.9348  -21.0159   19.4250 C   0  0  0  0  0  0
  -28.9094  -20.6073   20.7646 C   0  0  0  0  0  0
  -29.2555  -18.3353   20.1684 C   0  0  0  0  0  0
  -28.6933  -22.4991   18.9685 C   0  0  0  0  0  0
  -28.6844  -21.6953   21.8275 C   0  0  0  0  0  0
  -28.9759  -23.1773   21.3628 C   0  0  0  0  0  0
  -28.2837  -23.6064   20.0360 C   0  0  1  0  0  0
  -30.8643  -16.5169   22.1065 C   0  0  0  0  0  0
  -29.0462  -16.7753   20.4523 C   0  0  0  0  0  0
  -28.5199  -25.1260   19.4900 C   0  0  0  0  0  0
  -29.3672  -18.6763   18.8828 N   0  0  0  0  0  0
  -29.0404  -19.2776   21.1213 N   0  0  0  0  0  0
  -30.0785  -15.8460   21.0678 N   0  0  0  0  0  0
  -31.4600  -12.5520   19.1695 H   0  0  0  0  0  0
  -30.3466  -11.4769   19.9597 H   0  0  0  0  0  0
  -29.7821  -11.7345   17.5189 H   0  0  0  0  0  0
  -29.6289  -13.4628   17.7206 H   0  0  0  0  0  0
  -27.8862  -11.2841   18.9131 H   0  0  0  0  0  0
  -27.3703  -12.5239   17.8018 H   0  0  0  0  0  0
  -27.6249  -14.2525   19.4641 H   0  0  0  0  0  0
  -28.7131  -12.1906   21.4414 H   0  0  0  0  0  0
  -28.4119  -13.8760   21.7852 H   0  0  0  0  0  0
  -25.2760   -9.5686   22.4761 H   0  0  0  0  0  0
  -24.0000   -7.4633   22.7473 H   0  0  0  0  0  0
  -21.0841   -8.8766   19.8950 H   0  0  0  0  0  0
  -22.3689  -10.9670   19.6168 H   0  0  0  0  0  0
  -21.2001   -7.6145   23.9708 H   0  0  0  0  0  0
  -21.1485   -6.0522   25.9074 H   0  0  0  0  0  0
  -22.0599   -2.7604   23.2842 H   0  0  0  0  0  0
  -22.4073  -11.9874   22.4826 H   0  0  0  0  0  0
  -21.1064  -13.1225   22.2631 H   0  0  0  0  0  0
  -24.6391  -15.8387   20.5084 H   0  0  0  0  0  0
  -26.2462  -15.6271   20.0346 H   0  0  0  0  0  0
  -26.7183  -32.5390   23.1048 H   0  0  0  0  0  0
  -25.0070  -33.9684   25.0383 H   0  0  0  0  0  0
  -22.7222  -31.2963   21.3917 H   0  0  0  0  0  0
  -23.3757  -35.9597   23.3297 H   0  0  0  0  0  0
  -24.3579  -36.8900   22.2058 H   0  0  0  0  0  0
  -23.7230  -37.6468   23.6670 H   0  0  0  0  0  0
  -26.1068  -31.5292   20.6049 H   0  0  0  0  0  0
  -26.8462  -30.8167   22.0068 H   0  0  0  0  0  0
  -28.1062  -28.9289   21.2149 H   0  0  0  0  0  0
  -25.9700  -25.8780   19.0286 H   0  0  0  0  0  0
  -23.9774  -27.2864   19.0067 H   0  0  0  0  0  0
  -23.7636  -30.5783   19.3971 H   0  0  0  0  0  0
  -22.7611  -29.2347   19.8532 H   0  0  0  0  0  0
  -25.1296  -36.1902   25.0822 H   0  0  0  0  0  0
  -20.9987  -28.3273   24.1395 H   0  0  0  0  0  0
  -20.5662  -26.2307   23.3621 H   0  0  0  0  0  0
  -21.6642  -26.7430   22.1215 H   0  0  0  0  0  0
  -19.6915  -25.6292   21.1246 H   0  0  0  0  0  0
  -19.6697  -27.3190   20.6744 H   0  0  0  0  0  0
  -17.4204  -26.6689   21.4020 H   0  0  0  0  0  0
  -18.0324  -26.0075   22.9017 H   0  0  0  0  0  0
  -19.7943  -30.7277   24.2258 H   0  0  0  0  0  0
  -17.5023  -31.6271   24.5167 H   0  0  0  0  0  0
  -15.5356  -30.2992   23.7664 H   0  0  0  0  0  0
  -15.8675  -28.0826   22.7071 H   0  0  0  0  0  0
  -24.5905  -30.7074   25.7768 H   0  0  0  0  0  0
  -24.8903  -32.2908   26.4828 H   0  0  0  0  0  0
  -25.8041  -30.8942   27.0222 H   0  0  0  0  0  0
  -26.2924  -29.6739   24.1216 H   0  0  0  0  0  0
  -27.4029  -29.7265   25.4710 H   0  0  0  0  0  0
  -27.8800  -30.4273   23.9430 H   0  0  0  0  0  0
  -27.2657  -33.3640   26.2023 H   0  0  0  0  0  0
  -28.3873  -32.6862   25.0311 H   0  0  0  0  0  0
  -28.0700  -31.8469   26.5415 H   0  0  0  0  0  0
  -28.2583  -38.0098   24.7530 H   0  0  0  0  0  0
  -28.1087  -36.2630   24.6257 H   0  0  0  0  0  0
  -27.2303  -37.1393   25.8867 H   0  0  0  0  0  0
  -20.9384  -29.8748   21.6856 H   0  0  0  0  0  0
  -26.0158  -38.2834   24.1440 H   0  0  0  0  0  0
  -29.2783  -20.1814   17.4540 H   0  0  0  0  0  0
  -27.9563  -22.4944   18.1640 H   0  0  0  0  0  0
  -29.6261  -22.8149   18.4987 H   0  0  0  0  0  0
  -29.2965  -21.4639   22.6996 H   0  0  0  0  0  0
  -27.6474  -21.6214   22.1554 H   0  0  0  0  0  0
  -30.0530  -23.2909   21.2373 H   0  0  0  0  0  0
  -28.6943  -23.8655   22.1599 H   0  0  0  0  0  0
  -27.2122  -23.5048   20.2138 H   0  0  0  0  0  0
  -30.2272  -17.1281   22.7468 H   0  0  0  0  0  0
  -31.6231  -17.1629   21.6620 H   0  0  0  0  0  0
  -31.3713  -15.7978   22.7528 H   0  0  0  0  0  0
  -28.7441  -16.3262   19.5055 H   0  0  0  0  0  0
  -28.1601  -16.6966   21.0821 H   0  0  0  0  0  0
  -28.0088  -25.2146   18.5316 H   0  0  0  0  0  0
  -29.5722  -25.1600   19.2072 H   0  0  0  0  0  0
  1 25  1  0  0  0
  1 30  2  0  0  0
  1 84  1  0  0  0
  2  3  1  0  0  0
  2 25  1  0  0  0
  2 85  1  0  0  0
  2 86  1  0  0  0
  3  4  1  0  0  0
  3 87  1  0  0  0
  3 88  1  0  0  0
  4  5  1  0  0  0
  4 89  1  0  0  0
  4 90  1  0  0  0
  5  6  1  0  0  0
  5 26  1  0  0  0
  5 91  1  0  0  0
  6 25  1  0  0  0
  6 92  1  0  0  0
  6 93  1  0  0  0
  7  8  2  0  0  0
  7 26  1  0  0  0
  7 29  1  0  0  0
  8  9  1  0  0  0
  8 22  1  0  0  0
  9 10  1  0  0  0
  9 27  2  0  0  0
 10 11  2  0  0  0
 10 15  1  0  0  0
 11 12  1  0  0  0
 11 94  1  0  0  0
 12 13  2  0  0  0
 12 95  1  0  0  0
 13 14  1  0  0  0
 13 31  1  0  0  0
 14 15  2  0  0  0
 14 96  1  0  0  0
 15 97  1  0  0  0
 16 17  2  0  0  0
 16 21  1  0  0  0
 16 31  1  0  0  0
 17 18  1  0  0  0
 17 98  1  0  0  0
 18 19  2  0  0  0
 18 99  1  0  0  0
 19 20  1  0  0  0
 19 24  1  0  0  0
 20 21  2  0  0  0
 20100  1  0  0  0
 21 23  1  0  0  0
 22 28  1  0  0  0
 22 32  2  0  0  0
 26 27  1  0  0  0
 28101  1  0  0  0
 28102  1  0  0  0
 29103  1  0  0  0
 29104  1  0  0  0
 33 34  1  0  0  0
 33 66  1  0  0  0
 33 70  2  0  0  0
 34 36  1  0  0  0
 34 59  1  0  0  0
 34105  1  0  0  0
 35 44  2  0  0  0
 35 45  1  0  0  0
 35 68  1  0  0  0
 36 56  1  0  0  0
 36106  1  0  0  0
 37 39  1  0  0  0
 37 47  1  0  0  0
 37 66  1  0  0  0
 37107  1  0  0  0
 38 43  2  0  0  0
 38 46  1  0  0  0
 38 47  1  0  0  0
 39 64  1  0  0  0
 39 67  2  0  0  0
 40 52  1  0  0  0
 40 53  2  0  0  0
 40 58  1  0  0  0
 41108  1  0  0  0
 41109  1  0  0  0
 41110  1  0  0  0
 41 48  1  0  0  0
 42 43  1  0  0  0
 42 66  1  0  0  0
 42111  1  0  0  0
 42112  1  0  0  0
 43 44  1  0  0  0
 44113  1  0  0  0
 45 46  2  0  0  0
 45114  1  0  0  0
 46115  1  0  0  0
 47116  1  0  0  0
 47117  1  0  0  0
 48 56  1  0  0  0
 48 65  1  0  0  0
 48118  1  0  0  0
 49 50  1  0  0  0
 49 53  1  0  0  0
 49 64  1  0  0  0
 49119  1  0  0  0
 50 51  1  0  0  0
 50120  1  0  0  0
 50121  1  0  0  0
 51 52  1  0  0  0
 51122  1  0  0  0
 51123  1  0  0  0
 52124  1  0  0  0
 52125  1  0  0  0
 53 54  1  0  0  0
 54 55  2  0  0  0
 54126  1  0  0  0
 55 57  1  0  0  0
 55127  1  0  0  0
 56 69  2  0  0  0
 57 58  2  0  0  0
 57128  1  0  0  0
 58129  1  0  0  0
 59 60  1  0  0  0
 59 61  1  0  0  0
 59 62  1  0  0  0
 60130  1  0  0  0
 60131  1  0  0  0
 60132  1  0  0  0
 61133  1  0  0  0
 61134  1  0  0  0
 61135  1  0  0  0
 62136  1  0  0  0
 62137  1  0  0  0
 62138  1  0  0  0
 63 65  1  0  0  0
 63139  1  0  0  0
 63140  1  0  0  0
 63141  1  0  0  0
 64142  1  0  0  0
 65143  1  0  0  0
 68 81  1  0  0  0
 71 72  2  0  0  0
 71 82  1  0  0  0
 71144  1  0  0  0
 72 73  1  0  0  0
 72 75  1  0  0  0
 73 76  1  0  0  0
 73 83  2  0  0  0
 74 80  1  0  0  0
 74 82  2  0  0  0
 74 83  1  0  0  0
 75 78  1  0  0  0
 75145  1  0  0  0
 75146  1  0  0  0
 76 77  1  0  0  0
 76147  1  0  0  0
 76148  1  0  0  0
 77 78  1  0  0  0
 77149  1  0  0  0
 77150  1  0  0  0
 78 81  1  0  0  0
 78151  1  0  0  0
 79 84  1  0  0  0
 79152  1  0  0  0
 79153  1  0  0  0
 79154  1  0  0  0
 80 84  1  0  0  0
 80155  1  0  0  0
 80156  1  0  0  0
 81157  1  0  0  0
 81158  1  0  0  0
M  ISO  4   1 100  68 101  81 101  84 100
M  END
> <chiral flag>
0

> <version>
0

> <s_m_source_file>
/data/baiqing/PycharmProjects/Reinvent-master-3.2/result/LINK_invent/BTK/process_docking_weight1_custom_sum_contain_oxygen_bond_distance_aromatic_linkinvent_7_9_3/rearranged_h_0051.sdf

> <i_m_source_file_index>
12

> <r_mmod_Potential_Energy-OPLS-2005>
-174.331665039062

> <r_mmod_Stretch_Energy-OPLS-2005>
108.9716796875

> <r_mmod_Bend_Energy-OPLS-2005>
205.9453125

> <r_mmod_Torsional_Energy-OPLS-2005>
272.949066162109

> <r_mmod_Improper_Torsional_Energy-OPLS-2005>
5.95383930206299

> <r_mmod_Van_der_Waal_Energy-OPLS-2005>
141.576782226562

> <r_mmod_Electrostatic_Energy-OPLS-2005>
-761.884582519531

> <r_mmod_Solvation_Energy-OPLS-2005>
-225.468460083008

> <b_mmod_Minimization_Converged-OPLS-2005>
0

> <r_mmod_RMS_Derivative-OPLS-2005>
0.461377263069153

$$$$
13
                    3D
 Structure written by MMmdl.
156164  0  0  1  0            999 V2000
  -30.6267  -14.7162   20.5665 C   0  0  0  0  0  0
  -30.4324  -12.4617   19.4756 C   0  0  0  0  0  0
  -29.5154  -12.5370   18.2342 C   0  0  0  0  0  0
  -28.0389  -12.3468   18.6311 C   0  0  0  0  0  0
  -27.6440  -13.2229   19.8471 C   0  0  2  0  0  0
  -28.6728  -13.1036   20.9839 C   0  0  0  0  0  0
  -25.2528  -13.8173   20.5631 C   0  0  0  0  0  0
  -24.1809  -13.0432   20.9140 C   0  0  0  0  0  0
  -24.6387  -11.6899   20.8687 C   0  0  0  0  0  0
  -23.9057  -10.4285   21.0385 C   0  0  0  0  0  0
  -24.3619   -9.4210   21.9170 C   0  0  0  0  0  0
  -23.6294   -8.2246   22.0753 C   0  0  0  0  0  0
  -22.4278   -8.0271   21.3538 C   0  0  0  0  0  0
  -21.9902   -9.0246   20.4647 C   0  0  0  0  0  0
  -22.7223  -10.2126   20.3047 C   0  0  0  0  0  0
  -21.6859   -6.0726   22.5273 C   0  0  0  0  0  0
  -21.4017   -6.5636   23.8203 C   0  0  0  0  0  0
  -21.3658   -5.6791   24.9169 C   0  0  0  0  0  0
  -21.6048   -4.3052   24.7227 C   0  0  0  0  0  0
  -21.8822   -3.8141   23.4348 C   0  0  0  0  0  0
  -21.9198   -4.6954   22.3402 C   0  0  0  0  0  0
  -22.7839  -13.5227   21.1829 C   0  0  0  0  0  0
  -22.1660   -4.2135   21.0979 F   0  0  0  0  0  0
  -21.5634   -3.4540   25.7742 F   0  0  0  0  0  0
  -29.9874  -13.4941   20.4488 N   0  0  0  0  0  0
  -26.2925  -12.9351   20.3174 N   0  0  0  0  0  0
  -25.9301  -11.6497   20.5652 N   0  0  0  0  0  0
  -22.0493  -12.8227   22.0398 N   0  0  0  0  0  0
  -25.4294  -15.1895   20.4112 N   0  0  0  0  0  0
  -31.7411  -14.8580   20.0500 O   0  0  0  0  0  0
  -21.6643   -6.8866   21.4233 O   0  0  0  0  0  0
  -22.3512  -14.5524   20.6669 O   0  0  0  0  0  0
  -24.6307  -31.8549   23.1967 C   0  0  0  0  0  0
  -25.9127  -32.4753   23.8306 C   0  0  1  0  0  0
  -27.2143  -27.2610   20.1354 C   0  0  0  0  0  0
  -25.5939  -33.8554   24.2252 N   0  0  0  0  0  0
  -23.4275  -30.4780   21.5403 C   0  0  2  0  0  0
  -24.8738  -28.9256   20.1086 C   0  0  0  0  0  0
  -22.7497  -29.4595   22.4898 C   0  0  0  0  0  0
  -18.0293  -28.1398   22.8481 C   0  0  0  0  0  0
  -24.1485  -36.7284   23.2638 C   0  0  0  0  0  0
  -25.9709  -30.7711   21.3725 C   0  0  0  0  0  0
  -26.0446  -29.3923   20.7193 C   0  0  0  0  0  0
  -27.2171  -28.5712   20.7234 C   0  0  0  0  0  0
  -26.0244  -26.8692   19.4816 C   0  0  0  0  0  0
  -24.8698  -27.6741   19.4768 C   0  0  0  0  0  0
  -23.6442  -29.8095   20.1578 C   0  0  0  0  0  0
  -25.4106  -36.3067   24.0331 C   0  0  1  0  0  0
  -20.5890  -28.3700   23.1272 C   0  0  2  0  0  0
  -20.6777  -26.9424   22.5404 C   0  0  0  0  0  0
  -19.5754  -26.6395   21.5210 C   0  0  0  0  0  0
  -18.1931  -26.7945   22.1615 C   0  0  0  0  0  0
  -19.1546  -28.8862   23.2872 C   0  0  0  0  0  0
  -18.9467  -30.1459   23.8894 C   0  0  0  0  0  0
  -17.6469  -30.6591   24.0558 C   0  0  0  0  0  0
  -25.9056  -34.9436   23.5090 C   0  0  0  0  0  0
  -16.5358  -29.9088   23.6342 C   0  0  0  0  0  0
  -16.7280  -28.6509   23.0359 C   0  0  0  0  0  0
  -26.4518  -31.6583   25.0690 C   0  0  0  0  0  0
  -25.3751  -31.3736   26.1417 C   0  0  0  0  0  0
  -27.0363  -30.3008   24.6156 C   0  0  0  0  0  0
  -27.6087  -32.4319   25.7445 C   0  0  0  0  0  0
  -27.5578  -37.1769   24.8464 C   0  0  0  0  0  0
  -21.4203  -29.3046   22.3653 N   0  0  0  0  0  0
  -26.4278  -37.3773   23.9424 N   0  0  0  0  0  0
  -24.6962  -31.0519   22.0942 N   0  0  0  0  0  0
  -23.4192  -28.8135   23.2993 O   0  0  0  0  0  0
  -28.3031  -26.3609   20.2168 O   0  0  0  0  0  0
  -26.5623  -34.8907   22.4658 O   0  0  0  0  0  0
  -23.5463  -32.1354   23.7283 O   0  0  0  0  0  0
  -29.4050  -21.2029   21.1929 C   0  0  0  0  0  0
  -28.3979  -21.6423   19.3514 C   0  0  0  0  0  0
  -29.1055  -19.9633   20.5974 C   0  0  0  0  0  0
  -30.9740  -16.3953   23.3055 C   0  0  0  0  0  0
  -29.1856  -18.4855   21.1708 C   0  0  0  0  0  0
  -29.1063  -23.7996   20.6327 C   0  0  0  0  0  0
  -29.7469  -15.8593   22.5457 C   0  0  0  0  0  0
  -29.9520  -17.2395   20.4500 C   0  0  0  0  0  0
  -28.0656  -24.8829   20.0434 C   0  0  0  0  0  0
  -28.4435  -20.2957   19.4087 N   0  0  0  0  0  0
  -28.9385  -22.2942   20.3979 N   0  0  0  0  0  0
  -29.9486  -15.8273   21.0830 N   0  0  0  0  0  0
  -31.4731  -12.5916   19.1756 H   0  0  0  0  0  0
  -30.3843  -11.4696   19.9260 H   0  0  0  0  0  0
  -29.8075  -11.7844   17.5003 H   0  0  0  0  0  0
  -29.6422  -13.5035   17.7442 H   0  0  0  0  0  0
  -27.8894  -11.2926   18.8674 H   0  0  0  0  0  0
  -27.3915  -12.5617   17.7803 H   0  0  0  0  0  0
  -27.6568  -14.2566   19.4998 H   0  0  0  0  0  0
  -28.7069  -12.0833   21.3690 H   0  0  0  0  0  0
  -28.3332  -13.7162   21.8111 H   0  0  0  0  0  0
  -25.2777   -9.5689   22.4721 H   0  0  0  0  0  0
  -24.0010   -7.4645   22.7478 H   0  0  0  0  0  0
  -21.0831   -8.8751   19.8960 H   0  0  0  0  0  0
  -22.3676  -10.9653   19.6144 H   0  0  0  0  0  0
  -21.1997   -7.6141   23.9696 H   0  0  0  0  0  0
  -21.1481   -6.0526   25.9068 H   0  0  0  0  0  0
  -22.0604   -2.7600   23.2856 H   0  0  0  0  0  0
  -22.4128  -11.9910   22.4808 H   0  0  0  0  0  0
  -21.1101  -13.1227   22.2580 H   0  0  0  0  0  0
  -24.6721  -15.8543   20.5250 H   0  0  0  0  0  0
  -26.2988  -15.6228   20.1255 H   0  0  0  0  0  0
  -26.7168  -32.5414   23.1027 H   0  0  0  0  0  0
  -25.0116  -33.9703   25.0416 H   0  0  0  0  0  0
  -22.7250  -31.3000   21.3914 H   0  0  0  0  0  0
  -23.3757  -35.9607   23.3295 H   0  0  0  0  0  0
  -24.3578  -36.8926   22.2055 H   0  0  0  0  0  0
  -23.7218  -37.6474   23.6666 H   0  0  0  0  0  0
  -26.0998  -31.5263   20.5965 H   0  0  0  0  0  0
  -26.8539  -30.8295   21.9968 H   0  0  0  0  0  0
  -28.1088  -28.9193   21.2258 H   0  0  0  0  0  0
  -25.9550  -25.9139   18.9821 H   0  0  0  0  0  0
  -23.9739  -27.3186   18.9862 H   0  0  0  0  0  0
  -23.7622  -30.5819   19.3971 H   0  0  0  0  0  0
  -22.7642  -29.2376   19.8572 H   0  0  0  0  0  0
  -25.1274  -36.1917   25.0821 H   0  0  0  0  0  0
  -20.9985  -28.3280   24.1389 H   0  0  0  0  0  0
  -20.5689  -26.2308   23.3604 H   0  0  0  0  0  0
  -21.6637  -26.7448   22.1179 H   0  0  0  0  0  0
  -19.6927  -25.6312   21.1233 H   0  0  0  0  0  0
  -19.6702  -27.3205   20.6742 H   0  0  0  0  0  0
  -17.4205  -26.6707   21.4015 H   0  0  0  0  0  0
  -18.0314  -26.0087   22.9005 H   0  0  0  0  0  0
  -19.7940  -30.7272   24.2265 H   0  0  0  0  0  0
  -17.5023  -31.6273   24.5154 H   0  0  0  0  0  0
  -15.5356  -30.2981   23.7681 H   0  0  0  0  0  0
  -15.8681  -28.0822   22.7082 H   0  0  0  0  0  0
  -24.5943  -30.7061   25.7757 H   0  0  0  0  0  0
  -24.8915  -32.2907   26.4788 H   0  0  0  0  0  0
  -25.8082  -30.8959   27.0217 H   0  0  0  0  0  0
  -26.2930  -29.6735   24.1224 H   0  0  0  0  0  0
  -27.4126  -29.7282   25.4646 H   0  0  0  0  0  0
  -27.8772  -30.4307   23.9337 H   0  0  0  0  0  0
  -27.2721  -33.3626   26.2014 H   0  0  0  0  0  0
  -28.3894  -32.6874   25.0268 H   0  0  0  0  0  0
  -28.0761  -31.8445   26.5363 H   0  0  0  0  0  0
  -28.2581  -38.0079   24.7528 H   0  0  0  0  0  0
  -28.1085  -36.2612   24.6257 H   0  0  0  0  0  0
  -27.2305  -37.1380   25.8868 H   0  0  0  0  0  0
  -20.9395  -29.8772   21.6863 H   0  0  0  0  0  0
  -26.0171  -38.2842   24.1473 H   0  0  0  0  0  0
  -29.8822  -21.3937   22.1451 H   0  0  0  0  0  0
  -27.9493  -22.1640   18.5189 H   0  0  0  0  0  0
  -30.7531  -16.4744   24.3708 H   0  0  0  0  0  0
  -31.2851  -17.3828   22.9670 H   0  0  0  0  0  0
  -31.8283  -15.7275   23.1990 H   0  0  0  0  0  0
  -28.1592  -18.1575   21.3386 H   0  0  0  0  0  0
  -29.5905  -18.5846   22.1764 H   0  0  0  0  0  0
  -29.1509  -23.9477   21.7121 H   0  0  0  0  0  0
  -30.0985  -24.0621   20.2652 H   0  0  0  0  0  0
  -28.8484  -16.4229   22.7953 H   0  0  0  0  0  0
  -29.5737  -14.8665   22.9561 H   0  0  0  0  0  0
  -30.9943  -17.5234   20.3045 H   0  0  0  0  0  0
  -29.5382  -17.1323   19.4471 H   0  0  0  0  0  0
  -27.0989  -24.6362   20.4849 H   0  0  0  0  0  0
  -27.9648  -24.7014   18.9729 H   0  0  0  0  0  0
  1 25  1  0  0  0
  1 30  2  0  0  0
  1 82  1  0  0  0
  2  3  1  0  0  0
  2 25  1  0  0  0
  2 83  1  0  0  0
  2 84  1  0  0  0
  3  4  1  0  0  0
  3 85  1  0  0  0
  3 86  1  0  0  0
  4  5  1  0  0  0
  4 87  1  0  0  0
  4 88  1  0  0  0
  5  6  1  0  0  0
  5 26  1  0  0  0
  5 89  1  0  0  0
  6 25  1  0  0  0
  6 90  1  0  0  0
  6 91  1  0  0  0
  7  8  2  0  0  0
  7 26  1  0  0  0
  7 29  1  0  0  0
  8  9  1  0  0  0
  8 22  1  0  0  0
  9 10  1  0  0  0
  9 27  2  0  0  0
 10 11  2  0  0  0
 10 15  1  0  0  0
 11 12  1  0  0  0
 11 92  1  0  0  0
 12 13  2  0  0  0
 12 93  1  0  0  0
 13 14  1  0  0  0
 13 31  1  0  0  0
 14 15  2  0  0  0
 14 94  1  0  0  0
 15 95  1  0  0  0
 16 17  2  0  0  0
 16 21  1  0  0  0
 16 31  1  0  0  0
 17 18  1  0  0  0
 17 96  1  0  0  0
 18 19  2  0  0  0
 18 97  1  0  0  0
 19 20  1  0  0  0
 19 24  1  0  0  0
 20 21  2  0  0  0
 20 98  1  0  0  0
 21 23  1  0  0  0
 22 28  1  0  0  0
 22 32  2  0  0  0
 26 27  1  0  0  0
 28 99  1  0  0  0
 28100  1  0  0  0
 29101  1  0  0  0
 29102  1  0  0  0
 33 34  1  0  0  0
 33 66  1  0  0  0
 33 70  2  0  0  0
 34 36  1  0  0  0
 34 59  1  0  0  0
 34103  1  0  0  0
 35 44  2  0  0  0
 35 45  1  0  0  0
 35 68  1  0  0  0
 36 56  1  0  0  0
 36104  1  0  0  0
 37 39  1  0  0  0
 37 47  1  0  0  0
 37 66  1  0  0  0
 37105  1  0  0  0
 38 43  2  0  0  0
 38 46  1  0  0  0
 38 47  1  0  0  0
 39 64  1  0  0  0
 39 67  2  0  0  0
 40 52  1  0  0  0
 40 53  2  0  0  0
 40 58  1  0  0  0
 41106  1  0  0  0
 41107  1  0  0  0
 41108  1  0  0  0
 41 48  1  0  0  0
 42 43  1  0  0  0
 42 66  1  0  0  0
 42109  1  0  0  0
 42110  1  0  0  0
 43 44  1  0  0  0
 44111  1  0  0  0
 45 46  2  0  0  0
 45112  1  0  0  0
 46113  1  0  0  0
 47114  1  0  0  0
 47115  1  0  0  0
 48 56  1  0  0  0
 48 65  1  0  0  0
 48116  1  0  0  0
 49 50  1  0  0  0
 49 53  1  0  0  0
 49 64  1  0  0  0
 49117  1  0  0  0
 50 51  1  0  0  0
 50118  1  0  0  0
 50119  1  0  0  0
 51 52  1  0  0  0
 51120  1  0  0  0
 51121  1  0  0  0
 52122  1  0  0  0
 52123  1  0  0  0
 53 54  1  0  0  0
 54 55  2  0  0  0
 54124  1  0  0  0
 55 57  1  0  0  0
 55125  1  0  0  0
 56 69  2  0  0  0
 57 58  2  0  0  0
 57126  1  0  0  0
 58127  1  0  0  0
 59 60  1  0  0  0
 59 61  1  0  0  0
 59 62  1  0  0  0
 60128  1  0  0  0
 60129  1  0  0  0
 60130  1  0  0  0
 61131  1  0  0  0
 61132  1  0  0  0
 61133  1  0  0  0
 62134  1  0  0  0
 62135  1  0  0  0
 62136  1  0  0  0
 63 65  1  0  0  0
 63137  1  0  0  0
 63138  1  0  0  0
 63139  1  0  0  0
 64140  1  0  0  0
 65141  1  0  0  0
 68 79  1  0  0  0
 71 73  2  0  0  0
 71 81  1  0  0  0
 71142  1  0  0  0
 72 80  2  0  0  0
 72 81  1  0  0  0
 72143  1  0  0  0
 73 75  1  0  0  0
 73 80  1  0  0  0
 74 77  1  0  0  0
 74144  1  0  0  0
 74145  1  0  0  0
 74146  1  0  0  0
 75 78  1  0  0  0
 75147  1  0  0  0
 75148  1  0  0  0
 76 79  1  0  0  0
 76 81  1  0  0  0
 76149  1  0  0  0
 76150  1  0  0  0
 77 82  1  0  0  0
 77151  1  0  0  0
 77152  1  0  0  0
 78 82  1  0  0  0
 78153  1  0  0  0
 78154  1  0  0  0
 79155  1  0  0  0
 79156  1  0  0  0
M  ISO  4   1 100  68 101  79 101  82 100
M  END
> <chiral flag>
0

> <version>
0

> <s_m_source_file>
/data/baiqing/PycharmProjects/Reinvent-master-3.2/result/LINK_invent/BTK/process_docking_weight1_custom_sum_contain_oxygen_bond_distance_aromatic_linkinvent_7_9_3/rearranged_h_0051.sdf

> <i_m_source_file_index>
13

> <r_mmod_Potential_Energy-OPLS-2005>
316.803955078125

> <r_mmod_Stretch_Energy-OPLS-2005>
129.264709472656

> <r_mmod_Bend_Energy-OPLS-2005>
179.765914916992

> <r_mmod_Torsional_Energy-OPLS-2005>
292.419952392578

> <r_mmod_Improper_Torsional_Energy-OPLS-2005>
7.32361078262329

> <r_mmod_Van_der_Waal_Energy-OPLS-2005>
124.705810546875

> <r_mmod_Electrostatic_Energy-OPLS-2005>
-280.566345214844

> <r_mmod_Solvation_Energy-OPLS-2005>
-213.614028930664

> <b_mmod_Minimization_Converged-OPLS-2005>
0

> <r_mmod_RMS_Derivative-OPLS-2005>
1.98030912876129

$$$$
14
                    3D
 Structure written by MMmdl.
164172  0  0  1  0            999 V2000
  -30.7419  -14.4245   20.5731 C   0  0  0  0  0  0
  -30.4176  -12.2927   19.3994 C   0  0  0  0  0  0
  -29.4824  -12.4926   18.1914 C   0  0  0  0  0  0
  -28.0053  -12.3683   18.6125 C   0  0  0  0  0  0
  -27.6634  -13.1967   19.8814 C   0  0  2  0  0  0
  -28.7147  -12.9412   20.9873 C   0  0  0  0  0  0
  -25.2568  -13.8090   20.5643 C   0  0  0  0  0  0
  -24.1874  -13.0441   20.9217 C   0  0  0  0  0  0
  -24.6399  -11.6873   20.8780 C   0  0  0  0  0  0
  -23.9040  -10.4291   21.0402 C   0  0  0  0  0  0
  -24.3587   -9.4192   21.9174 C   0  0  0  0  0  0
  -23.6261   -8.2229   22.0755 C   0  0  0  0  0  0
  -22.4235   -8.0250   21.3540 C   0  0  0  0  0  0
  -21.9876   -9.0231   20.4651 C   0  0  0  0  0  0
  -22.7206  -10.2113   20.3058 C   0  0  0  0  0  0
  -21.6835   -6.0724   22.5276 C   0  0  0  0  0  0
  -21.3999   -6.5619   23.8222 C   0  0  0  0  0  0
  -21.3658   -5.6759   24.9183 C   0  0  0  0  0  0
  -21.6067   -4.3031   24.7218 C   0  0  0  0  0  0
  -21.8819   -3.8128   23.4331 C   0  0  0  0  0  0
  -21.9192   -4.6957   22.3398 C   0  0  0  0  0  0
  -22.7875  -13.5238   21.1856 C   0  0  0  0  0  0
  -22.1652   -4.2118   21.0987 F   0  0  0  0  0  0
  -21.5644   -3.4538   25.7750 F   0  0  0  0  0  0
  -30.0297  -13.2747   20.4244 N   0  0  0  0  0  0
  -26.3040  -12.9295   20.3421 N   0  0  0  0  0  0
  -25.9310  -11.6458   20.5773 N   0  0  0  0  0  0
  -22.0482  -12.8271   22.0381 N   0  0  0  0  0  0
  -25.4285  -15.1812   20.3944 N   0  0  0  0  0  0
  -31.8926  -14.5488   20.1540 O   0  0  0  0  0  0
  -21.6624   -6.8831   21.4208 O   0  0  0  0  0  0
  -22.3605  -14.5584   20.6673 O   0  0  0  0  0  0
  -24.6189  -31.8673   23.2196 C   0  0  0  0  0  0
  -25.9093  -32.4843   23.8437 C   0  0  1  0  0  0
  -27.1983  -27.4715   20.0658 C   0  0  0  0  0  0
  -25.5952  -33.8638   24.2383 N   0  0  0  0  0  0
  -23.4089  -30.5023   21.5607 C   0  0  2  0  0  0
  -24.8346  -28.9802   20.0982 C   0  0  0  0  0  0
  -22.7437  -29.4679   22.4940 C   0  0  0  0  0  0
  -18.0313  -28.1339   22.8573 C   0  0  0  0  0  0
  -24.1503  -36.7355   23.2620 C   0  0  0  0  0  0
  -25.9347  -30.8321   21.3729 C   0  0  0  0  0  0
  -26.0010  -29.4849   20.6913 C   0  0  0  0  0  0
  -27.1948  -28.7474   20.6546 C   0  0  0  0  0  0
  -26.0304  -26.9816   19.4335 C   0  0  0  0  0  0
  -24.8433  -27.7249   19.4585 C   0  0  0  0  0  0
  -23.6135  -29.8573   20.1616 C   0  0  0  0  0  0
  -25.4103  -36.3151   24.0346 C   0  0  1  0  0  0
  -20.5866  -28.3848   23.1304 C   0  0  2  0  0  0
  -20.6864  -26.9664   22.5196 C   0  0  0  0  0  0
  -19.5749  -26.6390   21.5092 C   0  0  0  0  0  0
  -18.2061  -26.7852   22.1799 C   0  0  0  0  0  0
  -19.1529  -28.8910   23.2935 C   0  0  0  0  0  0
  -18.9279  -30.1514   23.8840 C   0  0  0  0  0  0
  -17.6209  -30.6535   24.0413 C   0  0  0  0  0  0
  -25.9025  -34.9502   23.5135 C   0  0  0  0  0  0
  -16.5165  -29.8991   23.6167 C   0  0  0  0  0  0
  -16.7283  -28.6347   23.0395 C   0  0  0  0  0  0
  -26.4502  -31.6597   25.0776 C   0  0  0  0  0  0
  -25.3757  -31.3738   26.1528 C   0  0  0  0  0  0
  -27.0332  -30.3030   24.6117 C   0  0  0  0  0  0
  -27.6075  -32.4316   25.7537 C   0  0  0  0  0  0
  -27.5589  -37.1837   24.8460 C   0  0  0  0  0  0
  -21.4128  -29.3322   22.3804 N   0  0  0  0  0  0
  -26.4290  -37.3819   23.9423 N   0  0  0  0  0  0
  -24.6746  -31.0753   22.1147 N   0  0  0  0  0  0
  -23.4143  -28.8048   23.2911 O   0  0  0  0  0  0
  -28.2291  -26.6222   20.3519 O   0  0  0  0  0  0
  -26.5533  -34.8913   22.4691 O   0  0  0  0  0  0
  -23.5317  -32.1468   23.7483 O   0  0  0  0  0  0
  -25.4023  -21.8059   20.9192 C   0  0  0  0  0  0
  -25.9732  -21.4652   22.1784 C   0  0  0  0  0  0
  -25.7716  -18.5545   20.9766 C   0  0  0  0  0  0
  -26.4054  -20.1446   22.7716 C   0  0  0  0  0  0
  -26.7686  -25.7693   22.2714 C   0  0  0  0  0  0
  -28.7542  -17.4967   21.4616 C   0  0  0  0  0  0
  -25.5044  -24.9049   22.4549 C   0  0  0  0  0  0
  -29.0283  -15.9975   21.6795 C   0  0  0  0  0  0
  -27.6696  -18.0503   22.4132 C   0  0  0  0  0  0
  -27.7245  -25.4558   21.0555 C   0  0  0  0  0  0
  -25.1920  -23.0925   20.8474 N   0  0  0  0  0  0
  -26.1045  -22.5703   22.8760 N   0  0  0  0  0  0
  -25.6425  -23.5269   22.0465 N   0  0  0  0  0  0
  -30.0871  -15.5719   20.7728 N   0  0  0  0  0  0
  -26.8739  -19.1433   21.7812 N   0  3  1  0  0  0
  -31.4587  -12.3838   19.0842 H   0  0  0  0  0  0
  -30.3275  -11.2782   19.7872 H   0  0  0  0  0  0
  -29.7118  -11.7701   17.4082 H   0  0  0  0  0  0
  -29.6614  -13.4738   17.7524 H   0  0  0  0  0  0
  -27.7998  -11.3125   18.7898 H   0  0  0  0  0  0
  -27.3598  -12.6613   17.7877 H   0  0  0  0  0  0
  -27.7197  -14.2452   19.5937 H   0  0  0  0  0  0
  -28.6999  -11.8870   21.2594 H   0  0  0  0  0  0
  -28.5048  -13.4578   21.9223 H   0  0  0  0  0  0
  -25.2717   -9.5679   22.4770 H   0  0  0  0  0  0
  -23.9986   -7.4605   22.7462 H   0  0  0  0  0  0
  -21.0829   -8.8744   19.8924 H   0  0  0  0  0  0
  -22.3652  -10.9663   19.6192 H   0  0  0  0  0  0
  -21.1961   -7.6127   23.9703 H   0  0  0  0  0  0
  -21.1489   -6.0510   25.9091 H   0  0  0  0  0  0
  -22.0599   -2.7579   23.2868 H   0  0  0  0  0  0
  -22.4064  -11.9908   22.4790 H   0  0  0  0  0  0
  -21.1077  -13.1291   22.2573 H   0  0  0  0  0  0
  -24.5890  -15.7435   20.3202 H   0  0  0  0  0  0
  -26.1981  -15.5255   19.8379 H   0  0  0  0  0  0
  -26.7104  -32.5506   23.1094 H   0  0  0  0  0  0
  -25.0290  -33.9833   25.0634 H   0  0  0  0  0  0
  -22.7076  -31.3292   21.4351 H   0  0  0  0  0  0
  -23.3749  -35.9698   23.3256 H   0  0  0  0  0  0
  -24.3629  -36.8977   22.2043 H   0  0  0  0  0  0
  -23.7267  -37.6555   23.6642 H   0  0  0  0  0  0
  -26.0444  -31.6028   20.6052 H   0  0  0  0  0  0
  -26.8180  -30.8616   22.0002 H   0  0  0  0  0  0
  -28.0765  -29.1065   21.1572 H   0  0  0  0  0  0
  -26.0179  -26.0032   18.9746 H   0  0  0  0  0  0
  -23.9553  -27.3165   18.9871 H   0  0  0  0  0  0
  -23.7745  -30.6547   19.4338 H   0  0  0  0  0  0
  -22.7349  -29.3084   19.8319 H   0  0  0  0  0  0
  -25.1274  -36.1999   25.0827 H   0  0  0  0  0  0
  -20.9972  -28.3243   24.1433 H   0  0  0  0  0  0
  -20.6223  -26.2603   23.3464 H   0  0  0  0  0  0
  -21.6736  -26.8020   22.0884 H   0  0  0  0  0  0
  -19.6856  -25.6249   21.1303 H   0  0  0  0  0  0
  -19.6542  -27.3079   20.6539 H   0  0  0  0  0  0
  -17.4157  -26.6317   21.4427 H   0  0  0  0  0  0
  -18.0799  -26.0173   22.9358 H   0  0  0  0  0  0
  -19.7622  -30.7485   24.2116 H   0  0  0  0  0  0
  -17.4617  -31.6209   24.4852 H   0  0  0  0  0  0
  -15.5072  -30.2768   23.7383 H   0  0  0  0  0  0
  -15.8726  -28.0540   22.7246 H   0  0  0  0  0  0
  -24.5922  -30.7073   25.7918 H   0  0  0  0  0  0
  -24.8940  -32.2891   26.4922 H   0  0  0  0  0  0
  -25.8063  -30.8978   27.0303 H   0  0  0  0  0  0
  -26.2854  -29.6801   24.1154 H   0  0  0  0  0  0
  -27.4130  -29.7256   25.4537 H   0  0  0  0  0  0
  -27.8687  -30.4421   23.9259 H   0  0  0  0  0  0
  -27.2694  -33.3562   26.2135 H   0  0  0  0  0  0
  -28.3819  -32.6866   25.0357 H   0  0  0  0  0  0
  -28.0733  -31.8414   26.5371 H   0  0  0  0  0  0
  -28.2585  -38.0146   24.7527 H   0  0  0  0  0  0
  -28.1103  -36.2693   24.6254 H   0  0  0  0  0  0
  -27.2338  -37.1458   25.8861 H   0  0  0  0  0  0
  -20.9380  -29.9668   21.7531 H   0  0  0  0  0  0
  -26.0181  -38.2885   24.1405 H   0  0  0  0  0  0
  -25.1531  -21.1940   20.0690 H   0  0  0  0  0  0
  -25.2665  -19.2461   20.3210 H   0  0  0  0  0  0
  -24.9998  -18.1303   21.6179 H   0  0  0  0  0  0
  -26.1341  -17.7686   20.3207 H   0  0  0  0  0  0
  -25.6320  -19.7159   23.4102 H   0  0  0  0  0  0
  -27.2407  -20.3383   23.4413 H   0  0  0  0  0  0
  -27.3771  -25.7075   23.1713 H   0  0  0  0  0  0
  -26.3528  -26.7877   22.2533 H   0  0  0  0  0  0
  -28.4529  -17.6317   20.4190 H   0  0  0  0  0  0
  -29.6766  -18.0763   21.5876 H   0  0  0  0  0  0
  -24.6691  -25.3354   21.8958 H   0  0  0  0  0  0
  -25.2006  -24.9056   23.5023 H   0  0  0  0  0  0
  -28.0996  -15.4762   21.4706 H   0  0  0  0  0  0
  -29.3045  -15.7775   22.7095 H   0  0  0  0  0  0
  -28.1626  -18.3721   23.3300 H   0  0  0  0  0  0
  -26.9923  -17.2519   22.7243 H   0  0  0  0  0  0
  -27.2462  -24.7890   20.3287 H   0  0  0  0  0  0
  -28.5874  -24.9046   21.4374 H   0  0  0  0  0  0
  -30.6724  -16.3391   20.4893 H   0  0  0  0  0  0
  -27.4923  -19.6569   21.1713 H   0  0  0  0  0  0
  1 25  1  0  0  0
  1 30  2  0  0  0
  1 84  1  0  0  0
  2  3  1  0  0  0
  2 25  1  0  0  0
  2 86  1  0  0  0
  2 87  1  0  0  0
  3  4  1  0  0  0
  3 88  1  0  0  0
  3 89  1  0  0  0
  4  5  1  0  0  0
  4 90  1  0  0  0
  4 91  1  0  0  0
  5  6  1  0  0  0
  5 26  1  0  0  0
  5 92  1  0  0  0
  6 25  1  0  0  0
  6 93  1  0  0  0
  6 94  1  0  0  0
  7  8  2  0  0  0
  7 26  1  0  0  0
  7 29  1  0  0  0
  8  9  1  0  0  0
  8 22  1  0  0  0
  9 10  1  0  0  0
  9 27  2  0  0  0
 10 11  2  0  0  0
 10 15  1  0  0  0
 11 12  1  0  0  0
 11 95  1  0  0  0
 12 13  2  0  0  0
 12 96  1  0  0  0
 13 14  1  0  0  0
 13 31  1  0  0  0
 14 15  2  0  0  0
 14 97  1  0  0  0
 15 98  1  0  0  0
 16 17  2  0  0  0
 16 21  1  0  0  0
 16 31  1  0  0  0
 17 18  1  0  0  0
 17 99  1  0  0  0
 18 19  2  0  0  0
 18100  1  0  0  0
 19 20  1  0  0  0
 19 24  1  0  0  0
 20 21  2  0  0  0
 20101  1  0  0  0
 21 23  1  0  0  0
 22 28  1  0  0  0
 22 32  2  0  0  0
 26 27  1  0  0  0
 28102  1  0  0  0
 28103  1  0  0  0
 29104  1  0  0  0
 29105  1  0  0  0
 33 34  1  0  0  0
 33 66  1  0  0  0
 33 70  2  0  0  0
 34 36  1  0  0  0
 34 59  1  0  0  0
 34106  1  0  0  0
 35 44  2  0  0  0
 35 45  1  0  0  0
 35 68  1  0  0  0
 36 56  1  0  0  0
 36107  1  0  0  0
 37 39  1  0  0  0
 37 47  1  0  0  0
 37 66  1  0  0  0
 37108  1  0  0  0
 38 43  2  0  0  0
 38 46  1  0  0  0
 38 47  1  0  0  0
 39 64  1  0  0  0
 39 67  2  0  0  0
 40 52  1  0  0  0
 40 53  2  0  0  0
 40 58  1  0  0  0
 41109  1  0  0  0
 41110  1  0  0  0
 41111  1  0  0  0
 41 48  1  0  0  0
 42 43  1  0  0  0
 42 66  1  0  0  0
 42112  1  0  0  0
 42113  1  0  0  0
 43 44  1  0  0  0
 44114  1  0  0  0
 45 46  2  0  0  0
 45115  1  0  0  0
 46116  1  0  0  0
 47117  1  0  0  0
 47118  1  0  0  0
 48 56  1  0  0  0
 48 65  1  0  0  0
 48119  1  0  0  0
 49 50  1  0  0  0
 49 53  1  0  0  0
 49 64  1  0  0  0
 49120  1  0  0  0
 50 51  1  0  0  0
 50121  1  0  0  0
 50122  1  0  0  0
 51 52  1  0  0  0
 51123  1  0  0  0
 51124  1  0  0  0
 52125  1  0  0  0
 52126  1  0  0  0
 53 54  1  0  0  0
 54 55  2  0  0  0
 54127  1  0  0  0
 55 57  1  0  0  0
 55128  1  0  0  0
 56 69  2  0  0  0
 57 58  2  0  0  0
 57129  1  0  0  0
 58130  1  0  0  0
 59 60  1  0  0  0
 59 61  1  0  0  0
 59 62  1  0  0  0
 60131  1  0  0  0
 60132  1  0  0  0
 60133  1  0  0  0
 61134  1  0  0  0
 61135  1  0  0  0
 61136  1  0  0  0
 62137  1  0  0  0
 62138  1  0  0  0
 62139  1  0  0  0
 63 65  1  0  0  0
 63140  1  0  0  0
 63141  1  0  0  0
 63142  1  0  0  0
 64143  1  0  0  0
 65144  1  0  0  0
 68 80  1  0  0  0
 71 72  1  0  0  0
 71 81  2  0  0  0
 71145  1  0  0  0
 72 74  1  0  0  0
 72 82  2  0  0  0
 73146  1  0  0  0
 73147  1  0  0  0
 73148  1  0  0  0
 73 85  1  0  0  0
 74 85  1  0  0  0
 74149  1  0  0  0
 74150  1  0  0  0
 75 77  1  0  0  0
 75 80  1  0  0  0
 75151  1  0  0  0
 75152  1  0  0  0
 76 78  1  0  0  0
 76 79  1  0  0  0
 76153  1  0  0  0
 76154  1  0  0  0
 77 83  1  0  0  0
 77155  1  0  0  0
 77156  1  0  0  0
 78 84  1  0  0  0
 78157  1  0  0  0
 78158  1  0  0  0
 79 85  1  0  0  0
 79159  1  0  0  0
 79160  1  0  0  0
 80161  1  0  0  0
 80162  1  0  0  0
 81 83  1  0  0  0
 82 83  1  0  0  0
 84163  1  0  0  0
 85164  1  0  0  0
M  CHG  1  85   1
M  ISO  4   1 100  68 101  80 101  84 100
M  END
> <chiral flag>
0

> <version>
0

> <s_m_source_file>
/data/baiqing/PycharmProjects/Reinvent-master-3.2/result/LINK_invent/BTK/process_docking_weight1_custom_sum_contain_oxygen_bond_distance_aromatic_linkinvent_7_9_3/rearranged_h_0051.sdf

> <i_m_source_file_index>
14

> <r_mmod_Potential_Energy-OPLS-2005>
-104.398612976074

> <r_mmod_Stretch_Energy-OPLS-2005>
36.6114311218262

> <r_mmod_Bend_Energy-OPLS-2005>
139.724700927734

> <r_mmod_Torsional_Energy-OPLS-2005>
298.45751953125

> <r_mmod_Improper_Torsional_Energy-OPLS-2005>
19.2335224151611

> <r_mmod_Van_der_Waal_Energy-OPLS-2005>
148.282150268555

> <r_mmod_Electrostatic_Energy-OPLS-2005>
-304.551147460938

> <r_mmod_Solvation_Energy-OPLS-2005>
-473.723693847656

> <b_mmod_Minimization_Converged-OPLS-2005>
0

> <r_mmod_RMS_Derivative-OPLS-2005>
14.0256700515747

$$$$
15
                    3D
 Structure written by MMmdl.
152160  0  0  1  0            999 V2000
  -30.6311  -14.7227   20.5184 C   0  0  0  0  0  0
  -30.4293  -12.4453   19.4781 C   0  0  0  0  0  0
  -29.5186  -12.5219   18.2329 C   0  0  0  0  0  0
  -28.0285  -12.3723   18.6145 C   0  0  0  0  0  0
  -27.6449  -13.2307   19.8497 C   0  0  2  0  0  0
  -28.6813  -13.1055   20.9818 C   0  0  0  0  0  0
  -25.2585  -13.8224   20.5704 C   0  0  0  0  0  0
  -24.1839  -13.0486   20.9216 C   0  0  0  0  0  0
  -24.6378  -11.6970   20.8645 C   0  0  0  0  0  0
  -23.9019  -10.4353   21.0322 C   0  0  0  0  0  0
  -24.3607   -9.4301   21.9110 C   0  0  0  0  0  0
  -23.6347   -8.2309   22.0677 C   0  0  0  0  0  0
  -22.4319   -8.0316   21.3497 C   0  0  0  0  0  0
  -21.9926   -9.0249   20.4570 C   0  0  0  0  0  0
  -22.7187  -10.2163   20.2981 C   0  0  0  0  0  0
  -21.6860   -6.0793   22.5285 C   0  0  0  0  0  0
  -21.4002   -6.5672   23.8230 C   0  0  0  0  0  0
  -21.3676   -5.6812   24.9190 C   0  0  0  0  0  0
  -21.6041   -4.3073   24.7187 C   0  0  0  0  0  0
  -21.8823   -3.8186   23.4295 C   0  0  0  0  0  0
  -21.9206   -4.7033   22.3387 C   0  0  0  0  0  0
  -22.7881  -13.5267   21.1960 C   0  0  0  0  0  0
  -22.1721   -4.2264   21.0962 F   0  0  0  0  0  0
  -21.5632   -3.4534   25.7675 F   0  0  0  0  0  0
  -29.9904  -13.4975   20.4295 N   0  0  0  0  0  0
  -26.2959  -12.9381   20.3260 N   0  0  0  0  0  0
  -25.9280  -11.6516   20.5587 N   0  0  0  0  0  0
  -22.0529  -12.8156   22.0476 N   0  0  0  0  0  0
  -25.4369  -15.1916   20.4132 N   0  0  0  0  0  0
  -31.7643  -14.8402   20.0353 O   0  0  0  0  0  0
  -21.6656   -6.8927   21.4244 O   0  0  0  0  0  0
  -22.3549  -14.5595   20.6869 O   0  0  0  0  0  0
  -24.6273  -31.8565   23.2070 C   0  0  0  0  0  0
  -25.9126  -32.4715   23.8363 C   0  0  1  0  0  0
  -27.2042  -27.2618   20.1214 C   0  0  0  0  0  0
  -25.5920  -33.8524   24.2280 N   0  0  0  0  0  0
  -23.4206  -30.4849   21.5498 C   0  0  2  0  0  0
  -24.8621  -28.9388   20.1084 C   0  0  0  0  0  0
  -22.7454  -29.4604   22.4920 C   0  0  0  0  0  0
  -18.0310  -28.1410   22.8491 C   0  0  0  0  0  0
  -24.1465  -36.7302   23.2630 C   0  0  0  0  0  0
  -25.9673  -30.7708   21.3835 C   0  0  0  0  0  0
  -26.0382  -29.3976   20.7161 C   0  0  0  0  0  0
  -27.2112  -28.5739   20.7056 C   0  0  0  0  0  0
  -26.0059  -26.8782   19.4742 C   0  0  0  0  0  0
  -24.8530  -27.6899   19.4738 C   0  0  0  0  0  0
  -23.6349  -29.8314   20.1613 C   0  0  0  0  0  0
  -25.4083  -36.3025   24.0305 C   0  0  1  0  0  0
  -20.5882  -28.3720   23.1269 C   0  0  2  0  0  0
  -20.6783  -26.9427   22.5417 C   0  0  0  0  0  0
  -19.5773  -26.6391   21.5211 C   0  0  0  0  0  0
  -18.1944  -26.7943   22.1606 C   0  0  0  0  0  0
  -19.1543  -28.8889   23.2855 C   0  0  0  0  0  0
  -18.9470  -30.1499   23.8862 C   0  0  0  0  0  0
  -17.6472  -30.6603   24.0588 C   0  0  0  0  0  0
  -25.9045  -34.9402   23.5081 C   0  0  0  0  0  0
  -16.5373  -29.9107   23.6352 C   0  0  0  0  0  0
  -16.7273  -28.6528   23.0325 C   0  0  0  0  0  0
  -26.4526  -31.6529   25.0761 C   0  0  0  0  0  0
  -25.3774  -31.3705   26.1506 C   0  0  0  0  0  0
  -27.0387  -30.2914   24.6301 C   0  0  0  0  0  0
  -27.6026  -32.4353   25.7520 C   0  0  0  0  0  0
  -27.5571  -37.1767   24.8437 C   0  0  0  0  0  0
  -21.4160  -29.3054   22.3651 N   0  0  0  0  0  0
  -26.4250  -37.3742   23.9422 N   0  0  0  0  0  0
  -24.6918  -31.0524   22.1062 N   0  0  0  0  0  0
  -23.4151  -28.8141   23.2999 O   0  0  0  0  0  0
  -28.2938  -26.3560   20.1773 O   0  0  0  0  0  0
  -26.5602  -34.8874   22.4653 O   0  0  0  0  0  0
  -23.5436  -32.1408   23.7391 O   0  0  0  0  0  0
  -29.6825  -21.2551   21.0604 C   0  0  0  0  0  0
  -29.2446  -20.0342   20.5407 C   0  0  0  0  0  0
  -29.5971  -15.9054   22.3811 C   0  0  0  0  0  0
  -29.3744  -18.5561   21.1130 C   0  0  0  0  0  0
  -29.2673  -23.8230   20.3775 C   0  0  0  0  0  0
  -29.9901  -17.2701   20.3141 C   0  0  0  0  0  0
  -28.0360  -24.8653   20.2231 C   0  0  0  0  0  0
  -28.3829  -20.4002   19.4910 N   0  0  0  0  0  0
  -28.3201  -21.7116   19.3504 N   0  0  0  0  0  0
  -29.0647  -22.3031   20.3288 N   0  0  0  0  0  0
  -29.9341  -15.8601   20.9507 N   0  0  0  0  0  0
  -31.4723  -12.5642   19.1784 H   0  0  0  0  0  0
  -30.3619  -11.4575   19.9388 H   0  0  0  0  0  0
  -29.8098  -11.7548   17.5127 H   0  0  0  0  0  0
  -29.6841  -13.4789   17.7406 H   0  0  0  0  0  0
  -27.8294  -11.3144   18.8006 H   0  0  0  0  0  0
  -27.3971  -12.6394   17.7664 H   0  0  0  0  0  0
  -27.6560  -14.2630   19.4983 H   0  0  0  0  0  0
  -28.7026  -12.0741   21.3421 H   0  0  0  0  0  0
  -28.3815  -13.7002   21.8403 H   0  0  0  0  0  0
  -25.2752   -9.5889   22.4677 H   0  0  0  0  0  0
  -24.0150   -7.4695   22.7308 H   0  0  0  0  0  0
  -21.0917   -8.8648   19.8816 H   0  0  0  0  0  0
  -22.3558  -10.9683   19.6098 H   0  0  0  0  0  0
  -21.1966   -7.6166   23.9797 H   0  0  0  0  0  0
  -21.1528   -6.0503   25.9115 H   0  0  0  0  0  0
  -22.0576   -2.7655   23.2719 H   0  0  0  0  0  0
  -22.4136  -11.9831   22.4895 H   0  0  0  0  0  0
  -21.1098  -13.1059   22.2564 H   0  0  0  0  0  0
  -24.6852  -15.8625   20.5207 H   0  0  0  0  0  0
  -26.3087  -15.6233   20.1356 H   0  0  0  0  0  0
  -26.7171  -32.5360   23.1076 H   0  0  0  0  0  0
  -25.0016  -33.9656   25.0379 H   0  0  0  0  0  0
  -22.7211  -31.3125   21.4170 H   0  0  0  0  0  0
  -23.3710  -35.9633   23.3224 H   0  0  0  0  0  0
  -24.3577  -36.9031   22.2065 H   0  0  0  0  0  0
  -23.7251  -37.6486   23.6749 H   0  0  0  0  0  0
  -26.1053  -31.5390   20.6228 H   0  0  0  0  0  0
  -26.8430  -30.8130   22.0197 H   0  0  0  0  0  0
  -28.1184  -28.9241   21.1820 H   0  0  0  0  0  0
  -25.9280  -25.9348   18.9620 H   0  0  0  0  0  0
  -23.9505  -27.3544   18.9793 H   0  0  0  0  0  0
  -23.7592  -30.6242   19.4219 H   0  0  0  0  0  0
  -22.7487  -29.2742   19.8521 H   0  0  0  0  0  0
  -25.1239  -36.1856   25.0791 H   0  0  0  0  0  0
  -20.9964  -28.3327   24.1381 H   0  0  0  0  0  0
  -20.5718  -26.2291   23.3602 H   0  0  0  0  0  0
  -21.6639  -26.7476   22.1178 H   0  0  0  0  0  0
  -19.6926  -25.6291   21.1262 H   0  0  0  0  0  0
  -19.6733  -27.3175   20.6728 H   0  0  0  0  0  0
  -17.4195  -26.6680   21.4017 H   0  0  0  0  0  0
  -18.0383  -26.0077   22.9018 H   0  0  0  0  0  0
  -19.7933  -30.7356   24.2135 H   0  0  0  0  0  0
  -17.5025  -31.6262   24.5224 H   0  0  0  0  0  0
  -15.5355  -30.3005   23.7734 H   0  0  0  0  0  0
  -15.8650  -28.0894   22.6995 H   0  0  0  0  0  0
  -24.5866  -30.7119   25.7919 H   0  0  0  0  0  0
  -24.9033  -32.2883   26.5005 H   0  0  0  0  0  0
  -25.8083  -30.8864   27.0269 H   0  0  0  0  0  0
  -26.2990  -29.6625   24.1339 H   0  0  0  0  0  0
  -27.4049  -29.7222   25.4865 H   0  0  0  0  0  0
  -27.8871  -30.4126   23.9546 H   0  0  0  0  0  0
  -27.2540  -33.3639   26.2042 H   0  0  0  0  0  0
  -28.3837  -32.6972   25.0377 H   0  0  0  0  0  0
  -28.0683  -31.8563   26.5503 H   0  0  0  0  0  0
  -28.2480  -38.0157   24.7586 H   0  0  0  0  0  0
  -28.1170  -36.2719   24.6112 H   0  0  0  0  0  0
  -27.2333  -37.1230   25.8835 H   0  0  0  0  0  0
  -20.9372  -29.8737   21.6817 H   0  0  0  0  0  0
  -26.0117  -38.2766   24.1564 H   0  0  0  0  0  0
  -30.3506  -21.4525   21.8959 H   0  0  0  0  0  0
  -28.5307  -16.0706   22.5283 H   0  0  0  0  0  0
  -30.1395  -16.6895   22.9101 H   0  0  0  0  0  0
  -29.8592  -14.9851   22.9035 H   0  0  0  0  0  0
  -28.3770  -18.2640   21.4473 H   0  0  0  0  0  0
  -29.9402  -18.6567   22.0394 H   0  0  0  0  0  0
  -29.8075  -24.0484   21.3011 H   0  0  0  0  0  0
  -29.9821  -24.0519   19.5841 H   0  0  0  0  0  0
  -31.0309  -17.4932   20.0706 H   0  0  0  0  0  0
  -29.4781  -17.1898   19.3508 H   0  0  0  0  0  0
  -27.3471  -24.6919   21.0569 H   0  0  0  0  0  0
  -27.4852  -24.5646   19.3273 H   0  0  0  0  0  0
  1 25  1  0  0  0
  1 30  2  0  0  0
  1 81  1  0  0  0
  2  3  1  0  0  0
  2 25  1  0  0  0
  2 82  1  0  0  0
  2 83  1  0  0  0
  3  4  1  0  0  0
  3 84  1  0  0  0
  3 85  1  0  0  0
  4  5  1  0  0  0
  4 86  1  0  0  0
  4 87  1  0  0  0
  5  6  1  0  0  0
  5 26  1  0  0  0
  5 88  1  0  0  0
  6 25  1  0  0  0
  6 89  1  0  0  0
  6 90  1  0  0  0
  7  8  2  0  0  0
  7 26  1  0  0  0
  7 29  1  0  0  0
  8  9  1  0  0  0
  8 22  1  0  0  0
  9 10  1  0  0  0
  9 27  2  0  0  0
 10 11  2  0  0  0
 10 15  1  0  0  0
 11 12  1  0  0  0
 11 91  1  0  0  0
 12 13  2  0  0  0
 12 92  1  0  0  0
 13 14  1  0  0  0
 13 31  1  0  0  0
 14 15  2  0  0  0
 14 93  1  0  0  0
 15 94  1  0  0  0
 16 17  2  0  0  0
 16 21  1  0  0  0
 16 31  1  0  0  0
 17 18  1  0  0  0
 17 95  1  0  0  0
 18 19  2  0  0  0
 18 96  1  0  0  0
 19 20  1  0  0  0
 19 24  1  0  0  0
 20 21  2  0  0  0
 20 97  1  0  0  0
 21 23  1  0  0  0
 22 28  1  0  0  0
 22 32  2  0  0  0
 26 27  1  0  0  0
 28 98  1  0  0  0
 28 99  1  0  0  0
 29100  1  0  0  0
 29101  1  0  0  0
 33 34  1  0  0  0
 33 66  1  0  0  0
 33 70  2  0  0  0
 34 36  1  0  0  0
 34 59  1  0  0  0
 34102  1  0  0  0
 35 44  2  0  0  0
 35 45  1  0  0  0
 35 68  1  0  0  0
 36 56  1  0  0  0
 36103  1  0  0  0
 37 39  1  0  0  0
 37 47  1  0  0  0
 37 66  1  0  0  0
 37104  1  0  0  0
 38 43  2  0  0  0
 38 46  1  0  0  0
 38 47  1  0  0  0
 39 64  1  0  0  0
 39 67  2  0  0  0
 40 52  1  0  0  0
 40 53  2  0  0  0
 40 58  1  0  0  0
 41105  1  0  0  0
 41106  1  0  0  0
 41107  1  0  0  0
 41 48  1  0  0  0
 42 43  1  0  0  0
 42 66  1  0  0  0
 42108  1  0  0  0
 42109  1  0  0  0
 43 44  1  0  0  0
 44110  1  0  0  0
 45 46  2  0  0  0
 45111  1  0  0  0
 46112  1  0  0  0
 47113  1  0  0  0
 47114  1  0  0  0
 48 56  1  0  0  0
 48 65  1  0  0  0
 48115  1  0  0  0
 49 50  1  0  0  0
 49 53  1  0  0  0
 49 64  1  0  0  0
 49116  1  0  0  0
 50 51  1  0  0  0
 50117  1  0  0  0
 50118  1  0  0  0
 51 52  1  0  0  0
 51119  1  0  0  0
 51120  1  0  0  0
 52121  1  0  0  0
 52122  1  0  0  0
 53 54  1  0  0  0
 54 55  2  0  0  0
 54123  1  0  0  0
 55 57  1  0  0  0
 55124  1  0  0  0
 56 69  2  0  0  0
 57 58  2  0  0  0
 57125  1  0  0  0
 58126  1  0  0  0
 59 60  1  0  0  0
 59 61  1  0  0  0
 59 62  1  0  0  0
 60127  1  0  0  0
 60128  1  0  0  0
 60129  1  0  0  0
 61130  1  0  0  0
 61131  1  0  0  0
 61132  1  0  0  0
 62133  1  0  0  0
 62134  1  0  0  0
 62135  1  0  0  0
 63 65  1  0  0  0
 63136  1  0  0  0
 63137  1  0  0  0
 63138  1  0  0  0
 64139  1  0  0  0
 65140  1  0  0  0
 68 77  1  0  0  0
 71 72  2  0  0  0
 71 80  1  0  0  0
 71141  1  0  0  0
 72 74  1  0  0  0
 72 78  1  0  0  0
 73 81  1  0  0  0
 73142  1  0  0  0
 73143  1  0  0  0
 73144  1  0  0  0
 74 76  1  0  0  0
 74145  1  0  0  0
 74146  1  0  0  0
 75 77  1  0  0  0
 75 80  1  0  0  0
 75147  1  0  0  0
 75148  1  0  0  0
 76 81  1  0  0  0
 76149  1  0  0  0
 76150  1  0  0  0
 77151  1  0  0  0
 77152  1  0  0  0
 78 79  2  0  0  0
 79 80  1  0  0  0
M  ISO  4   1 100  68 101  77 101  81 100
M  END
> <chiral flag>
0

> <version>
0

> <s_m_source_file>
/data/baiqing/PycharmProjects/Reinvent-master-3.2/result/LINK_invent/BTK/process_docking_weight1_custom_sum_contain_oxygen_bond_distance_aromatic_linkinvent_7_9_3/rearranged_h_0051.sdf

> <i_m_source_file_index>
15

> <r_mmod_Potential_Energy-OPLS-2005>
274.426116943359

> <r_mmod_Stretch_Energy-OPLS-2005>
135.074249267578

> <r_mmod_Bend_Energy-OPLS-2005>
177.305572509766

> <r_mmod_Torsional_Energy-OPLS-2005>
282.238494873047

> <r_mmod_Improper_Torsional_Energy-OPLS-2005>
8.00908184051514

> <r_mmod_Van_der_Waal_Energy-OPLS-2005>
124.321464538574

> <r_mmod_Electrostatic_Energy-OPLS-2005>
-309.888977050781

> <r_mmod_Solvation_Energy-OPLS-2005>
-219.427062988281

> <b_mmod_Minimization_Converged-OPLS-2005>
0

> <r_mmod_RMS_Derivative-OPLS-2005>
6.88626623153687

$$$$
16
                    3D
 Structure written by MMmdl.
168176  0  0  1  0            999 V2000
  -30.8449  -14.4273   20.5919 C   0  0  0  0  0  0
  -30.3764  -12.2563   19.5297 C   0  0  0  0  0  0
  -29.5198  -12.4113   18.2614 C   0  0  0  0  0  0
  -28.0380  -12.3130   18.6503 C   0  0  0  0  0  0
  -27.6486  -13.2319   19.8406 C   0  0  2  0  0  0
  -28.6634  -13.1442   21.0018 C   0  0  0  0  0  0
  -25.2508  -13.8255   20.5716 C   0  0  0  0  0  0
  -24.1797  -13.0584   20.9235 C   0  0  0  0  0  0
  -24.6344  -11.7023   20.8725 C   0  0  0  0  0  0
  -23.9049  -10.4406   21.0412 C   0  0  0  0  0  0
  -24.3610   -9.4314   21.9202 C   0  0  0  0  0  0
  -23.6345   -8.2297   22.0736 C   0  0  0  0  0  0
  -22.4336   -8.0289   21.3521 C   0  0  0  0  0  0
  -21.9951   -9.0259   20.4632 C   0  0  0  0  0  0
  -22.7217  -10.2168   20.3083 C   0  0  0  0  0  0
  -21.6887   -6.0732   22.5250 C   0  0  0  0  0  0
  -21.4028   -6.5638   23.8168 C   0  0  0  0  0  0
  -21.3671   -5.6796   24.9161 C   0  0  0  0  0  0
  -21.6072   -4.3069   24.7206 C   0  0  0  0  0  0
  -21.8823   -3.8163   23.4330 C   0  0  0  0  0  0
  -21.9221   -4.6978   22.3378 C   0  0  0  0  0  0
  -22.7803  -13.5357   21.1944 C   0  0  0  0  0  0
  -22.1697   -4.2145   21.0972 F   0  0  0  0  0  0
  -21.5641   -3.4550   25.7706 F   0  0  0  0  0  0
  -30.0301  -13.3342   20.4776 N   0  0  0  0  0  0
  -26.2931  -12.9493   20.3135 N   0  0  0  0  0  0
  -25.9233  -11.6628   20.5589 N   0  0  0  0  0  0
  -22.0453  -12.8303   22.0419 N   0  0  0  0  0  0
  -25.4264  -15.2036   20.4269 N   0  0  0  0  0  0
  -31.9001  -14.4882   19.9628 O   0  0  0  0  0  0
  -21.6748   -6.8871   21.4190 O   0  0  0  0  0  0
  -22.3501  -14.5733   20.6852 O   0  0  0  0  0  0
  -24.6163  -31.8610   23.2115 C   0  0  0  0  0  0
  -25.9110  -32.4814   23.8261 C   0  0  1  0  0  0
  -27.2362  -27.4519   20.0732 C   0  0  0  0  0  0
  -25.5951  -33.8603   24.2186 N   0  0  0  0  0  0
  -23.3867  -30.4846   21.5712 C   0  0  2  0  0  0
  -24.8143  -28.9343   20.1290 C   0  0  0  0  0  0
  -22.7367  -29.4623   22.5227 C   0  0  0  0  0  0
  -18.0213  -28.1399   22.8414 C   0  0  0  0  0  0
  -24.1467  -36.7354   23.2615 C   0  0  0  0  0  0
  -25.9075  -30.8341   21.3388 C   0  0  0  0  0  0
  -25.9830  -29.4723   20.6853 C   0  0  0  0  0  0
  -27.1989  -28.7569   20.6149 C   0  0  0  0  0  0
  -26.0499  -26.9079   19.5318 C   0  0  0  0  0  0
  -24.8428  -27.6481   19.5498 C   0  0  0  0  0  0
  -23.5738  -29.8081   20.1881 C   0  0  0  0  0  0
  -25.4129  -36.3125   24.0239 C   0  0  1  0  0  0
  -20.5769  -28.3650   23.1350 C   0  0  2  0  0  0
  -20.6753  -26.9437   22.5412 C   0  0  0  0  0  0
  -19.5784  -26.6394   21.5167 C   0  0  0  0  0  0
  -18.1929  -26.7937   22.1551 C   0  0  0  0  0  0
  -19.1446  -28.8868   23.2839 C   0  0  0  0  0  0
  -18.9427  -30.1482   23.8862 C   0  0  0  0  0  0
  -17.6458  -30.6633   24.0548 C   0  0  0  0  0  0
  -25.9085  -34.9491   23.5039 C   0  0  0  0  0  0
  -16.5336  -29.9136   23.6362 C   0  0  0  0  0  0
  -16.7214  -28.6541   23.0357 C   0  0  0  0  0  0
  -26.4553  -31.6670   25.0657 C   0  0  0  0  0  0
  -25.3804  -31.3755   26.1395 C   0  0  0  0  0  0
  -27.0332  -30.3101   24.6061 C   0  0  0  0  0  0
  -27.6079  -32.4410   25.7538 C   0  0  0  0  0  0
  -27.5562  -37.1849   24.8435 C   0  0  0  0  0  0
  -21.4122  -29.3007   22.3893 N   0  0  0  0  0  0
  -26.4301  -37.3851   23.9361 N   0  0  0  0  0  0
  -24.6592  -31.0674   22.1039 N   0  0  0  0  0  0
  -23.4163  -28.8196   23.3267 O   0  0  0  0  0  0
  -28.4481  -26.7935   19.9824 O   0  0  0  0  0  0
  -26.5702  -34.8971   22.4627 O   0  0  0  0  0  0
  -23.5395  -32.1348   23.7626 O   0  0  0  0  0  0
  -27.7984  -22.7036   18.6814 C   0  0  0  0  0  0
  -29.9475  -22.5231   19.2112 C   0  0  0  0  0  0
  -28.7780  -24.3139   19.8411 C   0  0  0  0  0  0
  -26.5667  -22.1330   18.0215 C   0  0  0  0  0  0
  -29.9827  -15.5790   22.6177 C   0  0  0  0  0  0
  -34.2755  -18.7443   20.9418 C   0  0  0  0  0  0
  -31.2578  -21.7359   19.1300 C   0  0  0  0  0  0
  -28.6036  -25.5576   20.7035 C   0  0  0  0  0  0
  -31.3381  -20.5370   20.1145 C   0  0  0  0  0  0
  -30.8583  -16.9038   20.7673 C   0  0  0  0  0  0
  -32.2841  -19.4095   19.6424 C   0  0  0  0  0  0
  -32.4068  -17.1333   20.6874 C   0  0  0  0  0  0
  -28.8977  -21.9610   18.6253 N   0  0  0  0  0  0
  -27.6655  -23.8811   19.2634 N   0  0  0  0  0  0
  -29.9579  -23.6899   19.8512 N   0  0  0  0  0  0
  -30.4155  -15.5523   21.2197 N   0  0  0  0  0  0
  -32.8052  -18.5663   20.7628 N   0  3  1  0  0  0
  -31.4365  -12.2180   19.2889 H   0  0  0  0  0  0
  -30.1725  -11.2959   20.0049 H   0  0  0  0  0  0
  -29.7542  -11.5961   17.5743 H   0  0  0  0  0  0
  -29.7459  -13.3437   17.7465 H   0  0  0  0  0  0
  -27.8734  -11.2750   18.9388 H   0  0  0  0  0  0
  -27.4109  -12.4957   17.7758 H   0  0  0  0  0  0
  -27.6648  -14.2527   19.4495 H   0  0  0  0  0  0
  -28.5927  -12.1886   21.5174 H   0  0  0  0  0  0
  -28.3597  -13.8870   21.7368 H   0  0  0  0  0  0
  -25.2672   -9.5867   22.4874 H   0  0  0  0  0  0
  -24.0082   -7.4697   22.7473 H   0  0  0  0  0  0
  -21.0883   -8.8788   19.8902 H   0  0  0  0  0  0
  -22.3628  -10.9768   19.6268 H   0  0  0  0  0  0
  -21.1994   -7.6148   23.9681 H   0  0  0  0  0  0
  -21.1502   -6.0528   25.9055 H   0  0  0  0  0  0
  -22.0598   -2.7618   23.2836 H   0  0  0  0  0  0
  -22.4100  -11.9981   22.4843 H   0  0  0  0  0  0
  -21.1023  -13.1174   22.2606 H   0  0  0  0  0  0
  -24.6693  -15.8640   20.5688 H   0  0  0  0  0  0
  -26.2806  -15.6509   20.1175 H   0  0  0  0  0  0
  -26.7115  -32.5460   23.0920 H   0  0  0  0  0  0
  -25.0019  -33.9673   25.0277 H   0  0  0  0  0  0
  -22.6671  -31.2984   21.4631 H   0  0  0  0  0  0
  -23.3743  -35.9689   23.3346 H   0  0  0  0  0  0
  -24.3492  -36.9008   22.2022 H   0  0  0  0  0  0
  -23.7231  -37.6538   23.6690 H   0  0  0  0  0  0
  -25.9896  -31.5989   20.5646 H   0  0  0  0  0  0
  -26.8040  -30.8786   21.9448 H   0  0  0  0  0  0
  -28.1159  -29.2327   20.9300 H   0  0  0  0  0  0
  -26.0646  -25.9339   19.0579 H   0  0  0  0  0  0
  -23.9380  -27.2289   19.1248 H   0  0  0  0  0  0
  -23.6539  -30.5912   19.4315 H   0  0  0  0  0  0
  -22.6890  -29.2283   19.9188 H   0  0  0  0  0  0
  -25.1348  -36.1947   25.0732 H   0  0  0  0  0  0
  -20.9656  -28.3202   24.1533 H   0  0  0  0  0  0
  -20.5655  -26.2297   23.3561 H   0  0  0  0  0  0
  -21.6651  -26.7580   22.1232 H   0  0  0  0  0  0
  -19.7018  -25.6275   21.1281 H   0  0  0  0  0  0
  -19.6787  -27.3114   20.6601 H   0  0  0  0  0  0
  -17.4214  -26.6547   21.3967 H   0  0  0  0  0  0
  -18.0465  -26.0100   22.8966 H   0  0  0  0  0  0
  -19.7931  -30.7249   24.2233 H   0  0  0  0  0  0
  -17.5058  -31.6303   24.5177 H   0  0  0  0  0  0
  -15.5354  -30.3064   23.7758 H   0  0  0  0  0  0
  -15.8559  -28.0870   22.7142 H   0  0  0  0  0  0
  -24.5929  -30.7223   25.7653 H   0  0  0  0  0  0
  -24.9069  -32.2905   26.4949 H   0  0  0  0  0  0
  -25.8080  -30.8755   27.0090 H   0  0  0  0  0  0
  -26.2767  -29.6911   24.1243 H   0  0  0  0  0  0
  -27.4178  -29.7340   25.4488 H   0  0  0  0  0  0
  -27.8595  -30.4392   23.9075 H   0  0  0  0  0  0
  -27.2638  -33.3639   26.2231 H   0  0  0  0  0  0
  -28.3929  -32.7142   25.0475 H   0  0  0  0  0  0
  -28.0775  -31.8509   26.5428 H   0  0  0  0  0  0
  -28.2638  -38.0100   24.7522 H   0  0  0  0  0  0
  -28.0997  -36.2648   24.6273 H   0  0  0  0  0  0
  -27.2237  -37.1522   25.8821 H   0  0  0  0  0  0
  -20.9390  -29.8618   21.6947 H   0  0  0  0  0  0
  -26.0176  -38.2904   24.1463 H   0  0  0  0  0  0
  -26.8042  -21.7587   17.0262 H   0  0  0  0  0  0
  -25.7748  -22.8790   17.9279 H   0  0  0  0  0  0
  -26.1960  -21.3039   18.6190 H   0  0  0  0  0  0
  -29.8979  -14.5888   23.0670 H   0  0  0  0  0  0
  -29.0256  -16.0966   22.7017 H   0  0  0  0  0  0
  -30.7163  -16.1318   23.2067 H   0  0  0  0  0  0
  -34.8187  -18.3393   20.0873 H   0  0  0  0  0  0
  -34.6606  -18.2496   21.8376 H   0  0  0  0  0  0
  -34.5350  -19.8010   21.0362 H   0  0  0  0  0  0
  -32.1174  -22.3964   19.2569 H   0  0  0  0  0  0
  -31.3437  -21.3811   18.1042 H   0  0  0  0  0  0
  -29.4315  -25.6548   21.4085 H   0  0  0  0  0  0
  -27.7444  -25.3149   21.3178 H   0  0  0  0  0  0
  -30.3440  -20.0952   20.1860 H   0  0  0  0  0  0
  -31.5922  -20.8766   21.1203 H   0  0  0  0  0  0
  -30.3777  -17.6836   21.3682 H   0  0  0  0  0  0
  -30.4668  -17.0299   19.7575 H   0  0  0  0  0  0
  -33.1207  -19.8222   19.0803 H   0  0  0  0  0  0
  -31.7563  -18.7971   18.9115 H   0  0  0  0  0  0
  -32.8007  -16.7584   19.7385 H   0  0  0  0  0  0
  -32.9143  -16.5511   21.4603 H   0  0  0  0  0  0
  -32.3983  -18.9020   21.6244 H   0  0  0  0  0  0
  1 25  1  0  0  0
  1 30  2  0  0  0
  1 86  1  0  0  0
  2  3  1  0  0  0
  2 25  1  0  0  0
  2 88  1  0  0  0
  2 89  1  0  0  0
  3  4  1  0  0  0
  3 90  1  0  0  0
  3 91  1  0  0  0
  4  5  1  0  0  0
  4 92  1  0  0  0
  4 93  1  0  0  0
  5  6  1  0  0  0
  5 26  1  0  0  0
  5 94  1  0  0  0
  6 25  1  0  0  0
  6 95  1  0  0  0
  6 96  1  0  0  0
  7  8  2  0  0  0
  7 26  1  0  0  0
  7 29  1  0  0  0
  8  9  1  0  0  0
  8 22  1  0  0  0
  9 10  1  0  0  0
  9 27  2  0  0  0
 10 11  2  0  0  0
 10 15  1  0  0  0
 11 12  1  0  0  0
 11 97  1  0  0  0
 12 13  2  0  0  0
 12 98  1  0  0  0
 13 14  1  0  0  0
 13 31  1  0  0  0
 14 15  2  0  0  0
 14 99  1  0  0  0
 15100  1  0  0  0
 16 17  2  0  0  0
 16 21  1  0  0  0
 16 31  1  0  0  0
 17 18  1  0  0  0
 17101  1  0  0  0
 18 19  2  0  0  0
 18102  1  0  0  0
 19 20  1  0  0  0
 19 24  1  0  0  0
 20 21  2  0  0  0
 20103  1  0  0  0
 21 23  1  0  0  0
 22 28  1  0  0  0
 22 32  2  0  0  0
 26 27  1  0  0  0
 28104  1  0  0  0
 28105  1  0  0  0
 29106  1  0  0  0
 29107  1  0  0  0
 33 34  1  0  0  0
 33 66  1  0  0  0
 33 70  2  0  0  0
 34 36  1  0  0  0
 34 59  1  0  0  0
 34108  1  0  0  0
 35 44  2  0  0  0
 35 45  1  0  0  0
 35 68  1  0  0  0
 36 56  1  0  0  0
 36109  1  0  0  0
 37 39  1  0  0  0
 37 47  1  0  0  0
 37 66  1  0  0  0
 37110  1  0  0  0
 38 43  2  0  0  0
 38 46  1  0  0  0
 38 47  1  0  0  0
 39 64  1  0  0  0
 39 67  2  0  0  0
 40 52  1  0  0  0
 40 53  2  0  0  0
 40 58  1  0  0  0
 41111  1  0  0  0
 41112  1  0  0  0
 41113  1  0  0  0
 41 48  1  0  0  0
 42 43  1  0  0  0
 42 66  1  0  0  0
 42114  1  0  0  0
 42115  1  0  0  0
 43 44  1  0  0  0
 44116  1  0  0  0
 45 46  2  0  0  0
 45117  1  0  0  0
 46118  1  0  0  0
 47119  1  0  0  0
 47120  1  0  0  0
 48 56  1  0  0  0
 48 65  1  0  0  0
 48121  1  0  0  0
 49 50  1  0  0  0
 49 53  1  0  0  0
 49 64  1  0  0  0
 49122  1  0  0  0
 50 51  1  0  0  0
 50123  1  0  0  0
 50124  1  0  0  0
 51 52  1  0  0  0
 51125  1  0  0  0
 51126  1  0  0  0
 52127  1  0  0  0
 52128  1  0  0  0
 53 54  1  0  0  0
 54 55  2  0  0  0
 54129  1  0  0  0
 55 57  1  0  0  0
 55130  1  0  0  0
 56 69  2  0  0  0
 57 58  2  0  0  0
 57131  1  0  0  0
 58132  1  0  0  0
 59 60  1  0  0  0
 59 61  1  0  0  0
 59 62  1  0  0  0
 60133  1  0  0  0
 60134  1  0  0  0
 60135  1  0  0  0
 61136  1  0  0  0
 61137  1  0  0  0
 61138  1  0  0  0
 62139  1  0  0  0
 62140  1  0  0  0
 62141  1  0  0  0
 63 65  1  0  0  0
 63142  1  0  0  0
 63143  1  0  0  0
 63144  1  0  0  0
 64145  1  0  0  0
 65146  1  0  0  0
 68 78  1  0  0  0
 71 74  1  0  0  0
 71 83  2  0  0  0
 71 84  1  0  0  0
 72 77  1  0  0  0
 72 83  1  0  0  0
 72 85  2  0  0  0
 73 78  1  0  0  0
 73 84  2  0  0  0
 73 85  1  0  0  0
 74147  1  0  0  0
 74148  1  0  0  0
 74149  1  0  0  0
 75 86  1  0  0  0
 75150  1  0  0  0
 75151  1  0  0  0
 75152  1  0  0  0
 76153  1  0  0  0
 76154  1  0  0  0
 76155  1  0  0  0
 76 87  1  0  0  0
 77 79  1  0  0  0
 77156  1  0  0  0
 77157  1  0  0  0
 78158  1  0  0  0
 78159  1  0  0  0
 79 81  1  0  0  0
 79160  1  0  0  0
 79161  1  0  0  0
 80 82  1  0  0  0
 80 86  1  0  0  0
 80162  1  0  0  0
 80163  1  0  0  0
 81 87  1  0  0  0
 81164  1  0  0  0
 81165  1  0  0  0
 82 87  1  0  0  0
 82166  1  0  0  0
 82167  1  0  0  0
 87168  1  0  0  0
M  CHG  1  87   1
M  ISO  4   1 100  68 101  78 101  86 100
M  END
> <chiral flag>
0

> <version>
0

> <s_m_source_file>
/data/baiqing/PycharmProjects/Reinvent-master-3.2/result/LINK_invent/BTK/process_docking_weight1_custom_sum_contain_oxygen_bond_distance_aromatic_linkinvent_7_9_3/rearranged_h_0051.sdf

> <i_m_source_file_index>
16

> <r_mmod_Potential_Energy-OPLS-2005>
-613.797973632812

> <r_mmod_Stretch_Energy-OPLS-2005>
43.3193511962891

> <r_mmod_Bend_Energy-OPLS-2005>
124.534233093262

> <r_mmod_Torsional_Energy-OPLS-2005>
298.140655517578

> <r_mmod_Improper_Torsional_Energy-OPLS-2005>
7.17070579528809

> <r_mmod_Van_der_Waal_Energy-OPLS-2005>
187.148880004883

> <r_mmod_Electrostatic_Energy-OPLS-2005>
-861.557922363281

> <r_mmod_Solvation_Energy-OPLS-2005>
-441.162506103516

> <b_mmod_Minimization_Converged-OPLS-2005>
0

> <r_mmod_RMS_Derivative-OPLS-2005>
11.7897815704346

$$$$
17
                    3D
 Structure written by MMmdl.
183191  0  0  1  0            999 V2000
  -30.8402  -14.2746   20.7835 C   0  0  0  0  0  0
  -30.4121  -12.2832   19.3861 C   0  0  0  0  0  0
  -29.4812  -12.5414   18.1893 C   0  0  0  0  0  0
  -28.0102  -12.3769   18.6043 C   0  0  0  0  0  0
  -27.6657  -13.2038   19.8667 C   0  0  2  0  0  0
  -28.6953  -12.9611   20.9885 C   0  0  0  0  0  0
  -25.2612  -13.8166   20.5642 C   0  0  0  0  0  0
  -24.1857  -13.0442   20.9161 C   0  0  0  0  0  0
  -24.6404  -11.6910   20.8709 C   0  0  0  0  0  0
  -23.9064  -10.4296   21.0396 C   0  0  0  0  0  0
  -24.3617   -9.4217   21.9177 C   0  0  0  0  0  0
  -23.6291   -8.2252   22.0753 C   0  0  0  0  0  0
  -22.4273   -8.0287   21.3547 C   0  0  0  0  0  0
  -21.9910   -9.0256   20.4648 C   0  0  0  0  0  0
  -22.7235  -10.2136   20.3050 C   0  0  0  0  0  0
  -21.6849   -6.0735   22.5280 C   0  0  0  0  0  0
  -21.4016   -6.5641   23.8213 C   0  0  0  0  0  0
  -21.3664   -5.6795   24.9176 C   0  0  0  0  0  0
  -21.6044   -4.3055   24.7229 C   0  0  0  0  0  0
  -21.8819   -3.8147   23.4348 C   0  0  0  0  0  0
  -21.9194   -4.6963   22.3404 C   0  0  0  0  0  0
  -22.7887  -13.5247   21.1836 C   0  0  0  0  0  0
  -22.1658   -4.2147   21.0982 F   0  0  0  0  0  0
  -21.5632   -3.4541   25.7743 F   0  0  0  0  0  0
  -30.0632  -13.1995   20.4815 N   0  0  0  0  0  0
  -26.3035  -12.9333   20.3282 N   0  0  0  0  0  0
  -25.9322  -11.6491   20.5696 N   0  0  0  0  0  0
  -22.0523  -12.8233   22.0393 N   0  0  0  0  0  0
  -25.4348  -15.1878   20.4052 N   0  0  0  0  0  0
  -31.6981  -14.7130   20.0075 O   0  0  0  0  0  0
  -21.6641   -6.8880   21.4243 O   0  0  0  0  0  0
  -22.3573  -14.5557   20.6694 O   0  0  0  0  0  0
  -24.6117  -31.8715   23.2109 C   0  0  0  0  0  0
  -25.9018  -32.4844   23.8414 C   0  0  1  0  0  0
  -27.2422  -27.4747   20.0820 C   0  0  0  0  0  0
  -25.5888  -33.8637   24.2349 N   0  0  0  0  0  0
  -23.3988  -30.4943   21.5500 C   0  0  2  0  0  0
  -24.8475  -28.9605   20.1158 C   0  0  0  0  0  0
  -22.7388  -29.4695   22.4997 C   0  0  0  0  0  0
  -18.0274  -28.1358   22.8501 C   0  0  0  0  0  0
  -24.1497  -36.7313   23.2637 C   0  0  0  0  0  0
  -25.9220  -30.8494   21.3556 C   0  0  0  0  0  0
  -26.0041  -29.4834   20.7092 C   0  0  0  0  0  0
  -27.2061  -28.7442   20.6950 C   0  0  0  0  0  0
  -26.0690  -26.9469   19.5084 C   0  0  0  0  0  0
  -24.8729  -27.6892   19.5139 C   0  0  0  0  0  0
  -23.6038  -29.8178   20.1673 C   0  0  0  0  0  0
  -25.4115  -36.3118   24.0343 C   0  0  1  0  0  0
  -20.5867  -28.3655   23.1309 C   0  0  2  0  0  0
  -20.6768  -26.9398   22.5399 C   0  0  0  0  0  0
  -19.5736  -26.6380   21.5197 C   0  0  0  0  0  0
  -18.1917  -26.7916   22.1607 C   0  0  0  0  0  0
  -19.1522  -28.8816   23.2915 C   0  0  0  0  0  0
  -18.9450  -30.1423   23.8928 C   0  0  0  0  0  0
  -17.6454  -30.6575   24.0551 C   0  0  0  0  0  0
  -25.9026  -34.9480   23.5135 C   0  0  0  0  0  0
  -16.5346  -29.9076   23.6318 C   0  0  0  0  0  0
  -16.7265  -28.6481   23.0368 C   0  0  0  0  0  0
  -26.4460  -31.6613   25.0728 C   0  0  0  0  0  0
  -25.3724  -31.3677   26.1475 C   0  0  0  0  0  0
  -27.0324  -30.3088   24.6047 C   0  0  0  0  0  0
  -27.6062  -32.4317   25.7462 C   0  0  0  0  0  0
  -27.5591  -37.1810   24.8464 C   0  0  0  0  0  0
  -21.4118  -29.3047   22.3718 N   0  0  0  0  0  0
  -26.4308  -37.3799   23.9405 N   0  0  0  0  0  0
  -24.6628  -31.0850   22.0984 N   0  0  0  0  0  0
  -23.4172  -28.8242   23.3031 O   0  0  0  0  0  0
  -28.4004  -26.7411   20.0621 O   0  0  0  0  0  0
  -26.5563  -34.8924   22.4681 O   0  0  0  0  0  0
  -23.5313  -32.1451   23.7519 O   0  0  0  0  0  0
  -29.8023  -23.9078   18.7328 C   0  0  0  0  0  0
  -28.3281  -22.3810   18.4048 C   0  0  0  0  0  0
  -27.8232  -23.5598   17.8934 C   0  0  0  0  0  0
  -26.5169  -23.7938   17.1952 C   0  0  0  0  0  0
  -33.0382  -13.1230   23.0095 C   0  0  0  0  0  0
  -31.9063  -13.1621   25.2619 C   0  0  0  0  0  0
  -27.7443  -20.1687   22.8724 C   0  0  0  0  0  0
  -27.7208  -21.0021   18.3915 C   0  0  0  0  0  0
  -27.3934  -20.4435   19.7901 C   0  0  0  0  0  0
  -29.5015  -17.0421   21.8065 C   0  0  0  0  0  0
  -28.7741  -25.9577   17.7523 C   0  0  0  0  0  0
  -30.7780  -16.2824   22.2224 C   0  0  0  0  0  0
  -30.6434  -14.0435   23.2588 C   0  0  0  0  0  0
  -28.6371  -19.9709   20.5745 C   0  0  0  0  0  0
  -29.4696  -18.4837   22.3566 C   0  0  0  0  0  0
  -29.1922  -26.9111   18.8894 C   0  0  0  0  0  0
  -32.0388  -13.8722   23.9067 C   0  0  0  0  0  0
  -29.5993  -22.6096   18.9241 N   0  0  0  0  0  0
  -28.7868  -24.5469   18.1333 N   0  0  0  0  0  0
  -30.6494  -14.8315   22.0079 N   0  0  0  0  0  0
  -28.3117  -19.2637   21.8425 N   0  3  1  0  0  0
  -31.4559  -12.3827   19.0822 H   0  0  0  0  0  0
  -30.3032  -11.2538   19.7325 H   0  0  0  0  0  0
  -29.7167  -11.8568   17.3734 H   0  0  0  0  0  0
  -29.6465  -13.5487   17.8031 H   0  0  0  0  0  0
  -27.8293  -11.3177   18.7910 H   0  0  0  0  0  0
  -27.3526  -12.6569   17.7807 H   0  0  0  0  0  0
  -27.7233  -14.2559   19.5868 H   0  0  0  0  0  0
  -28.6277  -11.9366   21.3574 H   0  0  0  0  0  0
  -28.4282  -13.6039   21.8272 H   0  0  0  0  0  0
  -25.2765   -9.5692   22.4747 H   0  0  0  0  0  0
  -24.0000   -7.4650   22.7478 H   0  0  0  0  0  0
  -21.0840   -8.8775   19.8956 H   0  0  0  0  0  0
  -22.3695  -10.9671   19.6157 H   0  0  0  0  0  0
  -21.2009   -7.6148   23.9713 H   0  0  0  0  0  0
  -21.1487   -6.0527   25.9080 H   0  0  0  0  0  0
  -22.0594   -2.7608   23.2853 H   0  0  0  0  0  0
  -22.4126  -11.9882   22.4763 H   0  0  0  0  0  0
  -21.1146  -13.1271   22.2602 H   0  0  0  0  0  0
  -24.6648  -15.8417   20.4960 H   0  0  0  0  0  0
  -26.2809  -15.6152   20.0517 H   0  0  0  0  0  0
  -26.7093  -32.5588   23.1205 H   0  0  0  0  0  0
  -25.0096  -33.9817   25.0531 H   0  0  0  0  0  0
  -22.6866  -31.3101   21.4089 H   0  0  0  0  0  0
  -23.3775  -35.9633   23.3297 H   0  0  0  0  0  0
  -24.3583  -36.8932   22.2054 H   0  0  0  0  0  0
  -23.7251  -37.6514   23.6650 H   0  0  0  0  0  0
  -26.0192  -31.6114   20.5801 H   0  0  0  0  0  0
  -26.8158  -30.9139   21.9648 H   0  0  0  0  0  0
  -28.1019  -29.1450   21.1485 H   0  0  0  0  0  0
  -26.0849  -25.9643   19.0612 H   0  0  0  0  0  0
  -23.9821  -27.2780   19.0589 H   0  0  0  0  0  0
  -23.6937  -30.5839   19.3965 H   0  0  0  0  0  0
  -22.7327  -29.2228   19.8858 H   0  0  0  0  0  0
  -25.1301  -36.1986   25.0840 H   0  0  0  0  0  0
  -20.9967  -28.3229   24.1429 H   0  0  0  0  0  0
  -20.5659  -26.2275   23.3589 H   0  0  0  0  0  0
  -21.6640  -26.7434   22.1205 H   0  0  0  0  0  0
  -19.6896  -25.6296   21.1223 H   0  0  0  0  0  0
  -19.6664  -27.3189   20.6727 H   0  0  0  0  0  0
  -17.4190  -26.6673   21.4006 H   0  0  0  0  0  0
  -18.0308  -26.0042   22.8985 H   0  0  0  0  0  0
  -19.7926  -30.7223   24.2330 H   0  0  0  0  0  0
  -17.5015  -31.6270   24.5127 H   0  0  0  0  0  0
  -15.5346  -30.2985   23.7636 H   0  0  0  0  0  0
  -15.8667  -28.0793   22.7105 H   0  0  0  0  0  0
  -24.5918  -30.7006   25.7792 H   0  0  0  0  0  0
  -24.8874  -32.2812   26.4922 H   0  0  0  0  0  0
  -25.8084  -30.8848   27.0233 H   0  0  0  0  0  0
  -26.2862  -29.6805   24.1169 H   0  0  0  0  0  0
  -27.4249  -29.7357   25.4455 H   0  0  0  0  0  0
  -27.8607  -30.4483   23.9098 H   0  0  0  0  0  0
  -27.2738  -33.3652   26.2012 H   0  0  0  0  0  0
  -28.3868  -32.6814   25.0260 H   0  0  0  0  0  0
  -28.0730  -31.8451   26.5388 H   0  0  0  0  0  0
  -28.2610  -38.0113   24.7541 H   0  0  0  0  0  0
  -28.1102  -36.2649   24.6278 H   0  0  0  0  0  0
  -27.2291  -37.1435   25.8862 H   0  0  0  0  0  0
  -20.9269  -29.8775   21.6949 H   0  0  0  0  0  0
  -26.0204  -38.2882   24.1412 H   0  0  0  0  0  0
  -30.7216  -24.3996   19.0195 H   0  0  0  0  0  0
  -26.2738  -22.9596   16.5361 H   0  0  0  0  0  0
  -26.5266  -24.6871   16.5734 H   0  0  0  0  0  0
  -25.7042  -23.8896   17.9154 H   0  0  0  0  0  0
  -33.9712  -12.9270   23.5396 H   0  0  0  0  0  0
  -33.2992  -13.7033   22.1249 H   0  0  0  0  0  0
  -32.6392  -12.1633   22.6802 H   0  0  0  0  0  0
  -32.8720  -13.0767   25.7620 H   0  0  0  0  0  0
  -31.5023  -12.1554   25.1481 H   0  0  0  0  0  0
  -31.2433  -13.7113   25.9317 H   0  0  0  0  0  0
  -26.8041  -20.6095   22.5429 H   0  0  0  0  0  0
  -28.4323  -20.9799   23.1136 H   0  0  0  0  0  0
  -27.5267  -19.6269   23.7930 H   0  0  0  0  0  0
  -28.3709  -20.3089   17.8566 H   0  0  0  0  0  0
  -26.7961  -21.0181   17.8148 H   0  0  0  0  0  0
  -26.7260  -19.5903   19.6629 H   0  0  0  0  0  0
  -26.8308  -21.1915   20.3490 H   0  0  0  0  0  0
  -28.6246  -16.5066   22.1748 H   0  0  0  0  0  0
  -29.4282  -17.0461   20.7183 H   0  0  0  0  0  0
  -29.4516  -26.0818   16.9073 H   0  0  0  0  0  0
  -27.7887  -26.2421   17.3939 H   0  0  0  0  0  0
  -30.9897  -16.4874   23.2727 H   0  0  0  0  0  0
  -31.6406  -16.6730   21.6787 H   0  0  0  0  0  0
  -29.9625  -14.5256   23.9630 H   0  0  0  0  0  0
  -30.2278  -13.0479   23.1061 H   0  0  0  0  0  0
  -29.2915  -20.8120   20.8033 H   0  0  0  0  0  0
  -29.2145  -19.3039   19.9328 H   0  0  0  0  0  0
  -30.4005  -19.0077   22.1335 H   0  0  0  0  0  0
  -29.4241  -18.4185   23.4446 H   0  0  0  0  0  0
  -29.1506  -27.9454   18.5430 H   0  0  0  0  0  0
  -30.2340  -26.7326   19.1572 H   0  0  0  0  0  0
  -32.4556  -14.8604   24.1069 H   0  0  0  0  0  0
  -27.5877  -18.5904   21.6410 H   0  0  0  0  0  0
  1 25  1  0  0  0
  1 30  2  0  0  0
  1 90  1  0  0  0
  2  3  1  0  0  0
  2 25  1  0  0  0
  2 92  1  0  0  0
  2 93  1  0  0  0
  3  4  1  0  0  0
  3 94  1  0  0  0
  3 95  1  0  0  0
  4  5  1  0  0  0
  4 96  1  0  0  0
  4 97  1  0  0  0
  5  6  1  0  0  0
  5 26  1  0  0  0
  5 98  1  0  0  0
  6 25  1  0  0  0
  6 99  1  0  0  0
  6100  1  0  0  0
  7  8  2  0  0  0
  7 26  1  0  0  0
  7 29  1  0  0  0
  8  9  1  0  0  0
  8 22  1  0  0  0
  9 10  1  0  0  0
  9 27  2  0  0  0
 10 11  2  0  0  0
 10 15  1  0  0  0
 11 12  1  0  0  0
 11101  1  0  0  0
 12 13  2  0  0  0
 12102  1  0  0  0
 13 14  1  0  0  0
 13 31  1  0  0  0
 14 15  2  0  0  0
 14103  1  0  0  0
 15104  1  0  0  0
 16 17  2  0  0  0
 16 21  1  0  0  0
 16 31  1  0  0  0
 17 18  1  0  0  0
 17105  1  0  0  0
 18 19  2  0  0  0
 18106  1  0  0  0
 19 20  1  0  0  0
 19 24  1  0  0  0
 20 21  2  0  0  0
 20107  1  0  0  0
 21 23  1  0  0  0
 22 28  1  0  0  0
 22 32  2  0  0  0
 26 27  1  0  0  0
 28108  1  0  0  0
 28109  1  0  0  0
 29110  1  0  0  0
 29111  1  0  0  0
 33 34  1  0  0  0
 33 66  1  0  0  0
 33 70  2  0  0  0
 34 36  1  0  0  0
 34 59  1  0  0  0
 34112  1  0  0  0
 35 44  2  0  0  0
 35 45  1  0  0  0
 35 68  1  0  0  0
 36 56  1  0  0  0
 36113  1  0  0  0
 37 39  1  0  0  0
 37 47  1  0  0  0
 37 66  1  0  0  0
 37114  1  0  0  0
 38 43  2  0  0  0
 38 46  1  0  0  0
 38 47  1  0  0  0
 39 64  1  0  0  0
 39 67  2  0  0  0
 40 52  1  0  0  0
 40 53  2  0  0  0
 40 58  1  0  0  0
 41115  1  0  0  0
 41116  1  0  0  0
 41117  1  0  0  0
 41 48  1  0  0  0
 42 43  1  0  0  0
 42 66  1  0  0  0
 42118  1  0  0  0
 42119  1  0  0  0
 43 44  1  0  0  0
 44120  1  0  0  0
 45 46  2  0  0  0
 45121  1  0  0  0
 46122  1  0  0  0
 47123  1  0  0  0
 47124  1  0  0  0
 48 56  1  0  0  0
 48 65  1  0  0  0
 48125  1  0  0  0
 49 50  1  0  0  0
 49 53  1  0  0  0
 49 64  1  0  0  0
 49126  1  0  0  0
 50 51  1  0  0  0
 50127  1  0  0  0
 50128  1  0  0  0
 51 52  1  0  0  0
 51129  1  0  0  0
 51130  1  0  0  0
 52131  1  0  0  0
 52132  1  0  0  0
 53 54  1  0  0  0
 54 55  2  0  0  0
 54133  1  0  0  0
 55 57  1  0  0  0
 55134  1  0  0  0
 56 69  2  0  0  0
 57 58  2  0  0  0
 57135  1  0  0  0
 58136  1  0  0  0
 59 60  1  0  0  0
 59 61  1  0  0  0
 59 62  1  0  0  0
 60137  1  0  0  0
 60138  1  0  0  0
 60139  1  0  0  0
 61140  1  0  0  0
 61141  1  0  0  0
 61142  1  0  0  0
 62143  1  0  0  0
 62144  1  0  0  0
 62145  1  0  0  0
 63 65  1  0  0  0
 63146  1  0  0  0
 63147  1  0  0  0
 63148  1  0  0  0
 64149  1  0  0  0
 65150  1  0  0  0
 68 86  1  0  0  0
 71 88  2  0  0  0
 71 89  1  0  0  0
 71151  1  0  0  0
 72 73  2  0  0  0
 72 78  1  0  0  0
 72 88  1  0  0  0
 73 74  1  0  0  0
 73 89  1  0  0  0
 74152  1  0  0  0
 74153  1  0  0  0
 74154  1  0  0  0
 75155  1  0  0  0
 75156  1  0  0  0
 75157  1  0  0  0
 75 87  1  0  0  0
 76 87  1  0  0  0
 76158  1  0  0  0
 76159  1  0  0  0
 76160  1  0  0  0
 77161  1  0  0  0
 77162  1  0  0  0
 77163  1  0  0  0
 77 91  1  0  0  0
 78 79  1  0  0  0
 78164  1  0  0  0
 78165  1  0  0  0
 79 84  1  0  0  0
 79166  1  0  0  0
 79167  1  0  0  0
 80 82  1  0  0  0
 80 85  1  0  0  0
 80168  1  0  0  0
 80169  1  0  0  0
 81 86  1  0  0  0
 81 89  1  0  0  0
 81170  1  0  0  0
 81171  1  0  0  0
 82 90  1  0  0  0
 82172  1  0  0  0
 82173  1  0  0  0
 83 87  1  0  0  0
 83 90  1  0  0  0
 83174  1  0  0  0
 83175  1  0  0  0
 84 91  1  0  0  0
 84176  1  0  0  0
 84177  1  0  0  0
 85 91  1  0  0  0
 85178  1  0  0  0
 85179  1  0  0  0
 86180  1  0  0  0
 86181  1  0  0  0
 87182  1  0  0  0
 91183  1  0  0  0
M  CHG  1  91   1
M  ISO  4   1 100  68 101  86 101  90 100
M  END
> <chiral flag>
0

> <version>
0

> <s_m_source_file>
/data/baiqing/PycharmProjects/Reinvent-master-3.2/result/LINK_invent/BTK/process_docking_weight1_custom_sum_contain_oxygen_bond_distance_aromatic_linkinvent_7_9_3/rearranged_h_0051.sdf

> <i_m_source_file_index>
17

> <r_mmod_Potential_Energy-OPLS-2005>
-36.442813873291

> <r_mmod_Stretch_Energy-OPLS-2005>
36.6347198486328

> <r_mmod_Bend_Energy-OPLS-2005>
101.611129760742

> <r_mmod_Torsional_Energy-OPLS-2005>
320.816802978516

> <r_mmod_Improper_Torsional_Energy-OPLS-2005>
2.7536141872406

> <r_mmod_Van_der_Waal_Energy-OPLS-2005>
124.514022827148

> <r_mmod_Electrostatic_Energy-OPLS-2005>
-224.507629394531

> <r_mmod_Solvation_Energy-OPLS-2005>
-408.375701904297

> <b_mmod_Minimization_Converged-OPLS-2005>
0

> <r_mmod_RMS_Derivative-OPLS-2005>
1.46814346313477

$$$$
18
                    3D
 Structure written by MMmdl.
186194  0  0  1  0            999 V2000
  -30.7102  -14.4853   20.4488 C   0  0  0  0  0  0
  -30.4110  -12.2850   19.4270 C   0  0  0  0  0  0
  -29.4935  -12.4749   18.2013 C   0  0  0  0  0  0
  -28.0081  -12.3669   18.6062 C   0  0  0  0  0  0
  -27.6534  -13.2097   19.8637 C   0  0  2  0  0  0
  -28.7055  -13.0410   20.9789 C   0  0  0  0  0  0
  -25.2556  -13.8136   20.5717 C   0  0  0  0  0  0
  -24.1814  -13.0417   20.9195 C   0  0  0  0  0  0
  -24.6385  -11.6884   20.8750 C   0  0  0  0  0  0
  -23.9057  -10.4266   21.0396 C   0  0  0  0  0  0
  -24.3613   -9.4182   21.9180 C   0  0  0  0  0  0
  -23.6294   -8.2215   22.0744 C   0  0  0  0  0  0
  -22.4271   -8.0258   21.3531 C   0  0  0  0  0  0
  -21.9891   -9.0236   20.4650 C   0  0  0  0  0  0
  -22.7218  -10.2116   20.3058 C   0  0  0  0  0  0
  -21.6830   -6.0741   22.5267 C   0  0  0  0  0  0
  -21.4015   -6.5640   23.8206 C   0  0  0  0  0  0
  -21.3666   -5.6776   24.9159 C   0  0  0  0  0  0
  -21.6033   -4.3042   24.7205 C   0  0  0  0  0  0
  -21.8821   -3.8146   23.4320 C   0  0  0  0  0  0
  -21.9179   -4.6967   22.3384 C   0  0  0  0  0  0
  -22.7830  -13.5224   21.1845 C   0  0  0  0  0  0
  -22.1644   -4.2161   21.0962 F   0  0  0  0  0  0
  -21.5633   -3.4522   25.7727 F   0  0  0  0  0  0
  -30.0318  -13.3089   20.4104 N   0  0  0  0  0  0
  -26.3005  -12.9329   20.3362 N   0  0  0  0  0  0
  -25.9315  -11.6490   20.5775 N   0  0  0  0  0  0
  -22.0426  -12.8260   22.0402 N   0  0  0  0  0  0
  -25.4240  -15.1865   20.4166 N   0  0  0  0  0  0
  -31.9143  -14.5310   20.1930 O   0  0  0  0  0  0
  -21.6612   -6.8877   21.4229 O   0  0  0  0  0  0
  -22.3527  -14.5525   20.6662 O   0  0  0  0  0  0
  -24.6070  -31.8725   23.2127 C   0  0  0  0  0  0
  -25.8985  -32.4857   23.8413 C   0  0  1  0  0  0
  -27.2551  -27.4755   20.1016 C   0  0  0  0  0  0
  -25.5833  -33.8654   24.2329 N   0  0  0  0  0  0
  -23.3958  -30.4924   21.5532 C   0  0  2  0  0  0
  -24.8503  -28.9596   20.1193 C   0  0  0  0  0  0
  -22.7372  -29.4685   22.5043 C   0  0  0  0  0  0
  -18.0282  -28.1366   22.8524 C   0  0  0  0  0  0
  -24.1479  -36.7349   23.2655 C   0  0  0  0  0  0
  -25.9168  -30.8505   21.3601 C   0  0  0  0  0  0
  -26.0024  -29.4814   20.7198 C   0  0  0  0  0  0
  -27.2055  -28.7466   20.7170 C   0  0  0  0  0  0
  -26.0921  -26.9643   19.4902 C   0  0  0  0  0  0
  -24.8865  -27.6949   19.5024 C   0  0  0  0  0  0
  -23.6052  -29.8176   20.1677 C   0  0  0  0  0  0
  -25.4108  -36.3150   24.0354 C   0  0  1  0  0  0
  -20.5856  -28.3651   23.1361 C   0  0  2  0  0  0
  -20.6766  -26.9398   22.5443 C   0  0  0  0  0  0
  -19.5735  -26.6392   21.5242 C   0  0  0  0  0  0
  -18.1914  -26.7928   22.1648 C   0  0  0  0  0  0
  -19.1520  -28.8826   23.2935 C   0  0  0  0  0  0
  -18.9447  -30.1453   23.8925 C   0  0  0  0  0  0
  -17.6444  -30.6574   24.0573 C   0  0  0  0  0  0
  -25.9027  -34.9505   23.5153 C   0  0  0  0  0  0
  -16.5342  -29.9076   23.6312 C   0  0  0  0  0  0
  -16.7272  -28.6496   23.0346 C   0  0  0  0  0  0
  -26.4458  -31.6623   25.0718 C   0  0  0  0  0  0
  -25.3722  -31.3676   26.1453 C   0  0  0  0  0  0
  -27.0346  -30.3107   24.6066 C   0  0  0  0  0  0
  -27.6016  -32.4371   25.7485 C   0  0  0  0  0  0
  -27.5595  -37.1825   24.8477 C   0  0  0  0  0  0
  -21.4110  -29.3017   22.3746 N   0  0  0  0  0  0
  -26.4303  -37.3826   23.9416 N   0  0  0  0  0  0
  -24.6579  -31.0843   22.1018 N   0  0  0  0  0  0
  -23.4154  -28.8255   23.3103 O   0  0  0  0  0  0
  -28.3982  -26.7113   20.0287 O   0  0  0  0  0  0
  -26.5620  -34.8946   22.4743 O   0  0  0  0  0  0
  -23.5269  -32.1478   23.7526 O   0  0  0  0  0  0
  -29.4013  -20.4149   20.7940 C   0  0  0  0  0  0
  -31.1313  -19.0770   19.1743 C   0  0  0  0  0  0
  -29.1960  -19.0286   20.6146 C   0  0  0  0  0  0
  -30.0693  -18.3154   19.7362 C   0  0  0  0  0  0
  -30.4570  -21.0596   20.1313 C   0  0  0  0  0  0
  -28.0304  -18.3938   21.3590 C   0  0  0  0  0  0
  -28.0729  -17.7065   17.6372 C   0  0  0  0  0  0
  -31.4604  -27.4060   16.2894 C   0  0  0  0  0  0
  -30.9276  -16.4275   18.2346 C   0  0  0  0  0  0
  -30.6577  -22.5670   20.1826 C   0  0  0  0  0  0
  -29.9916  -15.8567   20.6089 C   0  0  0  0  0  0
  -28.5193  -16.5991   18.6128 C   0  0  0  0  0  0
  -30.2216  -23.2551   18.8649 C   0  0  0  0  0  0
  -31.3669  -23.9025   18.0508 C   0  0  0  0  0  0
  -30.6837  -27.1924   20.8626 C   0  0  0  0  0  0
  -30.3464  -26.7292   17.1086 C   0  0  0  0  0  0
  -31.8185  -25.2865   18.5634 C   0  0  0  0  0  0
  -30.9846  -27.4913   19.3785 C   0  0  0  0  0  0
  -29.2609  -26.6748   21.1678 C   0  0  0  0  0  0
  -29.8880  -16.8101   19.3346 C   0  0  1  0  0  0
  -31.3264  -20.3934   19.3601 N   0  0  0  0  0  0
  -30.7495  -26.3255   18.4866 N   0  3  1  0  0  0
  -31.4592  -12.3466   19.1301 H   0  0  0  0  0  0
  -30.2858  -11.2893   19.8563 H   0  0  0  0  0  0
  -29.7296  -11.7282   17.4415 H   0  0  0  0  0  0
  -29.6751  -13.4437   17.7365 H   0  0  0  0  0  0
  -27.7947  -11.3149   18.7980 H   0  0  0  0  0  0
  -27.3705  -12.6564   17.7703 H   0  0  0  0  0  0
  -27.6767  -14.2473   19.5570 H   0  0  0  0  0  0
  -28.6788  -12.0239   21.3719 H   0  0  0  0  0  0
  -28.5000  -13.6910   21.8280 H   0  0  0  0  0  0
  -25.2756   -9.5649   22.4761 H   0  0  0  0  0  0
  -23.9990   -7.4595   22.7461 H   0  0  0  0  0  0
  -21.0807   -8.8777   19.8969 H   0  0  0  0  0  0
  -22.3679  -10.9673   19.6183 H   0  0  0  0  0  0
  -21.2016   -7.6149   23.9728 H   0  0  0  0  0  0
  -21.1489   -6.0494   25.9069 H   0  0  0  0  0  0
  -22.0604   -2.7614   23.2797 H   0  0  0  0  0  0
  -22.4002  -11.9976   22.4921 H   0  0  0  0  0  0
  -21.1040  -13.1331   22.2561 H   0  0  0  0  0  0
  -24.6544  -15.8376   20.5225 H   0  0  0  0  0  0
  -26.2766  -15.6237   20.0967 H   0  0  0  0  0  0
  -26.7057  -32.5621   23.1185 H   0  0  0  0  0  0
  -24.9824  -33.9822   25.0351 H   0  0  0  0  0  0
  -22.6860  -31.3082   21.4110 H   0  0  0  0  0  0
  -23.3736  -35.9689   23.3345 H   0  0  0  0  0  0
  -24.3554  -36.8937   22.2060 H   0  0  0  0  0  0
  -23.7221  -37.6562   23.6650 H   0  0  0  0  0  0
  -26.0175  -31.6127   20.5869 H   0  0  0  0  0  0
  -26.8052  -30.9126   21.9738 H   0  0  0  0  0  0
  -28.0941  -29.1691   21.1646 H   0  0  0  0  0  0
  -26.1245  -25.9969   19.0089 H   0  0  0  0  0  0
  -24.0039  -27.2874   19.0292 H   0  0  0  0  0  0
  -23.7025  -30.5903   19.4048 H   0  0  0  0  0  0
  -22.7329  -29.2291   19.8781 H   0  0  0  0  0  0
  -25.1268  -36.2038   25.0847 H   0  0  0  0  0  0
  -20.9973  -28.3230   24.1474 H   0  0  0  0  0  0
  -20.5697  -26.2268   23.3639 H   0  0  0  0  0  0
  -21.6640  -26.7480   22.1213 H   0  0  0  0  0  0
  -19.6891  -25.6316   21.1248 H   0  0  0  0  0  0
  -19.6636  -27.3231   20.6794 H   0  0  0  0  0  0
  -17.4194  -26.6739   21.4030 H   0  0  0  0  0  0
  -18.0267  -26.0034   22.8993 H   0  0  0  0  0  0
  -19.7918  -30.7271   24.2289 H   0  0  0  0  0  0
  -17.4988  -31.6252   24.5182 H   0  0  0  0  0  0
  -15.5339  -30.2966   23.7610 H   0  0  0  0  0  0
  -15.8695  -28.0817   22.7015 H   0  0  0  0  0  0
  -24.5926  -30.6999   25.7758 H   0  0  0  0  0  0
  -24.8872  -32.2810   26.4908 H   0  0  0  0  0  0
  -25.8060  -30.8852   27.0203 H   0  0  0  0  0  0
  -26.2875  -29.6761   24.1256 H   0  0  0  0  0  0
  -27.4291  -29.7432   25.4500 H   0  0  0  0  0  0
  -27.8620  -30.4484   23.9085 H   0  0  0  0  0  0
  -27.2632  -33.3716   26.1986 H   0  0  0  0  0  0
  -28.3865  -32.6842   25.0339 H   0  0  0  0  0  0
  -28.0601  -31.8541   26.5471 H   0  0  0  0  0  0
  -28.2635  -38.0109   24.7526 H   0  0  0  0  0  0
  -28.1069  -36.2633   24.6287 H   0  0  0  0  0  0
  -27.2321  -37.1467   25.8889 H   0  0  0  0  0  0
  -20.9261  -29.8703   21.6949 H   0  0  0  0  0  0
  -26.0212  -38.2922   24.1375 H   0  0  0  0  0  0
  -28.7354  -20.9928   21.4210 H   0  0  0  0  0  0
  -31.8704  -18.6671   18.5056 H   0  0  0  0  0  0
  -27.5530  -19.1167   22.0195 H   0  0  0  0  0  0
  -28.3589  -17.5762   21.9970 H   0  0  0  0  0  0
  -27.2527  -18.0462   20.6834 H   0  0  0  0  0  0
  -27.1384  -17.4281   17.1470 H   0  0  0  0  0  0
  -28.8031  -17.8822   16.8497 H   0  0  0  0  0  0
  -27.8975  -18.6568   18.1423 H   0  0  0  0  0  0
  -31.0594  -27.7784   15.3463 H   0  0  0  0  0  0
  -32.2625  -26.7143   16.0369 H   0  0  0  0  0  0
  -31.8946  -28.2571   16.8151 H   0  0  0  0  0  0
  -31.9557  -16.5060   18.5916 H   0  0  0  0  0  0
  -30.8419  -17.0540   17.3486 H   0  0  0  0  0  0
  -30.7989  -15.4089   17.8728 H   0  0  0  0  0  0
  -31.7057  -22.7757   20.4060 H   0  0  0  0  0  0
  -30.0892  -22.9748   21.0197 H   0  0  0  0  0  0
  -29.0145  -15.7139   21.0636 H   0  0  0  0  0  0
  -30.5752  -16.3742   21.3714 H   0  0  0  0  0  0
  -28.5232  -15.6536   18.0684 H   0  0  0  0  0  0
  -27.7212  -16.4862   19.3386 H   0  0  0  0  0  0
  -29.4467  -23.9885   19.0784 H   0  0  0  0  0  0
  -29.7303  -22.5155   18.2288 H   0  0  0  0  0  0
  -31.0716  -23.9744   17.0045 H   0  0  0  0  0  0
  -32.2243  -23.2277   18.0434 H   0  0  0  0  0  0
  -30.8489  -28.1106   21.4252 H   0  0  0  0  0  0
  -31.4109  -26.4883   21.2669 H   0  0  0  0  0  0
  -29.9628  -25.8675   16.5616 H   0  0  0  0  0  0
  -29.4964  -27.4113   17.1845 H   0  0  0  0  0  0
  -32.7007  -25.6207   18.0147 H   0  0  0  0  0  0
  -32.1530  -25.1654   19.5941 H   0  0  0  0  0  0
  -32.0109  -27.8447   19.2611 H   0  0  0  0  0  0
  -30.3469  -28.3258   19.0822 H   0  0  0  0  0  0
  -28.8494  -27.1770   22.0438 H   0  0  0  0  0  0
  -29.3357  -25.6262   21.4611 H   0  0  0  0  0  0
  -29.9129  -25.9058   18.8702 H   0  0  0  0  0  0
  1 25  1  0  0  0
  1 30  2  0  0  0
  1 81  1  0  0  0
  2  3  1  0  0  0
  2 25  1  0  0  0
  2 93  1  0  0  0
  2 94  1  0  0  0
  3  4  1  0  0  0
  3 95  1  0  0  0
  3 96  1  0  0  0
  4  5  1  0  0  0
  4 97  1  0  0  0
  4 98  1  0  0  0
  5  6  1  0  0  0
  5 26  1  0  0  0
  5 99  1  0  0  0
  6 25  1  0  0  0
  6100  1  0  0  0
  6101  1  0  0  0
  7  8  2  0  0  0
  7 26  1  0  0  0
  7 29  1  0  0  0
  8  9  1  0  0  0
  8 22  1  0  0  0
  9 10  1  0  0  0
  9 27  2  0  0  0
 10 11  2  0  0  0
 10 15  1  0  0  0
 11 12  1  0  0  0
 11102  1  0  0  0
 12 13  2  0  0  0
 12103  1  0  0  0
 13 14  1  0  0  0
 13 31  1  0  0  0
 14 15  2  0  0  0
 14104  1  0  0  0
 15105  1  0  0  0
 16 17  2  0  0  0
 16 21  1  0  0  0
 16 31  1  0  0  0
 17 18  1  0  0  0
 17106  1  0  0  0
 18 19  2  0  0  0
 18107  1  0  0  0
 19 20  1  0  0  0
 19 24  1  0  0  0
 20 21  2  0  0  0
 20108  1  0  0  0
 21 23  1  0  0  0
 22 28  1  0  0  0
 22 32  2  0  0  0
 26 27  1  0  0  0
 28109  1  0  0  0
 28110  1  0  0  0
 29111  1  0  0  0
 29112  1  0  0  0
 33 34  1  0  0  0
 33 66  1  0  0  0
 33 70  2  0  0  0
 34 36  1  0  0  0
 34 59  1  0  0  0
 34113  1  0  0  0
 35 44  2  0  0  0
 35 45  1  0  0  0
 35 68  1  0  0  0
 36 56  1  0  0  0
 36114  1  0  0  0
 37 39  1  0  0  0
 37 47  1  0  0  0
 37 66  1  0  0  0
 37115  1  0  0  0
 38 43  2  0  0  0
 38 46  1  0  0  0
 38 47  1  0  0  0
 39 64  1  0  0  0
 39 67  2  0  0  0
 40 52  1  0  0  0
 40 53  2  0  0  0
 40 58  1  0  0  0
 41116  1  0  0  0
 41117  1  0  0  0
 41118  1  0  0  0
 41 48  1  0  0  0
 42 43  1  0  0  0
 42 66  1  0  0  0
 42119  1  0  0  0
 42120  1  0  0  0
 43 44  1  0  0  0
 44121  1  0  0  0
 45 46  2  0  0  0
 45122  1  0  0  0
 46123  1  0  0  0
 47124  1  0  0  0
 47125  1  0  0  0
 48 56  1  0  0  0
 48 65  1  0  0  0
 48126  1  0  0  0
 49 50  1  0  0  0
 49 53  1  0  0  0
 49 64  1  0  0  0
 49127  1  0  0  0
 50 51  1  0  0  0
 50128  1  0  0  0
 50129  1  0  0  0
 51 52  1  0  0  0
 51130  1  0  0  0
 51131  1  0  0  0
 52132  1  0  0  0
 52133  1  0  0  0
 53 54  1  0  0  0
 54 55  2  0  0  0
 54134  1  0  0  0
 55 57  1  0  0  0
 55135  1  0  0  0
 56 69  2  0  0  0
 57 58  2  0  0  0
 57136  1  0  0  0
 58137  1  0  0  0
 59 60  1  0  0  0
 59 61  1  0  0  0
 59 62  1  0  0  0
 60138  1  0  0  0
 60139  1  0  0  0
 60140  1  0  0  0
 61141  1  0  0  0
 61142  1  0  0  0
 61143  1  0  0  0
 62144  1  0  0  0
 62145  1  0  0  0
 62146  1  0  0  0
 63 65  1  0  0  0
 63147  1  0  0  0
 63148  1  0  0  0
 63149  1  0  0  0
 64150  1  0  0  0
 65151  1  0  0  0
 68 89  1  0  0  0
 71 73  2  0  0  0
 71 75  1  0  0  0
 71152  1  0  0  0
 72 74  2  0  0  0
 72 91  1  0  0  0
 72153  1  0  0  0
 73 74  1  0  0  0
 73 76  1  0  0  0
 74 90  1  0  0  0
 75 80  1  0  0  0
 75 91  2  0  0  0
 76154  1  0  0  0
 76155  1  0  0  0
 76156  1  0  0  0
 77 82  1  0  0  0
 77157  1  0  0  0
 77158  1  0  0  0
 77159  1  0  0  0
 78 86  1  0  0  0
 78160  1  0  0  0
 78161  1  0  0  0
 78162  1  0  0  0
 79163  1  0  0  0
 79164  1  0  0  0
 79165  1  0  0  0
 79 90  1  0  0  0
 80 83  1  0  0  0
 80166  1  0  0  0
 80167  1  0  0  0
 81 90  1  0  0  0
 81168  1  0  0  0
 81169  1  0  0  0
 82 90  1  0  0  0
 82170  1  0  0  0
 82171  1  0  0  0
 83 84  1  0  0  0
 83172  1  0  0  0
 83173  1  0  0  0
 84 87  1  0  0  0
 84174  1  0  0  0
 84175  1  0  0  0
 85 88  1  0  0  0
 85 89  1  0  0  0
 85176  1  0  0  0
 85177  1  0  0  0
 86178  1  0  0  0
 86179  1  0  0  0
 86 92  1  0  0  0
 87 92  1  0  0  0
 87180  1  0  0  0
 87181  1  0  0  0
 88 92  1  0  0  0
 88182  1  0  0  0
 88183  1  0  0  0
 89184  1  0  0  0
 89185  1  0  0  0
 92186  1  0  0  0
M  CHG  1  92   1
M  ISO  4   1 100  68 101  81 100  89 101
M  END
> <chiral flag>
0

> <version>
0

> <s_m_source_file>
/data/baiqing/PycharmProjects/Reinvent-master-3.2/result/LINK_invent/BTK/process_docking_weight1_custom_sum_contain_oxygen_bond_distance_aromatic_linkinvent_7_9_3/rearranged_h_0051.sdf

> <i_m_source_file_index>
18

> <r_mmod_Potential_Energy-OPLS-2005>
-94.6429443359375

> <r_mmod_Stretch_Energy-OPLS-2005>
49.4111137390137

> <r_mmod_Bend_Energy-OPLS-2005>
131.691192626953

> <r_mmod_Torsional_Energy-OPLS-2005>
260.808837890625

> <r_mmod_Improper_Torsional_Energy-OPLS-2005>
4.30120897293091

> <r_mmod_Van_der_Waal_Energy-OPLS-2005>
167.960220336914

> <r_mmod_Electrostatic_Energy-OPLS-2005>
-335.441009521484

> <r_mmod_Solvation_Energy-OPLS-2005>
-393.867431640625

> <b_mmod_Minimization_Converged-OPLS-2005>
0

> <r_mmod_RMS_Derivative-OPLS-2005>
3.5719358921051

$$$$
19
                    3D
 Structure written by MMmdl.
171179  0  0  1  0            999 V2000
  -30.8312  -14.2961   20.7362 C   0  0  0  0  0  0
  -30.4174  -12.2820   19.3765 C   0  0  0  0  0  0
  -29.4783  -12.5424   18.1879 C   0  0  0  0  0  0
  -28.0103  -12.3852   18.6146 C   0  0  0  0  0  0
  -27.6750  -13.2047   19.8866 C   0  0  2  0  0  0
  -28.7182  -12.9509   21.0016 C   0  0  0  0  0  0
  -25.2653  -13.8174   20.5702 C   0  0  0  0  0  0
  -24.1886  -13.0448   20.9175 C   0  0  0  0  0  0
  -24.6428  -11.6914   20.8730 C   0  0  0  0  0  0
  -23.9081  -10.4305   21.0401 C   0  0  0  0  0  0
  -24.3625   -9.4209   21.9176 C   0  0  0  0  0  0
  -23.6292   -8.2249   22.0754 C   0  0  0  0  0  0
  -22.4280   -8.0288   21.3540 C   0  0  0  0  0  0
  -21.9917   -9.0263   20.4642 C   0  0  0  0  0  0
  -22.7254  -10.2139   20.3049 C   0  0  0  0  0  0
  -21.6850   -6.0741   22.5278 C   0  0  0  0  0  0
  -21.4013   -6.5643   23.8214 C   0  0  0  0  0  0
  -21.3652   -5.6790   24.9171 C   0  0  0  0  0  0
  -21.6046   -4.3056   24.7223 C   0  0  0  0  0  0
  -21.8813   -3.8151   23.4342 C   0  0  0  0  0  0
  -21.9197   -4.6970   22.3402 C   0  0  0  0  0  0
  -22.7897  -13.5240   21.1806 C   0  0  0  0  0  0
  -22.1660   -4.2154   21.0973 F   0  0  0  0  0  0
  -21.5626   -3.4538   25.7734 F   0  0  0  0  0  0
  -30.0710  -13.2026   20.4675 N   0  0  0  0  0  0
  -26.3107  -12.9339   20.3439 N   0  0  0  0  0  0
  -25.9361  -11.6492   20.5790 N   0  0  0  0  0  0
  -22.0536  -12.8260   22.0388 N   0  0  0  0  0  0
  -25.4382  -15.1885   20.4090 N   0  0  0  0  0  0
  -31.7166  -14.7135   19.9830 O   0  0  0  0  0  0
  -21.6640   -6.8887   21.4238 O   0  0  0  0  0  0
  -22.3575  -14.5536   20.6647 O   0  0  0  0  0  0
  -24.6107  -31.8740   23.2128 C   0  0  0  0  0  0
  -25.9011  -32.4863   23.8421 C   0  0  1  0  0  0
  -27.2362  -27.4677   20.0872 C   0  0  0  0  0  0
  -25.5888  -33.8667   24.2350 N   0  0  0  0  0  0
  -23.3990  -30.4951   21.5543 C   0  0  2  0  0  0
  -24.8472  -28.9635   20.1143 C   0  0  0  0  0  0
  -22.7412  -29.4678   22.5036 C   0  0  0  0  0  0
  -18.0260  -28.1367   22.8494 C   0  0  0  0  0  0
  -24.1488  -36.7305   23.2643 C   0  0  0  0  0  0
  -25.9239  -30.8398   21.3694 C   0  0  0  0  0  0
  -26.0024  -29.4760   20.7191 C   0  0  0  0  0  0
  -27.1999  -28.7290   20.7153 C   0  0  0  0  0  0
  -26.0740  -26.9730   19.4601 C   0  0  0  0  0  0
  -24.8740  -27.7055   19.4876 C   0  0  0  0  0  0
  -23.6069  -29.8264   20.1682 C   0  0  0  0  0  0
  -25.4111  -36.3141   24.0351 C   0  0  1  0  0  0
  -20.5848  -28.3642   23.1328 C   0  0  2  0  0  0
  -20.6765  -26.9387   22.5427 C   0  0  0  0  0  0
  -19.5745  -26.6371   21.5222 C   0  0  0  0  0  0
  -18.1906  -26.7915   22.1616 C   0  0  0  0  0  0
  -19.1516  -28.8816   23.2893 C   0  0  0  0  0  0
  -18.9458  -30.1425   23.8898 C   0  0  0  0  0  0
  -17.6468  -30.6589   24.0559 C   0  0  0  0  0  0
  -25.9037  -34.9509   23.5145 C   0  0  0  0  0  0
  -16.5358  -29.9087   23.6328 C   0  0  0  0  0  0
  -16.7257  -28.6496   23.0366 C   0  0  0  0  0  0
  -26.4440  -31.6640   25.0747 C   0  0  0  0  0  0
  -25.3696  -31.3737   26.1492 C   0  0  0  0  0  0
  -27.0294  -30.3108   24.6098 C   0  0  0  0  0  0
  -27.6027  -32.4362   25.7487 C   0  0  0  0  0  0
  -27.5587  -37.1803   24.8473 C   0  0  0  0  0  0
  -21.4141  -29.3014   22.3752 N   0  0  0  0  0  0
  -26.4312  -37.3813   23.9408 N   0  0  0  0  0  0
  -24.6614  -31.0828   22.1042 N   0  0  0  0  0  0
  -23.4175  -28.8226   23.3087 O   0  0  0  0  0  0
  -28.3914  -26.7284   20.0726 O   0  0  0  0  0  0
  -26.5613  -34.8951   22.4706 O   0  0  0  0  0  0
  -23.5308  -32.1494   23.7518 O   0  0  0  0  0  0
  -27.5831  -17.7297   25.3640 C   0  0  0  0  0  0
  -26.8278  -18.6595   26.1291 C   0  0  0  0  0  0
  -28.0816  -18.4657   24.3234 C   0  0  0  0  0  0
  -32.7948  -14.4641   23.2273 C   0  0  0  0  0  0
  -28.9827  -18.0951   23.1812 C   0  0  0  0  0  0
  -29.1942  -16.5861   22.9810 C   0  0  0  0  0  0
  -27.0620  -22.1747   21.5884 C   0  0  0  0  0  0
  -27.6662  -23.5220   22.0218 C   0  0  0  0  0  0
  -26.7008  -21.2296   22.7426 C   0  0  0  0  0  0
  -27.8431  -24.4586   20.8193 C   0  0  0  0  0  0
  -27.8751  -20.9322   23.6839 C   0  0  0  0  0  0
  -31.2846  -14.1747   23.1138 C   0  0  0  0  0  0
  -30.4251  -16.2807   22.1082 C   0  0  0  0  0  0
  -28.4956  -25.8111   21.1627 C   0  0  0  0  0  0
  -26.8488  -19.8743   25.6044 N   0  0  0  0  0  0
  -27.6239  -19.7595   24.5037 N   0  0  0  0  0  0
  -30.6455  -14.8343   21.9607 N   0  0  0  0  0  0
  -31.4579  -12.3860   19.0621 H   0  0  0  0  0  0
  -30.3167  -11.2533   19.7244 H   0  0  0  0  0  0
  -29.7057  -11.8571   17.3709 H   0  0  0  0  0  0
  -29.6448  -13.5480   17.7987 H   0  0  0  0  0  0
  -27.8224  -11.3262   18.7935 H   0  0  0  0  0  0
  -27.3494  -12.6747   17.7967 H   0  0  0  0  0  0
  -27.7349  -14.2591   19.6137 H   0  0  0  0  0  0
  -28.6610  -11.9183   21.3477 H   0  0  0  0  0  0
  -28.4818  -13.5698   21.8682 H   0  0  0  0  0  0
  -25.2761   -9.5685   22.4761 H   0  0  0  0  0  0
  -23.9993   -7.4647   22.7485 H   0  0  0  0  0  0
  -21.0844   -8.8777   19.8954 H   0  0  0  0  0  0
  -22.3699  -10.9677   19.6160 H   0  0  0  0  0  0
  -21.2000   -7.6148   23.9713 H   0  0  0  0  0  0
  -21.1479   -6.0523   25.9073 H   0  0  0  0  0  0
  -22.0604   -2.7612   23.2839 H   0  0  0  0  0  0
  -22.4138  -11.9925   22.4799 H   0  0  0  0  0  0
  -21.1155  -13.1296   22.2577 H   0  0  0  0  0  0
  -24.6770  -15.8504   20.5182 H   0  0  0  0  0  0
  -26.2990  -15.6238   20.0996 H   0  0  0  0  0  0
  -26.7090  -32.5608   23.1197 H   0  0  0  0  0  0
  -25.0036  -33.9826   25.0498 H   0  0  0  0  0  0
  -22.6861  -31.3106   21.4178 H   0  0  0  0  0  0
  -23.3787  -35.9608   23.3336 H   0  0  0  0  0  0
  -24.3560  -36.8893   22.2052 H   0  0  0  0  0  0
  -23.7208  -37.6499   23.6642 H   0  0  0  0  0  0
  -26.0349  -31.6064   20.6020 H   0  0  0  0  0  0
  -26.8099  -30.8918   21.9909 H   0  0  0  0  0  0
  -28.0891  -29.1137   21.1957 H   0  0  0  0  0  0
  -26.0988  -26.0258   18.9416 H   0  0  0  0  0  0
  -23.9912  -27.3070   19.0068 H   0  0  0  0  0  0
  -23.7115  -30.6024   19.4094 H   0  0  0  0  0  0
  -22.7326  -29.2419   19.8761 H   0  0  0  0  0  0
  -25.1283  -36.2023   25.0854 H   0  0  0  0  0  0
  -20.9904  -28.3220   24.1464 H   0  0  0  0  0  0
  -20.5690  -26.2257   23.3616 H   0  0  0  0  0  0
  -21.6630  -26.7471   22.1195 H   0  0  0  0  0  0
  -19.6933  -25.6280   21.1247 H   0  0  0  0  0  0
  -19.6699  -27.3193   20.6756 H   0  0  0  0  0  0
  -17.4194  -26.6678   21.4006 H   0  0  0  0  0  0
  -18.0278  -26.0050   22.8998 H   0  0  0  0  0  0
  -19.7960  -30.7202   24.2302 H   0  0  0  0  0  0
  -17.5056  -31.6283   24.5138 H   0  0  0  0  0  0
  -15.5363  -30.3003   23.7661 H   0  0  0  0  0  0
  -15.8650  -28.0817   22.7103 H   0  0  0  0  0  0
  -24.5859  -30.7094   25.7799 H   0  0  0  0  0  0
  -24.8878  -32.2899   26.4953 H   0  0  0  0  0  0
  -25.8022  -30.8889   27.0255 H   0  0  0  0  0  0
  -26.2840  -29.6862   24.1166 H   0  0  0  0  0  0
  -27.4112  -29.7363   25.4539 H   0  0  0  0  0  0
  -27.8645  -30.4472   23.9226 H   0  0  0  0  0  0
  -27.2653  -33.3661   26.2088 H   0  0  0  0  0  0
  -28.3797  -32.6930   25.0270 H   0  0  0  0  0  0
  -28.0731  -31.8477   26.5382 H   0  0  0  0  0  0
  -28.2620  -38.0085   24.7532 H   0  0  0  0  0  0
  -28.1068  -36.2625   24.6297 H   0  0  0  0  0  0
  -27.2294  -37.1440   25.8871 H   0  0  0  0  0  0
  -20.9326  -29.8718   21.6941 H   0  0  0  0  0  0
  -26.0234  -38.2906   24.1414 H   0  0  0  0  0  0
  -27.7436  -16.6800   25.5662 H   0  0  0  0  0  0
  -26.2775  -18.4906   27.0441 H   0  0  0  0  0  0
  -33.2293  -13.9164   24.0641 H   0  0  0  0  0  0
  -32.9939  -15.5216   23.4033 H   0  0  0  0  0  0
  -33.3373  -14.1669   22.3291 H   0  0  0  0  0  0
  -29.9472  -18.5754   23.3479 H   0  0  0  0  0  0
  -28.5946  -18.5234   22.2567 H   0  0  0  0  0  0
  -28.2913  -16.1445   22.5559 H   0  0  0  0  0  0
  -29.3374  -16.1222   23.9551 H   0  0  0  0  0  0
  -27.7618  -21.6712   20.9196 H   0  0  0  0  0  0
  -26.1600  -22.3527   21.0006 H   0  0  0  0  0  0
  -28.6300  -23.3638   22.5058 H   0  0  0  0  0  0
  -27.0181  -23.9924   22.7634 H   0  0  0  0  0  0
  -26.3444  -20.2949   22.3077 H   0  0  0  0  0  0
  -25.8659  -21.6330   23.3166 H   0  0  0  0  0  0
  -26.8558  -24.6133   20.3929 H   0  0  0  0  0  0
  -28.4321  -23.9644   20.0467 H   0  0  0  0  0  0
  -28.0685  -21.7831   24.3372 H   0  0  0  0  0  0
  -28.7879  -20.7749   23.1096 H   0  0  0  0  0  0
  -30.7853  -14.4549   24.0406 H   0  0  0  0  0  0
  -31.1429  -13.0942   23.0334 H   0  0  0  0  0  0
  -31.3121  -16.7515   22.5321 H   0  0  0  0  0  0
  -30.2850  -16.7514   21.1322 H   0  0  0  0  0  0
  -29.5533  -25.6576   21.3783 H   0  0  0  0  0  0
  -28.0578  -26.2336   22.0702 H   0  0  0  0  0  0
  1 25  1  0  0  0
  1 30  2  0  0  0
  1 87  1  0  0  0
  2  3  1  0  0  0
  2 25  1  0  0  0
  2 88  1  0  0  0
  2 89  1  0  0  0
  3  4  1  0  0  0
  3 90  1  0  0  0
  3 91  1  0  0  0
  4  5  1  0  0  0
  4 92  1  0  0  0
  4 93  1  0  0  0
  5  6  1  0  0  0
  5 26  1  0  0  0
  5 94  1  0  0  0
  6 25  1  0  0  0
  6 95  1  0  0  0
  6 96  1  0  0  0
  7  8  2  0  0  0
  7 26  1  0  0  0
  7 29  1  0  0  0
  8  9  1  0  0  0
  8 22  1  0  0  0
  9 10  1  0  0  0
  9 27  2  0  0  0
 10 11  2  0  0  0
 10 15  1  0  0  0
 11 12  1  0  0  0
 11 97  1  0  0  0
 12 13  2  0  0  0
 12 98  1  0  0  0
 13 14  1  0  0  0
 13 31  1  0  0  0
 14 15  2  0  0  0
 14 99  1  0  0  0
 15100  1  0  0  0
 16 17  2  0  0  0
 16 21  1  0  0  0
 16 31  1  0  0  0
 17 18  1  0  0  0
 17101  1  0  0  0
 18 19  2  0  0  0
 18102  1  0  0  0
 19 20  1  0  0  0
 19 24  1  0  0  0
 20 21  2  0  0  0
 20103  1  0  0  0
 21 23  1  0  0  0
 22 28  1  0  0  0
 22 32  2  0  0  0
 26 27  1  0  0  0
 28104  1  0  0  0
 28105  1  0  0  0
 29106  1  0  0  0
 29107  1  0  0  0
 33 34  1  0  0  0
 33 66  1  0  0  0
 33 70  2  0  0  0
 34 36  1  0  0  0
 34 59  1  0  0  0
 34108  1  0  0  0
 35 44  2  0  0  0
 35 45  1  0  0  0
 35 68  1  0  0  0
 36 56  1  0  0  0
 36109  1  0  0  0
 37 39  1  0  0  0
 37 47  1  0  0  0
 37 66  1  0  0  0
 37110  1  0  0  0
 38 43  2  0  0  0
 38 46  1  0  0  0
 38 47  1  0  0  0
 39 64  1  0  0  0
 39 67  2  0  0  0
 40 52  1  0  0  0
 40 53  2  0  0  0
 40 58  1  0  0  0
 41111  1  0  0  0
 41112  1  0  0  0
 41113  1  0  0  0
 41 48  1  0  0  0
 42 43  1  0  0  0
 42 66  1  0  0  0
 42114  1  0  0  0
 42115  1  0  0  0
 43 44  1  0  0  0
 44116  1  0  0  0
 45 46  2  0  0  0
 45117  1  0  0  0
 46118  1  0  0  0
 47119  1  0  0  0
 47120  1  0  0  0
 48 56  1  0  0  0
 48 65  1  0  0  0
 48121  1  0  0  0
 49 50  1  0  0  0
 49 53  1  0  0  0
 49 64  1  0  0  0
 49122  1  0  0  0
 50 51  1  0  0  0
 50123  1  0  0  0
 50124  1  0  0  0
 51 52  1  0  0  0
 51125  1  0  0  0
 51126  1  0  0  0
 52127  1  0  0  0
 52128  1  0  0  0
 53 54  1  0  0  0
 54 55  2  0  0  0
 54129  1  0  0  0
 55 57  1  0  0  0
 55130  1  0  0  0
 56 69  2  0  0  0
 57 58  2  0  0  0
 57131  1  0  0  0
 58132  1  0  0  0
 59 60  1  0  0  0
 59 61  1  0  0  0
 59 62  1  0  0  0
 60133  1  0  0  0
 60134  1  0  0  0
 60135  1  0  0  0
 61136  1  0  0  0
 61137  1  0  0  0
 61138  1  0  0  0
 62139  1  0  0  0
 62140  1  0  0  0
 62141  1  0  0  0
 63 65  1  0  0  0
 63142  1  0  0  0
 63143  1  0  0  0
 63144  1  0  0  0
 64145  1  0  0  0
 65146  1  0  0  0
 68 84  1  0  0  0
 71 72  1  0  0  0
 71 73  2  0  0  0
 71147  1  0  0  0
 72 85  2  0  0  0
 72148  1  0  0  0
 73 75  1  0  0  0
 73 86  1  0  0  0
 74 82  1  0  0  0
 74149  1  0  0  0
 74150  1  0  0  0
 74151  1  0  0  0
 75 76  1  0  0  0
 75152  1  0  0  0
 75153  1  0  0  0
 76 83  1  0  0  0
 76154  1  0  0  0
 76155  1  0  0  0
 77 78  1  0  0  0
 77 79  1  0  0  0
 77156  1  0  0  0
 77157  1  0  0  0
 78 80  1  0  0  0
 78158  1  0  0  0
 78159  1  0  0  0
 79 81  1  0  0  0
 79160  1  0  0  0
 79161  1  0  0  0
 80 84  1  0  0  0
 80162  1  0  0  0
 80163  1  0  0  0
 81 86  1  0  0  0
 81164  1  0  0  0
 81165  1  0  0  0
 82 87  1  0  0  0
 82166  1  0  0  0
 82167  1  0  0  0
 83 87  1  0  0  0
 83168  1  0  0  0
 83169  1  0  0  0
 84170  1  0  0  0
 84171  1  0  0  0
 85 86  1  0  0  0
M  ISO  4   1 100  68 101  84 101  87 100
M  END
> <chiral flag>
0

> <version>
0

> <s_m_source_file>
/data/baiqing/PycharmProjects/Reinvent-master-3.2/result/LINK_invent/BTK/process_docking_weight1_custom_sum_contain_oxygen_bond_distance_aromatic_linkinvent_7_9_3/rearranged_h_0051.sdf

> <i_m_source_file_index>
19

> <r_mmod_Potential_Energy-OPLS-2005>
127.115745544434

> <r_mmod_Stretch_Energy-OPLS-2005>
31.6913166046143

> <r_mmod_Bend_Energy-OPLS-2005>
84.5393218994141

> <r_mmod_Torsional_Energy-OPLS-2005>
332.800750732422

> <r_mmod_Improper_Torsional_Energy-OPLS-2005>
4.67378091812134

> <r_mmod_Van_der_Waal_Energy-OPLS-2005>
126.045928955078

> <r_mmod_Electrostatic_Energy-OPLS-2005>
-266.143371582031

> <r_mmod_Solvation_Energy-OPLS-2005>
-196.047119140625

> <b_mmod_Minimization_Converged-OPLS-2005>
0

> <r_mmod_RMS_Derivative-OPLS-2005>
2.95645427703857

$$$$
20
                    3D
 Structure written by MMmdl.
177185  0  0  1  0            999 V2000
  -30.9805  -14.0926   20.8517 C   0  0  0  0  0  0
  -30.3955  -12.2749   19.3365 C   0  0  0  0  0  0
  -29.4514  -12.5494   18.1635 C   0  0  0  0  0  0
  -27.9938  -12.3732   18.6047 C   0  0  0  0  0  0
  -27.6626  -13.2161   19.8578 C   0  0  2  0  0  0
  -28.7039  -13.0142   20.9773 C   0  0  0  0  0  0
  -25.2599  -13.8201   20.5668 C   0  0  0  0  0  0
  -24.1858  -13.0456   20.9183 C   0  0  0  0  0  0
  -24.6420  -11.6926   20.8710 C   0  0  0  0  0  0
  -23.9080  -10.4296   21.0382 C   0  0  0  0  0  0
  -24.3623   -9.4215   21.9170 C   0  0  0  0  0  0
  -23.6296   -8.2249   22.0745 C   0  0  0  0  0  0
  -22.4277   -8.0287   21.3544 C   0  0  0  0  0  0
  -21.9916   -9.0254   20.4642 C   0  0  0  0  0  0
  -22.7243  -10.2136   20.3047 C   0  0  0  0  0  0
  -21.6861   -6.0732   22.5272 C   0  0  0  0  0  0
  -21.4016   -6.5638   23.8205 C   0  0  0  0  0  0
  -21.3662   -5.6792   24.9173 C   0  0  0  0  0  0
  -21.6045   -4.3054   24.7223 C   0  0  0  0  0  0
  -21.8819   -3.8143   23.4342 C   0  0  0  0  0  0
  -21.9194   -4.6961   22.3397 C   0  0  0  0  0  0
  -22.7875  -13.5232   21.1852 C   0  0  0  0  0  0
  -22.1662   -4.2148   21.0975 F   0  0  0  0  0  0
  -21.5634   -3.4534   25.7736 F   0  0  0  0  0  0
  -30.0784  -13.1599   20.4627 N   0  0  0  0  0  0
  -26.3048  -12.9391   20.3314 N   0  0  0  0  0  0
  -25.9355  -11.6531   20.5729 N   0  0  0  0  0  0
  -22.0526  -12.8212   22.0409 N   0  0  0  0  0  0
  -25.4331  -15.1915   20.4106 N   0  0  0  0  0  0
  -31.5978  -14.7845   20.0321 O   0  0  0  0  0  0
  -21.6644   -6.8878   21.4237 O   0  0  0  0  0  0
  -22.3554  -14.5535   20.6716 O   0  0  0  0  0  0
  -24.6112  -31.8711   23.2126 C   0  0  0  0  0  0
  -25.9033  -32.4843   23.8406 C   0  0  1  0  0  0
  -27.2340  -27.4784   20.0811 C   0  0  0  0  0  0
  -25.5907  -33.8634   24.2354 N   0  0  0  0  0  0
  -23.3974  -30.4919   21.5528 C   0  0  2  0  0  0
  -24.8445  -28.9634   20.1133 C   0  0  0  0  0  0
  -22.7409  -29.4633   22.5004 C   0  0  0  0  0  0
  -18.0267  -28.1361   22.8474 C   0  0  0  0  0  0
  -24.1490  -36.7320   23.2637 C   0  0  0  0  0  0
  -25.9182  -30.8473   21.3586 C   0  0  0  0  0  0
  -25.9999  -29.4811   20.7137 C   0  0  0  0  0  0
  -27.2000  -28.7403   20.7072 C   0  0  0  0  0  0
  -26.0699  -26.9606   19.4812 C   0  0  0  0  0  0
  -24.8704  -27.6966   19.5004 C   0  0  0  0  0  0
  -23.6054  -29.8272   20.1643 C   0  0  0  0  0  0
  -25.4110  -36.3126   24.0331 C   0  0  1  0  0  0
  -20.5859  -28.3644   23.1321 C   0  0  2  0  0  0
  -20.6774  -26.9380   22.5412 C   0  0  0  0  0  0
  -19.5760  -26.6372   21.5194 C   0  0  0  0  0  0
  -18.1929  -26.7908   22.1598 C   0  0  0  0  0  0
  -19.1516  -28.8822   23.2894 C   0  0  0  0  0  0
  -18.9445  -30.1427   23.8917 C   0  0  0  0  0  0
  -17.6453  -30.6583   24.0540 C   0  0  0  0  0  0
  -25.9028  -34.9486   23.5140 C   0  0  0  0  0  0
  -16.5343  -29.9076   23.6315 C   0  0  0  0  0  0
  -16.7256  -28.6494   23.0325 C   0  0  0  0  0  0
  -26.4480  -31.6591   25.0708 C   0  0  0  0  0  0
  -25.3751  -31.3674   26.1464 C   0  0  0  0  0  0
  -27.0312  -30.3056   24.6005 C   0  0  0  0  0  0
  -27.6079  -32.4284   25.7472 C   0  0  0  0  0  0
  -27.5582  -37.1816   24.8466 C   0  0  0  0  0  0
  -21.4141  -29.3015   22.3751 N   0  0  0  0  0  0
  -26.4304  -37.3792   23.9398 N   0  0  0  0  0  0
  -24.6606  -31.0829   22.1007 N   0  0  0  0  0  0
  -23.4225  -28.8162   23.3006 O   0  0  0  0  0  0
  -28.3940  -26.7581   20.0113 O   0  0  0  0  0  0
  -26.5579  -34.8933   22.4696 O   0  0  0  0  0  0
  -23.5305  -32.1431   23.7519 O   0  0  0  0  0  0
  -29.3244  -16.0867   23.7817 C   0  0  0  0  0  0
  -30.6396  -15.6168   24.0508 C   0  0  0  0  0  0
  -31.4212  -16.7374   23.9565 C   0  0  0  0  0  0
  -32.8966  -16.9083   24.1341 C   0  0  0  0  0  0
  -34.3101  -12.5503   20.1221 C   0  0  0  0  0  0
  -31.0479  -14.2150   24.4157 C   0  0  0  0  0  0
  -33.6985  -12.4031   21.5205 C   0  0  0  0  0  0
  -29.9685  -22.3213   21.5095 C   0  0  0  0  0  0
  -30.4048  -21.4945   22.7237 C   0  0  0  0  0  0
  -29.6271  -23.7634   21.9077 C   0  0  0  0  0  0
  -30.3841  -19.9800   22.4764 C   0  0  0  0  0  0
  -29.1717  -24.6238   20.7235 C   0  0  0  0  0  0
  -30.8662  -19.2242   23.7253 C   0  0  0  0  0  0
  -30.9959  -13.2191   23.2430 C   0  0  0  0  0  0
  -33.0941  -13.7115   22.0762 C   0  0  0  0  0  0
  -28.6767  -26.0017   21.1772 C   0  0  0  0  0  0
  -29.2864  -17.3941   23.5944 N   0  0  0  0  0  0
  -30.5706  -17.8003   23.7142 N   0  0  0  0  0  0
  -31.6199  -13.7170   21.9982 N   0  0  0  0  0  0
  -31.4281  -12.3875   19.0039 H   0  0  0  0  0  0
  -30.3031  -11.2405   19.6672 H   0  0  0  0  0  0
  -29.6747  -11.8735   17.3369 H   0  0  0  0  0  0
  -29.6102  -13.5608   17.7863 H   0  0  0  0  0  0
  -27.8283  -11.3147   18.8085 H   0  0  0  0  0  0
  -27.3209  -12.6358   17.7878 H   0  0  0  0  0  0
  -27.7079  -14.2626   19.5554 H   0  0  0  0  0  0
  -28.6008  -12.0220   21.4192 H   0  0  0  0  0  0
  -28.4978  -13.7465   21.7602 H   0  0  0  0  0  0
  -25.2768   -9.5690   22.4742 H   0  0  0  0  0  0
  -24.0007   -7.4643   22.7464 H   0  0  0  0  0  0
  -21.0850   -8.8764   19.8944 H   0  0  0  0  0  0
  -22.3694  -10.9669   19.6152 H   0  0  0  0  0  0
  -21.2004   -7.6146   23.9711 H   0  0  0  0  0  0
  -21.1491   -6.0522   25.9078 H   0  0  0  0  0  0
  -22.0598   -2.7607   23.2841 H   0  0  0  0  0  0
  -22.4155  -11.9871   22.4768 H   0  0  0  0  0  0
  -21.1144  -13.1219   22.2619 H   0  0  0  0  0  0
  -24.6730  -15.8529   20.5289 H   0  0  0  0  0  0
  -26.2956  -15.6271   20.1062 H   0  0  0  0  0  0
  -26.7117  -32.5574   23.1185 H   0  0  0  0  0  0
  -25.0104  -33.9801   25.0528 H   0  0  0  0  0  0
  -22.6821  -31.3063   21.4182 H   0  0  0  0  0  0
  -23.3751  -35.9659   23.3310 H   0  0  0  0  0  0
  -24.3596  -36.8915   22.2056 H   0  0  0  0  0  0
  -23.7249  -37.6527   23.6645 H   0  0  0  0  0  0
  -26.0147  -31.6124   20.5868 H   0  0  0  0  0  0
  -26.8112  -30.9120   21.9664 H   0  0  0  0  0  0
  -28.0982  -29.1359   21.1620 H   0  0  0  0  0  0
  -26.0942  -25.9946   18.9970 H   0  0  0  0  0  0
  -23.9803  -27.2945   19.0376 H   0  0  0  0  0  0
  -23.7121  -30.6051   19.4071 H   0  0  0  0  0  0
  -22.7311  -29.2465   19.8673 H   0  0  0  0  0  0
  -25.1280  -36.2006   25.0818 H   0  0  0  0  0  0
  -20.9922  -28.3213   24.1451 H   0  0  0  0  0  0
  -20.5684  -26.2243   23.3600 H   0  0  0  0  0  0
  -21.6644  -26.7455   22.1190 H   0  0  0  0  0  0
  -19.6930  -25.6283   21.1219 H   0  0  0  0  0  0
  -19.6703  -27.3209   20.6749 H   0  0  0  0  0  0
  -17.4191  -26.6644   21.3994 H   0  0  0  0  0  0
  -18.0320  -26.0053   22.9002 H   0  0  0  0  0  0
  -19.7932  -30.7205   24.2306 H   0  0  0  0  0  0
  -17.5021  -31.6262   24.5154 H   0  0  0  0  0  0
  -15.5349  -30.2979   23.7635 H   0  0  0  0  0  0
  -15.8654  -28.0827   22.7020 H   0  0  0  0  0  0
  -24.5940  -30.7003   25.7796 H   0  0  0  0  0  0
  -24.8923  -32.2816   26.4927 H   0  0  0  0  0  0
  -25.8105  -30.8840   27.0217 H   0  0  0  0  0  0
  -26.2824  -29.6819   24.1109 H   0  0  0  0  0  0
  -27.4194  -29.7290   25.4411 H   0  0  0  0  0  0
  -27.8605  -30.4427   23.9062 H   0  0  0  0  0  0
  -27.2738  -33.3585   26.2083 H   0  0  0  0  0  0
  -28.3884  -32.6824   25.0288 H   0  0  0  0  0  0
  -28.0752  -31.8369   26.5353 H   0  0  0  0  0  0
  -28.2599  -38.0115   24.7513 H   0  0  0  0  0  0
  -28.1073  -36.2640   24.6292 H   0  0  0  0  0  0
  -27.2296  -37.1476   25.8869 H   0  0  0  0  0  0
  -20.9308  -29.8777   21.7004 H   0  0  0  0  0  0
  -26.0201  -38.2861   24.1417 H   0  0  0  0  0  0
  -28.4003  -15.5239   23.7589 H   0  0  0  0  0  0
  -33.4168  -15.9560   24.0590 H   0  0  0  0  0  0
  -33.1236  -17.3363   25.1108 H   0  0  0  0  0  0
  -33.3130  -17.5607   23.3659 H   0  0  0  0  0  0
  -34.6401  -11.5832   19.7421 H   0  0  0  0  0  0
  -35.1779  -13.2104   20.1404 H   0  0  0  0  0  0
  -33.6005  -12.9612   19.4068 H   0  0  0  0  0  0
  -30.4069  -13.8361   25.2125 H   0  0  0  0  0  0
  -32.0466  -14.2044   24.8522 H   0  0  0  0  0  0
  -34.4819  -12.0594   22.1985 H   0  0  0  0  0  0
  -32.9514  -11.6070   21.5183 H   0  0  0  0  0  0
  -29.0920  -21.8666   21.0458 H   0  0  0  0  0  0
  -30.7583  -22.3085   20.7564 H   0  0  0  0  0  0
  -29.7367  -21.7114   23.5588 H   0  0  0  0  0  0
  -31.4010  -21.8070   23.0423 H   0  0  0  0  0  0
  -30.4900  -24.2297   22.3848 H   0  0  0  0  0  0
  -28.8367  -23.7471   22.6607 H   0  0  0  0  0  0
  -31.0113  -19.7169   21.6226 H   0  0  0  0  0  0
  -29.3668  -19.6835   22.2198 H   0  0  0  0  0  0
  -29.9958  -24.7438   20.0186 H   0  0  0  0  0  0
  -28.3701  -24.1205   20.1790 H   0  0  0  0  0  0
  -30.3896  -19.6383   24.6142 H   0  0  0  0  0  0
  -31.9375  -19.3801   23.8572 H   0  0  0  0  0  0
  -29.9575  -12.9432   23.1122 H   0  0  0  0  0  0
  -31.4774  -12.2848   23.5347 H   0  0  0  0  0  0
  -33.5278  -14.5866   21.5881 H   0  0  0  0  0  0
  -33.4063  -13.8040   23.1154 H   0  0  0  0  0  0
  -29.4410  -26.5159   21.7614 H   0  0  0  0  0  0
  -27.8019  -25.8878   21.8240 H   0  0  0  0  0  0
  1 25  1  0  0  0
  1 30  2  0  0  0
  1 89  1  0  0  0
  2  3  1  0  0  0
  2 25  1  0  0  0
  2 90  1  0  0  0
  2 91  1  0  0  0
  3  4  1  0  0  0
  3 92  1  0  0  0
  3 93  1  0  0  0
  4  5  1  0  0  0
  4 94  1  0  0  0
  4 95  1  0  0  0
  5  6  1  0  0  0
  5 26  1  0  0  0
  5 96  1  0  0  0
  6 25  1  0  0  0
  6 97  1  0  0  0
  6 98  1  0  0  0
  7  8  2  0  0  0
  7 26  1  0  0  0
  7 29  1  0  0  0
  8  9  1  0  0  0
  8 22  1  0  0  0
  9 10  1  0  0  0
  9 27  2  0  0  0
 10 11  2  0  0  0
 10 15  1  0  0  0
 11 12  1  0  0  0
 11 99  1  0  0  0
 12 13  2  0  0  0
 12100  1  0  0  0
 13 14  1  0  0  0
 13 31  1  0  0  0
 14 15  2  0  0  0
 14101  1  0  0  0
 15102  1  0  0  0
 16 17  2  0  0  0
 16 21  1  0  0  0
 16 31  1  0  0  0
 17 18  1  0  0  0
 17103  1  0  0  0
 18 19  2  0  0  0
 18104  1  0  0  0
 19 20  1  0  0  0
 19 24  1  0  0  0
 20 21  2  0  0  0
 20105  1  0  0  0
 21 23  1  0  0  0
 22 28  1  0  0  0
 22 32  2  0  0  0
 26 27  1  0  0  0
 28106  1  0  0  0
 28107  1  0  0  0
 29108  1  0  0  0
 29109  1  0  0  0
 33 34  1  0  0  0
 33 66  1  0  0  0
 33 70  2  0  0  0
 34 36  1  0  0  0
 34 59  1  0  0  0
 34110  1  0  0  0
 35 44  2  0  0  0
 35 45  1  0  0  0
 35 68  1  0  0  0
 36 56  1  0  0  0
 36111  1  0  0  0
 37 39  1  0  0  0
 37 47  1  0  0  0
 37 66  1  0  0  0
 37112  1  0  0  0
 38 43  2  0  0  0
 38 46  1  0  0  0
 38 47  1  0  0  0
 39 64  1  0  0  0
 39 67  2  0  0  0
 40 52  1  0  0  0
 40 53  2  0  0  0
 40 58  1  0  0  0
 41113  1  0  0  0
 41114  1  0  0  0
 41115  1  0  0  0
 41 48  1  0  0  0
 42 43  1  0  0  0
 42 66  1  0  0  0
 42116  1  0  0  0
 42117  1  0  0  0
 43 44  1  0  0  0
 44118  1  0  0  0
 45 46  2  0  0  0
 45119  1  0  0  0
 46120  1  0  0  0
 47121  1  0  0  0
 47122  1  0  0  0
 48 56  1  0  0  0
 48 65  1  0  0  0
 48123  1  0  0  0
 49 50  1  0  0  0
 49 53  1  0  0  0
 49 64  1  0  0  0
 49124  1  0  0  0
 50 51  1  0  0  0
 50125  1  0  0  0
 50126  1  0  0  0
 51 52  1  0  0  0
 51127  1  0  0  0
 51128  1  0  0  0
 52129  1  0  0  0
 52130  1  0  0  0
 53 54  1  0  0  0
 54 55  2  0  0  0
 54131  1  0  0  0
 55 57  1  0  0  0
 55132  1  0  0  0
 56 69  2  0  0  0
 57 58  2  0  0  0
 57133  1  0  0  0
 58134  1  0  0  0
 59 60  1  0  0  0
 59 61  1  0  0  0
 59 62  1  0  0  0
 60135  1  0  0  0
 60136  1  0  0  0
 60137  1  0  0  0
 61138  1  0  0  0
 61139  1  0  0  0
 61140  1  0  0  0
 62141  1  0  0  0
 62142  1  0  0  0
 62143  1  0  0  0
 63 65  1  0  0  0
 63144  1  0  0  0
 63145  1  0  0  0
 63146  1  0  0  0
 64147  1  0  0  0
 65148  1  0  0  0
 68 86  1  0  0  0
 71 72  1  0  0  0
 71 87  2  0  0  0
 71149  1  0  0  0
 72 73  2  0  0  0
 72 76  1  0  0  0
 73 74  1  0  0  0
 73 88  1  0  0  0
 74150  1  0  0  0
 74151  1  0  0  0
 74152  1  0  0  0
 75 77  1  0  0  0
 75153  1  0  0  0
 75154  1  0  0  0
 75155  1  0  0  0
 76 84  1  0  0  0
 76156  1  0  0  0
 76157  1  0  0  0
 77 85  1  0  0  0
 77158  1  0  0  0
 77159  1  0  0  0
 78 79  1  0  0  0
 78 80  1  0  0  0
 78160  1  0  0  0
 78161  1  0  0  0
 79 81  1  0  0  0
 79162  1  0  0  0
 79163  1  0  0  0
 80 82  1  0  0  0
 80164  1  0  0  0
 80165  1  0  0  0
 81 83  1  0  0  0
 81166  1  0  0  0
 81167  1  0  0  0
 82 86  1  0  0  0
 82168  1  0  0  0
 82169  1  0  0  0
 83 88  1  0  0  0
 83170  1  0  0  0
 83171  1  0  0  0
 84 89  1  0  0  0
 84172  1  0  0  0
 84173  1  0  0  0
 85 89  1  0  0  0
 85174  1  0  0  0
 85175  1  0  0  0
 86176  1  0  0  0
 86177  1  0  0  0
 87 88  1  0  0  0
M  ISO  4   1 100  68 101  86 101  89 100
M  END
> <chiral flag>
0

> <version>
0

> <s_m_source_file>
/data/baiqing/PycharmProjects/Reinvent-master-3.2/result/LINK_invent/BTK/process_docking_weight1_custom_sum_contain_oxygen_bond_distance_aromatic_linkinvent_7_9_3/rearranged_h_0051.sdf

> <i_m_source_file_index>
20

> <r_mmod_Potential_Energy-OPLS-2005>
159.345092773438

> <r_mmod_Stretch_Energy-OPLS-2005>
32.818904876709

> <r_mmod_Bend_Energy-OPLS-2005>
91.1592712402344

> <r_mmod_Torsional_Energy-OPLS-2005>
352.746002197266

> <r_mmod_Improper_Torsional_Energy-OPLS-2005>
25.6577835083008

> <r_mmod_Van_der_Waal_Energy-OPLS-2005>
118.128456115723

> <r_mmod_Electrostatic_Energy-OPLS-2005>
-299.634674072266

> <r_mmod_Solvation_Energy-OPLS-2005>
-188.918182373047

> <b_mmod_Minimization_Converged-OPLS-2005>
0

> <r_mmod_RMS_Derivative-OPLS-2005>
2.64470338821411

$$$$
21
                    3D
 Structure written by MMmdl.
165173  0  0  1  0            999 V2000
  -30.7264  -14.5314   20.5193 C   0  0  0  0  0  0
  -30.4134  -12.3363   19.4193 C   0  0  0  0  0  0
  -29.4856  -12.4788   18.1975 C   0  0  0  0  0  0
  -28.0132  -12.2942   18.6177 C   0  0  0  0  0  0
  -27.6343  -13.1644   19.8410 C   0  0  2  0  0  0
  -28.6953  -13.0581   20.9677 C   0  0  0  0  0  0
  -25.2522  -13.7987   20.5616 C   0  0  0  0  0  0
  -24.1791  -13.0338   20.9206 C   0  0  0  0  0  0
  -24.6321  -11.6796   20.8784 C   0  0  0  0  0  0
  -23.8992  -10.4231   21.0445 C   0  0  0  0  0  0
  -24.3576   -9.4144   21.9194 C   0  0  0  0  0  0
  -23.6265   -8.2178   22.0752 C   0  0  0  0  0  0
  -22.4244   -8.0252   21.3543 C   0  0  0  0  0  0
  -21.9861   -9.0214   20.4639 C   0  0  0  0  0  0
  -22.7187  -10.2085   20.3059 C   0  0  0  0  0  0
  -21.6824   -6.0720   22.5288 C   0  0  0  0  0  0
  -21.3995   -6.5622   23.8223 C   0  0  0  0  0  0
  -21.3658   -5.6782   24.9191 C   0  0  0  0  0  0
  -21.6046   -4.3046   24.7230 C   0  0  0  0  0  0
  -21.8828   -3.8131   23.4355 C   0  0  0  0  0  0
  -21.9185   -4.6953   22.3411 C   0  0  0  0  0  0
  -22.7839  -13.5174   21.1892 C   0  0  0  0  0  0
  -22.1653   -4.2144   21.0989 F   0  0  0  0  0  0
  -21.5640   -3.4534   25.7737 F   0  0  0  0  0  0
  -30.0142  -13.3688   20.3923 N   0  0  0  0  0  0
  -26.2887  -12.9058   20.3262 N   0  0  0  0  0  0
  -25.9227  -11.6285   20.5825 N   0  0  0  0  0  0
  -22.0498  -12.8163   22.0452 N   0  0  0  0  0  0
  -25.4208  -15.1706   20.3929 N   0  0  0  0  0  0
  -31.9061  -14.5993   20.1637 O   0  0  0  0  0  0
  -21.6608   -6.8861   21.4246 O   0  0  0  0  0  0
  -22.3513  -14.5497   20.6766 O   0  0  0  0  0  0
  -24.6160  -31.8688   23.2108 C   0  0  0  0  0  0
  -25.9040  -32.4837   23.8413 C   0  0  1  0  0  0
  -27.2361  -27.4297   20.0933 C   0  0  0  0  0  0
  -25.5891  -33.8633   24.2345 N   0  0  0  0  0  0
  -23.4042  -30.4935   21.5527 C   0  0  2  0  0  0
  -24.8502  -28.9663   20.1160 C   0  0  0  0  0  0
  -22.7421  -29.4653   22.4990 C   0  0  0  0  0  0
  -18.0276  -28.1367   22.8507 C   0  0  0  0  0  0
  -24.1485  -36.7321   23.2640 C   0  0  0  0  0  0
  -25.9344  -30.8370   21.3617 C   0  0  0  0  0  0
  -26.0139  -29.4717   20.7085 C   0  0  0  0  0  0
  -27.2095  -28.7130   20.6923 C   0  0  0  0  0  0
  -26.0465  -26.9506   19.4884 C   0  0  0  0  0  0
  -24.8620  -27.7047   19.5045 C   0  0  0  0  0  0
  -23.6127  -29.8313   20.1665 C   0  0  0  0  0  0
  -25.4103  -36.3123   24.0346 C   0  0  1  0  0  0
  -20.5867  -28.3648   23.1324 C   0  0  2  0  0  0
  -20.6754  -26.9382   22.5422 C   0  0  0  0  0  0
  -19.5731  -26.6375   21.5219 C   0  0  0  0  0  0
  -18.1912  -26.7915   22.1634 C   0  0  0  0  0  0
  -19.1527  -28.8826   23.2914 C   0  0  0  0  0  0
  -18.9450  -30.1432   23.8925 C   0  0  0  0  0  0
  -17.6452  -30.6575   24.0562 C   0  0  0  0  0  0
  -25.9030  -34.9486   23.5144 C   0  0  0  0  0  0
  -16.5344  -29.9080   23.6318 C   0  0  0  0  0  0
  -16.7264  -28.6492   23.0350 C   0  0  0  0  0  0
  -26.4468  -31.6608   25.0732 C   0  0  0  0  0  0
  -25.3744  -31.3695   26.1487 C   0  0  0  0  0  0
  -27.0289  -30.3064   24.6067 C   0  0  0  0  0  0
  -27.6055  -32.4315   25.7485 C   0  0  0  0  0  0
  -27.5584  -37.1812   24.8467 C   0  0  0  0  0  0
  -21.4147  -29.3029   22.3747 N   0  0  0  0  0  0
  -26.4293  -37.3803   23.9417 N   0  0  0  0  0  0
  -24.6704  -31.0798   22.1008 N   0  0  0  0  0  0
  -23.4198  -28.8182   23.3016 O   0  0  0  0  0  0
  -28.3993  -26.6729   20.1247 O   0  0  0  0  0  0
  -26.5594  -34.8933   22.4706 O   0  0  0  0  0  0
  -23.5349  -32.1428   23.7506 O   0  0  0  0  0  0
  -31.6097  -20.6365   19.7739 C   0  0  0  0  0  0
  -30.2820  -20.9536   21.4846 C   0  0  0  0  0  0
  -31.2911  -20.1237   21.0649 C   0  0  0  0  0  0
  -27.3001  -18.0308   19.5812 C   0  0  0  0  0  0
  -31.9501  -18.9582   21.7851 C   0  0  0  0  0  0
  -28.6687  -17.6911   20.1832 C   0  0  0  0  0  0
  -31.7558  -17.5802   21.1041 C   0  0  0  0  0  0
  -29.4169  -24.3576   20.3715 C   0  0  0  0  0  0
  -28.9725  -22.8705   20.3847 C   0  0  0  0  0  0
  -28.8610  -16.1640   20.3541 C   0  0  0  0  0  0
  -30.7984  -16.6168   21.8582 C   0  0  0  0  0  0
  -28.2295  -25.2534   19.9511 C   0  0  0  0  0  0
  -30.8658  -21.6818   19.4330 N   0  0  0  0  0  0
  -30.0387  -21.8775   20.4824 N   0  0  0  0  0  0
  -30.0970  -15.6513   20.9899 N   0  0  0  0  0  0
  -31.4561  -12.4214   19.1071 H   0  0  0  0  0  0
  -30.3176  -11.3428   19.8582 H   0  0  0  0  0  0
  -29.7532  -11.7468   17.4336 H   0  0  0  0  0  0
  -29.6212  -13.4600   17.7387 H   0  0  0  0  0  0
  -27.8617  -11.2407   18.8517 H   0  0  0  0  0  0
  -27.3541  -12.5151   17.7769 H   0  0  0  0  0  0
  -27.5946  -14.1610   19.4329 H   0  0  0  0  0  0
  -28.7025  -12.0479   21.3797 H   0  0  0  0  0  0
  -28.4491  -13.7147   21.8021 H   0  0  0  0  0  0
  -25.2737   -9.5602   22.4743 H   0  0  0  0  0  0
  -23.9981   -7.4547   22.7449 H   0  0  0  0  0  0
  -21.0793   -8.8709   19.8945 H   0  0  0  0  0  0
  -22.3664  -10.9612   19.6149 H   0  0  0  0  0  0
  -21.1969   -7.6124   23.9721 H   0  0  0  0  0  0
  -21.1482   -6.0516   25.9100 H   0  0  0  0  0  0
  -22.0615   -2.7593   23.2855 H   0  0  0  0  0  0
  -22.4098  -11.9759   22.4732 H   0  0  0  0  0  0
  -21.1152  -13.1213   22.2772 H   0  0  0  0  0  0
  -24.6552  -15.8245   20.5114 H   0  0  0  0  0  0
  -26.2711  -15.6121   20.0705 H   0  0  0  0  0  0
  -26.7118  -32.5557   23.1189 H   0  0  0  0  0  0
  -25.0036  -33.9794   25.0488 H   0  0  0  0  0  0
  -22.6933  -31.3108   21.4150 H   0  0  0  0  0  0
  -23.3744  -35.9658   23.3314 H   0  0  0  0  0  0
  -24.3585  -36.8919   22.2053 H   0  0  0  0  0  0
  -23.7235  -37.6533   23.6639 H   0  0  0  0  0  0
  -26.0407  -31.6021   20.5912 H   0  0  0  0  0  0
  -26.8248  -30.8962   21.9748 H   0  0  0  0  0  0
  -28.1059  -29.1019   21.1563 H   0  0  0  0  0  0
  -26.0001  -25.9894   18.9985 H   0  0  0  0  0  0
  -23.9681  -27.3066   19.0445 H   0  0  0  0  0  0
  -23.7229  -30.6079   19.4089 H   0  0  0  0  0  0
  -22.7375  -29.2518   19.8671 H   0  0  0  0  0  0
  -25.1275  -36.1998   25.0840 H   0  0  0  0  0  0
  -20.9968  -28.3196   24.1439 H   0  0  0  0  0  0
  -20.5636  -26.2253   23.3606 H   0  0  0  0  0  0
  -21.6621  -26.7400   22.1221 H   0  0  0  0  0  0
  -19.6875  -25.6291   21.1231 H   0  0  0  0  0  0
  -19.6664  -27.3201   20.6762 H   0  0  0  0  0  0
  -17.4177  -26.6681   21.4034 H   0  0  0  0  0  0
  -18.0299  -26.0047   22.9019 H   0  0  0  0  0  0
  -19.7921  -30.7240   24.2310 H   0  0  0  0  0  0
  -17.5000  -31.6259   24.5151 H   0  0  0  0  0  0
  -15.5342  -30.2986   23.7615 H   0  0  0  0  0  0
  -15.8665  -28.0811   22.7053 H   0  0  0  0  0  0
  -24.5915  -30.7044   25.7822 H   0  0  0  0  0  0
  -24.8938  -32.2842   26.4968 H   0  0  0  0  0  0
  -25.8114  -30.8843   27.0225 H   0  0  0  0  0  0
  -26.2814  -29.6836   24.1137 H   0  0  0  0  0  0
  -27.4104  -29.7282   25.4490 H   0  0  0  0  0  0
  -27.8629  -30.4407   23.9175 H   0  0  0  0  0  0
  -27.2688  -33.3603   26.2100 H   0  0  0  0  0  0
  -28.3842  -32.6891   25.0295 H   0  0  0  0  0  0
  -28.0745  -31.8413   26.5366 H   0  0  0  0  0  0
  -28.2605  -38.0107   24.7523 H   0  0  0  0  0  0
  -28.1078  -36.2642   24.6281 H   0  0  0  0  0  0
  -27.2310  -37.1449   25.8872 H   0  0  0  0  0  0
  -20.9298  -29.8807   21.7025 H   0  0  0  0  0  0
  -26.0190  -38.2885   24.1419 H   0  0  0  0  0  0
  -32.3559  -20.2792   19.0772 H   0  0  0  0  0  0
  -29.7052  -20.9542   22.4007 H   0  0  0  0  0  0
  -27.2638  -19.0746   19.2720 H   0  0  0  0  0  0
  -26.5002  -17.8802   20.3074 H   0  0  0  0  0  0
  -27.0817  -17.4194   18.7038 H   0  0  0  0  0  0
  -31.6189  -18.9070   22.8220 H   0  0  0  0  0  0
  -33.0236  -19.1462   21.8486 H   0  0  0  0  0  0
  -28.7517  -18.2342   21.1244 H   0  0  0  0  0  0
  -29.4297  -18.0886   19.5125 H   0  0  0  0  0  0
  -32.7270  -17.0827   21.0547 H   0  0  0  0  0  0
  -31.4773  -17.7038   20.0577 H   0  0  0  0  0  0
  -30.2495  -24.5087   19.6843 H   0  0  0  0  0  0
  -29.7678  -24.6404   21.3646 H   0  0  0  0  0  0
  -28.4190  -22.6505   19.4695 H   0  0  0  0  0  0
  -28.2696  -22.7025   21.2028 H   0  0  0  0  0  0
  -28.8221  -15.7681   19.3380 H   0  0  0  0  0  0
  -28.0190  -15.7808   20.9266 H   0  0  0  0  0  0
  -31.3699  -16.0644   22.6080 H   0  0  0  0  0  0
  -30.0625  -17.1657   22.4455 H   0  0  0  0  0  0
  -27.3657  -24.9290   20.5354 H   0  0  0  0  0  0
  -28.0100  -25.0528   18.9020 H   0  0  0  0  0  0
  1 25  1  0  0  0
  1 30  2  0  0  0
  1 85  1  0  0  0
  2  3  1  0  0  0
  2 25  1  0  0  0
  2 86  1  0  0  0
  2 87  1  0  0  0
  3  4  1  0  0  0
  3 88  1  0  0  0
  3 89  1  0  0  0
  4  5  1  0  0  0
  4 90  1  0  0  0
  4 91  1  0  0  0
  5  6  1  0  0  0
  5 26  1  0  0  0
  5 92  1  0  0  0
  6 25  1  0  0  0
  6 93  1  0  0  0
  6 94  1  0  0  0
  7  8  2  0  0  0
  7 26  1  0  0  0
  7 29  1  0  0  0
  8  9  1  0  0  0
  8 22  1  0  0  0
  9 10  1  0  0  0
  9 27  2  0  0  0
 10 11  2  0  0  0
 10 15  1  0  0  0
 11 12  1  0  0  0
 11 95  1  0  0  0
 12 13  2  0  0  0
 12 96  1  0  0  0
 13 14  1  0  0  0
 13 31  1  0  0  0
 14 15  2  0  0  0
 14 97  1  0  0  0
 15 98  1  0  0  0
 16 17  2  0  0  0
 16 21  1  0  0  0
 16 31  1  0  0  0
 17 18  1  0  0  0
 17 99  1  0  0  0
 18 19  2  0  0  0
 18100  1  0  0  0
 19 20  1  0  0  0
 19 24  1  0  0  0
 20 21  2  0  0  0
 20101  1  0  0  0
 21 23  1  0  0  0
 22 28  1  0  0  0
 22 32  2  0  0  0
 26 27  1  0  0  0
 28102  1  0  0  0
 28103  1  0  0  0
 29104  1  0  0  0
 29105  1  0  0  0
 33 34  1  0  0  0
 33 66  1  0  0  0
 33 70  2  0  0  0
 34 36  1  0  0  0
 34 59  1  0  0  0
 34106  1  0  0  0
 35 44  2  0  0  0
 35 45  1  0  0  0
 35 68  1  0  0  0
 36 56  1  0  0  0
 36107  1  0  0  0
 37 39  1  0  0  0
 37 47  1  0  0  0
 37 66  1  0  0  0
 37108  1  0  0  0
 38 43  2  0  0  0
 38 46  1  0  0  0
 38 47  1  0  0  0
 39 64  1  0  0  0
 39 67  2  0  0  0
 40 52  1  0  0  0
 40 53  2  0  0  0
 40 58  1  0  0  0
 41109  1  0  0  0
 41110  1  0  0  0
 41111  1  0  0  0
 41 48  1  0  0  0
 42 43  1  0  0  0
 42 66  1  0  0  0
 42112  1  0  0  0
 42113  1  0  0  0
 43 44  1  0  0  0
 44114  1  0  0  0
 45 46  2  0  0  0
 45115  1  0  0  0
 46116  1  0  0  0
 47117  1  0  0  0
 47118  1  0  0  0
 48 56  1  0  0  0
 48 65  1  0  0  0
 48119  1  0  0  0
 49 50  1  0  0  0
 49 53  1  0  0  0
 49 64  1  0  0  0
 49120  1  0  0  0
 50 51  1  0  0  0
 50121  1  0  0  0
 50122  1  0  0  0
 51 52  1  0  0  0
 51123  1  0  0  0
 51124  1  0  0  0
 52125  1  0  0  0
 52126  1  0  0  0
 53 54  1  0  0  0
 54 55  2  0  0  0
 54127  1  0  0  0
 55 57  1  0  0  0
 55128  1  0  0  0
 56 69  2  0  0  0
 57 58  2  0  0  0
 57129  1  0  0  0
 58130  1  0  0  0
 59 60  1  0  0  0
 59 61  1  0  0  0
 59 62  1  0  0  0
 60131  1  0  0  0
 60132  1  0  0  0
 60133  1  0  0  0
 61134  1  0  0  0
 61135  1  0  0  0
 61136  1  0  0  0
 62137  1  0  0  0
 62138  1  0  0  0
 62139  1  0  0  0
 63 65  1  0  0  0
 63140  1  0  0  0
 63141  1  0  0  0
 63142  1  0  0  0
 64143  1  0  0  0
 65144  1  0  0  0
 68 82  1  0  0  0
 71 73  1  0  0  0
 71 83  2  0  0  0
 71145  1  0  0  0
 72 73  2  0  0  0
 72 84  1  0  0  0
 72146  1  0  0  0
 73 75  1  0  0  0
 74 76  1  0  0  0
 74147  1  0  0  0
 74148  1  0  0  0
 74149  1  0  0  0
 75 77  1  0  0  0
 75150  1  0  0  0
 75151  1  0  0  0
 76 80  1  0  0  0
 76152  1  0  0  0
 76153  1  0  0  0
 77 81  1  0  0  0
 77154  1  0  0  0
 77155  1  0  0  0
 78 79  1  0  0  0
 78 82  1  0  0  0
 78156  1  0  0  0
 78157  1  0  0  0
 79 84  1  0  0  0
 79158  1  0  0  0
 79159  1  0  0  0
 80 85  1  0  0  0
 80160  1  0  0  0
 80161  1  0  0  0
 81 85  1  0  0  0
 81162  1  0  0  0
 81163  1  0  0  0
 82164  1  0  0  0
 82165  1  0  0  0
 83 84  1  0  0  0
M  ISO  4   1 100  68 101  82 101  85 100
M  END
> <chiral flag>
0

> <version>
0

> <s_m_source_file>
/data/baiqing/PycharmProjects/Reinvent-master-3.2/result/LINK_invent/BTK/process_docking_weight1_custom_sum_contain_oxygen_bond_distance_aromatic_linkinvent_7_9_3/rearranged_h_0051.sdf

> <i_m_source_file_index>
21

> <r_mmod_Potential_Energy-OPLS-2005>
153.509048461914

> <r_mmod_Stretch_Energy-OPLS-2005>
41.0653305053711

> <r_mmod_Bend_Energy-OPLS-2005>
116.764945983887

> <r_mmod_Torsional_Energy-OPLS-2005>
316.220092773438

> <r_mmod_Improper_Torsional_Energy-OPLS-2005>
3.02810764312744

> <r_mmod_Van_der_Waal_Energy-OPLS-2005>
139.509857177734

> <r_mmod_Electrostatic_Energy-OPLS-2005>
-279.205963134766

> <r_mmod_Solvation_Energy-OPLS-2005>
-208.765777587891

> <b_mmod_Minimization_Converged-OPLS-2005>
0

> <r_mmod_RMS_Derivative-OPLS-2005>
2.47663021087646

$$$$
22
                    3D
 Structure written by MMmdl.
165173  0  0  1  0            999 V2000
  -30.5299  -14.9978   20.3616 C   0  0  0  0  0  0
  -30.4326  -12.6123   19.4866 C   0  0  0  0  0  0
  -29.5121  -12.5454   18.2455 C   0  0  0  0  0  0
  -28.0520  -12.3148   18.6744 C   0  0  0  0  0  0
  -27.6274  -13.2540   19.8328 C   0  0  2  0  0  0
  -28.6766  -13.3103   20.9656 C   0  0  0  0  0  0
  -25.2463  -13.8232   20.5694 C   0  0  0  0  0  0
  -24.1794  -13.0427   20.9226 C   0  0  0  0  0  0
  -24.6441  -11.6917   20.8788 C   0  0  0  0  0  0
  -23.9115  -10.4274   21.0432 C   0  0  0  0  0  0
  -24.3652   -9.4177   21.9194 C   0  0  0  0  0  0
  -23.6292   -8.2233   22.0773 C   0  0  0  0  0  0
  -22.4264   -8.0284   21.3567 C   0  0  0  0  0  0
  -21.9945   -9.0258   20.4653 C   0  0  0  0  0  0
  -22.7300  -10.2121   20.3053 C   0  0  0  0  0  0
  -21.6852   -6.0725   22.5275 C   0  0  0  0  0  0
  -21.4025   -6.5658   23.8200 C   0  0  0  0  0  0
  -21.3654   -5.6808   24.9161 C   0  0  0  0  0  0
  -21.6044   -4.3061   24.7236 C   0  0  0  0  0  0
  -21.8833   -3.8132   23.4362 C   0  0  0  0  0  0
  -21.9197   -4.6948   22.3414 C   0  0  0  0  0  0
  -22.7816  -13.5194   21.1841 C   0  0  0  0  0  0
  -22.1678   -4.2126   21.0991 F   0  0  0  0  0  0
  -21.5612   -3.4537   25.7749 F   0  0  0  0  0  0
  -29.9447  -13.7270   20.3540 N   0  0  0  0  0  0
  -26.2896  -12.9462   20.3249 N   0  0  0  0  0  0
  -25.9382  -11.6587   20.5801 N   0  0  0  0  0  0
  -22.0517  -12.8123   22.0388 N   0  0  0  0  0  0
  -25.4064  -15.1956   20.4045 N   0  0  0  0  0  0
  -31.7356  -15.0472   20.0985 O   0  0  0  0  0  0
  -21.6645   -6.8877   21.4253 O   0  0  0  0  0  0
  -22.3487  -14.5485   20.6681 O   0  0  0  0  0  0
  -24.6490  -31.8368   23.1874 C   0  0  0  0  0  0
  -25.9256  -32.4658   23.8241 C   0  0  1  0  0  0
  -27.2034  -27.0901   20.1469 C   0  0  0  0  0  0
  -25.5982  -33.8463   24.2137 N   0  0  0  0  0  0
  -23.4522  -30.4583   21.5366 C   0  0  2  0  0  0
  -24.8984  -28.8787   20.1137 C   0  0  0  0  0  0
  -22.7595  -29.4506   22.4878 C   0  0  0  0  0  0
  -18.0309  -28.1415   22.8462 C   0  0  0  0  0  0
  -24.1487  -36.7227   23.2647 C   0  0  0  0  0  0
  -26.0143  -30.6959   21.3919 C   0  0  0  0  0  0
  -26.0815  -29.3036   20.7326 C   0  0  0  0  0  0
  -27.2391  -28.4274   20.7305 C   0  0  0  0  0  0
  -25.9982  -26.7860   19.4801 C   0  0  0  0  0  0
  -24.8712  -27.6333   19.4707 C   0  0  0  0  0  0
  -23.6778  -29.7866   20.1571 C   0  0  0  0  0  0
  -25.4128  -36.2989   24.0296 C   0  0  1  0  0  0
  -20.5918  -28.3719   23.1255 C   0  0  2  0  0  0
  -20.6785  -26.9406   22.5452 C   0  0  0  0  0  0
  -19.5789  -26.6389   21.5223 C   0  0  0  0  0  0
  -18.1936  -26.7987   22.1562 C   0  0  0  0  0  0
  -19.1559  -28.8895   23.2845 C   0  0  0  0  0  0
  -18.9473  -30.1496   23.8844 C   0  0  0  0  0  0
  -17.6464  -30.6599   24.0581 C   0  0  0  0  0  0
  -25.9100  -34.9386   23.5023 C   0  0  0  0  0  0
  -16.5358  -29.9083   23.6364 C   0  0  0  0  0  0
  -16.7292  -28.6529   23.0343 C   0  0  0  0  0  0
  -26.4562  -31.6572   25.0718 C   0  0  0  0  0  0
  -25.3684  -31.3738   26.1352 C   0  0  0  0  0  0
  -27.0500  -30.2977   24.6371 C   0  0  0  0  0  0
  -27.6029  -32.4405   25.7507 C   0  0  0  0  0  0
  -27.5586  -37.1756   24.8433 C   0  0  0  0  0  0
  -21.4289  -29.3010   22.3606 N   0  0  0  0  0  0
  -26.4261  -37.3725   23.9434 N   0  0  0  0  0  0
  -24.7258  -31.0195   22.0924 N   0  0  0  0  0  0
  -23.4236  -28.8037   23.3022 O   0  0  0  0  0  0
  -28.2255  -26.0575   20.1575 O   0  0  0  0  0  0
  -26.5700  -34.8892   22.4618 O   0  0  0  0  0  0
  -23.5606  -32.1259   23.7092 O   0  0  0  0  0  0
  -28.5476  -21.8083   20.9226 C   0  0  0  0  0  0
  -28.5528  -23.1011   20.1987 C   0  0  0  0  0  0
  -29.0252  -20.6949   20.1691 C   0  0  0  0  0  0
  -27.5643  -18.5740   20.2171 C   0  0  0  0  0  0
  -29.1209  -18.9893   22.0838 C   0  0  0  0  0  0
  -28.9507  -19.7575   17.0907 C   0  0  0  0  0  0
  -31.2872  -20.3626   17.9008 C   0  0  0  0  0  0
  -29.9148  -21.9513   16.5634 C   0  0  0  0  0  0
  -27.8551  -24.5823   20.5643 C   0  0  0  0  0  0
  -30.0146  -17.7423   20.0950 C   0  0  0  0  0  0
  -28.9939  -19.0477   20.5483 C   0  0  0  0  0  0
  -29.8501  -20.8637   17.6702 C   0  0  0  0  0  0
  -29.0560  -22.7638   19.0130 N   0  0  0  0  0  0
  -29.3107  -21.3841   18.9543 N   0  0  0  0  0  0
  -29.7442  -16.1962   20.4322 N   0  0  0  0  0  0
  -31.4653  -12.7629   19.1693 H   0  0  0  0  0  0
  -30.4203  -11.6690   20.0337 H   0  0  0  0  0  0
  -29.8308  -11.7538   17.5667 H   0  0  0  0  0  0
  -29.5815  -13.4800   17.6857 H   0  0  0  0  0  0
  -27.9611  -11.2743   18.9911 H   0  0  0  0  0  0
  -27.3804  -12.4335   17.8212 H   0  0  0  0  0  0
  -27.5802  -14.2522   19.3960 H   0  0  0  0  0  0
  -28.7788  -12.3498   21.4727 H   0  0  0  0  0  0
  -28.3791  -14.0304   21.7278 H   0  0  0  0  0  0
  -25.2819   -9.5631   22.4765 H   0  0  0  0  0  0
  -23.9965   -7.4649   22.7532 H   0  0  0  0  0  0
  -21.0854   -8.8812   19.8966 H   0  0  0  0  0  0
  -22.3775  -10.9674   19.6152 H   0  0  0  0  0  0
  -21.2058   -7.6185   23.9668 H   0  0  0  0  0  0
  -21.1458   -6.0564   25.9052 H   0  0  0  0  0  0
  -22.0618   -2.7597   23.2864 H   0  0  0  0  0  0
  -22.4181  -11.9773   22.4699 H   0  0  0  0  0  0
  -21.1144  -13.1097   22.2657 H   0  0  0  0  0  0
  -24.6170  -15.8290   20.4685 H   0  0  0  0  0  0
  -26.2248  -15.6281   19.9964 H   0  0  0  0  0  0
  -26.7311  -32.5236   23.0953 H   0  0  0  0  0  0
  -25.0122  -33.9551   25.0281 H   0  0  0  0  0  0
  -22.7534  -31.2836   21.3844 H   0  0  0  0  0  0
  -23.3769  -35.9522   23.3209 H   0  0  0  0  0  0
  -24.3577  -36.9006   22.2082 H   0  0  0  0  0  0
  -23.7202  -37.6359   23.6795 H   0  0  0  0  0  0
  -26.1782  -31.4436   20.6157 H   0  0  0  0  0  0
  -26.8819  -30.7442   22.0390 H   0  0  0  0  0  0
  -28.1407  -28.7485   21.2333 H   0  0  0  0  0  0
  -25.8991  -25.8411   18.9652 H   0  0  0  0  0  0
  -23.9710  -27.3040   18.9706 H   0  0  0  0  0  0
  -23.8139  -30.5601   19.3992 H   0  0  0  0  0  0
  -22.7896  -29.2311   19.8528 H   0  0  0  0  0  0
  -25.1312  -36.1774   25.0772 H   0  0  0  0  0  0
  -20.9994  -28.3339   24.1393 H   0  0  0  0  0  0
  -20.5659  -26.2311   23.3670 H   0  0  0  0  0  0
  -21.6655  -26.7416   22.1270 H   0  0  0  0  0  0
  -19.6927  -25.6295   21.1264 H   0  0  0  0  0  0
  -19.6789  -27.3188   20.6740 H   0  0  0  0  0  0
  -17.4267  -26.6842   21.3894 H   0  0  0  0  0  0
  -18.0213  -26.0101   22.8894 H   0  0  0  0  0  0
  -19.7934  -30.7343   24.2165 H   0  0  0  0  0  0
  -17.5013  -31.6263   24.5223 H   0  0  0  0  0  0
  -15.5351  -30.2960   23.7738 H   0  0  0  0  0  0
  -15.8700  -28.0861   22.7020 H   0  0  0  0  0  0
  -24.6139  -30.6731   25.7761 H   0  0  0  0  0  0
  -24.8499  -32.2835   26.4369 H   0  0  0  0  0  0
  -25.7976  -30.9362   27.0364 H   0  0  0  0  0  0
  -26.3188  -29.6635   24.1344 H   0  0  0  0  0  0
  -27.4071  -29.7356   25.5008 H   0  0  0  0  0  0
  -27.9088  -30.4244   23.9771 H   0  0  0  0  0  0
  -27.2590  -33.3774   26.1895 H   0  0  0  0  0  0
  -28.3912  -32.6857   25.0380 H   0  0  0  0  0  0
  -28.0602  -31.8648   26.5563 H   0  0  0  0  0  0
  -28.2506  -38.0143   24.7589 H   0  0  0  0  0  0
  -28.1174  -36.2682   24.6110 H   0  0  0  0  0  0
  -27.2331  -37.1220   25.8830 H   0  0  0  0  0  0
  -20.9502  -29.8725   21.6783 H   0  0  0  0  0  0
  -26.0104  -38.2751   24.1535 H   0  0  0  0  0  0
  -28.1394  -21.7025   21.9173 H   0  0  0  0  0  0
  -26.8199  -19.1826   20.7330 H   0  0  0  0  0  0
  -27.3882  -17.5410   20.5089 H   0  0  0  0  0  0
  -27.3442  -18.6482   19.1550 H   0  0  0  0  0  0
  -28.3132  -19.5159   22.5891 H   0  0  0  0  0  0
  -30.0592  -19.4416   22.4053 H   0  0  0  0  0  0
  -29.1158  -17.9694   22.4644 H   0  0  0  0  0  0
  -29.2823  -19.4555   16.0974 H   0  0  0  0  0  0
  -27.9183  -20.0981   16.9952 H   0  0  0  0  0  0
  -28.9385  -18.8573   17.6872 H   0  0  0  0  0  0
  -31.7076  -19.9104   17.0036 H   0  0  0  0  0  0
  -31.3437  -19.6255   18.6960 H   0  0  0  0  0  0
  -31.9438  -21.1822   18.1900 H   0  0  0  0  0  0
  -30.3494  -21.5567   15.6436 H   0  0  0  0  0  0
  -30.5246  -22.8075   16.8527 H   0  0  0  0  0  0
  -28.9197  -22.3226   16.3070 H   0  0  0  0  0  0
  -27.8615  -24.6396   21.6515 H   0  0  0  0  0  0
  -26.7962  -24.4498   20.3579 H   0  0  0  0  0  0
  -31.0167  -17.9605   20.4677 H   0  0  0  0  0  0
  -30.1296  -17.7439   19.0165 H   0  0  0  0  0  0
  -28.7747  -16.0056   20.6343 H   0  0  0  0  0  0
  1 25  1  0  0  0
  1 30  2  0  0  0
  1 85  1  0  0  0
  2  3  1  0  0  0
  2 25  1  0  0  0
  2 86  1  0  0  0
  2 87  1  0  0  0
  3  4  1  0  0  0
  3 88  1  0  0  0
  3 89  1  0  0  0
  4  5  1  0  0  0
  4 90  1  0  0  0
  4 91  1  0  0  0
  5  6  1  0  0  0
  5 26  1  0  0  0
  5 92  1  0  0  0
  6 25  1  0  0  0
  6 93  1  0  0  0
  6 94  1  0  0  0
  7  8  2  0  0  0
  7 26  1  0  0  0
  7 29  1  0  0  0
  8  9  1  0  0  0
  8 22  1  0  0  0
  9 10  1  0  0  0
  9 27  2  0  0  0
 10 11  2  0  0  0
 10 15  1  0  0  0
 11 12  1  0  0  0
 11 95  1  0  0  0
 12 13  2  0  0  0
 12 96  1  0  0  0
 13 14  1  0  0  0
 13 31  1  0  0  0
 14 15  2  0  0  0
 14 97  1  0  0  0
 15 98  1  0  0  0
 16 17  2  0  0  0
 16 21  1  0  0  0
 16 31  1  0  0  0
 17 18  1  0  0  0
 17 99  1  0  0  0
 18 19  2  0  0  0
 18100  1  0  0  0
 19 20  1  0  0  0
 19 24  1  0  0  0
 20 21  2  0  0  0
 20101  1  0  0  0
 21 23  1  0  0  0
 22 28  1  0  0  0
 22 32  2  0  0  0
 26 27  1  0  0  0
 28102  1  0  0  0
 28103  1  0  0  0
 29104  1  0  0  0
 29105  1  0  0  0
 33 34  1  0  0  0
 33 66  1  0  0  0
 33 70  2  0  0  0
 34 36  1  0  0  0
 34 59  1  0  0  0
 34106  1  0  0  0
 35 44  2  0  0  0
 35 45  1  0  0  0
 35 68  1  0  0  0
 36 56  1  0  0  0
 36107  1  0  0  0
 37 39  1  0  0  0
 37 47  1  0  0  0
 37 66  1  0  0  0
 37108  1  0  0  0
 38 43  2  0  0  0
 38 46  1  0  0  0
 38 47  1  0  0  0
 39 64  1  0  0  0
 39 67  2  0  0  0
 40 52  1  0  0  0
 40 53  2  0  0  0
 40 58  1  0  0  0
 41109  1  0  0  0
 41110  1  0  0  0
 41111  1  0  0  0
 41 48  1  0  0  0
 42 43  1  0  0  0
 42 66  1  0  0  0
 42112  1  0  0  0
 42113  1  0  0  0
 43 44  1  0  0  0
 44114  1  0  0  0
 45 46  2  0  0  0
 45115  1  0  0  0
 46116  1  0  0  0
 47117  1  0  0  0
 47118  1  0  0  0
 48 56  1  0  0  0
 48 65  1  0  0  0
 48119  1  0  0  0
 49 50  1  0  0  0
 49 53  1  0  0  0
 49 64  1  0  0  0
 49120  1  0  0  0
 50 51  1  0  0  0
 50121  1  0  0  0
 50122  1  0  0  0
 51 52  1  0  0  0
 51123  1  0  0  0
 51124  1  0  0  0
 52125  1  0  0  0
 52126  1  0  0  0
 53 54  1  0  0  0
 54 55  2  0  0  0
 54127  1  0  0  0
 55 57  1  0  0  0
 55128  1  0  0  0
 56 69  2  0  0  0
 57 58  2  0  0  0
 57129  1  0  0  0
 58130  1  0  0  0
 59 60  1  0  0  0
 59 61  1  0  0  0
 59 62  1  0  0  0
 60131  1  0  0  0
 60132  1  0  0  0
 60133  1  0  0  0
 61134  1  0  0  0
 61135  1  0  0  0
 61136  1  0  0  0
 62137  1  0  0  0
 62138  1  0  0  0
 62139  1  0  0  0
 63 65  1  0  0  0
 63140  1  0  0  0
 63141  1  0  0  0
 63142  1  0  0  0
 64143  1  0  0  0
 65144  1  0  0  0
 68 79  1  0  0  0
 71 72  1  0  0  0
 71 73  2  0  0  0
 71145  1  0  0  0
 72 79  1  0  0  0
 72 83  2  0  0  0
 73 81  1  0  0  0
 73 84  1  0  0  0
 74146  1  0  0  0
 74147  1  0  0  0
 74148  1  0  0  0
 74 81  1  0  0  0
 75 81  1  0  0  0
 75149  1  0  0  0
 75150  1  0  0  0
 75151  1  0  0  0
 76152  1  0  0  0
 76153  1  0  0  0
 76154  1  0  0  0
 76 82  1  0  0  0
 77 82  1  0  0  0
 77155  1  0  0  0
 77156  1  0  0  0
 77157  1  0  0  0
 78 82  1  0  0  0
 78158  1  0  0  0
 78159  1  0  0  0
 78160  1  0  0  0
 79161  1  0  0  0
 79162  1  0  0  0
 80 81  1  0  0  0
 80 85  1  0  0  0
 80163  1  0  0  0
 80164  1  0  0  0
 82 84  1  0  0  0
 83 84  1  0  0  0
 85165  1  0  0  0
M  ISO  4   1 100  68 101  79 101  85 100
M  END
> <chiral flag>
0

> <version>
0

> <s_m_source_file>
/data/baiqing/PycharmProjects/Reinvent-master-3.2/result/LINK_invent/BTK/process_docking_weight1_custom_sum_contain_oxygen_bond_distance_aromatic_linkinvent_7_9_3/rearranged_h_0051.sdf

> <i_m_source_file_index>
22

> <r_mmod_Potential_Energy-OPLS-2005>
645.538818359375

> <r_mmod_Stretch_Energy-OPLS-2005>
318.913299560547

> <r_mmod_Bend_Energy-OPLS-2005>
327.415374755859

> <r_mmod_Torsional_Energy-OPLS-2005>
280.349731445312

> <r_mmod_Improper_Torsional_Energy-OPLS-2005>
7.68845796585083

> <r_mmod_Van_der_Waal_Energy-OPLS-2005>
119.602554321289

> <r_mmod_Electrostatic_Energy-OPLS-2005>
-426.653839111328

> <r_mmod_Solvation_Energy-OPLS-2005>
-215.571792602539

> <b_mmod_Minimization_Converged-OPLS-2005>
0

> <r_mmod_RMS_Derivative-OPLS-2005>
3.74101448059082

$$$$
23
                    3D
 Structure written by MMmdl.
154162  0  0  1  0            999 V2000
  -30.7177  -14.5683   20.5289 C   0  0  0  0  0  0
  -30.4113  -12.3652   19.4350 C   0  0  0  0  0  0
  -29.4872  -12.5073   18.2082 C   0  0  0  0  0  0
  -28.0071  -12.3747   18.6169 C   0  0  0  0  0  0
  -27.6484  -13.2294   19.8631 C   0  0  2  0  0  0
  -28.6975  -13.0774   20.9854 C   0  0  0  0  0  0
  -25.2500  -13.8172   20.5717 C   0  0  0  0  0  0
  -24.1796  -13.0420   20.9178 C   0  0  0  0  0  0
  -24.6380  -11.6887   20.8731 C   0  0  0  0  0  0
  -23.9046  -10.4262   21.0387 C   0  0  0  0  0  0
  -24.3585   -9.4181   21.9174 C   0  0  0  0  0  0
  -23.6259   -8.2220   22.0741 C   0  0  0  0  0  0
  -22.4245   -8.0252   21.3530 C   0  0  0  0  0  0
  -21.9885   -9.0226   20.4635 C   0  0  0  0  0  0
  -22.7205  -10.2108   20.3053 C   0  0  0  0  0  0
  -21.6836   -6.0704   22.5252 C   0  0  0  0  0  0
  -21.3996   -6.5622   23.8183 C   0  0  0  0  0  0
  -21.3677   -5.6789   24.9163 C   0  0  0  0  0  0
  -21.6057   -4.3046   24.7215 C   0  0  0  0  0  0
  -21.8820   -3.8126   23.4338 C   0  0  0  0  0  0
  -21.9177   -4.6931   22.3389 C   0  0  0  0  0  0
  -22.7797  -13.5175   21.1853 C   0  0  0  0  0  0
  -22.1648   -4.2115   21.0968 F   0  0  0  0  0  0
  -21.5652   -3.4546   25.7734 F   0  0  0  0  0  0
  -30.0143  -13.3958   20.4161 N   0  0  0  0  0  0
  -26.2970  -12.9410   20.3355 N   0  0  0  0  0  0
  -25.9321  -11.6533   20.5743 N   0  0  0  0  0  0
  -22.0472  -12.8186   22.0429 N   0  0  0  0  0  0
  -25.4208  -15.1906   20.4183 N   0  0  0  0  0  0
  -31.8677  -14.6537   20.0873 O   0  0  0  0  0  0
  -21.6619   -6.8843   21.4210 O   0  0  0  0  0  0
  -22.3469  -14.5472   20.6673 O   0  0  0  0  0  0
  -24.6256  -31.8653   23.2086 C   0  0  0  0  0  0
  -25.9130  -32.4798   23.8401 C   0  0  1  0  0  0
  -27.2134  -27.3344   20.1260 C   0  0  0  0  0  0
  -25.5896  -33.8584   24.2293 N   0  0  0  0  0  0
  -23.4158  -30.4962   21.5523 C   0  0  2  0  0  0
  -24.8605  -28.9641   20.1125 C   0  0  0  0  0  0
  -22.7462  -29.4662   22.4941 C   0  0  0  0  0  0
  -18.0270  -28.1404   22.8488 C   0  0  0  0  0  0
  -24.1471  -36.7289   23.2631 C   0  0  0  0  0  0
  -25.9600  -30.8074   21.3780 C   0  0  0  0  0  0
  -26.0348  -29.4396   20.7105 C   0  0  0  0  0  0
  -27.2173  -28.6413   20.7006 C   0  0  0  0  0  0
  -26.0134  -26.9164   19.5002 C   0  0  0  0  0  0
  -24.8514  -27.7047   19.4990 C   0  0  0  0  0  0
  -23.6325  -29.8483   20.1622 C   0  0  0  0  0  0
  -25.4105  -36.3075   24.0305 C   0  0  1  0  0  0
  -20.5870  -28.3728   23.1248 C   0  0  2  0  0  0
  -20.6776  -26.9446   22.5399 C   0  0  0  0  0  0
  -19.5753  -26.6379   21.5222 C   0  0  0  0  0  0
  -18.1922  -26.7943   22.1624 C   0  0  0  0  0  0
  -19.1523  -28.8876   23.2868 C   0  0  0  0  0  0
  -18.9476  -30.1466   23.8916 C   0  0  0  0  0  0
  -17.6483  -30.6623   24.0565 C   0  0  0  0  0  0
  -25.9037  -34.9445   23.5106 C   0  0  0  0  0  0
  -16.5372  -29.9138   23.6320 C   0  0  0  0  0  0
  -16.7257  -28.6523   23.0384 C   0  0  0  0  0  0
  -26.4485  -31.6618   25.0782 C   0  0  0  0  0  0
  -25.3638  -31.3844   26.1450 C   0  0  0  0  0  0
  -27.0334  -30.3005   24.6315 C   0  0  0  0  0  0
  -27.6055  -32.4353   25.7545 C   0  0  0  0  0  0
  -27.5580  -37.1772   24.8465 C   0  0  0  0  0  0
  -21.4181  -29.3069   22.3658 N   0  0  0  0  0  0
  -26.4300  -37.3751   23.9399 N   0  0  0  0  0  0
  -24.6857  -31.0691   22.1033 N   0  0  0  0  0  0
  -23.4178  -28.8196   23.3016 O   0  0  0  0  0  0
  -28.3141  -26.4605   20.2101 O   0  0  0  0  0  0
  -26.5649  -34.8912   22.4696 O   0  0  0  0  0  0
  -23.5420  -32.1442   23.7423 O   0  0  0  0  0  0
  -28.2899  -19.9645   21.0719 C   0  0  0  0  0  0
  -30.5618  -19.4738   19.7375 C   0  0  0  0  0  0
  -28.9976  -21.0448   20.4626 C   0  0  0  0  0  0
  -29.8311  -18.3880   20.3064 C   0  0  0  0  0  0
  -29.8236  -15.9954   22.2713 C   0  0  0  0  0  0
  -28.3002  -22.4288   20.2478 C   0  0  0  0  0  0
  -30.1936  -16.9110   19.9298 C   0  0  0  0  0  0
  -28.9914  -23.8396   20.4903 C   0  0  0  0  0  0
  -27.9914  -25.0194   20.1388 C   0  0  0  0  0  0
  -30.1539  -20.7792   19.7991 N   0  0  0  0  0  0
  -28.6885  -18.6577   20.9912 N   0  0  0  0  0  0
  -30.0352  -15.7172   20.8456 N   0  0  0  0  0  0
  -31.4529  -12.4544   19.1237 H   0  0  0  0  0  0
  -30.3229  -11.3700   19.8704 H   0  0  0  0  0  0
  -29.7315  -11.7521   17.4602 H   0  0  0  0  0  0
  -29.6542  -13.4737   17.7293 H   0  0  0  0  0  0
  -27.8084  -11.3194   18.8107 H   0  0  0  0  0  0
  -27.3649  -12.6565   17.7806 H   0  0  0  0  0  0
  -27.6678  -14.2708   19.5386 H   0  0  0  0  0  0
  -28.6954  -12.0608   21.3812 H   0  0  0  0  0  0
  -28.4454  -13.7241   21.8236 H   0  0  0  0  0  0
  -25.2720   -9.5650   22.4762 H   0  0  0  0  0  0
  -23.9953   -7.4606   22.7468 H   0  0  0  0  0  0
  -21.0816   -8.8733   19.8939 H   0  0  0  0  0  0
  -22.3639  -10.9648   19.6173 H   0  0  0  0  0  0
  -21.1978   -7.6128   23.9660 H   0  0  0  0  0  0
  -21.1524   -6.0538   25.9064 H   0  0  0  0  0  0
  -22.0592   -2.7582   23.2850 H   0  0  0  0  0  0
  -22.4097  -11.9858   22.4843 H   0  0  0  0  0  0
  -21.1080  -13.1182   22.2624 H   0  0  0  0  0  0
  -24.6585  -15.8475   20.5462 H   0  0  0  0  0  0
  -26.2901  -15.6386   20.1594 H   0  0  0  0  0  0
  -26.7224  -32.5488   23.1187 H   0  0  0  0  0  0
  -24.9904  -33.9688   25.0348 H   0  0  0  0  0  0
  -22.7082  -31.3176   21.4186 H   0  0  0  0  0  0
  -23.3722  -35.9635   23.3284 H   0  0  0  0  0  0
  -24.3549  -36.8917   22.2048 H   0  0  0  0  0  0
  -23.7237  -37.6467   23.6695 H   0  0  0  0  0  0
  -26.0885  -31.5860   20.6235 H   0  0  0  0  0  0
  -26.8374  -30.8445   22.0125 H   0  0  0  0  0  0
  -28.1221  -29.0078   21.1655 H   0  0  0  0  0  0
  -25.9230  -25.9544   19.0208 H   0  0  0  0  0  0
  -23.9515  -27.3233   19.0364 H   0  0  0  0  0  0
  -23.7558  -30.6353   19.4147 H   0  0  0  0  0  0
  -22.7506  -29.2853   19.8547 H   0  0  0  0  0  0
  -25.1274  -36.1925   25.0792 H   0  0  0  0  0  0
  -20.9958  -28.3361   24.1371 H   0  0  0  0  0  0
  -20.5723  -26.2357   23.3629 H   0  0  0  0  0  0
  -21.6654  -26.7500   22.1195 H   0  0  0  0  0  0
  -19.6919  -25.6279   21.1290 H   0  0  0  0  0  0
  -19.6687  -27.3178   20.6744 H   0  0  0  0  0  0
  -17.4188  -26.6679   21.4040 H   0  0  0  0  0  0
  -18.0316  -26.0114   22.9052 H   0  0  0  0  0  0
  -19.7975  -30.7229   24.2340 H   0  0  0  0  0  0
  -17.5065  -31.6308   24.5178 H   0  0  0  0  0  0
  -15.5384  -30.3081   23.7596 H   0  0  0  0  0  0
  -15.8642  -28.0831   22.7156 H   0  0  0  0  0  0
  -24.5901  -30.7079   25.7779 H   0  0  0  0  0  0
  -24.8727  -32.3046   26.4645 H   0  0  0  0  0  0
  -25.7867  -30.9214   27.0379 H   0  0  0  0  0  0
  -26.2963  -29.6720   24.1302 H   0  0  0  0  0  0
  -27.3900  -29.7291   25.4894 H   0  0  0  0  0  0
  -27.8888  -30.4176   23.9658 H   0  0  0  0  0  0
  -27.2727  -33.3777   26.1928 H   0  0  0  0  0  0
  -28.3993  -32.6678   25.0424 H   0  0  0  0  0  0
  -28.0575  -31.8573   26.5611 H   0  0  0  0  0  0
  -28.2573  -38.0086   24.7489 H   0  0  0  0  0  0
  -28.1079  -36.2584   24.6341 H   0  0  0  0  0  0
  -27.2255  -37.1470   25.8852 H   0  0  0  0  0  0
  -20.9405  -29.8760   21.6825 H   0  0  0  0  0  0
  -26.0168  -38.2805   24.1449 H   0  0  0  0  0  0
  -27.3298  -20.1283   21.5413 H   0  0  0  0  0  0
  -31.4479  -19.2860   19.1472 H   0  0  0  0  0  0
  -28.8460  -16.4418   22.4544 H   0  0  0  0  0  0
  -30.5924  -16.6710   22.6481 H   0  0  0  0  0  0
  -29.8751  -15.0951   22.8850 H   0  0  0  0  0  0
  -27.4022  -22.4137   20.8650 H   0  0  0  0  0  0
  -27.9280  -22.4013   19.2232 H   0  0  0  0  0  0
  -31.2146  -16.9467   19.5443 H   0  0  0  0  0  0
  -29.5936  -16.6879   19.0454 H   0  0  0  0  0  0
  -29.8880  -23.9305   19.8768 H   0  0  0  0  0  0
  -29.3178  -23.9163   21.5289 H   0  0  0  0  0  0
  -27.6872  -24.8306   19.1111 H   0  0  0  0  0  0
  -27.1110  -24.8514   20.7638 H   0  0  0  0  0  0
  1 25  1  0  0  0
  1 30  2  0  0  0
  1 82  1  0  0  0
  2  3  1  0  0  0
  2 25  1  0  0  0
  2 83  1  0  0  0
  2 84  1  0  0  0
  3  4  1  0  0  0
  3 85  1  0  0  0
  3 86  1  0  0  0
  4  5  1  0  0  0
  4 87  1  0  0  0
  4 88  1  0  0  0
  5  6  1  0  0  0
  5 26  1  0  0  0
  5 89  1  0  0  0
  6 25  1  0  0  0
  6 90  1  0  0  0
  6 91  1  0  0  0
  7  8  2  0  0  0
  7 26  1  0  0  0
  7 29  1  0  0  0
  8  9  1  0  0  0
  8 22  1  0  0  0
  9 10  1  0  0  0
  9 27  2  0  0  0
 10 11  2  0  0  0
 10 15  1  0  0  0
 11 12  1  0  0  0
 11 92  1  0  0  0
 12 13  2  0  0  0
 12 93  1  0  0  0
 13 14  1  0  0  0
 13 31  1  0  0  0
 14 15  2  0  0  0
 14 94  1  0  0  0
 15 95  1  0  0  0
 16 17  2  0  0  0
 16 21  1  0  0  0
 16 31  1  0  0  0
 17 18  1  0  0  0
 17 96  1  0  0  0
 18 19  2  0  0  0
 18 97  1  0  0  0
 19 20  1  0  0  0
 19 24  1  0  0  0
 20 21  2  0  0  0
 20 98  1  0  0  0
 21 23  1  0  0  0
 22 28  1  0  0  0
 22 32  2  0  0  0
 26 27  1  0  0  0
 28 99  1  0  0  0
 28100  1  0  0  0
 29101  1  0  0  0
 29102  1  0  0  0
 33 34  1  0  0  0
 33 66  1  0  0  0
 33 70  2  0  0  0
 34 36  1  0  0  0
 34 59  1  0  0  0
 34103  1  0  0  0
 35 44  2  0  0  0
 35 45  1  0  0  0
 35 68  1  0  0  0
 36 56  1  0  0  0
 36104  1  0  0  0
 37 39  1  0  0  0
 37 47  1  0  0  0
 37 66  1  0  0  0
 37105  1  0  0  0
 38 43  2  0  0  0
 38 46  1  0  0  0
 38 47  1  0  0  0
 39 64  1  0  0  0
 39 67  2  0  0  0
 40 52  1  0  0  0
 40 53  2  0  0  0
 40 58  1  0  0  0
 41106  1  0  0  0
 41107  1  0  0  0
 41108  1  0  0  0
 41 48  1  0  0  0
 42 43  1  0  0  0
 42 66  1  0  0  0
 42109  1  0  0  0
 42110  1  0  0  0
 43 44  1  0  0  0
 44111  1  0  0  0
 45 46  2  0  0  0
 45112  1  0  0  0
 46113  1  0  0  0
 47114  1  0  0  0
 47115  1  0  0  0
 48 56  1  0  0  0
 48 65  1  0  0  0
 48116  1  0  0  0
 49 50  1  0  0  0
 49 53  1  0  0  0
 49 64  1  0  0  0
 49117  1  0  0  0
 50 51  1  0  0  0
 50118  1  0  0  0
 50119  1  0  0  0
 51 52  1  0  0  0
 51120  1  0  0  0
 51121  1  0  0  0
 52122  1  0  0  0
 52123  1  0  0  0
 53 54  1  0  0  0
 54 55  2  0  0  0
 54124  1  0  0  0
 55 57  1  0  0  0
 55125  1  0  0  0
 56 69  2  0  0  0
 57 58  2  0  0  0
 57126  1  0  0  0
 58127  1  0  0  0
 59 60  1  0  0  0
 59 61  1  0  0  0
 59 62  1  0  0  0
 60128  1  0  0  0
 60129  1  0  0  0
 60130  1  0  0  0
 61131  1  0  0  0
 61132  1  0  0  0
 61133  1  0  0  0
 62134  1  0  0  0
 62135  1  0  0  0
 62136  1  0  0  0
 63 65  1  0  0  0
 63137  1  0  0  0
 63138  1  0  0  0
 63139  1  0  0  0
 64140  1  0  0  0
 65141  1  0  0  0
 68 79  1  0  0  0
 71 73  2  0  0  0
 71 81  1  0  0  0
 71142  1  0  0  0
 72 74  1  0  0  0
 72 80  2  0  0  0
 72143  1  0  0  0
 73 76  1  0  0  0
 73 80  1  0  0  0
 74 77  1  0  0  0
 74 81  2  0  0  0
 75 82  1  0  0  0
 75144  1  0  0  0
 75145  1  0  0  0
 75146  1  0  0  0
 76 78  1  0  0  0
 76147  1  0  0  0
 76148  1  0  0  0
 77 82  1  0  0  0
 77149  1  0  0  0
 77150  1  0  0  0
 78 79  1  0  0  0
 78151  1  0  0  0
 78152  1  0  0  0
 79153  1  0  0  0
 79154  1  0  0  0
M  ISO  4   1 100  68 101  79 101  82 100
M  END
> <chiral flag>
0

> <version>
0

> <s_m_source_file>
/data/baiqing/PycharmProjects/Reinvent-master-3.2/result/LINK_invent/BTK/process_docking_weight1_custom_sum_contain_oxygen_bond_distance_aromatic_linkinvent_7_9_3/rearranged_h_0051.sdf

> <i_m_source_file_index>
23

> <r_mmod_Potential_Energy-OPLS-2005>
230.663650512695

> <r_mmod_Stretch_Energy-OPLS-2005>
77.4428863525391

> <r_mmod_Bend_Energy-OPLS-2005>
156.392425537109

> <r_mmod_Torsional_Energy-OPLS-2005>
266.724182128906

> <r_mmod_Improper_Torsional_Energy-OPLS-2005>
13.3601970672607

> <r_mmod_Van_der_Waal_Energy-OPLS-2005>
161.854583740234

> <r_mmod_Electrostatic_Energy-OPLS-2005>
-278.245391845703

> <r_mmod_Solvation_Energy-OPLS-2005>
-207.475006103516

> <b_mmod_Minimization_Converged-OPLS-2005>
0

> <r_mmod_RMS_Derivative-OPLS-2005>
4.1557822227478

$$$$
24
                    3D
 Structure written by MMmdl.
178186  0  0  1  0            999 V2000
  -30.6716  -14.4830   20.5805 C   0  0  0  0  0  0
  -30.4027  -12.3137   19.4281 C   0  0  0  0  0  0
  -29.4861  -12.5200   18.2052 C   0  0  0  0  0  0
  -28.0078  -12.3492   18.6108 C   0  0  0  0  0  0
  -27.6442  -13.1795   19.8683 C   0  0  2  0  0  0
  -28.6780  -12.9923   20.9959 C   0  0  0  0  0  0
  -25.2515  -13.8065   20.5696 C   0  0  0  0  0  0
  -24.1754  -13.0370   20.9177 C   0  0  0  0  0  0
  -24.6288  -11.6835   20.8704 C   0  0  0  0  0  0
  -23.8968  -10.4237   21.0403 C   0  0  0  0  0  0
  -24.3545   -9.4167   21.9164 C   0  0  0  0  0  0
  -23.6254   -8.2191   22.0732 C   0  0  0  0  0  0
  -22.4231   -8.0225   21.3527 C   0  0  0  0  0  0
  -21.9846   -9.0187   20.4636 C   0  0  0  0  0  0
  -22.7156  -10.2074   20.3036 C   0  0  0  0  0  0
  -21.6847   -6.0701   22.5280 C   0  0  0  0  0  0
  -21.4037   -6.5618   23.8218 C   0  0  0  0  0  0
  -21.3686   -5.6763   24.9173 C   0  0  0  0  0  0
  -21.6042   -4.3025   24.7211 C   0  0  0  0  0  0
  -21.8818   -3.8120   23.4329 C   0  0  0  0  0  0
  -21.9191   -4.6935   22.3384 C   0  0  0  0  0  0
  -22.7801  -13.5201   21.1887 C   0  0  0  0  0  0
  -22.1666   -4.2130   21.0963 F   0  0  0  0  0  0
  -21.5612   -3.4508   25.7733 F   0  0  0  0  0  0
  -30.0100  -13.3003   20.4455 N   0  0  0  0  0  0
  -26.2896  -12.9179   20.3305 N   0  0  0  0  0  0
  -25.9191  -11.6369   20.5680 N   0  0  0  0  0  0
  -22.0451  -12.8192   22.0441 N   0  0  0  0  0  0
  -25.4269  -15.1794   20.4200 N   0  0  0  0  0  0
  -31.8061  -14.6594   20.1150 O   0  0  0  0  0  0
  -21.6611   -6.8817   21.4234 O   0  0  0  0  0  0
  -22.3510  -14.5545   20.6786 O   0  0  0  0  0  0
  -24.6150  -31.8684   23.2103 C   0  0  0  0  0  0
  -25.9073  -32.4794   23.8370 C   0  0  1  0  0  0
  -27.2259  -27.4488   20.0928 C   0  0  0  0  0  0
  -25.5951  -33.8590   24.2336 N   0  0  0  0  0  0
  -23.3980  -30.4931   21.5514 C   0  0  2  0  0  0
  -24.8404  -28.9521   20.1209 C   0  0  0  0  0  0
  -22.7383  -29.4678   22.5006 C   0  0  0  0  0  0
  -18.0269  -28.1358   22.8485 C   0  0  0  0  0  0
  -24.1498  -36.7295   23.2639 C   0  0  0  0  0  0
  -25.9231  -30.8345   21.3590 C   0  0  0  0  0  0
  -25.9976  -29.4664   20.7160 C   0  0  0  0  0  0
  -27.1977  -28.7217   20.6988 C   0  0  0  0  0  0
  -26.0542  -26.9374   19.4972 C   0  0  0  0  0  0
  -24.8608  -27.6834   19.5102 C   0  0  0  0  0  0
  -23.6052  -29.8223   20.1665 C   0  0  0  0  0  0
  -25.4101  -36.3081   24.0344 C   0  0  1  0  0  0
  -20.5864  -28.3636   23.1329 C   0  0  2  0  0  0
  -20.6758  -26.9374   22.5412 C   0  0  0  0  0  0
  -19.5741  -26.6376   21.5203 C   0  0  0  0  0  0
  -18.1926  -26.7909   22.1617 C   0  0  0  0  0  0
  -19.1530  -28.8818   23.2910 C   0  0  0  0  0  0
  -18.9453  -30.1433   23.8874 C   0  0  0  0  0  0
  -17.6463  -30.6566   24.0578 C   0  0  0  0  0  0
  -25.9034  -34.9463   23.5116 C   0  0  0  0  0  0
  -16.5346  -29.9058   23.6351 C   0  0  0  0  0  0
  -16.7280  -28.6505   23.0328 C   0  0  0  0  0  0
  -26.4509  -31.6549   25.0686 C   0  0  0  0  0  0
  -25.3803  -31.3639   26.1454 C   0  0  0  0  0  0
  -27.0333  -30.2999   24.6024 C   0  0  0  0  0  0
  -27.6079  -32.4233   25.7486 C   0  0  0  0  0  0
  -27.5571  -37.1796   24.8471 C   0  0  0  0  0  0
  -21.4118  -29.3021   22.3734 N   0  0  0  0  0  0
  -26.4284  -37.3768   23.9421 N   0  0  0  0  0  0
  -24.6630  -31.0797   22.0985 N   0  0  0  0  0  0
  -23.4167  -28.8239   23.3045 O   0  0  0  0  0  0
  -28.4018  -26.7447   20.0131 O   0  0  0  0  0  0
  -26.5583  -34.8915   22.4665 O   0  0  0  0  0  0
  -23.5352  -32.1440   23.7534 O   0  0  0  0  0  0
  -31.6987  -19.1380   23.0936 C   0  0  0  0  0  0
  -32.2202  -16.9977   22.7352 C   0  0  0  0  0  0
  -30.5167  -18.4606   22.9557 C   0  0  0  0  0  0
  -30.8555  -17.0862   22.7051 C   0  0  0  0  0  0
  -28.8089  -17.6839   17.9274 C   0  0  0  0  0  0
  -34.1629  -18.5570   23.0461 C   0  0  0  0  0  0
  -27.5939  -21.5597   19.1022 C   0  0  0  0  0  0
  -29.1245  -19.0594   23.0889 C   0  0  0  0  0  0
  -29.9292  -15.9150   22.4126 C   0  0  0  0  0  0
  -28.8609  -16.4645   18.8507 C   0  0  0  0  0  0
  -28.9296  -20.4879   22.5226 C   0  0  0  0  0  0
  -27.9188  -24.3117   20.3565 C   0  0  0  0  0  0
  -29.7502  -16.7002   20.0859 C   0  0  0  0  0  0
  -28.8432  -20.5717   20.9823 C   0  0  0  0  0  0
  -28.7688  -23.0584   20.7085 C   0  0  0  0  0  0
  -28.5345  -25.6261   20.8929 C   0  0  0  0  0  0
  -32.7467  -18.2466   22.9612 N   0  0  0  0  0  0
  -29.9098  -15.5311   20.9833 N   0  0  0  0  0  0
  -28.0726  -21.7541   20.4951 N   0  3  1  0  0  0
  -31.4512  -12.4111   19.1412 H   0  0  0  0  0  0
  -30.2875  -11.3033   19.8240 H   0  0  0  0  0  0
  -29.7414  -11.8245   17.4053 H   0  0  0  0  0  0
  -29.6413  -13.5147   17.7924 H   0  0  0  0  0  0
  -27.8248  -11.2881   18.7983 H   0  0  0  0  0  0
  -27.3565  -12.6285   17.7821 H   0  0  0  0  0  0
  -27.6720  -14.2133   19.5615 H   0  0  0  0  0  0
  -28.6515  -11.9666   21.3666 H   0  0  0  0  0  0
  -28.4168  -13.6230   21.8456 H   0  0  0  0  0  0
  -25.2662   -9.5691   22.4751 H   0  0  0  0  0  0
  -23.9982   -7.4589   22.7437 H   0  0  0  0  0  0
  -21.0775   -8.8689   19.8948 H   0  0  0  0  0  0
  -22.3583  -10.9599   19.6143 H   0  0  0  0  0  0
  -21.2080   -7.6128   23.9728 H   0  0  0  0  0  0
  -21.1521   -6.0481   25.9078 H   0  0  0  0  0  0
  -22.0595   -2.7586   23.2826 H   0  0  0  0  0  0
  -22.4033  -11.9778   22.4715 H   0  0  0  0  0  0
  -21.1136  -13.1315   22.2787 H   0  0  0  0  0  0
  -24.6651  -15.8363   20.5361 H   0  0  0  0  0  0
  -26.2944  -15.6181   20.1415 H   0  0  0  0  0  0
  -26.7131  -32.5537   23.1129 H   0  0  0  0  0  0
  -25.0189  -33.9740   25.0539 H   0  0  0  0  0  0
  -22.6877  -31.3113   21.4153 H   0  0  0  0  0  0
  -23.3747  -35.9642   23.3295 H   0  0  0  0  0  0
  -24.3606  -36.8895   22.2053 H   0  0  0  0  0  0
  -23.7262  -37.6507   23.6637 H   0  0  0  0  0  0
  -26.0345  -31.5940   20.5835 H   0  0  0  0  0  0
  -26.8119  -30.8901   21.9740 H   0  0  0  0  0  0
  -28.0991  -29.1238   21.1410 H   0  0  0  0  0  0
  -26.0638  -25.9784   18.9996 H   0  0  0  0  0  0
  -23.9725  -27.2805   19.0457 H   0  0  0  0  0  0
  -23.7206  -30.5966   19.4059 H   0  0  0  0  0  0
  -22.7257  -29.2467   19.8744 H   0  0  0  0  0  0
  -25.1277  -36.1934   25.0834 H   0  0  0  0  0  0
  -20.9964  -28.3167   24.1455 H   0  0  0  0  0  0
  -20.5642  -26.2229   23.3575 H   0  0  0  0  0  0
  -21.6630  -26.7407   22.1220 H   0  0  0  0  0  0
  -19.6878  -25.6293   21.1217 H   0  0  0  0  0  0
  -19.6678  -27.3215   20.6752 H   0  0  0  0  0  0
  -17.4193  -26.6682   21.4019 H   0  0  0  0  0  0
  -18.0317  -26.0042   22.9000 H   0  0  0  0  0  0
  -19.7941  -30.7284   24.2179 H   0  0  0  0  0  0
  -17.5029  -31.6239   24.5183 H   0  0  0  0  0  0
  -15.5350  -30.2950   23.7679 H   0  0  0  0  0  0
  -15.8686  -28.0846   22.6969 H   0  0  0  0  0  0
  -24.5993  -30.6948   25.7835 H   0  0  0  0  0  0
  -24.8993  -32.2790   26.4908 H   0  0  0  0  0  0
  -25.8208  -30.8842   27.0208 H   0  0  0  0  0  0
  -26.2850  -29.6738   24.1148 H   0  0  0  0  0  0
  -27.4214  -29.7234   25.4437 H   0  0  0  0  0  0
  -27.8639  -30.4331   23.9085 H   0  0  0  0  0  0
  -27.2704  -33.3524   26.2087 H   0  0  0  0  0  0
  -28.3909  -32.6767   25.0332 H   0  0  0  0  0  0
  -28.0716  -31.8328   26.5403 H   0  0  0  0  0  0
  -28.2573  -38.0107   24.7517 H   0  0  0  0  0  0
  -28.1073  -36.2634   24.6275 H   0  0  0  0  0  0
  -27.2316  -37.1431   25.8885 H   0  0  0  0  0  0
  -20.9238  -29.8771   21.7015 H   0  0  0  0  0  0
  -26.0165  -38.2846   24.1399 H   0  0  0  0  0  0
  -31.8913  -20.1842   23.2913 H   0  0  0  0  0  0
  -32.8739  -16.1444   22.6077 H   0  0  0  0  0  0
  -28.1531  -17.5010   17.0744 H   0  0  0  0  0  0
  -29.7984  -17.9364   17.5393 H   0  0  0  0  0  0
  -28.4212  -18.5525   18.4554 H   0  0  0  0  0  0
  -34.3427  -19.3259   23.7969 H   0  0  0  0  0  0
  -34.5195  -18.9093   22.0781 H   0  0  0  0  0  0
  -34.7272  -17.6646   23.3237 H   0  0  0  0  0  0
  -27.1175  -20.5863   18.9774 H   0  0  0  0  0  0
  -28.4156  -21.6200   18.3891 H   0  0  0  0  0  0
  -26.8458  -22.3025   18.8281 H   0  0  0  0  0  0
  -28.9041  -19.0794   24.1552 H   0  0  0  0  0  0
  -28.3831  -18.3854   22.6581 H   0  0  0  0  0  0
  -28.9140  -16.1370   22.7444 H   0  0  0  0  0  0
  -30.2484  -15.0753   23.0345 H   0  0  0  0  0  0
  -29.2041  -15.6053   18.2771 H   0  0  0  0  0  0
  -27.8429  -16.2594   19.1735 H   0  0  0  0  0  0
  -29.6897  -21.1657   22.9122 H   0  0  0  0  0  0
  -27.9839  -20.8488   22.9292 H   0  0  0  0  0  0
  -26.9055  -24.2133   20.7528 H   0  0  0  0  0  0
  -27.8223  -24.3837   19.2723 H   0  0  0  0  0  0
  -29.2999  -17.5213   20.6382 H   0  0  0  0  0  0
  -30.7339  -17.0534   19.7732 H   0  0  0  0  0  0
  -28.3389  -19.6691   20.6316 H   0  0  0  0  0  0
  -29.8423  -20.5470   20.5417 H   0  0  0  0  0  0
  -29.0621  -23.1229   21.7568 H   0  0  0  0  0  0
  -29.6974  -23.0700   20.1314 H   0  0  0  0  0  0
  -29.6058  -25.4869   21.0374 H   0  0  0  0  0  0
  -28.1332  -25.8566   21.8798 H   0  0  0  0  0  0
  -27.2346  -21.7818   21.0574 H   0  0  0  0  0  0
  1 25  1  0  0  0
  1 30  2  0  0  0
  1 88  1  0  0  0
  2  3  1  0  0  0
  2 25  1  0  0  0
  2 90  1  0  0  0
  2 91  1  0  0  0
  3  4  1  0  0  0
  3 92  1  0  0  0
  3 93  1  0  0  0
  4  5  1  0  0  0
  4 94  1  0  0  0
  4 95  1  0  0  0
  5  6  1  0  0  0
  5 26  1  0  0  0
  5 96  1  0  0  0
  6 25  1  0  0  0
  6 97  1  0  0  0
  6 98  1  0  0  0
  7  8  2  0  0  0
  7 26  1  0  0  0
  7 29  1  0  0  0
  8  9  1  0  0  0
  8 22  1  0  0  0
  9 10  1  0  0  0
  9 27  2  0  0  0
 10 11  2  0  0  0
 10 15  1  0  0  0
 11 12  1  0  0  0
 11 99  1  0  0  0
 12 13  2  0  0  0
 12100  1  0  0  0
 13 14  1  0  0  0
 13 31  1  0  0  0
 14 15  2  0  0  0
 14101  1  0  0  0
 15102  1  0  0  0
 16 17  2  0  0  0
 16 21  1  0  0  0
 16 31  1  0  0  0
 17 18  1  0  0  0
 17103  1  0  0  0
 18 19  2  0  0  0
 18104  1  0  0  0
 19 20  1  0  0  0
 19 24  1  0  0  0
 20 21  2  0  0  0
 20105  1  0  0  0
 21 23  1  0  0  0
 22 28  1  0  0  0
 22 32  2  0  0  0
 26 27  1  0  0  0
 28106  1  0  0  0
 28107  1  0  0  0
 29108  1  0  0  0
 29109  1  0  0  0
 33 34  1  0  0  0
 33 66  1  0  0  0
 33 70  2  0  0  0
 34 36  1  0  0  0
 34 59  1  0  0  0
 34110  1  0  0  0
 35 44  2  0  0  0
 35 45  1  0  0  0
 35 68  1  0  0  0
 36 56  1  0  0  0
 36111  1  0  0  0
 37 39  1  0  0  0
 37 47  1  0  0  0
 37 66  1  0  0  0
 37112  1  0  0  0
 38 43  2  0  0  0
 38 46  1  0  0  0
 38 47  1  0  0  0
 39 64  1  0  0  0
 39 67  2  0  0  0
 40 52  1  0  0  0
 40 53  2  0  0  0
 40 58  1  0  0  0
 41113  1  0  0  0
 41114  1  0  0  0
 41115  1  0  0  0
 41 48  1  0  0  0
 42 43  1  0  0  0
 42 66  1  0  0  0
 42116  1  0  0  0
 42117  1  0  0  0
 43 44  1  0  0  0
 44118  1  0  0  0
 45 46  2  0  0  0
 45119  1  0  0  0
 46120  1  0  0  0
 47121  1  0  0  0
 47122  1  0  0  0
 48 56  1  0  0  0
 48 65  1  0  0  0
 48123  1  0  0  0
 49 50  1  0  0  0
 49 53  1  0  0  0
 49 64  1  0  0  0
 49124  1  0  0  0
 50 51  1  0  0  0
 50125  1  0  0  0
 50126  1  0  0  0
 51 52  1  0  0  0
 51127  1  0  0  0
 51128  1  0  0  0
 52129  1  0  0  0
 52130  1  0  0  0
 53 54  1  0  0  0
 54 55  2  0  0  0
 54131  1  0  0  0
 55 57  1  0  0  0
 55132  1  0  0  0
 56 69  2  0  0  0
 57 58  2  0  0  0
 57133  1  0  0  0
 58134  1  0  0  0
 59 60  1  0  0  0
 59 61  1  0  0  0
 59 62  1  0  0  0
 60135  1  0  0  0
 60136  1  0  0  0
 60137  1  0  0  0
 61138  1  0  0  0
 61139  1  0  0  0
 61140  1  0  0  0
 62141  1  0  0  0
 62142  1  0  0  0
 62143  1  0  0  0
 63 65  1  0  0  0
 63144  1  0  0  0
 63145  1  0  0  0
 63146  1  0  0  0
 64147  1  0  0  0
 65148  1  0  0  0
 68 86  1  0  0  0
 71 73  2  0  0  0
 71 87  1  0  0  0
 71149  1  0  0  0
 72 74  2  0  0  0
 72 87  1  0  0  0
 72150  1  0  0  0
 73 74  1  0  0  0
 73 78  1  0  0  0
 74 79  1  0  0  0
 75 80  1  0  0  0
 75151  1  0  0  0
 75152  1  0  0  0
 75153  1  0  0  0
 76 87  1  0  0  0
 76154  1  0  0  0
 76155  1  0  0  0
 76156  1  0  0  0
 77157  1  0  0  0
 77158  1  0  0  0
 77159  1  0  0  0
 77 89  1  0  0  0
 78 81  1  0  0  0
 78160  1  0  0  0
 78161  1  0  0  0
 79 88  1  0  0  0
 79162  1  0  0  0
 79163  1  0  0  0
 80 83  1  0  0  0
 80164  1  0  0  0
 80165  1  0  0  0
 81 84  1  0  0  0
 81166  1  0  0  0
 81167  1  0  0  0
 82 85  1  0  0  0
 82 86  1  0  0  0
 82168  1  0  0  0
 82169  1  0  0  0
 83 88  1  0  0  0
 83170  1  0  0  0
 83171  1  0  0  0
 84 89  1  0  0  0
 84172  1  0  0  0
 84173  1  0  0  0
 85 89  1  0  0  0
 85174  1  0  0  0
 85175  1  0  0  0
 86176  1  0  0  0
 86177  1  0  0  0
 89178  1  0  0  0
M  CHG  1  89   1
M  ISO  4   1 100  68 101  86 101  88 100
M  END
> <chiral flag>
0

> <version>
0

> <s_m_source_file>
/data/baiqing/PycharmProjects/Reinvent-master-3.2/result/LINK_invent/BTK/process_docking_weight1_custom_sum_contain_oxygen_bond_distance_aromatic_linkinvent_7_9_3/rearranged_h_0051.sdf

> <i_m_source_file_index>
24

> <r_mmod_Potential_Energy-OPLS-2005>
-33.1206893920898

> <r_mmod_Stretch_Energy-OPLS-2005>
38.3937797546387

> <r_mmod_Bend_Energy-OPLS-2005>
107.238304138184

> <r_mmod_Torsional_Energy-OPLS-2005>
314.917785644531

> <r_mmod_Improper_Torsional_Energy-OPLS-2005>
10.0565738677979

> <r_mmod_Van_der_Waal_Energy-OPLS-2005>
118.233337402344

> <r_mmod_Electrostatic_Energy-OPLS-2005>
-204.408309936523

> <r_mmod_Solvation_Energy-OPLS-2005>
-430.242889404297

> <b_mmod_Minimization_Converged-OPLS-2005>
0

> <r_mmod_RMS_Derivative-OPLS-2005>
5.05541658401489

$$$$
25
                    3D
 Structure written by MMmdl.
167175  0  0  1  0            999 V2000
  -30.8347  -14.2747   20.7898 C   0  0  0  0  0  0
  -30.4113  -12.3002   19.3694 C   0  0  0  0  0  0
  -29.4731  -12.5604   18.1800 C   0  0  0  0  0  0
  -28.0030  -12.3999   18.6015 C   0  0  0  0  0  0
  -27.6685  -13.2043   19.8826 C   0  0  2  0  0  0
  -28.7059  -12.9191   20.9908 C   0  0  0  0  0  0
  -25.2608  -13.8161   20.5680 C   0  0  0  0  0  0
  -24.1848  -13.0437   20.9159 C   0  0  0  0  0  0
  -24.6396  -11.6906   20.8710 C   0  0  0  0  0  0
  -23.9058  -10.4295   21.0383 C   0  0  0  0  0  0
  -24.3610   -9.4215   21.9171 C   0  0  0  0  0  0
  -23.6287   -8.2251   22.0752 C   0  0  0  0  0  0
  -22.4270   -8.0282   21.3540 C   0  0  0  0  0  0
  -21.9899   -9.0253   20.4641 C   0  0  0  0  0  0
  -22.7227  -10.2133   20.3042 C   0  0  0  0  0  0
  -21.6851   -6.0738   22.5285 C   0  0  0  0  0  0
  -21.4011   -6.5640   23.8217 C   0  0  0  0  0  0
  -21.3658   -5.6789   24.9177 C   0  0  0  0  0  0
  -21.6042   -4.3054   24.7228 C   0  0  0  0  0  0
  -21.8816   -3.8148   23.4346 C   0  0  0  0  0  0
  -21.9190   -4.6964   22.3404 C   0  0  0  0  0  0
  -22.7869  -13.5234   21.1831 C   0  0  0  0  0  0
  -22.1660   -4.2151   21.0980 F   0  0  0  0  0  0
  -21.5626   -3.4538   25.7740 F   0  0  0  0  0  0
  -30.0587  -13.2035   20.4763 N   0  0  0  0  0  0
  -26.3056  -12.9334   20.3387 N   0  0  0  0  0  0
  -25.9324  -11.6493   20.5738 N   0  0  0  0  0  0
  -22.0507  -12.8233   22.0388 N   0  0  0  0  0  0
  -25.4339  -15.1883   20.4104 N   0  0  0  0  0  0
  -31.7222  -14.6972   20.0375 O   0  0  0  0  0  0
  -21.6633   -6.8882   21.4246 O   0  0  0  0  0  0
  -22.3564  -14.5553   20.6695 O   0  0  0  0  0  0
  -24.6102  -31.8708   23.2113 C   0  0  0  0  0  0
  -25.9004  -32.4837   23.8399 C   0  0  1  0  0  0
  -27.2337  -27.4661   20.0878 C   0  0  0  0  0  0
  -25.5883  -33.8640   24.2329 N   0  0  0  0  0  0
  -23.3949  -30.4949   21.5517 C   0  0  2  0  0  0
  -24.8388  -28.9587   20.1199 C   0  0  0  0  0  0
  -22.7377  -29.4668   22.5002 C   0  0  0  0  0  0
  -18.0272  -28.1357   22.8492 C   0  0  0  0  0  0
  -24.1478  -36.7310   23.2627 C   0  0  0  0  0  0
  -25.9196  -30.8444   21.3590 C   0  0  0  0  0  0
  -25.9964  -29.4797   20.7104 C   0  0  0  0  0  0
  -27.1973  -28.7416   20.6881 C   0  0  0  0  0  0
  -26.0581  -26.9444   19.5037 C   0  0  0  0  0  0
  -24.8617  -27.6879   19.5177 C   0  0  0  0  0  0
  -23.6014  -29.8266   20.1666 C   0  0  0  0  0  0
  -25.4093  -36.3114   24.0344 C   0  0  1  0  0  0
  -20.5860  -28.3636   23.1326 C   0  0  2  0  0  0
  -20.6766  -26.9374   22.5418 C   0  0  0  0  0  0
  -19.5749  -26.6374   21.5201 C   0  0  0  0  0  0
  -18.1922  -26.7910   22.1610 C   0  0  0  0  0  0
  -19.1525  -28.8814   23.2909 C   0  0  0  0  0  0
  -18.9463  -30.1428   23.8900 C   0  0  0  0  0  0
  -17.6471  -30.6570   24.0564 C   0  0  0  0  0  0
  -25.9030  -34.9491   23.5130 C   0  0  0  0  0  0
  -16.5357  -29.9078   23.6327 C   0  0  0  0  0  0
  -16.7269  -28.6501   23.0331 C   0  0  0  0  0  0
  -26.4453  -31.6609   25.0713 C   0  0  0  0  0  0
  -25.3735  -31.3712   26.1481 C   0  0  0  0  0  0
  -27.0275  -30.3059   24.6049 C   0  0  0  0  0  0
  -27.6034  -32.4322   25.7466 C   0  0  0  0  0  0
  -27.5602  -37.1758   24.8429 C   0  0  0  0  0  0
  -21.4112  -29.3019   22.3732 N   0  0  0  0  0  0
  -26.4263  -37.3822   23.9461 N   0  0  0  0  0  0
  -24.6596  -31.0840   22.0998 N   0  0  0  0  0  0
  -23.4168  -28.8202   23.3021 O   0  0  0  0  0  0
  -28.4354  -26.8078   20.0209 O   0  0  0  0  0  0
  -26.5594  -34.8931   22.4687 O   0  0  0  0  0  0
  -23.5311  -32.1457   23.7540 O   0  0  0  0  0  0
  -30.8899  -20.7101   23.4397 C   0  0  0  0  0  0
  -28.6363  -20.6406   21.9463 C   0  0  0  0  0  0
  -29.9015  -19.7170   23.6372 C   0  0  0  0  0  0
  -29.6095  -21.6511   21.7616 C   0  0  0  0  0  0
  -32.2412  -14.2662   22.7648 C   0  0  0  0  0  0
  -28.8643  -16.6209   25.4078 C   0  0  0  0  0  0
  -30.0382  -18.6723   24.7332 C   0  0  0  0  0  0
  -29.7896  -24.8499   19.8858 C   0  0  0  0  0  0
  -29.9528  -15.2540   22.9081 C   0  0  0  0  0  0
  -30.5102  -16.5643   23.5272 C   0  0  0  0  0  0
  -28.4654  -25.4374   20.3990 C   0  0  0  0  0  0
  -30.3356  -23.7117   20.7551 C   0  0  0  0  0  0
  -28.7744  -19.6675   22.8811 N   0  0  0  0  0  0
  -30.7491  -21.6776   22.5032 N   0  0  0  0  0  0
  -30.9406  -14.4910   22.1224 N   0  0  0  0  0  0
  -29.5050  -17.3590   24.2907 N   0  3  1  0  0  0
  -29.3961  -22.6422   20.8251 O   0  0  0  0  0  0
  -31.4522  -12.4114   19.0598 H   0  0  0  0  0  0
  -30.3166  -11.2664   19.7044 H   0  0  0  0  0  0
  -29.7053  -11.8799   17.3599 H   0  0  0  0  0  0
  -29.6385  -13.5697   17.7973 H   0  0  0  0  0  0
  -27.8128  -11.3385   18.7671 H   0  0  0  0  0  0
  -27.3450  -12.7028   17.7863 H   0  0  0  0  0  0
  -27.7328  -14.2628   19.6291 H   0  0  0  0  0  0
  -28.6592  -11.8696   21.2848 H   0  0  0  0  0  0
  -28.4448  -13.4715   21.8879 H   0  0  0  0  0  0
  -25.2758   -9.5693   22.4737 H   0  0  0  0  0  0
  -23.9995   -7.4644   22.7479 H   0  0  0  0  0  0
  -21.0825   -8.8759   19.8956 H   0  0  0  0  0  0
  -22.3675  -10.9659   19.6144 H   0  0  0  0  0  0
  -21.2004   -7.6149   23.9721 H   0  0  0  0  0  0
  -21.1481   -6.0521   25.9078 H   0  0  0  0  0  0
  -22.0597   -2.7612   23.2846 H   0  0  0  0  0  0
  -22.4097  -11.9871   22.4750 H   0  0  0  0  0  0
  -21.1130  -13.1274   22.2599 H   0  0  0  0  0  0
  -24.6676  -15.8449   20.5116 H   0  0  0  0  0  0
  -26.2898  -15.6255   20.0924 H   0  0  0  0  0  0
  -26.7072  -32.5550   23.1167 H   0  0  0  0  0  0
  -25.0053  -33.9810   25.0492 H   0  0  0  0  0  0
  -22.6822  -31.3103   21.4141 H   0  0  0  0  0  0
  -23.3766  -35.9605   23.3229 H   0  0  0  0  0  0
  -24.3595  -36.8989   22.2052 H   0  0  0  0  0  0
  -23.7191  -37.6480   23.6681 H   0  0  0  0  0  0
  -26.0254  -31.6079   20.5879 H   0  0  0  0  0  0
  -26.8102  -30.9007   21.9724 H   0  0  0  0  0  0
  -28.0988  -29.1485   21.1250 H   0  0  0  0  0  0
  -26.0622  -25.9848   19.0084 H   0  0  0  0  0  0
  -23.9712  -27.2836   19.0568 H   0  0  0  0  0  0
  -23.7108  -30.6020   19.4072 H   0  0  0  0  0  0
  -22.7248  -29.2484   19.8698 H   0  0  0  0  0  0
  -25.1244  -36.1954   25.0832 H   0  0  0  0  0  0
  -20.9965  -28.3197   24.1439 H   0  0  0  0  0  0
  -20.5647  -26.2234   23.3596 H   0  0  0  0  0  0
  -21.6640  -26.7406   22.1215 H   0  0  0  0  0  0
  -19.6905  -25.6289   21.1217 H   0  0  0  0  0  0
  -19.6694  -27.3192   20.6736 H   0  0  0  0  0  0
  -17.4194  -26.6659   21.4009 H   0  0  0  0  0  0
  -18.0327  -26.0030   22.8989 H   0  0  0  0  0  0
  -19.7943  -30.7252   24.2238 H   0  0  0  0  0  0
  -17.5032  -31.6245   24.5166 H   0  0  0  0  0  0
  -15.5361  -30.2985   23.7654 H   0  0  0  0  0  0
  -15.8669  -28.0850   22.7004 H   0  0  0  0  0  0
  -24.5903  -30.7050   25.7857 H   0  0  0  0  0  0
  -24.8924  -32.2866   26.4926 H   0  0  0  0  0  0
  -25.8109  -30.8910   27.0240 H   0  0  0  0  0  0
  -26.2811  -29.6822   24.1123 H   0  0  0  0  0  0
  -27.4106  -29.7281   25.4469 H   0  0  0  0  0  0
  -27.8606  -30.4394   23.9146 H   0  0  0  0  0  0
  -27.2655  -33.3616   26.2061 H   0  0  0  0  0  0
  -28.3834  -32.6900   25.0286 H   0  0  0  0  0  0
  -28.0706  -31.8432   26.5368 H   0  0  0  0  0  0
  -28.2485  -38.0187   24.7713 H   0  0  0  0  0  0
  -28.1243  -36.2754   24.5956 H   0  0  0  0  0  0
  -27.2378  -37.1045   25.8830 H   0  0  0  0  0  0
  -20.9245  -29.8761   21.6993 H   0  0  0  0  0  0
  -26.0141  -38.2859   24.1620 H   0  0  0  0  0  0
  -31.7845  -20.7436   24.0451 H   0  0  0  0  0  0
  -27.7350  -20.6250   21.3510 H   0  0  0  0  0  0
  -32.1574  -14.2123   23.8501 H   0  0  0  0  0  0
  -32.9458  -15.0590   22.5096 H   0  0  0  0  0  0
  -32.6767  -13.3209   22.4352 H   0  0  0  0  0  0
  -28.1339  -17.2465   25.9212 H   0  0  0  0  0  0
  -29.6021  -16.2950   26.1417 H   0  0  0  0  0  0
  -28.3159  -15.7470   25.0601 H   0  0  0  0  0  0
  -29.4744  -19.0527   25.5862 H   0  0  0  0  0  0
  -31.0734  -18.5851   25.0682 H   0  0  0  0  0  0
  -30.5453  -25.6352   19.8698 H   0  0  0  0  0  0
  -29.6733  -24.5264   18.8509 H   0  0  0  0  0  0
  -29.0935  -15.5145   22.2875 H   0  0  0  0  0  0
  -29.5928  -14.5811   23.6861 H   0  0  0  0  0  0
  -30.9190  -17.1856   22.7285 H   0  0  0  0  0  0
  -31.3406  -16.3449   24.1992 H   0  0  0  0  0  0
  -28.4104  -25.3826   21.4877 H   0  0  0  0  0  0
  -27.6350  -24.8529   20.0037 H   0  0  0  0  0  0
  -30.5525  -24.1135   21.7463 H   0  0  0  0  0  0
  -31.2745  -23.3462   20.3356 H   0  0  0  0  0  0
  -28.7687  -17.6284   23.6505 H   0  0  0  0  0  0
  1 25  1  0  0  0
  1 30  2  0  0  0
  1 85  1  0  0  0
  2  3  1  0  0  0
  2 25  1  0  0  0
  2 88  1  0  0  0
  2 89  1  0  0  0
  3  4  1  0  0  0
  3 90  1  0  0  0
  3 91  1  0  0  0
  4  5  1  0  0  0
  4 92  1  0  0  0
  4 93  1  0  0  0
  5  6  1  0  0  0
  5 26  1  0  0  0
  5 94  1  0  0  0
  6 25  1  0  0  0
  6 95  1  0  0  0
  6 96  1  0  0  0
  7  8  2  0  0  0
  7 26  1  0  0  0
  7 29  1  0  0  0
  8  9  1  0  0  0
  8 22  1  0  0  0
  9 10  1  0  0  0
  9 27  2  0  0  0
 10 11  2  0  0  0
 10 15  1  0  0  0
 11 12  1  0  0  0
 11 97  1  0  0  0
 12 13  2  0  0  0
 12 98  1  0  0  0
 13 14  1  0  0  0
 13 31  1  0  0  0
 14 15  2  0  0  0
 14 99  1  0  0  0
 15100  1  0  0  0
 16 17  2  0  0  0
 16 21  1  0  0  0
 16 31  1  0  0  0
 17 18  1  0  0  0
 17101  1  0  0  0
 18 19  2  0  0  0
 18102  1  0  0  0
 19 20  1  0  0  0
 19 24  1  0  0  0
 20 21  2  0  0  0
 20103  1  0  0  0
 21 23  1  0  0  0
 22 28  1  0  0  0
 22 32  2  0  0  0
 26 27  1  0  0  0
 28104  1  0  0  0
 28105  1  0  0  0
 29106  1  0  0  0
 29107  1  0  0  0
 33 34  1  0  0  0
 33 66  1  0  0  0
 33 70  2  0  0  0
 34 36  1  0  0  0
 34 59  1  0  0  0
 34108  1  0  0  0
 35 44  2  0  0  0
 35 45  1  0  0  0
 35 68  1  0  0  0
 36 56  1  0  0  0
 36109  1  0  0  0
 37 39  1  0  0  0
 37 47  1  0  0  0
 37 66  1  0  0  0
 37110  1  0  0  0
 38 43  2  0  0  0
 38 46  1  0  0  0
 38 47  1  0  0  0
 39 64  1  0  0  0
 39 67  2  0  0  0
 40 52  1  0  0  0
 40 53  2  0  0  0
 40 58  1  0  0  0
 41111  1  0  0  0
 41112  1  0  0  0
 41113  1  0  0  0
 41 48  1  0  0  0
 42 43  1  0  0  0
 42 66  1  0  0  0
 42114  1  0  0  0
 42115  1  0  0  0
 43 44  1  0  0  0
 44116  1  0  0  0
 45 46  2  0  0  0
 45117  1  0  0  0
 46118  1  0  0  0
 47119  1  0  0  0
 47120  1  0  0  0
 48 56  1  0  0  0
 48 65  1  0  0  0
 48121  1  0  0  0
 49 50  1  0  0  0
 49 53  1  0  0  0
 49 64  1  0  0  0
 49122  1  0  0  0
 50 51  1  0  0  0
 50123  1  0  0  0
 50124  1  0  0  0
 51 52  1  0  0  0
 51125  1  0  0  0
 51126  1  0  0  0
 52127  1  0  0  0
 52128  1  0  0  0
 53 54  1  0  0  0
 54 55  2  0  0  0
 54129  1  0  0  0
 55 57  1  0  0  0
 55130  1  0  0  0
 56 69  2  0  0  0
 57 58  2  0  0  0
 57131  1  0  0  0
 58132  1  0  0  0
 59 60  1  0  0  0
 59 61  1  0  0  0
 59 62  1  0  0  0
 60133  1  0  0  0
 60134  1  0  0  0
 60135  1  0  0  0
 61136  1  0  0  0
 61137  1  0  0  0
 61138  1  0  0  0
 62139  1  0  0  0
 62140  1  0  0  0
 62141  1  0  0  0
 63 65  1  0  0  0
 63142  1  0  0  0
 63143  1  0  0  0
 63144  1  0  0  0
 64145  1  0  0  0
 65146  1  0  0  0
 68 81  1  0  0  0
 71 73  2  0  0  0
 71 84  1  0  0  0
 71147  1  0  0  0
 72 74  1  0  0  0
 72 83  2  0  0  0
 72148  1  0  0  0
 73 77  1  0  0  0
 73 83  1  0  0  0
 74 84  2  0  0  0
 74 87  1  0  0  0
 75 85  1  0  0  0
 75149  1  0  0  0
 75150  1  0  0  0
 75151  1  0  0  0
 76152  1  0  0  0
 76153  1  0  0  0
 76154  1  0  0  0
 76 86  1  0  0  0
 77 86  1  0  0  0
 77155  1  0  0  0
 77156  1  0  0  0
 78 81  1  0  0  0
 78 82  1  0  0  0
 78157  1  0  0  0
 78158  1  0  0  0
 79 80  1  0  0  0
 79 85  1  0  0  0
 79159  1  0  0  0
 79160  1  0  0  0
 80 86  1  0  0  0
 80161  1  0  0  0
 80162  1  0  0  0
 81163  1  0  0  0
 81164  1  0  0  0
 82 87  1  0  0  0
 82165  1  0  0  0
 82166  1  0  0  0
 86167  1  0  0  0
M  CHG  1  86   1
M  ISO  4   1 100  68 101  81 101  85 100
M  END
> <chiral flag>
0

> <version>
0

> <s_m_source_file>
/data/baiqing/PycharmProjects/Reinvent-master-3.2/result/LINK_invent/BTK/process_docking_weight1_custom_sum_contain_oxygen_bond_distance_aromatic_linkinvent_7_9_3/rearranged_h_0051.sdf

> <i_m_source_file_index>
25

> <r_mmod_Potential_Energy-OPLS-2005>
-4.80858278274536

> <r_mmod_Stretch_Energy-OPLS-2005>
37.3142204284668

> <r_mmod_Bend_Energy-OPLS-2005>
102.457229614258

> <r_mmod_Torsional_Energy-OPLS-2005>
295.440490722656

> <r_mmod_Improper_Torsional_Energy-OPLS-2005>
16.9211120605469

> <r_mmod_Van_der_Waal_Energy-OPLS-2005>
172.596832275391

> <r_mmod_Electrostatic_Energy-OPLS-2005>
-188.228820800781

> <r_mmod_Solvation_Energy-OPLS-2005>
-452.095703125

> <b_mmod_Minimization_Converged-OPLS-2005>
0

> <r_mmod_RMS_Derivative-OPLS-2005>
1.69983422756195

$$$$
26
                    3D
 Structure written by MMmdl.
162170  0  0  1  0            999 V2000
  -30.7041  -14.5312   20.5987 C   0  0  0  0  0  0
  -30.4189  -12.3502   19.4455 C   0  0  0  0  0  0
  -29.4987  -12.5193   18.2188 C   0  0  0  0  0  0
  -28.0205  -12.3683   18.6236 C   0  0  0  0  0  0
  -27.6582  -13.2148   19.8727 C   0  0  2  0  0  0
  -28.6950  -13.0294   21.0013 C   0  0  0  0  0  0
  -25.2579  -13.8174   20.5679 C   0  0  0  0  0  0
  -24.1840  -13.0440   20.9149 C   0  0  0  0  0  0
  -24.6396  -11.6906   20.8694 C   0  0  0  0  0  0
  -23.9064  -10.4294   21.0375 C   0  0  0  0  0  0
  -24.3626   -9.4216   21.9165 C   0  0  0  0  0  0
  -23.6296   -8.2255   22.0755 C   0  0  0  0  0  0
  -22.4283   -8.0286   21.3535 C   0  0  0  0  0  0
  -21.9910   -9.0245   20.4634 C   0  0  0  0  0  0
  -22.7235  -10.2128   20.3031 C   0  0  0  0  0  0
  -21.6863   -6.0733   22.5267 C   0  0  0  0  0  0
  -21.4017   -6.5635   23.8198 C   0  0  0  0  0  0
  -21.3663   -5.6794   24.9163 C   0  0  0  0  0  0
  -21.6046   -4.3055   24.7214 C   0  0  0  0  0  0
  -21.8817   -3.8143   23.4345 C   0  0  0  0  0  0
  -21.9193   -4.6960   22.3396 C   0  0  0  0  0  0
  -22.7857  -13.5229   21.1805 C   0  0  0  0  0  0
  -22.1660   -4.2144   21.0971 F   0  0  0  0  0  0
  -21.5632   -3.4537   25.7737 F   0  0  0  0  0  0
  -30.0258  -13.3502   20.4588 N   0  0  0  0  0  0
  -26.3013  -12.9352   20.3336 N   0  0  0  0  0  0
  -25.9330  -11.6500   20.5742 N   0  0  0  0  0  0
  -22.0508  -12.8222   22.0363 N   0  0  0  0  0  0
  -25.4266  -15.1888   20.4086 N   0  0  0  0  0  0
  -31.7822  -14.7274   20.0265 O   0  0  0  0  0  0
  -21.6647   -6.8879   21.4239 O   0  0  0  0  0  0
  -22.3525  -14.5529   20.6649 O   0  0  0  0  0  0
  -24.6196  -31.8629   23.2037 C   0  0  0  0  0  0
  -25.9063  -32.4807   23.8353 C   0  0  1  0  0  0
  -27.2268  -27.3697   20.1068 C   0  0  0  0  0  0
  -25.5912  -33.8602   24.2289 N   0  0  0  0  0  0
  -23.4107  -30.4845   21.5456 C   0  0  2  0  0  0
  -24.8563  -28.9418   20.1102 C   0  0  0  0  0  0
  -22.7447  -29.4616   22.4952 C   0  0  0  0  0  0
  -18.0267  -28.1348   22.8471 C   0  0  0  0  0  0
  -24.1499  -36.7324   23.2640 C   0  0  0  0  0  0
  -25.9426  -30.8090   21.3656 C   0  0  0  0  0  0
  -26.0164  -29.4378   20.7117 C   0  0  0  0  0  0
  -27.2013  -28.6587   20.7077 C   0  0  0  0  0  0
  -26.0418  -26.8972   19.5001 C   0  0  0  0  0  0
  -24.8654  -27.6727   19.5031 C   0  0  0  0  0  0
  -23.6227  -29.8185   20.1593 C   0  0  0  0  0  0
  -25.4125  -36.3121   24.0325 C   0  0  1  0  0  0
  -20.5874  -28.3634   23.1317 C   0  0  2  0  0  0
  -20.6766  -26.9370   22.5413 C   0  0  0  0  0  0
  -19.5745  -26.6358   21.5209 C   0  0  0  0  0  0
  -18.1907  -26.7891   22.1609 C   0  0  0  0  0  0
  -19.1525  -28.8809   23.2874 C   0  0  0  0  0  0
  -18.9461  -30.1420   23.8873 C   0  0  0  0  0  0
  -17.6468  -30.6550   24.0558 C   0  0  0  0  0  0
  -25.9059  -34.9476   23.5113 C   0  0  0  0  0  0
  -16.5348  -29.9052   23.6332 C   0  0  0  0  0  0
  -16.7264  -28.6483   23.0331 C   0  0  0  0  0  0
  -26.4454  -31.6604   25.0708 C   0  0  0  0  0  0
  -25.3723  -31.3713   26.1476 C   0  0  0  0  0  0
  -27.0294  -30.3053   24.6069 C   0  0  0  0  0  0
  -27.6012  -32.4346   25.7490 C   0  0  0  0  0  0
  -27.5586  -37.1824   24.8451 C   0  0  0  0  0  0
  -21.4167  -29.3015   22.3738 N   0  0  0  0  0  0
  -26.4309  -37.3800   23.9384 N   0  0  0  0  0  0
  -24.6764  -31.0672   22.0973 N   0  0  0  0  0  0
  -23.4207  -28.8160   23.3002 O   0  0  0  0  0  0
  -28.3935  -26.6199   20.1615 O   0  0  0  0  0  0
  -26.5609  -34.8931   22.4672 O   0  0  0  0  0  0
  -23.5385  -32.1410   23.7409 O   0  0  0  0  0  0
  -29.3200  -20.3512   20.4823 C   0  0  0  0  0  0
  -27.3174  -20.8217   19.7933 C   0  0  0  0  0  0
  -28.5388  -19.2071   20.5976 C   0  0  0  0  0  0
  -31.5704  -16.0602   23.2464 C   0  0  0  0  0  0
  -28.6392  -24.0974   21.7465 C   0  0  0  0  0  0
  -28.7968  -17.8169   21.2086 C   0  0  0  0  0  0
  -28.9118  -22.7665   19.5721 C   0  0  0  0  0  0
  -30.2128  -15.5323   22.7415 C   0  0  0  0  0  0
  -29.9789  -16.9323   20.6730 C   0  0  0  0  0  0
  -28.5384  -25.3365   19.4898 C   0  0  0  0  0  0
  -28.2222  -24.0024   20.2684 C   0  0  2  0  0  0
  -27.2607  -19.5327   20.1331 N   0  0  0  0  0  0
  -28.5176  -21.3921   19.9720 N   0  0  0  0  0  0
  -30.0829  -15.5521   21.2689 N   0  0  0  0  0  0
  -31.4635  -12.4440   19.1465 H   0  0  0  0  0  0
  -30.3224  -11.3458   19.8584 H   0  0  0  0  0  0
  -29.7552  -11.7858   17.4514 H   0  0  0  0  0  0
  -29.6557  -13.5006   17.7669 H   0  0  0  0  0  0
  -27.8368  -11.3124   18.8228 H   0  0  0  0  0  0
  -27.3699  -12.6341   17.7898 H   0  0  0  0  0  0
  -27.6940  -14.2615   19.5670 H   0  0  0  0  0  0
  -28.6817  -12.0025   21.3695 H   0  0  0  0  0  0
  -28.4198  -13.6500   21.8530 H   0  0  0  0  0  0
  -25.2774   -9.5702   22.4726 H   0  0  0  0  0  0
  -23.9995   -7.4668   22.7508 H   0  0  0  0  0  0
  -21.0829   -8.8759   19.8956 H   0  0  0  0  0  0
  -22.3676  -10.9660   19.6135 H   0  0  0  0  0  0
  -21.2007   -7.6142   23.9700 H   0  0  0  0  0  0
  -21.1490   -6.0519   25.9062 H   0  0  0  0  0  0
  -22.0592   -2.7609   23.2839 H   0  0  0  0  0  0
  -22.4175  -11.9896   22.4738 H   0  0  0  0  0  0
  -21.1118  -13.1228   22.2585 H   0  0  0  0  0  0
  -24.6576  -15.8398   20.5204 H   0  0  0  0  0  0
  -26.2770  -15.6322   20.0859 H   0  0  0  0  0  0
  -26.7132  -32.5505   23.1121 H   0  0  0  0  0  0
  -25.0105  -33.9740   25.0466 H   0  0  0  0  0  0
  -22.7036  -31.3042   21.4054 H   0  0  0  0  0  0
  -23.3757  -35.9667   23.3299 H   0  0  0  0  0  0
  -24.3583  -36.8946   22.2058 H   0  0  0  0  0  0
  -23.7262  -37.6528   23.6660 H   0  0  0  0  0  0
  -26.0587  -31.5736   20.5970 H   0  0  0  0  0  0
  -26.8291  -30.8664   21.9857 H   0  0  0  0  0  0
  -28.1010  -29.0316   21.1801 H   0  0  0  0  0  0
  -25.9972  -25.9221   19.0382 H   0  0  0  0  0  0
  -23.9710  -27.2810   19.0397 H   0  0  0  0  0  0
  -23.7441  -30.5970   19.4049 H   0  0  0  0  0  0
  -22.7398  -29.2514   19.8587 H   0  0  0  0  0  0
  -25.1312  -36.1980   25.0819 H   0  0  0  0  0  0
  -20.9934  -28.3173   24.1456 H   0  0  0  0  0  0
  -20.5696  -26.2226   23.3587 H   0  0  0  0  0  0
  -21.6635  -26.7440   22.1207 H   0  0  0  0  0  0
  -19.6935  -25.6285   21.1223 H   0  0  0  0  0  0
  -19.6684  -27.3178   20.6744 H   0  0  0  0  0  0
  -17.4203  -26.6634   21.3975 H   0  0  0  0  0  0
  -18.0274  -26.0027   22.9003 H   0  0  0  0  0  0
  -19.7958  -30.7216   24.2214 H   0  0  0  0  0  0
  -17.5043  -31.6233   24.5142 H   0  0  0  0  0  0
  -15.5351  -30.2946   23.7677 H   0  0  0  0  0  0
  -15.8665  -28.0817   22.7019 H   0  0  0  0  0  0
  -24.5884  -30.7057   25.7822 H   0  0  0  0  0  0
  -24.8913  -32.2875   26.4928 H   0  0  0  0  0  0
  -25.8112  -30.8900   27.0230 H   0  0  0  0  0  0
  -26.2847  -29.6798   24.1127 H   0  0  0  0  0  0
  -27.4094  -29.7291   25.4506 H   0  0  0  0  0  0
  -27.8670  -30.4368   23.9213 H   0  0  0  0  0  0
  -27.2610  -33.3642   26.2059 H   0  0  0  0  0  0
  -28.3843  -32.6901   25.0344 H   0  0  0  0  0  0
  -28.0649  -31.8477   26.5423 H   0  0  0  0  0  0
  -28.2601  -38.0119   24.7530 H   0  0  0  0  0  0
  -28.1109  -36.2667   24.6289 H   0  0  0  0  0  0
  -27.2300  -37.1469   25.8848 H   0  0  0  0  0  0
  -20.9331  -29.8810   21.7020 H   0  0  0  0  0  0
  -26.0208  -38.2886   24.1397 H   0  0  0  0  0  0
  -30.3650  -20.5076   20.7217 H   0  0  0  0  0  0
  -26.4728  -21.3535   19.3754 H   0  0  0  0  0  0
  -31.6233  -16.0036   24.3347 H   0  0  0  0  0  0
  -31.7335  -17.1043   22.9722 H   0  0  0  0  0  0
  -32.4021  -15.4748   22.8513 H   0  0  0  0  0  0
  -28.4692  -23.1576   22.2746 H   0  0  0  0  0  0
  -28.0735  -24.8740   22.2641 H   0  0  0  0  0  0
  -29.6975  -24.3422   21.8375 H   0  0  0  0  0  0
  -27.8873  -17.2198   21.1216 H   0  0  0  0  0  0
  -28.9256  -17.9636   22.2789 H   0  0  0  0  0  0
  -29.9920  -22.8492   19.6921 H   0  0  0  0  0  0
  -28.7314  -22.8355   18.4975 H   0  0  0  0  0  0
  -29.3972  -16.0784   23.2107 H   0  0  0  0  0  0
  -30.0980  -14.5133   23.1138 H   0  0  0  0  0  0
  -30.9216  -17.4612   20.8217 H   0  0  0  0  0  0
  -29.8649  -16.8352   19.5916 H   0  0  0  0  0  0
  -28.0286  -25.3311   18.5268 H   0  0  0  0  0  0
  -29.5945  -25.3075   19.2212 H   0  0  0  0  0  0
  -27.1419  -23.8544   20.2447 H   0  0  0  0  0  0
  1 25  1  0  0  0
  1 30  2  0  0  0
  1 84  1  0  0  0
  2  3  1  0  0  0
  2 25  1  0  0  0
  2 85  1  0  0  0
  2 86  1  0  0  0
  3  4  1  0  0  0
  3 87  1  0  0  0
  3 88  1  0  0  0
  4  5  1  0  0  0
  4 89  1  0  0  0
  4 90  1  0  0  0
  5  6  1  0  0  0
  5 26  1  0  0  0
  5 91  1  0  0  0
  6 25  1  0  0  0
  6 92  1  0  0  0
  6 93  1  0  0  0
  7  8  2  0  0  0
  7 26  1  0  0  0
  7 29  1  0  0  0
  8  9  1  0  0  0
  8 22  1  0  0  0
  9 10  1  0  0  0
  9 27  2  0  0  0
 10 11  2  0  0  0
 10 15  1  0  0  0
 11 12  1  0  0  0
 11 94  1  0  0  0
 12 13  2  0  0  0
 12 95  1  0  0  0
 13 14  1  0  0  0
 13 31  1  0  0  0
 14 15  2  0  0  0
 14 96  1  0  0  0
 15 97  1  0  0  0
 16 17  2  0  0  0
 16 21  1  0  0  0
 16 31  1  0  0  0
 17 18  1  0  0  0
 17 98  1  0  0  0
 18 19  2  0  0  0
 18 99  1  0  0  0
 19 20  1  0  0  0
 19 24  1  0  0  0
 20 21  2  0  0  0
 20100  1  0  0  0
 21 23  1  0  0  0
 22 28  1  0  0  0
 22 32  2  0  0  0
 26 27  1  0  0  0
 28101  1  0  0  0
 28102  1  0  0  0
 29103  1  0  0  0
 29104  1  0  0  0
 33 34  1  0  0  0
 33 66  1  0  0  0
 33 70  2  0  0  0
 34 36  1  0  0  0
 34 59  1  0  0  0
 34105  1  0  0  0
 35 44  2  0  0  0
 35 45  1  0  0  0
 35 68  1  0  0  0
 36 56  1  0  0  0
 36106  1  0  0  0
 37 39  1  0  0  0
 37 47  1  0  0  0
 37 66  1  0  0  0
 37107  1  0  0  0
 38 43  2  0  0  0
 38 46  1  0  0  0
 38 47  1  0  0  0
 39 64  1  0  0  0
 39 67  2  0  0  0
 40 52  1  0  0  0
 40 53  2  0  0  0
 40 58  1  0  0  0
 41108  1  0  0  0
 41109  1  0  0  0
 41110  1  0  0  0
 41 48  1  0  0  0
 42 43  1  0  0  0
 42 66  1  0  0  0
 42111  1  0  0  0
 42112  1  0  0  0
 43 44  1  0  0  0
 44113  1  0  0  0
 45 46  2  0  0  0
 45114  1  0  0  0
 46115  1  0  0  0
 47116  1  0  0  0
 47117  1  0  0  0
 48 56  1  0  0  0
 48 65  1  0  0  0
 48118  1  0  0  0
 49 50  1  0  0  0
 49 53  1  0  0  0
 49 64  1  0  0  0
 49119  1  0  0  0
 50 51  1  0  0  0
 50120  1  0  0  0
 50121  1  0  0  0
 51 52  1  0  0  0
 51122  1  0  0  0
 51123  1  0  0  0
 52124  1  0  0  0
 52125  1  0  0  0
 53 54  1  0  0  0
 54 55  2  0  0  0
 54126  1  0  0  0
 55 57  1  0  0  0
 55127  1  0  0  0
 56 69  2  0  0  0
 57 58  2  0  0  0
 57128  1  0  0  0
 58129  1  0  0  0
 59 60  1  0  0  0
 59 61  1  0  0  0
 59 62  1  0  0  0
 60130  1  0  0  0
 60131  1  0  0  0
 60132  1  0  0  0
 61133  1  0  0  0
 61134  1  0  0  0
 61135  1  0  0  0
 62136  1  0  0  0
 62137  1  0  0  0
 62138  1  0  0  0
 63 65  1  0  0  0
 63139  1  0  0  0
 63140  1  0  0  0
 63141  1  0  0  0
 64142  1  0  0  0
 65143  1  0  0  0
 68 80  1  0  0  0
 71 73  2  0  0  0
 71 83  1  0  0  0
 71144  1  0  0  0
 72 82  2  0  0  0
 72 83  1  0  0  0
 72145  1  0  0  0
 73 76  1  0  0  0
 73 82  1  0  0  0
 74 78  1  0  0  0
 74146  1  0  0  0
 74147  1  0  0  0
 74148  1  0  0  0
 75149  1  0  0  0
 75150  1  0  0  0
 75151  1  0  0  0
 75 81  1  0  0  0
 76 79  1  0  0  0
 76152  1  0  0  0
 76153  1  0  0  0
 77 81  1  0  0  0
 77 83  1  0  0  0
 77154  1  0  0  0
 77155  1  0  0  0
 78 84  1  0  0  0
 78156  1  0  0  0
 78157  1  0  0  0
 79 84  1  0  0  0
 79158  1  0  0  0
 79159  1  0  0  0
 80 81  1  0  0  0
 80160  1  0  0  0
 80161  1  0  0  0
 81162  1  0  0  0
M  ISO  4   1 100  68 101  80 101  84 100
M  END
> <chiral flag>
0

> <version>
0

> <s_m_source_file>
/data/baiqing/PycharmProjects/Reinvent-master-3.2/result/LINK_invent/BTK/process_docking_weight1_custom_sum_contain_oxygen_bond_distance_aromatic_linkinvent_7_9_3/rearranged_h_0051.sdf

> <i_m_source_file_index>
26

> <r_mmod_Potential_Energy-OPLS-2005>
165.6376953125

> <r_mmod_Stretch_Energy-OPLS-2005>
59.2418060302734

> <r_mmod_Bend_Energy-OPLS-2005>
142.128189086914

> <r_mmod_Torsional_Energy-OPLS-2005>
298.127777099609

> <r_mmod_Improper_Torsional_Energy-OPLS-2005>
6.54992198944092

> <r_mmod_Van_der_Waal_Energy-OPLS-2005>
118.054695129395

> <r_mmod_Electrostatic_Energy-OPLS-2005>
-278.679016113281

> <r_mmod_Solvation_Energy-OPLS-2005>
-202.587692260742

> <b_mmod_Minimization_Converged-OPLS-2005>
0

> <r_mmod_RMS_Derivative-OPLS-2005>
3.26188182830811

$$$$
27
                    3D
 Structure written by MMmdl.
163171  0  0  1  0            999 V2000
  -30.7179  -14.4378   20.5409 C   0  0  0  0  0  0
  -30.4123  -12.2756   19.4221 C   0  0  0  0  0  0
  -29.4903  -12.4981   18.2046 C   0  0  0  0  0  0
  -28.0080  -12.3716   18.6106 C   0  0  0  0  0  0
  -27.6577  -13.2093   19.8700 C   0  0  2  0  0  0
  -28.7003  -12.9951   20.9919 C   0  0  0  0  0  0
  -25.2580  -13.8180   20.5706 C   0  0  0  0  0  0
  -24.1842  -13.0462   20.9210 C   0  0  0  0  0  0
  -24.6378  -11.6925   20.8720 C   0  0  0  0  0  0
  -23.9039  -10.4318   21.0381 C   0  0  0  0  0  0
  -24.3607   -9.4243   21.9161 C   0  0  0  0  0  0
  -23.6298   -8.2267   22.0734 C   0  0  0  0  0  0
  -22.4270   -8.0294   21.3546 C   0  0  0  0  0  0
  -21.9907   -9.0252   20.4639 C   0  0  0  0  0  0
  -22.7211  -10.2139   20.3034 C   0  0  0  0  0  0
  -21.6860   -6.0745   22.5277 C   0  0  0  0  0  0
  -21.4021   -6.5647   23.8213 C   0  0  0  0  0  0
  -21.3656   -5.6797   24.9173 C   0  0  0  0  0  0
  -21.6032   -4.3057   24.7222 C   0  0  0  0  0  0
  -21.8827   -3.8152   23.4345 C   0  0  0  0  0  0
  -21.9212   -4.6974   22.3402 C   0  0  0  0  0  0
  -22.7871  -13.5246   21.1893 C   0  0  0  0  0  0
  -22.1690   -4.2161   21.0982 F   0  0  0  0  0  0
  -21.5619   -3.4544   25.7739 F   0  0  0  0  0  0
  -30.0361  -13.2661   20.4415 N   0  0  0  0  0  0
  -26.3005  -12.9350   20.3351 N   0  0  0  0  0  0
  -25.9298  -11.6505   20.5719 N   0  0  0  0  0  0
  -22.0522  -12.8196   22.0419 N   0  0  0  0  0  0
  -25.4326  -15.1904   20.4110 N   0  0  0  0  0  0
  -31.8788  -14.5494   20.1380 O   0  0  0  0  0  0
  -21.6654   -6.8880   21.4233 O   0  0  0  0  0  0
  -22.3556  -14.5570   20.6774 O   0  0  0  0  0  0
  -24.6102  -31.8719   23.2124 C   0  0  0  0  0  0
  -25.9006  -32.4853   23.8407 C   0  0  1  0  0  0
  -27.2338  -27.4640   20.0910 C   0  0  0  0  0  0
  -25.5879  -33.8645   24.2361 N   0  0  0  0  0  0
  -23.3957  -30.4971   21.5530 C   0  0  2  0  0  0
  -24.8416  -28.9683   20.1157 C   0  0  0  0  0  0
  -22.7372  -29.4691   22.5000 C   0  0  0  0  0  0
  -18.0259  -28.1357   22.8500 C   0  0  0  0  0  0
  -24.1489  -36.7331   23.2638 C   0  0  0  0  0  0
  -25.9222  -30.8489   21.3597 C   0  0  0  0  0  0
  -26.0008  -29.4860   20.7052 C   0  0  0  0  0  0
  -27.2013  -28.7429   20.6851 C   0  0  0  0  0  0
  -26.0538  -26.9548   19.4997 C   0  0  0  0  0  0
  -24.8611  -27.7015   19.5098 C   0  0  0  0  0  0
  -23.6022  -29.8320   20.1670 C   0  0  0  0  0  0
  -25.4101  -36.3122   24.0344 C   0  0  1  0  0  0
  -20.5859  -28.3649   23.1325 C   0  0  2  0  0  0
  -20.6765  -26.9393   22.5414 C   0  0  0  0  0  0
  -19.5751  -26.6383   21.5202 C   0  0  0  0  0  0
  -18.1927  -26.7911   22.1615 C   0  0  0  0  0  0
  -19.1509  -28.8812   23.2924 C   0  0  0  0  0  0
  -18.9443  -30.1419   23.8939 C   0  0  0  0  0  0
  -17.6449  -30.6586   24.0555 C   0  0  0  0  0  0
  -25.9018  -34.9493   23.5146 C   0  0  0  0  0  0
  -16.5337  -29.9089   23.6323 C   0  0  0  0  0  0
  -16.7250  -28.6493   23.0366 C   0  0  0  0  0  0
  -26.4454  -31.6601   25.0711 C   0  0  0  0  0  0
  -25.3734  -31.3666   26.1467 C   0  0  0  0  0  0
  -27.0276  -30.3050   24.6043 C   0  0  0  0  0  0
  -27.6051  -32.4291   25.7463 C   0  0  0  0  0  0
  -27.5586  -37.1813   24.8464 C   0  0  0  0  0  0
  -21.4102  -29.3034   22.3731 N   0  0  0  0  0  0
  -26.4300  -37.3794   23.9402 N   0  0  0  0  0  0
  -24.6612  -31.0846   22.1012 N   0  0  0  0  0  0
  -23.4162  -28.8227   23.3022 O   0  0  0  0  0  0
  -28.4155  -26.7575   20.1037 O   0  0  0  0  0  0
  -26.5587  -34.8928   22.4712 O   0  0  0  0  0  0
  -23.5302  -32.1467   23.7534 O   0  0  0  0  0  0
  -27.2131  -21.3573   19.8160 C   0  0  0  0  0  0
  -28.1157  -20.9267   18.8040 C   0  0  0  0  0  0
  -28.7411  -22.0799   18.4081 C   0  0  0  0  0  0
  -29.7685  -22.3078   17.3465 C   0  0  0  0  0  0
  -29.9224  -18.9231   21.0622 C   0  0  0  0  0  0
  -28.2745  -19.5378   18.2335 C   0  0  0  0  0  0
  -30.0045  -15.7483   20.9321 C   0  0  0  0  0  0
  -28.4736  -24.5513   19.0313 C   0  0  0  0  0  0
  -29.5919  -18.8266   18.6147 C   0  0  0  0  0  0
  -30.3026  -16.8084   19.8331 C   0  0  0  0  0  0
  -28.3168  -25.3501   20.3393 C   0  0  0  0  0  0
  -27.2735  -22.6630   20.0191 N   0  0  0  0  0  0
  -28.2184  -23.1170   19.1624 N   0  0  0  0  0  0
  -29.5284  -18.0808   19.9077 N   0  3  1  0  0  0
  -31.4587  -12.3518   19.1202 H   0  0  0  0  0  0
  -30.2884  -11.2658   19.8168 H   0  0  0  0  0  0
  -29.7224  -11.7802   17.4173 H   0  0  0  0  0  0
  -29.6751  -13.4860   17.7811 H   0  0  0  0  0  0
  -27.8044  -11.3167   18.7939 H   0  0  0  0  0  0
  -27.3633  -12.6607   17.7788 H   0  0  0  0  0  0
  -27.6944  -14.2545   19.5652 H   0  0  0  0  0  0
  -28.6556  -11.9665   21.3514 H   0  0  0  0  0  0
  -28.4795  -13.6141   21.8618 H   0  0  0  0  0  0
  -25.2754   -9.5745   22.4736 H   0  0  0  0  0  0
  -24.0042   -7.4642   22.7420 H   0  0  0  0  0  0
  -21.0865   -8.8736   19.8921 H   0  0  0  0  0  0
  -22.3647  -10.9671   19.6148 H   0  0  0  0  0  0
  -21.2004   -7.6154   23.9718 H   0  0  0  0  0  0
  -21.1472   -6.0530   25.9074 H   0  0  0  0  0  0
  -22.0604   -2.7617   23.2840 H   0  0  0  0  0  0
  -22.4174  -11.9850   22.4770 H   0  0  0  0  0  0
  -21.1116  -13.1158   22.2616 H   0  0  0  0  0  0
  -24.6659  -15.8476   20.5095 H   0  0  0  0  0  0
  -26.2813  -15.6172   20.0661 H   0  0  0  0  0  0
  -26.7066  -32.5586   23.1169 H   0  0  0  0  0  0
  -25.0019  -33.9818   25.0496 H   0  0  0  0  0  0
  -22.6834  -31.3126   21.4148 H   0  0  0  0  0  0
  -23.3745  -35.9670   23.3319 H   0  0  0  0  0  0
  -24.3583  -36.8936   22.2051 H   0  0  0  0  0  0
  -23.7264  -37.6549   23.6635 H   0  0  0  0  0  0
  -26.0290  -31.6190   20.5952 H   0  0  0  0  0  0
  -26.8117  -30.9043   21.9752 H   0  0  0  0  0  0
  -28.0970  -29.1425   21.1411 H   0  0  0  0  0  0
  -26.0398  -25.9853   19.0272 H   0  0  0  0  0  0
  -23.9681  -27.2960   19.0547 H   0  0  0  0  0  0
  -23.7094  -30.6088   19.4087 H   0  0  0  0  0  0
  -22.7262  -29.2506   19.8722 H   0  0  0  0  0  0
  -25.1281  -36.1995   25.0839 H   0  0  0  0  0  0
  -20.9957  -28.3213   24.1442 H   0  0  0  0  0  0
  -20.5672  -26.2254   23.3588 H   0  0  0  0  0  0
  -21.6643  -26.7459   22.1207 H   0  0  0  0  0  0
  -19.6933  -25.6300   21.1228 H   0  0  0  0  0  0
  -19.6699  -27.3199   20.6737 H   0  0  0  0  0  0
  -17.4200  -26.6649   21.4017 H   0  0  0  0  0  0
  -18.0342  -26.0030   22.8990 H   0  0  0  0  0  0
  -19.7918  -30.7206   24.2363 H   0  0  0  0  0  0
  -17.5013  -31.6284   24.5120 H   0  0  0  0  0  0
  -15.5348  -30.3011   23.7629 H   0  0  0  0  0  0
  -15.8642  -28.0821   22.7097 H   0  0  0  0  0  0
  -24.5918  -30.7002   25.7805 H   0  0  0  0  0  0
  -24.8901  -32.2797   26.4933 H   0  0  0  0  0  0
  -25.8114  -30.8827   27.0207 H   0  0  0  0  0  0
  -26.2808  -29.6801   24.1133 H   0  0  0  0  0  0
  -27.4117  -29.7282   25.4467 H   0  0  0  0  0  0
  -27.8600  -30.4392   23.9135 H   0  0  0  0  0  0
  -27.2710  -33.3581   26.2080 H   0  0  0  0  0  0
  -28.3843  -32.6862   25.0281 H   0  0  0  0  0  0
  -28.0724  -31.8379   26.5341 H   0  0  0  0  0  0
  -28.2611  -38.0103   24.7516 H   0  0  0  0  0  0
  -28.1089  -36.2642   24.6300 H   0  0  0  0  0  0
  -27.2305  -37.1493   25.8868 H   0  0  0  0  0  0
  -20.9231  -29.8743   21.6967 H   0  0  0  0  0  0
  -26.0205  -38.2884   24.1374 H   0  0  0  0  0  0
  -26.5035  -20.7718   20.3847 H   0  0  0  0  0  0
  -30.6532  -22.7918   17.7579 H   0  0  0  0  0  0
  -29.3707  -22.9412   16.5543 H   0  0  0  0  0  0
  -30.0903  -21.3714   16.8932 H   0  0  0  0  0  0
  -29.3304  -19.8372   21.1035 H   0  0  0  0  0  0
  -30.9728  -19.2139   20.9993 H   0  0  0  0  0  0
  -29.7658  -18.3965   22.0046 H   0  0  0  0  0  0
  -28.2342  -19.6014   17.1443 H   0  0  0  0  0  0
  -27.4256  -18.9059   18.4949 H   0  0  0  0  0  0
  -28.9290  -15.6179   21.0296 H   0  0  0  0  0  0
  -30.3765  -16.0701   21.9044 H   0  0  0  0  0  0
  -29.4860  -24.6991   18.6555 H   0  0  0  0  0  0
  -27.8095  -24.9348   18.2581 H   0  0  0  0  0  0
  -30.4421  -19.5104   18.5980 H   0  0  0  0  0  0
  -29.7910  -18.1257   17.8028 H   0  0  0  0  0  0
  -30.0836  -16.3264   18.8780 H   0  0  0  0  0  0
  -31.3678  -17.0429   19.8080 H   0  0  0  0  0  0
  -29.1113  -25.0640   21.0293 H   0  0  0  0  0  0
  -27.3861  -25.1119   20.8556 H   0  0  0  0  0  0
  -28.5609  -17.8279   20.0368 H   0  0  0  0  0  0
  1 25  1  0  0  0
  1 30  2  0  0  0
  1 77  1  0  0  0
  2  3  1  0  0  0
  2 25  1  0  0  0
  2 85  1  0  0  0
  2 86  1  0  0  0
  3  4  1  0  0  0
  3 87  1  0  0  0
  3 88  1  0  0  0
  4  5  1  0  0  0
  4 89  1  0  0  0
  4 90  1  0  0  0
  5  6  1  0  0  0
  5 26  1  0  0  0
  5 91  1  0  0  0
  6 25  1  0  0  0
  6 92  1  0  0  0
  6 93  1  0  0  0
  7  8  2  0  0  0
  7 26  1  0  0  0
  7 29  1  0  0  0
  8  9  1  0  0  0
  8 22  1  0  0  0
  9 10  1  0  0  0
  9 27  2  0  0  0
 10 11  2  0  0  0
 10 15  1  0  0  0
 11 12  1  0  0  0
 11 94  1  0  0  0
 12 13  2  0  0  0
 12 95  1  0  0  0
 13 14  1  0  0  0
 13 31  1  0  0  0
 14 15  2  0  0  0
 14 96  1  0  0  0
 15 97  1  0  0  0
 16 17  2  0  0  0
 16 21  1  0  0  0
 16 31  1  0  0  0
 17 18  1  0  0  0
 17 98  1  0  0  0
 18 19  2  0  0  0
 18 99  1  0  0  0
 19 20  1  0  0  0
 19 24  1  0  0  0
 20 21  2  0  0  0
 20100  1  0  0  0
 21 23  1  0  0  0
 22 28  1  0  0  0
 22 32  2  0  0  0
 26 27  1  0  0  0
 28101  1  0  0  0
 28102  1  0  0  0
 29103  1  0  0  0
 29104  1  0  0  0
 33 34  1  0  0  0
 33 66  1  0  0  0
 33 70  2  0  0  0
 34 36  1  0  0  0
 34 59  1  0  0  0
 34105  1  0  0  0
 35 44  2  0  0  0
 35 45  1  0  0  0
 35 68  1  0  0  0
 36 56  1  0  0  0
 36106  1  0  0  0
 37 39  1  0  0  0
 37 47  1  0  0  0
 37 66  1  0  0  0
 37107  1  0  0  0
 38 43  2  0  0  0
 38 46  1  0  0  0
 38 47  1  0  0  0
 39 64  1  0  0  0
 39 67  2  0  0  0
 40 52  1  0  0  0
 40 53  2  0  0  0
 40 58  1  0  0  0
 41108  1  0  0  0
 41109  1  0  0  0
 41110  1  0  0  0
 41 48  1  0  0  0
 42 43  1  0  0  0
 42 66  1  0  0  0
 42111  1  0  0  0
 42112  1  0  0  0
 43 44  1  0  0  0
 44113  1  0  0  0
 45 46  2  0  0  0
 45114  1  0  0  0
 46115  1  0  0  0
 47116  1  0  0  0
 47117  1  0  0  0
 48 56  1  0  0  0
 48 65  1  0  0  0
 48118  1  0  0  0
 49 50  1  0  0  0
 49 53  1  0  0  0
 49 64  1  0  0  0
 49119  1  0  0  0
 50 51  1  0  0  0
 50120  1  0  0  0
 50121  1  0  0  0
 51 52  1  0  0  0
 51122  1  0  0  0
 51123  1  0  0  0
 52124  1  0  0  0
 52125  1  0  0  0
 53 54  1  0  0  0
 54 55  2  0  0  0
 54126  1  0  0  0
 55 57  1  0  0  0
 55127  1  0  0  0
 56 69  2  0  0  0
 57 58  2  0  0  0
 57128  1  0  0  0
 58129  1  0  0  0
 59 60  1  0  0  0
 59 61  1  0  0  0
 59 62  1  0  0  0
 60130  1  0  0  0
 60131  1  0  0  0
 60132  1  0  0  0
 61133  1  0  0  0
 61134  1  0  0  0
 61135  1  0  0  0
 62136  1  0  0  0
 62137  1  0  0  0
 62138  1  0  0  0
 63 65  1  0  0  0
 63139  1  0  0  0
 63140  1  0  0  0
 63141  1  0  0  0
 64142  1  0  0  0
 65143  1  0  0  0
 68 81  1  0  0  0
 71 72  1  0  0  0
 71 82  2  0  0  0
 71144  1  0  0  0
 72 73  2  0  0  0
 72 76  1  0  0  0
 73 74  1  0  0  0
 73 83  1  0  0  0
 74145  1  0  0  0
 74146  1  0  0  0
 74147  1  0  0  0
 75148  1  0  0  0
 75149  1  0  0  0
 75150  1  0  0  0
 75 84  1  0  0  0
 76 79  1  0  0  0
 76151  1  0  0  0
 76152  1  0  0  0
 77 80  1  0  0  0
 77153  1  0  0  0
 77154  1  0  0  0
 78 81  1  0  0  0
 78 83  1  0  0  0
 78155  1  0  0  0
 78156  1  0  0  0
 79 84  1  0  0  0
 79157  1  0  0  0
 79158  1  0  0  0
 80 84  1  0  0  0
 80159  1  0  0  0
 80160  1  0  0  0
 81161  1  0  0  0
 81162  1  0  0  0
 82 83  1  0  0  0
 84163  1  0  0  0
M  CHG  1  84   1
M  ISO  4   1 100  68 101  77 100  81 101
M  END
> <chiral flag>
0

> <version>
0

> <s_m_source_file>
/data/baiqing/PycharmProjects/Reinvent-master-3.2/result/LINK_invent/BTK/process_docking_weight1_custom_sum_contain_oxygen_bond_distance_aromatic_linkinvent_7_9_3/rearranged_h_0051.sdf

> <i_m_source_file_index>
27

> <r_mmod_Potential_Energy-OPLS-2005>
-190.56706237793

> <r_mmod_Stretch_Energy-OPLS-2005>
33.5038261413574

> <r_mmod_Bend_Energy-OPLS-2005>
97.1684494018555

> <r_mmod_Torsional_Energy-OPLS-2005>
219.062072753906

> <r_mmod_Improper_Torsional_Energy-OPLS-2005>
5.57547426223755

> <r_mmod_Van_der_Waal_Energy-OPLS-2005>
133.648818969727

> <r_mmod_Electrostatic_Energy-OPLS-2005>
-238.276412963867

> <r_mmod_Solvation_Energy-OPLS-2005>
-454.692016601562

> <b_mmod_Minimization_Converged-OPLS-2005>
0

> <r_mmod_RMS_Derivative-OPLS-2005>
2.38871169090271

$$$$
28
                    3D
 Structure written by MMmdl.
163171  0  0  1  0            999 V2000
  -30.6632  -14.6276   20.5692 C   0  0  0  0  0  0
  -30.4325  -12.4039   19.4560 C   0  0  0  0  0  0
  -29.5075  -12.5184   18.2236 C   0  0  0  0  0  0
  -28.0297  -12.3534   18.6293 C   0  0  0  0  0  0
  -27.6523  -13.2178   19.8599 C   0  0  2  0  0  0
  -28.6892  -13.0617   20.9904 C   0  0  0  0  0  0
  -25.2561  -13.8175   20.5671 C   0  0  0  0  0  0
  -24.1824  -13.0440   20.9163 C   0  0  0  0  0  0
  -24.6383  -11.6907   20.8705 C   0  0  0  0  0  0
  -23.9048  -10.4294   21.0386 C   0  0  0  0  0  0
  -24.3601   -9.4220   21.9172 C   0  0  0  0  0  0
  -23.6279   -8.2257   22.0756 C   0  0  0  0  0  0
  -22.4266   -8.0282   21.3543 C   0  0  0  0  0  0
  -21.9888   -9.0253   20.4649 C   0  0  0  0  0  0
  -22.7212  -10.2133   20.3047 C   0  0  0  0  0  0
  -21.6854   -6.0725   22.5275 C   0  0  0  0  0  0
  -21.4016   -6.5631   23.8206 C   0  0  0  0  0  0
  -21.3660   -5.6787   24.9171 C   0  0  0  0  0  0
  -21.6045   -4.3049   24.7224 C   0  0  0  0  0  0
  -21.8819   -3.8137   23.4344 C   0  0  0  0  0  0
  -21.9194   -4.6953   22.3400 C   0  0  0  0  0  0
  -22.7853  -13.5242   21.1835 C   0  0  0  0  0  0
  -22.1663   -4.2137   21.0976 F   0  0  0  0  0  0
  -21.5630   -3.4533   25.7736 F   0  0  0  0  0  0
  -30.0098  -13.4212   20.4462 N   0  0  0  0  0  0
  -26.2976  -12.9351   20.3270 N   0  0  0  0  0  0
  -25.9310  -11.6504   20.5706 N   0  0  0  0  0  0
  -22.0505  -12.8243   22.0401 N   0  0  0  0  0  0
  -25.4304  -15.1897   20.4133 N   0  0  0  0  0  0
  -31.7670  -14.7938   20.0386 O   0  0  0  0  0  0
  -21.6639   -6.8871   21.4238 O   0  0  0  0  0  0
  -22.3541  -14.5554   20.6693 O   0  0  0  0  0  0
  -24.6254  -31.8601   23.2014 C   0  0  0  0  0  0
  -25.9105  -32.4779   23.8349 C   0  0  1  0  0  0
  -27.2285  -27.3288   20.1251 C   0  0  0  0  0  0
  -25.5922  -33.8580   24.2284 N   0  0  0  0  0  0
  -23.4185  -30.4811   21.5432 C   0  0  2  0  0  0
  -24.8671  -28.9287   20.1150 C   0  0  0  0  0  0
  -22.7460  -29.4627   22.4938 C   0  0  0  0  0  0
  -18.0294  -28.1368   22.8477 C   0  0  0  0  0  0
  -24.1485  -36.7290   23.2638 C   0  0  0  0  0  0
  -25.9568  -30.7951   21.3672 C   0  0  0  0  0  0
  -26.0338  -29.4206   20.7145 C   0  0  0  0  0  0
  -27.2202  -28.6328   20.7045 C   0  0  0  0  0  0
  -26.0423  -26.8771   19.5118 C   0  0  0  0  0  0
  -24.8719  -27.6629   19.5051 C   0  0  0  0  0  0
  -23.6345  -29.8094   20.1603 C   0  0  0  0  0  0
  -25.4111  -36.3083   24.0329 C   0  0  1  0  0  0
  -20.5887  -28.3692   23.1283 C   0  0  2  0  0  0
  -20.6794  -26.9411   22.5401 C   0  0  0  0  0  0
  -19.5776  -26.6373   21.5199 C   0  0  0  0  0  0
  -18.1950  -26.7917   22.1602 C   0  0  0  0  0  0
  -19.1539  -28.8840   23.2876 C   0  0  0  0  0  0
  -18.9461  -30.1442   23.8892 C   0  0  0  0  0  0
  -17.6461  -30.6572   24.0549 C   0  0  0  0  0  0
  -25.9048  -34.9452   23.5107 C   0  0  0  0  0  0
  -16.5355  -29.9068   23.6320 C   0  0  0  0  0  0
  -16.7279  -28.6478   23.0346 C   0  0  0  0  0  0
  -26.4501  -31.6579   25.0711 C   0  0  0  0  0  0
  -25.3741  -31.3698   26.1439 C   0  0  0  0  0  0
  -27.0346  -30.3012   24.6138 C   0  0  0  0  0  0
  -27.6065  -32.4302   25.7484 C   0  0  0  0  0  0
  -27.5576  -37.1801   24.8467 C   0  0  0  0  0  0
  -21.4171  -29.3052   22.3677 N   0  0  0  0  0  0
  -26.4293  -37.3774   23.9404 N   0  0  0  0  0  0
  -24.6858  -31.0624   22.0950 N   0  0  0  0  0  0
  -23.4179  -28.8169   23.3022 O   0  0  0  0  0  0
  -28.3618  -26.5115   20.1229 O   0  0  0  0  0  0
  -26.5617  -34.8915   22.4674 O   0  0  0  0  0  0
  -23.5421  -32.1396   23.7347 O   0  0  0  0  0  0
  -29.9041  -21.6232   19.7176 C   0  0  0  0  0  0
  -28.8354  -22.4654   20.1487 C   0  0  0  0  0  0
  -29.0357  -19.7409   20.8236 C   0  0  0  0  0  0
  -27.9824  -20.6020   21.2979 C   0  0  0  0  0  0
  -25.5169  -20.1415   21.7168 C   0  0  0  0  0  0
  -26.9944  -21.0065   23.6005 C   0  0  0  0  0  0
  -29.8048  -15.6722   22.5773 C   0  0  0  0  0  0
  -28.6548  -23.9380   19.6193 C   0  0  0  0  0  0
  -29.1794  -18.2418   21.3070 C   0  0  0  0  0  0
  -30.0388  -17.1192   20.5553 C   0  0  0  0  0  0
  -28.2445  -25.1154   20.6027 C   0  0  0  0  0  0
  -26.9297  -20.1563   22.3189 C   0  0  0  0  0  0
  -30.0094  -20.2929   20.0455 N   0  0  0  0  0  0
  -27.8665  -21.9178   20.9240 N   0  0  0  0  0  0
  -29.9865  -15.7019   21.1187 N   0  0  0  0  0  0
  -31.4745  -12.5212   19.1530 H   0  0  0  0  0  0
  -30.3683  -11.4061   19.8929 H   0  0  0  0  0  0
  -29.7752  -11.7676   17.4786 H   0  0  0  0  0  0
  -29.6523  -13.4883   17.7448 H   0  0  0  0  0  0
  -27.8648  -11.2993   18.8542 H   0  0  0  0  0  0
  -27.3776  -12.5905   17.7878 H   0  0  0  0  0  0
  -27.6767  -14.2567   19.5306 H   0  0  0  0  0  0
  -28.7045  -12.0350   21.3588 H   0  0  0  0  0  0
  -28.3911  -13.6688   21.8415 H   0  0  0  0  0  0
  -25.2751   -9.5701   22.4737 H   0  0  0  0  0  0
  -23.9986   -7.4651   22.7480 H   0  0  0  0  0  0
  -21.0817   -8.8764   19.8961 H   0  0  0  0  0  0
  -22.3662  -10.9663   19.6155 H   0  0  0  0  0  0
  -21.2012   -7.6140   23.9702 H   0  0  0  0  0  0
  -21.1482   -6.0522   25.9070 H   0  0  0  0  0  0
  -22.0597   -2.7598   23.2850 H   0  0  0  0  0  0
  -22.4112  -11.9900   22.4785 H   0  0  0  0  0  0
  -21.1134  -13.1290   22.2620 H   0  0  0  0  0  0
  -24.6705  -15.8500   20.5319 H   0  0  0  0  0  0
  -26.2925  -15.6251   20.1103 H   0  0  0  0  0  0
  -26.7170  -32.5457   23.1093 H   0  0  0  0  0  0
  -25.0072  -33.9724   25.0432 H   0  0  0  0  0  0
  -22.7118  -31.3007   21.3966 H   0  0  0  0  0  0
  -23.3744  -35.9626   23.3311 H   0  0  0  0  0  0
  -24.3579  -36.8904   22.2051 H   0  0  0  0  0  0
  -23.7238  -37.6493   23.6657 H   0  0  0  0  0  0
  -26.0823  -31.5568   20.5961 H   0  0  0  0  0  0
  -26.8386  -30.8498   21.9936 H   0  0  0  0  0  0
  -28.1208  -29.0079   21.1701 H   0  0  0  0  0  0
  -26.0186  -25.9057   19.0386 H   0  0  0  0  0  0
  -23.9764  -27.2821   19.0329 H   0  0  0  0  0  0
  -23.7552  -30.5832   19.4017 H   0  0  0  0  0  0
  -22.7549  -29.2382   19.8572 H   0  0  0  0  0  0
  -25.1289  -36.1938   25.0823 H   0  0  0  0  0  0
  -20.9970  -28.3268   24.1410 H   0  0  0  0  0  0
  -20.5719  -26.2290   23.3594 H   0  0  0  0  0  0
  -21.6662  -26.7454   22.1187 H   0  0  0  0  0  0
  -19.6943  -25.6276   21.1248 H   0  0  0  0  0  0
  -19.6719  -27.3164   20.6710 H   0  0  0  0  0  0
  -17.4225  -26.6643   21.4006 H   0  0  0  0  0  0
  -18.0361  -26.0067   22.9007 H   0  0  0  0  0  0
  -19.7933  -30.7261   24.2253 H   0  0  0  0  0  0
  -17.5025  -31.6260   24.5137 H   0  0  0  0  0  0
  -15.5356  -30.2972   23.7647 H   0  0  0  0  0  0
  -15.8680  -28.0794   22.7055 H   0  0  0  0  0  0
  -24.5929  -30.7032   25.7765 H   0  0  0  0  0  0
  -24.8918  -32.2858   26.4862 H   0  0  0  0  0  0
  -25.8086  -30.8886   27.0210 H   0  0  0  0  0  0
  -26.2918  -29.6751   24.1185 H   0  0  0  0  0  0
  -27.4087  -29.7272   25.4622 H   0  0  0  0  0  0
  -27.8762  -30.4307   23.9329 H   0  0  0  0  0  0
  -27.2687  -33.3597   26.2072 H   0  0  0  0  0  0
  -28.3881  -32.6866   25.0321 H   0  0  0  0  0  0
  -28.0726  -31.8417   26.5393 H   0  0  0  0  0  0
  -28.2601  -38.0090   24.7507 H   0  0  0  0  0  0
  -28.1064  -36.2623   24.6304 H   0  0  0  0  0  0
  -27.2296  -37.1464   25.8871 H   0  0  0  0  0  0
  -20.9358  -29.8761   21.6872 H   0  0  0  0  0  0
  -26.0175  -38.2849   24.1411 H   0  0  0  0  0  0
  -30.6728  -22.0127   19.0658 H   0  0  0  0  0  0
  -25.4682  -19.4814   20.8507 H   0  0  0  0  0  0
  -25.2112  -21.1377   21.3965 H   0  0  0  0  0  0
  -24.7851  -19.7868   22.4430 H   0  0  0  0  0  0
  -27.9940  -20.9835   24.0352 H   0  0  0  0  0  0
  -26.2998  -20.6355   24.3545 H   0  0  0  0  0  0
  -26.7428  -22.0503   23.4060 H   0  0  0  0  0  0
  -30.4701  -16.3858   23.0642 H   0  0  0  0  0  0
  -30.0322  -14.7003   23.0206 H   0  0  0  0  0  0
  -28.7761  -15.9165   22.8433 H   0  0  0  0  0  0
  -29.6010  -24.2195   19.1565 H   0  0  0  0  0  0
  -27.9354  -23.9021   18.8014 H   0  0  0  0  0  0
  -28.1696  -17.8341   21.3314 H   0  0  0  0  0  0
  -29.5060  -18.3137   22.3438 H   0  0  0  0  0  0
  -31.0816  -17.4379   20.5266 H   0  0  0  0  0  0
  -29.7140  -17.0703   19.5157 H   0  0  0  0  0  0
  -28.8983  -25.0556   21.4730 H   0  0  0  0  0  0
  -27.2434  -24.9228   20.9911 H   0  0  0  0  0  0
  -27.1402  -19.1408   22.6448 H   0  0  0  0  0  0
  1 25  1  0  0  0
  1 30  2  0  0  0
  1 85  1  0  0  0
  2  3  1  0  0  0
  2 25  1  0  0  0
  2 86  1  0  0  0
  2 87  1  0  0  0
  3  4  1  0  0  0
  3 88  1  0  0  0
  3 89  1  0  0  0
  4  5  1  0  0  0
  4 90  1  0  0  0
  4 91  1  0  0  0
  5  6  1  0  0  0
  5 26  1  0  0  0
  5 92  1  0  0  0
  6 25  1  0  0  0
  6 93  1  0  0  0
  6 94  1  0  0  0
  7  8  2  0  0  0
  7 26  1  0  0  0
  7 29  1  0  0  0
  8  9  1  0  0  0
  8 22  1  0  0  0
  9 10  1  0  0  0
  9 27  2  0  0  0
 10 11  2  0  0  0
 10 15  1  0  0  0
 11 12  1  0  0  0
 11 95  1  0  0  0
 12 13  2  0  0  0
 12 96  1  0  0  0
 13 14  1  0  0  0
 13 31  1  0  0  0
 14 15  2  0  0  0
 14 97  1  0  0  0
 15 98  1  0  0  0
 16 17  2  0  0  0
 16 21  1  0  0  0
 16 31  1  0  0  0
 17 18  1  0  0  0
 17 99  1  0  0  0
 18 19  2  0  0  0
 18100  1  0  0  0
 19 20  1  0  0  0
 19 24  1  0  0  0
 20 21  2  0  0  0
 20101  1  0  0  0
 21 23  1  0  0  0
 22 28  1  0  0  0
 22 32  2  0  0  0
 26 27  1  0  0  0
 28102  1  0  0  0
 28103  1  0  0  0
 29104  1  0  0  0
 29105  1  0  0  0
 33 34  1  0  0  0
 33 66  1  0  0  0
 33 70  2  0  0  0
 34 36  1  0  0  0
 34 59  1  0  0  0
 34106  1  0  0  0
 35 44  2  0  0  0
 35 45  1  0  0  0
 35 68  1  0  0  0
 36 56  1  0  0  0
 36107  1  0  0  0
 37 39  1  0  0  0
 37 47  1  0  0  0
 37 66  1  0  0  0
 37108  1  0  0  0
 38 43  2  0  0  0
 38 46  1  0  0  0
 38 47  1  0  0  0
 39 64  1  0  0  0
 39 67  2  0  0  0
 40 52  1  0  0  0
 40 53  2  0  0  0
 40 58  1  0  0  0
 41109  1  0  0  0
 41110  1  0  0  0
 41111  1  0  0  0
 41 48  1  0  0  0
 42 43  1  0  0  0
 42 66  1  0  0  0
 42112  1  0  0  0
 42113  1  0  0  0
 43 44  1  0  0  0
 44114  1  0  0  0
 45 46  2  0  0  0
 45115  1  0  0  0
 46116  1  0  0  0
 47117  1  0  0  0
 47118  1  0  0  0
 48 56  1  0  0  0
 48 65  1  0  0  0
 48119  1  0  0  0
 49 50  1  0  0  0
 49 53  1  0  0  0
 49 64  1  0  0  0
 49120  1  0  0  0
 50 51  1  0  0  0
 50121  1  0  0  0
 50122  1  0  0  0
 51 52  1  0  0  0
 51123  1  0  0  0
 51124  1  0  0  0
 52125  1  0  0  0
 52126  1  0  0  0
 53 54  1  0  0  0
 54 55  2  0  0  0
 54127  1  0  0  0
 55 57  1  0  0  0
 55128  1  0  0  0
 56 69  2  0  0  0
 57 58  2  0  0  0
 57129  1  0  0  0
 58130  1  0  0  0
 59 60  1  0  0  0
 59 61  1  0  0  0
 59 62  1  0  0  0
 60131  1  0  0  0
 60132  1  0  0  0
 60133  1  0  0  0
 61134  1  0  0  0
 61135  1  0  0  0
 61136  1  0  0  0
 62137  1  0  0  0
 62138  1  0  0  0
 62139  1  0  0  0
 63 65  1  0  0  0
 63140  1  0  0  0
 63141  1  0  0  0
 63142  1  0  0  0
 64143  1  0  0  0
 65144  1  0  0  0
 68 81  1  0  0  0
 71 72  2  0  0  0
 71 83  1  0  0  0
 71145  1  0  0  0
 72 78  1  0  0  0
 72 84  1  0  0  0
 73 74  1  0  0  0
 73 79  1  0  0  0
 73 83  2  0  0  0
 74 82  1  0  0  0
 74 84  2  0  0  0
 75146  1  0  0  0
 75147  1  0  0  0
 75148  1  0  0  0
 75 82  1  0  0  0
 76 82  1  0  0  0
 76149  1  0  0  0
 76150  1  0  0  0
 76151  1  0  0  0
 77 85  1  0  0  0
 77152  1  0  0  0
 77153  1  0  0  0
 77154  1  0  0  0
 78 81  1  0  0  0
 78155  1  0  0  0
 78156  1  0  0  0
 79 80  1  0  0  0
 79157  1  0  0  0
 79158  1  0  0  0
 80 85  1  0  0  0
 80159  1  0  0  0
 80160  1  0  0  0
 81161  1  0  0  0
 81162  1  0  0  0
 82163  1  0  0  0
M  ISO  4   1 100  68 101  81 101  85 100
M  END
> <chiral flag>
0

> <version>
0

> <s_m_source_file>
/data/baiqing/PycharmProjects/Reinvent-master-3.2/result/LINK_invent/BTK/process_docking_weight1_custom_sum_contain_oxygen_bond_distance_aromatic_linkinvent_7_9_3/rearranged_h_0051.sdf

> <i_m_source_file_index>
28

> <r_mmod_Potential_Energy-OPLS-2005>
253.178756713867

> <r_mmod_Stretch_Energy-OPLS-2005>
92.4113082885742

> <r_mmod_Bend_Energy-OPLS-2005>
149.245132446289

> <r_mmod_Torsional_Energy-OPLS-2005>
278.086791992188

> <r_mmod_Improper_Torsional_Energy-OPLS-2005>
7.50469303131104

> <r_mmod_Van_der_Waal_Energy-OPLS-2005>
148.043716430664

> <r_mmod_Electrostatic_Energy-OPLS-2005>
-255.353530883789

> <r_mmod_Solvation_Energy-OPLS-2005>
-207.495361328125

> <b_mmod_Minimization_Converged-OPLS-2005>
0

> <r_mmod_RMS_Derivative-OPLS-2005>
1.18358993530273

$$$$
29
                    3D
 Structure written by MMmdl.
162170  0  0  1  0            999 V2000
  -30.6552  -14.5654   20.5517 C   0  0  0  0  0  0
  -30.4349  -12.3540   19.4407 C   0  0  0  0  0  0
  -29.5056  -12.5064   18.2176 C   0  0  0  0  0  0
  -28.0273  -12.3475   18.6290 C   0  0  0  0  0  0
  -27.6575  -13.2082   19.8663 C   0  0  2  0  0  0
  -28.7014  -13.0392   20.9931 C   0  0  0  0  0  0
  -25.2588  -13.8148   20.5691 C   0  0  0  0  0  0
  -24.1844  -13.0434   20.9208 C   0  0  0  0  0  0
  -24.6397  -11.6902   20.8744 C   0  0  0  0  0  0
  -23.9062  -10.4290   21.0405 C   0  0  0  0  0  0
  -24.3613   -9.4206   21.9187 C   0  0  0  0  0  0
  -23.6292   -8.2239   22.0753 C   0  0  0  0  0  0
  -22.4273   -8.0281   21.3542 C   0  0  0  0  0  0
  -21.9908   -9.0256   20.4646 C   0  0  0  0  0  0
  -22.7230  -10.2136   20.3061 C   0  0  0  0  0  0
  -21.6849   -6.0737   22.5284 C   0  0  0  0  0  0
  -21.4009   -6.5640   23.8219 C   0  0  0  0  0  0
  -21.3661   -5.6791   24.9179 C   0  0  0  0  0  0
  -21.6048   -4.3054   24.7224 C   0  0  0  0  0  0
  -21.8819   -3.8146   23.4343 C   0  0  0  0  0  0
  -21.9193   -4.6966   22.3402 C   0  0  0  0  0  0
  -22.7868  -13.5232   21.1872 C   0  0  0  0  0  0
  -22.1664   -4.2155   21.0980 F   0  0  0  0  0  0
  -21.5636   -3.4536   25.7738 F   0  0  0  0  0  0
  -30.0250  -13.3582   20.4389 N   0  0  0  0  0  0
  -26.3014  -12.9317   20.3333 N   0  0  0  0  0  0
  -25.9325  -11.6480   20.5761 N   0  0  0  0  0  0
  -22.0498  -12.8233   22.0419 N   0  0  0  0  0  0
  -25.4294  -15.1865   20.4071 N   0  0  0  0  0  0
  -31.7885  -14.7324   20.0926 O   0  0  0  0  0  0
  -21.6633   -6.8879   21.4244 O   0  0  0  0  0  0
  -22.3570  -14.5545   20.6722 O   0  0  0  0  0  0
  -24.6207  -31.8640   23.2057 C   0  0  0  0  0  0
  -25.9073  -32.4803   23.8373 C   0  0  1  0  0  0
  -27.2297  -27.3719   20.1089 C   0  0  0  0  0  0
  -25.5909  -33.8600   24.2303 N   0  0  0  0  0  0
  -23.4111  -30.4880   21.5476 C   0  0  2  0  0  0
  -24.8566  -28.9464   20.1154 C   0  0  0  0  0  0
  -22.7445  -29.4643   22.4962 C   0  0  0  0  0  0
  -18.0281  -28.1381   22.8491 C   0  0  0  0  0  0
  -24.1487  -36.7302   23.2638 C   0  0  0  0  0  0
  -25.9467  -30.8125   21.3666 C   0  0  0  0  0  0
  -26.0229  -29.4427   20.7106 C   0  0  0  0  0  0
  -27.2128  -28.6673   20.6952 C   0  0  0  0  0  0
  -26.0383  -26.9072   19.5052 C   0  0  0  0  0  0
  -24.8626  -27.6813   19.5069 C   0  0  0  0  0  0
  -23.6222  -29.8208   20.1633 C   0  0  0  0  0  0
  -25.4108  -36.3097   24.0336 C   0  0  1  0  0  0
  -20.5877  -28.3674   23.1301 C   0  0  2  0  0  0
  -20.6772  -26.9404   22.5413 C   0  0  0  0  0  0
  -19.5750  -26.6382   21.5213 C   0  0  0  0  0  0
  -18.1927  -26.7928   22.1622 C   0  0  0  0  0  0
  -19.1532  -28.8844   23.2893 C   0  0  0  0  0  0
  -18.9455  -30.1450   23.8902 C   0  0  0  0  0  0
  -17.6457  -30.6584   24.0561 C   0  0  0  0  0  0
  -25.9042  -34.9464   23.5120 C   0  0  0  0  0  0
  -16.5349  -29.9083   23.6327 C   0  0  0  0  0  0
  -16.7269  -28.6501   23.0347 C   0  0  0  0  0  0
  -26.4480  -31.6595   25.0721 C   0  0  0  0  0  0
  -25.3731  -31.3712   26.1459 C   0  0  0  0  0  0
  -27.0316  -30.3030   24.6134 C   0  0  0  0  0  0
  -27.6055  -32.4314   25.7484 C   0  0  0  0  0  0
  -27.5584  -37.1803   24.8465 C   0  0  0  0  0  0
  -21.4166  -29.3033   22.3699 N   0  0  0  0  0  0
  -26.4293  -37.3786   23.9417 N   0  0  0  0  0  0
  -24.6781  -31.0700   22.0976 N   0  0  0  0  0  0
  -23.4193  -28.8185   23.3022 O   0  0  0  0  0  0
  -28.3824  -26.5895   20.1318 O   0  0  0  0  0  0
  -26.5607  -34.8926   22.4684 O   0  0  0  0  0  0
  -23.5382  -32.1402   23.7424 O   0  0  0  0  0  0
  -28.7768  -21.8589   20.1457 C   0  0  0  0  0  0
  -29.3130  -20.7125   20.7048 C   0  0  0  0  0  0
  -26.9926  -19.6767   22.4414 C   0  0  0  0  0  0
  -30.5994  -18.7443   18.9629 C   0  0  0  0  0  0
  -29.8948  -15.8034   21.1477 C   0  0  0  0  0  0
  -28.1815  -18.8057   21.9989 C   0  0  0  0  0  0
  -29.5902  -24.3745   20.3189 C   0  0  0  0  0  0
  -30.5116  -17.2532   20.9612 C   0  0  0  0  0  0
  -28.2338  -25.1339   20.1589 C   0  0  0  0  0  0
  -28.8258  -19.2438   20.6579 C   0  0  2  0  0  0
  -30.4230  -21.1123   21.4510 N   0  0  0  0  0  0
  -30.5688  -22.4048   21.3756 N   0  0  0  0  0  0
  -29.5684  -22.9124   20.6074 N   0  0  0  0  0  0
  -29.7526  -18.2026   20.0552 N   0  3  1  0  0  0
  -31.4777  -12.4656   19.1397 H   0  0  0  0  0  0
  -30.3541  -11.3507   19.8619 H   0  0  0  0  0  0
  -29.7633  -11.7693   17.4567 H   0  0  0  0  0  0
  -29.6593  -13.4851   17.7595 H   0  0  0  0  0  0
  -27.8586  -11.2925   18.8509 H   0  0  0  0  0  0
  -27.3729  -12.5901   17.7906 H   0  0  0  0  0  0
  -27.6838  -14.2455   19.5359 H   0  0  0  0  0  0
  -28.6957  -12.0144   21.3673 H   0  0  0  0  0  0
  -28.4520  -13.6657   21.8503 H   0  0  0  0  0  0
  -25.2756   -9.5680   22.4761 H   0  0  0  0  0  0
  -24.0007   -7.4622   22.7463 H   0  0  0  0  0  0
  -21.0845   -8.8766   19.8940 H   0  0  0  0  0  0
  -22.3686  -10.9680   19.6168 H   0  0  0  0  0  0
  -21.1983   -7.6145   23.9723 H   0  0  0  0  0  0
  -21.1496   -6.0517   25.9084 H   0  0  0  0  0  0
  -22.0592   -2.7611   23.2840 H   0  0  0  0  0  0
  -22.4093  -11.9883   22.4800 H   0  0  0  0  0  0
  -21.1114  -13.1266   22.2620 H   0  0  0  0  0  0
  -24.6536  -15.8327   20.4986 H   0  0  0  0  0  0
  -26.2666  -15.6193   20.0415 H   0  0  0  0  0  0
  -26.7145  -32.5500   23.1133 H   0  0  0  0  0  0
  -25.0056  -33.9752   25.0446 H   0  0  0  0  0  0
  -22.7021  -31.3061   21.4066 H   0  0  0  0  0  0
  -23.3753  -35.9631   23.3293 H   0  0  0  0  0  0
  -24.3574  -36.8927   22.2054 H   0  0  0  0  0  0
  -23.7235  -37.6502   23.6657 H   0  0  0  0  0  0
  -26.0680  -31.5778   20.5986 H   0  0  0  0  0  0
  -26.8313  -30.8638   21.9901 H   0  0  0  0  0  0
  -28.1126  -29.0478   21.1582 H   0  0  0  0  0  0
  -25.9904  -25.9423   19.0249 H   0  0  0  0  0  0
  -23.9668  -27.2936   19.0421 H   0  0  0  0  0  0
  -23.7360  -30.5952   19.4042 H   0  0  0  0  0  0
  -22.7442  -29.2458   19.8646 H   0  0  0  0  0  0
  -25.1287  -36.1955   25.0829 H   0  0  0  0  0  0
  -20.9970  -28.3241   24.1422 H   0  0  0  0  0  0
  -20.5668  -26.2283   23.3604 H   0  0  0  0  0  0
  -21.6643  -26.7436   22.1212 H   0  0  0  0  0  0
  -19.6909  -25.6293   21.1240 H   0  0  0  0  0  0
  -19.6694  -27.3192   20.6743 H   0  0  0  0  0  0
  -17.4199  -26.6676   21.4020 H   0  0  0  0  0  0
  -18.0326  -26.0068   22.9015 H   0  0  0  0  0  0
  -19.7929  -30.7266   24.2276 H   0  0  0  0  0  0
  -17.5008  -31.6266   24.5162 H   0  0  0  0  0  0
  -15.5348  -30.2985   23.7646 H   0  0  0  0  0  0
  -15.8669  -28.0822   22.7056 H   0  0  0  0  0  0
  -24.5906  -30.7061   25.7785 H   0  0  0  0  0  0
  -24.8921  -32.2873   26.4898 H   0  0  0  0  0  0
  -25.8071  -30.8879   27.0223 H   0  0  0  0  0  0
  -26.2872  -29.6786   24.1181 H   0  0  0  0  0  0
  -27.4060  -29.7277   25.4613 H   0  0  0  0  0  0
  -27.8720  -30.4335   23.9311 H   0  0  0  0  0  0
  -27.2684  -33.3616   26.2073 H   0  0  0  0  0  0
  -28.3859  -32.6873   25.0302 H   0  0  0  0  0  0
  -28.0730  -31.8428   26.5390 H   0  0  0  0  0  0
  -28.2599  -38.0105   24.7523 H   0  0  0  0  0  0
  -28.1087  -36.2638   24.6273 H   0  0  0  0  0  0
  -27.2306  -37.1433   25.8869 H   0  0  0  0  0  0
  -20.9326  -29.8761   21.6927 H   0  0  0  0  0  0
  -26.0179  -38.2865   24.1418 H   0  0  0  0  0  0
  -27.9200  -22.0064   19.4996 H   0  0  0  0  0  0
  -26.5776  -19.3123   23.3815 H   0  0  0  0  0  0
  -26.1928  -19.6639   21.7003 H   0  0  0  0  0  0
  -27.2865  -20.7155   22.5985 H   0  0  0  0  0  0
  -31.0555  -17.9374   18.3885 H   0  0  0  0  0  0
  -31.4022  -19.3718   19.3511 H   0  0  0  0  0  0
  -30.0093  -19.3411   18.2660 H   0  0  0  0  0  0
  -28.8721  -15.8009   20.7765 H   0  0  0  0  0  0
  -29.8112  -15.6156   22.2190 H   0  0  0  0  0  0
  -27.8358  -17.7745   21.9271 H   0  0  0  0  0  0
  -28.9271  -18.8281   22.7933 H   0  0  0  0  0  0
  -30.1444  -24.8571   21.1253 H   0  0  0  0  0  0
  -30.1886  -24.5225   19.4200 H   0  0  0  0  0  0
  -31.5335  -17.1593   20.5928 H   0  0  0  0  0  0
  -30.6540  -17.7176   21.9358 H   0  0  0  0  0  0
  -27.5705  -24.8642   20.9825 H   0  0  0  0  0  0
  -27.7700  -24.7793   19.2391 H   0  0  0  0  0  0
  -28.0024  -19.2392   19.9413 H   0  0  0  0  0  0
  -29.1104  -17.6022   19.5619 H   0  0  0  0  0  0
  1 25  1  0  0  0
  1 30  2  0  0  0
  1 75  1  0  0  0
  2  3  1  0  0  0
  2 25  1  0  0  0
  2 85  1  0  0  0
  2 86  1  0  0  0
  3  4  1  0  0  0
  3 87  1  0  0  0
  3 88  1  0  0  0
  4  5  1  0  0  0
  4 89  1  0  0  0
  4 90  1  0  0  0
  5  6  1  0  0  0
  5 26  1  0  0  0
  5 91  1  0  0  0
  6 25  1  0  0  0
  6 92  1  0  0  0
  6 93  1  0  0  0
  7  8  2  0  0  0
  7 26  1  0  0  0
  7 29  1  0  0  0
  8  9  1  0  0  0
  8 22  1  0  0  0
  9 10  1  0  0  0
  9 27  2  0  0  0
 10 11  2  0  0  0
 10 15  1  0  0  0
 11 12  1  0  0  0
 11 94  1  0  0  0
 12 13  2  0  0  0
 12 95  1  0  0  0
 13 14  1  0  0  0
 13 31  1  0  0  0
 14 15  2  0  0  0
 14 96  1  0  0  0
 15 97  1  0  0  0
 16 17  2  0  0  0
 16 21  1  0  0  0
 16 31  1  0  0  0
 17 18  1  0  0  0
 17 98  1  0  0  0
 18 19  2  0  0  0
 18 99  1  0  0  0
 19 20  1  0  0  0
 19 24  1  0  0  0
 20 21  2  0  0  0
 20100  1  0  0  0
 21 23  1  0  0  0
 22 28  1  0  0  0
 22 32  2  0  0  0
 26 27  1  0  0  0
 28101  1  0  0  0
 28102  1  0  0  0
 29103  1  0  0  0
 29104  1  0  0  0
 33 34  1  0  0  0
 33 66  1  0  0  0
 33 70  2  0  0  0
 34 36  1  0  0  0
 34 59  1  0  0  0
 34105  1  0  0  0
 35 44  2  0  0  0
 35 45  1  0  0  0
 35 68  1  0  0  0
 36 56  1  0  0  0
 36106  1  0  0  0
 37 39  1  0  0  0
 37 47  1  0  0  0
 37 66  1  0  0  0
 37107  1  0  0  0
 38 43  2  0  0  0
 38 46  1  0  0  0
 38 47  1  0  0  0
 39 64  1  0  0  0
 39 67  2  0  0  0
 40 52  1  0  0  0
 40 53  2  0  0  0
 40 58  1  0  0  0
 41108  1  0  0  0
 41109  1  0  0  0
 41110  1  0  0  0
 41 48  1  0  0  0
 42 43  1  0  0  0
 42 66  1  0  0  0
 42111  1  0  0  0
 42112  1  0  0  0
 43 44  1  0  0  0
 44113  1  0  0  0
 45 46  2  0  0  0
 45114  1  0  0  0
 46115  1  0  0  0
 47116  1  0  0  0
 47117  1  0  0  0
 48 56  1  0  0  0
 48 65  1  0  0  0
 48118  1  0  0  0
 49 50  1  0  0  0
 49 53  1  0  0  0
 49 64  1  0  0  0
 49119  1  0  0  0
 50 51  1  0  0  0
 50120  1  0  0  0
 50121  1  0  0  0
 51 52  1  0  0  0
 51122  1  0  0  0
 51123  1  0  0  0
 52124  1  0  0  0
 52125  1  0  0  0
 53 54  1  0  0  0
 54 55  2  0  0  0
 54126  1  0  0  0
 55 57  1  0  0  0
 55127  1  0  0  0
 56 69  2  0  0  0
 57 58  2  0  0  0
 57128  1  0  0  0
 58129  1  0  0  0
 59 60  1  0  0  0
 59 61  1  0  0  0
 59 62  1  0  0  0
 60130  1  0  0  0
 60131  1  0  0  0
 60132  1  0  0  0
 61133  1  0  0  0
 61134  1  0  0  0
 61135  1  0  0  0
 62136  1  0  0  0
 62137  1  0  0  0
 62138  1  0  0  0
 63 65  1  0  0  0
 63139  1  0  0  0
 63140  1  0  0  0
 63141  1  0  0  0
 64142  1  0  0  0
 65143  1  0  0  0
 68 79  1  0  0  0
 71 72  2  0  0  0
 71 83  1  0  0  0
 71144  1  0  0  0
 72 80  1  0  0  0
 72 81  1  0  0  0
 73 76  1  0  0  0
 73145  1  0  0  0
 73146  1  0  0  0
 73147  1  0  0  0
 74148  1  0  0  0
 74149  1  0  0  0
 74150  1  0  0  0
 74 84  1  0  0  0
 75 78  1  0  0  0
 75151  1  0  0  0
 75152  1  0  0  0
 76153  1  0  0  0
 76154  1  0  0  0
 76 80  1  0  0  0
 77 79  1  0  0  0
 77 83  1  0  0  0
 77155  1  0  0  0
 77156  1  0  0  0
 78 84  1  0  0  0
 78157  1  0  0  0
 78158  1  0  0  0
 79159  1  0  0  0
 79160  1  0  0  0
 80 84  1  0  0  0
 80161  1  0  0  0
 81 82  2  0  0  0
 82 83  1  0  0  0
 84162  1  0  0  0
M  CHG  1  84   1
M  ISO  4   1 100  68 101  75 100  79 101
M  END
> <chiral flag>
0

> <version>
0

> <s_m_source_file>
/data/baiqing/PycharmProjects/Reinvent-master-3.2/result/LINK_invent/BTK/process_docking_weight1_custom_sum_contain_oxygen_bond_distance_aromatic_linkinvent_7_9_3/rearranged_h_0051.sdf

> <i_m_source_file_index>
29

> <r_mmod_Potential_Energy-OPLS-2005>
-159.316329956055

> <r_mmod_Stretch_Energy-OPLS-2005>
60.5278472900391

> <r_mmod_Bend_Energy-OPLS-2005>
133.121734619141

> <r_mmod_Torsional_Energy-OPLS-2005>
193.638107299805

> <r_mmod_Improper_Torsional_Energy-OPLS-2005>
3.40673112869263

> <r_mmod_Van_der_Waal_Energy-OPLS-2005>
122.404357910156

> <r_mmod_Electrostatic_Energy-OPLS-2005>
-259.025360107422

> <r_mmod_Solvation_Energy-OPLS-2005>
-439.791809082031

> <b_mmod_Minimization_Converged-OPLS-2005>
0

> <r_mmod_RMS_Derivative-OPLS-2005>
1.1939662694931

$$$$
30
                    3D
 Structure written by MMmdl.
159167  0  0  1  0            999 V2000
  -30.5348  -15.0485   20.3749 C   0  0  0  0  0  0
  -30.4395  -12.6588   19.4811 C   0  0  0  0  0  0
  -29.5216  -12.5316   18.2438 C   0  0  0  0  0  0
  -28.0569  -12.3029   18.6671 C   0  0  0  0  0  0
  -27.6154  -13.2457   19.8188 C   0  0  2  0  0  0
  -28.6662  -13.3503   20.9433 C   0  0  0  0  0  0
  -25.2453  -13.8169   20.5753 C   0  0  0  0  0  0
  -24.1755  -13.0389   20.9243 C   0  0  0  0  0  0
  -24.6382  -11.6881   20.8747 C   0  0  0  0  0  0
  -23.9070  -10.4252   21.0404 C   0  0  0  0  0  0
  -24.3617   -9.4160   21.9178 C   0  0  0  0  0  0
  -23.6279   -8.2198   22.0743 C   0  0  0  0  0  0
  -22.4257   -8.0248   21.3540 C   0  0  0  0  0  0
  -21.9909   -9.0213   20.4628 C   0  0  0  0  0  0
  -22.7244  -10.2089   20.3040 C   0  0  0  0  0  0
  -21.6842   -6.0711   22.5281 C   0  0  0  0  0  0
  -21.4011   -6.5622   23.8214 C   0  0  0  0  0  0
  -21.3678   -5.6780   24.9183 C   0  0  0  0  0  0
  -21.6059   -4.3042   24.7233 C   0  0  0  0  0  0
  -21.8815   -3.8125   23.4355 C   0  0  0  0  0  0
  -21.9183   -4.6939   22.3408 C   0  0  0  0  0  0
  -22.7789  -13.5180   21.1886 C   0  0  0  0  0  0
  -22.1651   -4.2127   21.0983 F   0  0  0  0  0  0
  -21.5639   -3.4522   25.7752 F   0  0  0  0  0  0
  -29.9219  -13.7860   20.3129 N   0  0  0  0  0  0
  -26.2847  -12.9376   20.3219 N   0  0  0  0  0  0
  -25.9307  -11.6516   20.5704 N   0  0  0  0  0  0
  -22.0451  -12.8170   22.0465 N   0  0  0  0  0  0
  -25.4154  -15.1887   20.4240 N   0  0  0  0  0  0
  -31.7696  -15.0501   20.3027 O   0  0  0  0  0  0
  -21.6622   -6.8842   21.4236 O   0  0  0  0  0  0
  -22.3471  -14.5478   20.6725 O   0  0  0  0  0  0
  -24.6507  -31.8370   23.1849 C   0  0  0  0  0  0
  -25.9250  -32.4648   23.8286 C   0  0  1  0  0  0
  -27.2345  -27.0988   20.1652 C   0  0  0  0  0  0
  -25.6001  -33.8465   24.2188 N   0  0  0  0  0  0
  -23.4598  -30.4552   21.5245 C   0  0  2  0  0  0
  -24.9168  -28.8729   20.1065 C   0  0  0  0  0  0
  -22.7613  -29.4519   22.4780 C   0  0  0  0  0  0
  -18.0328  -28.1463   22.8428 C   0  0  0  0  0  0
  -24.1507  -36.7259   23.2638 C   0  0  0  0  0  0
  -26.0173  -30.7025   21.3880 C   0  0  0  0  0  0
  -26.0919  -29.3086   20.7314 C   0  0  0  0  0  0
  -27.2506  -28.4399   20.7368 C   0  0  0  0  0  0
  -26.0322  -26.7711   19.4993 C   0  0  0  0  0  0
  -24.9054  -27.6233   19.4672 C   0  0  0  0  0  0
  -23.6960  -29.7812   20.1439 C   0  0  0  0  0  0
  -25.4134  -36.2992   24.0305 C   0  0  1  0  0  0
  -20.5939  -28.3797   23.1200 C   0  0  2  0  0  0
  -20.6812  -26.9494   22.5387 C   0  0  0  0  0  0
  -19.5794  -26.6417   21.5200 C   0  0  0  0  0  0
  -18.1974  -26.7993   22.1600 C   0  0  0  0  0  0
  -19.1582  -28.8944   23.2815 C   0  0  0  0  0  0
  -18.9491  -30.1527   23.8858 C   0  0  0  0  0  0
  -17.6482  -30.6627   24.0580 C   0  0  0  0  0  0
  -25.9081  -34.9369   23.5037 C   0  0  0  0  0  0
  -16.5378  -29.9123   23.6338 C   0  0  0  0  0  0
  -16.7309  -28.6568   23.0312 C   0  0  0  0  0  0
  -26.4566  -31.6558   25.0756 C   0  0  0  0  0  0
  -25.3752  -31.3748   26.1459 C   0  0  0  0  0  0
  -27.0453  -30.2953   24.6367 C   0  0  0  0  0  0
  -27.6085  -32.4356   25.7537 C   0  0  0  0  0  0
  -27.5563  -37.1808   24.8467 C   0  0  0  0  0  0
  -21.4298  -29.3104   22.3551 N   0  0  0  0  0  0
  -26.4286  -37.3715   23.9390 N   0  0  0  0  0  0
  -24.7290  -31.0201   22.0884 N   0  0  0  0  0  0
  -23.4223  -28.8041   23.2944 O   0  0  0  0  0  0
  -28.2830  -26.1006   20.2632 O   0  0  0  0  0  0
  -26.5624  -34.8848   22.4590 O   0  0  0  0  0  0
  -23.5608  -32.1251   23.7034 O   0  0  0  0  0  0
  -28.9244  -20.9972   19.0079 C   0  0  0  0  0  0
  -29.0629  -21.6359   20.2295 C   0  0  0  0  0  0
  -29.5238  -19.2491   20.3222 C   0  0  0  0  0  0
  -27.3426  -21.2143   17.0512 C   0  0  0  0  0  0
  -29.8278  -20.5648   22.4425 C   0  0  0  0  0  0
  -29.0693  -16.4411   18.9908 C   0  0  0  0  0  0
  -28.6714  -21.6417   17.6769 C   0  0  0  0  0  0
  -29.0423  -23.2646   20.6135 C   0  0  0  0  0  0
  -30.0823  -17.7550   20.8456 C   0  0  0  0  0  0
  -28.0687  -24.5536   20.0490 C   0  0  0  0  0  0
  -29.1791  -19.5956   19.0750 N   0  0  0  0  0  0
  -29.4645  -20.4701   21.0399 N   0  0  0  0  0  0
  -29.7946  -16.2910   20.2546 N   0  0  0  0  0  0
  -31.4670  -12.8384   19.1594 H   0  0  0  0  0  0
  -30.4536  -11.7275   20.0509 H   0  0  0  0  0  0
  -29.8583  -11.7148   17.6055 H   0  0  0  0  0  0
  -29.5948  -13.4347   17.6370 H   0  0  0  0  0  0
  -27.9677  -11.2653   18.9891 H   0  0  0  0  0  0
  -27.3934  -12.4109   17.8076 H   0  0  0  0  0  0
  -27.5323  -14.2265   19.3630 H   0  0  0  0  0  0
  -28.7855  -12.3980   21.4613 H   0  0  0  0  0  0
  -28.3463  -14.0792   21.6900 H   0  0  0  0  0  0
  -25.2767   -9.5616   22.4745 H   0  0  0  0  0  0
  -23.9986   -7.4580   22.7460 H   0  0  0  0  0  0
  -21.0847   -8.8724   19.8921 H   0  0  0  0  0  0
  -22.3715  -10.9617   19.6130 H   0  0  0  0  0  0
  -21.2002   -7.6133   23.9720 H   0  0  0  0  0  0
  -21.1522   -6.0512   25.9096 H   0  0  0  0  0  0
  -22.0582   -2.7586   23.2866 H   0  0  0  0  0  0
  -22.4116  -11.9875   22.4883 H   0  0  0  0  0  0
  -21.1048  -13.1140   22.2634 H   0  0  0  0  0  0
  -24.6541  -15.8480   20.5443 H   0  0  0  0  0  0
  -26.2818  -15.6270   20.1377 H   0  0  0  0  0  0
  -26.7303  -32.5209   23.1010 H   0  0  0  0  0  0
  -25.0255  -33.9610   25.0399 H   0  0  0  0  0  0
  -22.7690  -31.2842   21.3627 H   0  0  0  0  0  0
  -23.3721  -35.9643   23.3321 H   0  0  0  0  0  0
  -24.3564  -36.8877   22.2044 H   0  0  0  0  0  0
  -23.7329  -37.6489   23.6663 H   0  0  0  0  0  0
  -26.1738  -31.4540   20.6128 H   0  0  0  0  0  0
  -26.8858  -30.7588   22.0319 H   0  0  0  0  0  0
  -28.1459  -28.7707   21.2453 H   0  0  0  0  0  0
  -25.9310  -25.8075   19.0223 H   0  0  0  0  0  0
  -24.0152  -27.2927   18.9524 H   0  0  0  0  0  0
  -23.8524  -30.5589   19.3968 H   0  0  0  0  0  0
  -22.8110  -29.2369   19.8078 H   0  0  0  0  0  0
  -25.1326  -36.1811   25.0795 H   0  0  0  0  0  0
  -21.0046  -28.3404   24.1319 H   0  0  0  0  0  0
  -20.5750  -26.2413   23.3622 H   0  0  0  0  0  0
  -21.6675  -26.7520   22.1171 H   0  0  0  0  0  0
  -19.6977  -25.6308   21.1284 H   0  0  0  0  0  0
  -19.6745  -27.3171   20.6688 H   0  0  0  0  0  0
  -17.4249  -26.6729   21.3997 H   0  0  0  0  0  0
  -18.0387  -26.0169   22.9035 H   0  0  0  0  0  0
  -19.7960  -30.7366   24.2214 H   0  0  0  0  0  0
  -17.5029  -31.6276   24.5244 H   0  0  0  0  0  0
  -15.5379  -30.3019   23.7696 H   0  0  0  0  0  0
  -15.8711  -28.0894   22.7017 H   0  0  0  0  0  0
  -24.5917  -30.7114   25.7778 H   0  0  0  0  0  0
  -24.8965  -32.2933   26.4867 H   0  0  0  0  0  0
  -25.8052  -30.8926   27.0251 H   0  0  0  0  0  0
  -26.3084  -29.6665   24.1363 H   0  0  0  0  0  0
  -27.4048  -29.7263   25.4954 H   0  0  0  0  0  0
  -27.8991  -30.4190   23.9704 H   0  0  0  0  0  0
  -27.2663  -33.3672   26.2061 H   0  0  0  0  0  0
  -28.3926  -32.6926   25.0397 H   0  0  0  0  0  0
  -28.0736  -31.8542   26.5515 H   0  0  0  0  0  0
  -28.2600  -38.0076   24.7404 H   0  0  0  0  0  0
  -28.1042  -36.2599   24.6425 H   0  0  0  0  0  0
  -27.2269  -37.1605   25.8868 H   0  0  0  0  0  0
  -20.9562  -29.8843   21.6709 H   0  0  0  0  0  0
  -26.0141  -38.2782   24.1341 H   0  0  0  0  0  0
  -27.2043  -21.6764   16.0741 H   0  0  0  0  0  0
  -26.5052  -21.5052   17.6849 H   0  0  0  0  0  0
  -27.3075  -20.1346   16.9090 H   0  0  0  0  0  0
  -29.2295  -19.8748   23.0384 H   0  0  0  0  0  0
  -29.6549  -21.5678   22.8245 H   0  0  0  0  0  0
  -30.8854  -20.3315   22.5654 H   0  0  0  0  0  0
  -28.0729  -16.8525   19.1538 H   0  0  0  0  0  0
  -28.9682  -15.5194   18.4211 H   0  0  0  0  0  0
  -29.6160  -17.1210   18.3357 H   0  0  0  0  0  0
  -29.4899  -21.4161   16.9922 H   0  0  0  0  0  0
  -28.6678  -22.7246   17.7808 H   0  0  0  0  0  0
  -30.0582  -23.6028   20.4092 H   0  0  0  0  0  0
  -28.9787  -23.3312   21.6985 H   0  0  0  0  0  0
  -29.7997  -17.6908   21.8953 H   0  0  0  0  0  0
  -31.1698  -17.8422   20.8765 H   0  0  0  0  0  0
  -27.9928  -24.4529   18.9679 H   0  0  0  0  0  0
  -27.0647  -24.3351   20.4172 H   0  0  0  0  0  0
  1 25  1  0  0  0
  1 30  2  0  0  0
  1 83  1  0  0  0
  2  3  1  0  0  0
  2 25  1  0  0  0
  2 84  1  0  0  0
  2 85  1  0  0  0
  3  4  1  0  0  0
  3 86  1  0  0  0
  3 87  1  0  0  0
  4  5  1  0  0  0
  4 88  1  0  0  0
  4 89  1  0  0  0
  5  6  1  0  0  0
  5 26  1  0  0  0
  5 90  1  0  0  0
  6 25  1  0  0  0
  6 91  1  0  0  0
  6 92  1  0  0  0
  7  8  2  0  0  0
  7 26  1  0  0  0
  7 29  1  0  0  0
  8  9  1  0  0  0
  8 22  1  0  0  0
  9 10  1  0  0  0
  9 27  2  0  0  0
 10 11  2  0  0  0
 10 15  1  0  0  0
 11 12  1  0  0  0
 11 93  1  0  0  0
 12 13  2  0  0  0
 12 94  1  0  0  0
 13 14  1  0  0  0
 13 31  1  0  0  0
 14 15  2  0  0  0
 14 95  1  0  0  0
 15 96  1  0  0  0
 16 17  2  0  0  0
 16 21  1  0  0  0
 16 31  1  0  0  0
 17 18  1  0  0  0
 17 97  1  0  0  0
 18 19  2  0  0  0
 18 98  1  0  0  0
 19 20  1  0  0  0
 19 24  1  0  0  0
 20 21  2  0  0  0
 20 99  1  0  0  0
 21 23  1  0  0  0
 22 28  1  0  0  0
 22 32  2  0  0  0
 26 27  1  0  0  0
 28100  1  0  0  0
 28101  1  0  0  0
 29102  1  0  0  0
 29103  1  0  0  0
 33 34  1  0  0  0
 33 66  1  0  0  0
 33 70  2  0  0  0
 34 36  1  0  0  0
 34 59  1  0  0  0
 34104  1  0  0  0
 35 44  2  0  0  0
 35 45  1  0  0  0
 35 68  1  0  0  0
 36 56  1  0  0  0
 36105  1  0  0  0
 37 39  1  0  0  0
 37 47  1  0  0  0
 37 66  1  0  0  0
 37106  1  0  0  0
 38 43  2  0  0  0
 38 46  1  0  0  0
 38 47  1  0  0  0
 39 64  1  0  0  0
 39 67  2  0  0  0
 40 52  1  0  0  0
 40 53  2  0  0  0
 40 58  1  0  0  0
 41107  1  0  0  0
 41108  1  0  0  0
 41109  1  0  0  0
 41 48  1  0  0  0
 42 43  1  0  0  0
 42 66  1  0  0  0
 42110  1  0  0  0
 42111  1  0  0  0
 43 44  1  0  0  0
 44112  1  0  0  0
 45 46  2  0  0  0
 45113  1  0  0  0
 46114  1  0  0  0
 47115  1  0  0  0
 47116  1  0  0  0
 48 56  1  0  0  0
 48 65  1  0  0  0
 48117  1  0  0  0
 49 50  1  0  0  0
 49 53  1  0  0  0
 49 64  1  0  0  0
 49118  1  0  0  0
 50 51  1  0  0  0
 50119  1  0  0  0
 50120  1  0  0  0
 51 52  1  0  0  0
 51121  1  0  0  0
 51122  1  0  0  0
 52123  1  0  0  0
 52124  1  0  0  0
 53 54  1  0  0  0
 54 55  2  0  0  0
 54125  1  0  0  0
 55 57  1  0  0  0
 55126  1  0  0  0
 56 69  2  0  0  0
 57 58  2  0  0  0
 57127  1  0  0  0
 58128  1  0  0  0
 59 60  1  0  0  0
 59 61  1  0  0  0
 59 62  1  0  0  0
 60129  1  0  0  0
 60130  1  0  0  0
 60131  1  0  0  0
 61132  1  0  0  0
 61133  1  0  0  0
 61134  1  0  0  0
 62135  1  0  0  0
 62136  1  0  0  0
 62137  1  0  0  0
 63 65  1  0  0  0
 63138  1  0  0  0
 63139  1  0  0  0
 63140  1  0  0  0
 64141  1  0  0  0
 65142  1  0  0  0
 68 80  1  0  0  0
 71 72  2  0  0  0
 71 77  1  0  0  0
 71 81  1  0  0  0
 72 78  1  0  0  0
 72 82  1  0  0  0
 73 79  1  0  0  0
 73 81  2  0  0  0
 73 82  1  0  0  0
 74 77  1  0  0  0
 74143  1  0  0  0
 74144  1  0  0  0
 74145  1  0  0  0
 75 82  1  0  0  0
 75146  1  0  0  0
 75147  1  0  0  0
 75148  1  0  0  0
 76 83  1  0  0  0
 76149  1  0  0  0
 76150  1  0  0  0
 76151  1  0  0  0
 77152  1  0  0  0
 77153  1  0  0  0
 78 80  1  0  0  0
 78154  1  0  0  0
 78155  1  0  0  0
 79 83  1  0  0  0
 79156  1  0  0  0
 79157  1  0  0  0
 80158  1  0  0  0
 80159  1  0  0  0
M  ISO  4   1 100  68 101  80 101  83 100
M  END
> <chiral flag>
0

> <version>
0

> <s_m_source_file>
/data/baiqing/PycharmProjects/Reinvent-master-3.2/result/LINK_invent/BTK/process_docking_weight1_custom_sum_contain_oxygen_bond_distance_aromatic_linkinvent_7_9_3/rearranged_h_0051.sdf

> <i_m_source_file_index>
30

> <r_mmod_Potential_Energy-OPLS-2005>
687.430114746094

> <r_mmod_Stretch_Energy-OPLS-2005>
323.154846191406

> <r_mmod_Bend_Energy-OPLS-2005>
306.875610351562

> <r_mmod_Torsional_Energy-OPLS-2005>
274.157012939453

> <r_mmod_Improper_Torsional_Energy-OPLS-2005>
9.64882373809814

> <r_mmod_Van_der_Waal_Energy-OPLS-2005>
107.998550415039

> <r_mmod_Electrostatic_Energy-OPLS-2005>
-376.223937988281

> <r_mmod_Solvation_Energy-OPLS-2005>
-215.464859008789

> <b_mmod_Minimization_Converged-OPLS-2005>
0

> <r_mmod_RMS_Derivative-OPLS-2005>
3.3953104019165

$$$$
31
                    3D
 Structure written by MMmdl.
165173  0  0  1  0            999 V2000
  -30.7586  -14.6282   20.4593 C   0  0  0  0  0  0
  -30.3931  -12.4053   19.4330 C   0  0  0  0  0  0
  -29.4746  -12.4676   18.2014 C   0  0  0  0  0  0
  -28.0080  -12.2992   18.6366 C   0  0  0  0  0  0
  -27.6275  -13.2160   19.8296 C   0  0  2  0  0  0
  -28.6909  -13.1786   20.9542 C   0  0  0  0  0  0
  -25.2471  -13.8172   20.5692 C   0  0  0  0  0  0
  -24.1769  -13.0441   20.9249 C   0  0  0  0  0  0
  -24.6348  -11.6910   20.8808 C   0  0  0  0  0  0
  -23.9040  -10.4292   21.0448 C   0  0  0  0  0  0
  -24.3607   -9.4198   21.9203 C   0  0  0  0  0  0
  -23.6291   -8.2230   22.0760 C   0  0  0  0  0  0
  -22.4272   -8.0275   21.3551 C   0  0  0  0  0  0
  -21.9906   -9.0247   20.4654 C   0  0  0  0  0  0
  -22.7230  -10.2126   20.3073 C   0  0  0  0  0  0
  -21.6850   -6.0715   22.5272 C   0  0  0  0  0  0
  -21.4013   -6.5624   23.8204 C   0  0  0  0  0  0
  -21.3665   -5.6788   24.9172 C   0  0  0  0  0  0
  -21.6052   -4.3049   24.7233 C   0  0  0  0  0  0
  -21.8820   -3.8130   23.4358 C   0  0  0  0  0  0
  -21.9188   -4.6942   22.3407 C   0  0  0  0  0  0
  -22.7791  -13.5226   21.1895 C   0  0  0  0  0  0
  -22.1652   -4.2123   21.0987 F   0  0  0  0  0  0
  -21.5644   -3.4536   25.7750 F   0  0  0  0  0  0
  -29.9724  -13.5096   20.3248 N   0  0  0  0  0  0
  -26.2868  -12.9347   20.3247 N   0  0  0  0  0  0
  -25.9267  -11.6512   20.5803 N   0  0  0  0  0  0
  -22.0427  -12.8223   22.0446 N   0  0  0  0  0  0
  -25.4138  -15.1899   20.4038 N   0  0  0  0  0  0
  -31.9709  -14.4724   20.3373 O   0  0  0  0  0  0
  -21.6646   -6.8864   21.4237 O   0  0  0  0  0  0
  -22.3484  -14.5526   20.6723 O   0  0  0  0  0  0
  -24.6237  -31.8629   23.2047 C   0  0  0  0  0  0
  -25.9103  -32.4797   23.8358 C   0  0  1  0  0  0
  -27.2137  -27.3558   20.0973 C   0  0  0  0  0  0
  -25.5935  -33.8594   24.2297 N   0  0  0  0  0  0
  -23.4115  -30.4895   21.5484 C   0  0  2  0  0  0
  -24.8494  -28.9479   20.1104 C   0  0  0  0  0  0
  -22.7445  -29.4644   22.4953 C   0  0  0  0  0  0
  -18.0293  -28.1387   22.8487 C   0  0  0  0  0  0
  -24.1488  -36.7297   23.2634 C   0  0  0  0  0  0
  -25.9481  -30.8059   21.3650 C   0  0  0  0  0  0
  -26.0171  -29.4357   20.7089 C   0  0  0  0  0  0
  -27.2002  -28.6488   20.6942 C   0  0  0  0  0  0
  -26.0150  -26.8988   19.5007 C   0  0  0  0  0  0
  -24.8486  -27.6838   19.5010 C   0  0  0  0  0  0
  -23.6180  -29.8259   20.1619 C   0  0  0  0  0  0
  -25.4114  -36.3096   24.0333 C   0  0  1  0  0  0
  -20.5888  -28.3677   23.1292 C   0  0  2  0  0  0
  -20.6770  -26.9404   22.5397 C   0  0  0  0  0  0
  -19.5751  -26.6386   21.5196 C   0  0  0  0  0  0
  -18.1938  -26.7936   22.1619 C   0  0  0  0  0  0
  -19.1541  -28.8850   23.2888 C   0  0  0  0  0  0
  -18.9459  -30.1457   23.8896 C   0  0  0  0  0  0
  -17.6456  -30.6581   24.0568 C   0  0  0  0  0  0
  -25.9041  -34.9462   23.5107 C   0  0  0  0  0  0
  -16.5352  -29.9073   23.6333 C   0  0  0  0  0  0
  -16.7278  -28.6498   23.0345 C   0  0  0  0  0  0
  -26.4495  -31.6603   25.0716 C   0  0  0  0  0  0
  -25.3736  -31.3720   26.1445 C   0  0  0  0  0  0
  -27.0329  -30.3046   24.6119 C   0  0  0  0  0  0
  -27.6078  -32.4319   25.7481 C   0  0  0  0  0  0
  -27.5584  -37.1803   24.8469 C   0  0  0  0  0  0
  -21.4164  -29.3043   22.3696 N   0  0  0  0  0  0
  -26.4295  -37.3788   23.9413 N   0  0  0  0  0  0
  -24.6810  -31.0675   22.0977 N   0  0  0  0  0  0
  -23.4191  -28.8175   23.3005 O   0  0  0  0  0  0
  -28.3738  -26.5820   20.1308 O   0  0  0  0  0  0
  -26.5590  -34.8930   22.4660 O   0  0  0  0  0  0
  -23.5415  -32.1401   23.7408 O   0  0  0  0  0  0
  -29.6935  -21.0919   21.3621 C   0  0  0  0  0  0
  -28.6750  -21.2884   20.3855 C   0  0  0  0  0  0
  -28.1629  -20.0046   20.2428 C   0  0  0  0  0  0
  -27.0508  -19.5156   19.3729 C   0  0  0  0  0  0
  -32.2233  -17.4182   21.0044 C   0  0  0  0  0  0
  -31.8795  -16.8045   18.5293 C   0  0  0  0  0  0
  -28.3260  -22.6058   19.6385 C   0  0  0  0  0  0
  -28.3426  -23.9768   20.4248 C   0  0  0  0  0  0
  -28.6466  -17.6927   21.4619 C   0  0  0  0  0  0
  -28.9012  -16.5186   20.4285 C   0  0  0  0  0  0
  -28.4451  -25.2583   19.5076 C   0  0  0  0  0  0
  -31.2116  -17.0304   19.9052 C   0  0  0  0  0  0
  -29.7886  -19.8338   21.7796 N   0  0  0  0  0  0
  -28.8618  -19.1289   21.0893 N   0  0  0  0  0  0
  -30.2785  -15.9366   20.3296 N   0  0  0  0  0  0
  -31.4340  -12.4703   19.1122 H   0  0  0  0  0  0
  -30.3015  -11.4421   19.9372 H   0  0  0  0  0  0
  -29.7436  -11.6869   17.4884 H   0  0  0  0  0  0
  -29.6089  -13.4191   17.6835 H   0  0  0  0  0  0
  -27.8708  -11.2547   18.9161 H   0  0  0  0  0  0
  -27.3393  -12.4770   17.7928 H   0  0  0  0  0  0
  -27.6029  -14.2135   19.3982 H   0  0  0  0  0  0
  -28.7335  -12.1891   21.4103 H   0  0  0  0  0  0
  -28.4585  -13.8662   21.7672 H   0  0  0  0  0  0
  -25.2749   -9.5672   22.4776 H   0  0  0  0  0  0
  -23.9994   -7.4622   22.7479 H   0  0  0  0  0  0
  -21.0833   -8.8778   19.8966 H   0  0  0  0  0  0
  -22.3699  -10.9671   19.6186 H   0  0  0  0  0  0
  -21.1999   -7.6130   23.9701 H   0  0  0  0  0  0
  -21.1493   -6.0516   25.9074 H   0  0  0  0  0  0
  -22.0595   -2.7589   23.2869 H   0  0  0  0  0  0
  -22.4039  -11.9892   22.4856 H   0  0  0  0  0  0
  -21.1044  -13.1252   22.2653 H   0  0  0  0  0  0
  -24.6398  -15.8373   20.5053 H   0  0  0  0  0  0
  -26.2460  -15.6243   20.0309 H   0  0  0  0  0  0
  -26.7172  -32.5449   23.1105 H   0  0  0  0  0  0
  -25.0156  -33.9751   25.0491 H   0  0  0  0  0  0
  -22.7038  -31.3101   21.4111 H   0  0  0  0  0  0
  -23.3757  -35.9622   23.3302 H   0  0  0  0  0  0
  -24.3573  -36.8900   22.2045 H   0  0  0  0  0  0
  -23.7238  -37.6502   23.6640 H   0  0  0  0  0  0
  -26.0709  -31.5696   20.5958 H   0  0  0  0  0  0
  -26.8332  -30.8539   21.9880 H   0  0  0  0  0  0
  -28.1019  -29.0248   21.1563 H   0  0  0  0  0  0
  -25.9303  -25.9263   19.0431 H   0  0  0  0  0  0
  -23.9502  -27.3018   19.0361 H   0  0  0  0  0  0
  -23.7321  -30.6009   19.4038 H   0  0  0  0  0  0
  -22.7374  -29.2547   19.8630 H   0  0  0  0  0  0
  -25.1299  -36.1952   25.0828 H   0  0  0  0  0  0
  -21.0004  -28.3237   24.1405 H   0  0  0  0  0  0
  -20.5657  -26.2281   23.3586 H   0  0  0  0  0  0
  -21.6637  -26.7415   22.1200 H   0  0  0  0  0  0
  -19.6888  -25.6289   21.1235 H   0  0  0  0  0  0
  -19.6695  -27.3184   20.6720 H   0  0  0  0  0  0
  -17.4197  -26.6690   21.4029 H   0  0  0  0  0  0
  -18.0338  -26.0076   22.9019 H   0  0  0  0  0  0
  -19.7926  -30.7288   24.2251 H   0  0  0  0  0  0
  -17.4998  -31.6262   24.5172 H   0  0  0  0  0  0
  -15.5345  -30.2971   23.7647 H   0  0  0  0  0  0
  -15.8688  -28.0815   22.7047 H   0  0  0  0  0  0
  -24.5936  -30.7043   25.7764 H   0  0  0  0  0  0
  -24.8887  -32.2866   26.4863 H   0  0  0  0  0  0
  -25.8062  -30.8906   27.0220 H   0  0  0  0  0  0
  -26.2866  -29.6809   24.1181 H   0  0  0  0  0  0
  -27.4107  -29.7302   25.4583 H   0  0  0  0  0  0
  -27.8704  -30.4383   23.9272 H   0  0  0  0  0  0
  -27.2729  -33.3638   26.2057 H   0  0  0  0  0  0
  -28.3891  -32.6840   25.0297 H   0  0  0  0  0  0
  -28.0744  -31.8431   26.5395 H   0  0  0  0  0  0
  -28.2611  -38.0096   24.7516 H   0  0  0  0  0  0
  -28.1077  -36.2621   24.6301 H   0  0  0  0  0  0
  -27.2292  -37.1464   25.8871 H   0  0  0  0  0  0
  -20.9324  -29.8787   21.6941 H   0  0  0  0  0  0
  -26.0183  -38.2866   24.1407 H   0  0  0  0  0  0
  -30.3695  -21.8267   21.7760 H   0  0  0  0  0  0
  -26.3718  -18.8709   19.9306 H   0  0  0  0  0  0
  -27.4388  -18.9472   18.5267 H   0  0  0  0  0  0
  -26.4614  -20.3422   18.9762 H   0  0  0  0  0  0
  -32.9694  -16.6447   21.1846 H   0  0  0  0  0  0
  -31.7228  -17.6176   21.9521 H   0  0  0  0  0  0
  -32.7634  -18.3247   20.7302 H   0  0  0  0  0  0
  -32.3693  -17.7181   18.1901 H   0  0  0  0  0  0
  -31.1442  -16.5343   17.7703 H   0  0  0  0  0  0
  -32.6461  -16.0305   18.5466 H   0  0  0  0  0  0
  -27.3449  -22.5217   19.1709 H   0  0  0  0  0  0
  -29.0120  -22.7116   18.7961 H   0  0  0  0  0  0
  -29.1948  -23.9890   21.1050 H   0  0  0  0  0  0
  -27.4542  -24.0442   21.0539 H   0  0  0  0  0  0
  -29.1952  -17.4790   22.3806 H   0  0  0  0  0  0
  -27.5977  -17.6286   21.7560 H   0  0  0  0  0  0
  -28.5705  -16.8196   19.4342 H   0  0  0  0  0  0
  -28.2168  -15.7397   20.7317 H   0  0  0  0  0  0
  -27.7863  -25.1655   18.6473 H   0  0  0  0  0  0
  -29.4336  -25.2276   19.0496 H   0  0  0  0  0  0
  -30.6411  -17.9370   19.7247 H   0  0  0  0  0  0
  1 25  1  0  0  0
  1 30  2  0  0  0
  1 85  1  0  0  0
  2  3  1  0  0  0
  2 25  1  0  0  0
  2 86  1  0  0  0
  2 87  1  0  0  0
  3  4  1  0  0  0
  3 88  1  0  0  0
  3 89  1  0  0  0
  4  5  1  0  0  0
  4 90  1  0  0  0
  4 91  1  0  0  0
  5  6  1  0  0  0
  5 26  1  0  0  0
  5 92  1  0  0  0
  6 25  1  0  0  0
  6 93  1  0  0  0
  6 94  1  0  0  0
  7  8  2  0  0  0
  7 26  1  0  0  0
  7 29  1  0  0  0
  8  9  1  0  0  0
  8 22  1  0  0  0
  9 10  1  0  0  0
  9 27  2  0  0  0
 10 11  2  0  0  0
 10 15  1  0  0  0
 11 12  1  0  0  0
 11 95  1  0  0  0
 12 13  2  0  0  0
 12 96  1  0  0  0
 13 14  1  0  0  0
 13 31  1  0  0  0
 14 15  2  0  0  0
 14 97  1  0  0  0
 15 98  1  0  0  0
 16 17  2  0  0  0
 16 21  1  0  0  0
 16 31  1  0  0  0
 17 18  1  0  0  0
 17 99  1  0  0  0
 18 19  2  0  0  0
 18100  1  0  0  0
 19 20  1  0  0  0
 19 24  1  0  0  0
 20 21  2  0  0  0
 20101  1  0  0  0
 21 23  1  0  0  0
 22 28  1  0  0  0
 22 32  2  0  0  0
 26 27  1  0  0  0
 28102  1  0  0  0
 28103  1  0  0  0
 29104  1  0  0  0
 29105  1  0  0  0
 33 34  1  0  0  0
 33 66  1  0  0  0
 33 70  2  0  0  0
 34 36  1  0  0  0
 34 59  1  0  0  0
 34106  1  0  0  0
 35 44  2  0  0  0
 35 45  1  0  0  0
 35 68  1  0  0  0
 36 56  1  0  0  0
 36107  1  0  0  0
 37 39  1  0  0  0
 37 47  1  0  0  0
 37 66  1  0  0  0
 37108  1  0  0  0
 38 43  2  0  0  0
 38 46  1  0  0  0
 38 47  1  0  0  0
 39 64  1  0  0  0
 39 67  2  0  0  0
 40 52  1  0  0  0
 40 53  2  0  0  0
 40 58  1  0  0  0
 41109  1  0  0  0
 41110  1  0  0  0
 41111  1  0  0  0
 41 48  1  0  0  0
 42 43  1  0  0  0
 42 66  1  0  0  0
 42112  1  0  0  0
 42113  1  0  0  0
 43 44  1  0  0  0
 44114  1  0  0  0
 45 46  2  0  0  0
 45115  1  0  0  0
 46116  1  0  0  0
 47117  1  0  0  0
 47118  1  0  0  0
 48 56  1  0  0  0
 48 65  1  0  0  0
 48119  1  0  0  0
 49 50  1  0  0  0
 49 53  1  0  0  0
 49 64  1  0  0  0
 49120  1  0  0  0
 50 51  1  0  0  0
 50121  1  0  0  0
 50122  1  0  0  0
 51 52  1  0  0  0
 51123  1  0  0  0
 51124  1  0  0  0
 52125  1  0  0  0
 52126  1  0  0  0
 53 54  1  0  0  0
 54 55  2  0  0  0
 54127  1  0  0  0
 55 57  1  0  0  0
 55128  1  0  0  0
 56 69  2  0  0  0
 57 58  2  0  0  0
 57129  1  0  0  0
 58130  1  0  0  0
 59 60  1  0  0  0
 59 61  1  0  0  0
 59 62  1  0  0  0
 60131  1  0  0  0
 60132  1  0  0  0
 60133  1  0  0  0
 61134  1  0  0  0
 61135  1  0  0  0
 61136  1  0  0  0
 62137  1  0  0  0
 62138  1  0  0  0
 62139  1  0  0  0
 63 65  1  0  0  0
 63140  1  0  0  0
 63141  1  0  0  0
 63142  1  0  0  0
 64143  1  0  0  0
 65144  1  0  0  0
 68 81  1  0  0  0
 71 72  1  0  0  0
 71 83  2  0  0  0
 71145  1  0  0  0
 72 73  2  0  0  0
 72 77  1  0  0  0
 73 74  1  0  0  0
 73 84  1  0  0  0
 74146  1  0  0  0
 74147  1  0  0  0
 74148  1  0  0  0
 75149  1  0  0  0
 75150  1  0  0  0
 75151  1  0  0  0
 75 82  1  0  0  0
 76 82  1  0  0  0
 76152  1  0  0  0
 76153  1  0  0  0
 76154  1  0  0  0
 77 78  1  0  0  0
 77155  1  0  0  0
 77156  1  0  0  0
 78 81  1  0  0  0
 78157  1  0  0  0
 78158  1  0  0  0
 79 80  1  0  0  0
 79 84  1  0  0  0
 79159  1  0  0  0
 79160  1  0  0  0
 80 85  1  0  0  0
 80161  1  0  0  0
 80162  1  0  0  0
 81163  1  0  0  0
 81164  1  0  0  0
 82 85  1  0  0  0
 82165  1  0  0  0
 83 84  1  0  0  0
M  ISO  4   1 100  68 101  81 101  85 100
M  END
> <chiral flag>
0

> <version>
0

> <s_m_source_file>
/data/baiqing/PycharmProjects/Reinvent-master-3.2/result/LINK_invent/BTK/process_docking_weight1_custom_sum_contain_oxygen_bond_distance_aromatic_linkinvent_7_9_3/rearranged_h_0051.sdf

> <i_m_source_file_index>
31

> <r_mmod_Potential_Energy-OPLS-2005>
291.468902587891

> <r_mmod_Stretch_Energy-OPLS-2005>
74.1377182006836

> <r_mmod_Bend_Energy-OPLS-2005>
185.647186279297

> <r_mmod_Torsional_Energy-OPLS-2005>
283.669250488281

> <r_mmod_Improper_Torsional_Energy-OPLS-2005>
12.0663728713989

> <r_mmod_Van_der_Waal_Energy-OPLS-2005>
130.722244262695

> <r_mmod_Electrostatic_Energy-OPLS-2005>
-255.466415405273

> <r_mmod_Solvation_Energy-OPLS-2005>
-204.048095703125

> <b_mmod_Minimization_Converged-OPLS-2005>
0

> <r_mmod_RMS_Derivative-OPLS-2005>
1.94521331787109

$$$$
32
                    3D
 Structure written by MMmdl.
156164  0  0  1  0            999 V2000
  -30.7117  -14.4787   20.5892 C   0  0  0  0  0  0
  -30.4177  -12.3130   19.4301 C   0  0  0  0  0  0
  -29.4936  -12.5068   18.2099 C   0  0  0  0  0  0
  -28.0136  -12.3696   18.6164 C   0  0  0  0  0  0
  -27.6587  -13.2085   19.8727 C   0  0  2  0  0  0
  -28.6969  -12.9937   20.9946 C   0  0  0  0  0  0
  -25.2580  -13.8175   20.5677 C   0  0  0  0  0  0
  -24.1829  -13.0451   20.9157 C   0  0  0  0  0  0
  -24.6376  -11.6914   20.8715 C   0  0  0  0  0  0
  -23.9051  -10.4301   21.0397 C   0  0  0  0  0  0
  -24.3609   -9.4223   21.9179 C   0  0  0  0  0  0
  -23.6291   -8.2258   22.0759 C   0  0  0  0  0  0
  -22.4275   -8.0284   21.3551 C   0  0  0  0  0  0
  -21.9899   -9.0252   20.4646 C   0  0  0  0  0  0
  -22.7223  -10.2133   20.3054 C   0  0  0  0  0  0
  -21.6858   -6.0731   22.5280 C   0  0  0  0  0  0
  -21.4008   -6.5632   23.8209 C   0  0  0  0  0  0
  -21.3669   -5.6788   24.9170 C   0  0  0  0  0  0
  -21.6056   -4.3053   24.7228 C   0  0  0  0  0  0
  -21.8819   -3.8144   23.4349 C   0  0  0  0  0  0
  -21.9195   -4.6957   22.3402 C   0  0  0  0  0  0
  -22.7856  -13.5251   21.1833 C   0  0  0  0  0  0
  -22.1667   -4.2140   21.0979 F   0  0  0  0  0  0
  -21.5637   -3.4540   25.7743 F   0  0  0  0  0  0
  -30.0288  -13.3053   20.4482 N   0  0  0  0  0  0
  -26.3007  -12.9336   20.3349 N   0  0  0  0  0  0
  -25.9304  -11.6492   20.5742 N   0  0  0  0  0  0
  -22.0513  -12.8235   22.0391 N   0  0  0  0  0  0
  -25.4336  -15.1890   20.4106 N   0  0  0  0  0  0
  -31.8206  -14.6529   20.0712 O   0  0  0  0  0  0
  -21.6654   -6.8872   21.4243 O   0  0  0  0  0  0
  -22.3535  -14.5564   20.6696 O   0  0  0  0  0  0
  -24.6159  -31.8682   23.2099 C   0  0  0  0  0  0
  -25.9047  -32.4824   23.8398 C   0  0  1  0  0  0
  -27.2212  -27.4073   20.0993 C   0  0  0  0  0  0
  -25.5913  -33.8633   24.2330 N   0  0  0  0  0  0
  -23.4041  -30.4920   21.5535 C   0  0  2  0  0  0
  -24.8469  -28.9609   20.1107 C   0  0  0  0  0  0
  -22.7431  -29.4642   22.5003 C   0  0  0  0  0  0
  -18.0272  -28.1374   22.8488 C   0  0  0  0  0  0
  -24.1483  -36.7315   23.2636 C   0  0  0  0  0  0
  -25.9361  -30.8247   21.3658 C   0  0  0  0  0  0
  -26.0113  -29.4597   20.7087 C   0  0  0  0  0  0
  -27.2023  -28.6925   20.6964 C   0  0  0  0  0  0
  -26.0375  -26.9393   19.4804 C   0  0  0  0  0  0
  -24.8563  -27.7016   19.4915 C   0  0  0  0  0  0
  -23.6109  -29.8312   20.1659 C   0  0  0  0  0  0
  -25.4111  -36.3130   24.0329 C   0  0  1  0  0  0
  -20.5864  -28.3663   23.1319 C   0  0  2  0  0  0
  -20.6772  -26.9395   22.5425 C   0  0  0  0  0  0
  -19.5743  -26.6379   21.5227 C   0  0  0  0  0  0
  -18.1917  -26.7919   22.1629 C   0  0  0  0  0  0
  -19.1523  -28.8840   23.2891 C   0  0  0  0  0  0
  -18.9453  -30.1453   23.8883 C   0  0  0  0  0  0
  -17.6455  -30.6577   24.0571 C   0  0  0  0  0  0
  -25.9042  -34.9487   23.5133 C   0  0  0  0  0  0
  -16.5344  -29.9077   23.6337 C   0  0  0  0  0  0
  -16.7265  -28.6505   23.0335 C   0  0  0  0  0  0
  -26.4470  -31.6609   25.0736 C   0  0  0  0  0  0
  -25.3729  -31.3709   26.1480 C   0  0  0  0  0  0
  -27.0312  -30.3059   24.6110 C   0  0  0  0  0  0
  -27.6059  -32.4328   25.7482 C   0  0  0  0  0  0
  -27.5575  -37.1809   24.8460 C   0  0  0  0  0  0
  -21.4155  -29.3024   22.3736 N   0  0  0  0  0  0
  -26.4296  -37.3813   23.9401 N   0  0  0  0  0  0
  -24.6713  -31.0750   22.1018 N   0  0  0  0  0  0
  -23.4199  -28.8183   23.3046 O   0  0  0  0  0  0
  -28.3687  -26.6303   20.1439 O   0  0  0  0  0  0
  -26.5605  -34.8926   22.4692 O   0  0  0  0  0  0
  -23.5344  -32.1464   23.7460 O   0  0  0  0  0  0
  -29.6395  -21.8657   20.0214 C   0  0  0  0  0  0
  -28.4484  -21.0056   21.6151 C   0  0  0  0  0  0
  -29.1487  -22.8912   20.8074 C   0  0  0  0  0  0
  -29.8997  -15.6838   22.5376 C   0  0  0  0  0  0
  -29.3728  -24.3946   20.7002 C   0  0  0  0  0  0
  -29.5526  -18.1302   20.9911 C   0  0  0  0  0  0
  -29.4110  -19.3122   19.9863 C   0  0  0  0  0  0
  -29.9108  -16.7878   20.2715 C   0  0  0  0  0  0
  -28.1763  -25.1944   20.1265 C   0  0  0  0  0  0
  -28.3868  -22.3218   21.8312 N   0  0  0  0  0  0
  -29.1895  -20.6514   20.5536 N   0  0  0  0  0  0
  -30.0144  -15.5398   21.0826 N   0  0  0  0  0  0
  -31.4637  -12.4043   19.1297 H   0  0  0  0  0  0
  -30.3143  -11.3039   19.8325 H   0  0  0  0  0  0
  -29.7349  -11.7784   17.4341 H   0  0  0  0  0  0
  -29.6627  -13.4915   17.7715 H   0  0  0  0  0  0
  -27.8165  -11.3138   18.8059 H   0  0  0  0  0  0
  -27.3675  -12.6510   17.7843 H   0  0  0  0  0  0
  -27.7019  -14.2563   19.5743 H   0  0  0  0  0  0
  -28.6747  -11.9583   21.3374 H   0  0  0  0  0  0
  -28.4417  -13.5938   21.8658 H   0  0  0  0  0  0
  -25.2754   -9.5706   22.4739 H   0  0  0  0  0  0
  -24.0016   -7.4648   22.7470 H   0  0  0  0  0  0
  -21.0842   -8.8749   19.8942 H   0  0  0  0  0  0
  -22.3678  -10.9661   19.6156 H   0  0  0  0  0  0
  -21.1984   -7.6137   23.9702 H   0  0  0  0  0  0
  -21.1502   -6.0525   25.9074 H   0  0  0  0  0  0
  -22.0589   -2.7608   23.2854 H   0  0  0  0  0  0
  -22.4138  -11.9890   22.4756 H   0  0  0  0  0  0
  -21.1123  -13.1238   22.2600 H   0  0  0  0  0  0
  -24.6766  -15.8527   20.5288 H   0  0  0  0  0  0
  -26.3018  -15.6253   20.1269 H   0  0  0  0  0  0
  -26.7115  -32.5510   23.1152 H   0  0  0  0  0  0
  -25.0105  -33.9825   25.0501 H   0  0  0  0  0  0
  -22.6913  -31.3082   21.4174 H   0  0  0  0  0  0
  -23.3760  -35.9634   23.3326 H   0  0  0  0  0  0
  -24.3565  -36.8911   22.2043 H   0  0  0  0  0  0
  -23.7216  -37.6513   23.6647 H   0  0  0  0  0  0
  -26.0477  -31.5885   20.5952 H   0  0  0  0  0  0
  -26.8260  -30.8777   21.9822 H   0  0  0  0  0  0
  -28.0990  -29.0698   21.1694 H   0  0  0  0  0  0
  -26.0037  -25.9807   18.9852 H   0  0  0  0  0  0
  -23.9627  -27.3153   19.0205 H   0  0  0  0  0  0
  -23.7158  -30.6108   19.4101 H   0  0  0  0  0  0
  -22.7322  -29.2543   19.8704 H   0  0  0  0  0  0
  -25.1278  -36.2021   25.0822 H   0  0  0  0  0  0
  -20.9937  -28.3232   24.1446 H   0  0  0  0  0  0
  -20.5707  -26.2256   23.3615 H   0  0  0  0  0  0
  -21.6639  -26.7452   22.1188 H   0  0  0  0  0  0
  -19.6910  -25.6300   21.1231 H   0  0  0  0  0  0
  -19.6684  -27.3222   20.6790 H   0  0  0  0  0  0
  -17.4195  -26.6676   21.4024 H   0  0  0  0  0  0
  -18.0297  -26.0057   22.9019 H   0  0  0  0  0  0
  -19.7931  -30.7283   24.2216 H   0  0  0  0  0  0
  -17.5008  -31.6249   24.5191 H   0  0  0  0  0  0
  -15.5344  -30.2976   23.7676 H   0  0  0  0  0  0
  -15.8659  -28.0845   22.7017 H   0  0  0  0  0  0
  -24.5899  -30.7060   25.7808 H   0  0  0  0  0  0
  -24.8907  -32.2855   26.4946 H   0  0  0  0  0  0
  -25.8067  -30.8860   27.0234 H   0  0  0  0  0  0
  -26.2861  -29.6806   24.1176 H   0  0  0  0  0  0
  -27.4110  -29.7305   25.4563 H   0  0  0  0  0  0
  -27.8677  -30.4390   23.9248 H   0  0  0  0  0  0
  -27.2712  -33.3635   26.2073 H   0  0  0  0  0  0
  -28.3857  -32.6881   25.0295 H   0  0  0  0  0  0
  -28.0747  -31.8442   26.5378 H   0  0  0  0  0  0
  -28.2615  -38.0090   24.7530 H   0  0  0  0  0  0
  -28.1061  -36.2630   24.6293 H   0  0  0  0  0  0
  -27.2285  -37.1460   25.8860 H   0  0  0  0  0  0
  -20.9329  -29.8752   21.6947 H   0  0  0  0  0  0
  -26.0199  -38.2888   24.1438 H   0  0  0  0  0  0
  -30.2612  -21.9046   19.1361 H   0  0  0  0  0  0
  -27.9336  -20.2862   22.2376 H   0  0  0  0  0  0
  -28.8966  -16.0096   22.8128 H   0  0  0  0  0  0
  -30.6204  -16.4102   22.9140 H   0  0  0  0  0  0
  -30.0927  -14.7478   23.0654 H   0  0  0  0  0  0
  -30.2521  -24.5907   20.0875 H   0  0  0  0  0  0
  -29.6145  -24.7944   21.6853 H   0  0  0  0  0  0
  -28.6184  -18.0166   21.5417 H   0  0  0  0  0  0
  -30.3238  -18.3771   21.7213 H   0  0  0  0  0  0
  -28.5825  -19.1087   19.3073 H   0  0  0  0  0  0
  -30.3064  -19.3578   19.3654 H   0  0  0  0  0  0
  -30.8428  -16.9470   19.7253 H   0  0  0  0  0  0
  -29.1578  -16.5952   19.5053 H   0  0  0  0  0  0
  -27.2943  -24.9343   20.7164 H   0  0  0  0  0  0
  -27.9876  -24.8675   19.1029 H   0  0  0  0  0  0
  1 25  1  0  0  0
  1 30  2  0  0  0
  1 82  1  0  0  0
  2  3  1  0  0  0
  2 25  1  0  0  0
  2 83  1  0  0  0
  2 84  1  0  0  0
  3  4  1  0  0  0
  3 85  1  0  0  0
  3 86  1  0  0  0
  4  5  1  0  0  0
  4 87  1  0  0  0
  4 88  1  0  0  0
  5  6  1  0  0  0
  5 26  1  0  0  0
  5 89  1  0  0  0
  6 25  1  0  0  0
  6 90  1  0  0  0
  6 91  1  0  0  0
  7  8  2  0  0  0
  7 26  1  0  0  0
  7 29  1  0  0  0
  8  9  1  0  0  0
  8 22  1  0  0  0
  9 10  1  0  0  0
  9 27  2  0  0  0
 10 11  2  0  0  0
 10 15  1  0  0  0
 11 12  1  0  0  0
 11 92  1  0  0  0
 12 13  2  0  0  0
 12 93  1  0  0  0
 13 14  1  0  0  0
 13 31  1  0  0  0
 14 15  2  0  0  0
 14 94  1  0  0  0
 15 95  1  0  0  0
 16 17  2  0  0  0
 16 21  1  0  0  0
 16 31  1  0  0  0
 17 18  1  0  0  0
 17 96  1  0  0  0
 18 19  2  0  0  0
 18 97  1  0  0  0
 19 20  1  0  0  0
 19 24  1  0  0  0
 20 21  2  0  0  0
 20 98  1  0  0  0
 21 23  1  0  0  0
 22 28  1  0  0  0
 22 32  2  0  0  0
 26 27  1  0  0  0
 28 99  1  0  0  0
 28100  1  0  0  0
 29101  1  0  0  0
 29102  1  0  0  0
 33 34  1  0  0  0
 33 66  1  0  0  0
 33 70  2  0  0  0
 34 36  1  0  0  0
 34 59  1  0  0  0
 34103  1  0  0  0
 35 44  2  0  0  0
 35 45  1  0  0  0
 35 68  1  0  0  0
 36 56  1  0  0  0
 36104  1  0  0  0
 37 39  1  0  0  0
 37 47  1  0  0  0
 37 66  1  0  0  0
 37105  1  0  0  0
 38 43  2  0  0  0
 38 46  1  0  0  0
 38 47  1  0  0  0
 39 64  1  0  0  0
 39 67  2  0  0  0
 40 52  1  0  0  0
 40 53  2  0  0  0
 40 58  1  0  0  0
 41106  1  0  0  0
 41107  1  0  0  0
 41108  1  0  0  0
 41 48  1  0  0  0
 42 43  1  0  0  0
 42 66  1  0  0  0
 42109  1  0  0  0
 42110  1  0  0  0
 43 44  1  0  0  0
 44111  1  0  0  0
 45 46  2  0  0  0
 45112  1  0  0  0
 46113  1  0  0  0
 47114  1  0  0  0
 47115  1  0  0  0
 48 56  1  0  0  0
 48 65  1  0  0  0
 48116  1  0  0  0
 49 50  1  0  0  0
 49 53  1  0  0  0
 49 64  1  0  0  0
 49117  1  0  0  0
 50 51  1  0  0  0
 50118  1  0  0  0
 50119  1  0  0  0
 51 52  1  0  0  0
 51120  1  0  0  0
 51121  1  0  0  0
 52122  1  0  0  0
 52123  1  0  0  0
 53 54  1  0  0  0
 54 55  2  0  0  0
 54124  1  0  0  0
 55 57  1  0  0  0
 55125  1  0  0  0
 56 69  2  0  0  0
 57 58  2  0  0  0
 57126  1  0  0  0
 58127  1  0  0  0
 59 60  1  0  0  0
 59 61  1  0  0  0
 59 62  1  0  0  0
 60128  1  0  0  0
 60129  1  0  0  0
 60130  1  0  0  0
 61131  1  0  0  0
 61132  1  0  0  0
 61133  1  0  0  0
 62134  1  0  0  0
 62135  1  0  0  0
 62136  1  0  0  0
 63 65  1  0  0  0
 63137  1  0  0  0
 63138  1  0  0  0
 63139  1  0  0  0
 64140  1  0  0  0
 65141  1  0  0  0
 68 79  1  0  0  0
 71 73  2  0  0  0
 71 81  1  0  0  0
 71142  1  0  0  0
 72 80  2  0  0  0
 72 81  1  0  0  0
 72143  1  0  0  0
 73 75  1  0  0  0
 73 80  1  0  0  0
 74 82  1  0  0  0
 74144  1  0  0  0
 74145  1  0  0  0
 74146  1  0  0  0
 75 79  1  0  0  0
 75147  1  0  0  0
 75148  1  0  0  0
 76 77  1  0  0  0
 76 78  1  0  0  0
 76149  1  0  0  0
 76150  1  0  0  0
 77 81  1  0  0  0
 77151  1  0  0  0
 77152  1  0  0  0
 78 82  1  0  0  0
 78153  1  0  0  0
 78154  1  0  0  0
 79155  1  0  0  0
 79156  1  0  0  0
M  ISO  4   1 100  68 101  79 101  82 100
M  END
> <chiral flag>
0

> <version>
0

> <s_m_source_file>
/data/baiqing/PycharmProjects/Reinvent-master-3.2/result/LINK_invent/BTK/process_docking_weight1_custom_sum_contain_oxygen_bond_distance_aromatic_linkinvent_7_9_3/rearranged_h_0051.sdf

> <i_m_source_file_index>
32

> <r_mmod_Potential_Energy-OPLS-2005>
109.876220703125

> <r_mmod_Stretch_Energy-OPLS-2005>
43.8701019287109

> <r_mmod_Bend_Energy-OPLS-2005>
109.578247070312

> <r_mmod_Torsional_Energy-OPLS-2005>
285.783142089844

> <r_mmod_Improper_Torsional_Energy-OPLS-2005>
8.15271854400635

> <r_mmod_Van_der_Waal_Energy-OPLS-2005>
132.772018432617

> <r_mmod_Electrostatic_Energy-OPLS-2005>
-269.684661865234

> <r_mmod_Solvation_Energy-OPLS-2005>
-216.549957275391

> <b_mmod_Minimization_Converged-OPLS-2005>
0

> <r_mmod_RMS_Derivative-OPLS-2005>
1.71290946006775

$$$$
33
                    3D
 Structure written by MMmdl.
171179  0  0  1  0            999 V2000
  -30.7502  -14.3800   20.6753 C   0  0  0  0  0  0
  -30.4239  -12.2887   19.4004 C   0  0  0  0  0  0
  -29.4939  -12.5289   18.1957 C   0  0  0  0  0  0
  -28.0136  -12.3850   18.6048 C   0  0  0  0  0  0
  -27.6672  -13.2001   19.8773 C   0  0  2  0  0  0
  -28.7022  -12.9278   20.9889 C   0  0  0  0  0  0
  -25.2610  -13.8149   20.5661 C   0  0  0  0  0  0
  -24.1845  -13.0437   20.9158 C   0  0  0  0  0  0
  -24.6378  -11.6897   20.8704 C   0  0  0  0  0  0
  -23.9044  -10.4290   21.0394 C   0  0  0  0  0  0
  -24.3603   -9.4215   21.9182 C   0  0  0  0  0  0
  -23.6282   -8.2241   22.0743 C   0  0  0  0  0  0
  -22.4264   -8.0265   21.3535 C   0  0  0  0  0  0
  -21.9892   -9.0236   20.4647 C   0  0  0  0  0  0
  -22.7211  -10.2119   20.3053 C   0  0  0  0  0  0
  -21.6845   -6.0725   22.5275 C   0  0  0  0  0  0
  -21.4018   -6.5621   23.8209 C   0  0  0  0  0  0
  -21.3673   -5.6775   24.9174 C   0  0  0  0  0  0
  -21.6042   -4.3036   24.7231 C   0  0  0  0  0  0
  -21.8821   -3.8135   23.4351 C   0  0  0  0  0  0
  -21.9201   -4.6951   22.3404 C   0  0  0  0  0  0
  -22.7874  -13.5253   21.1832 C   0  0  0  0  0  0
  -22.1664   -4.2138   21.0984 F   0  0  0  0  0  0
  -21.5634   -3.4518   25.7752 F   0  0  0  0  0  0
  -30.0494  -13.2317   20.4642 N   0  0  0  0  0  0
  -26.3040  -12.9304   20.3342 N   0  0  0  0  0  0
  -25.9301  -11.6472   20.5712 N   0  0  0  0  0  0
  -22.0486  -12.8272   22.0386 N   0  0  0  0  0  0
  -25.4355  -15.1869   20.4077 N   0  0  0  0  0  0
  -31.7715  -14.6765   20.0451 O   0  0  0  0  0  0
  -21.6629   -6.8857   21.4228 O   0  0  0  0  0  0
  -22.3588  -14.5570   20.6683 O   0  0  0  0  0  0
  -24.6089  -31.8711   23.2134 C   0  0  0  0  0  0
  -25.9001  -32.4845   23.8417 C   0  0  1  0  0  0
  -27.2602  -27.4716   20.1019 C   0  0  0  0  0  0
  -25.5871  -33.8642   24.2349 N   0  0  0  0  0  0
  -23.3971  -30.4917   21.5513 C   0  0  2  0  0  0
  -24.8505  -28.9581   20.1202 C   0  0  0  0  0  0
  -22.7382  -29.4663   22.5009 C   0  0  0  0  0  0
  -18.0259  -28.1377   22.8495 C   0  0  0  0  0  0
  -24.1484  -36.7330   23.2640 C   0  0  0  0  0  0
  -25.9187  -30.8477   21.3612 C   0  0  0  0  0  0
  -26.0021  -29.4787   20.7227 C   0  0  0  0  0  0
  -27.2039  -28.7417   20.7254 C   0  0  0  0  0  0
  -26.0927  -26.9632   19.4949 C   0  0  0  0  0  0
  -24.8876  -27.6931   19.5078 C   0  0  0  0  0  0
  -23.6079  -29.8189   20.1666 C   0  0  0  0  0  0
  -25.4103  -36.3130   24.0342 C   0  0  1  0  0  0
  -20.5849  -28.3656   23.1335 C   0  0  2  0  0  0
  -20.6754  -26.9398   22.5425 C   0  0  0  0  0  0
  -19.5735  -26.6387   21.5216 C   0  0  0  0  0  0
  -18.1915  -26.7925   22.1627 C   0  0  0  0  0  0
  -19.1514  -28.8831   23.2914 C   0  0  0  0  0  0
  -18.9443  -30.1439   23.8919 C   0  0  0  0  0  0
  -17.6450  -30.6588   24.0570 C   0  0  0  0  0  0
  -25.9021  -34.9492   23.5145 C   0  0  0  0  0  0
  -16.5337  -29.9094   23.6322 C   0  0  0  0  0  0
  -16.7257  -28.6510   23.0343 C   0  0  0  0  0  0
  -26.4457  -31.6607   25.0721 C   0  0  0  0  0  0
  -25.3740  -31.3696   26.1481 C   0  0  0  0  0  0
  -27.0281  -30.3061   24.6046 C   0  0  0  0  0  0
  -27.6042  -32.4317   25.7477 C   0  0  0  0  0  0
  -27.5581  -37.1819   24.8466 C   0  0  0  0  0  0
  -21.4116  -29.3027   22.3746 N   0  0  0  0  0  0
  -26.4298  -37.3803   23.9406 N   0  0  0  0  0  0
  -24.6595  -31.0836   22.1016 N   0  0  0  0  0  0
  -23.4171  -28.8206   23.3036 O   0  0  0  0  0  0
  -28.3954  -26.6929   20.0134 O   0  0  0  0  0  0
  -26.5583  -34.8933   22.4707 O   0  0  0  0  0  0
  -23.5294  -32.1443   23.7548 O   0  0  0  0  0  0
  -30.7216  -24.5128   23.1988 C   0  0  0  0  0  0
  -30.4140  -23.9079   21.9446 C   0  0  0  0  0  0
  -30.0448  -22.6278   22.2814 C   0  0  0  0  0  0
  -29.7442  -21.4414   24.5379 C   0  0  0  0  0  0
  -30.2315  -15.0805   22.9684 C   0  0  0  0  0  0
  -31.8980  -20.6049   20.9221 C   0  0  0  0  0  0
  -30.4853  -24.5249   20.5631 C   0  0  0  0  0  0
  -29.6265  -21.4691   21.4127 C   0  0  0  0  0  0
  -30.6780  -26.0575   20.5379 C   0  0  0  0  0  0
  -30.5983  -17.7552   21.2986 C   0  0  0  0  0  0
  -29.6569  -16.5558   21.0454 C   0  0  0  0  0  0
  -29.9385  -19.0839   20.8582 C   0  0  0  0  0  0
  -29.4550  -26.9031   20.9440 C   0  0  0  0  0  0
  -30.5226  -23.6991   24.2210 N   0  0  0  0  0  0
  -30.0903  -22.5492   23.6646 N   0  0  0  0  0  0
  -30.1726  -15.2634   21.5165 N   0  0  0  0  0  0
  -30.5504  -20.2997   21.4621 N   0  3  1  0  0  0
  -31.4687  -12.3893   19.0994 H   0  0  0  0  0  0
  -30.3188  -11.2653   19.7646 H   0  0  0  0  0  0
  -29.7313  -11.8316   17.3919 H   0  0  0  0  0  0
  -29.6664  -13.5287   17.7923 H   0  0  0  0  0  0
  -27.8170  -11.3259   18.7784 H   0  0  0  0  0  0
  -27.3648  -12.6811   17.7800 H   0  0  0  0  0  0
  -27.7290  -14.2559   19.6120 H   0  0  0  0  0  0
  -28.6645  -11.8806   21.2926 H   0  0  0  0  0  0
  -28.4348  -13.4895   21.8820 H   0  0  0  0  0  0
  -25.2737   -9.5708   22.4766 H   0  0  0  0  0  0
  -23.9998   -7.4638   22.7458 H   0  0  0  0  0  0
  -21.0819   -8.8748   19.8958 H   0  0  0  0  0  0
  -22.3658  -10.9651   19.6163 H   0  0  0  0  0  0
  -21.1997   -7.6128   23.9717 H   0  0  0  0  0  0
  -21.1491   -6.0498   25.9078 H   0  0  0  0  0  0
  -22.0598   -2.7598   23.2847 H   0  0  0  0  0  0
  -22.4062  -11.9943   22.4825 H   0  0  0  0  0  0
  -21.1096  -13.1314   22.2545 H   0  0  0  0  0  0
  -24.6721  -15.8455   20.5205 H   0  0  0  0  0  0
  -26.2954  -15.6218   20.0989 H   0  0  0  0  0  0
  -26.7076  -32.5594   23.1197 H   0  0  0  0  0  0
  -25.0024  -33.9815   25.0495 H   0  0  0  0  0  0
  -22.6837  -31.3066   21.4102 H   0  0  0  0  0  0
  -23.3735  -35.9677   23.3332 H   0  0  0  0  0  0
  -24.3574  -36.8910   22.2047 H   0  0  0  0  0  0
  -23.7253  -37.6555   23.6625 H   0  0  0  0  0  0
  -26.0163  -31.6074   20.5844 H   0  0  0  0  0  0
  -26.8119  -30.9161   21.9702 H   0  0  0  0  0  0
  -28.0735  -29.1766   21.1941 H   0  0  0  0  0  0
  -26.1197  -25.9967   19.0115 H   0  0  0  0  0  0
  -24.0035  -27.2827   19.0391 H   0  0  0  0  0  0
  -23.7131  -30.5914   19.4041 H   0  0  0  0  0  0
  -22.7348  -29.2331   19.8726 H   0  0  0  0  0  0
  -25.1280  -36.2008   25.0836 H   0  0  0  0  0  0
  -20.9948  -28.3219   24.1453 H   0  0  0  0  0  0
  -20.5657  -26.2262   23.3606 H   0  0  0  0  0  0
  -21.6626  -26.7444   22.1218 H   0  0  0  0  0  0
  -19.6898  -25.6304   21.1227 H   0  0  0  0  0  0
  -19.6680  -27.3210   20.6754 H   0  0  0  0  0  0
  -17.4188  -26.6679   21.4025 H   0  0  0  0  0  0
  -18.0312  -26.0062   22.9016 H   0  0  0  0  0  0
  -19.7925  -30.7245   24.2304 H   0  0  0  0  0  0
  -17.5009  -31.6273   24.5169 H   0  0  0  0  0  0
  -15.5339  -30.3006   23.7635 H   0  0  0  0  0  0
  -15.8655  -28.0839   22.7041 H   0  0  0  0  0  0
  -24.5907  -30.7047   25.7824 H   0  0  0  0  0  0
  -24.8934  -32.2844   26.4956 H   0  0  0  0  0  0
  -25.8110  -30.8850   27.0222 H   0  0  0  0  0  0
  -26.2806  -29.6835   24.1114 H   0  0  0  0  0  0
  -27.4091  -29.7278   25.4475 H   0  0  0  0  0  0
  -27.8623  -30.4404   23.9156 H   0  0  0  0  0  0
  -27.2666  -33.3602   26.2097 H   0  0  0  0  0  0
  -28.3829  -32.6905   25.0289 H   0  0  0  0  0  0
  -28.0735  -31.8414   26.5358 H   0  0  0  0  0  0
  -28.2619  -38.0097   24.7493 H   0  0  0  0  0  0
  -28.1053  -36.2628   24.6315 H   0  0  0  0  0  0
  -27.2294  -37.1506   25.8869 H   0  0  0  0  0  0
  -20.9269  -29.8756   21.6980 H   0  0  0  0  0  0
  -26.0198  -38.2890   24.1386 H   0  0  0  0  0  0
  -31.0705  -25.5160   23.3978 H   0  0  0  0  0  0
  -28.7932  -21.0053   24.2306 H   0  0  0  0  0  0
  -29.6442  -21.7813   25.5694 H   0  0  0  0  0  0
  -30.5212  -20.6785   24.4992 H   0  0  0  0  0  0
  -29.3566  -15.5188   23.4513 H   0  0  0  0  0  0
  -31.1259  -15.5525   23.3760 H   0  0  0  0  0  0
  -30.2610  -14.0249   23.2462 H   0  0  0  0  0  0
  -32.3695  -21.4227   21.4671 H   0  0  0  0  0  0
  -31.8532  -20.8858   19.8697 H   0  0  0  0  0  0
  -32.5656  -19.7485   21.0113 H   0  0  0  0  0  0
  -29.5949  -24.2779   19.9839 H   0  0  0  0  0  0
  -31.3135  -24.0781   20.0121 H   0  0  0  0  0  0
  -29.5230  -21.7962   20.3773 H   0  0  0  0  0  0
  -28.6267  -21.1649   21.7243 H   0  0  0  0  0  0
  -30.9536  -26.3497   19.5237 H   0  0  0  0  0  0
  -31.5353  -26.3302   21.1543 H   0  0  0  0  0  0
  -31.5426  -17.6115   20.7701 H   0  0  0  0  0  0
  -30.8411  -17.7995   22.3602 H   0  0  0  0  0  0
  -29.4300  -16.4931   19.9789 H   0  0  0  0  0  0
  -28.6962  -16.7275   21.5328 H   0  0  0  0  0  0
  -28.8912  -19.0445   21.1612 H   0  0  0  0  0  0
  -29.9293  -19.1638   19.7693 H   0  0  0  0  0  0
  -29.7724  -27.9450   20.9470 H   0  0  0  0  0  0
  -29.1212  -26.6548   21.9519 H   0  0  0  0  0  0
  -30.6757  -20.0926   22.4410 H   0  0  0  0  0  0
  1 25  1  0  0  0
  1 30  2  0  0  0
  1 86  1  0  0  0
  2  3  1  0  0  0
  2 25  1  0  0  0
  2 88  1  0  0  0
  2 89  1  0  0  0
  3  4  1  0  0  0
  3 90  1  0  0  0
  3 91  1  0  0  0
  4  5  1  0  0  0
  4 92  1  0  0  0
  4 93  1  0  0  0
  5  6  1  0  0  0
  5 26  1  0  0  0
  5 94  1  0  0  0
  6 25  1  0  0  0
  6 95  1  0  0  0
  6 96  1  0  0  0
  7  8  2  0  0  0
  7 26  1  0  0  0
  7 29  1  0  0  0
  8  9  1  0  0  0
  8 22  1  0  0  0
  9 10  1  0  0  0
  9 27  2  0  0  0
 10 11  2  0  0  0
 10 15  1  0  0  0
 11 12  1  0  0  0
 11 97  1  0  0  0
 12 13  2  0  0  0
 12 98  1  0  0  0
 13 14  1  0  0  0
 13 31  1  0  0  0
 14 15  2  0  0  0
 14 99  1  0  0  0
 15100  1  0  0  0
 16 17  2  0  0  0
 16 21  1  0  0  0
 16 31  1  0  0  0
 17 18  1  0  0  0
 17101  1  0  0  0
 18 19  2  0  0  0
 18102  1  0  0  0
 19 20  1  0  0  0
 19 24  1  0  0  0
 20 21  2  0  0  0
 20103  1  0  0  0
 21 23  1  0  0  0
 22 28  1  0  0  0
 22 32  2  0  0  0
 26 27  1  0  0  0
 28104  1  0  0  0
 28105  1  0  0  0
 29106  1  0  0  0
 29107  1  0  0  0
 33 34  1  0  0  0
 33 66  1  0  0  0
 33 70  2  0  0  0
 34 36  1  0  0  0
 34 59  1  0  0  0
 34108  1  0  0  0
 35 44  2  0  0  0
 35 45  1  0  0  0
 35 68  1  0  0  0
 36 56  1  0  0  0
 36109  1  0  0  0
 37 39  1  0  0  0
 37 47  1  0  0  0
 37 66  1  0  0  0
 37110  1  0  0  0
 38 43  2  0  0  0
 38 46  1  0  0  0
 38 47  1  0  0  0
 39 64  1  0  0  0
 39 67  2  0  0  0
 40 52  1  0  0  0
 40 53  2  0  0  0
 40 58  1  0  0  0
 41111  1  0  0  0
 41112  1  0  0  0
 41113  1  0  0  0
 41 48  1  0  0  0
 42 43  1  0  0  0
 42 66  1  0  0  0
 42114  1  0  0  0
 42115  1  0  0  0
 43 44  1  0  0  0
 44116  1  0  0  0
 45 46  2  0  0  0
 45117  1  0  0  0
 46118  1  0  0  0
 47119  1  0  0  0
 47120  1  0  0  0
 48 56  1  0  0  0
 48 65  1  0  0  0
 48121  1  0  0  0
 49 50  1  0  0  0
 49 53  1  0  0  0
 49 64  1  0  0  0
 49122  1  0  0  0
 50 51  1  0  0  0
 50123  1  0  0  0
 50124  1  0  0  0
 51 52  1  0  0  0
 51125  1  0  0  0
 51126  1  0  0  0
 52127  1  0  0  0
 52128  1  0  0  0
 53 54  1  0  0  0
 54 55  2  0  0  0
 54129  1  0  0  0
 55 57  1  0  0  0
 55130  1  0  0  0
 56 69  2  0  0  0
 57 58  2  0  0  0
 57131  1  0  0  0
 58132  1  0  0  0
 59 60  1  0  0  0
 59 61  1  0  0  0
 59 62  1  0  0  0
 60133  1  0  0  0
 60134  1  0  0  0
 60135  1  0  0  0
 61136  1  0  0  0
 61137  1  0  0  0
 61138  1  0  0  0
 62139  1  0  0  0
 62140  1  0  0  0
 62141  1  0  0  0
 63 65  1  0  0  0
 63142  1  0  0  0
 63143  1  0  0  0
 63144  1  0  0  0
 64145  1  0  0  0
 65146  1  0  0  0
 68 83  1  0  0  0
 71 72  1  0  0  0
 71 84  2  0  0  0
 71147  1  0  0  0
 72 73  2  0  0  0
 72 77  1  0  0  0
 73 78  1  0  0  0
 73 85  1  0  0  0
 74 85  1  0  0  0
 74148  1  0  0  0
 74149  1  0  0  0
 74150  1  0  0  0
 75 86  1  0  0  0
 75151  1  0  0  0
 75152  1  0  0  0
 75153  1  0  0  0
 76154  1  0  0  0
 76155  1  0  0  0
 76156  1  0  0  0
 76 87  1  0  0  0
 77 79  1  0  0  0
 77157  1  0  0  0
 77158  1  0  0  0
 78 87  1  0  0  0
 78159  1  0  0  0
 78160  1  0  0  0
 79 83  1  0  0  0
 79161  1  0  0  0
 79162  1  0  0  0
 80 81  1  0  0  0
 80 82  1  0  0  0
 80163  1  0  0  0
 80164  1  0  0  0
 81 86  1  0  0  0
 81165  1  0  0  0
 81166  1  0  0  0
 82 87  1  0  0  0
 82167  1  0  0  0
 82168  1  0  0  0
 83169  1  0  0  0
 83170  1  0  0  0
 84 85  1  0  0  0
 87171  1  0  0  0
M  CHG  1  87   1
M  ISO  4   1 100  68 101  83 101  86 100
M  END
> <chiral flag>
0

> <version>
0

> <s_m_source_file>
/data/baiqing/PycharmProjects/Reinvent-master-3.2/result/LINK_invent/BTK/process_docking_weight1_custom_sum_contain_oxygen_bond_distance_aromatic_linkinvent_7_9_3/rearranged_h_0051.sdf

> <i_m_source_file_index>
33

> <r_mmod_Potential_Energy-OPLS-2005>
-83.7026824951172

> <r_mmod_Stretch_Energy-OPLS-2005>
34.7299270629883

> <r_mmod_Bend_Energy-OPLS-2005>
101.328315734863

> <r_mmod_Torsional_Energy-OPLS-2005>
290.397338867188

> <r_mmod_Improper_Torsional_Energy-OPLS-2005>
3.49023175239563

> <r_mmod_Van_der_Waal_Energy-OPLS-2005>
125.359550476074

> <r_mmod_Electrostatic_Energy-OPLS-2005>
-187.202682495117

> <r_mmod_Solvation_Energy-OPLS-2005>
-457.787994384766

> <b_mmod_Minimization_Converged-OPLS-2005>
0

> <r_mmod_RMS_Derivative-OPLS-2005>
1.9484760761261

$$$$
34
                    3D
 Structure written by MMmdl.
172180  0  0  1  0            999 V2000
  -30.7553  -14.3646   20.7246 C   0  0  0  0  0  0
  -30.4193  -12.3089   19.3799 C   0  0  0  0  0  0
  -29.4785  -12.5456   18.1852 C   0  0  0  0  0  0
  -28.0043  -12.3925   18.6046 C   0  0  0  0  0  0
  -27.6675  -13.2004   19.8847 C   0  0  2  0  0  0
  -28.7079  -12.9242   20.9928 C   0  0  0  0  0  0
  -25.2619  -13.8155   20.5698 C   0  0  0  0  0  0
  -24.1851  -13.0439   20.9162 C   0  0  0  0  0  0
  -24.6398  -11.6908   20.8723 C   0  0  0  0  0  0
  -23.9058  -10.4296   21.0402 C   0  0  0  0  0  0
  -24.3614   -9.4212   21.9179 C   0  0  0  0  0  0
  -23.6297   -8.2243   22.0747 C   0  0  0  0  0  0
  -22.4274   -8.0282   21.3546 C   0  0  0  0  0  0
  -21.9911   -9.0251   20.4641 C   0  0  0  0  0  0
  -22.7237  -10.2133   20.3050 C   0  0  0  0  0  0
  -21.6852   -6.0740   22.5282 C   0  0  0  0  0  0
  -21.4015   -6.5642   23.8215 C   0  0  0  0  0  0
  -21.3658   -5.6796   24.9179 C   0  0  0  0  0  0
  -21.6043   -4.3059   24.7230 C   0  0  0  0  0  0
  -21.8817   -3.8151   23.4350 C   0  0  0  0  0  0
  -21.9196   -4.6969   22.3408 C   0  0  0  0  0  0
  -22.7875  -13.5244   21.1831 C   0  0  0  0  0  0
  -22.1664   -4.2154   21.0986 F   0  0  0  0  0  0
  -21.5626   -3.4542   25.7740 F   0  0  0  0  0  0
  -30.0428  -13.2372   20.4564 N   0  0  0  0  0  0
  -26.3057  -12.9313   20.3420 N   0  0  0  0  0  0
  -25.9325  -11.6474   20.5760 N   0  0  0  0  0  0
  -22.0517  -12.8233   22.0388 N   0  0  0  0  0  0
  -25.4380  -15.1866   20.4134 N   0  0  0  0  0  0
  -31.7533  -14.6734   20.0623 O   0  0  0  0  0  0
  -21.6640   -6.8881   21.4243 O   0  0  0  0  0  0
  -22.3561  -14.5557   20.6693 O   0  0  0  0  0  0
  -24.6097  -31.8687   23.2096 C   0  0  0  0  0  0
  -25.8996  -32.4823   23.8404 C   0  0  1  0  0  0
  -27.2455  -27.4483   20.1112 C   0  0  0  0  0  0
  -25.5871  -33.8617   24.2339 N   0  0  0  0  0  0
  -23.4012  -30.4872   21.5486 C   0  0  2  0  0  0
  -24.8529  -28.9503   20.1204 C   0  0  0  0  0  0
  -22.7402  -29.4620   22.4980 C   0  0  0  0  0  0
  -18.0272  -28.1351   22.8472 C   0  0  0  0  0  0
  -24.1503  -36.7318   23.2639 C   0  0  0  0  0  0
  -25.9259  -30.8401   21.3606 C   0  0  0  0  0  0
  -26.0080  -29.4716   20.7166 C   0  0  0  0  0  0
  -27.2080  -28.7286   20.7071 C   0  0  0  0  0  0
  -26.0799  -26.9376   19.5052 C   0  0  0  0  0  0
  -24.8816  -27.6805   19.5134 C   0  0  0  0  0  0
  -23.6113  -29.8123   20.1658 C   0  0  0  0  0  0
  -25.4120  -36.3109   24.0341 C   0  0  1  0  0  0
  -20.5866  -28.3623   23.1315 C   0  0  2  0  0  0
  -20.6756  -26.9345   22.5419 C   0  0  0  0  0  0
  -19.5744  -26.6356   21.5194 C   0  0  0  0  0  0
  -18.1921  -26.7903   22.1607 C   0  0  0  0  0  0
  -19.1528  -28.8799   23.2890 C   0  0  0  0  0  0
  -18.9453  -30.1418   23.8879 C   0  0  0  0  0  0
  -17.6448  -30.6555   24.0546 C   0  0  0  0  0  0
  -25.9040  -34.9461   23.5142 C   0  0  0  0  0  0
  -16.5332  -29.9052   23.6322 C   0  0  0  0  0  0
  -16.7259  -28.6479   23.0330 C   0  0  0  0  0  0
  -26.4432  -31.6593   25.0712 C   0  0  0  0  0  0
  -25.3712  -31.3697   26.1475 C   0  0  0  0  0  0
  -27.0269  -30.3056   24.6044 C   0  0  0  0  0  0
  -27.6027  -32.4292   25.7464 C   0  0  0  0  0  0
  -27.5599  -37.1811   24.8458 C   0  0  0  0  0  0
  -21.4133  -29.2997   22.3716 N   0  0  0  0  0  0
  -26.4317  -37.3783   23.9394 N   0  0  0  0  0  0
  -24.6626  -31.0803   22.0976 N   0  0  0  0  0  0
  -23.4179  -28.8149   23.3009 O   0  0  0  0  0  0
  -28.4272  -26.7422   20.0445 O   0  0  0  0  0  0
  -26.5601  -34.8905   22.4713 O   0  0  0  0  0  0
  -23.5301  -32.1395   23.7525 O   0  0  0  0  0  0
  -28.3574  -19.6960   21.8060 C   0  0  0  0  0  0
  -29.3354  -20.2463   20.9305 C   0  0  0  0  0  0
  -27.5619  -20.7549   22.1489 C   0  0  0  0  0  0
  -26.1246  -19.5111   23.8390 C   0  0  0  0  0  0
  -28.3467  -26.2201   22.4946 C   0  0  0  0  0  0
  -31.8340  -18.7111   22.8013 C   0  0  0  0  0  0
  -30.5301  -19.5835   20.2756 C   0  0  0  0  0  0
  -26.3839  -20.8163   23.0723 C   0  0  0  0  0  0
  -28.3013  -24.3092   20.6788 C   0  0  0  0  0  0
  -27.4849  -23.2303   21.4762 C   0  0  0  0  0  0
  -30.7792  -18.0893   20.6239 C   0  0  0  0  0  0
  -31.3726  -16.3503   22.3337 C   0  0  0  0  0  0
  -30.3441  -15.2576   21.9233 C   0  0  1  0  0  0
  -28.7315  -25.7699   21.0657 C   0  0  1  0  0  0
  -29.1197  -21.5403   20.7187 N   0  0  0  0  0  0
  -28.0343  -21.8646   21.4658 N   0  0  0  0  0  0
  -30.9522  -17.7622   22.0743 N   0  3  1  0  0  0
  -29.1435  -15.8072   21.7051 F   0  0  0  0  0  0
  -31.4584  -12.4264   19.0674 H   0  0  0  0  0  0
  -30.3341  -11.2798   19.7326 H   0  0  0  0  0  0
  -29.7122  -11.8518   17.3763 H   0  0  0  0  0  0
  -29.6425  -13.5475   17.7859 H   0  0  0  0  0  0
  -27.8089  -11.3324   18.7721 H   0  0  0  0  0  0
  -27.3490  -12.6971   17.7878 H   0  0  0  0  0  0
  -27.7304  -14.2576   19.6252 H   0  0  0  0  0  0
  -28.6751  -11.8734   21.2837 H   0  0  0  0  0  0
  -28.4480  -13.4763   21.8944 H   0  0  0  0  0  0
  -25.2758   -9.5687   22.4755 H   0  0  0  0  0  0
  -24.0007   -7.4632   22.7464 H   0  0  0  0  0  0
  -21.0845   -8.8773   19.8943 H   0  0  0  0  0  0
  -22.3701  -10.9672   19.6158 H   0  0  0  0  0  0
  -21.2005   -7.6149   23.9724 H   0  0  0  0  0  0
  -21.1479   -6.0524   25.9083 H   0  0  0  0  0  0
  -22.0597   -2.7612   23.2852 H   0  0  0  0  0  0
  -22.4129  -11.9897   22.4783 H   0  0  0  0  0  0
  -21.1128  -13.1249   22.2573 H   0  0  0  0  0  0
  -24.6830  -15.8520   20.5347 H   0  0  0  0  0  0
  -26.3157  -15.6225   20.1586 H   0  0  0  0  0  0
  -26.7072  -32.5544   23.1178 H   0  0  0  0  0  0
  -25.0000  -33.9781   25.0465 H   0  0  0  0  0  0
  -22.6861  -31.2992   21.4068 H   0  0  0  0  0  0
  -23.3756  -35.9661   23.3314 H   0  0  0  0  0  0
  -24.3604  -36.8925   22.2054 H   0  0  0  0  0  0
  -23.7266  -37.6530   23.6649 H   0  0  0  0  0  0
  -26.0334  -31.6023   20.5887 H   0  0  0  0  0  0
  -26.8148  -30.8989   21.9764 H   0  0  0  0  0  0
  -28.1079  -29.1348   21.1491 H   0  0  0  0  0  0
  -26.1032  -25.9739   19.0175 H   0  0  0  0  0  0
  -23.9966  -27.2754   19.0444 H   0  0  0  0  0  0
  -23.7095  -30.5802   19.3991 H   0  0  0  0  0  0
  -22.7385  -29.2229   19.8786 H   0  0  0  0  0  0
  -25.1300  -36.2007   25.0838 H   0  0  0  0  0  0
  -20.9966  -28.3175   24.1434 H   0  0  0  0  0  0
  -20.5655  -26.2178   23.3582 H   0  0  0  0  0  0
  -21.6620  -26.7376   22.1198 H   0  0  0  0  0  0
  -19.6884  -25.6272   21.1208 H   0  0  0  0  0  0
  -19.6720  -27.3177   20.6731 H   0  0  0  0  0  0
  -17.4191  -26.6640   21.4007 H   0  0  0  0  0  0
  -18.0315  -26.0054   22.9012 H   0  0  0  0  0  0
  -19.7929  -30.7245   24.2231 H   0  0  0  0  0  0
  -17.5001  -31.6246   24.5135 H   0  0  0  0  0  0
  -15.5331  -30.2932   23.7677 H   0  0  0  0  0  0
  -15.8664  -28.0805   22.7021 H   0  0  0  0  0  0
  -24.5869  -30.7060   25.7814 H   0  0  0  0  0  0
  -24.8909  -32.2854   26.4944 H   0  0  0  0  0  0
  -25.8071  -30.8850   27.0227 H   0  0  0  0  0  0
  -26.2816  -29.6812   24.1104 H   0  0  0  0  0  0
  -27.4080  -29.7287   25.4477 H   0  0  0  0  0  0
  -27.8615  -30.4407   23.9161 H   0  0  0  0  0  0
  -27.2681  -33.3589   26.2086 H   0  0  0  0  0  0
  -28.3816  -32.6853   25.0264 H   0  0  0  0  0  0
  -28.0704  -31.8372   26.5344 H   0  0  0  0  0  0
  -28.2605  -38.0119   24.7496 H   0  0  0  0  0  0
  -28.1114  -36.2641   24.6313 H   0  0  0  0  0  0
  -27.2293  -37.1474   25.8854 H   0  0  0  0  0  0
  -20.9260  -29.8726   21.6973 H   0  0  0  0  0  0
  -26.0219  -38.2870   24.1397 H   0  0  0  0  0  0
  -28.2486  -18.6798   22.1550 H   0  0  0  0  0  0
  -25.2678  -19.6153   24.5047 H   0  0  0  0  0  0
  -26.9840  -19.2342   24.4497 H   0  0  0  0  0  0
  -25.9172  -18.6854   23.1587 H   0  0  0  0  0  0
  -28.7285  -25.5237   23.2416 H   0  0  0  0  0  0
  -27.2666  -26.2873   22.6285 H   0  0  0  0  0  0
  -28.7784  -27.1947   22.7238 H   0  0  0  0  0  0
  -31.4359  -19.7253   22.8065 H   0  0  0  0  0  0
  -32.8303  -18.7367   22.3597 H   0  0  0  0  0  0
  -31.9441  -18.4290   23.8492 H   0  0  0  0  0  0
  -31.4304  -20.1603   20.4867 H   0  0  0  0  0  0
  -30.4114  -19.6499   19.1948 H   0  0  0  0  0  0
  -25.4911  -21.0831   22.5061 H   0  0  0  0  0  0
  -26.5369  -21.6195   23.7941 H   0  0  0  0  0  0
  -29.0536  -24.0538   21.4271 H   0  0  0  0  0  0
  -27.3336  -24.8035   20.6969 H   0  0  0  0  0  0
  -26.4662  -23.1303   21.0876 H   0  0  0  0  0  0
  -27.3621  -23.5315   22.5210 H   0  0  0  0  0  0
  -31.6712  -17.7640   20.0867 H   0  0  0  0  0  0
  -29.9581  -17.5055   20.2106 H   0  0  0  0  0  0
  -32.3584  -16.1783   21.9009 H   0  0  0  0  0  0
  -31.5275  -16.2405   23.4084 H   0  0  0  0  0  0
  -30.2168  -14.5896   22.7764 H   0  0  0  0  0  0
  -29.8258  -25.8026   21.0517 H   0  0  0  0  0  0
  -30.0378  -17.8464   22.4965 H   0  0  0  0  0  0
  1 25  1  0  0  0
  1 30  2  0  0  0
  1 83  1  0  0  0
  2  3  1  0  0  0
  2 25  1  0  0  0
  2 89  1  0  0  0
  2 90  1  0  0  0
  3  4  1  0  0  0
  3 91  1  0  0  0
  3 92  1  0  0  0
  4  5  1  0  0  0
  4 93  1  0  0  0
  4 94  1  0  0  0
  5  6  1  0  0  0
  5 26  1  0  0  0
  5 95  1  0  0  0
  6 25  1  0  0  0
  6 96  1  0  0  0
  6 97  1  0  0  0
  7  8  2  0  0  0
  7 26  1  0  0  0
  7 29  1  0  0  0
  8  9  1  0  0  0
  8 22  1  0  0  0
  9 10  1  0  0  0
  9 27  2  0  0  0
 10 11  2  0  0  0
 10 15  1  0  0  0
 11 12  1  0  0  0
 11 98  1  0  0  0
 12 13  2  0  0  0
 12 99  1  0  0  0
 13 14  1  0  0  0
 13 31  1  0  0  0
 14 15  2  0  0  0
 14100  1  0  0  0
 15101  1  0  0  0
 16 17  2  0  0  0
 16 21  1  0  0  0
 16 31  1  0  0  0
 17 18  1  0  0  0
 17102  1  0  0  0
 18 19  2  0  0  0
 18103  1  0  0  0
 19 20  1  0  0  0
 19 24  1  0  0  0
 20 21  2  0  0  0
 20104  1  0  0  0
 21 23  1  0  0  0
 22 28  1  0  0  0
 22 32  2  0  0  0
 26 27  1  0  0  0
 28105  1  0  0  0
 28106  1  0  0  0
 29107  1  0  0  0
 29108  1  0  0  0
 33 34  1  0  0  0
 33 66  1  0  0  0
 33 70  2  0  0  0
 34 36  1  0  0  0
 34 59  1  0  0  0
 34109  1  0  0  0
 35 44  2  0  0  0
 35 45  1  0  0  0
 35 68  1  0  0  0
 36 56  1  0  0  0
 36110  1  0  0  0
 37 39  1  0  0  0
 37 47  1  0  0  0
 37 66  1  0  0  0
 37111  1  0  0  0
 38 43  2  0  0  0
 38 46  1  0  0  0
 38 47  1  0  0  0
 39 64  1  0  0  0
 39 67  2  0  0  0
 40 52  1  0  0  0
 40 53  2  0  0  0
 40 58  1  0  0  0
 41112  1  0  0  0
 41113  1  0  0  0
 41114  1  0  0  0
 41 48  1  0  0  0
 42 43  1  0  0  0
 42 66  1  0  0  0
 42115  1  0  0  0
 42116  1  0  0  0
 43 44  1  0  0  0
 44117  1  0  0  0
 45 46  2  0  0  0
 45118  1  0  0  0
 46119  1  0  0  0
 47120  1  0  0  0
 47121  1  0  0  0
 48 56  1  0  0  0
 48 65  1  0  0  0
 48122  1  0  0  0
 49 50  1  0  0  0
 49 53  1  0  0  0
 49 64  1  0  0  0
 49123  1  0  0  0
 50 51  1  0  0  0
 50124  1  0  0  0
 50125  1  0  0  0
 51 52  1  0  0  0
 51126  1  0  0  0
 51127  1  0  0  0
 52128  1  0  0  0
 52129  1  0  0  0
 53 54  1  0  0  0
 54 55  2  0  0  0
 54130  1  0  0  0
 55 57  1  0  0  0
 55131  1  0  0  0
 56 69  2  0  0  0
 57 58  2  0  0  0
 57132  1  0  0  0
 58133  1  0  0  0
 59 60  1  0  0  0
 59 61  1  0  0  0
 59 62  1  0  0  0
 60134  1  0  0  0
 60135  1  0  0  0
 60136  1  0  0  0
 61137  1  0  0  0
 61138  1  0  0  0
 61139  1  0  0  0
 62140  1  0  0  0
 62141  1  0  0  0
 62142  1  0  0  0
 63 65  1  0  0  0
 63143  1  0  0  0
 63144  1  0  0  0
 63145  1  0  0  0
 64146  1  0  0  0
 65147  1  0  0  0
 68 84  1  0  0  0
 71 72  1  0  0  0
 71 73  2  0  0  0
 71148  1  0  0  0
 72 77  1  0  0  0
 72 85  2  0  0  0
 73 78  1  0  0  0
 73 86  1  0  0  0
 74 78  1  0  0  0
 74149  1  0  0  0
 74150  1  0  0  0
 74151  1  0  0  0
 75152  1  0  0  0
 75153  1  0  0  0
 75154  1  0  0  0
 75 84  1  0  0  0
 76155  1  0  0  0
 76156  1  0  0  0
 76157  1  0  0  0
 76 87  1  0  0  0
 77 81  1  0  0  0
 77158  1  0  0  0
 77159  1  0  0  0
 78160  1  0  0  0
 78161  1  0  0  0
 79 80  1  0  0  0
 79 84  1  0  0  0
 79162  1  0  0  0
 79163  1  0  0  0
 80 86  1  0  0  0
 80164  1  0  0  0
 80165  1  0  0  0
 81 87  1  0  0  0
 81166  1  0  0  0
 81167  1  0  0  0
 82 83  1  0  0  0
 82 87  1  0  0  0
 82168  1  0  0  0
 82169  1  0  0  0
 83 88  1  0  0  0
 83170  1  0  0  0
 84171  1  0  0  0
 85 86  1  0  0  0
 87172  1  0  0  0
M  CHG  1  87   1
M  ISO  4   1 100  68 101  83 100  84 101
M  END
> <chiral flag>
0

> <version>
0

> <s_m_source_file>
/data/baiqing/PycharmProjects/Reinvent-master-3.2/result/LINK_invent/BTK/process_docking_weight1_custom_sum_contain_oxygen_bond_distance_aromatic_linkinvent_7_9_3/rearranged_h_0051.sdf

> <i_m_source_file_index>
34

> <r_mmod_Potential_Energy-OPLS-2005>
37.2327308654785

> <r_mmod_Stretch_Energy-OPLS-2005>
41.6540832519531

> <r_mmod_Bend_Energy-OPLS-2005>
340.658721923828

> <r_mmod_Torsional_Energy-OPLS-2005>
234.552017211914

> <r_mmod_Improper_Torsional_Energy-OPLS-2005>
1.80231952667236

> <r_mmod_Van_der_Waal_Energy-OPLS-2005>
146.326583862305

> <r_mmod_Electrostatic_Energy-OPLS-2005>
-311.389373779297

> <r_mmod_Solvation_Energy-OPLS-2005>
-423.611999511719

> <b_mmod_Minimization_Converged-OPLS-2005>
0

> <r_mmod_RMS_Derivative-OPLS-2005>
2.22403597831726

$$$$
35
                    3D
 Structure written by MMmdl.
169177  0  0  1  0            999 V2000
  -30.6776  -14.5221   20.4785 C   0  0  0  0  0  0
  -30.4205  -12.3237   19.4011 C   0  0  0  0  0  0
  -29.4737  -12.4807   18.1923 C   0  0  0  0  0  0
  -27.9968  -12.3483   18.6195 C   0  0  0  0  0  0
  -27.6486  -13.1915   19.8774 C   0  0  2  0  0  0
  -28.7119  -13.0131   20.9846 C   0  0  0  0  0  0
  -25.2565  -13.8119   20.5752 C   0  0  0  0  0  0
  -24.1812  -13.0400   20.9242 C   0  0  0  0  0  0
  -24.6362  -11.6865   20.8810 C   0  0  0  0  0  0
  -23.9014  -10.4266   21.0447 C   0  0  0  0  0  0
  -24.3569   -9.4189   21.9241 C   0  0  0  0  0  0
  -23.6233   -8.2235   22.0796 C   0  0  0  0  0  0
  -22.4231   -8.0278   21.3563 C   0  0  0  0  0  0
  -21.9873   -9.0253   20.4660 C   0  0  0  0  0  0
  -22.7198  -10.2136   20.3089 C   0  0  0  0  0  0
  -21.6840   -6.0705   22.5287 C   0  0  0  0  0  0
  -21.3999   -6.5609   23.8217 C   0  0  0  0  0  0
  -21.3661   -5.6771   24.9180 C   0  0  0  0  0  0
  -21.6052   -4.3038   24.7243 C   0  0  0  0  0  0
  -21.8815   -3.8116   23.4364 C   0  0  0  0  0  0
  -21.9186   -4.6934   22.3414 C   0  0  0  0  0  0
  -22.7843  -13.5229   21.1831 C   0  0  0  0  0  0
  -22.1659   -4.2117   21.0992 F   0  0  0  0  0  0
  -21.5639   -3.4539   25.7764 F   0  0  0  0  0  0
  -30.0218  -13.3300   20.3959 N   0  0  0  0  0  0
  -26.2973  -12.9246   20.3480 N   0  0  0  0  0  0
  -25.9285  -11.6427   20.5892 N   0  0  0  0  0  0
  -22.0419  -12.8259   22.0362 N   0  0  0  0  0  0
  -25.4273  -15.1847   20.4138 N   0  0  0  0  0  0
  -31.8658  -14.6405   20.1653 O   0  0  0  0  0  0
  -21.6610   -6.8863   21.4250 O   0  0  0  0  0  0
  -22.3576  -14.5526   20.6635 O   0  0  0  0  0  0
  -24.6165  -31.8668   23.2087 C   0  0  0  0  0  0
  -25.9059  -32.4789   23.8399 C   0  0  1  0  0  0
  -27.2279  -27.4156   20.0953 C   0  0  0  0  0  0
  -25.5917  -33.8584   24.2314 N   0  0  0  0  0  0
  -23.4040  -30.4903   21.5524 C   0  0  2  0  0  0
  -24.8480  -28.9604   20.1099 C   0  0  0  0  0  0
  -22.7413  -29.4628   22.4993 C   0  0  0  0  0  0
  -18.0275  -28.1371   22.8479 C   0  0  0  0  0  0
  -24.1481  -36.7304   23.2639 C   0  0  0  0  0  0
  -25.9370  -30.8229   21.3709 C   0  0  0  0  0  0
  -26.0090  -29.4600   20.7111 C   0  0  0  0  0  0
  -27.1992  -28.6950   20.7020 C   0  0  0  0  0  0
  -26.0478  -26.9465   19.4679 C   0  0  0  0  0  0
  -24.8642  -27.7038   19.4835 C   0  0  0  0  0  0
  -23.6103  -29.8268   20.1655 C   0  0  0  0  0  0
  -25.4107  -36.3084   24.0331 C   0  0  1  0  0  0
  -20.5862  -28.3657   23.1310 C   0  0  2  0  0  0
  -20.6753  -26.9390   22.5419 C   0  0  0  0  0  0
  -19.5734  -26.6369   21.5207 C   0  0  0  0  0  0
  -18.1916  -26.7919   22.1602 C   0  0  0  0  0  0
  -19.1526  -28.8833   23.2887 C   0  0  0  0  0  0
  -18.9457  -30.1456   23.8868 C   0  0  0  0  0  0
  -17.6457  -30.6572   24.0558 C   0  0  0  0  0  0
  -25.9056  -34.9452   23.5114 C   0  0  0  0  0  0
  -16.5354  -29.9065   23.6339 C   0  0  0  0  0  0
  -16.7270  -28.6502   23.0336 C   0  0  0  0  0  0
  -26.4478  -31.6576   25.0745 C   0  0  0  0  0  0
  -25.3732  -31.3676   26.1478 C   0  0  0  0  0  0
  -27.0341  -30.3021   24.6153 C   0  0  0  0  0  0
  -27.6044  -32.4303   25.7512 C   0  0  0  0  0  0
  -27.5592  -37.1782   24.8439 C   0  0  0  0  0  0
  -21.4149  -29.3015   22.3717 N   0  0  0  0  0  0
  -26.4276  -37.3797   23.9425 N   0  0  0  0  0  0
  -24.6704  -31.0756   22.1001 N   0  0  0  0  0  0
  -23.4185  -28.8183   23.3061 O   0  0  0  0  0  0
  -28.3963  -26.6717   20.1418 O   0  0  0  0  0  0
  -26.5623  -34.8905   22.4680 O   0  0  0  0  0  0
  -23.5354  -32.1439   23.7470 O   0  0  0  0  0  0
  -28.5410  -18.6676   22.1255 C   0  0  0  0  0  0
  -29.6441  -17.8744   21.7246 C   0  0  0  0  0  0
  -29.7465  -20.6080   21.7329 C   0  0  0  0  0  0
  -30.8473  -19.8125   21.3013 C   0  0  0  0  0  0
  -33.2522  -20.5073   21.8015 C   0  0  0  0  0  0
  -30.0696  -17.5357   17.0908 C   0  0  0  0  0  0
  -29.8097  -22.1378   21.8485 C   0  0  0  0  0  0
  -32.1320  -20.4196   20.7587 C   0  0  0  0  0  0
  -29.5606  -16.3388   21.7406 C   0  0  0  0  0  0
  -30.5949  -16.9098   18.3891 C   0  0  0  0  0  0
  -29.2782  -22.9299   20.6265 C   0  0  0  0  0  0
  -29.3199  -24.4727   20.8160 C   0  0  0  0  0  0
  -29.4622  -16.2670   19.2169 C   0  0  0  0  0  0
  -28.3184  -25.2463   19.9255 C   0  0  0  0  0  0
  -28.5886  -20.0236   22.1364 N   0  0  0  0  0  0
  -30.8066  -18.4538   21.3353 N   0  0  0  0  0  0
  -29.8756  -15.6200   20.4855 N   0  0  0  0  0  0
  -31.4544  -12.4459   19.0690 H   0  0  0  0  0  0
  -30.3507  -11.3209   19.8228 H   0  0  0  0  0  0
  -29.7030  -11.7354   17.4303 H   0  0  0  0  0  0
  -29.6332  -13.4492   17.7175 H   0  0  0  0  0  0
  -27.8047  -11.2946   18.8185 H   0  0  0  0  0  0
  -27.3421  -12.6253   17.7935 H   0  0  0  0  0  0
  -27.6524  -14.2303   19.5715 H   0  0  0  0  0  0
  -28.7110  -11.9844   21.3490 H   0  0  0  0  0  0
  -28.4963  -13.6404   21.8497 H   0  0  0  0  0  0
  -25.2726   -9.5649   22.4812 H   0  0  0  0  0  0
  -23.9934   -7.4620   22.7521 H   0  0  0  0  0  0
  -21.0821   -8.8754   19.8965 H   0  0  0  0  0  0
  -22.3670  -10.9671   19.6172 H   0  0  0  0  0  0
  -21.1990   -7.6119   23.9701 H   0  0  0  0  0  0
  -21.1492   -6.0520   25.9084 H   0  0  0  0  0  0
  -22.0590   -2.7568   23.2879 H   0  0  0  0  0  0
  -22.3938  -11.9875   22.4770 H   0  0  0  0  0  0
  -21.1048  -13.1359   22.2525 H   0  0  0  0  0  0
  -24.6474  -15.8256   20.5065 H   0  0  0  0  0  0
  -26.2726  -15.6300   20.0802 H   0  0  0  0  0  0
  -26.7132  -32.5491   23.1168 H   0  0  0  0  0  0
  -25.0047  -33.9734   25.0441 H   0  0  0  0  0  0
  -22.6918  -31.3075   21.4154 H   0  0  0  0  0  0
  -23.3744  -35.9627   23.3224 H   0  0  0  0  0  0
  -24.3599  -36.9005   22.2072 H   0  0  0  0  0  0
  -23.7195  -37.6464   23.6715 H   0  0  0  0  0  0
  -26.0642  -31.5930   20.6082 H   0  0  0  0  0  0
  -26.8190  -30.8635   21.9981 H   0  0  0  0  0  0
  -28.0929  -29.0728   21.1796 H   0  0  0  0  0  0
  -26.0143  -25.9958   18.9562 H   0  0  0  0  0  0
  -23.9762  -27.3155   19.0045 H   0  0  0  0  0  0
  -23.7153  -30.6037   19.4074 H   0  0  0  0  0  0
  -22.7334  -29.2478   19.8694 H   0  0  0  0  0  0
  -25.1259  -36.1950   25.0823 H   0  0  0  0  0  0
  -20.9950  -28.3234   24.1437 H   0  0  0  0  0  0
  -20.5664  -26.2255   23.3603 H   0  0  0  0  0  0
  -21.6631  -26.7430   22.1222 H   0  0  0  0  0  0
  -19.6897  -25.6278   21.1223 H   0  0  0  0  0  0
  -19.6684  -27.3182   20.6743 H   0  0  0  0  0  0
  -17.4193  -26.6690   21.3997 H   0  0  0  0  0  0
  -18.0304  -26.0071   22.9007 H   0  0  0  0  0  0
  -19.7924  -30.7303   24.2202 H   0  0  0  0  0  0
  -17.5002  -31.6235   24.5180 H   0  0  0  0  0  0
  -15.5359  -30.2963   23.7668 H   0  0  0  0  0  0
  -15.8669  -28.0836   22.7027 H   0  0  0  0  0  0
  -24.5898  -30.7040   25.7795 H   0  0  0  0  0  0
  -24.8946  -32.2837   26.4954 H   0  0  0  0  0  0
  -25.8093  -30.8812   27.0215 H   0  0  0  0  0  0
  -26.2925  -29.6744   24.1203 H   0  0  0  0  0  0
  -27.4095  -29.7289   25.4641 H   0  0  0  0  0  0
  -27.8753  -30.4326   23.9337 H   0  0  0  0  0  0
  -27.2663  -33.3615   26.2069 H   0  0  0  0  0  0
  -28.3873  -32.6830   25.0346 H   0  0  0  0  0  0
  -28.0680  -31.8429   26.5446 H   0  0  0  0  0  0
  -28.2508  -38.0183   24.7629 H   0  0  0  0  0  0
  -28.1187  -36.2709   24.6078 H   0  0  0  0  0  0
  -27.2329  -37.1220   25.8842 H   0  0  0  0  0  0
  -20.9309  -29.8765   21.6952 H   0  0  0  0  0  0
  -26.0136  -38.2843   24.1515 H   0  0  0  0  0  0
  -27.6166  -18.2097   22.4506 H   0  0  0  0  0  0
  -34.1519  -20.9443   21.3665 H   0  0  0  0  0  0
  -33.5211  -19.5240   22.1875 H   0  0  0  0  0  0
  -32.9529  -21.1330   22.6421 H   0  0  0  0  0  0
  -30.8890  -17.9301   16.4913 H   0  0  0  0  0  0
  -29.3824  -18.3574   17.2943 H   0  0  0  0  0  0
  -29.5396  -16.8005   16.4800 H   0  0  0  0  0  0
  -30.8286  -22.4412   22.0843 H   0  0  0  0  0  0
  -29.2225  -22.4274   22.7214 H   0  0  0  0  0  0
  -31.9329  -21.4115   20.3574 H   0  0  0  0  0  0
  -32.4707  -19.8301   19.9054 H   0  0  0  0  0  0
  -28.5455  -16.0582   22.0187 H   0  0  0  0  0  0
  -30.1918  -15.9787   22.5545 H   0  0  0  0  0  0
  -31.1168  -17.6732   18.9584 H   0  0  0  0  0  0
  -31.3466  -16.1646   18.1302 H   0  0  0  0  0  0
  -28.2510  -22.6129   20.4412 H   0  0  0  0  0  0
  -29.8455  -22.6598   19.7345 H   0  0  0  0  0  0
  -30.3322  -24.8361   20.6377 H   0  0  0  0  0  0
  -29.0930  -24.7067   21.8558 H   0  0  0  0  0  0
  -29.0028  -15.5181   18.5766 H   0  0  0  0  0  0
  -28.6769  -17.0001   19.4010 H   0  0  0  0  0  0
  -27.3336  -24.8447   20.1667 H   0  0  0  0  0  0
  -28.5026  -25.0410   18.8711 H   0  0  0  0  0  0
  1 25  1  0  0  0
  1 30  2  0  0  0
  1 87  1  0  0  0
  2  3  1  0  0  0
  2 25  1  0  0  0
  2 88  1  0  0  0
  2 89  1  0  0  0
  3  4  1  0  0  0
  3 90  1  0  0  0
  3 91  1  0  0  0
  4  5  1  0  0  0
  4 92  1  0  0  0
  4 93  1  0  0  0
  5  6  1  0  0  0
  5 26  1  0  0  0
  5 94  1  0  0  0
  6 25  1  0  0  0
  6 95  1  0  0  0
  6 96  1  0  0  0
  7  8  2  0  0  0
  7 26  1  0  0  0
  7 29  1  0  0  0
  8  9  1  0  0  0
  8 22  1  0  0  0
  9 10  1  0  0  0
  9 27  2  0  0  0
 10 11  2  0  0  0
 10 15  1  0  0  0
 11 12  1  0  0  0
 11 97  1  0  0  0
 12 13  2  0  0  0
 12 98  1  0  0  0
 13 14  1  0  0  0
 13 31  1  0  0  0
 14 15  2  0  0  0
 14 99  1  0  0  0
 15100  1  0  0  0
 16 17  2  0  0  0
 16 21  1  0  0  0
 16 31  1  0  0  0
 17 18  1  0  0  0
 17101  1  0  0  0
 18 19  2  0  0  0
 18102  1  0  0  0
 19 20  1  0  0  0
 19 24  1  0  0  0
 20 21  2  0  0  0
 20103  1  0  0  0
 21 23  1  0  0  0
 22 28  1  0  0  0
 22 32  2  0  0  0
 26 27  1  0  0  0
 28104  1  0  0  0
 28105  1  0  0  0
 29106  1  0  0  0
 29107  1  0  0  0
 33 34  1  0  0  0
 33 66  1  0  0  0
 33 70  2  0  0  0
 34 36  1  0  0  0
 34 59  1  0  0  0
 34108  1  0  0  0
 35 44  2  0  0  0
 35 45  1  0  0  0
 35 68  1  0  0  0
 36 56  1  0  0  0
 36109  1  0  0  0
 37 39  1  0  0  0
 37 47  1  0  0  0
 37 66  1  0  0  0
 37110  1  0  0  0
 38 43  2  0  0  0
 38 46  1  0  0  0
 38 47  1  0  0  0
 39 64  1  0  0  0
 39 67  2  0  0  0
 40 52  1  0  0  0
 40 53  2  0  0  0
 40 58  1  0  0  0
 41111  1  0  0  0
 41112  1  0  0  0
 41113  1  0  0  0
 41 48  1  0  0  0
 42 43  1  0  0  0
 42 66  1  0  0  0
 42114  1  0  0  0
 42115  1  0  0  0
 43 44  1  0  0  0
 44116  1  0  0  0
 45 46  2  0  0  0
 45117  1  0  0  0
 46118  1  0  0  0
 47119  1  0  0  0
 47120  1  0  0  0
 48 56  1  0  0  0
 48 65  1  0  0  0
 48121  1  0  0  0
 49 50  1  0  0  0
 49 53  1  0  0  0
 49 64  1  0  0  0
 49122  1  0  0  0
 50 51  1  0  0  0
 50123  1  0  0  0
 50124  1  0  0  0
 51 52  1  0  0  0
 51125  1  0  0  0
 51126  1  0  0  0
 52127  1  0  0  0
 52128  1  0  0  0
 53 54  1  0  0  0
 54 55  2  0  0  0
 54129  1  0  0  0
 55 57  1  0  0  0
 55130  1  0  0  0
 56 69  2  0  0  0
 57 58  2  0  0  0
 57131  1  0  0  0
 58132  1  0  0  0
 59 60  1  0  0  0
 59 61  1  0  0  0
 59 62  1  0  0  0
 60133  1  0  0  0
 60134  1  0  0  0
 60135  1  0  0  0
 61136  1  0  0  0
 61137  1  0  0  0
 61138  1  0  0  0
 62139  1  0  0  0
 62140  1  0  0  0
 62141  1  0  0  0
 63 65  1  0  0  0
 63142  1  0  0  0
 63143  1  0  0  0
 63144  1  0  0  0
 64145  1  0  0  0
 65146  1  0  0  0
 68 84  1  0  0  0
 71 72  2  0  0  0
 71 85  1  0  0  0
 71147  1  0  0  0
 72 79  1  0  0  0
 72 86  1  0  0  0
 73 74  1  0  0  0
 73 77  1  0  0  0
 73 85  2  0  0  0
 74 78  1  0  0  0
 74 86  2  0  0  0
 75 78  1  0  0  0
 75148  1  0  0  0
 75149  1  0  0  0
 75150  1  0  0  0
 76 80  1  0  0  0
 76151  1  0  0  0
 76152  1  0  0  0
 76153  1  0  0  0
 77 81  1  0  0  0
 77154  1  0  0  0
 77155  1  0  0  0
 78156  1  0  0  0
 78157  1  0  0  0
 79 87  1  0  0  0
 79158  1  0  0  0
 79159  1  0  0  0
 80 83  1  0  0  0
 80160  1  0  0  0
 80161  1  0  0  0
 81 82  1  0  0  0
 81162  1  0  0  0
 81163  1  0  0  0
 82 84  1  0  0  0
 82164  1  0  0  0
 82165  1  0  0  0
 83 87  1  0  0  0
 83166  1  0  0  0
 83167  1  0  0  0
 84168  1  0  0  0
 84169  1  0  0  0
M  ISO  4   1 100  68 101  84 101  87 100
M  END
> <chiral flag>
0

> <version>
0

> <s_m_source_file>
/data/baiqing/PycharmProjects/Reinvent-master-3.2/result/LINK_invent/BTK/process_docking_weight1_custom_sum_contain_oxygen_bond_distance_aromatic_linkinvent_7_9_3/rearranged_h_0051.sdf

> <i_m_source_file_index>
35

> <r_mmod_Potential_Energy-OPLS-2005>
153.868408203125

> <r_mmod_Stretch_Energy-OPLS-2005>
44.725399017334

> <r_mmod_Bend_Energy-OPLS-2005>
104.208572387695

> <r_mmod_Torsional_Energy-OPLS-2005>
286.653625488281

> <r_mmod_Improper_Torsional_Energy-OPLS-2005>
13.0204315185547

> <r_mmod_Van_der_Waal_Energy-OPLS-2005>
148.771926879883

> <r_mmod_Electrostatic_Energy-OPLS-2005>
-261.154479980469

> <r_mmod_Solvation_Energy-OPLS-2005>
-205.118362426758

> <b_mmod_Minimization_Converged-OPLS-2005>
0

> <r_mmod_RMS_Derivative-OPLS-2005>
4.19684505462646

$$$$
36
                    3D
 Structure written by MMmdl.
169177  0  0  1  0            999 V2000
  -30.7328  -14.5249   20.5334 C   0  0  0  0  0  0
  -30.4208  -12.3403   19.4300 C   0  0  0  0  0  0
  -29.4905  -12.4729   18.2083 C   0  0  0  0  0  0
  -28.0278  -12.2633   18.6429 C   0  0  0  0  0  0
  -27.6403  -13.1551   19.8484 C   0  0  2  0  0  0
  -28.6977  -13.0387   20.9812 C   0  0  0  0  0  0
  -25.2558  -13.7982   20.5620 C   0  0  0  0  0  0
  -24.1785  -13.0367   20.9212 C   0  0  0  0  0  0
  -24.6260  -11.6807   20.8763 C   0  0  0  0  0  0
  -23.8905  -10.4243   21.0458 C   0  0  0  0  0  0
  -24.3470   -9.4191   21.9246 C   0  0  0  0  0  0
  -23.6206   -8.2199   22.0790 C   0  0  0  0  0  0
  -22.4217   -8.0219   21.3536 C   0  0  0  0  0  0
  -21.9810   -9.0177   20.4645 C   0  0  0  0  0  0
  -22.7100  -10.2082   20.3084 C   0  0  0  0  0  0
  -21.6826   -6.0683   22.5265 C   0  0  0  0  0  0
  -21.3972   -6.5598   23.8188 C   0  0  0  0  0  0
  -21.3659   -5.6764   24.9165 C   0  0  0  0  0  0
  -21.6068   -4.3032   24.7225 C   0  0  0  0  0  0
  -21.8825   -3.8106   23.4354 C   0  0  0  0  0  0
  -21.9182   -4.6916   22.3400 C   0  0  0  0  0  0
  -22.7841  -13.5272   21.1816 C   0  0  0  0  0  0
  -22.1678   -4.2088   21.0985 F   0  0  0  0  0  0
  -21.5634   -3.4536   25.7745 F   0  0  0  0  0  0
  -30.0164  -13.3656   20.4102 N   0  0  0  0  0  0
  -26.2895  -12.9016   20.3263 N   0  0  0  0  0  0
  -25.9147  -11.6252   20.5773 N   0  0  0  0  0  0
  -22.0411  -12.8362   22.0375 N   0  0  0  0  0  0
  -25.4338  -15.1684   20.3911 N   0  0  0  0  0  0
  -31.9057  -14.5944   20.1615 O   0  0  0  0  0  0
  -21.6618   -6.8807   21.4226 O   0  0  0  0  0  0
  -22.3606  -14.5597   20.6622 O   0  0  0  0  0  0
  -24.6100  -31.8677   23.2091 C   0  0  0  0  0  0
  -25.9020  -32.4805   23.8388 C   0  0  1  0  0  0
  -27.2545  -27.4535   20.0973 C   0  0  0  0  0  0
  -25.5910  -33.8608   24.2338 N   0  0  0  0  0  0
  -23.3979  -30.4848   21.5490 C   0  0  2  0  0  0
  -24.8507  -28.9507   20.1147 C   0  0  0  0  0  0
  -22.7384  -29.4633   22.5027 C   0  0  0  0  0  0
  -18.0251  -28.1339   22.8482 C   0  0  0  0  0  0
  -24.1441  -36.7244   23.2645 C   0  0  0  0  0  0
  -25.9240  -30.8371   21.3621 C   0  0  0  0  0  0
  -26.0044  -29.4710   20.7118 C   0  0  0  0  0  0
  -27.2031  -28.7270   20.7041 C   0  0  0  0  0  0
  -26.0817  -26.9416   19.4924 C   0  0  0  0  0  0
  -24.8849  -27.6841   19.5016 C   0  0  0  0  0  0
  -23.6033  -29.8029   20.1677 C   0  0  0  0  0  0
  -25.4076  -36.3096   24.0350 C   0  0  1  0  0  0
  -20.5838  -28.3618   23.1322 C   0  0  2  0  0  0
  -20.6730  -26.9361   22.5416 C   0  0  0  0  0  0
  -19.5725  -26.6351   21.5194 C   0  0  0  0  0  0
  -18.1887  -26.7902   22.1578 C   0  0  0  0  0  0
  -19.1502  -28.8803   23.2891 C   0  0  0  0  0  0
  -18.9445  -30.1413   23.8883 C   0  0  0  0  0  0
  -17.6446  -30.6565   24.0525 C   0  0  0  0  0  0
  -25.9028  -34.9463   23.5137 C   0  0  0  0  0  0
  -16.5333  -29.9042   23.6335 C   0  0  0  0  0  0
  -16.7240  -28.6452   23.0388 C   0  0  0  0  0  0
  -26.4456  -31.6581   25.0723 C   0  0  0  0  0  0
  -25.3721  -31.3677   26.1474 C   0  0  0  0  0  0
  -27.0295  -30.3026   24.6091 C   0  0  0  0  0  0
  -27.6040  -32.4300   25.7492 C   0  0  0  0  0  0
  -27.5547  -37.1761   24.8454 C   0  0  0  0  0  0
  -21.4125  -29.2979   22.3740 N   0  0  0  0  0  0
  -26.4244  -37.3797   23.9429 N   0  0  0  0  0  0
  -24.6617  -31.0787   22.0981 N   0  0  0  0  0  0
  -23.4170  -28.8222   23.3093 O   0  0  0  0  0  0
  -28.4555  -26.7754   20.1254 O   0  0  0  0  0  0
  -26.5575  -34.8926   22.4693 O   0  0  0  0  0  0
  -23.5301  -32.1431   23.7497 O   0  0  0  0  0  0
  -31.7094  -21.5515   19.9869 C   0  0  0  0  0  0
  -31.5720  -22.9241   19.7261 C   0  0  0  0  0  0
  -33.0101  -21.0769   20.2447 C   0  0  0  0  0  0
  -33.8261  -23.2096   20.0296 C   0  0  0  0  0  0
  -35.0080  -24.1557   20.0885 C   0  0  0  0  0  0
  -28.8092  -16.1130   20.5702 C   0  0  0  0  0  0
  -32.4792  -18.9696   22.6882 C   0  0  0  0  0  0
  -30.2404  -23.5410   19.3146 C   0  0  0  0  0  0
  -33.3071  -19.5924   20.4553 C   0  0  0  0  0  0
  -29.8944  -24.8431   20.0657 C   0  0  0  0  0  0
  -30.8804  -16.7737   21.6387 C   0  0  0  0  0  0
  -31.8047  -17.6005   20.6830 C   0  0  0  0  0  0
  -28.5033  -25.4089   19.7169 C   0  0  0  0  0  0
  -32.6445  -23.7379   19.7355 N   0  0  0  0  0  0
  -34.0606  -21.9248   20.2796 N   0  0  0  0  0  0
  -30.1279  -15.6534   21.0230 N   0  0  0  0  0  0
  -32.2228  -18.9348   21.2276 N   0  3  1  0  0  0
  -31.4645  -12.4326   19.1244 H   0  0  0  0  0  0
  -30.3375  -11.3475   19.8701 H   0  0  0  0  0  0
  -29.7621  -11.7331   17.4556 H   0  0  0  0  0  0
  -29.6150  -13.4526   17.7399 H   0  0  0  0  0  0
  -27.9275  -11.2142   18.9240 H   0  0  0  0  0  0
  -27.3458  -12.4233   17.8076 H   0  0  0  0  0  0
  -27.6126  -14.1507   19.4340 H   0  0  0  0  0  0
  -28.7036  -12.0241   21.3805 H   0  0  0  0  0  0
  -28.4519  -13.6682   21.8353 H   0  0  0  0  0  0
  -25.2595   -9.5720   22.4843 H   0  0  0  0  0  0
  -23.9910   -7.4622   22.7538 H   0  0  0  0  0  0
  -21.0741   -8.8687   19.8954 H   0  0  0  0  0  0
  -22.3563  -10.9608   19.6185 H   0  0  0  0  0  0
  -21.1941   -7.6104   23.9660 H   0  0  0  0  0  0
  -21.1483   -6.0509   25.9060 H   0  0  0  0  0  0
  -22.0597   -2.7568   23.2872 H   0  0  0  0  0  0
  -22.3925  -12.0011   22.4829 H   0  0  0  0  0  0
  -21.1046  -13.1504   22.2494 H   0  0  0  0  0  0
  -24.6823  -15.8366   20.5125 H   0  0  0  0  0  0
  -26.2867  -15.5881   20.0449 H   0  0  0  0  0  0
  -26.7081  -32.5535   23.1150 H   0  0  0  0  0  0
  -25.0139  -33.9757   25.0538 H   0  0  0  0  0  0
  -22.6815  -31.2980   21.4082 H   0  0  0  0  0  0
  -23.3760  -35.9513   23.3269 H   0  0  0  0  0  0
  -24.3541  -36.8894   22.2069 H   0  0  0  0  0  0
  -23.7100  -37.6398   23.6675 H   0  0  0  0  0  0
  -26.0403  -31.6059   20.5967 H   0  0  0  0  0  0
  -26.8088  -30.8871   21.9846 H   0  0  0  0  0  0
  -28.0907  -29.1276   21.1743 H   0  0  0  0  0  0
  -26.0760  -25.9772   19.0047 H   0  0  0  0  0  0
  -24.0006  -27.2744   19.0329 H   0  0  0  0  0  0
  -23.6825  -30.5643   19.3917 H   0  0  0  0  0  0
  -22.7360  -29.1981   19.8976 H   0  0  0  0  0  0
  -25.1247  -36.1945   25.0836 H   0  0  0  0  0  0
  -20.9931  -28.3173   24.1448 H   0  0  0  0  0  0
  -20.5614  -26.2226   23.3593 H   0  0  0  0  0  0
  -21.6597  -26.7392   22.1231 H   0  0  0  0  0  0
  -19.6884  -25.6273   21.1190 H   0  0  0  0  0  0
  -19.6683  -27.3167   20.6734 H   0  0  0  0  0  0
  -17.4202  -26.6714   21.3928 H   0  0  0  0  0  0
  -18.0224  -26.0005   22.8919 H   0  0  0  0  0  0
  -19.7929  -30.7205   24.2243 H   0  0  0  0  0  0
  -17.5022  -31.6259   24.5098 H   0  0  0  0  0  0
  -15.5325  -30.2941   23.7701 H   0  0  0  0  0  0
  -15.8629  -28.0749   22.7162 H   0  0  0  0  0  0
  -24.5926  -30.6984   25.7818 H   0  0  0  0  0  0
  -24.8864  -32.2820   26.4886 H   0  0  0  0  0  0
  -25.8085  -30.8893   27.0246 H   0  0  0  0  0  0
  -26.2837  -29.6788   24.1151 H   0  0  0  0  0  0
  -27.4080  -29.7262   25.4537 H   0  0  0  0  0  0
  -27.8658  -30.4343   23.9226 H   0  0  0  0  0  0
  -27.2688  -33.3647   26.1984 H   0  0  0  0  0  0
  -28.3897  -32.6756   25.0345 H   0  0  0  0  0  0
  -28.0630  -31.8463   26.5475 H   0  0  0  0  0  0
  -28.2551  -38.0074   24.7575 H   0  0  0  0  0  0
  -28.1047  -36.2614   24.6179 H   0  0  0  0  0  0
  -27.2275  -37.1293   25.8856 H   0  0  0  0  0  0
  -20.9305  -29.8661   21.6916 H   0  0  0  0  0  0
  -26.0125  -38.2859   24.1498 H   0  0  0  0  0  0
  -30.8497  -20.8981   19.9262 H   0  0  0  0  0  0
  -34.6930  -25.1935   19.9753 H   0  0  0  0  0  0
  -35.7211  -23.9269   19.2970 H   0  0  0  0  0  0
  -35.5164  -24.0632   21.0476 H   0  0  0  0  0  0
  -28.6729  -15.9084   19.5093 H   0  0  0  0  0  0
  -28.6644  -17.1890   20.6499 H   0  0  0  0  0  0
  -28.0108  -15.6744   21.1664 H   0  0  0  0  0  0
  -32.8984  -19.9297   22.9906 H   0  0  0  0  0  0
  -33.1756  -18.1825   22.9819 H   0  0  0  0  0  0
  -31.5541  -18.8444   23.2522 H   0  0  0  0  0  0
  -29.4520  -22.8051   19.4730 H   0  0  0  0  0  0
  -30.2734  -23.7323   18.2423 H   0  0  0  0  0  0
  -34.2638  -19.4678   20.9672 H   0  0  0  0  0  0
  -33.4357  -19.1379   19.4734 H   0  0  0  0  0  0
  -30.6507  -25.5932   19.8301 H   0  0  0  0  0  0
  -29.9557  -24.6739   21.1411 H   0  0  0  0  0  0
  -30.1703  -17.4435   22.1225 H   0  0  0  0  0  0
  -31.4767  -16.3612   22.4528 H   0  0  0  0  0  0
  -31.3191  -17.7657   19.7175 H   0  0  0  0  0  0
  -32.7085  -17.0213   20.4760 H   0  0  0  0  0  0
  -27.7361  -24.8229   20.2271 H   0  0  0  0  0  0
  -28.3210  -25.3435   18.6428 H   0  0  0  0  0  0
  -31.4579  -19.5749   21.0706 H   0  0  0  0  0  0
  1 25  1  0  0  0
  1 30  2  0  0  0
  1 86  1  0  0  0
  2  3  1  0  0  0
  2 25  1  0  0  0
  2 88  1  0  0  0
  2 89  1  0  0  0
  3  4  1  0  0  0
  3 90  1  0  0  0
  3 91  1  0  0  0
  4  5  1  0  0  0
  4 92  1  0  0  0
  4 93  1  0  0  0
  5  6  1  0  0  0
  5 26  1  0  0  0
  5 94  1  0  0  0
  6 25  1  0  0  0
  6 95  1  0  0  0
  6 96  1  0  0  0
  7  8  2  0  0  0
  7 26  1  0  0  0
  7 29  1  0  0  0
  8  9  1  0  0  0
  8 22  1  0  0  0
  9 10  1  0  0  0
  9 27  2  0  0  0
 10 11  2  0  0  0
 10 15  1  0  0  0
 11 12  1  0  0  0
 11 97  1  0  0  0
 12 13  2  0  0  0
 12 98  1  0  0  0
 13 14  1  0  0  0
 13 31  1  0  0  0
 14 15  2  0  0  0
 14 99  1  0  0  0
 15100  1  0  0  0
 16 17  2  0  0  0
 16 21  1  0  0  0
 16 31  1  0  0  0
 17 18  1  0  0  0
 17101  1  0  0  0
 18 19  2  0  0  0
 18102  1  0  0  0
 19 20  1  0  0  0
 19 24  1  0  0  0
 20 21  2  0  0  0
 20103  1  0  0  0
 21 23  1  0  0  0
 22 28  1  0  0  0
 22 32  2  0  0  0
 26 27  1  0  0  0
 28104  1  0  0  0
 28105  1  0  0  0
 29106  1  0  0  0
 29107  1  0  0  0
 33 34  1  0  0  0
 33 66  1  0  0  0
 33 70  2  0  0  0
 34 36  1  0  0  0
 34 59  1  0  0  0
 34108  1  0  0  0
 35 44  2  0  0  0
 35 45  1  0  0  0
 35 68  1  0  0  0
 36 56  1  0  0  0
 36109  1  0  0  0
 37 39  1  0  0  0
 37 47  1  0  0  0
 37 66  1  0  0  0
 37110  1  0  0  0
 38 43  2  0  0  0
 38 46  1  0  0  0
 38 47  1  0  0  0
 39 64  1  0  0  0
 39 67  2  0  0  0
 40 52  1  0  0  0
 40 53  2  0  0  0
 40 58  1  0  0  0
 41111  1  0  0  0
 41112  1  0  0  0
 41113  1  0  0  0
 41 48  1  0  0  0
 42 43  1  0  0  0
 42 66  1  0  0  0
 42114  1  0  0  0
 42115  1  0  0  0
 43 44  1  0  0  0
 44116  1  0  0  0
 45 46  2  0  0  0
 45117  1  0  0  0
 46118  1  0  0  0
 47119  1  0  0  0
 47120  1  0  0  0
 48 56  1  0  0  0
 48 65  1  0  0  0
 48121  1  0  0  0
 49 50  1  0  0  0
 49 53  1  0  0  0
 49 64  1  0  0  0
 49122  1  0  0  0
 50 51  1  0  0  0
 50123  1  0  0  0
 50124  1  0  0  0
 51 52  1  0  0  0
 51125  1  0  0  0
 51126  1  0  0  0
 52127  1  0  0  0
 52128  1  0  0  0
 53 54  1  0  0  0
 54 55  2  0  0  0
 54129  1  0  0  0
 55 57  1  0  0  0
 55130  1  0  0  0
 56 69  2  0  0  0
 57 58  2  0  0  0
 57131  1  0  0  0
 58132  1  0  0  0
 59 60  1  0  0  0
 59 61  1  0  0  0
 59 62  1  0  0  0
 60133  1  0  0  0
 60134  1  0  0  0
 60135  1  0  0  0
 61136  1  0  0  0
 61137  1  0  0  0
 61138  1  0  0  0
 62139  1  0  0  0
 62140  1  0  0  0
 62141  1  0  0  0
 63 65  1  0  0  0
 63142  1  0  0  0
 63143  1  0  0  0
 63144  1  0  0  0
 64145  1  0  0  0
 65146  1  0  0  0
 68 83  1  0  0  0
 71 72  2  0  0  0
 71 73  1  0  0  0
 71147  1  0  0  0
 72 78  1  0  0  0
 72 84  1  0  0  0
 73 79  1  0  0  0
 73 85  2  0  0  0
 74 75  1  0  0  0
 74 84  2  0  0  0
 74 85  1  0  0  0
 75148  1  0  0  0
 75149  1  0  0  0
 75150  1  0  0  0
 76 86  1  0  0  0
 76151  1  0  0  0
 76152  1  0  0  0
 76153  1  0  0  0
 77154  1  0  0  0
 77155  1  0  0  0
 77156  1  0  0  0
 77 87  1  0  0  0
 78 80  1  0  0  0
 78157  1  0  0  0
 78158  1  0  0  0
 79 87  1  0  0  0
 79159  1  0  0  0
 79160  1  0  0  0
 80 83  1  0  0  0
 80161  1  0  0  0
 80162  1  0  0  0
 81 82  1  0  0  0
 81 86  1  0  0  0
 81163  1  0  0  0
 81164  1  0  0  0
 82 87  1  0  0  0
 82165  1  0  0  0
 82166  1  0  0  0
 83167  1  0  0  0
 83168  1  0  0  0
 87169  1  0  0  0
M  CHG  1  87   1
M  ISO  4   1 100  68 101  83 101  86 100
M  END
> <chiral flag>
0

> <version>
0

> <s_m_source_file>
/data/baiqing/PycharmProjects/Reinvent-master-3.2/result/LINK_invent/BTK/process_docking_weight1_custom_sum_contain_oxygen_bond_distance_aromatic_linkinvent_7_9_3/rearranged_h_0051.sdf

> <i_m_source_file_index>
36

> <r_mmod_Potential_Energy-OPLS-2005>
-571.61572265625

> <r_mmod_Stretch_Energy-OPLS-2005>
41.2740325927734

> <r_mmod_Bend_Energy-OPLS-2005>
122.600723266602

> <r_mmod_Torsional_Energy-OPLS-2005>
266.652069091797

> <r_mmod_Improper_Torsional_Energy-OPLS-2005>
3.47507691383362

> <r_mmod_Van_der_Waal_Energy-OPLS-2005>
181.150726318359

> <r_mmod_Electrostatic_Energy-OPLS-2005>
-746.0966796875

> <r_mmod_Solvation_Energy-OPLS-2005>
-464.678192138672

> <b_mmod_Minimization_Converged-OPLS-2005>
0

> <r_mmod_RMS_Derivative-OPLS-2005>
4.36822414398193

$$$$
37
                    3D
 Structure written by MMmdl.
166174  0  0  1  0            999 V2000
  -30.7737  -14.3727   20.6879 C   0  0  0  0  0  0
  -30.4143  -12.2898   19.4075 C   0  0  0  0  0  0
  -29.4879  -12.5273   18.1997 C   0  0  0  0  0  0
  -28.0119  -12.3772   18.6103 C   0  0  0  0  0  0
  -27.6654  -13.2024   19.8765 C   0  0  2  0  0  0
  -28.6985  -12.9527   20.9963 C   0  0  0  0  0  0
  -25.2598  -13.8157   20.5661 C   0  0  0  0  0  0
  -24.1844  -13.0437   20.9158 C   0  0  0  0  0  0
  -24.6391  -11.6902   20.8718 C   0  0  0  0  0  0
  -23.9056  -10.4291   21.0401 C   0  0  0  0  0  0
  -24.3613   -9.4209   21.9178 C   0  0  0  0  0  0
  -23.6290   -8.2245   22.0756 C   0  0  0  0  0  0
  -22.4273   -8.0277   21.3544 C   0  0  0  0  0  0
  -21.9906   -9.0252   20.4649 C   0  0  0  0  0  0
  -22.7230  -10.2133   20.3053 C   0  0  0  0  0  0
  -21.6855   -6.0732   22.5279 C   0  0  0  0  0  0
  -21.4015   -6.5641   23.8211 C   0  0  0  0  0  0
  -21.3660   -5.6795   24.9176 C   0  0  0  0  0  0
  -21.6047   -4.3057   24.7229 C   0  0  0  0  0  0
  -21.8822   -3.8144   23.4352 C   0  0  0  0  0  0
  -21.9194   -4.6960   22.3406 C   0  0  0  0  0  0
  -22.7870  -13.5239   21.1831 C   0  0  0  0  0  0
  -22.1661   -4.2144   21.0983 F   0  0  0  0  0  0
  -21.5630   -3.4542   25.7741 F   0  0  0  0  0  0
  -30.0483  -13.2396   20.4711 N   0  0  0  0  0  0
  -26.3032  -12.9321   20.3340 N   0  0  0  0  0  0
  -25.9313  -11.6482   20.5735 N   0  0  0  0  0  0
  -22.0513  -12.8233   22.0395 N   0  0  0  0  0  0
  -25.4333  -15.1873   20.4088 N   0  0  0  0  0  0
  -31.7690  -14.6638   20.0148 O   0  0  0  0  0  0
  -21.6641   -6.8873   21.4240 O   0  0  0  0  0  0
  -22.3555  -14.5545   20.6683 O   0  0  0  0  0  0
  -24.6101  -31.8710   23.2120 C   0  0  0  0  0  0
  -25.9009  -32.4843   23.8409 C   0  0  1  0  0  0
  -27.2417  -27.4685   20.0945 C   0  0  0  0  0  0
  -25.5879  -33.8639   24.2347 N   0  0  0  0  0  0
  -23.3978  -30.4925   21.5515 C   0  0  2  0  0  0
  -24.8479  -28.9581   20.1194 C   0  0  0  0  0  0
  -22.7389  -29.4670   22.5010 C   0  0  0  0  0  0
  -18.0269  -28.1374   22.8501 C   0  0  0  0  0  0
  -24.1483  -36.7318   23.2642 C   0  0  0  0  0  0
  -25.9223  -30.8448   21.3623 C   0  0  0  0  0  0
  -26.0029  -29.4781   20.7184 C   0  0  0  0  0  0
  -27.2037  -28.7377   20.7111 C   0  0  0  0  0  0
  -26.0786  -26.9558   19.4884 C   0  0  0  0  0  0
  -24.8777  -27.6923   19.5058 C   0  0  0  0  0  0
  -23.6066  -29.8206   20.1673 C   0  0  0  0  0  0
  -25.4103  -36.3125   24.0347 C   0  0  1  0  0  0
  -20.5857  -28.3655   23.1333 C   0  0  2  0  0  0
  -20.6759  -26.9395   22.5429 C   0  0  0  0  0  0
  -19.5742  -26.6385   21.5219 C   0  0  0  0  0  0
  -18.1916  -26.7924   22.1624 C   0  0  0  0  0  0
  -19.1519  -28.8831   23.2915 C   0  0  0  0  0  0
  -18.9448  -30.1440   23.8920 C   0  0  0  0  0  0
  -17.6452  -30.6584   24.0568 C   0  0  0  0  0  0
  -25.9025  -34.9489   23.5145 C   0  0  0  0  0  0
  -16.5343  -29.9091   23.6322 C   0  0  0  0  0  0
  -16.7260  -28.6505   23.0348 C   0  0  0  0  0  0
  -26.4453  -31.6607   25.0719 C   0  0  0  0  0  0
  -25.3725  -31.3695   26.1468 C   0  0  0  0  0  0
  -27.0287  -30.3059   24.6060 C   0  0  0  0  0  0
  -27.6033  -32.4320   25.7478 C   0  0  0  0  0  0
  -27.5581  -37.1813   24.8468 C   0  0  0  0  0  0
  -21.4123  -29.3024   22.3737 N   0  0  0  0  0  0
  -26.4295  -37.3803   23.9411 N   0  0  0  0  0  0
  -24.6612  -31.0834   22.1008 N   0  0  0  0  0  0
  -23.4172  -28.8221   23.3050 O   0  0  0  0  0  0
  -28.3985  -26.7347   20.0312 O   0  0  0  0  0  0
  -26.5589  -34.8934   22.4708 O   0  0  0  0  0  0
  -23.5302  -32.1451   23.7530 O   0  0  0  0  0  0
  -31.7627  -22.0155   21.7253 C   0  0  0  0  0  0
  -29.9987  -21.7911   20.1462 C   0  0  0  0  0  0
  -30.8580  -21.1702   21.0654 C   0  0  0  0  0  0
  -30.9507  -23.8253   20.5840 C   0  0  0  0  0  0
  -30.3888  -14.8522   23.0340 C   0  0  0  0  0  0
  -29.4388  -19.8878   23.2954 C   0  0  0  0  0  0
  -30.8807  -19.6515   21.2771 C   0  0  0  0  0  0
  -31.0573  -25.3108   20.2745 C   0  0  0  0  0  0
  -30.3794  -26.2217   21.3148 C   0  0  0  0  0  0
  -30.2101  -16.6758   21.2814 C   0  0  0  0  0  0
  -29.9755  -17.6452   22.4733 C   0  0  0  0  0  0
  -28.8458  -26.2075   21.2769 C   0  0  0  0  0  0
  -31.7990  -23.3401   21.4840 N   0  0  0  0  0  0
  -30.0396  -23.1196   19.9227 N   0  0  0  0  0  0
  -30.2917  -15.2329   21.6166 N   0  0  0  0  0  0
  -29.7698  -19.0765   22.0962 N   0  3  1  0  0  0
  -31.4598  -12.3793   19.1067 H   0  0  0  0  0  0
  -30.3024  -11.2682   19.7746 H   0  0  0  0  0  0
  -29.7258  -11.8267   17.3981 H   0  0  0  0  0  0
  -29.6590  -13.5262   17.7947 H   0  0  0  0  0  0
  -27.8224  -11.3190   18.7932 H   0  0  0  0  0  0
  -27.3601  -12.6637   17.7843 H   0  0  0  0  0  0
  -27.7217  -14.2556   19.6003 H   0  0  0  0  0  0
  -28.6562  -11.9146   21.3292 H   0  0  0  0  0  0
  -28.4291  -13.5453   21.8691 H   0  0  0  0  0  0
  -25.2766   -9.5689   22.4742 H   0  0  0  0  0  0
  -24.0006   -7.4644   22.7481 H   0  0  0  0  0  0
  -21.0835   -8.8767   19.8956 H   0  0  0  0  0  0
  -22.3685  -10.9669   19.6160 H   0  0  0  0  0  0
  -21.2005   -7.6150   23.9710 H   0  0  0  0  0  0
  -21.1480   -6.0529   25.9079 H   0  0  0  0  0  0
  -22.0598   -2.7604   23.2855 H   0  0  0  0  0  0
  -22.4137  -11.9899   22.4786 H   0  0  0  0  0  0
  -21.1130  -13.1256   22.2598 H   0  0  0  0  0  0
  -24.6681  -15.8445   20.5163 H   0  0  0  0  0  0
  -26.2917  -15.6248   20.0980 H   0  0  0  0  0  0
  -26.7083  -32.5580   23.1185 H   0  0  0  0  0  0
  -25.0030  -33.9808   25.0493 H   0  0  0  0  0  0
  -22.6848  -31.3076   21.4113 H   0  0  0  0  0  0
  -23.3746  -35.9650   23.3323 H   0  0  0  0  0  0
  -24.3576  -36.8910   22.2052 H   0  0  0  0  0  0
  -23.7231  -37.6529   23.6640 H   0  0  0  0  0  0
  -26.0267  -31.6078   20.5895 H   0  0  0  0  0  0
  -26.8129  -30.9049   21.9760 H   0  0  0  0  0  0
  -28.0995  -29.1415   21.1624 H   0  0  0  0  0  0
  -26.1053  -25.9885   19.0059 H   0  0  0  0  0  0
  -23.9907  -27.2864   19.0392 H   0  0  0  0  0  0
  -23.7097  -30.5931   19.4046 H   0  0  0  0  0  0
  -22.7330  -29.2349   19.8756 H   0  0  0  0  0  0
  -25.1276  -36.2002   25.0840 H   0  0  0  0  0  0
  -20.9951  -28.3223   24.1453 H   0  0  0  0  0  0
  -20.5662  -26.2264   23.3611 H   0  0  0  0  0  0
  -21.6631  -26.7442   22.1226 H   0  0  0  0  0  0
  -19.6903  -25.6303   21.1231 H   0  0  0  0  0  0
  -19.6685  -27.3208   20.6762 H   0  0  0  0  0  0
  -17.4195  -26.6693   21.4015 H   0  0  0  0  0  0
  -18.0301  -26.0053   22.9003 H   0  0  0  0  0  0
  -19.7925  -30.7249   24.2299 H   0  0  0  0  0  0
  -17.5011  -31.6267   24.5169 H   0  0  0  0  0  0
  -15.5346  -30.3002   23.7630 H   0  0  0  0  0  0
  -15.8659  -28.0831   22.7048 H   0  0  0  0  0  0
  -24.5924  -30.7007   25.7813 H   0  0  0  0  0  0
  -24.8876  -32.2838   26.4898 H   0  0  0  0  0  0
  -25.8089  -30.8896   27.0238 H   0  0  0  0  0  0
  -26.2829  -29.6833   24.1101 H   0  0  0  0  0  0
  -27.4066  -29.7274   25.4502 H   0  0  0  0  0  0
  -27.8656  -30.4401   23.9201 H   0  0  0  0  0  0
  -27.2651  -33.3597   26.2108 H   0  0  0  0  0  0
  -28.3811  -32.6919   25.0286 H   0  0  0  0  0  0
  -28.0738  -31.8413   26.5351 H   0  0  0  0  0  0
  -28.2617  -38.0095   24.7506 H   0  0  0  0  0  0
  -28.1060  -36.2629   24.6306 H   0  0  0  0  0  0
  -27.2303  -37.1481   25.8874 H   0  0  0  0  0  0
  -20.9276  -29.8740   21.6959 H   0  0  0  0  0  0
  -26.0194  -38.2888   24.1404 H   0  0  0  0  0  0
  -32.4768  -21.6308   22.4390 H   0  0  0  0  0  0
  -29.2772  -21.2221   19.5782 H   0  0  0  0  0  0
  -29.4845  -15.1235   23.5791 H   0  0  0  0  0  0
  -31.2449  -15.3326   23.5091 H   0  0  0  0  0  0
  -30.5230  -13.7767   23.1687 H   0  0  0  0  0  0
  -29.1077  -20.8909   23.0269 H   0  0  0  0  0  0
  -30.3013  -19.9805   23.9565 H   0  0  0  0  0  0
  -28.6273  -19.4346   23.8659 H   0  0  0  0  0  0
  -31.8339  -19.3838   21.7376 H   0  0  0  0  0  0
  -30.8821  -19.1845   20.2911 H   0  0  0  0  0  0
  -30.6554  -25.5114   19.2806 H   0  0  0  0  0  0
  -32.1164  -25.5647   20.2168 H   0  0  0  0  0  0
  -30.7158  -27.2459   21.1545 H   0  0  0  0  0  0
  -30.7249  -25.9444   22.3111 H   0  0  0  0  0  0
  -31.1291  -16.9671   20.7709 H   0  0  0  0  0  0
  -29.4057  -16.7963   20.5538 H   0  0  0  0  0  0
  -30.8153  -17.5917   23.1677 H   0  0  0  0  0  0
  -29.0914  -17.3189   23.0227 H   0  0  0  0  0  0
  -28.4645  -26.7813   22.1237 H   0  0  0  0  0  0
  -28.4650  -25.1927   21.3954 H   0  0  0  0  0  0
  -28.9370  -19.0894   21.5251 H   0  0  0  0  0  0
  1 25  1  0  0  0
  1 30  2  0  0  0
  1 85  1  0  0  0
  2  3  1  0  0  0
  2 25  1  0  0  0
  2 87  1  0  0  0
  2 88  1  0  0  0
  3  4  1  0  0  0
  3 89  1  0  0  0
  3 90  1  0  0  0
  4  5  1  0  0  0
  4 91  1  0  0  0
  4 92  1  0  0  0
  5  6  1  0  0  0
  5 26  1  0  0  0
  5 93  1  0  0  0
  6 25  1  0  0  0
  6 94  1  0  0  0
  6 95  1  0  0  0
  7  8  2  0  0  0
  7 26  1  0  0  0
  7 29  1  0  0  0
  8  9  1  0  0  0
  8 22  1  0  0  0
  9 10  1  0  0  0
  9 27  2  0  0  0
 10 11  2  0  0  0
 10 15  1  0  0  0
 11 12  1  0  0  0
 11 96  1  0  0  0
 12 13  2  0  0  0
 12 97  1  0  0  0
 13 14  1  0  0  0
 13 31  1  0  0  0
 14 15  2  0  0  0
 14 98  1  0  0  0
 15 99  1  0  0  0
 16 17  2  0  0  0
 16 21  1  0  0  0
 16 31  1  0  0  0
 17 18  1  0  0  0
 17100  1  0  0  0
 18 19  2  0  0  0
 18101  1  0  0  0
 19 20  1  0  0  0
 19 24  1  0  0  0
 20 21  2  0  0  0
 20102  1  0  0  0
 21 23  1  0  0  0
 22 28  1  0  0  0
 22 32  2  0  0  0
 26 27  1  0  0  0
 28103  1  0  0  0
 28104  1  0  0  0
 29105  1  0  0  0
 29106  1  0  0  0
 33 34  1  0  0  0
 33 66  1  0  0  0
 33 70  2  0  0  0
 34 36  1  0  0  0
 34 59  1  0  0  0
 34107  1  0  0  0
 35 44  2  0  0  0
 35 45  1  0  0  0
 35 68  1  0  0  0
 36 56  1  0  0  0
 36108  1  0  0  0
 37 39  1  0  0  0
 37 47  1  0  0  0
 37 66  1  0  0  0
 37109  1  0  0  0
 38 43  2  0  0  0
 38 46  1  0  0  0
 38 47  1  0  0  0
 39 64  1  0  0  0
 39 67  2  0  0  0
 40 52  1  0  0  0
 40 53  2  0  0  0
 40 58  1  0  0  0
 41110  1  0  0  0
 41111  1  0  0  0
 41112  1  0  0  0
 41 48  1  0  0  0
 42 43  1  0  0  0
 42 66  1  0  0  0
 42113  1  0  0  0
 42114  1  0  0  0
 43 44  1  0  0  0
 44115  1  0  0  0
 45 46  2  0  0  0
 45116  1  0  0  0
 46117  1  0  0  0
 47118  1  0  0  0
 47119  1  0  0  0
 48 56  1  0  0  0
 48 65  1  0  0  0
 48120  1  0  0  0
 49 50  1  0  0  0
 49 53  1  0  0  0
 49 64  1  0  0  0
 49121  1  0  0  0
 50 51  1  0  0  0
 50122  1  0  0  0
 50123  1  0  0  0
 51 52  1  0  0  0
 51124  1  0  0  0
 51125  1  0  0  0
 52126  1  0  0  0
 52127  1  0  0  0
 53 54  1  0  0  0
 54 55  2  0  0  0
 54128  1  0  0  0
 55 57  1  0  0  0
 55129  1  0  0  0
 56 69  2  0  0  0
 57 58  2  0  0  0
 57130  1  0  0  0
 58131  1  0  0  0
 59 60  1  0  0  0
 59 61  1  0  0  0
 59 62  1  0  0  0
 60132  1  0  0  0
 60133  1  0  0  0
 60134  1  0  0  0
 61135  1  0  0  0
 61136  1  0  0  0
 61137  1  0  0  0
 62138  1  0  0  0
 62139  1  0  0  0
 62140  1  0  0  0
 63 65  1  0  0  0
 63141  1  0  0  0
 63142  1  0  0  0
 63143  1  0  0  0
 64144  1  0  0  0
 65145  1  0  0  0
 68 82  1  0  0  0
 71 73  2  0  0  0
 71 83  1  0  0  0
 71146  1  0  0  0
 72 73  1  0  0  0
 72 84  2  0  0  0
 72147  1  0  0  0
 73 77  1  0  0  0
 74 78  1  0  0  0
 74 83  2  0  0  0
 74 84  1  0  0  0
 75 85  1  0  0  0
 75148  1  0  0  0
 75149  1  0  0  0
 75150  1  0  0  0
 76151  1  0  0  0
 76152  1  0  0  0
 76153  1  0  0  0
 76 86  1  0  0  0
 77 86  1  0  0  0
 77154  1  0  0  0
 77155  1  0  0  0
 78 79  1  0  0  0
 78156  1  0  0  0
 78157  1  0  0  0
 79 82  1  0  0  0
 79158  1  0  0  0
 79159  1  0  0  0
 80 81  1  0  0  0
 80 85  1  0  0  0
 80160  1  0  0  0
 80161  1  0  0  0
 81 86  1  0  0  0
 81162  1  0  0  0
 81163  1  0  0  0
 82164  1  0  0  0
 82165  1  0  0  0
 86166  1  0  0  0
M  CHG  1  86   1
M  ISO  4   1 100  68 101  82 101  85 100
M  END
> <chiral flag>
0

> <version>
0

> <s_m_source_file>
/data/baiqing/PycharmProjects/Reinvent-master-3.2/result/LINK_invent/BTK/process_docking_weight1_custom_sum_contain_oxygen_bond_distance_aromatic_linkinvent_7_9_3/rearranged_h_0051.sdf

> <i_m_source_file_index>
37

> <r_mmod_Potential_Energy-OPLS-2005>
-471.184387207031

> <r_mmod_Stretch_Energy-OPLS-2005>
36.6067314147949

> <r_mmod_Bend_Energy-OPLS-2005>
100.441871643066

> <r_mmod_Torsional_Energy-OPLS-2005>
290.491546630859

> <r_mmod_Improper_Torsional_Energy-OPLS-2005>
4.07800626754761

> <r_mmod_Van_der_Waal_Energy-OPLS-2005>
167.816650390625

> <r_mmod_Electrostatic_Energy-OPLS-2005>
-613.264343261719

> <r_mmod_Solvation_Energy-OPLS-2005>
-463.741119384766

> <b_mmod_Minimization_Converged-OPLS-2005>
0

> <r_mmod_RMS_Derivative-OPLS-2005>
0.663505494594574

$$$$
38
                    3D
 Structure written by MMmdl.
171179  0  0  1  0            999 V2000
  -30.6369  -14.7241   20.4561 C   0  0  0  0  0  0
  -30.4372  -12.4523   19.4521 C   0  0  0  0  0  0
  -29.5019  -12.4906   18.2247 C   0  0  0  0  0  0
  -28.0285  -12.3285   18.6428 C   0  0  0  0  0  0
  -27.6388  -13.2351   19.8394 C   0  0  2  0  0  0
  -28.6873  -13.1768   20.9712 C   0  0  0  0  0  0
  -25.2488  -13.8222   20.5676 C   0  0  0  0  0  0
  -24.1790  -13.0430   20.9229 C   0  0  0  0  0  0
  -24.6400  -11.6929   20.8758 C   0  0  0  0  0  0
  -23.9090  -10.4293   21.0415 C   0  0  0  0  0  0
  -24.3632   -9.4208   21.9193 C   0  0  0  0  0  0
  -23.6303   -8.2241   22.0765 C   0  0  0  0  0  0
  -22.4291   -8.0283   21.3537 C   0  0  0  0  0  0
  -21.9924   -9.0262   20.4653 C   0  0  0  0  0  0
  -22.7259  -10.2139   20.3061 C   0  0  0  0  0  0
  -21.6852   -6.0742   22.5282 C   0  0  0  0  0  0
  -21.4000   -6.5641   23.8213 C   0  0  0  0  0  0
  -21.3665   -5.6797   24.9182 C   0  0  0  0  0  0
  -21.6042   -4.3059   24.7234 C   0  0  0  0  0  0
  -21.8824   -3.8154   23.4357 C   0  0  0  0  0  0
  -21.9192   -4.6970   22.3410 C   0  0  0  0  0  0
  -22.7815  -13.5215   21.1899 C   0  0  0  0  0  0
  -22.1664   -4.2146   21.0987 F   0  0  0  0  0  0
  -21.5645   -3.4552   25.7758 F   0  0  0  0  0  0
  -29.9931  -13.5110   20.3841 N   0  0  0  0  0  0
  -26.2919  -12.9433   20.3233 N   0  0  0  0  0  0
  -25.9316  -11.6581   20.5731 N   0  0  0  0  0  0
  -22.0465  -12.8170   22.0456 N   0  0  0  0  0  0
  -25.4104  -15.1947   20.4106 N   0  0  0  0  0  0
  -31.8320  -14.8180   20.1693 O   0  0  0  0  0  0
  -21.6640   -6.8882   21.4240 O   0  0  0  0  0  0
  -22.3468  -14.5499   20.6758 O   0  0  0  0  0  0
  -24.6312  -31.8516   23.1910 C   0  0  0  0  0  0
  -25.9109  -32.4749   23.8289 C   0  0  1  0  0  0
  -27.2448  -27.2596   20.1281 C   0  0  0  0  0  0
  -25.5846  -33.8547   24.2149 N   0  0  0  0  0  0
  -23.4321  -30.4649   21.5394 C   0  0  2  0  0  0
  -24.8863  -28.9074   20.1203 C   0  0  0  0  0  0
  -22.7499  -29.4577   22.4969 C   0  0  0  0  0  0
  -18.0262  -28.1407   22.8472 C   0  0  0  0  0  0
  -24.1491  -36.7316   23.2635 C   0  0  0  0  0  0
  -25.9782  -30.7650   21.3717 C   0  0  0  0  0  0
  -26.0602  -29.3886   20.7142 C   0  0  0  0  0  0
  -27.2467  -28.5809   20.6930 C   0  0  0  0  0  0
  -26.0385  -26.8404   19.5268 C   0  0  0  0  0  0
  -24.8804  -27.6424   19.5154 C   0  0  0  0  0  0
  -23.6495  -29.7838   20.1656 C   0  0  0  0  0  0
  -25.4116  -36.3050   24.0286 C   0  0  1  0  0  0
  -20.5869  -28.3728   23.1293 C   0  0  2  0  0  0
  -20.6774  -26.9455   22.5411 C   0  0  0  0  0  0
  -19.5764  -26.6403   21.5210 C   0  0  0  0  0  0
  -18.1932  -26.7941   22.1608 C   0  0  0  0  0  0
  -19.1513  -28.8885   23.2852 C   0  0  0  0  0  0
  -18.9440  -30.1470   23.8902 C   0  0  0  0  0  0
  -17.6453  -30.6625   24.0570 C   0  0  0  0  0  0
  -25.9042  -34.9431   23.5030 C   0  0  0  0  0  0
  -16.5341  -29.9119   23.6368 C   0  0  0  0  0  0
  -16.7247  -28.6531   23.0385 C   0  0  0  0  0  0
  -26.4414  -31.6615   25.0720 C   0  0  0  0  0  0
  -25.3582  -31.3828   26.1423 C   0  0  0  0  0  0
  -27.0257  -30.2997   24.6276 C   0  0  0  0  0  0
  -27.5954  -32.4392   25.7504 C   0  0  0  0  0  0
  -27.5581  -37.1781   24.8447 C   0  0  0  0  0  0
  -21.4200  -29.3042   22.3688 N   0  0  0  0  0  0
  -26.4289  -37.3744   23.9391 N   0  0  0  0  0  0
  -24.6990  -31.0455   22.0906 N   0  0  0  0  0  0
  -23.4182  -28.8155   23.3115 O   0  0  0  0  0  0
  -28.3560  -26.3803   20.1653 O   0  0  0  0  0  0
  -26.5699  -34.8915   22.4648 O   0  0  0  0  0  0
  -23.5437  -32.1359   23.7164 O   0  0  0  0  0  0
  -29.6295  -21.1278   19.6648 C   0  0  0  0  0  0
  -29.1242  -22.2746   20.3979 C   0  0  0  0  0  0
  -29.2370  -19.9355   20.2921 C   0  0  0  0  0  0
  -26.9091  -21.6649   24.0595 C   0  0  0  0  0  0
  -27.9005  -19.6422   25.1376 C   0  0  0  0  0  0
  -26.4247  -19.3328   22.2140 C   0  0  0  0  0  0
  -30.2210  -18.4756   18.4819 C   0  0  0  0  0  0
  -28.0812  -17.7510   19.4398 C   0  0  0  0  0  0
  -29.3610  -23.8438   20.2988 C   0  0  0  0  0  0
  -30.2460  -17.3374   20.7184 C   0  0  0  0  0  0
  -28.1444  -24.8876   20.0806 C   0  0  0  0  0  0
  -27.9597  -20.5342   23.8909 C   0  0  0  0  0  0
  -27.8827  -19.7221   22.5437 C   0  0  2  0  0  0
  -29.4312  -18.4108   19.8130 C   0  0  0  0  0  0
  -28.4728  -21.7888   21.4317 N   0  0  0  0  0  0
  -28.5400  -20.4178   21.4197 N   0  0  0  0  0  0
  -29.8698  -15.8539   20.6430 N   0  0  0  0  0  0
  -31.4669  -12.5985   19.1243 H   0  0  0  0  0  0
  -30.4110  -11.4757   19.9395 H   0  0  0  0  0  0
  -29.7742  -11.7030   17.5205 H   0  0  0  0  0  0
  -29.6299  -13.4335   17.6909 H   0  0  0  0  0  0
  -27.8767  -11.2818   18.9091 H   0  0  0  0  0  0
  -27.3719  -12.5213   17.7945 H   0  0  0  0  0  0
  -27.6289  -14.2545   19.4525 H   0  0  0  0  0  0
  -28.7098  -12.1877   21.4316 H   0  0  0  0  0  0
  -28.4227  -13.8783   21.7637 H   0  0  0  0  0  0
  -25.2785   -9.5682   22.4756 H   0  0  0  0  0  0
  -24.0024   -7.4634   22.7472 H   0  0  0  0  0  0
  -21.0867   -8.8785   19.8951 H   0  0  0  0  0  0
  -22.3731  -10.9677   19.6170 H   0  0  0  0  0  0
  -21.1964   -7.6144   23.9708 H   0  0  0  0  0  0
  -21.1484   -6.0533   25.9077 H   0  0  0  0  0  0
  -22.0591   -2.7611   23.2866 H   0  0  0  0  0  0
  -22.4112  -11.9841   22.4835 H   0  0  0  0  0  0
  -21.1068  -13.1149   22.2668 H   0  0  0  0  0  0
  -24.6335  -15.8371   20.5264 H   0  0  0  0  0  0
  -26.2433  -15.6406   20.0526 H   0  0  0  0  0  0
  -26.7222  -32.5369   23.1088 H   0  0  0  0  0  0
  -24.9846  -33.9690   25.0181 H   0  0  0  0  0  0
  -22.7281  -31.2839   21.3790 H   0  0  0  0  0  0
  -23.3717  -35.9675   23.3280 H   0  0  0  0  0  0
  -24.3568  -36.8995   22.2062 H   0  0  0  0  0  0
  -23.7322  -37.6525   23.6732 H   0  0  0  0  0  0
  -26.1120  -31.5246   20.6013 H   0  0  0  0  0  0
  -26.8558  -30.8196   22.0057 H   0  0  0  0  0  0
  -28.1553  -28.9458   21.1491 H   0  0  0  0  0  0
  -25.9592  -25.8627   19.0773 H   0  0  0  0  0  0
  -23.9821  -27.2583   19.0551 H   0  0  0  0  0  0
  -23.7583  -30.5470   19.3936 H   0  0  0  0  0  0
  -22.7753  -29.1941   19.8843 H   0  0  0  0  0  0
  -25.1299  -36.1868   25.0765 H   0  0  0  0  0  0
  -20.9884  -28.3318   24.1446 H   0  0  0  0  0  0
  -20.5740  -26.2324   23.3593 H   0  0  0  0  0  0
  -21.6633  -26.7552   22.1179 H   0  0  0  0  0  0
  -19.6967  -25.6294   21.1294 H   0  0  0  0  0  0
  -19.6740  -27.3151   20.6701 H   0  0  0  0  0  0
  -17.4200  -26.6652   21.4018 H   0  0  0  0  0  0
  -18.0359  -26.0063   22.9006 H   0  0  0  0  0  0
  -19.7917  -30.7240   24.2319 H   0  0  0  0  0  0
  -17.5031  -31.6326   24.5128 H   0  0  0  0  0  0
  -15.5344  -30.3042   23.7720 H   0  0  0  0  0  0
  -15.8617  -28.0863   22.7168 H   0  0  0  0  0  0
  -24.5695  -30.7251   25.7749 H   0  0  0  0  0  0
  -24.8817  -32.3032   26.4835 H   0  0  0  0  0  0
  -25.7778  -30.9007   27.0244 H   0  0  0  0  0  0
  -26.2872  -29.6773   24.1211 H   0  0  0  0  0  0
  -27.3790  -29.7265   25.4853 H   0  0  0  0  0  0
  -27.8800  -30.4239   23.9606 H   0  0  0  0  0  0
  -27.2537  -33.3706   26.2040 H   0  0  0  0  0  0
  -28.3776  -32.6939   25.0342 H   0  0  0  0  0  0
  -28.0598  -31.8563   26.5473 H   0  0  0  0  0  0
  -28.2539  -38.0129   24.7514 H   0  0  0  0  0  0
  -28.1129  -36.2652   24.6233 H   0  0  0  0  0  0
  -27.2310  -37.1401   25.8849 H   0  0  0  0  0  0
  -20.9427  -29.8718   21.6824 H   0  0  0  0  0  0
  -26.0148  -38.2808   24.1367 H   0  0  0  0  0  0
  -30.2296  -21.1823   18.7671 H   0  0  0  0  0  0
  -27.0855  -22.2122   24.9866 H   0  0  0  0  0  0
  -25.8936  -21.2724   24.1059 H   0  0  0  0  0  0
  -26.9260  -22.4093   23.2645 H   0  0  0  0  0  0
  -28.0014  -20.2491   26.0414 H   0  0  0  0  0  0
  -28.7066  -18.9076   25.1561 H   0  0  0  0  0  0
  -26.9470  -19.1187   25.2040 H   0  0  0  0  0  0
  -25.9102  -18.9252   23.0849 H   0  0  0  0  0  0
  -26.3503  -18.5746   21.4453 H   0  0  0  0  0  0
  -25.8482  -20.1853   21.8568 H   0  0  0  0  0  0
  -29.7082  -19.0930   17.7432 H   0  0  0  0  0  0
  -30.3640  -17.4946   18.0319 H   0  0  0  0  0  0
  -31.2134  -18.9052   18.6264 H   0  0  0  0  0  0
  -27.4139  -18.4321   18.9101 H   0  0  0  0  0  0
  -27.5599  -17.3626   20.3086 H   0  0  0  0  0  0
  -28.2252  -16.8879   18.7846 H   0  0  0  0  0  0
  -30.0955  -24.0257   19.5150 H   0  0  0  0  0  0
  -29.8798  -24.1513   21.2082 H   0  0  0  0  0  0
  -30.1785  -17.6277   21.7660 H   0  0  0  0  0  0
  -31.3115  -17.4303   20.4991 H   0  0  0  0  0  0
  -27.3685  -24.6314   20.8051 H   0  0  0  0  0  0
  -27.7317  -24.6484   19.0993 H   0  0  0  0  0  0
  -28.9450  -21.0007   23.9254 H   0  0  0  0  0  0
  -28.4491  -18.8028   22.6987 H   0  0  0  0  0  0
  -28.8873  -15.6674   20.7610 H   0  0  0  0  0  0
  1 25  1  0  0  0
  1 30  2  0  0  0
  1 87  1  0  0  0
  2  3  1  0  0  0
  2 25  1  0  0  0
  2 88  1  0  0  0
  2 89  1  0  0  0
  3  4  1  0  0  0
  3 90  1  0  0  0
  3 91  1  0  0  0
  4  5  1  0  0  0
  4 92  1  0  0  0
  4 93  1  0  0  0
  5  6  1  0  0  0
  5 26  1  0  0  0
  5 94  1  0  0  0
  6 25  1  0  0  0
  6 95  1  0  0  0
  6 96  1  0  0  0
  7  8  2  0  0  0
  7 26  1  0  0  0
  7 29  1  0  0  0
  8  9  1  0  0  0
  8 22  1  0  0  0
  9 10  1  0  0  0
  9 27  2  0  0  0
 10 11  2  0  0  0
 10 15  1  0  0  0
 11 12  1  0  0  0
 11 97  1  0  0  0
 12 13  2  0  0  0
 12 98  1  0  0  0
 13 14  1  0  0  0
 13 31  1  0  0  0
 14 15  2  0  0  0
 14 99  1  0  0  0
 15100  1  0  0  0
 16 17  2  0  0  0
 16 21  1  0  0  0
 16 31  1  0  0  0
 17 18  1  0  0  0
 17101  1  0  0  0
 18 19  2  0  0  0
 18102  1  0  0  0
 19 20  1  0  0  0
 19 24  1  0  0  0
 20 21  2  0  0  0
 20103  1  0  0  0
 21 23  1  0  0  0
 22 28  1  0  0  0
 22 32  2  0  0  0
 26 27  1  0  0  0
 28104  1  0  0  0
 28105  1  0  0  0
 29106  1  0  0  0
 29107  1  0  0  0
 33 34  1  0  0  0
 33 66  1  0  0  0
 33 70  2  0  0  0
 34 36  1  0  0  0
 34 59  1  0  0  0
 34108  1  0  0  0
 35 44  2  0  0  0
 35 45  1  0  0  0
 35 68  1  0  0  0
 36 56  1  0  0  0
 36109  1  0  0  0
 37 39  1  0  0  0
 37 47  1  0  0  0
 37 66  1  0  0  0
 37110  1  0  0  0
 38 43  2  0  0  0
 38 46  1  0  0  0
 38 47  1  0  0  0
 39 64  1  0  0  0
 39 67  2  0  0  0
 40 52  1  0  0  0
 40 53  2  0  0  0
 40 58  1  0  0  0
 41111  1  0  0  0
 41112  1  0  0  0
 41113  1  0  0  0
 41 48  1  0  0  0
 42 43  1  0  0  0
 42 66  1  0  0  0
 42114  1  0  0  0
 42115  1  0  0  0
 43 44  1  0  0  0
 44116  1  0  0  0
 45 46  2  0  0  0
 45117  1  0  0  0
 46118  1  0  0  0
 47119  1  0  0  0
 47120  1  0  0  0
 48 56  1  0  0  0
 48 65  1  0  0  0
 48121  1  0  0  0
 49 50  1  0  0  0
 49 53  1  0  0  0
 49 64  1  0  0  0
 49122  1  0  0  0
 50 51  1  0  0  0
 50123  1  0  0  0
 50124  1  0  0  0
 51 52  1  0  0  0
 51125  1  0  0  0
 51126  1  0  0  0
 52127  1  0  0  0
 52128  1  0  0  0
 53 54  1  0  0  0
 54 55  2  0  0  0
 54129  1  0  0  0
 55 57  1  0  0  0
 55130  1  0  0  0
 56 69  2  0  0  0
 57 58  2  0  0  0
 57131  1  0  0  0
 58132  1  0  0  0
 59 60  1  0  0  0
 59 61  1  0  0  0
 59 62  1  0  0  0
 60133  1  0  0  0
 60134  1  0  0  0
 60135  1  0  0  0
 61136  1  0  0  0
 61137  1  0  0  0
 61138  1  0  0  0
 62139  1  0  0  0
 62140  1  0  0  0
 62141  1  0  0  0
 63 65  1  0  0  0
 63142  1  0  0  0
 63143  1  0  0  0
 63144  1  0  0  0
 64145  1  0  0  0
 65146  1  0  0  0
 68 81  1  0  0  0
 71 72  1  0  0  0
 71 73  2  0  0  0
 71147  1  0  0  0
 72 79  1  0  0  0
 72 85  2  0  0  0
 73 84  1  0  0  0
 73 86  1  0  0  0
 74148  1  0  0  0
 74149  1  0  0  0
 74150  1  0  0  0
 74 82  1  0  0  0
 75 82  1  0  0  0
 75151  1  0  0  0
 75152  1  0  0  0
 75153  1  0  0  0
 76154  1  0  0  0
 76155  1  0  0  0
 76156  1  0  0  0
 76 83  1  0  0  0
 77157  1  0  0  0
 77158  1  0  0  0
 77159  1  0  0  0
 77 84  1  0  0  0
 78 84  1  0  0  0
 78160  1  0  0  0
 78161  1  0  0  0
 78162  1  0  0  0
 79 81  1  0  0  0
 79163  1  0  0  0
 79164  1  0  0  0
 80 84  1  0  0  0
 80 87  1  0  0  0
 80165  1  0  0  0
 80166  1  0  0  0
 81167  1  0  0  0
 81168  1  0  0  0
 82 83  1  0  0  0
 82169  1  0  0  0
 83 86  1  0  0  0
 83170  1  0  0  0
 85 86  1  0  0  0
 87171  1  0  0  0
M  ISO  4   1 100  68 101  81 101  87 100
M  END
> <chiral flag>
0

> <version>
0

> <s_m_source_file>
/data/baiqing/PycharmProjects/Reinvent-master-3.2/result/LINK_invent/BTK/process_docking_weight1_custom_sum_contain_oxygen_bond_distance_aromatic_linkinvent_7_9_3/rearranged_h_0051.sdf

> <i_m_source_file_index>
38

> <r_mmod_Potential_Energy-OPLS-2005>
155.994995117188

> <r_mmod_Stretch_Energy-OPLS-2005>
130.797821044922

> <r_mmod_Bend_Energy-OPLS-2005>
188.444030761719

> <r_mmod_Torsional_Energy-OPLS-2005>
259.698791503906

> <r_mmod_Improper_Torsional_Energy-OPLS-2005>
5.32153987884521

> <r_mmod_Van_der_Waal_Energy-OPLS-2005>
125.015632629395

> <r_mmod_Electrostatic_Energy-OPLS-2005>
-429.190979003906

> <r_mmod_Solvation_Energy-OPLS-2005>
-206.678268432617

> <b_mmod_Minimization_Converged-OPLS-2005>
0

> <r_mmod_RMS_Derivative-OPLS-2005>
5.49366807937622

$$$$
39
                    3D
 Structure written by MMmdl.
173181  0  0  1  0            999 V2000
  -30.7589  -14.3619   20.6069 C   0  0  0  0  0  0
  -30.4096  -12.2466   19.4202 C   0  0  0  0  0  0
  -29.4968  -12.4969   18.2042 C   0  0  0  0  0  0
  -28.0133  -12.3709   18.6067 C   0  0  0  0  0  0
  -27.6630  -13.1993   19.8727 C   0  0  2  0  0  0
  -28.6949  -12.9431   20.9913 C   0  0  0  0  0  0
  -25.2624  -13.8195   20.5680 C   0  0  0  0  0  0
  -24.1845  -13.0476   20.9179 C   0  0  0  0  0  0
  -24.6381  -11.6946   20.8750 C   0  0  0  0  0  0
  -23.9043  -10.4323   21.0427 C   0  0  0  0  0  0
  -24.3606   -9.4229   21.9194 C   0  0  0  0  0  0
  -23.6291   -8.2250   22.0752 C   0  0  0  0  0  0
  -22.4279   -8.0278   21.3536 C   0  0  0  0  0  0
  -21.9908   -9.0251   20.4645 C   0  0  0  0  0  0
  -22.7222  -10.2148   20.3068 C   0  0  0  0  0  0
  -21.6845   -6.0733   22.5268 C   0  0  0  0  0  0
  -21.4012   -6.5635   23.8209 C   0  0  0  0  0  0
  -21.3657   -5.6788   24.9169 C   0  0  0  0  0  0
  -21.6044   -4.3051   24.7218 C   0  0  0  0  0  0
  -21.8828   -3.8144   23.4340 C   0  0  0  0  0  0
  -21.9200   -4.6962   22.3398 C   0  0  0  0  0  0
  -22.7879  -13.5300   21.1857 C   0  0  0  0  0  0
  -22.1690   -4.2156   21.0977 F   0  0  0  0  0  0
  -21.5605   -3.4539   25.7728 F   0  0  0  0  0  0
  -30.0391  -13.2218   20.4519 N   0  0  0  0  0  0
  -26.3012  -12.9330   20.3325 N   0  0  0  0  0  0
  -25.9286  -11.6503   20.5738 N   0  0  0  0  0  0
  -22.0510  -12.8290   22.0412 N   0  0  0  0  0  0
  -25.4445  -15.1910   20.4180 N   0  0  0  0  0  0
  -31.8841  -14.5169   20.1163 O   0  0  0  0  0  0
  -21.6646   -6.8869   21.4225 O   0  0  0  0  0  0
  -22.3589  -14.5613   20.6716 O   0  0  0  0  0  0
  -24.6111  -31.8733   23.2118 C   0  0  0  0  0  0
  -25.9034  -32.4845   23.8396 C   0  0  1  0  0  0
  -27.2289  -27.4817   20.0606 C   0  0  0  0  0  0
  -25.5916  -33.8639   24.2345 N   0  0  0  0  0  0
  -23.3936  -30.4993   21.5537 C   0  0  2  0  0  0
  -24.8344  -28.9749   20.1101 C   0  0  0  0  0  0
  -22.7373  -29.4701   22.5014 C   0  0  0  0  0  0
  -18.0297  -28.1304   22.8410 C   0  0  0  0  0  0
  -24.1503  -36.7318   23.2628 C   0  0  0  0  0  0
  -25.9179  -30.8521   21.3550 C   0  0  0  0  0  0
  -25.9931  -29.4894   20.7050 C   0  0  0  0  0  0
  -27.1896  -28.7452   20.6856 C   0  0  0  0  0  0
  -26.0542  -26.9823   19.4524 C   0  0  0  0  0  0
  -24.8572  -27.7164   19.4882 C   0  0  0  0  0  0
  -23.5938  -29.8337   20.1662 C   0  0  0  0  0  0
  -25.4126  -36.3119   24.0328 C   0  0  1  0  0  0
  -20.5866  -28.3612   23.1256 C   0  0  2  0  0  0
  -20.6840  -26.9389   22.5235 C   0  0  0  0  0  0
  -19.5814  -26.6433   21.5042 C   0  0  0  0  0  0
  -18.1986  -26.7876   22.1475 C   0  0  0  0  0  0
  -19.1524  -28.8754   23.2865 C   0  0  0  0  0  0
  -18.9451  -30.1342   23.8902 C   0  0  0  0  0  0
  -17.6455  -30.6489   24.0520 C   0  0  0  0  0  0
  -25.9051  -34.9495   23.5148 C   0  0  0  0  0  0
  -16.5350  -29.8991   23.6256 C   0  0  0  0  0  0
  -16.7273  -28.6415   23.0275 C   0  0  0  0  0  0
  -26.4510  -31.6600   25.0696 C   0  0  0  0  0  0
  -25.3811  -31.3652   26.1464 C   0  0  0  0  0  0
  -27.0317  -30.3063   24.5997 C   0  0  0  0  0  0
  -27.6138  -32.4271   25.7426 C   0  0  0  0  0  0
  -27.5589  -37.1829   24.8466 C   0  0  0  0  0  0
  -21.4106  -29.3016   22.3699 N   0  0  0  0  0  0
  -26.4312  -37.3801   23.9401 N   0  0  0  0  0  0
  -24.6593  -31.0887   22.0991 N   0  0  0  0  0  0
  -23.4173  -28.8279   23.3060 O   0  0  0  0  0  0
  -28.4187  -26.7884   20.0767 O   0  0  0  0  0  0
  -26.5608  -34.8945   22.4698 O   0  0  0  0  0  0
  -23.5327  -32.1462   23.7561 O   0  0  0  0  0  0
  -27.2394  -18.6566   19.0503 C   0  0  0  0  0  0
  -28.1416  -17.5819   19.1252 C   0  0  0  0  0  0
  -27.2926  -19.6728   20.0306 C   0  0  0  0  0  0
  -29.0687  -17.5730   20.1769 C   0  0  0  0  0  0
  -28.1707  -19.4789   21.1294 C   0  0  0  0  0  0
  -28.2881  -20.3912   22.3334 C   0  0  0  0  0  0
  -28.3185  -24.5865   18.9649 C   0  0  0  0  0  0
  -29.7291  -15.6449   22.4121 C   0  0  0  0  0  0
  -24.3174  -21.1347   20.6783 C   0  0  0  0  0  0
  -26.5856  -20.9911   19.7199 C   0  0  0  0  0  0
  -30.2468  -16.6378   20.1906 C   0  0  0  0  0  0
  -27.1941  -23.4564   21.5761 C   0  0  0  0  0  0
  -27.4873  -24.9553   21.4697 C   0  0  0  0  0  0
  -25.8772  -23.0381   20.8791 C   0  0  0  0  0  0
  -28.4128  -25.3747   20.2882 C   0  0  2  0  0  0
  -29.0416  -18.4603   21.1806 N   0  0  0  0  0  0
  -30.0520  -15.4326   20.9974 N   0  0  0  0  0  0
  -25.7302  -21.5620   20.7898 N   0  3  1  0  0  0
  -31.4610  -12.3100   19.1301 H   0  0  0  0  0  0
  -30.2735  -11.2337   19.8041 H   0  0  0  0  0  0
  -29.7315  -11.7890   17.4083 H   0  0  0  0  0  0
  -29.6904  -13.4909   17.7968 H   0  0  0  0  0  0
  -27.8098  -11.3149   18.7915 H   0  0  0  0  0  0
  -27.3750  -12.6652   17.7726 H   0  0  0  0  0  0
  -27.7194  -14.2527   19.5964 H   0  0  0  0  0  0
  -28.6481  -11.9060   21.3246 H   0  0  0  0  0  0
  -28.4397  -13.5291   21.8703 H   0  0  0  0  0  0
  -25.2761   -9.5707   22.4763 H   0  0  0  0  0  0
  -24.0005   -7.4648   22.7474 H   0  0  0  0  0  0
  -21.0838   -8.8764   19.8951 H   0  0  0  0  0  0
  -22.3681  -10.9675   19.6175 H   0  0  0  0  0  0
  -21.2011   -7.6149   23.9713 H   0  0  0  0  0  0
  -21.1486   -6.0521   25.9077 H   0  0  0  0  0  0
  -22.0626   -2.7607   23.2844 H   0  0  0  0  0  0
  -22.4122  -11.9912   22.4734 H   0  0  0  0  0  0
  -21.1137  -13.1331   22.2646 H   0  0  0  0  0  0
  -24.6905  -15.8557   20.5478 H   0  0  0  0  0  0
  -26.3191  -15.6286   20.1504 H   0  0  0  0  0  0
  -26.7089  -32.5603   23.1149 H   0  0  0  0  0  0
  -25.0106  -33.9785   25.0523 H   0  0  0  0  0  0
  -22.6806  -31.3147   21.4170 H   0  0  0  0  0  0
  -23.3759  -35.9651   23.3305 H   0  0  0  0  0  0
  -24.3605  -36.8929   22.2037 H   0  0  0  0  0  0
  -23.7254  -37.6539   23.6619 H   0  0  0  0  0  0
  -26.0169  -31.6132   20.5796 H   0  0  0  0  0  0
  -26.8118  -30.9119   21.9616 H   0  0  0  0  0  0
  -28.0822  -29.1337   21.1563 H   0  0  0  0  0  0
  -26.0318  -26.0355   18.9436 H   0  0  0  0  0  0
  -23.9679  -27.3124   19.0254 H   0  0  0  0  0  0
  -23.6855  -30.6077   19.4036 H   0  0  0  0  0  0
  -22.7195  -29.2487   19.8775 H   0  0  0  0  0  0
  -25.1282  -36.2008   25.0811 H   0  0  0  0  0  0
  -20.9973  -28.3144   24.1354 H   0  0  0  0  0  0
  -20.5882  -26.2140   23.3341 H   0  0  0  0  0  0
  -21.6671  -26.7599   22.0845 H   0  0  0  0  0  0
  -19.7033  -25.6418   21.0909 H   0  0  0  0  0  0
  -19.6744  -27.3343   20.6638 H   0  0  0  0  0  0
  -17.4309  -26.6678   21.3807 H   0  0  0  0  0  0
  -18.0417  -25.9905   22.8764 H   0  0  0  0  0  0
  -19.7931  -30.7116   24.2336 H   0  0  0  0  0  0
  -17.5003  -31.6171   24.5113 H   0  0  0  0  0  0
  -15.5355  -30.2921   23.7511 H   0  0  0  0  0  0
  -15.8689  -28.0723   22.6947 H   0  0  0  0  0  0
  -24.6010  -30.6959   25.7812 H   0  0  0  0  0  0
  -24.8964  -32.2771   26.4949 H   0  0  0  0  0  0
  -25.8221  -30.8825   27.0197 H   0  0  0  0  0  0
  -26.2820  -29.6832   24.1108 H   0  0  0  0  0  0
  -27.4186  -29.7265   25.4391 H   0  0  0  0  0  0
  -27.8606  -30.4414   23.9041 H   0  0  0  0  0  0
  -27.2819  -33.3557   26.2067 H   0  0  0  0  0  0
  -28.3903  -32.6851   25.0211 H   0  0  0  0  0  0
  -28.0862  -31.8365   26.5282 H   0  0  0  0  0  0
  -28.2622  -38.0114   24.7499 H   0  0  0  0  0  0
  -28.1050  -36.2649   24.6276 H   0  0  0  0  0  0
  -27.2308  -37.1477   25.8871 H   0  0  0  0  0  0
  -20.9295  -29.8515   21.6727 H   0  0  0  0  0  0
  -26.0206  -38.2880   24.1411 H   0  0  0  0  0  0
  -26.5859  -18.7423   18.1937 H   0  0  0  0  0  0
  -28.1801  -16.8458   18.3346 H   0  0  0  0  0  0
  -27.3326  -20.7976   22.6543 H   0  0  0  0  0  0
  -28.9999  -21.1907   22.1393 H   0  0  0  0  0  0
  -28.6711  -19.8347   23.1888 H   0  0  0  0  0  0
  -28.6990  -23.5745   19.0922 H   0  0  0  0  0  0
  -28.9426  -25.0506   18.1994 H   0  0  0  0  0  0
  -27.3162  -24.4942   18.5615 H   0  0  0  0  0  0
  -30.2765  -16.4958   22.8184 H   0  0  0  0  0  0
  -29.9712  -14.7812   23.0332 H   0  0  0  0  0  0
  -28.6629  -15.8483   22.5209 H   0  0  0  0  0  0
  -24.2416  -20.0480   20.6353 H   0  0  0  0  0  0
  -23.8470  -21.5450   19.7840 H   0  0  0  0  0  0
  -23.7459  -21.4702   21.5446 H   0  0  0  0  0  0
  -26.0056  -20.9018   18.7994 H   0  0  0  0  0  0
  -27.3864  -21.6789   19.4528 H   0  0  0  0  0  0
  -31.1349  -17.1665   20.5392 H   0  0  0  0  0  0
  -30.4504  -16.3853   19.1472 H   0  0  0  0  0  0
  -27.1202  -23.1948   22.6316 H   0  0  0  0  0  0
  -28.0566  -22.9132   21.1951 H   0  0  0  0  0  0
  -27.9783  -25.2847   22.3859 H   0  0  0  0  0  0
  -26.5295  -25.4697   21.4756 H   0  0  0  0  0  0
  -25.7999  -23.4645   19.8794 H   0  0  0  0  0  0
  -25.0455  -23.4642   21.4428 H   0  0  0  0  0  0
  -29.4287  -25.1725   20.6330 H   0  0  0  0  0  0
  -26.0544  -21.1945   21.6706 H   0  0  0  0  0  0
  1 25  1  0  0  0
  1 30  2  0  0  0
  1 87  1  0  0  0
  2  3  1  0  0  0
  2 25  1  0  0  0
  2 89  1  0  0  0
  2 90  1  0  0  0
  3  4  1  0  0  0
  3 91  1  0  0  0
  3 92  1  0  0  0
  4  5  1  0  0  0
  4 93  1  0  0  0
  4 94  1  0  0  0
  5  6  1  0  0  0
  5 26  1  0  0  0
  5 95  1  0  0  0
  6 25  1  0  0  0
  6 96  1  0  0  0
  6 97  1  0  0  0
  7  8  2  0  0  0
  7 26  1  0  0  0
  7 29  1  0  0  0
  8  9  1  0  0  0
  8 22  1  0  0  0
  9 10  1  0  0  0
  9 27  2  0  0  0
 10 11  2  0  0  0
 10 15  1  0  0  0
 11 12  1  0  0  0
 11 98  1  0  0  0
 12 13  2  0  0  0
 12 99  1  0  0  0
 13 14  1  0  0  0
 13 31  1  0  0  0
 14 15  2  0  0  0
 14100  1  0  0  0
 15101  1  0  0  0
 16 17  2  0  0  0
 16 21  1  0  0  0
 16 31  1  0  0  0
 17 18  1  0  0  0
 17102  1  0  0  0
 18 19  2  0  0  0
 18103  1  0  0  0
 19 20  1  0  0  0
 19 24  1  0  0  0
 20 21  2  0  0  0
 20104  1  0  0  0
 21 23  1  0  0  0
 22 28  1  0  0  0
 22 32  2  0  0  0
 26 27  1  0  0  0
 28105  1  0  0  0
 28106  1  0  0  0
 29107  1  0  0  0
 29108  1  0  0  0
 33 34  1  0  0  0
 33 66  1  0  0  0
 33 70  2  0  0  0
 34 36  1  0  0  0
 34 59  1  0  0  0
 34109  1  0  0  0
 35 44  2  0  0  0
 35 45  1  0  0  0
 35 68  1  0  0  0
 36 56  1  0  0  0
 36110  1  0  0  0
 37 39  1  0  0  0
 37 47  1  0  0  0
 37 66  1  0  0  0
 37111  1  0  0  0
 38 43  2  0  0  0
 38 46  1  0  0  0
 38 47  1  0  0  0
 39 64  1  0  0  0
 39 67  2  0  0  0
 40 52  1  0  0  0
 40 53  2  0  0  0
 40 58  1  0  0  0
 41112  1  0  0  0
 41113  1  0  0  0
 41114  1  0  0  0
 41 48  1  0  0  0
 42 43  1  0  0  0
 42 66  1  0  0  0
 42115  1  0  0  0
 42116  1  0  0  0
 43 44  1  0  0  0
 44117  1  0  0  0
 45 46  2  0  0  0
 45118  1  0  0  0
 46119  1  0  0  0
 47120  1  0  0  0
 47121  1  0  0  0
 48 56  1  0  0  0
 48 65  1  0  0  0
 48122  1  0  0  0
 49 50  1  0  0  0
 49 53  1  0  0  0
 49 64  1  0  0  0
 49123  1  0  0  0
 50 51  1  0  0  0
 50124  1  0  0  0
 50125  1  0  0  0
 51 52  1  0  0  0
 51126  1  0  0  0
 51127  1  0  0  0
 52128  1  0  0  0
 52129  1  0  0  0
 53 54  1  0  0  0
 54 55  2  0  0  0
 54130  1  0  0  0
 55 57  1  0  0  0
 55131  1  0  0  0
 56 69  2  0  0  0
 57 58  2  0  0  0
 57132  1  0  0  0
 58133  1  0  0  0
 59 60  1  0  0  0
 59 61  1  0  0  0
 59 62  1  0  0  0
 60134  1  0  0  0
 60135  1  0  0  0
 60136  1  0  0  0
 61137  1  0  0  0
 61138  1  0  0  0
 61139  1  0  0  0
 62140  1  0  0  0
 62141  1  0  0  0
 62142  1  0  0  0
 63 65  1  0  0  0
 63143  1  0  0  0
 63144  1  0  0  0
 63145  1  0  0  0
 64146  1  0  0  0
 65147  1  0  0  0
 68 85  1  0  0  0
 71 72  2  0  0  0
 71 73  1  0  0  0
 71148  1  0  0  0
 72 74  1  0  0  0
 72149  1  0  0  0
 73 75  2  0  0  0
 73 80  1  0  0  0
 74 81  1  0  0  0
 74 86  2  0  0  0
 75 76  1  0  0  0
 75 86  1  0  0  0
 76150  1  0  0  0
 76151  1  0  0  0
 76152  1  0  0  0
 77153  1  0  0  0
 77154  1  0  0  0
 77155  1  0  0  0
 77 85  1  0  0  0
 78 87  1  0  0  0
 78156  1  0  0  0
 78157  1  0  0  0
 78158  1  0  0  0
 79159  1  0  0  0
 79160  1  0  0  0
 79161  1  0  0  0
 79 88  1  0  0  0
 80 88  1  0  0  0
 80162  1  0  0  0
 80163  1  0  0  0
 81 87  1  0  0  0
 81164  1  0  0  0
 81165  1  0  0  0
 82 83  1  0  0  0
 82 84  1  0  0  0
 82166  1  0  0  0
 82167  1  0  0  0
 83 85  1  0  0  0
 83168  1  0  0  0
 83169  1  0  0  0
 84 88  1  0  0  0
 84170  1  0  0  0
 84171  1  0  0  0
 85172  1  0  0  0
 88173  1  0  0  0
M  CHG  1  88   1
M  ISO  4   1 100  68 101  85 101  87 100
M  END
> <chiral flag>
0

> <version>
0

> <s_m_source_file>
/data/baiqing/PycharmProjects/Reinvent-master-3.2/result/LINK_invent/BTK/process_docking_weight1_custom_sum_contain_oxygen_bond_distance_aromatic_linkinvent_7_9_3/rearranged_h_0051.sdf

> <i_m_source_file_index>
39

> <r_mmod_Potential_Energy-OPLS-2005>
-179.309860229492

> <r_mmod_Stretch_Energy-OPLS-2005>
33.7837142944336

> <r_mmod_Bend_Energy-OPLS-2005>
123.964416503906

> <r_mmod_Torsional_Energy-OPLS-2005>
297.631011962891

> <r_mmod_Improper_Torsional_Energy-OPLS-2005>
13.2328853607178

> <r_mmod_Van_der_Waal_Energy-OPLS-2005>
170.195251464844

> <r_mmod_Electrostatic_Energy-OPLS-2005>
-398.096099853516

> <r_mmod_Solvation_Energy-OPLS-2005>
-432.272796630859

> <b_mmod_Minimization_Converged-OPLS-2005>
0

> <r_mmod_RMS_Derivative-OPLS-2005>
3.56690430641174

$$$$
40
                    3D
 Structure written by MMmdl.
169177  0  0  1  0            999 V2000
  -30.6769  -14.7404   20.5269 C   0  0  0  0  0  0
  -30.4230  -12.4546   19.5126 C   0  0  0  0  0  0
  -29.5225  -12.5135   18.2601 C   0  0  0  0  0  0
  -28.0473  -12.3144   18.6569 C   0  0  0  0  0  0
  -27.6420  -13.2100   19.8557 C   0  0  2  0  0  0
  -28.6796  -13.1399   20.9979 C   0  0  0  0  0  0
  -25.2466  -13.8118   20.5672 C   0  0  0  0  0  0
  -24.1761  -13.0388   20.9217 C   0  0  0  0  0  0
  -24.6355  -11.6874   20.8737 C   0  0  0  0  0  0
  -23.9033  -10.4274   21.0406 C   0  0  0  0  0  0
  -24.3604   -9.4197   21.9165 C   0  0  0  0  0  0
  -23.6275   -8.2241   22.0746 C   0  0  0  0  0  0
  -22.4256   -8.0288   21.3542 C   0  0  0  0  0  0
  -21.9888   -9.0246   20.4641 C   0  0  0  0  0  0
  -22.7216  -10.2122   20.3049 C   0  0  0  0  0  0
  -21.6822   -6.0765   22.5297 C   0  0  0  0  0  0
  -21.3988   -6.5658   23.8240 C   0  0  0  0  0  0
  -21.3658   -5.6812   24.9193 C   0  0  0  0  0  0
  -21.6038   -4.3077   24.7237 C   0  0  0  0  0  0
  -21.8803   -3.8179   23.4349 C   0  0  0  0  0  0
  -21.9175   -4.6992   22.3414 C   0  0  0  0  0  0
  -22.7799  -13.5201   21.1902 C   0  0  0  0  0  0
  -22.1647   -4.2189   21.0986 F   0  0  0  0  0  0
  -21.5630   -3.4552   25.7741 F   0  0  0  0  0  0
  -29.9938  -13.5293   20.4546 N   0  0  0  0  0  0
  -26.2904  -12.9299   20.3276 N   0  0  0  0  0  0
  -25.9276  -11.6460   20.5734 N   0  0  0  0  0  0
  -22.0440  -12.8190   22.0461 N   0  0  0  0  0  0
  -25.4042  -15.1825   20.4047 N   0  0  0  0  0  0
  -31.7566  -14.7737   19.9279 O   0  0  0  0  0  0
  -21.6599   -6.8905   21.4268 O   0  0  0  0  0  0
  -22.3499  -14.5514   20.6759 O   0  0  0  0  0  0
  -24.6281  -31.8552   23.1947 C   0  0  0  0  0  0
  -25.9118  -32.4736   23.8295 C   0  0  1  0  0  0
  -27.2280  -27.2854   20.1232 C   0  0  0  0  0  0
  -25.5917  -33.8538   24.2225 N   0  0  0  0  0  0
  -23.4244  -30.4747   21.5371 C   0  0  2  0  0  0
  -24.8722  -28.9213   20.1055 C   0  0  0  0  0  0
  -22.7486  -29.4604   22.4892 C   0  0  0  0  0  0
  -18.0317  -28.1389   22.8497 C   0  0  0  0  0  0
  -24.1498  -36.7253   23.2636 C   0  0  0  0  0  0
  -25.9672  -30.7727   21.3748 C   0  0  0  0  0  0
  -26.0387  -29.3972   20.7172 C   0  0  0  0  0  0
  -27.2139  -28.5880   20.7194 C   0  0  0  0  0  0
  -26.0357  -26.8596   19.4975 C   0  0  0  0  0  0
  -24.8740  -27.6589   19.4886 C   0  0  0  0  0  0
  -23.6419  -29.8038   20.1534 C   0  0  0  0  0  0
  -25.4122  -36.3050   24.0321 C   0  0  1  0  0  0
  -20.5919  -28.3724   23.1297 C   0  0  2  0  0  0
  -20.6778  -26.9432   22.5471 C   0  0  0  0  0  0
  -19.5800  -26.6469   21.5206 C   0  0  0  0  0  0
  -18.1995  -26.7918   22.1675 C   0  0  0  0  0  0
  -19.1560  -28.8874   23.2894 C   0  0  0  0  0  0
  -18.9477  -30.1478   23.8896 C   0  0  0  0  0  0
  -17.6473  -30.6596   24.0541 C   0  0  0  0  0  0
  -25.9057  -34.9422   23.5084 C   0  0  0  0  0  0
  -16.5369  -29.9088   23.6308 C   0  0  0  0  0  0
  -16.7302  -28.6494   23.0346 C   0  0  0  0  0  0
  -26.4487  -31.6557   25.0678 C   0  0  0  0  0  0
  -25.3692  -31.3728   26.1377 C   0  0  0  0  0  0
  -27.0352  -30.2965   24.6197 C   0  0  0  0  0  0
  -27.6021  -32.4310   25.7464 C   0  0  0  0  0  0
  -27.5586  -37.1795   24.8467 C   0  0  0  0  0  0
  -21.4203  -29.3044   22.3638 N   0  0  0  0  0  0
  -26.4298  -37.3746   23.9407 N   0  0  0  0  0  0
  -24.6915  -31.0531   22.0912 N   0  0  0  0  0  0
  -23.4196  -28.8165   23.3005 O   0  0  0  0  0  0
  -28.3486  -26.4387   20.2253 O   0  0  0  0  0  0
  -26.5652  -34.8912   22.4662 O   0  0  0  0  0  0
  -23.5445  -32.1378   23.7250 O   0  0  0  0  0  0
  -29.4959  -22.7156   20.0591 C   0  0  0  0  0  0
  -28.4670  -23.7367   19.9279 C   0  0  0  0  0  0
  -28.8977  -21.4526   20.0882 C   0  0  0  0  0  0
  -27.9798  -19.3817   22.6720 C   0  0  0  0  0  0
  -28.1863  -17.0497   20.0228 C   0  0  0  0  0  0
  -31.7083  -16.6490   21.7856 C   0  0  0  0  0  0
  -29.5435  -15.8124   22.6284 C   0  0  0  0  0  0
  -26.3923  -20.8930   19.8705 C   0  0  0  0  0  0
  -28.5491  -25.2280   19.3857 C   0  0  0  0  0  0
  -29.4700  -19.9897   19.8384 C   0  0  0  0  0  0
  -29.4618  -19.2645   22.2983 C   0  0  0  0  0  0
  -29.6274  -17.3841   20.4558 C   0  0  2  0  0  0
  -30.3078  -16.1362   21.3155 C   0  0  0  0  0  0
  -27.2922  -23.1214   20.0082 N   0  0  0  0  0  0
  -27.5384  -21.7750   20.0426 N   0  0  0  0  0  0
  -29.7604  -18.8884   20.8868 N   0  3  1  0  0  0
  -31.4729  -12.5211   19.2229 H   0  0  0  0  0  0
  -30.3398  -11.4796   19.9941 H   0  0  0  0  0  0
  -29.8271  -11.7492   17.5440 H   0  0  0  0  0  0
  -29.6496  -13.4754   17.7639 H   0  0  0  0  0  0
  -27.9206  -11.2654   18.9238 H   0  0  0  0  0  0
  -27.3931  -12.4903   17.8024 H   0  0  0  0  0  0
  -27.6339  -14.2206   19.4661 H   0  0  0  0  0  0
  -28.7282  -12.1245   21.3955 H   0  0  0  0  0  0
  -28.3505  -13.7448   21.8331 H   0  0  0  0  0  0
  -25.2779   -9.5668   22.4695 H   0  0  0  0  0  0
  -23.9985   -7.4655   22.7469 H   0  0  0  0  0  0
  -21.0820   -8.8773   19.8953 H   0  0  0  0  0  0
  -22.3700  -10.9648   19.6139 H   0  0  0  0  0  0
  -21.1961   -7.6169   23.9752 H   0  0  0  0  0  0
  -21.1490   -6.0539   25.9102 H   0  0  0  0  0  0
  -22.0571   -2.7637   23.2835 H   0  0  0  0  0  0
  -22.4024  -11.9845   22.4856 H   0  0  0  0  0  0
  -21.1054  -13.1213   22.2637 H   0  0  0  0  0  0
  -24.6262  -15.8219   20.5238 H   0  0  0  0  0  0
  -26.2355  -15.6292   20.0441 H   0  0  0  0  0  0
  -26.7180  -32.5398   23.1044 H   0  0  0  0  0  0
  -25.0056  -33.9671   25.0365 H   0  0  0  0  0  0
  -22.7214  -31.2959   21.3854 H   0  0  0  0  0  0
  -23.3767  -35.9585   23.3310 H   0  0  0  0  0  0
  -24.3591  -36.8866   22.2054 H   0  0  0  0  0  0
  -23.7258  -37.6452   23.6658 H   0  0  0  0  0  0
  -26.1097  -31.5338   20.6076 H   0  0  0  0  0  0
  -26.8436  -30.8162   22.0098 H   0  0  0  0  0  0
  -28.1069  -28.9464   21.2116 H   0  0  0  0  0  0
  -25.9630  -25.8786   19.0531 H   0  0  0  0  0  0
  -23.9770  -27.2814   19.0156 H   0  0  0  0  0  0
  -23.7625  -30.5753   19.3908 H   0  0  0  0  0  0
  -22.7630  -29.2304   19.8532 H   0  0  0  0  0  0
  -25.1316  -36.1893   25.0816 H   0  0  0  0  0  0
  -21.0006  -28.3341   24.1421 H   0  0  0  0  0  0
  -20.5555  -26.2358   23.3682 H   0  0  0  0  0  0
  -21.6678  -26.7386   22.1373 H   0  0  0  0  0  0
  -19.6998  -25.6435   21.1109 H   0  0  0  0  0  0
  -19.6705  -27.3394   20.6825 H   0  0  0  0  0  0
  -17.4226  -26.6579   21.4133 H   0  0  0  0  0  0
  -18.0504  -26.0086   22.9120 H   0  0  0  0  0  0
  -19.7941  -30.7295   24.2285 H   0  0  0  0  0  0
  -17.5015  -31.6283   24.5144 H   0  0  0  0  0  0
  -15.5374  -30.2984   23.7626 H   0  0  0  0  0  0
  -15.8709  -28.0816   22.7053 H   0  0  0  0  0  0
  -24.5860  -30.7079   25.7709 H   0  0  0  0  0  0
  -24.8888  -32.2914   26.4752 H   0  0  0  0  0  0
  -25.7980  -30.8937   27.0183 H   0  0  0  0  0  0
  -26.2970  -29.6706   24.1163 H   0  0  0  0  0  0
  -27.3969  -29.7231   25.4748 H   0  0  0  0  0  0
  -27.8868  -30.4242   23.9504 H   0  0  0  0  0  0
  -27.2595  -33.3605   26.2027 H   0  0  0  0  0  0
  -28.3836  -32.6875   25.0295 H   0  0  0  0  0  0
  -28.0683  -31.8445   26.5398 H   0  0  0  0  0  0
  -28.2591  -38.0099   24.7492 H   0  0  0  0  0  0
  -28.1093  -36.2624   24.6318 H   0  0  0  0  0  0
  -27.2303  -37.1469   25.8868 H   0  0  0  0  0  0
  -20.9384  -29.8671   21.6773 H   0  0  0  0  0  0
  -26.0173  -38.2818   24.1388 H   0  0  0  0  0  0
  -30.5571  -22.8909   19.9567 H   0  0  0  0  0  0
  -27.8604  -19.2935   23.7518 H   0  0  0  0  0  0
  -27.3568  -18.6200   22.2081 H   0  0  0  0  0  0
  -27.5986  -20.3667   22.4187 H   0  0  0  0  0  0
  -27.5613  -16.7504   20.8578 H   0  0  0  0  0  0
  -28.1948  -16.2453   19.2929 H   0  0  0  0  0  0
  -27.6707  -17.8774   19.5431 H   0  0  0  0  0  0
  -32.2841  -15.8478   22.2561 H   0  0  0  0  0  0
  -31.6784  -17.4469   22.5227 H   0  0  0  0  0  0
  -32.3068  -17.0139   20.9493 H   0  0  0  0  0  0
  -29.7265  -16.5292   23.4234 H   0  0  0  0  0  0
  -29.8668  -14.8574   23.0461 H   0  0  0  0  0  0
  -28.4625  -15.7725   22.5142 H   0  0  0  0  0  0
  -26.2485  -20.2535   20.7361 H   0  0  0  0  0  0
  -26.5323  -20.2660   18.9913 H   0  0  0  0  0  0
  -25.4795  -21.4731   19.7337 H   0  0  0  0  0  0
  -27.9528  -25.3088   18.4777 H   0  0  0  0  0  0
  -29.5631  -25.3552   19.0068 H   0  0  0  0  0  0
  -30.4410  -20.1336   19.3645 H   0  0  0  0  0  0
  -28.8835  -19.5566   19.0345 H   0  0  0  0  0  0
  -29.9353  -18.5737   22.9826 H   0  0  0  0  0  0
  -29.9562  -20.2130   22.5155 H   0  0  0  0  0  0
  -30.1923  -17.3862   19.5215 H   0  0  0  0  0  0
  -30.7665  -18.9702   20.9066 H   0  0  0  0  0  0
  1 25  1  0  0  0
  1 30  2  0  0  0
  1 83  1  0  0  0
  2  3  1  0  0  0
  2 25  1  0  0  0
  2 87  1  0  0  0
  2 88  1  0  0  0
  3  4  1  0  0  0
  3 89  1  0  0  0
  3 90  1  0  0  0
  4  5  1  0  0  0
  4 91  1  0  0  0
  4 92  1  0  0  0
  5  6  1  0  0  0
  5 26  1  0  0  0
  5 93  1  0  0  0
  6 25  1  0  0  0
  6 94  1  0  0  0
  6 95  1  0  0  0
  7  8  2  0  0  0
  7 26  1  0  0  0
  7 29  1  0  0  0
  8  9  1  0  0  0
  8 22  1  0  0  0
  9 10  1  0  0  0
  9 27  2  0  0  0
 10 11  2  0  0  0
 10 15  1  0  0  0
 11 12  1  0  0  0
 11 96  1  0  0  0
 12 13  2  0  0  0
 12 97  1  0  0  0
 13 14  1  0  0  0
 13 31  1  0  0  0
 14 15  2  0  0  0
 14 98  1  0  0  0
 15 99  1  0  0  0
 16 17  2  0  0  0
 16 21  1  0  0  0
 16 31  1  0  0  0
 17 18  1  0  0  0
 17100  1  0  0  0
 18 19  2  0  0  0
 18101  1  0  0  0
 19 20  1  0  0  0
 19 24  1  0  0  0
 20 21  2  0  0  0
 20102  1  0  0  0
 21 23  1  0  0  0
 22 28  1  0  0  0
 22 32  2  0  0  0
 26 27  1  0  0  0
 28103  1  0  0  0
 28104  1  0  0  0
 29105  1  0  0  0
 29106  1  0  0  0
 33 34  1  0  0  0
 33 66  1  0  0  0
 33 70  2  0  0  0
 34 36  1  0  0  0
 34 59  1  0  0  0
 34107  1  0  0  0
 35 44  2  0  0  0
 35 45  1  0  0  0
 35 68  1  0  0  0
 36 56  1  0  0  0
 36108  1  0  0  0
 37 39  1  0  0  0
 37 47  1  0  0  0
 37 66  1  0  0  0
 37109  1  0  0  0
 38 43  2  0  0  0
 38 46  1  0  0  0
 38 47  1  0  0  0
 39 64  1  0  0  0
 39 67  2  0  0  0
 40 52  1  0  0  0
 40 53  2  0  0  0
 40 58  1  0  0  0
 41110  1  0  0  0
 41111  1  0  0  0
 41112  1  0  0  0
 41 48  1  0  0  0
 42 43  1  0  0  0
 42 66  1  0  0  0
 42113  1  0  0  0
 42114  1  0  0  0
 43 44  1  0  0  0
 44115  1  0  0  0
 45 46  2  0  0  0
 45116  1  0  0  0
 46117  1  0  0  0
 47118  1  0  0  0
 47119  1  0  0  0
 48 56  1  0  0  0
 48 65  1  0  0  0
 48120  1  0  0  0
 49 50  1  0  0  0
 49 53  1  0  0  0
 49 64  1  0  0  0
 49121  1  0  0  0
 50 51  1  0  0  0
 50122  1  0  0  0
 50123  1  0  0  0
 51 52  1  0  0  0
 51124  1  0  0  0
 51125  1  0  0  0
 52126  1  0  0  0
 52127  1  0  0  0
 53 54  1  0  0  0
 54 55  2  0  0  0
 54128  1  0  0  0
 55 57  1  0  0  0
 55129  1  0  0  0
 56 69  2  0  0  0
 57 58  2  0  0  0
 57130  1  0  0  0
 58131  1  0  0  0
 59 60  1  0  0  0
 59 61  1  0  0  0
 59 62  1  0  0  0
 60132  1  0  0  0
 60133  1  0  0  0
 60134  1  0  0  0
 61135  1  0  0  0
 61136  1  0  0  0
 61137  1  0  0  0
 62138  1  0  0  0
 62139  1  0  0  0
 62140  1  0  0  0
 63 65  1  0  0  0
 63141  1  0  0  0
 63142  1  0  0  0
 63143  1  0  0  0
 64144  1  0  0  0
 65145  1  0  0  0
 68 79  1  0  0  0
 71 72  1  0  0  0
 71 73  2  0  0  0
 71146  1  0  0  0
 72 79  1  0  0  0
 72 84  2  0  0  0
 73 80  1  0  0  0
 73 85  1  0  0  0
 74 81  1  0  0  0
 74147  1  0  0  0
 74148  1  0  0  0
 74149  1  0  0  0
 75150  1  0  0  0
 75151  1  0  0  0
 75152  1  0  0  0
 75 82  1  0  0  0
 76153  1  0  0  0
 76154  1  0  0  0
 76155  1  0  0  0
 76 83  1  0  0  0
 77 83  1  0  0  0
 77156  1  0  0  0
 77157  1  0  0  0
 77158  1  0  0  0
 78 85  1  0  0  0
 78159  1  0  0  0
 78160  1  0  0  0
 78161  1  0  0  0
 79162  1  0  0  0
 79163  1  0  0  0
 80164  1  0  0  0
 80165  1  0  0  0
 80 86  1  0  0  0
 81 86  1  0  0  0
 81166  1  0  0  0
 81167  1  0  0  0
 82 83  1  0  0  0
 82 86  1  0  0  0
 82168  1  0  0  0
 84 85  1  0  0  0
 86169  1  0  0  0
M  CHG  1  86   1
M  ISO  4   1 100  68 101  79 101  83 100
M  END
> <chiral flag>
0

> <version>
0

> <s_m_source_file>
/data/baiqing/PycharmProjects/Reinvent-master-3.2/result/LINK_invent/BTK/process_docking_weight1_custom_sum_contain_oxygen_bond_distance_aromatic_linkinvent_7_9_3/rearranged_h_0051.sdf

> <i_m_source_file_index>
40

> <r_mmod_Potential_Energy-OPLS-2005>
214.371368408203

> <r_mmod_Stretch_Energy-OPLS-2005>
148.131042480469

> <r_mmod_Bend_Energy-OPLS-2005>
265.928039550781

> <r_mmod_Torsional_Energy-OPLS-2005>
240.49723815918

> <r_mmod_Improper_Torsional_Energy-OPLS-2005>
6.94849348068237

> <r_mmod_Van_der_Waal_Energy-OPLS-2005>
132.605651855469

> <r_mmod_Electrostatic_Energy-OPLS-2005>
-206.294967651367

> <r_mmod_Solvation_Energy-OPLS-2005>
-448.877868652344

> <b_mmod_Minimization_Converged-OPLS-2005>
0

> <r_mmod_RMS_Derivative-OPLS-2005>
3.12416362762451

$$$$
41
                    3D
 Structure written by MMmdl.
166174  0  0  1  0            999 V2000
  -30.5379  -14.7731   20.5659 C   0  0  0  0  0  0
  -30.4411  -12.4948   19.4939 C   0  0  0  0  0  0
  -29.5204  -12.5510   18.2525 C   0  0  0  0  0  0
  -28.0431  -12.3459   18.6369 C   0  0  0  0  0  0
  -27.6455  -13.2172   19.8565 C   0  0  2  0  0  0
  -28.6659  -13.0843   21.0028 C   0  0  0  0  0  0
  -25.2576  -13.8170   20.5607 C   0  0  0  0  0  0
  -24.1853  -13.0448   20.9114 C   0  0  0  0  0  0
  -24.6404  -11.6885   20.8669 C   0  0  0  0  0  0
  -23.9084  -10.4279   21.0355 C   0  0  0  0  0  0
  -24.3627   -9.4182   21.9138 C   0  0  0  0  0  0
  -23.6289   -8.2236   22.0736 C   0  0  0  0  0  0
  -22.4284   -8.0253   21.3505 C   0  0  0  0  0  0
  -21.9890   -9.0254   20.4627 C   0  0  0  0  0  0
  -22.7235  -10.2135   20.3013 C   0  0  0  0  0  0
  -21.6896   -6.0745   22.5283 C   0  0  0  0  0  0
  -21.4029   -6.5651   23.8219 C   0  0  0  0  0  0
  -21.3621   -5.6796   24.9179 C   0  0  0  0  0  0
  -21.6057   -4.3072   24.7249 C   0  0  0  0  0  0
  -21.8797   -3.8154   23.4383 C   0  0  0  0  0  0
  -21.9193   -4.6957   22.3434 C   0  0  0  0  0  0
  -22.7885  -13.5202   21.1849 C   0  0  0  0  0  0
  -22.1659   -4.2154   21.1002 F   0  0  0  0  0  0
  -21.5591   -3.4526   25.7765 F   0  0  0  0  0  0
  -29.9683  -13.5110   20.4729 N   0  0  0  0  0  0
  -26.2948  -12.9351   20.3166 N   0  0  0  0  0  0
  -25.9318  -11.6520   20.5688 N   0  0  0  0  0  0
  -22.0524  -12.8204   22.0371 N   0  0  0  0  0  0
  -25.4325  -15.1926   20.4079 N   0  0  0  0  0  0
  -31.6536  -14.9554   20.0701 O   0  0  0  0  0  0
  -21.6602   -6.8887   21.4261 O   0  0  0  0  0  0
  -22.3560  -14.5518   20.6690 O   0  0  0  0  0  0
  -24.6248  -31.8634   23.2031 C   0  0  0  0  0  0
  -25.9126  -32.4789   23.8366 C   0  0  1  0  0  0
  -27.1538  -27.2450   20.1029 C   0  0  0  0  0  0
  -25.5953  -33.8606   24.2302 N   0  0  0  0  0  0
  -23.4185  -30.4880   21.5495 C   0  0  2  0  0  0
  -24.8544  -28.9392   20.0972 C   0  0  0  0  0  0
  -22.7497  -29.4638   22.4925 C   0  0  0  0  0  0
  -18.0282  -28.1427   22.8484 C   0  0  0  0  0  0
  -24.1488  -36.7287   23.2646 C   0  0  0  0  0  0
  -25.9694  -30.7597   21.3862 C   0  0  0  0  0  0
  -26.0259  -29.3792   20.7253 C   0  0  0  0  0  0
  -27.1831  -28.5344   20.7274 C   0  0  0  0  0  0
  -25.9713  -26.8818   19.4258 C   0  0  0  0  0  0
  -24.8268  -27.6997   19.4386 C   0  0  0  0  0  0
  -23.6338  -29.8323   20.1609 C   0  0  0  0  0  0
  -25.4114  -36.3098   24.0332 C   0  0  1  0  0  0
  -20.5904  -28.3736   23.1291 C   0  0  2  0  0  0
  -20.6790  -26.9447   22.5420 C   0  0  0  0  0  0
  -19.5768  -26.6408   21.5222 C   0  0  0  0  0  0
  -18.1950  -26.7977   22.1625 C   0  0  0  0  0  0
  -19.1540  -28.8910   23.2880 C   0  0  0  0  0  0
  -18.9449  -30.1514   23.8886 C   0  0  0  0  0  0
  -17.6458  -30.6635   24.0581 C   0  0  0  0  0  0
  -25.9048  -34.9456   23.5106 C   0  0  0  0  0  0
  -16.5350  -29.9117   23.6342 C   0  0  0  0  0  0
  -16.7279  -28.6538   23.0350 C   0  0  0  0  0  0
  -26.4492  -31.6581   25.0727 C   0  0  0  0  0  0
  -25.3741  -31.3709   26.1469 C   0  0  0  0  0  0
  -27.0306  -30.2997   24.6152 C   0  0  0  0  0  0
  -27.6050  -32.4322   25.7501 C   0  0  0  0  0  0
  -27.5576  -37.1778   24.8484 C   0  0  0  0  0  0
  -21.4239  -29.3031   22.3663 N   0  0  0  0  0  0
  -26.4317  -37.3762   23.9399 N   0  0  0  0  0  0
  -24.6896  -31.0572   22.1009 N   0  0  0  0  0  0
  -23.4245  -28.8190   23.3020 O   0  0  0  0  0  0
  -28.2111  -26.3199   20.1366 O   0  0  0  0  0  0
  -26.5619  -34.8909   22.4671 O   0  0  0  0  0  0
  -23.5391  -32.1570   23.7255 O   0  0  0  0  0  0
  -27.3440  -21.4713   21.0200 C   0  0  0  0  0  0
  -28.2698  -22.1534   20.2409 C   0  0  0  0  0  0
  -28.9320  -19.9306   20.5461 C   0  0  0  0  0  0
  -32.3255  -21.0411   20.8971 C   0  0  0  0  0  0
  -31.4011  -23.3382   20.6842 C   0  0  0  0  0  0
  -29.3582  -15.8818   22.4532 C   0  0  0  0  0  0
  -28.3196  -23.6388   19.6623 C   0  0  0  0  0  0
  -29.7919  -18.5998   20.6777 C   0  0  0  0  0  0
  -30.4613  -21.3711   19.1801 C   0  0  0  0  0  0
  -29.2462  -17.1158   20.3195 C   0  0  0  0  0  0
  -27.9025  -24.9066   20.5605 C   0  0  0  0  0  0
  -31.6713  -22.0186   19.9228 C   0  0  0  0  0  0
  -29.2352  -21.1577   19.9848 N   0  0  0  0  0  0
  -27.7656  -20.1602   21.1719 N   0  3  0  0  0  0
  -29.7626  -15.8506   21.0390 N   0  0  0  0  0  0
  -31.4754  -12.6552   19.1922 H   0  0  0  0  0  0
  -30.4203  -11.5002   19.9357 H   0  0  0  0  0  0
  -29.8296  -11.8083   17.5165 H   0  0  0  0  0  0
  -29.6306  -13.5243   17.7766 H   0  0  0  0  0  0
  -27.8919  -11.2869   18.8578 H   0  0  0  0  0  0
  -27.4012  -12.5761   17.7835 H   0  0  0  0  0  0
  -27.6612  -14.2553   19.5179 H   0  0  0  0  0  0
  -28.7253  -12.0520   21.3527 H   0  0  0  0  0  0
  -28.3199  -13.6610   21.8579 H   0  0  0  0  0  0
  -25.2774   -9.5707   22.4700 H   0  0  0  0  0  0
  -23.9999   -7.4679   22.7488 H   0  0  0  0  0  0
  -21.0792   -8.8782   19.9005 H   0  0  0  0  0  0
  -22.3638  -10.9667   19.6135 H   0  0  0  0  0  0
  -21.1999   -7.6147   23.9745 H   0  0  0  0  0  0
  -21.1467   -6.0508   25.9094 H   0  0  0  0  0  0
  -22.0606   -2.7608   23.2881 H   0  0  0  0  0  0
  -22.4146  -11.9849   22.4738 H   0  0  0  0  0  0
  -21.1162  -13.1317   22.2658 H   0  0  0  0  0  0
  -24.6653  -15.8451   20.5144 H   0  0  0  0  0  0
  -26.2833  -15.6324   20.0881 H   0  0  0  0  0  0
  -26.7233  -32.5430   23.1139 H   0  0  0  0  0  0
  -25.0089  -33.9806   25.0438 H   0  0  0  0  0  0
  -22.7056  -31.3077   21.4060 H   0  0  0  0  0  0
  -23.3735  -35.9626   23.3351 H   0  0  0  0  0  0
  -24.3596  -36.8878   22.2054 H   0  0  0  0  0  0
  -23.7225  -37.6495   23.6657 H   0  0  0  0  0  0
  -26.1071  -31.4974   20.5967 H   0  0  0  0  0  0
  -26.8590  -30.8241   22.0033 H   0  0  0  0  0  0
  -28.0828  -28.8252   21.2465 H   0  0  0  0  0  0
  -25.9120  -25.9391   18.8959 H   0  0  0  0  0  0
  -23.9244  -27.3704   18.9394 H   0  0  0  0  0  0
  -23.7646  -30.6142   19.4139 H   0  0  0  0  0  0
  -22.7480  -29.2753   19.8519 H   0  0  0  0  0  0
  -25.1243  -36.1989   25.0815 H   0  0  0  0  0  0
  -20.9976  -28.3324   24.1440 H   0  0  0  0  0  0
  -20.5747  -26.2307   23.3600 H   0  0  0  0  0  0
  -21.6640  -26.7504   22.1155 H   0  0  0  0  0  0
  -19.6905  -25.6306   21.1273 H   0  0  0  0  0  0
  -19.6737  -27.3229   20.6767 H   0  0  0  0  0  0
  -17.4197  -26.6743   21.4071 H   0  0  0  0  0  0
  -18.0345  -26.0144   22.9044 H   0  0  0  0  0  0
  -19.7918  -30.7352   24.2265 H   0  0  0  0  0  0
  -17.4978  -31.6312   24.5202 H   0  0  0  0  0  0
  -15.5350  -30.2993   23.7700 H   0  0  0  0  0  0
  -15.8661  -28.0868   22.7046 H   0  0  0  0  0  0
  -24.5931  -30.7053   25.7814 H   0  0  0  0  0  0
  -24.8899  -32.2844   26.4925 H   0  0  0  0  0  0
  -25.8058  -30.8888   27.0253 H   0  0  0  0  0  0
  -26.2902  -29.6794   24.1090 H   0  0  0  0  0  0
  -27.3964  -29.7202   25.4643 H   0  0  0  0  0  0
  -27.8781  -30.4320   23.9416 H   0  0  0  0  0  0
  -27.2704  -33.3648   26.2076 H   0  0  0  0  0  0
  -28.3829  -32.6875   25.0294 H   0  0  0  0  0  0
  -28.0768  -31.8464   26.5415 H   0  0  0  0  0  0
  -28.2568  -38.0085   24.7432 H   0  0  0  0  0  0
  -28.1071  -36.2575   24.6384 H   0  0  0  0  0  0
  -27.2293  -37.1509   25.8898 H   0  0  0  0  0  0
  -20.9456  -29.8702   21.6808 H   0  0  0  0  0  0
  -26.0189  -38.2845   24.1372 H   0  0  0  0  0  0
  -26.4163  -21.7830   21.4925 H   0  0  0  0  0  0
  -33.2130  -21.4766   21.3538 H   0  0  0  0  0  0
  -32.6332  -20.1330   20.3825 H   0  0  0  0  0  0
  -31.6395  -20.7694   21.6964 H   0  0  0  0  0  0
  -32.2849  -23.7135   21.2004 H   0  0  0  0  0  0
  -30.6369  -23.1881   21.4453 H   0  0  0  0  0  0
  -31.1206  -24.1625   20.0358 H   0  0  0  0  0  0
  -29.8066  -16.7159   22.9902 H   0  0  0  0  0  0
  -29.6410  -14.9830   23.0020 H   0  0  0  0  0  0
  -28.2722  -15.9859   22.5276 H   0  0  0  0  0  0
  -27.7291  -23.6803   18.7472 H   0  0  0  0  0  0
  -29.3058  -23.8055   19.2478 H   0  0  0  0  0  0
  -30.1003  -18.6115   21.7203 H   0  0  0  0  0  0
  -30.7037  -18.7743   20.1142 H   0  0  0  0  0  0
  -30.7303  -20.4199   18.7248 H   0  0  0  0  0  0
  -30.1957  -21.9876   18.3265 H   0  0  0  0  0  0
  -29.3015  -16.9500   19.2416 H   0  0  0  0  0  0
  -28.1769  -17.1491   20.5376 H   0  0  0  0  0  0
  -26.8313  -24.8133   20.7443 H   0  0  0  0  0  0
  -28.3722  -24.7837   21.5416 H   0  0  0  0  0  0
  -32.4076  -22.2360   19.1476 H   0  0  0  0  0  0
  -27.2736  -19.4729   21.7368 H   0  0  0  0  0  0
  1 25  1  0  0  0
  1 30  2  0  0  0
  1 85  1  0  0  0
  2  3  1  0  0  0
  2 25  1  0  0  0
  2 86  1  0  0  0
  2 87  1  0  0  0
  3  4  1  0  0  0
  3 88  1  0  0  0
  3 89  1  0  0  0
  4  5  1  0  0  0
  4 90  1  0  0  0
  4 91  1  0  0  0
  5  6  1  0  0  0
  5 26  1  0  0  0
  5 92  1  0  0  0
  6 25  1  0  0  0
  6 93  1  0  0  0
  6 94  1  0  0  0
  7  8  2  0  0  0
  7 26  1  0  0  0
  7 29  1  0  0  0
  8  9  1  0  0  0
  8 22  1  0  0  0
  9 10  1  0  0  0
  9 27  2  0  0  0
 10 11  2  0  0  0
 10 15  1  0  0  0
 11 12  1  0  0  0
 11 95  1  0  0  0
 12 13  2  0  0  0
 12 96  1  0  0  0
 13 14  1  0  0  0
 13 31  1  0  0  0
 14 15  2  0  0  0
 14 97  1  0  0  0
 15 98  1  0  0  0
 16 17  2  0  0  0
 16 21  1  0  0  0
 16 31  1  0  0  0
 17 18  1  0  0  0
 17 99  1  0  0  0
 18 19  2  0  0  0
 18100  1  0  0  0
 19 20  1  0  0  0
 19 24  1  0  0  0
 20 21  2  0  0  0
 20101  1  0  0  0
 21 23  1  0  0  0
 22 28  1  0  0  0
 22 32  2  0  0  0
 26 27  1  0  0  0
 28102  1  0  0  0
 28103  1  0  0  0
 29104  1  0  0  0
 29105  1  0  0  0
 33 34  1  0  0  0
 33 66  1  0  0  0
 33 70  2  0  0  0
 34 36  1  0  0  0
 34 59  1  0  0  0
 34106  1  0  0  0
 35 44  2  0  0  0
 35 45  1  0  0  0
 35 68  1  0  0  0
 36 56  1  0  0  0
 36107  1  0  0  0
 37 39  1  0  0  0
 37 47  1  0  0  0
 37 66  1  0  0  0
 37108  1  0  0  0
 38 43  2  0  0  0
 38 46  1  0  0  0
 38 47  1  0  0  0
 39 64  1  0  0  0
 39 67  2  0  0  0
 40 52  1  0  0  0
 40 53  2  0  0  0
 40 58  1  0  0  0
 41109  1  0  0  0
 41110  1  0  0  0
 41111  1  0  0  0
 41 48  1  0  0  0
 42 43  1  0  0  0
 42 66  1  0  0  0
 42112  1  0  0  0
 42113  1  0  0  0
 43 44  1  0  0  0
 44114  1  0  0  0
 45 46  2  0  0  0
 45115  1  0  0  0
 46116  1  0  0  0
 47117  1  0  0  0
 47118  1  0  0  0
 48 56  1  0  0  0
 48 65  1  0  0  0
 48119  1  0  0  0
 49 50  1  0  0  0
 49 53  1  0  0  0
 49 64  1  0  0  0
 49120  1  0  0  0
 50 51  1  0  0  0
 50121  1  0  0  0
 50122  1  0  0  0
 51 52  1  0  0  0
 51123  1  0  0  0
 51124  1  0  0  0
 52125  1  0  0  0
 52126  1  0  0  0
 53 54  1  0  0  0
 54 55  2  0  0  0
 54127  1  0  0  0
 55 57  1  0  0  0
 55128  1  0  0  0
 56 69  2  0  0  0
 57 58  2  0  0  0
 57129  1  0  0  0
 58130  1  0  0  0
 59 60  1  0  0  0
 59 61  1  0  0  0
 59 62  1  0  0  0
 60131  1  0  0  0
 60132  1  0  0  0
 60133  1  0  0  0
 61134  1  0  0  0
 61135  1  0  0  0
 61136  1  0  0  0
 62137  1  0  0  0
 62138  1  0  0  0
 62139  1  0  0  0
 63 65  1  0  0  0
 63140  1  0  0  0
 63141  1  0  0  0
 63142  1  0  0  0
 64143  1  0  0  0
 65144  1  0  0  0
 68 81  1  0  0  0
 71 72  2  0  0  0
 71 84  1  0  0  0
 71145  1  0  0  0
 72 77  1  0  0  0
 72 83  1  0  0  0
 73 78  1  0  0  0
 73 83  1  0  0  0
 73 84  2  0  0  0
 74146  1  0  0  0
 74147  1  0  0  0
 74148  1  0  0  0
 74 82  1  0  0  0
 75 82  1  0  0  0
 75149  1  0  0  0
 75150  1  0  0  0
 75151  1  0  0  0
 76 85  1  0  0  0
 76152  1  0  0  0
 76153  1  0  0  0
 76154  1  0  0  0
 77 81  1  0  0  0
 77155  1  0  0  0
 77156  1  0  0  0
 78 80  1  0  0  0
 78157  1  0  0  0
 78158  1  0  0  0
 79 82  1  0  0  0
 79 83  1  0  0  0
 79159  1  0  0  0
 79160  1  0  0  0
 80 85  1  0  0  0
 80161  1  0  0  0
 80162  1  0  0  0
 81163  1  0  0  0
 81164  1  0  0  0
 82165  1  0  0  0
 84166  1  0  0  0
M  CHG  1  84   1
M  ISO  4   1 100  68 101  81 101  85 100
M  END
> <chiral flag>
0

> <version>
0

> <s_m_source_file>
/data/baiqing/PycharmProjects/Reinvent-master-3.2/result/LINK_invent/BTK/process_docking_weight1_custom_sum_contain_oxygen_bond_distance_aromatic_linkinvent_7_9_3/rearranged_h_0051.sdf

> <i_m_source_file_index>
41

> <r_mmod_Potential_Energy-OPLS-2005>
332.919677734375

> <r_mmod_Stretch_Energy-OPLS-2005>
136.617248535156

> <r_mmod_Bend_Energy-OPLS-2005>
182.914840698242

> <r_mmod_Torsional_Energy-OPLS-2005>
333.298553466797

> <r_mmod_Improper_Torsional_Energy-OPLS-2005>
5.17454624176025

> <r_mmod_Van_der_Waal_Energy-OPLS-2005>
120.819839477539

> <r_mmod_Electrostatic_Energy-OPLS-2005>
-136.394104003906

> <r_mmod_Solvation_Energy-OPLS-2005>
-412.594116210938

> <b_mmod_Minimization_Converged-OPLS-2005>
0

> <r_mmod_RMS_Derivative-OPLS-2005>
11.0114936828613

$$$$
42
                    3D
 Structure written by MMmdl.
160168  0  0  1  0            999 V2000
  -30.7599  -14.4213   20.6372 C   0  0  0  0  0  0
  -30.4156  -12.2969   19.4213 C   0  0  0  0  0  0
  -29.4881  -12.5075   18.2082 C   0  0  0  0  0  0
  -28.0110  -12.3698   18.6221 C   0  0  0  0  0  0
  -27.6647  -13.2061   19.8818 C   0  0  2  0  0  0
  -28.7042  -12.9766   21.0011 C   0  0  0  0  0  0
  -25.2599  -13.8165   20.5705 C   0  0  0  0  0  0
  -24.1841  -13.0457   20.9177 C   0  0  0  0  0  0
  -24.6370  -11.6919   20.8727 C   0  0  0  0  0  0
  -23.9025  -10.4304   21.0381 C   0  0  0  0  0  0
  -24.3570   -9.4226   21.9181 C   0  0  0  0  0  0
  -23.6255   -8.2258   22.0762 C   0  0  0  0  0  0
  -22.4253   -8.0277   21.3537 C   0  0  0  0  0  0
  -21.9872   -9.0250   20.4648 C   0  0  0  0  0  0
  -22.7185  -10.2140   20.3047 C   0  0  0  0  0  0
  -21.6852   -6.0725   22.5267 C   0  0  0  0  0  0
  -21.4023   -6.5630   23.8201 C   0  0  0  0  0  0
  -21.3656   -5.6779   24.9158 C   0  0  0  0  0  0
  -21.6038   -4.3042   24.7209 C   0  0  0  0  0  0
  -21.8813   -3.8134   23.4329 C   0  0  0  0  0  0
  -21.9191   -4.6956   22.3386 C   0  0  0  0  0  0
  -22.7866  -13.5272   21.1808 C   0  0  0  0  0  0
  -22.1661   -4.2146   21.0965 F   0  0  0  0  0  0
  -21.5616   -3.4525   25.7717 F   0  0  0  0  0  0
  -30.0455  -13.2717   20.4608 N   0  0  0  0  0  0
  -26.3036  -12.9334   20.3408 N   0  0  0  0  0  0
  -25.9300  -11.6492   20.5786 N   0  0  0  0  0  0
  -22.0469  -12.8311   22.0367 N   0  0  0  0  0  0
  -25.4330  -15.1882   20.4099 N   0  0  0  0  0  0
  -31.8033  -14.6518   20.0174 O   0  0  0  0  0  0
  -21.6630   -6.8867   21.4229 O   0  0  0  0  0  0
  -22.3582  -14.5573   20.6615 O   0  0  0  0  0  0
  -24.6161  -31.8688   23.2121 C   0  0  0  0  0  0
  -25.9043  -32.4830   23.8404 C   0  0  1  0  0  0
  -27.2188  -27.4020   20.0799 C   0  0  0  0  0  0
  -25.5889  -33.8630   24.2315 N   0  0  0  0  0  0
  -23.4045  -30.4983   21.5538 C   0  0  2  0  0  0
  -24.8475  -28.9767   20.1089 C   0  0  0  0  0  0
  -22.7431  -29.4670   22.4970 C   0  0  0  0  0  0
  -18.0292  -28.1356   22.8485 C   0  0  0  0  0  0
  -24.1497  -36.7340   23.2637 C   0  0  0  0  0  0
  -25.9419  -30.8198   21.3777 C   0  0  0  0  0  0
  -26.0135  -29.4559   20.7181 C   0  0  0  0  0  0
  -27.1976  -28.6731   20.7112 C   0  0  0  0  0  0
  -26.0306  -26.9776   19.4281 C   0  0  0  0  0  0
  -24.8524  -27.7361   19.4628 C   0  0  0  0  0  0
  -23.6126  -29.8466   20.1649 C   0  0  0  0  0  0
  -25.4123  -36.3123   24.0330 C   0  0  1  0  0  0
  -20.5887  -28.3671   23.1295 C   0  0  2  0  0  0
  -20.6785  -26.9402   22.5406 C   0  0  0  0  0  0
  -19.5760  -26.6372   21.5204 C   0  0  0  0  0  0
  -18.1935  -26.7902   22.1614 C   0  0  0  0  0  0
  -19.1539  -28.8822   23.2888 C   0  0  0  0  0  0
  -18.9469  -30.1430   23.8896 C   0  0  0  0  0  0
  -17.6470  -30.6558   24.0570 C   0  0  0  0  0  0
  -25.9049  -34.9481   23.5128 C   0  0  0  0  0  0
  -16.5365  -29.9072   23.6307 C   0  0  0  0  0  0
  -16.7284  -28.6493   23.0324 C   0  0  0  0  0  0
  -26.4434  -31.6614   25.0741 C   0  0  0  0  0  0
  -25.3673  -31.3768   26.1476 C   0  0  0  0  0  0
  -27.0259  -30.3042   24.6145 C   0  0  0  0  0  0
  -27.5990  -32.4358   25.7501 C   0  0  0  0  0  0
  -27.5601  -37.1832   24.8463 C   0  0  0  0  0  0
  -21.4162  -29.3045   22.3704 N   0  0  0  0  0  0
  -26.4324  -37.3800   23.9390 N   0  0  0  0  0  0
  -24.6725  -31.0771   22.1046 N   0  0  0  0  0  0
  -23.4199  -28.8179   23.2988 O   0  0  0  0  0  0
  -28.3598  -26.6028   20.1338 O   0  0  0  0  0  0
  -26.5635  -34.8928   22.4699 O   0  0  0  0  0  0
  -23.5344  -32.1466   23.7486 O   0  0  0  0  0  0
  -30.2483  -22.1773   19.7454 C   0  0  0  0  0  0
  -28.8858  -23.6852   21.5300 C   0  0  0  0  0  0
  -29.9641  -21.6887   21.0453 C   0  0  0  0  0  0
  -29.0942  -24.1384   20.2042 C   0  0  0  0  0  0
  -30.2701  -15.2226   22.8624 C   0  0  0  0  0  0
  -27.9279  -19.6035   21.3802 C   0  0  0  0  0  0
  -30.3457  -20.2625   21.4864 C   0  0  0  0  0  0
  -28.2242  -25.2543   19.6203 C   0  0  0  0  0  0
  -30.1345  -16.7770   20.8727 C   0  0  0  0  0  0
  -29.6222  -17.8761   21.8464 C   0  0  0  0  0  0
  -29.3139  -22.4660   21.9513 N   0  0  0  0  0  0
  -29.8102  -23.3924   19.3206 N   0  0  0  0  0  0
  -30.1975  -15.3870   21.4046 N   0  0  0  0  0  0
  -29.3424  -19.1899   21.1752 N   0  3  1  0  0  0
  -31.4603  -12.3805   19.1177 H   0  0  0  0  0  0
  -30.3081  -11.2835   19.8120 H   0  0  0  0  0  0
  -29.7238  -11.7879   17.4234 H   0  0  0  0  0  0
  -29.6593  -13.4965   17.7799 H   0  0  0  0  0  0
  -27.8160  -11.3135   18.8154 H   0  0  0  0  0  0
  -27.3587  -12.6487   17.7934 H   0  0  0  0  0  0
  -27.7157  -14.2562   19.5951 H   0  0  0  0  0  0
  -28.6735  -11.9414   21.3410 H   0  0  0  0  0  0
  -28.4457  -13.5743   21.8736 H   0  0  0  0  0  0
  -25.2690   -9.5731   22.4781 H   0  0  0  0  0  0
  -23.9961   -7.4665   22.7496 H   0  0  0  0  0  0
  -21.0804   -8.8742   19.8968 H   0  0  0  0  0  0
  -22.3596  -10.9673   19.6171 H   0  0  0  0  0  0
  -21.2030   -7.6142   23.9699 H   0  0  0  0  0  0
  -21.1485   -6.0513   25.9063 H   0  0  0  0  0  0
  -22.0592   -2.7601   23.2817 H   0  0  0  0  0  0
  -22.4033  -11.9989   22.4809 H   0  0  0  0  0  0
  -21.1090  -13.1401   22.2505 H   0  0  0  0  0  0
  -24.6626  -15.8419   20.5055 H   0  0  0  0  0  0
  -26.2829  -15.6221   20.0733 H   0  0  0  0  0  0
  -26.7111  -32.5508   23.1160 H   0  0  0  0  0  0
  -24.9962  -33.9802   25.0401 H   0  0  0  0  0  0
  -22.6936  -31.3164   21.4203 H   0  0  0  0  0  0
  -23.3753  -35.9677   23.3289 H   0  0  0  0  0  0
  -24.3579  -36.8988   22.2056 H   0  0  0  0  0  0
  -23.7273  -37.6546   23.6667 H   0  0  0  0  0  0
  -26.0668  -31.5858   20.6115 H   0  0  0  0  0  0
  -26.8243  -30.8642   22.0034 H   0  0  0  0  0  0
  -28.0880  -29.0322   21.2090 H   0  0  0  0  0  0
  -25.9553  -26.0589   18.8685 H   0  0  0  0  0  0
  -23.9624  -27.3683   18.9714 H   0  0  0  0  0  0
  -23.7229  -30.6256   19.4099 H   0  0  0  0  0  0
  -22.7334  -29.2729   19.8646 H   0  0  0  0  0  0
  -25.1304  -36.1995   25.0834 H   0  0  0  0  0  0
  -20.9989  -28.3242   24.1412 H   0  0  0  0  0  0
  -20.5700  -26.2282   23.3604 H   0  0  0  0  0  0
  -21.6657  -26.7433   22.1203 H   0  0  0  0  0  0
  -19.6934  -25.6287   21.1231 H   0  0  0  0  0  0
  -19.6685  -27.3184   20.6736 H   0  0  0  0  0  0
  -17.4213  -26.6648   21.4009 H   0  0  0  0  0  0
  -18.0334  -26.0021   22.8997 H   0  0  0  0  0  0
  -19.7946  -30.7236   24.2271 H   0  0  0  0  0  0
  -17.5031  -31.6236   24.5184 H   0  0  0  0  0  0
  -15.5372  -30.2983   23.7614 H   0  0  0  0  0  0
  -15.8688  -28.0836   22.7004 H   0  0  0  0  0  0
  -24.5798  -30.7177   25.7806 H   0  0  0  0  0  0
  -24.8905  -32.2954   26.4910 H   0  0  0  0  0  0
  -25.7968  -30.8915   27.0250 H   0  0  0  0  0  0
  -26.2821  -29.6835   24.1136 H   0  0  0  0  0  0
  -27.3956  -29.7247   25.4614 H   0  0  0  0  0  0
  -27.8684  -30.4342   23.9350 H   0  0  0  0  0  0
  -27.2585  -33.3683   26.2022 H   0  0  0  0  0  0
  -28.3799  -32.6911   25.0325 H   0  0  0  0  0  0
  -28.0635  -31.8531   26.5467 H   0  0  0  0  0  0
  -28.2621  -38.0127   24.7505 H   0  0  0  0  0  0
  -28.1110  -36.2661   24.6302 H   0  0  0  0  0  0
  -27.2311  -37.1511   25.8867 H   0  0  0  0  0  0
  -20.9317  -29.8821   21.6973 H   0  0  0  0  0  0
  -26.0220  -38.2897   24.1334 H   0  0  0  0  0  0
  -30.7819  -21.5728   19.0253 H   0  0  0  0  0  0
  -28.2695  -24.2487   22.2153 H   0  0  0  0  0  0
  -30.4572  -14.1861   23.1550 H   0  0  0  0  0  0
  -29.3378  -15.5174   23.3415 H   0  0  0  0  0  0
  -31.0829  -15.8183   23.2787 H   0  0  0  0  0  0
  -27.6515  -20.4631   20.7687 H   0  0  0  0  0  0
  -27.7405  -19.8533   22.4246 H   0  0  0  0  0  0
  -27.2425  -18.8011   21.0993 H   0  0  0  0  0  0
  -30.5252  -20.2916   22.5620 H   0  0  0  0  0  0
  -31.3016  -19.9956   21.0331 H   0  0  0  0  0  0
  -27.2421  -24.8444   19.8551 H   0  0  0  0  0  0
  -28.3172  -25.2775   18.5329 H   0  0  0  0  0  0
  -31.1247  -17.0704   20.5175 H   0  0  0  0  0  0
  -29.4916  -16.7544   19.9907 H   0  0  0  0  0  0
  -30.3382  -18.0175   22.6577 H   0  0  0  0  0  0
  -28.7140  -17.5160   22.3325 H   0  0  0  0  0  0
  -29.4197  -19.0236   20.1833 H   0  0  0  0  0  0
  1 25  1  0  0  0
  1 30  2  0  0  0
  1 83  1  0  0  0
  2  3  1  0  0  0
  2 25  1  0  0  0
  2 85  1  0  0  0
  2 86  1  0  0  0
  3  4  1  0  0  0
  3 87  1  0  0  0
  3 88  1  0  0  0
  4  5  1  0  0  0
  4 89  1  0  0  0
  4 90  1  0  0  0
  5  6  1  0  0  0
  5 26  1  0  0  0
  5 91  1  0  0  0
  6 25  1  0  0  0
  6 92  1  0  0  0
  6 93  1  0  0  0
  7  8  2  0  0  0
  7 26  1  0  0  0
  7 29  1  0  0  0
  8  9  1  0  0  0
  8 22  1  0  0  0
  9 10  1  0  0  0
  9 27  2  0  0  0
 10 11  2  0  0  0
 10 15  1  0  0  0
 11 12  1  0  0  0
 11 94  1  0  0  0
 12 13  2  0  0  0
 12 95  1  0  0  0
 13 14  1  0  0  0
 13 31  1  0  0  0
 14 15  2  0  0  0
 14 96  1  0  0  0
 15 97  1  0  0  0
 16 17  2  0  0  0
 16 21  1  0  0  0
 16 31  1  0  0  0
 17 18  1  0  0  0
 17 98  1  0  0  0
 18 19  2  0  0  0
 18 99  1  0  0  0
 19 20  1  0  0  0
 19 24  1  0  0  0
 20 21  2  0  0  0
 20100  1  0  0  0
 21 23  1  0  0  0
 22 28  1  0  0  0
 22 32  2  0  0  0
 26 27  1  0  0  0
 28101  1  0  0  0
 28102  1  0  0  0
 29103  1  0  0  0
 29104  1  0  0  0
 33 34  1  0  0  0
 33 66  1  0  0  0
 33 70  2  0  0  0
 34 36  1  0  0  0
 34 59  1  0  0  0
 34105  1  0  0  0
 35 44  2  0  0  0
 35 45  1  0  0  0
 35 68  1  0  0  0
 36 56  1  0  0  0
 36106  1  0  0  0
 37 39  1  0  0  0
 37 47  1  0  0  0
 37 66  1  0  0  0
 37107  1  0  0  0
 38 43  2  0  0  0
 38 46  1  0  0  0
 38 47  1  0  0  0
 39 64  1  0  0  0
 39 67  2  0  0  0
 40 52  1  0  0  0
 40 53  2  0  0  0
 40 58  1  0  0  0
 41108  1  0  0  0
 41109  1  0  0  0
 41110  1  0  0  0
 41 48  1  0  0  0
 42 43  1  0  0  0
 42 66  1  0  0  0
 42111  1  0  0  0
 42112  1  0  0  0
 43 44  1  0  0  0
 44113  1  0  0  0
 45 46  2  0  0  0
 45114  1  0  0  0
 46115  1  0  0  0
 47116  1  0  0  0
 47117  1  0  0  0
 48 56  1  0  0  0
 48 65  1  0  0  0
 48118  1  0  0  0
 49 50  1  0  0  0
 49 53  1  0  0  0
 49 64  1  0  0  0
 49119  1  0  0  0
 50 51  1  0  0  0
 50120  1  0  0  0
 50121  1  0  0  0
 51 52  1  0  0  0
 51122  1  0  0  0
 51123  1  0  0  0
 52124  1  0  0  0
 52125  1  0  0  0
 53 54  1  0  0  0
 54 55  2  0  0  0
 54126  1  0  0  0
 55 57  1  0  0  0
 55127  1  0  0  0
 56 69  2  0  0  0
 57 58  2  0  0  0
 57128  1  0  0  0
 58129  1  0  0  0
 59 60  1  0  0  0
 59 61  1  0  0  0
 59 62  1  0  0  0
 60130  1  0  0  0
 60131  1  0  0  0
 60132  1  0  0  0
 61133  1  0  0  0
 61134  1  0  0  0
 61135  1  0  0  0
 62136  1  0  0  0
 62137  1  0  0  0
 62138  1  0  0  0
 63 65  1  0  0  0
 63139  1  0  0  0
 63140  1  0  0  0
 63141  1  0  0  0
 64142  1  0  0  0
 65143  1  0  0  0
 68 78  1  0  0  0
 71 73  2  0  0  0
 71 82  1  0  0  0
 71144  1  0  0  0
 72 74  1  0  0  0
 72 81  2  0  0  0
 72145  1  0  0  0
 73 77  1  0  0  0
 73 81  1  0  0  0
 74 78  1  0  0  0
 74 82  2  0  0  0
 75 83  1  0  0  0
 75146  1  0  0  0
 75147  1  0  0  0
 75148  1  0  0  0
 76149  1  0  0  0
 76150  1  0  0  0
 76151  1  0  0  0
 76 84  1  0  0  0
 77 84  1  0  0  0
 77152  1  0  0  0
 77153  1  0  0  0
 78154  1  0  0  0
 78155  1  0  0  0
 79 80  1  0  0  0
 79 83  1  0  0  0
 79156  1  0  0  0
 79157  1  0  0  0
 80 84  1  0  0  0
 80158  1  0  0  0
 80159  1  0  0  0
 84160  1  0  0  0
M  CHG  1  84   1
M  ISO  4   1 100  68 101  78 101  83 100
M  END
> <chiral flag>
0

> <version>
0

> <s_m_source_file>
/data/baiqing/PycharmProjects/Reinvent-master-3.2/result/LINK_invent/BTK/process_docking_weight1_custom_sum_contain_oxygen_bond_distance_aromatic_linkinvent_7_9_3/rearranged_h_0051.sdf

> <i_m_source_file_index>
42

> <r_mmod_Potential_Energy-OPLS-2005>
65.9366683959961

> <r_mmod_Stretch_Energy-OPLS-2005>
48.7024879455566

> <r_mmod_Bend_Energy-OPLS-2005>
112.538040161133

> <r_mmod_Torsional_Energy-OPLS-2005>
298.753204345703

> <r_mmod_Improper_Torsional_Energy-OPLS-2005>
8.18592929840088

> <r_mmod_Van_der_Waal_Energy-OPLS-2005>
177.279418945312

> <r_mmod_Electrostatic_Energy-OPLS-2005>
-136.288467407227

> <r_mmod_Solvation_Energy-OPLS-2005>
-458.8037109375

> <b_mmod_Minimization_Converged-OPLS-2005>
0

> <r_mmod_RMS_Derivative-OPLS-2005>
2.29153227806091

$$$$
43
                    3D
 Structure written by MMmdl.
165173  0  0  1  0            999 V2000
  -30.6984  -14.4775   20.4720 C   0  0  0  0  0  0
  -30.4134  -12.2743   19.4293 C   0  0  0  0  0  0
  -29.4943  -12.4628   18.2036 C   0  0  0  0  0  0
  -28.0075  -12.3743   18.6069 C   0  0  0  0  0  0
  -27.6569  -13.2139   19.8660 C   0  0  2  0  0  0
  -28.7053  -13.0323   20.9878 C   0  0  0  0  0  0
  -25.2585  -13.8191   20.5710 C   0  0  0  0  0  0
  -24.1848  -13.0457   20.9195 C   0  0  0  0  0  0
  -24.6430  -11.6921   20.8746 C   0  0  0  0  0  0
  -23.9117  -10.4296   21.0401 C   0  0  0  0  0  0
  -24.3674   -9.4207   21.9165 C   0  0  0  0  0  0
  -23.6350   -8.2248   22.0751 C   0  0  0  0  0  0
  -22.4313   -8.0303   21.3558 C   0  0  0  0  0  0
  -21.9959   -9.0270   20.4641 C   0  0  0  0  0  0
  -22.7296  -10.2145   20.3037 C   0  0  0  0  0  0
  -21.6874   -6.0759   22.5294 C   0  0  0  0  0  0
  -21.4023   -6.5646   23.8231 C   0  0  0  0  0  0
  -21.3664   -5.6784   24.9185 C   0  0  0  0  0  0
  -21.6053   -4.3049   24.7216 C   0  0  0  0  0  0
  -21.8835   -3.8162   23.4331 C   0  0  0  0  0  0
  -21.9209   -4.6986   22.3399 C   0  0  0  0  0  0
  -22.7851  -13.5221   21.1846 C   0  0  0  0  0  0
  -22.1663   -4.2178   21.0969 F   0  0  0  0  0  0
  -21.5629   -3.4521   25.7722 F   0  0  0  0  0  0
  -30.0333  -13.2947   20.4146 N   0  0  0  0  0  0
  -26.3017  -12.9376   20.3368 N   0  0  0  0  0  0
  -25.9352  -11.6535   20.5800 N   0  0  0  0  0  0
  -22.0514  -12.8193   22.0411 N   0  0  0  0  0  0
  -25.4308  -15.1914   20.4079 N   0  0  0  0  0  0
  -31.8912  -14.5902   20.1710 O   0  0  0  0  0  0
  -21.6670   -6.8913   21.4263 O   0  0  0  0  0  0
  -22.3523  -14.5531   20.6707 O   0  0  0  0  0  0
  -24.6106  -31.8716   23.2137 C   0  0  0  0  0  0
  -25.9011  -32.4845   23.8420 C   0  0  1  0  0  0
  -27.2352  -27.4705   20.0860 C   0  0  0  0  0  0
  -25.5877  -33.8646   24.2351 N   0  0  0  0  0  0
  -23.3971  -30.4954   21.5538 C   0  0  2  0  0  0
  -24.8448  -28.9688   20.1152 C   0  0  0  0  0  0
  -22.7391  -29.4668   22.5002 C   0  0  0  0  0  0
  -18.0270  -28.1376   22.8500 C   0  0  0  0  0  0
  -24.1480  -36.7312   23.2641 C   0  0  0  0  0  0
  -25.9236  -30.8477   21.3634 C   0  0  0  0  0  0
  -26.0040  -29.4865   20.7074 C   0  0  0  0  0  0
  -27.2057  -28.7456   20.6888 C   0  0  0  0  0  0
  -26.0632  -26.9638   19.4833 C   0  0  0  0  0  0
  -24.8675  -27.7045   19.5015 C   0  0  0  0  0  0
  -23.6035  -29.8298   20.1677 C   0  0  0  0  0  0
  -25.4101  -36.3129   24.0343 C   0  0  1  0  0  0
  -20.5858  -28.3656   23.1328 C   0  0  2  0  0  0
  -20.6753  -26.9385   22.5430 C   0  0  0  0  0  0
  -19.5735  -26.6377   21.5220 C   0  0  0  0  0  0
  -18.1915  -26.7923   22.1625 C   0  0  0  0  0  0
  -19.1521  -28.8831   23.2916 C   0  0  0  0  0  0
  -18.9444  -30.1442   23.8922 C   0  0  0  0  0  0
  -17.6450  -30.6585   24.0562 C   0  0  0  0  0  0
  -25.9025  -34.9491   23.5149 C   0  0  0  0  0  0
  -16.5339  -29.9085   23.6329 C   0  0  0  0  0  0
  -16.7260  -28.6498   23.0351 C   0  0  0  0  0  0
  -26.4456  -31.6614   25.0733 C   0  0  0  0  0  0
  -25.3735  -31.3692   26.1486 C   0  0  0  0  0  0
  -27.0289  -30.3063   24.6082 C   0  0  0  0  0  0
  -27.6038  -32.4330   25.7495 C   0  0  0  0  0  0
  -27.5580  -37.1813   24.8465 C   0  0  0  0  0  0
  -21.4119  -29.3028   22.3741 N   0  0  0  0  0  0
  -26.4291  -37.3806   23.9413 N   0  0  0  0  0  0
  -24.6621  -31.0837   22.1031 N   0  0  0  0  0  0
  -23.4170  -28.8206   23.3035 O   0  0  0  0  0  0
  -28.3942  -26.7344   20.0764 O   0  0  0  0  0  0
  -26.5588  -34.8929   22.4710 O   0  0  0  0  0  0
  -23.5306  -32.1458   23.7544 O   0  0  0  0  0  0
  -31.6462  -24.1623   20.6698 C   0  0  0  0  0  0
  -30.2366  -22.5293   20.1202 C   0  0  0  0  0  0
  -29.4638  -24.5610   20.6064 C   0  0  0  0  0  0
  -33.0597  -24.6426   20.9234 C   0  0  0  0  0  0
  -29.8922  -16.1895   18.9560 C   0  0  0  0  0  0
  -31.9398  -19.7203   20.2804 C   0  0  0  0  0  0
  -29.9816  -21.0902   19.6694 C   0  0  0  0  0  0
  -28.2807  -25.5025   20.7987 C   0  0  0  0  0  0
  -30.1591  -17.6963   21.5932 C   0  0  0  0  0  0
  -29.3583  -16.3847   21.3689 C   0  0  0  0  0  0
  -29.6161  -18.9167   20.7850 C   0  0  0  0  0  0
  -31.4989  -22.8852   20.3371 N   0  0  0  0  0  0
  -30.6796  -25.0555   20.8235 N   0  0  0  0  0  0
  -29.1729  -23.3105   20.2558 N   0  0  0  0  0  0
  -29.8917  -15.5501   20.2774 N   0  0  0  0  0  0
  -30.5370  -20.0846   20.6172 N   0  3  1  0  0  0
  -31.4616  -12.3454   19.1329 H   0  0  0  0  0  0
  -30.2822  -11.2764   19.8515 H   0  0  0  0  0  0
  -29.7161  -11.7054   17.4494 H   0  0  0  0  0  0
  -29.6949  -13.4209   17.7265 H   0  0  0  0  0  0
  -27.7748  -11.3253   18.7839 H   0  0  0  0  0  0
  -27.3812  -12.6883   17.7706 H   0  0  0  0  0  0
  -27.6784  -14.2562   19.5538 H   0  0  0  0  0  0
  -28.6658  -12.0233   21.3989 H   0  0  0  0  0  0
  -28.4953  -13.7021   21.8219 H   0  0  0  0  0  0
  -25.2832   -9.5675   22.4724 H   0  0  0  0  0  0
  -24.0079   -7.4644   22.7452 H   0  0  0  0  0  0
  -21.0904   -8.8791   19.8931 H   0  0  0  0  0  0
  -22.3781  -10.9687   19.6133 H   0  0  0  0  0  0
  -21.1998   -7.6146   23.9755 H   0  0  0  0  0  0
  -21.1467   -6.0486   25.9094 H   0  0  0  0  0  0
  -22.0608   -2.7623   23.2813 H   0  0  0  0  0  0
  -22.4175  -11.9858   22.4763 H   0  0  0  0  0  0
  -21.1120  -13.1184   22.2645 H   0  0  0  0  0  0
  -24.6731  -15.8547   20.5309 H   0  0  0  0  0  0
  -26.2856  -15.6243   20.0827 H   0  0  0  0  0  0
  -26.7084  -32.5566   23.1193 H   0  0  0  0  0  0
  -25.0048  -33.9825   25.0505 H   0  0  0  0  0  0
  -22.6845  -31.3119   21.4177 H   0  0  0  0  0  0
  -23.3755  -35.9633   23.3316 H   0  0  0  0  0  0
  -24.3577  -36.8912   22.2054 H   0  0  0  0  0  0
  -23.7214  -37.6510   23.6647 H   0  0  0  0  0  0
  -26.0347  -31.6196   20.6004 H   0  0  0  0  0  0
  -26.8112  -30.8978   21.9820 H   0  0  0  0  0  0
  -28.1027  -29.1435   21.1430 H   0  0  0  0  0  0
  -26.0726  -26.0022   18.9900 H   0  0  0  0  0  0
  -23.9777  -27.3012   19.0382 H   0  0  0  0  0  0
  -23.7043  -30.6069   19.4093 H   0  0  0  0  0  0
  -22.7295  -29.2466   19.8727 H   0  0  0  0  0  0
  -25.1283  -36.2005   25.0836 H   0  0  0  0  0  0
  -20.9957  -28.3218   24.1445 H   0  0  0  0  0  0
  -20.5650  -26.2257   23.3619 H   0  0  0  0  0  0
  -21.6624  -26.7432   22.1221 H   0  0  0  0  0  0
  -19.6889  -25.6292   21.1240 H   0  0  0  0  0  0
  -19.6683  -27.3196   20.6759 H   0  0  0  0  0  0
  -17.4186  -26.6697   21.4020 H   0  0  0  0  0  0
  -18.0295  -26.0057   22.9014 H   0  0  0  0  0  0
  -19.7921  -30.7255   24.2291 H   0  0  0  0  0  0
  -17.5003  -31.6268   24.5157 H   0  0  0  0  0  0
  -15.5342  -30.2990   23.7647 H   0  0  0  0  0  0
  -15.8654  -28.0824   22.7057 H   0  0  0  0  0  0
  -24.5907  -30.7044   25.7811 H   0  0  0  0  0  0
  -24.8926  -32.2838   26.4968 H   0  0  0  0  0  0
  -25.8098  -30.8833   27.0223 H   0  0  0  0  0  0
  -26.2827  -29.6834   24.1132 H   0  0  0  0  0  0
  -27.4071  -29.7285   25.4528 H   0  0  0  0  0  0
  -27.8659  -30.4402   23.9223 H   0  0  0  0  0  0
  -27.2660  -33.3622   26.2102 H   0  0  0  0  0  0
  -28.3831  -32.6908   25.0310 H   0  0  0  0  0  0
  -28.0722  -31.8436   26.5388 H   0  0  0  0  0  0
  -28.2604  -38.0106   24.7519 H   0  0  0  0  0  0
  -28.1073  -36.2642   24.6290 H   0  0  0  0  0  0
  -27.2303  -37.1452   25.8868 H   0  0  0  0  0  0
  -20.9261  -29.8752   21.6981 H   0  0  0  0  0  0
  -26.0190  -38.2886   24.1416 H   0  0  0  0  0  0
  -33.8000  -23.9643   20.4954 H   0  0  0  0  0  0
  -33.2429  -24.7123   21.9953 H   0  0  0  0  0  0
  -33.2174  -25.6272   20.4842 H   0  0  0  0  0  0
  -28.8972  -16.5595   18.7065 H   0  0  0  0  0  0
  -30.1828  -15.5017   18.1638 H   0  0  0  0  0  0
  -30.6058  -17.0136   18.9105 H   0  0  0  0  0  0
  -32.5582  -20.5913   20.0738 H   0  0  0  0  0  0
  -31.9855  -19.0747   19.4029 H   0  0  0  0  0  0
  -32.4304  -19.2125   21.1095 H   0  0  0  0  0  0
  -30.3948  -20.9481   18.6688 H   0  0  0  0  0  0
  -28.9028  -20.9578   19.5576 H   0  0  0  0  0  0
  -28.1945  -25.7266   21.8627 H   0  0  0  0  0  0
  -27.3729  -24.9630   20.5258 H   0  0  0  0  0  0
  -31.2014  -17.4736   21.3789 H   0  0  0  0  0  0
  -30.1262  -17.9512   22.6542 H   0  0  0  0  0  0
  -28.3090  -16.6095   21.1703 H   0  0  0  0  0  0
  -29.3603  -15.8047   22.2932 H   0  0  0  0  0  0
  -28.7046  -19.2664   21.2732 H   0  0  0  0  0  0
  -29.2943  -18.5988   19.7954 H   0  0  0  0  0  0
  -30.5778  -20.5908   21.4898 H   0  0  0  0  0  0
  1 25  1  0  0  0
  1 30  2  0  0  0
  1 85  1  0  0  0
  2  3  1  0  0  0
  2 25  1  0  0  0
  2 87  1  0  0  0
  2 88  1  0  0  0
  3  4  1  0  0  0
  3 89  1  0  0  0
  3 90  1  0  0  0
  4  5  1  0  0  0
  4 91  1  0  0  0
  4 92  1  0  0  0
  5  6  1  0  0  0
  5 26  1  0  0  0
  5 93  1  0  0  0
  6 25  1  0  0  0
  6 94  1  0  0  0
  6 95  1  0  0  0
  7  8  2  0  0  0
  7 26  1  0  0  0
  7 29  1  0  0  0
  8  9  1  0  0  0
  8 22  1  0  0  0
  9 10  1  0  0  0
  9 27  2  0  0  0
 10 11  2  0  0  0
 10 15  1  0  0  0
 11 12  1  0  0  0
 11 96  1  0  0  0
 12 13  2  0  0  0
 12 97  1  0  0  0
 13 14  1  0  0  0
 13 31  1  0  0  0
 14 15  2  0  0  0
 14 98  1  0  0  0
 15 99  1  0  0  0
 16 17  2  0  0  0
 16 21  1  0  0  0
 16 31  1  0  0  0
 17 18  1  0  0  0
 17100  1  0  0  0
 18 19  2  0  0  0
 18101  1  0  0  0
 19 20  1  0  0  0
 19 24  1  0  0  0
 20 21  2  0  0  0
 20102  1  0  0  0
 21 23  1  0  0  0
 22 28  1  0  0  0
 22 32  2  0  0  0
 26 27  1  0  0  0
 28103  1  0  0  0
 28104  1  0  0  0
 29105  1  0  0  0
 29106  1  0  0  0
 33 34  1  0  0  0
 33 66  1  0  0  0
 33 70  2  0  0  0
 34 36  1  0  0  0
 34 59  1  0  0  0
 34107  1  0  0  0
 35 44  2  0  0  0
 35 45  1  0  0  0
 35 68  1  0  0  0
 36 56  1  0  0  0
 36108  1  0  0  0
 37 39  1  0  0  0
 37 47  1  0  0  0
 37 66  1  0  0  0
 37109  1  0  0  0
 38 43  2  0  0  0
 38 46  1  0  0  0
 38 47  1  0  0  0
 39 64  1  0  0  0
 39 67  2  0  0  0
 40 52  1  0  0  0
 40 53  2  0  0  0
 40 58  1  0  0  0
 41110  1  0  0  0
 41111  1  0  0  0
 41112  1  0  0  0
 41 48  1  0  0  0
 42 43  1  0  0  0
 42 66  1  0  0  0
 42113  1  0  0  0
 42114  1  0  0  0
 43 44  1  0  0  0
 44115  1  0  0  0
 45 46  2  0  0  0
 45116  1  0  0  0
 46117  1  0  0  0
 47118  1  0  0  0
 47119  1  0  0  0
 48 56  1  0  0  0
 48 65  1  0  0  0
 48120  1  0  0  0
 49 50  1  0  0  0
 49 53  1  0  0  0
 49 64  1  0  0  0
 49121  1  0  0  0
 50 51  1  0  0  0
 50122  1  0  0  0
 50123  1  0  0  0
 51 52  1  0  0  0
 51124  1  0  0  0
 51125  1  0  0  0
 52126  1  0  0  0
 52127  1  0  0  0
 53 54  1  0  0  0
 54 55  2  0  0  0
 54128  1  0  0  0
 55 57  1  0  0  0
 55129  1  0  0  0
 56 69  2  0  0  0
 57 58  2  0  0  0
 57130  1  0  0  0
 58131  1  0  0  0
 59 60  1  0  0  0
 59 61  1  0  0  0
 59 62  1  0  0  0
 60132  1  0  0  0
 60133  1  0  0  0
 60134  1  0  0  0
 61135  1  0  0  0
 61136  1  0  0  0
 61137  1  0  0  0
 62138  1  0  0  0
 62139  1  0  0  0
 62140  1  0  0  0
 63 65  1  0  0  0
 63141  1  0  0  0
 63142  1  0  0  0
 63143  1  0  0  0
 64144  1  0  0  0
 65145  1  0  0  0
 68 78  1  0  0  0
 71 74  1  0  0  0
 71 82  2  0  0  0
 71 83  1  0  0  0
 72 77  1  0  0  0
 72 82  1  0  0  0
 72 84  2  0  0  0
 73 78  1  0  0  0
 73 83  2  0  0  0
 73 84  1  0  0  0
 74146  1  0  0  0
 74147  1  0  0  0
 74148  1  0  0  0
 75 85  1  0  0  0
 75149  1  0  0  0
 75150  1  0  0  0
 75151  1  0  0  0
 76152  1  0  0  0
 76153  1  0  0  0
 76154  1  0  0  0
 76 86  1  0  0  0
 77 86  1  0  0  0
 77155  1  0  0  0
 77156  1  0  0  0
 78157  1  0  0  0
 78158  1  0  0  0
 79 80  1  0  0  0
 79 81  1  0  0  0
 79159  1  0  0  0
 79160  1  0  0  0
 80 85  1  0  0  0
 80161  1  0  0  0
 80162  1  0  0  0
 81 86  1  0  0  0
 81163  1  0  0  0
 81164  1  0  0  0
 86165  1  0  0  0
M  CHG  1  86   1
M  ISO  4   1 100  68 101  78 101  85 100
M  END
> <chiral flag>
0

> <version>
0

> <s_m_source_file>
/data/baiqing/PycharmProjects/Reinvent-master-3.2/result/LINK_invent/BTK/process_docking_weight1_custom_sum_contain_oxygen_bond_distance_aromatic_linkinvent_7_9_3/rearranged_h_0051.sdf

> <i_m_source_file_index>
43

> <r_mmod_Potential_Energy-OPLS-2005>
-645.009338378906

> <r_mmod_Stretch_Energy-OPLS-2005>
36.1261596679688

> <r_mmod_Bend_Energy-OPLS-2005>
95.5289993286133

> <r_mmod_Torsional_Energy-OPLS-2005>
339.644561767578

> <r_mmod_Improper_Torsional_Energy-OPLS-2005>
21.2362232208252

> <r_mmod_Van_der_Waal_Energy-OPLS-2005>
182.448806762695

> <r_mmod_Electrostatic_Energy-OPLS-2005>
-893.654846191406

> <r_mmod_Solvation_Energy-OPLS-2005>
-443.927795410156

> <b_mmod_Minimization_Converged-OPLS-2005>
0

> <r_mmod_RMS_Derivative-OPLS-2005>
2.91141724586487

$$$$
44
                    3D
 Structure written by MMmdl.
160168  0  0  1  0            999 V2000
  -30.6646  -14.7603   20.4359 C   0  0  0  0  0  0
  -30.4342  -12.4598   19.4741 C   0  0  0  0  0  0
  -29.5134  -12.3995   18.2375 C   0  0  0  0  0  0
  -28.0390  -12.2241   18.6576 C   0  0  0  0  0  0
  -27.6225  -13.1656   19.8121 C   0  0  2  0  0  0
  -28.6774  -13.2116   20.9474 C   0  0  0  0  0  0
  -25.2510  -13.8023   20.5710 C   0  0  0  0  0  0
  -24.1760  -13.0355   20.9257 C   0  0  0  0  0  0
  -24.6293  -11.6829   20.8813 C   0  0  0  0  0  0
  -23.8956  -10.4251   21.0455 C   0  0  0  0  0  0
  -24.3551   -9.4172   21.9201 C   0  0  0  0  0  0
  -23.6247   -8.2202   22.0743 C   0  0  0  0  0  0
  -22.4226   -8.0245   21.3539 C   0  0  0  0  0  0
  -21.9849   -9.0211   20.4638 C   0  0  0  0  0  0
  -22.7154  -10.2099   20.3063 C   0  0  0  0  0  0
  -21.6836   -6.0719   22.5292 C   0  0  0  0  0  0
  -21.3997   -6.5636   23.8215 C   0  0  0  0  0  0
  -21.3647   -5.6793   24.9180 C   0  0  0  0  0  0
  -21.6046   -4.3059   24.7230 C   0  0  0  0  0  0
  -21.8819   -3.8140   23.4356 C   0  0  0  0  0  0
  -21.9184   -4.6952   22.3409 C   0  0  0  0  0  0
  -22.7804  -13.5204   21.1897 C   0  0  0  0  0  0
  -22.1651   -4.2130   21.0990 F   0  0  0  0  0  0
  -21.5623   -3.4553   25.7753 F   0  0  0  0  0  0
  -29.9707  -13.5664   20.3449 N   0  0  0  0  0  0
  -26.2827  -12.9088   20.3159 N   0  0  0  0  0  0
  -25.9186  -11.6320   20.5785 N   0  0  0  0  0  0
  -22.0430  -12.8178   22.0433 N   0  0  0  0  0  0
  -25.4162  -15.1745   20.4204 N   0  0  0  0  0  0
  -31.8822  -14.7494   20.2394 O   0  0  0  0  0  0
  -21.6594   -6.8857   21.4248 O   0  0  0  0  0  0
  -22.3512  -14.5511   20.6728 O   0  0  0  0  0  0
  -24.6242  -31.8592   23.1998 C   0  0  0  0  0  0
  -25.9099  -32.4766   23.8329 C   0  0  1  0  0  0
  -27.2426  -27.3252   20.1196 C   0  0  0  0  0  0
  -25.5918  -33.8564   24.2260 N   0  0  0  0  0  0
  -23.4174  -30.4803   21.5429 C   0  0  2  0  0  0
  -24.8655  -28.9264   20.1154 C   0  0  0  0  0  0
  -22.7448  -29.4634   22.4947 C   0  0  0  0  0  0
  -18.0278  -28.1403   22.8468 C   0  0  0  0  0  0
  -24.1489  -36.7286   23.2635 C   0  0  0  0  0  0
  -25.9548  -30.7922   21.3670 C   0  0  0  0  0  0
  -26.0309  -29.4166   20.7156 C   0  0  0  0  0  0
  -27.2158  -28.6264   20.7085 C   0  0  0  0  0  0
  -26.0486  -26.8780   19.5063 C   0  0  0  0  0  0
  -24.8754  -27.6608   19.5061 C   0  0  0  0  0  0
  -23.6305  -29.8039   20.1617 C   0  0  0  0  0  0
  -25.4115  -36.3075   24.0325 C   0  0  1  0  0  0
  -20.5869  -28.3699   23.1286 C   0  0  2  0  0  0
  -20.6768  -26.9429   22.5405 C   0  0  0  0  0  0
  -19.5750  -26.6395   21.5201 C   0  0  0  0  0  0
  -18.1929  -26.7940   22.1617 C   0  0  0  0  0  0
  -19.1527  -28.8867   23.2872 C   0  0  0  0  0  0
  -18.9454  -30.1476   23.8880 C   0  0  0  0  0  0
  -17.6456  -30.6605   24.0563 C   0  0  0  0  0  0
  -25.9055  -34.9444   23.5095 C   0  0  0  0  0  0
  -16.5346  -29.9105   23.6332 C   0  0  0  0  0  0
  -16.7266  -28.6525   23.0341 C   0  0  0  0  0  0
  -26.4493  -31.6568   25.0693 C   0  0  0  0  0  0
  -25.3725  -31.3688   26.1417 C   0  0  0  0  0  0
  -27.0328  -30.2991   24.6140 C   0  0  0  0  0  0
  -27.6069  -32.4280   25.7466 C   0  0  0  0  0  0
  -27.5583  -37.1788   24.8463 C   0  0  0  0  0  0
  -21.4163  -29.3048   22.3676 N   0  0  0  0  0  0
  -26.4288  -37.3776   23.9421 N   0  0  0  0  0  0
  -24.6847  -31.0604   22.0946 N   0  0  0  0  0  0
  -23.4164  -28.8191   23.3044 O   0  0  0  0  0  0
  -28.4137  -26.5519   20.1694 O   0  0  0  0  0  0
  -26.5637  -34.8918   22.4669 O   0  0  0  0  0  0
  -23.5414  -32.1385   23.7344 O   0  0  0  0  0  0
  -30.5710  -22.1441   21.1922 C   0  0  0  0  0  0
  -28.3345  -21.6451   20.6585 C   0  0  0  0  0  0
  -29.2873  -22.6568   20.9031 C   0  0  0  0  0  0
  -29.8481  -19.9367   21.1521 C   0  0  0  0  0  0
  -27.3379  -16.6048   17.7950 C   0  0  0  0  0  0
  -28.9456  -24.1880   21.0695 C   0  0  0  0  0  0
  -30.0670  -18.4485   21.6268 C   0  0  0  0  0  0
  -28.6955  -16.2558   18.4144 C   0  0  0  0  0  0
  -30.7041  -17.3481   20.6585 C   0  0  0  0  0  0
  -28.6916  -16.2932   19.9608 C   0  0  0  0  0  0
  -28.4816  -25.1044   19.8632 C   0  0  0  0  0  0
  -30.8397  -20.8147   21.3189 N   0  0  0  0  0  0
  -28.6177  -20.3155   20.7850 N   0  0  0  0  0  0
  -30.0098  -15.9985   20.5498 N   0  0  0  0  0  0
  -31.4717  -12.5807   19.1547 H   0  0  0  0  0  0
  -30.4042  -11.5174   20.0240 H   0  0  0  0  0  0
  -29.8107  -11.5599   17.6072 H   0  0  0  0  0  0
  -29.6414  -13.2851   17.6180 H   0  0  0  0  0  0
  -27.9102  -11.1878   18.9691 H   0  0  0  0  0  0
  -27.3834  -12.3633   17.7970 H   0  0  0  0  0  0
  -27.5481  -14.1052   19.2921 H   0  0  0  0  0  0
  -28.7416  -12.2457   21.4499 H   0  0  0  0  0  0
  -28.3941  -13.9305   21.7176 H   0  0  0  0  0  0
  -25.2718   -9.5659   22.4746 H   0  0  0  0  0  0
  -23.9978   -7.4591   22.7444 H   0  0  0  0  0  0
  -21.0787   -8.8707   19.8947 H   0  0  0  0  0  0
  -22.3614  -10.9628   19.6153 H   0  0  0  0  0  0
  -21.1972   -7.6141   23.9710 H   0  0  0  0  0  0
  -21.1472   -6.0523   25.9081 H   0  0  0  0  0  0
  -22.0604   -2.7603   23.2852 H   0  0  0  0  0  0
  -22.4046  -11.9821   22.4800 H   0  0  0  0  0  0
  -21.1045  -13.1186   22.2641 H   0  0  0  0  0  0
  -24.6593  -15.8307   20.5759 H   0  0  0  0  0  0
  -26.2623  -15.6215   20.0957 H   0  0  0  0  0  0
  -26.7163  -32.5451   23.1078 H   0  0  0  0  0  0
  -25.0023  -33.9694   25.0377 H   0  0  0  0  0  0
  -22.7111  -31.2999   21.3958 H   0  0  0  0  0  0
  -23.3759  -35.9606   23.3268 H   0  0  0  0  0  0
  -24.3583  -36.8941   22.2055 H   0  0  0  0  0  0
  -23.7226  -37.6467   23.6684 H   0  0  0  0  0  0
  -26.0765  -31.5526   20.5939 H   0  0  0  0  0  0
  -26.8387  -30.8476   21.9909 H   0  0  0  0  0  0
  -28.1119  -29.0026   21.1818 H   0  0  0  0  0  0
  -25.9836  -25.9192   19.0193 H   0  0  0  0  0  0
  -23.9791  -27.2746   19.0400 H   0  0  0  0  0  0
  -23.7423  -30.5728   19.3965 H   0  0  0  0  0  0
  -22.7514  -29.2266   19.8696 H   0  0  0  0  0  0
  -25.1289  -36.1911   25.0814 H   0  0  0  0  0  0
  -20.9952  -28.3282   24.1411 H   0  0  0  0  0  0
  -20.5664  -26.2310   23.3599 H   0  0  0  0  0  0
  -21.6646  -26.7464   22.1218 H   0  0  0  0  0  0
  -19.6918  -25.6300   21.1252 H   0  0  0  0  0  0
  -19.6699  -27.3180   20.6711 H   0  0  0  0  0  0
  -17.4193  -26.6658   21.4033 H   0  0  0  0  0  0
  -18.0355  -26.0098   22.9033 H   0  0  0  0  0  0
  -19.7934  -30.7299   24.2234 H   0  0  0  0  0  0
  -17.5019  -31.6285   24.5175 H   0  0  0  0  0  0
  -15.5350  -30.3010   23.7680 H   0  0  0  0  0  0
  -15.8658  -28.0865   22.7041 H   0  0  0  0  0  0
  -24.5929  -30.7004   25.7736 H   0  0  0  0  0  0
  -24.8877  -32.2839   26.4828 H   0  0  0  0  0  0
  -25.8058  -30.8879   27.0197 H   0  0  0  0  0  0
  -26.2887  -29.6733   24.1197 H   0  0  0  0  0  0
  -27.4049  -29.7259   25.4639 H   0  0  0  0  0  0
  -27.8747  -30.4262   23.9333 H   0  0  0  0  0  0
  -27.2714  -33.3597   26.2029 H   0  0  0  0  0  0
  -28.3898  -32.6794   25.0298 H   0  0  0  0  0  0
  -28.0711  -31.8392   26.5387 H   0  0  0  0  0  0
  -28.2581  -38.0103   24.7549 H   0  0  0  0  0  0
  -28.1098  -36.2640   24.6248 H   0  0  0  0  0  0
  -27.2304  -37.1381   25.8862 H   0  0  0  0  0  0
  -20.9339  -29.8747   21.6866 H   0  0  0  0  0  0
  -26.0161  -38.2841   24.1450 H   0  0  0  0  0  0
  -31.3894  -22.8101   21.4215 H   0  0  0  0  0  0
  -27.3065  -21.8947   20.4419 H   0  0  0  0  0  0
  -26.5951  -15.8301   17.9777 H   0  0  0  0  0  0
  -27.4285  -16.7174   16.7141 H   0  0  0  0  0  0
  -26.9489  -17.5449   18.1892 H   0  0  0  0  0  0
  -29.8280  -24.6573   21.5066 H   0  0  0  0  0  0
  -28.1842  -24.2569   21.8482 H   0  0  0  0  0  0
  -29.1227  -18.0933   22.0384 H   0  0  0  0  0  0
  -30.7044  -18.4993   22.5101 H   0  0  0  0  0  0
  -29.4245  -16.9747   18.0386 H   0  0  0  0  0  0
  -29.0273  -15.2938   18.0344 H   0  0  0  0  0  0
  -31.7451  -17.2093   20.9529 H   0  0  0  0  0  0
  -30.7679  -17.7847   19.6619 H   0  0  0  0  0  0
  -27.9416  -15.6957   20.4517 H   0  0  0  0  0  0
  -28.3409  -17.2914   20.2114 H   0  0  0  0  0  0
  -27.5677  -24.6975   19.4428 H   0  0  0  0  0  0
  -29.2251  -25.0092   19.0707 H   0  0  0  0  0  0
  1 25  1  0  0  0
  1 30  2  0  0  0
  1 84  1  0  0  0
  2  3  1  0  0  0
  2 25  1  0  0  0
  2 85  1  0  0  0
  2 86  1  0  0  0
  3  4  1  0  0  0
  3 87  1  0  0  0
  3 88  1  0  0  0
  4  5  1  0  0  0
  4 89  1  0  0  0
  4 90  1  0  0  0
  5  6  1  0  0  0
  5 26  1  0  0  0
  5 91  1  0  0  0
  6 25  1  0  0  0
  6 92  1  0  0  0
  6 93  1  0  0  0
  7  8  2  0  0  0
  7 26  1  0  0  0
  7 29  1  0  0  0
  8  9  1  0  0  0
  8 22  1  0  0  0
  9 10  1  0  0  0
  9 27  2  0  0  0
 10 11  2  0  0  0
 10 15  1  0  0  0
 11 12  1  0  0  0
 11 94  1  0  0  0
 12 13  2  0  0  0
 12 95  1  0  0  0
 13 14  1  0  0  0
 13 31  1  0  0  0
 14 15  2  0  0  0
 14 96  1  0  0  0
 15 97  1  0  0  0
 16 17  2  0  0  0
 16 21  1  0  0  0
 16 31  1  0  0  0
 17 18  1  0  0  0
 17 98  1  0  0  0
 18 19  2  0  0  0
 18 99  1  0  0  0
 19 20  1  0  0  0
 19 24  1  0  0  0
 20 21  2  0  0  0
 20100  1  0  0  0
 21 23  1  0  0  0
 22 28  1  0  0  0
 22 32  2  0  0  0
 26 27  1  0  0  0
 28101  1  0  0  0
 28102  1  0  0  0
 29103  1  0  0  0
 29104  1  0  0  0
 33 34  1  0  0  0
 33 66  1  0  0  0
 33 70  2  0  0  0
 34 36  1  0  0  0
 34 59  1  0  0  0
 34105  1  0  0  0
 35 44  2  0  0  0
 35 45  1  0  0  0
 35 68  1  0  0  0
 36 56  1  0  0  0
 36106  1  0  0  0
 37 39  1  0  0  0
 37 47  1  0  0  0
 37 66  1  0  0  0
 37107  1  0  0  0
 38 43  2  0  0  0
 38 46  1  0  0  0
 38 47  1  0  0  0
 39 64  1  0  0  0
 39 67  2  0  0  0
 40 52  1  0  0  0
 40 53  2  0  0  0
 40 58  1  0  0  0
 41108  1  0  0  0
 41109  1  0  0  0
 41110  1  0  0  0
 41 48  1  0  0  0
 42 43  1  0  0  0
 42 66  1  0  0  0
 42111  1  0  0  0
 42112  1  0  0  0
 43 44  1  0  0  0
 44113  1  0  0  0
 45 46  2  0  0  0
 45114  1  0  0  0
 46115  1  0  0  0
 47116  1  0  0  0
 47117  1  0  0  0
 48 56  1  0  0  0
 48 65  1  0  0  0
 48118  1  0  0  0
 49 50  1  0  0  0
 49 53  1  0  0  0
 49 64  1  0  0  0
 49119  1  0  0  0
 50 51  1  0  0  0
 50120  1  0  0  0
 50121  1  0  0  0
 51 52  1  0  0  0
 51122  1  0  0  0
 51123  1  0  0  0
 52124  1  0  0  0
 52125  1  0  0  0
 53 54  1  0  0  0
 54 55  2  0  0  0
 54126  1  0  0  0
 55 57  1  0  0  0
 55127  1  0  0  0
 56 69  2  0  0  0
 57 58  2  0  0  0
 57128  1  0  0  0
 58129  1  0  0  0
 59 60  1  0  0  0
 59 61  1  0  0  0
 59 62  1  0  0  0
 60130  1  0  0  0
 60131  1  0  0  0
 60132  1  0  0  0
 61133  1  0  0  0
 61134  1  0  0  0
 61135  1  0  0  0
 62136  1  0  0  0
 62137  1  0  0  0
 62138  1  0  0  0
 63 65  1  0  0  0
 63139  1  0  0  0
 63140  1  0  0  0
 63141  1  0  0  0
 64142  1  0  0  0
 65143  1  0  0  0
 68 81  1  0  0  0
 71 73  2  0  0  0
 71 82  1  0  0  0
 71144  1  0  0  0
 72 73  1  0  0  0
 72 83  2  0  0  0
 72145  1  0  0  0
 73 76  1  0  0  0
 74 77  1  0  0  0
 74 82  2  0  0  0
 74 83  1  0  0  0
 75 78  1  0  0  0
 75146  1  0  0  0
 75147  1  0  0  0
 75148  1  0  0  0
 76 81  1  0  0  0
 76149  1  0  0  0
 76150  1  0  0  0
 77 79  1  0  0  0
 77151  1  0  0  0
 77152  1  0  0  0
 78 80  1  0  0  0
 78153  1  0  0  0
 78154  1  0  0  0
 79 84  1  0  0  0
 79155  1  0  0  0
 79156  1  0  0  0
 80 84  1  0  0  0
 80157  1  0  0  0
 80158  1  0  0  0
 81159  1  0  0  0
 81160  1  0  0  0
M  ISO  4   1 100  68 101  81 101  84 100
M  END
> <chiral flag>
0

> <version>
0

> <s_m_source_file>
/data/baiqing/PycharmProjects/Reinvent-master-3.2/result/LINK_invent/BTK/process_docking_weight1_custom_sum_contain_oxygen_bond_distance_aromatic_linkinvent_7_9_3/rearranged_h_0051.sdf

> <i_m_source_file_index>
44

> <r_mmod_Potential_Energy-OPLS-2005>
-91.9055557250977

> <r_mmod_Stretch_Energy-OPLS-2005>
89.8675842285156

> <r_mmod_Bend_Energy-OPLS-2005>
184.492126464844

> <r_mmod_Torsional_Energy-OPLS-2005>
283.611694335938

> <r_mmod_Improper_Torsional_Energy-OPLS-2005>
8.02618503570557

> <r_mmod_Van_der_Waal_Energy-OPLS-2005>
162.294204711914

> <r_mmod_Electrostatic_Energy-OPLS-2005>
-686.405639648438

> <r_mmod_Solvation_Energy-OPLS-2005>
-215.270278930664

> <b_mmod_Minimization_Converged-OPLS-2005>
0

> <r_mmod_RMS_Derivative-OPLS-2005>
2.01116418838501

$$$$
45
                    3D
 Structure written by MMmdl.
166174  0  0  1  0            999 V2000
  -30.7052  -14.4308   20.6023 C   0  0  0  0  0  0
  -30.4218  -12.2880   19.4102 C   0  0  0  0  0  0
  -29.4921  -12.5066   18.1995 C   0  0  0  0  0  0
  -28.0125  -12.3684   18.6121 C   0  0  0  0  0  0
  -27.6638  -13.2013   19.8745 C   0  0  2  0  0  0
  -28.7058  -12.9665   20.9918 C   0  0  0  0  0  0
  -25.2611  -13.8152   20.5683 C   0  0  0  0  0  0
  -24.1852  -13.0436   20.9168 C   0  0  0  0  0  0
  -24.6391  -11.6900   20.8721 C   0  0  0  0  0  0
  -23.9050  -10.4292   21.0396 C   0  0  0  0  0  0
  -24.3605   -9.4212   21.9180 C   0  0  0  0  0  0
  -23.6284   -8.2247   22.0754 C   0  0  0  0  0  0
  -22.4269   -8.0278   21.3543 C   0  0  0  0  0  0
  -21.9900   -9.0251   20.4645 C   0  0  0  0  0  0
  -22.7222  -10.2131   20.3051 C   0  0  0  0  0  0
  -21.6852   -6.0733   22.5279 C   0  0  0  0  0  0
  -21.4013   -6.5638   23.8213 C   0  0  0  0  0  0
  -21.3659   -5.6792   24.9175 C   0  0  0  0  0  0
  -21.6045   -4.3054   24.7228 C   0  0  0  0  0  0
  -21.8820   -3.8145   23.4348 C   0  0  0  0  0  0
  -21.9193   -4.6960   22.3403 C   0  0  0  0  0  0
  -22.7875  -13.5241   21.1833 C   0  0  0  0  0  0
  -22.1662   -4.2144   21.0981 F   0  0  0  0  0  0
  -21.5629   -3.4539   25.7741 F   0  0  0  0  0  0
  -30.0378  -13.2588   20.4438 N   0  0  0  0  0  0
  -26.3040  -12.9309   20.3363 N   0  0  0  0  0  0
  -25.9316  -11.6473   20.5753 N   0  0  0  0  0  0
  -22.0509  -12.8237   22.0388 N   0  0  0  0  0  0
  -25.4345  -15.1869   20.4102 N   0  0  0  0  0  0
  -31.8164  -14.6246   20.0977 O   0  0  0  0  0  0
  -21.6635   -6.8874   21.4239 O   0  0  0  0  0  0
  -22.3563  -14.5548   20.6680 O   0  0  0  0  0  0
  -24.6128  -31.8685   23.2096 C   0  0  0  0  0  0
  -25.9033  -32.4822   23.8384 C   0  0  1  0  0  0
  -27.2390  -27.4443   20.0958 C   0  0  0  0  0  0
  -25.5891  -33.8622   24.2322 N   0  0  0  0  0  0
  -23.3985  -30.4905   21.5502 C   0  0  2  0  0  0
  -24.8434  -28.9505   20.1214 C   0  0  0  0  0  0
  -22.7390  -29.4657   22.4999 C   0  0  0  0  0  0
  -18.0270  -28.1361   22.8487 C   0  0  0  0  0  0
  -24.1486  -36.7317   23.2637 C   0  0  0  0  0  0
  -25.9246  -30.8363   21.3605 C   0  0  0  0  0  0
  -26.0011  -29.4686   20.7129 C   0  0  0  0  0  0
  -27.1993  -28.7229   20.6948 C   0  0  0  0  0  0
  -26.0615  -26.9332   19.5031 C   0  0  0  0  0  0
  -24.8672  -27.6809   19.5166 C   0  0  0  0  0  0
  -23.6062  -29.8185   20.1662 C   0  0  0  0  0  0
  -25.4104  -36.3115   24.0336 C   0  0  1  0  0  0
  -20.5855  -28.3647   23.1320 C   0  0  2  0  0  0
  -20.6761  -26.9391   22.5409 C   0  0  0  0  0  0
  -19.5744  -26.6379   21.5198 C   0  0  0  0  0  0
  -18.1920  -26.7909   22.1611 C   0  0  0  0  0  0
  -19.1519  -28.8820   23.2903 C   0  0  0  0  0  0
  -18.9449  -30.1425   23.8919 C   0  0  0  0  0  0
  -17.6457  -30.6580   24.0552 C   0  0  0  0  0  0
  -25.9025  -34.9481   23.5127 C   0  0  0  0  0  0
  -16.5347  -29.9079   23.6312 C   0  0  0  0  0  0
  -16.7261  -28.6489   23.0347 C   0  0  0  0  0  0
  -26.4467  -31.6605   25.0715 C   0  0  0  0  0  0
  -25.3736  -31.3703   26.1465 C   0  0  0  0  0  0
  -27.0300  -30.3054   24.6074 C   0  0  0  0  0  0
  -27.6036  -32.4327   25.7491 C   0  0  0  0  0  0
  -27.5582  -37.1820   24.8465 C   0  0  0  0  0  0
  -21.4123  -29.3026   22.3744 N   0  0  0  0  0  0
  -26.4298  -37.3792   23.9402 N   0  0  0  0  0  0
  -24.6634  -31.0793   22.0990 N   0  0  0  0  0  0
  -23.4177  -28.8204   23.3031 O   0  0  0  0  0  0
  -28.4524  -26.7929   20.0600 O   0  0  0  0  0  0
  -26.5590  -34.8937   22.4691 O   0  0  0  0  0  0
  -23.5331  -32.1441   23.7502 O   0  0  0  0  0  0
  -31.0695  -21.1889   21.7293 C   0  0  0  0  0  0
  -29.0250  -22.3942   22.1424 C   0  0  0  0  0  0
  -31.5584  -22.3354   21.0854 C   0  0  0  0  0  0
  -29.7635  -21.1900   22.2712 C   0  0  0  0  0  0
  -29.6057  -23.5107   21.5049 C   0  0  0  0  0  0
  -29.8499  -18.6093   22.6850 C   0  0  0  0  0  0
  -29.5511  -20.3009   24.5581 C   0  0  0  0  0  0
  -27.6628  -19.8865   23.0073 C   0  0  0  0  0  0
  -28.9387  -18.6415   20.3467 C   0  0  0  0  0  0
  -28.9150  -24.8711   21.4753 C   0  0  0  0  0  0
  -30.0166  -15.6051   21.3302 C   0  0  0  0  0  0
  -30.6522  -16.9821   21.0098 C   0  0  0  0  0  0
  -28.5328  -25.3618   20.0640 C   0  0  0  0  0  0
  -29.2076  -19.9912   23.0792 C   0  0  0  0  0  0
  -30.8500  -23.4765   20.9830 N   0  0  0  0  0  0
  -29.8060  -18.1240   21.4127 N   0  0  0  0  0  0
  -30.4536  -17.9720   23.5580 O   0  0  0  0  0  0
  -31.4668  -12.3835   19.1102 H   0  0  0  0  0  0
  -30.3164  -11.2732   19.7971 H   0  0  0  0  0  0
  -29.7284  -11.7924   17.4096 H   0  0  0  0  0  0
  -29.6648  -13.4981   17.7774 H   0  0  0  0  0  0
  -27.8179  -11.3117   18.8000 H   0  0  0  0  0  0
  -27.3634  -12.6530   17.7832 H   0  0  0  0  0  0
  -27.7119  -14.2498   19.5816 H   0  0  0  0  0  0
  -28.6735  -11.9286   21.3266 H   0  0  0  0  0  0
  -28.4753  -13.5619   21.8755 H   0  0  0  0  0  0
  -25.2751   -9.5693   22.4752 H   0  0  0  0  0  0
  -23.9994   -7.4642   22.7478 H   0  0  0  0  0  0
  -21.0832   -8.8764   19.8954 H   0  0  0  0  0  0
  -22.3678  -10.9667   19.6158 H   0  0  0  0  0  0
  -21.2005   -7.6146   23.9713 H   0  0  0  0  0  0
  -21.1482   -6.0524   25.9079 H   0  0  0  0  0  0
  -22.0598   -2.7607   23.2852 H   0  0  0  0  0  0
  -22.4115  -11.9893   22.4772 H   0  0  0  0  0  0
  -21.1130  -13.1275   22.2588 H   0  0  0  0  0  0
  -24.6699  -15.8441   20.5194 H   0  0  0  0  0  0
  -26.2922  -15.6252   20.0989 H   0  0  0  0  0  0
  -26.7110  -32.5533   23.1157 H   0  0  0  0  0  0
  -25.0069  -33.9774   25.0487 H   0  0  0  0  0  0
  -22.6874  -31.3069   21.4094 H   0  0  0  0  0  0
  -23.3747  -35.9654   23.3309 H   0  0  0  0  0  0
  -24.3586  -36.8918   22.2051 H   0  0  0  0  0  0
  -23.7246  -37.6528   23.6646 H   0  0  0  0  0  0
  -26.0334  -31.6007   20.5894 H   0  0  0  0  0  0
  -26.8142  -30.8921   21.9763 H   0  0  0  0  0  0
  -28.0995  -29.1265   21.1374 H   0  0  0  0  0  0
  -26.0491  -25.9803   18.9965 H   0  0  0  0  0  0
  -23.9789  -27.2781   19.0493 H   0  0  0  0  0  0
  -23.7146  -30.5908   19.4035 H   0  0  0  0  0  0
  -22.7300  -29.2379   19.8725 H   0  0  0  0  0  0
  -25.1285  -36.1980   25.0829 H   0  0  0  0  0  0
  -20.9946  -28.3215   24.1439 H   0  0  0  0  0  0
  -20.5650  -26.2262   23.3595 H   0  0  0  0  0  0
  -21.6633  -26.7431   22.1213 H   0  0  0  0  0  0
  -19.6910  -25.6292   21.1228 H   0  0  0  0  0  0
  -19.6684  -27.3188   20.6728 H   0  0  0  0  0  0
  -17.4185  -26.6650   21.4019 H   0  0  0  0  0  0
  -18.0323  -26.0046   22.9003 H   0  0  0  0  0  0
  -19.7934  -30.7211   24.2327 H   0  0  0  0  0  0
  -17.5021  -31.6266   24.5141 H   0  0  0  0  0  0
  -15.5351  -30.2991   23.7626 H   0  0  0  0  0  0
  -15.8656  -28.0815   22.7061 H   0  0  0  0  0  0
  -24.5897  -30.7063   25.7806 H   0  0  0  0  0  0
  -24.8941  -32.2858   26.4941 H   0  0  0  0  0  0
  -25.8088  -30.8857   27.0212 H   0  0  0  0  0  0
  -26.2841  -29.6822   24.1129 H   0  0  0  0  0  0
  -27.4084  -29.7280   25.4520 H   0  0  0  0  0  0
  -27.8667  -30.4381   23.9210 H   0  0  0  0  0  0
  -27.2636  -33.3607   26.2100 H   0  0  0  0  0  0
  -28.3837  -32.6920   25.0322 H   0  0  0  0  0  0
  -28.0715  -31.8433   26.5386 H   0  0  0  0  0  0
  -28.2606  -38.0115   24.7509 H   0  0  0  0  0  0
  -28.1076  -36.2648   24.6296 H   0  0  0  0  0  0
  -27.2301  -37.1467   25.8870 H   0  0  0  0  0  0
  -20.9281  -29.8761   21.6984 H   0  0  0  0  0  0
  -26.0194  -38.2874   24.1396 H   0  0  0  0  0  0
  -31.7206  -20.3300   21.8071 H   0  0  0  0  0  0
  -28.0400  -22.4898   22.5770 H   0  0  0  0  0  0
  -32.5539  -22.3472   20.6659 H   0  0  0  0  0  0
  -30.6289  -20.3759   24.7087 H   0  0  0  0  0  0
  -29.1735  -19.5332   25.2343 H   0  0  0  0  0  0
  -29.1205  -21.2509   24.8751 H   0  0  0  0  0  0
  -27.2876  -19.9799   21.9905 H   0  0  0  0  0  0
  -27.1774  -20.6701   23.5888 H   0  0  0  0  0  0
  -27.3065  -18.9368   23.4087 H   0  0  0  0  0  0
  -27.9030  -18.3620   20.5406 H   0  0  0  0  0  0
  -29.1850  -18.2342   19.3662 H   0  0  0  0  0  0
  -28.9931  -19.7241   20.2459 H   0  0  0  0  0  0
  -29.6010  -25.5857   21.9319 H   0  0  0  0  0  0
  -28.0311  -24.8606   22.1135 H   0  0  0  0  0  0
  -28.9720  -15.6420   21.0238 H   0  0  0  0  0  0
  -30.0277  -15.4175   22.4036 H   0  0  0  0  0  0
  -30.8797  -17.0519   19.9451 H   0  0  0  0  0  0
  -31.6285  -17.0512   21.4942 H   0  0  0  0  0  0
  -27.6546  -24.8329   19.7015 H   0  0  0  0  0  0
  -29.3338  -25.1151   19.3670 H   0  0  0  0  0  0
  1 25  1  0  0  0
  1 30  2  0  0  0
  1 81  1  0  0  0
  2  3  1  0  0  0
  2 25  1  0  0  0
  2 88  1  0  0  0
  2 89  1  0  0  0
  3  4  1  0  0  0
  3 90  1  0  0  0
  3 91  1  0  0  0
  4  5  1  0  0  0
  4 92  1  0  0  0
  4 93  1  0  0  0
  5  6  1  0  0  0
  5 26  1  0  0  0
  5 94  1  0  0  0
  6 25  1  0  0  0
  6 95  1  0  0  0
  6 96  1  0  0  0
  7  8  2  0  0  0
  7 26  1  0  0  0
  7 29  1  0  0  0
  8  9  1  0  0  0
  8 22  1  0  0  0
  9 10  1  0  0  0
  9 27  2  0  0  0
 10 11  2  0  0  0
 10 15  1  0  0  0
 11 12  1  0  0  0
 11 97  1  0  0  0
 12 13  2  0  0  0
 12 98  1  0  0  0
 13 14  1  0  0  0
 13 31  1  0  0  0
 14 15  2  0  0  0
 14 99  1  0  0  0
 15100  1  0  0  0
 16 17  2  0  0  0
 16 21  1  0  0  0
 16 31  1  0  0  0
 17 18  1  0  0  0
 17101  1  0  0  0
 18 19  2  0  0  0
 18102  1  0  0  0
 19 20  1  0  0  0
 19 24  1  0  0  0
 20 21  2  0  0  0
 20103  1  0  0  0
 21 23  1  0  0  0
 22 28  1  0  0  0
 22 32  2  0  0  0
 26 27  1  0  0  0
 28104  1  0  0  0
 28105  1  0  0  0
 29106  1  0  0  0
 29107  1  0  0  0
 33 34  1  0  0  0
 33 66  1  0  0  0
 33 70  2  0  0  0
 34 36  1  0  0  0
 34 59  1  0  0  0
 34108  1  0  0  0
 35 44  2  0  0  0
 35 45  1  0  0  0
 35 68  1  0  0  0
 36 56  1  0  0  0
 36109  1  0  0  0
 37 39  1  0  0  0
 37 47  1  0  0  0
 37 66  1  0  0  0
 37110  1  0  0  0
 38 43  2  0  0  0
 38 46  1  0  0  0
 38 47  1  0  0  0
 39 64  1  0  0  0
 39 67  2  0  0  0
 40 52  1  0  0  0
 40 53  2  0  0  0
 40 58  1  0  0  0
 41111  1  0  0  0
 41112  1  0  0  0
 41113  1  0  0  0
 41 48  1  0  0  0
 42 43  1  0  0  0
 42 66  1  0  0  0
 42114  1  0  0  0
 42115  1  0  0  0
 43 44  1  0  0  0
 44116  1  0  0  0
 45 46  2  0  0  0
 45117  1  0  0  0
 46118  1  0  0  0
 47119  1  0  0  0
 47120  1  0  0  0
 48 56  1  0  0  0
 48 65  1  0  0  0
 48121  1  0  0  0
 49 50  1  0  0  0
 49 53  1  0  0  0
 49 64  1  0  0  0
 49122  1  0  0  0
 50 51  1  0  0  0
 50123  1  0  0  0
 50124  1  0  0  0
 51 52  1  0  0  0
 51125  1  0  0  0
 51126  1  0  0  0
 52127  1  0  0  0
 52128  1  0  0  0
 53 54  1  0  0  0
 54 55  2  0  0  0
 54129  1  0  0  0
 55 57  1  0  0  0
 55130  1  0  0  0
 56 69  2  0  0  0
 57 58  2  0  0  0
 57131  1  0  0  0
 58132  1  0  0  0
 59 60  1  0  0  0
 59 61  1  0  0  0
 59 62  1  0  0  0
 60133  1  0  0  0
 60134  1  0  0  0
 60135  1  0  0  0
 61136  1  0  0  0
 61137  1  0  0  0
 61138  1  0  0  0
 62139  1  0  0  0
 62140  1  0  0  0
 62141  1  0  0  0
 63 65  1  0  0  0
 63142  1  0  0  0
 63143  1  0  0  0
 63144  1  0  0  0
 64145  1  0  0  0
 65146  1  0  0  0
 68 83  1  0  0  0
 71 73  2  0  0  0
 71 74  1  0  0  0
 71147  1  0  0  0
 72 74  2  0  0  0
 72 75  1  0  0  0
 72148  1  0  0  0
 73 85  1  0  0  0
 73149  1  0  0  0
 74 84  1  0  0  0
 75 80  1  0  0  0
 75 85  2  0  0  0
 76 84  1  0  0  0
 76 86  1  0  0  0
 76 87  2  0  0  0
 77150  1  0  0  0
 77151  1  0  0  0
 77152  1  0  0  0
 77 84  1  0  0  0
 78 84  1  0  0  0
 78153  1  0  0  0
 78154  1  0  0  0
 78155  1  0  0  0
 79 86  1  0  0  0
 79156  1  0  0  0
 79157  1  0  0  0
 79158  1  0  0  0
 80 83  1  0  0  0
 80159  1  0  0  0
 80160  1  0  0  0
 81 82  1  0  0  0
 81161  1  0  0  0
 81162  1  0  0  0
 82 86  1  0  0  0
 82163  1  0  0  0
 82164  1  0  0  0
 83165  1  0  0  0
 83166  1  0  0  0
M  ISO  4   1 100  68 101  81 100  83 101
M  END
> <chiral flag>
0

> <version>
0

> <s_m_source_file>
/data/baiqing/PycharmProjects/Reinvent-master-3.2/result/LINK_invent/BTK/process_docking_weight1_custom_sum_contain_oxygen_bond_distance_aromatic_linkinvent_7_9_3/rearranged_h_0051.sdf

> <i_m_source_file_index>
45

> <r_mmod_Potential_Energy-OPLS-2005>
-82.525993347168

> <r_mmod_Stretch_Energy-OPLS-2005>
42.7925148010254

> <r_mmod_Bend_Energy-OPLS-2005>
113.614303588867

> <r_mmod_Torsional_Energy-OPLS-2005>
201.26594543457

> <r_mmod_Improper_Torsional_Energy-OPLS-2005>
3.53807020187378

> <r_mmod_Van_der_Waal_Energy-OPLS-2005>
176.793243408203

> <r_mmod_Electrostatic_Energy-OPLS-2005>
-415.047241210938

> <r_mmod_Solvation_Energy-OPLS-2005>
-215.302642822266

> <b_mmod_Minimization_Converged-OPLS-2005>
0

> <r_mmod_RMS_Derivative-OPLS-2005>
1.06090342998505

$$$$
46
                    3D
 Structure written by MMmdl.
171179  0  0  1  0            999 V2000
  -29.4360  -17.1958   20.3431 C   0  0  0  0  0  0
  -30.1357  -14.3097   19.5619 C   0  0  0  0  0  0
  -29.5627  -13.2323   18.5125 C   0  0  0  0  0  0
  -28.3095  -12.5103   18.9965 C   0  0  0  0  0  0
  -27.5402  -13.5258   19.8477 C   0  0  2  0  0  0
  -28.3657  -14.4163   20.8736 C   0  0  0  0  0  0
  -25.1813  -13.8639   20.5959 C   0  0  0  0  0  0
  -24.1495  -13.0468   20.9391 C   0  0  0  0  0  0
  -24.6548  -11.7094   20.8723 C   0  0  0  0  0  0
  -23.9288  -10.4328   21.0302 C   0  0  0  0  0  0
  -24.3776   -9.4252   21.9131 C   0  0  0  0  0  0
  -23.6397   -8.2309   22.0745 C   0  0  0  0  0  0
  -22.4374   -8.0347   21.3555 C   0  0  0  0  0  0
  -22.0048   -9.0305   20.4641 C   0  0  0  0  0  0
  -22.7416  -10.2154   20.2998 C   0  0  0  0  0  0
  -21.6888   -6.0779   22.5272 C   0  0  0  0  0  0
  -21.4031   -6.5662   23.8213 C   0  0  0  0  0  0
  -21.3662   -5.6799   24.9170 C   0  0  0  0  0  0
  -21.6041   -4.3064   24.7217 C   0  0  0  0  0  0
  -21.8813   -3.8169   23.4342 C   0  0  0  0  0  0
  -21.9209   -4.6994   22.3400 C   0  0  0  0  0  0
  -22.7458  -13.5020   21.1970 C   0  0  0  0  0  0
  -22.1669   -4.2182   21.0973 F   0  0  0  0  0  0
  -21.5625   -3.4548   25.7719 F   0  0  0  0  0  0
  -29.1989  -15.5383   20.1822 N   0  0  0  0  0  0
  -26.2635  -13.0481   20.3645 N   0  0  0  0  0  0
  -25.9595  -11.7294   20.5622 N   0  0  0  0  0  0
  -22.0188  -12.7959   22.0536 N   0  0  0  0  0  0
  -25.2943  -15.2440   20.4399 N   0  0  0  0  0  0
  -30.7039  -16.9330   20.2623 O   0  0  0  0  0  0
  -21.6711   -6.8964   21.4254 O   0  0  0  0  0  0
  -22.3036  -14.5277   20.6788 O   0  0  0  0  0  0
  -24.6826  -31.6834   23.1111 C   0  0  0  0  0  0
  -25.9248  -32.3787   23.7823 C   0  0  1  0  0  0
  -28.3071  -26.0578   19.7170 C   0  0  0  0  0  0
  -25.5706  -33.7802   24.1466 N   0  0  0  0  0  0
  -23.5075  -30.1293   21.5387 C   0  0  2  0  0  0
  -24.6201  -27.7443   20.5572 C   0  0  0  0  0  0
  -22.7114  -29.3705   22.5768 C   0  0  0  0  0  0
  -18.0171  -28.1392   22.8521 C   0  0  0  0  0  0
  -24.1469  -36.6813   23.2704 C   0  0  0  0  0  0
  -26.0490  -29.9978   21.6663 C   0  0  0  0  0  0
  -26.1759  -28.3656   21.4822 C   0  0  0  0  0  0
  -28.0006  -27.5413   21.2470 C   0  0  0  0  0  0
  -26.5227  -25.2985   18.6755 C   0  0  0  0  0  0
  -24.6356  -26.1998   19.2411 C   0  0  0  0  0  0
  -23.6800  -29.0560   20.3620 C   0  0  0  0  0  0
  -25.4191  -36.2589   24.0261 C   0  0  1  0  0  0
  -20.5603  -28.3579   23.1418 C   0  0  2  0  0  0
  -20.6529  -26.9294   22.5540 C   0  0  0  0  0  0
  -19.5645  -26.6327   21.5209 C   0  0  0  0  0  0
  -18.1792  -26.7969   22.1585 C   0  0  0  0  0  0
  -19.1388  -28.8853   23.2925 C   0  0  0  0  0  0
  -18.9411  -30.1461   23.8919 C   0  0  0  0  0  0
  -17.6439  -30.6629   24.0576 C   0  0  0  0  0  0
  -25.9221  -34.8959   23.4847 C   0  0  0  0  0  0
  -16.5316  -29.9129   23.6318 C   0  0  0  0  0  0
  -16.7186  -28.6535   23.0336 C   0  0  0  0  0  0
  -26.4606  -31.6428   25.0815 C   0  0  0  0  0  0
  -25.3514  -31.3976   26.1295 C   0  0  0  0  0  0
  -27.0842  -30.2676   24.7581 C   0  0  0  0  0  0
  -27.5915  -32.4715   25.7416 C   0  0  0  0  0  0
  -27.5516  -37.1526   24.8477 C   0  0  0  0  0  0
  -21.3941  -29.2820   22.3942 N   0  0  0  0  0  0
  -26.4228  -37.3422   23.9418 N   0  0  0  0  0  0
  -24.7752  -30.6757   22.1421 N   0  0  0  0  0  0
  -23.3115  -28.7817   23.4720 O   0  0  0  0  0  0
  -29.2876  -26.3894   18.9144 O   0  0  0  0  0  0
  -26.6045  -34.8697   22.4590 O   0  0  0  0  0  0
  -23.5863  -32.0790   23.5410 O   0  0  0  0  0  0
  -26.8467  -27.7907   19.2953 C   0  0  0  0  0  0
  -26.3448  -26.1537   20.6583 C   0  0  0  0  0  0
  -26.2506  -28.7773   18.4563 C   0  0  0  0  0  0
  -26.6698  -30.0588   17.7867 C   0  0  0  0  0  0
  -25.7163  -23.1907   21.3376 C   0  0  0  0  0  0
  -28.0239  -23.9181   22.0299 C   0  0  0  0  0  0
  -28.1796  -24.6866   15.5364 C   0  0  0  0  0  0
  -29.8001  -26.4739   15.2216 C   0  0  0  0  0  0
  -27.5839  -27.1267   15.9432 C   0  0  0  0  0  0
  -26.1503  -27.1205   16.5315 C   0  0  0  0  0  0
  -28.0510  -21.2677   20.2797 C   0  0  0  0  0  0
  -29.2888  -25.6443   17.6540 C   0  0  0  0  0  0
  -27.0753  -23.6942   20.8461 C   0  0  0  0  0  0
  -28.6633  -26.0081   16.1988 C   0  0  0  0  0  0
  -26.4931  -27.4837   19.2333 N   0  0  0  0  0  0
  -26.0939  -27.7052   17.8497 N   0  0  0  0  0  0
  -28.6066  -18.9697   20.4284 N   0  0  0  0  0  0
  -30.9261  -14.8000   18.9965 H   0  0  0  0  0  0
  -30.6978  -13.8095   20.3476 H   0  0  0  0  0  0
  -30.3279  -12.5068   18.2375 H   0  0  0  0  0  0
  -29.3134  -13.7752   17.6009 H   0  0  0  0  0  0
  -28.5949  -11.6612   19.6139 H   0  0  0  0  0  0
  -27.7090  -12.1397   18.1628 H   0  0  0  0  0  0
  -27.2380  -14.2542   19.0919 H   0  0  0  0  0  0
  -28.9216  -13.8195   21.6003 H   0  0  0  0  0  0
  -27.6717  -14.9757   21.5017 H   0  0  0  0  0  0
  -25.2906   -9.5735   22.4757 H   0  0  0  0  0  0
  -24.0077   -7.4717   22.7507 H   0  0  0  0  0  0
  -21.0969   -8.8879   19.8952 H   0  0  0  0  0  0
  -22.3882  -10.9721   19.6133 H   0  0  0  0  0  0
  -21.2021   -7.6177   23.9732 H   0  0  0  0  0  0
  -21.1479   -6.0530   25.9076 H   0  0  0  0  0  0
  -22.0589   -2.7640   23.2826 H   0  0  0  0  0  0
  -22.3889  -11.9684   22.4962 H   0  0  0  0  0  0
  -21.0771  -13.0897   22.2721 H   0  0  0  0  0  0
  -24.5038  -15.8704   20.5470 H   0  0  0  0  0  0
  -26.1339  -15.7137   20.1252 H   0  0  0  0  0  0
  -26.7246  -32.4137   23.0500 H   0  0  0  0  0  0
  -24.9396  -33.8889   24.9294 H   0  0  0  0  0  0
  -22.8999  -30.9783   21.2130 H   0  0  0  0  0  0
  -23.3822  -35.9014   23.3280 H   0  0  0  0  0  0
  -24.3475  -36.8603   22.2113 H   0  0  0  0  0  0
  -23.7110  -37.5897   23.6909 H   0  0  0  0  0  0
  -26.2550  -30.4043   20.6753 H   0  0  0  0  0  0
  -26.8772  -30.2971   22.2824 H   0  0  0  0  0  0
  -28.7902  -28.2192   21.5199 H   0  0  0  0  0  0
  -26.5598  -24.5931   17.8592 H   0  0  0  0  0  0
  -23.7550  -25.9969   18.6582 H   0  0  0  0  0  0
  -24.0360  -29.6380   19.5157 H   0  0  0  0  0  0
  -22.6725  -28.7630   20.0439 H   0  0  0  0  0  0
  -25.1433  -36.1258   25.0731 H   0  0  0  0  0  0
  -20.9527  -28.3098   24.1602 H   0  0  0  0  0  0
  -20.5193  -26.2236   23.3753 H   0  0  0  0  0  0
  -21.6401  -26.7094   22.1496 H   0  0  0  0  0  0
  -19.6717  -25.6223   21.1204 H   0  0  0  0  0  0
  -19.6656  -27.3120   20.6731 H   0  0  0  0  0  0
  -17.4069  -26.6800   21.3940 H   0  0  0  0  0  0
  -18.0139  -26.0118   22.8996 H   0  0  0  0  0  0
  -19.7910  -30.7262   24.2178 H   0  0  0  0  0  0
  -17.5021  -31.6349   24.5165 H   0  0  0  0  0  0
  -15.5306  -30.3058   23.7648 H   0  0  0  0  0  0
  -15.8593  -28.0853   22.7013 H   0  0  0  0  0  0
  -24.5807  -30.7186   25.7604 H   0  0  0  0  0  0
  -24.8596  -32.3267   26.4161 H   0  0  0  0  0  0
  -25.7554  -30.9535   27.0390 H   0  0  0  0  0  0
  -26.3679  -29.5616   24.3327 H   0  0  0  0  0  0
  -27.4497  -29.7918   25.6694 H   0  0  0  0  0  0
  -27.9612  -30.3473   24.1136 H   0  0  0  0  0  0
  -27.2312  -33.4198   26.1338 H   0  0  0  0  0  0
  -28.3873  -32.6978   25.0325 H   0  0  0  0  0  0
  -28.0427  -31.9435   26.5796 H   0  0  0  0  0  0
  -28.2502  -37.9856   24.7560 H   0  0  0  0  0  0
  -28.1059  -36.2370   24.6307 H   0  0  0  0  0  0
  -27.2205  -37.1109   25.8872 H   0  0  0  0  0  0
  -20.9681  -29.7750   21.6224 H   0  0  0  0  0  0
  -26.0005  -38.2441   24.1421 H   0  0  0  0  0  0
  -27.9571  -28.5388   19.3267 H   0  0  0  0  0  0
  -27.4565  -30.5260   18.3740 H   0  0  0  0  0  0
  -25.8678  -30.7661   17.5976 H   0  0  0  0  0  0
  -27.0589  -29.9170   16.7889 H   0  0  0  0  0  0
  -25.3245  -23.7663   22.1754 H   0  0  0  0  0  0
  -25.8192  -22.1702   21.6859 H   0  0  0  0  0  0
  -24.9694  -23.2060   20.5451 H   0  0  0  0  0  0
  -27.5902  -24.5463   22.8110 H   0  0  0  0  0  0
  -28.9406  -24.3943   21.6932 H   0  0  0  0  0  0
  -28.2620  -22.9513   22.4551 H   0  0  0  0  0  0
  -28.1012  -24.7632   14.4435 H   0  0  0  0  0  0
  -27.1803  -24.4311   15.8751 H   0  0  0  0  0  0
  -28.8202  -23.8240   15.7543 H   0  0  0  0  0  0
  -30.2527  -27.4159   15.5351 H   0  0  0  0  0  0
  -29.4020  -26.6629   14.2110 H   0  0  0  0  0  0
  -30.6013  -25.7389   15.0794 H   0  0  0  0  0  0
  -28.0848  -28.0885   16.0613 H   0  0  0  0  0  0
  -27.3712  -27.1090   14.8685 H   0  0  0  0  0  0
  -25.6986  -26.1474   16.5662 H   0  0  0  0  0  0
  -25.4316  -27.6644   15.9102 H   0  0  0  0  0  0
  -29.0585  -21.5938   20.0429 H   0  0  0  0  0  0
  -27.5669  -21.1555   19.3145 H   0  0  0  0  0  0
  -30.3598  -25.6352   17.4865 H   0  0  0  0  0  0
  -29.0933  -24.5885   17.8710 H   0  0  0  0  0  0
  -29.5432  -19.2539   20.6903 H   0  0  0  0  0  0
  1 25  1  0  0  0
  1 30  2  0  0  0
  1 87  1  0  0  0
  2  3  1  0  0  0
  2 25  1  0  0  0
  2 88  1  0  0  0
  2 89  1  0  0  0
  3  4  1  0  0  0
  3 90  1  0  0  0
  3 91  1  0  0  0
  4  5  1  0  0  0
  4 92  1  0  0  0
  4 93  1  0  0  0
  5  6  1  0  0  0
  5 26  1  0  0  0
  5 94  1  0  0  0
  6 25  1  0  0  0
  6 95  1  0  0  0
  6 96  1  0  0  0
  7  8  2  0  0  0
  7 26  1  0  0  0
  7 29  1  0  0  0
  8  9  1  0  0  0
  8 22  1  0  0  0
  9 10  1  0  0  0
  9 27  2  0  0  0
 10 11  2  0  0  0
 10 15  1  0  0  0
 11 12  1  0  0  0
 11 97  1  0  0  0
 12 13  2  0  0  0
 12 98  1  0  0  0
 13 14  1  0  0  0
 13 31  1  0  0  0
 14 15  2  0  0  0
 14 99  1  0  0  0
 15100  1  0  0  0
 16 17  2  0  0  0
 16 21  1  0  0  0
 16 31  1  0  0  0
 17 18  1  0  0  0
 17101  1  0  0  0
 18 19  2  0  0  0
 18102  1  0  0  0
 19 20  1  0  0  0
 19 24  1  0  0  0
 20 21  2  0  0  0
 20103  1  0  0  0
 21 23  1  0  0  0
 22 28  1  0  0  0
 22 32  2  0  0  0
 26 27  1  0  0  0
 28104  1  0  0  0
 28105  1  0  0  0
 29106  1  0  0  0
 29107  1  0  0  0
 33 34  1  0  0  0
 33 66  1  0  0  0
 33 70  2  0  0  0
 34 36  1  0  0  0
 34 59  1  0  0  0
 34108  1  0  0  0
 35 44  2  0  0  0
 35 45  1  0  0  0
 35 68  1  0  0  0
 36 56  1  0  0  0
 36109  1  0  0  0
 37 39  1  0  0  0
 37 47  1  0  0  0
 37 66  1  0  0  0
 37110  1  0  0  0
 38 43  2  0  0  0
 38 46  1  0  0  0
 38 47  1  0  0  0
 39 64  1  0  0  0
 39 67  2  0  0  0
 40 52  1  0  0  0
 40 53  2  0  0  0
 40 58  1  0  0  0
 41111  1  0  0  0
 41112  1  0  0  0
 41113  1  0  0  0
 41 48  1  0  0  0
 42 43  1  0  0  0
 42 66  1  0  0  0
 42114  1  0  0  0
 42115  1  0  0  0
 43 44  1  0  0  0
 44116  1  0  0  0
 45 46  2  0  0  0
 45117  1  0  0  0
 46118  1  0  0  0
 47119  1  0  0  0
 47120  1  0  0  0
 48 56  1  0  0  0
 48 65  1  0  0  0
 48121  1  0  0  0
 49 50  1  0  0  0
 49 53  1  0  0  0
 49 64  1  0  0  0
 49122  1  0  0  0
 50 51  1  0  0  0
 50123  1  0  0  0
 50124  1  0  0  0
 51 52  1  0  0  0
 51125  1  0  0  0
 51126  1  0  0  0
 52127  1  0  0  0
 52128  1  0  0  0
 53 54  1  0  0  0
 54 55  2  0  0  0
 54129  1  0  0  0
 55 57  1  0  0  0
 55130  1  0  0  0
 56 69  2  0  0  0
 57 58  2  0  0  0
 57131  1  0  0  0
 58132  1  0  0  0
 59 60  1  0  0  0
 59 61  1  0  0  0
 59 62  1  0  0  0
 60133  1  0  0  0
 60134  1  0  0  0
 60135  1  0  0  0
 61136  1  0  0  0
 61137  1  0  0  0
 61138  1  0  0  0
 62139  1  0  0  0
 62140  1  0  0  0
 62141  1  0  0  0
 63 65  1  0  0  0
 63142  1  0  0  0
 63143  1  0  0  0
 63144  1  0  0  0
 64145  1  0  0  0
 65146  1  0  0  0
 68 82  1  0  0  0
 71 72  1  0  0  0
 71 73  2  0  0  0
 71147  1  0  0  0
 72 83  1  0  0  0
 72 85  2  0  0  0
 73 74  1  0  0  0
 73 86  1  0  0  0
 74148  1  0  0  0
 74149  1  0  0  0
 74150  1  0  0  0
 75151  1  0  0  0
 75152  1  0  0  0
 75153  1  0  0  0
 75 83  1  0  0  0
 76 83  1  0  0  0
 76154  1  0  0  0
 76155  1  0  0  0
 76156  1  0  0  0
 77157  1  0  0  0
 77158  1  0  0  0
 77159  1  0  0  0
 77 84  1  0  0  0
 78 84  1  0  0  0
 78160  1  0  0  0
 78161  1  0  0  0
 78162  1  0  0  0
 79 80  1  0  0  0
 79 84  1  0  0  0
 79163  1  0  0  0
 79164  1  0  0  0
 80 86  1  0  0  0
 80165  1  0  0  0
 80166  1  0  0  0
 81 83  1  0  0  0
 81 87  1  0  0  0
 81167  1  0  0  0
 81168  1  0  0  0
 82 84  1  0  0  0
 82169  1  0  0  0
 82170  1  0  0  0
 85 86  1  0  0  0
 87171  1  0  0  0
M  ISO  4   1 100  68 101  82 101  87 100
M  END
> <chiral flag>
0

> <version>
0

> <s_m_source_file>
/data/baiqing/PycharmProjects/Reinvent-master-3.2/result/LINK_invent/BTK/process_docking_weight1_custom_sum_contain_oxygen_bond_distance_aromatic_linkinvent_7_9_3/rearranged_h_0051.sdf

> <i_m_source_file_index>
46

> <r_mmod_Potential_Energy-OPLS-2005>
24711.638671875

> <r_mmod_Stretch_Energy-OPLS-2005>
12942.62109375

> <r_mmod_Bend_Energy-OPLS-2005>
3056.48583984375

> <r_mmod_Torsional_Energy-OPLS-2005>
592.90966796875

> <r_mmod_Improper_Torsional_Energy-OPLS-2005>
106.041442871094

> <r_mmod_Van_der_Waal_Energy-OPLS-2005>
3649.0849609375

> <r_mmod_Electrostatic_Energy-OPLS-2005>
-407.552520751953

> <r_mmod_Solvation_Energy-OPLS-2005>
-221.043579101562

> <b_mmod_Minimization_Converged-OPLS-2005>
0

> <r_mmod_RMS_Derivative-OPLS-2005>
29.3785877227783

$$$$
47
                    3D
 Structure written by MMmdl.
166174  0  0  1  0            999 V2000
  -30.7570  -14.5408   20.5058 C   0  0  0  0  0  0
  -30.4000  -12.3655   19.3968 C   0  0  0  0  0  0
  -29.4655  -12.4954   18.1812 C   0  0  0  0  0  0
  -27.9939  -12.3456   18.6133 C   0  0  0  0  0  0
  -27.6419  -13.2065   19.8567 C   0  0  2  0  0  0
  -28.7084  -13.0426   20.9637 C   0  0  0  0  0  0
  -25.2532  -13.8142   20.5725 C   0  0  0  0  0  0
  -24.1789  -13.0413   20.9218 C   0  0  0  0  0  0
  -24.6350  -11.6892   20.8776 C   0  0  0  0  0  0
  -23.9022  -10.4273   21.0422 C   0  0  0  0  0  0
  -24.3585   -9.4190   21.9195 C   0  0  0  0  0  0
  -23.6274   -8.2223   22.0747 C   0  0  0  0  0  0
  -22.4260   -8.0264   21.3535 C   0  0  0  0  0  0
  -21.9885   -9.0239   20.4647 C   0  0  0  0  0  0
  -22.7200  -10.2124   20.3063 C   0  0  0  0  0  0
  -21.6846   -6.0732   22.5284 C   0  0  0  0  0  0
  -21.4019   -6.5633   23.8217 C   0  0  0  0  0  0
  -21.3660   -5.6784   24.9173 C   0  0  0  0  0  0
  -21.6031   -4.3044   24.7225 C   0  0  0  0  0  0
  -21.8822   -3.8140   23.4346 C   0  0  0  0  0  0
  -21.9191   -4.6961   22.3406 C   0  0  0  0  0  0
  -22.7823  -13.5227   21.1862 C   0  0  0  0  0  0
  -22.1660   -4.2142   21.0985 F   0  0  0  0  0  0
  -21.5625   -3.4536   25.7745 F   0  0  0  0  0  0
  -29.9932  -13.4129   20.3581 N   0  0  0  0  0  0
  -26.2947  -12.9301   20.3378 N   0  0  0  0  0  0
  -25.9273  -11.6460   20.5811 N   0  0  0  0  0  0
  -22.0443  -12.8241   22.0417 N   0  0  0  0  0  0
  -25.4244  -15.1857   20.4100 N   0  0  0  0  0  0
  -31.9680  -14.4448   20.3022 O   0  0  0  0  0  0
  -21.6617   -6.8871   21.4244 O   0  0  0  0  0  0
  -22.3531  -14.5538   20.6705 O   0  0  0  0  0  0
  -24.6154  -31.8686   23.2071 C   0  0  0  0  0  0
  -25.9051  -32.4820   23.8384 C   0  0  1  0  0  0
  -27.2303  -27.4091   20.0988 C   0  0  0  0  0  0
  -25.5923  -33.8623   24.2334 N   0  0  0  0  0  0
  -23.4040  -30.4904   21.5458 C   0  0  2  0  0  0
  -24.8515  -28.9511   20.1169 C   0  0  0  0  0  0
  -22.7404  -29.4684   22.4969 C   0  0  0  0  0  0
  -18.0284  -28.1375   22.8484 C   0  0  0  0  0  0
  -24.1498  -36.7290   23.2629 C   0  0  0  0  0  0
  -25.9344  -30.8276   21.3647 C   0  0  0  0  0  0
  -26.0119  -29.4583   20.7135 C   0  0  0  0  0  0
  -27.1989  -28.6912   20.7046 C   0  0  0  0  0  0
  -26.0476  -26.9199   19.4999 C   0  0  0  0  0  0
  -24.8640  -27.6828   19.5136 C   0  0  0  0  0  0
  -23.6141  -29.8160   20.1640 C   0  0  0  0  0  0
  -25.4117  -36.3101   24.0337 C   0  0  1  0  0  0
  -20.5872  -28.3682   23.1302 C   0  0  2  0  0  0
  -20.6770  -26.9418   22.5396 C   0  0  0  0  0  0
  -19.5750  -26.6397   21.5191 C   0  0  0  0  0  0
  -18.1935  -26.7923   22.1612 C   0  0  0  0  0  0
  -19.1527  -28.8846   23.2891 C   0  0  0  0  0  0
  -18.9451  -30.1443   23.8921 C   0  0  0  0  0  0
  -17.6456  -30.6585   24.0562 C   0  0  0  0  0  0
  -25.9043  -34.9470   23.5128 C   0  0  0  0  0  0
  -16.5353  -29.9079   23.6322 C   0  0  0  0  0  0
  -16.7274  -28.6485   23.0365 C   0  0  0  0  0  0
  -26.4491  -31.6586   25.0705 C   0  0  0  0  0  0
  -25.3746  -31.3707   26.1441 C   0  0  0  0  0  0
  -27.0334  -30.3025   24.6102 C   0  0  0  0  0  0
  -27.6073  -32.4293   25.7466 C   0  0  0  0  0  0
  -27.5589  -37.1797   24.8468 C   0  0  0  0  0  0
  -21.4139  -29.3051   22.3695 N   0  0  0  0  0  0
  -26.4300  -37.3778   23.9413 N   0  0  0  0  0  0
  -24.6685  -31.0764   22.0974 N   0  0  0  0  0  0
  -23.4165  -28.8242   23.3030 O   0  0  0  0  0  0
  -28.4061  -26.6818   20.1410 O   0  0  0  0  0  0
  -26.5567  -34.8914   22.4666 O   0  0  0  0  0  0
  -23.5345  -32.1451   23.7463 O   0  0  0  0  0  0
  -27.7949  -19.3980   20.1109 C   0  0  0  0  0  0
  -28.7650  -18.9927   21.0630 C   0  0  0  0  0  0
  -29.6761  -21.1327   20.9920 C   0  0  0  0  0  0
  -28.7208  -21.5317   20.0147 C   0  0  0  0  0  0
  -30.7332  -22.0723   21.5461 C   0  0  0  0  0  0
  -31.7213  -18.2533   17.8581 C   0  0  0  0  0  0
  -28.7614  -17.5940   21.7195 C   0  0  0  0  0  0
  -28.7732  -22.8993   19.3073 C   0  0  0  0  0  0
  -30.6520  -17.3755   18.5162 C   0  0  0  0  0  0
  -28.1580  -24.1262   20.0476 C   0  0  0  0  0  0
  -28.8590  -16.3155   20.8148 C   0  0  0  0  0  0
  -31.0664  -16.9182   19.9265 C   0  0  0  0  0  0
  -28.5722  -25.4724   19.3743 C   0  0  0  0  0  0
  -27.7718  -20.6565   19.5898 N   0  0  0  0  0  0
  -29.6957  -19.8750   21.5077 N   0  0  0  0  0  0
  -30.2106  -15.8144   20.4385 N   0  0  0  0  0  0
  -31.4356  -12.4558   19.0642 H   0  0  0  0  0  0
  -30.3245  -11.3718   19.8410 H   0  0  0  0  0  0
  -29.7079  -11.7391   17.4320 H   0  0  0  0  0  0
  -29.6138  -13.4639   17.6987 H   0  0  0  0  0  0
  -27.8190  -11.2918   18.8296 H   0  0  0  0  0  0
  -27.3293  -12.5943   17.7833 H   0  0  0  0  0  0
  -27.6572  -14.2387   19.5136 H   0  0  0  0  0  0
  -28.7362  -12.0014   21.2894 H   0  0  0  0  0  0
  -28.4882  -13.5971   21.8720 H   0  0  0  0  0  0
  -25.2734   -9.5668   22.4767 H   0  0  0  0  0  0
  -23.9993   -7.4600   22.7452 H   0  0  0  0  0  0
  -21.0820   -8.8740   19.8957 H   0  0  0  0  0  0
  -22.3648  -10.9660   19.6172 H   0  0  0  0  0  0
  -21.2018   -7.6141   23.9721 H   0  0  0  0  0  0
  -21.1480   -6.0511   25.9073 H   0  0  0  0  0  0
  -22.0603   -2.7606   23.2843 H   0  0  0  0  0  0
  -22.4051  -11.9916   22.4854 H   0  0  0  0  0  0
  -21.1058  -13.1288   22.2601 H   0  0  0  0  0  0
  -24.6519  -15.8357   20.5004 H   0  0  0  0  0  0
  -26.2690  -15.6173   20.0634 H   0  0  0  0  0  0
  -26.7124  -32.5562   23.1147 H   0  0  0  0  0  0
  -25.0162  -33.9799   25.0545 H   0  0  0  0  0  0
  -22.6916  -31.3047   21.3979 H   0  0  0  0  0  0
  -23.3762  -35.9621   23.3317 H   0  0  0  0  0  0
  -24.3583  -36.8865   22.2035 H   0  0  0  0  0  0
  -23.7255  -37.6506   23.6623 H   0  0  0  0  0  0
  -26.0467  -31.5960   20.5977 H   0  0  0  0  0  0
  -26.8204  -30.8824   21.9859 H   0  0  0  0  0  0
  -28.0964  -29.0757   21.1700 H   0  0  0  0  0  0
  -26.0147  -25.9462   19.0350 H   0  0  0  0  0  0
  -23.9649  -27.2859   19.0650 H   0  0  0  0  0  0
  -23.7217  -30.5814   19.3947 H   0  0  0  0  0  0
  -22.7422  -29.2265   19.8741 H   0  0  0  0  0  0
  -25.1291  -36.1952   25.0825 H   0  0  0  0  0  0
  -20.9961  -28.3253   24.1425 H   0  0  0  0  0  0
  -20.5687  -26.2286   23.3579 H   0  0  0  0  0  0
  -21.6643  -26.7469   22.1188 H   0  0  0  0  0  0
  -19.6921  -25.6311   21.1219 H   0  0  0  0  0  0
  -19.6700  -27.3206   20.6719 H   0  0  0  0  0  0
  -17.4201  -26.6683   21.4017 H   0  0  0  0  0  0
  -18.0348  -26.0051   22.8998 H   0  0  0  0  0  0
  -19.7937  -30.7234   24.2312 H   0  0  0  0  0  0
  -17.5028  -31.6272   24.5150 H   0  0  0  0  0  0
  -15.5362  -30.3001   23.7626 H   0  0  0  0  0  0
  -15.8667  -28.0803   22.7100 H   0  0  0  0  0  0
  -24.5942  -30.7021   25.7780 H   0  0  0  0  0  0
  -24.8918  -32.2875   26.4842 H   0  0  0  0  0  0
  -25.8098  -30.8920   27.0223 H   0  0  0  0  0  0
  -26.2899  -29.6758   24.1162 H   0  0  0  0  0  0
  -27.4100  -29.7283   25.4578 H   0  0  0  0  0  0
  -27.8731  -30.4323   23.9262 H   0  0  0  0  0  0
  -27.2707  -33.3586   26.2070 H   0  0  0  0  0  0
  -28.3879  -32.6849   25.0284 H   0  0  0  0  0  0
  -28.0743  -31.8389   26.5357 H   0  0  0  0  0  0
  -28.2594  -38.0101   24.7506 H   0  0  0  0  0  0
  -28.1090  -36.2627   24.6306 H   0  0  0  0  0  0
  -27.2295  -37.1452   25.8864 H   0  0  0  0  0  0
  -20.9299  -29.8736   21.6892 H   0  0  0  0  0  0
  -26.0191  -38.2850   24.1423 H   0  0  0  0  0  0
  -27.0279  -18.7174   19.7676 H   0  0  0  0  0  0
  -30.6602  -23.0856   21.1555 H   0  0  0  0  0  0
  -31.7341  -21.7047   21.3228 H   0  0  0  0  0  0
  -30.6256  -22.1439   22.6284 H   0  0  0  0  0  0
  -31.3478  -18.6859   16.9303 H   0  0  0  0  0  0
  -32.6108  -17.6702   17.6124 H   0  0  0  0  0  0
  -32.0267  -19.0722   18.5095 H   0  0  0  0  0  0
  -27.8198  -17.5332   22.2661 H   0  0  0  0  0  0
  -29.5299  -17.5510   22.4936 H   0  0  0  0  0  0
  -28.3107  -22.8101   18.3241 H   0  0  0  0  0  0
  -29.8227  -23.1032   19.0910 H   0  0  0  0  0  0
  -30.4550  -16.5161   17.8756 H   0  0  0  0  0  0
  -29.7216  -17.9389   18.5708 H   0  0  0  0  0  0
  -28.5089  -24.1320   21.0783 H   0  0  0  0  0  0
  -27.0742  -24.0234   20.0958 H   0  0  0  0  0  0
  -28.2598  -16.4455   19.9146 H   0  0  0  0  0  0
  -28.3484  -15.5588   21.3910 H   0  0  0  0  0  0
  -31.0809  -17.7567   20.6176 H   0  0  0  0  0  0
  -32.1286  -16.6729   19.8840 H   0  0  0  0  0  0
  -28.1328  -25.5693   18.3817 H   0  0  0  0  0  0
  -29.6468  -25.4219   19.1966 H   0  0  0  0  0  0
  1 25  1  0  0  0
  1 30  2  0  0  0
  1 86  1  0  0  0
  2  3  1  0  0  0
  2 25  1  0  0  0
  2 87  1  0  0  0
  2 88  1  0  0  0
  3  4  1  0  0  0
  3 89  1  0  0  0
  3 90  1  0  0  0
  4  5  1  0  0  0
  4 91  1  0  0  0
  4 92  1  0  0  0
  5  6  1  0  0  0
  5 26  1  0  0  0
  5 93  1  0  0  0
  6 25  1  0  0  0
  6 94  1  0  0  0
  6 95  1  0  0  0
  7  8  2  0  0  0
  7 26  1  0  0  0
  7 29  1  0  0  0
  8  9  1  0  0  0
  8 22  1  0  0  0
  9 10  1  0  0  0
  9 27  2  0  0  0
 10 11  2  0  0  0
 10 15  1  0  0  0
 11 12  1  0  0  0
 11 96  1  0  0  0
 12 13  2  0  0  0
 12 97  1  0  0  0
 13 14  1  0  0  0
 13 31  1  0  0  0
 14 15  2  0  0  0
 14 98  1  0  0  0
 15 99  1  0  0  0
 16 17  2  0  0  0
 16 21  1  0  0  0
 16 31  1  0  0  0
 17 18  1  0  0  0
 17100  1  0  0  0
 18 19  2  0  0  0
 18101  1  0  0  0
 19 20  1  0  0  0
 19 24  1  0  0  0
 20 21  2  0  0  0
 20102  1  0  0  0
 21 23  1  0  0  0
 22 28  1  0  0  0
 22 32  2  0  0  0
 26 27  1  0  0  0
 28103  1  0  0  0
 28104  1  0  0  0
 29105  1  0  0  0
 29106  1  0  0  0
 33 34  1  0  0  0
 33 66  1  0  0  0
 33 70  2  0  0  0
 34 36  1  0  0  0
 34 59  1  0  0  0
 34107  1  0  0  0
 35 44  2  0  0  0
 35 45  1  0  0  0
 35 68  1  0  0  0
 36 56  1  0  0  0
 36108  1  0  0  0
 37 39  1  0  0  0
 37 47  1  0  0  0
 37 66  1  0  0  0
 37109  1  0  0  0
 38 43  2  0  0  0
 38 46  1  0  0  0
 38 47  1  0  0  0
 39 64  1  0  0  0
 39 67  2  0  0  0
 40 52  1  0  0  0
 40 53  2  0  0  0
 40 58  1  0  0  0
 41110  1  0  0  0
 41111  1  0  0  0
 41112  1  0  0  0
 41 48  1  0  0  0
 42 43  1  0  0  0
 42 66  1  0  0  0
 42113  1  0  0  0
 42114  1  0  0  0
 43 44  1  0  0  0
 44115  1  0  0  0
 45 46  2  0  0  0
 45116  1  0  0  0
 46117  1  0  0  0
 47118  1  0  0  0
 47119  1  0  0  0
 48 56  1  0  0  0
 48 65  1  0  0  0
 48120  1  0  0  0
 49 50  1  0  0  0
 49 53  1  0  0  0
 49 64  1  0  0  0
 49121  1  0  0  0
 50 51  1  0  0  0
 50122  1  0  0  0
 50123  1  0  0  0
 51 52  1  0  0  0
 51124  1  0  0  0
 51125  1  0  0  0
 52126  1  0  0  0
 52127  1  0  0  0
 53 54  1  0  0  0
 54 55  2  0  0  0
 54128  1  0  0  0
 55 57  1  0  0  0
 55129  1  0  0  0
 56 69  2  0  0  0
 57 58  2  0  0  0
 57130  1  0  0  0
 58131  1  0  0  0
 59 60  1  0  0  0
 59 61  1  0  0  0
 59 62  1  0  0  0
 60132  1  0  0  0
 60133  1  0  0  0
 60134  1  0  0  0
 61135  1  0  0  0
 61136  1  0  0  0
 61137  1  0  0  0
 62138  1  0  0  0
 62139  1  0  0  0
 62140  1  0  0  0
 63 65  1  0  0  0
 63141  1  0  0  0
 63142  1  0  0  0
 63143  1  0  0  0
 64144  1  0  0  0
 65145  1  0  0  0
 68 83  1  0  0  0
 71 72  2  0  0  0
 71 84  1  0  0  0
 71146  1  0  0  0
 72 77  1  0  0  0
 72 85  1  0  0  0
 73 74  1  0  0  0
 73 75  1  0  0  0
 73 85  2  0  0  0
 74 78  1  0  0  0
 74 84  2  0  0  0
 75147  1  0  0  0
 75148  1  0  0  0
 75149  1  0  0  0
 76 79  1  0  0  0
 76150  1  0  0  0
 76151  1  0  0  0
 76152  1  0  0  0
 77 81  1  0  0  0
 77153  1  0  0  0
 77154  1  0  0  0
 78 80  1  0  0  0
 78155  1  0  0  0
 78156  1  0  0  0
 79 82  1  0  0  0
 79157  1  0  0  0
 79158  1  0  0  0
 80 83  1  0  0  0
 80159  1  0  0  0
 80160  1  0  0  0
 81 86  1  0  0  0
 81161  1  0  0  0
 81162  1  0  0  0
 82 86  1  0  0  0
 82163  1  0  0  0
 82164  1  0  0  0
 83165  1  0  0  0
 83166  1  0  0  0
M  ISO  4   1 100  68 101  83 101  86 100
M  END
> <chiral flag>
0

> <version>
0

> <s_m_source_file>
/data/baiqing/PycharmProjects/Reinvent-master-3.2/result/LINK_invent/BTK/process_docking_weight1_custom_sum_contain_oxygen_bond_distance_aromatic_linkinvent_7_9_3/rearranged_h_0051.sdf

> <i_m_source_file_index>
47

> <r_mmod_Potential_Energy-OPLS-2005>
244.807510375977

> <r_mmod_Stretch_Energy-OPLS-2005>
55.2990875244141

> <r_mmod_Bend_Energy-OPLS-2005>
160.178833007812

> <r_mmod_Torsional_Energy-OPLS-2005>
277.021484375

> <r_mmod_Improper_Torsional_Energy-OPLS-2005>
13.3167896270752

> <r_mmod_Van_der_Waal_Energy-OPLS-2005>
164.155715942383

> <r_mmod_Electrostatic_Energy-OPLS-2005>
-255.222717285156

> <r_mmod_Solvation_Energy-OPLS-2005>
-209.103469848633

> <b_mmod_Minimization_Converged-OPLS-2005>
0

> <r_mmod_RMS_Derivative-OPLS-2005>
3.32915544509888

$$$$
48
                    3D
 Structure written by MMmdl.
176183  0  0  1  0            999 V2000
  -30.7518  -14.4953   20.5970 C   0  0  0  0  0  0
  -30.4086  -12.3267   19.4440 C   0  0  0  0  0  0
  -29.4989  -12.5146   18.2138 C   0  0  0  0  0  0
  -28.0186  -12.3568   18.6117 C   0  0  0  0  0  0
  -27.6502  -13.2072   19.8538 C   0  0  2  0  0  0
  -28.6870  -13.0194   20.9785 C   0  0  0  0  0  0
  -25.2541  -13.8186   20.5671 C   0  0  0  0  0  0
  -24.1819  -13.0466   20.9237 C   0  0  0  0  0  0
  -24.6379  -11.6917   20.8782 C   0  0  0  0  0  0
  -23.9064  -10.4298   21.0432 C   0  0  0  0  0  0
  -24.3632   -9.4208   21.9191 C   0  0  0  0  0  0
  -23.6307   -8.2245   22.0763 C   0  0  0  0  0  0
  -22.4284   -8.0282   21.3559 C   0  0  0  0  0  0
  -21.9926   -9.0254   20.4660 C   0  0  0  0  0  0
  -22.7249  -10.2136   20.3064 C   0  0  0  0  0  0
  -21.6845   -6.0743   22.5291 C   0  0  0  0  0  0
  -21.4016   -6.5647   23.8235 C   0  0  0  0  0  0
  -21.3661   -5.6796   24.9197 C   0  0  0  0  0  0
  -21.6038   -4.3056   24.7233 C   0  0  0  0  0  0
  -21.8823   -3.8154   23.4355 C   0  0  0  0  0  0
  -21.9193   -4.6976   22.3408 C   0  0  0  0  0  0
  -22.7826  -13.5238   21.1865 C   0  0  0  0  0  0
  -22.1656   -4.2163   21.0983 F   0  0  0  0  0  0
  -21.5629   -3.4532   25.7747 F   0  0  0  0  0  0
  -30.0240  -13.3399   20.4501 N   0  0  0  0  0  0
  -26.2953  -12.9339   20.3253 N   0  0  0  0  0  0
  -25.9286  -11.6509   20.5745 N   0  0  0  0  0  0
  -22.0418  -12.8258   22.0422 N   0  0  0  0  0  0
  -25.4259  -15.1906   20.4051 N   0  0  0  0  0  0
  -31.8449  -14.5824   20.0270 O   0  0  0  0  0  0
  -21.6639   -6.8882   21.4250 O   0  0  0  0  0  0
  -22.3512  -14.5523   20.6663 O   0  0  0  0  0  0
  -24.6164  -31.8666   23.2081 C   0  0  0  0  0  0
  -25.9057  -32.4816   23.8384 C   0  0  1  0  0  0
  -27.2302  -27.4173   20.0810 C   0  0  0  0  0  0
  -25.5914  -33.8616   24.2315 N   0  0  0  0  0  0
  -23.4044  -30.4919   21.5510 C   0  0  2  0  0  0
  -24.8483  -28.9556   20.1153 C   0  0  0  0  0  0
  -22.7411  -29.4656   22.4981 C   0  0  0  0  0  0
  -18.0272  -28.1373   22.8499 C   0  0  0  0  0  0
  -24.1487  -36.7308   23.2627 C   0  0  0  0  0  0
  -25.9361  -30.8256   21.3643 C   0  0  0  0  0  0
  -26.0132  -29.4608   20.7060 C   0  0  0  0  0  0
  -27.2087  -28.7013   20.6803 C   0  0  0  0  0  0
  -26.0425  -26.9321   19.4877 C   0  0  0  0  0  0
  -24.8583  -27.6913   19.5046 C   0  0  0  0  0  0
  -23.6127  -29.8255   20.1663 C   0  0  0  0  0  0
  -25.4104  -36.3105   24.0332 C   0  0  1  0  0  0
  -20.5855  -28.3663   23.1319 C   0  0  2  0  0  0
  -20.6765  -26.9403   22.5423 C   0  0  0  0  0  0
  -19.5741  -26.6388   21.5216 C   0  0  0  0  0  0
  -18.1918  -26.7928   22.1628 C   0  0  0  0  0  0
  -19.1516  -28.8837   23.2907 C   0  0  0  0  0  0
  -18.9455  -30.1445   23.8907 C   0  0  0  0  0  0
  -17.6456  -30.6582   24.0567 C   0  0  0  0  0  0
  -25.9053  -34.9477   23.5123 C   0  0  0  0  0  0
  -16.5348  -29.9088   23.6321 C   0  0  0  0  0  0
  -16.7266  -28.6494   23.0348 C   0  0  0  0  0  0
  -26.4469  -31.6595   25.0716 C   0  0  0  0  0  0
  -25.3736  -31.3700   26.1464 C   0  0  0  0  0  0
  -27.0309  -30.3039   24.6110 C   0  0  0  0  0  0
  -27.6046  -32.4311   25.7483 C   0  0  0  0  0  0
  -27.5606  -37.1771   24.8421 C   0  0  0  0  0  0
  -21.4129  -29.3029   22.3720 N   0  0  0  0  0  0
  -26.4266  -37.3819   23.9441 N   0  0  0  0  0  0
  -24.6712  -31.0756   22.0993 N   0  0  0  0  0  0
  -23.4183  -28.8195   23.3024 O   0  0  0  0  0  0
  -28.3954  -26.6695   20.0761 O   0  0  0  0  0  0
  -26.5620  -34.8925   22.4685 O   0  0  0  0  0  0
  -23.5352  -32.1422   23.7469 O   0  0  0  0  0  0
  -29.3444  -16.6840   20.5311 C   0  0  0  0  0  0
  -29.3548  -25.5543   23.0137 C   0  0  0  0  0  0
  -26.4472  -20.2622   19.7814 C   0  0  0  0  0  0
  -29.6869  -15.4650   22.7843 C   0  0  0  0  0  0
  -31.5591  -16.6582   21.6636 C   0  0  0  0  0  0
  -30.5597  -24.4582   19.4439 C   0  0  0  0  0  0
  -28.8266  -18.0133   21.1305 C   0  0  0  0  0  0
  -30.2198  -25.3547   21.7555 C   0  0  0  0  0  0
  -29.3009  -23.0643   21.1920 C   0  0  0  0  0  0
  -27.2290  -20.5961   21.0665 C   0  0  0  0  0  0
  -29.2563  -19.2984   20.3459 C   0  0  0  0  0  0
  -29.2172  -21.8361   20.2278 C   0  0  0  0  0  0
  -28.2576  -25.2306   20.1479 C   0  0  0  0  0  0
  -30.2953  -15.7888   21.3930 C   0  0  0  0  0  0
  -29.5657  -24.5119   20.6227 C   0  0  2  0  0  0
  -28.7119  -20.5879   20.9010 N   0  3  1  0  0  0
  -29.0083  -16.3834   19.3833 O   0  0  0  0  0  0
  -31.4559  -12.3853   19.1447 H   0  0  0  0  0  0
  -30.2895  -11.3241   19.8615 H   0  0  0  0  0  0
  -29.7577  -11.7916   17.4387 H   0  0  0  0  0  0
  -29.6656  -13.5043   17.7851 H   0  0  0  0  0  0
  -27.8451  -11.3019   18.8236 H   0  0  0  0  0  0
  -27.3711  -12.6124   17.7727 H   0  0  0  0  0  0
  -27.6772  -14.2450   19.5332 H   0  0  0  0  0  0
  -28.6740  -11.9874   21.3332 H   0  0  0  0  0  0
  -28.3839  -13.6046   21.8338 H   0  0  0  0  0  0
  -25.2766   -9.5694   22.4770 H   0  0  0  0  0  0
  -24.0009   -7.4647   22.7495 H   0  0  0  0  0  0
  -21.0854   -8.8780   19.8971 H   0  0  0  0  0  0
  -22.3701  -10.9680   19.6183 H   0  0  0  0  0  0
  -21.2011   -7.6157   23.9754 H   0  0  0  0  0  0
  -21.1474   -6.0517   25.9105 H   0  0  0  0  0  0
  -22.0600   -2.7615   23.2860 H   0  0  0  0  0  0
  -22.3977  -11.9948   22.4907 H   0  0  0  0  0  0
  -21.1018  -13.1292   22.2526 H   0  0  0  0  0  0
  -24.6594  -15.8451   20.5182 H   0  0  0  0  0  0
  -26.2606  -15.6202   20.0270 H   0  0  0  0  0  0
  -26.7123  -32.5528   23.1138 H   0  0  0  0  0  0
  -25.0053  -33.9767   25.0452 H   0  0  0  0  0  0
  -22.6950  -31.3099   21.4137 H   0  0  0  0  0  0
  -23.3791  -35.9587   23.3179 H   0  0  0  0  0  0
  -24.3611  -36.9050   22.2065 H   0  0  0  0  0  0
  -23.7164  -37.6444   23.6725 H   0  0  0  0  0  0
  -26.0543  -31.5955   20.6002 H   0  0  0  0  0  0
  -26.8215  -30.8740   21.9862 H   0  0  0  0  0  0
  -28.1104  -29.0887   21.1340 H   0  0  0  0  0  0
  -26.0188  -25.9701   18.9974 H   0  0  0  0  0  0
  -23.9622  -27.2975   19.0448 H   0  0  0  0  0  0
  -23.7234  -30.5998   19.4073 H   0  0  0  0  0  0
  -22.7335  -29.2511   19.8706 H   0  0  0  0  0  0
  -25.1258  -36.1950   25.0818 H   0  0  0  0  0  0
  -20.9967  -28.3243   24.1431 H   0  0  0  0  0  0
  -20.5668  -26.2267   23.3600 H   0  0  0  0  0  0
  -21.6640  -26.7440   22.1228 H   0  0  0  0  0  0
  -19.6902  -25.6301   21.1228 H   0  0  0  0  0  0
  -19.6672  -27.3193   20.6742 H   0  0  0  0  0  0
  -17.4194  -26.6682   21.4026 H   0  0  0  0  0  0
  -18.0306  -26.0057   22.9005 H   0  0  0  0  0  0
  -19.7929  -30.7262   24.2279 H   0  0  0  0  0  0
  -17.5007  -31.6260   24.5184 H   0  0  0  0  0  0
  -15.5344  -30.3000   23.7623 H   0  0  0  0  0  0
  -15.8670  -28.0823   22.7057 H   0  0  0  0  0  0
  -24.5890  -30.7075   25.7783 H   0  0  0  0  0  0
  -24.8938  -32.2856   26.4936 H   0  0  0  0  0  0
  -25.8086  -30.8839   27.0208 H   0  0  0  0  0  0
  -26.2859  -29.6800   24.1156 H   0  0  0  0  0  0
  -27.4064  -29.7274   25.4574 H   0  0  0  0  0  0
  -27.8693  -30.4351   23.9265 H   0  0  0  0  0  0
  -27.2678  -33.3609   26.2079 H   0  0  0  0  0  0
  -28.3847  -32.6886   25.0306 H   0  0  0  0  0  0
  -28.0724  -31.8425   26.5384 H   0  0  0  0  0  0
  -28.2493  -38.0206   24.7724 H   0  0  0  0  0  0
  -28.1258  -36.2766   24.5952 H   0  0  0  0  0  0
  -27.2370  -37.1052   25.8823 H   0  0  0  0  0  0
  -20.9280  -29.8783   21.6974 H   0  0  0  0  0  0
  -26.0152  -38.2859   24.1604 H   0  0  0  0  0  0
  -29.9060  -26.1079   23.7743 H   0  0  0  0  0  0
  -29.0551  -24.6074   23.4609 H   0  0  0  0  0  0
  -28.4507  -26.1225   22.7942 H   0  0  0  0  0  0
  -25.3851  -20.4578   19.9252 H   0  0  0  0  0  0
  -26.5432  -19.2118   19.5088 H   0  0  0  0  0  0
  -26.7707  -20.8613   18.9313 H   0  0  0  0  0  0
  -28.5980  -15.5265   22.7826 H   0  0  0  0  0  0
  -30.0177  -16.1579   23.5573 H   0  0  0  0  0  0
  -29.9780  -14.4728   23.1335 H   0  0  0  0  0  0
  -31.3514  -17.5174   22.3012 H   0  0  0  0  0  0
  -31.9843  -17.0541   20.7393 H   0  0  0  0  0  0
  -32.3425  -16.0815   22.1560 H   0  0  0  0  0  0
  -31.4972  -23.9781   19.7271 H   0  0  0  0  0  0
  -30.8039  -25.4597   19.0863 H   0  0  0  0  0  0
  -30.1522  -23.9122   18.5926 H   0  0  0  0  0  0
  -29.1328  -18.0853   22.1726 H   0  0  0  0  0  0
  -27.7407  -17.9282   21.1372 H   0  0  0  0  0  0
  -31.1630  -24.8951   22.0531 H   0  0  0  0  0  0
  -30.4975  -26.3380   21.3721 H   0  0  0  0  0  0
  -30.0945  -22.8263   21.9013 H   0  0  0  0  0  0
  -28.4009  -23.1127   21.8010 H   0  0  0  0  0  0
  -26.9459  -19.8985   21.8541 H   0  0  0  0  0  0
  -26.9006  -21.5665   21.4333 H   0  0  0  0  0  0
  -28.9659  -19.2106   19.2984 H   0  0  0  0  0  0
  -30.3461  -19.3528   20.3453 H   0  0  0  0  0  0
  -30.2176  -21.6463   19.8344 H   0  0  0  0  0  0
  -28.6038  -22.0752   19.3602 H   0  0  0  0  0  0
  -27.4493  -24.9925   20.8414 H   0  0  0  0  0  0
  -27.9562  -24.8394   19.1753 H   0  0  0  0  0  0
  -29.0890  -20.6387   21.8364 H   0  0  0  0  0  0
  1 25  1  0  0  0
  1 30  2  0  0  0
  1 84  1  0  0  0
  2  3  1  0  0  0
  2 25  1  0  0  0
  2 88  1  0  0  0
  2 89  1  0  0  0
  3  4  1  0  0  0
  3 90  1  0  0  0
  3 91  1  0  0  0
  4  5  1  0  0  0
  4 92  1  0  0  0
  4 93  1  0  0  0
  5  6  1  0  0  0
  5 26  1  0  0  0
  5 94  1  0  0  0
  6 25  1  0  0  0
  6 95  1  0  0  0
  6 96  1  0  0  0
  7  8  2  0  0  0
  7 26  1  0  0  0
  7 29  1  0  0  0
  8  9  1  0  0  0
  8 22  1  0  0  0
  9 10  1  0  0  0
  9 27  2  0  0  0
 10 11  2  0  0  0
 10 15  1  0  0  0
 11 12  1  0  0  0
 11 97  1  0  0  0
 12 13  2  0  0  0
 12 98  1  0  0  0
 13 14  1  0  0  0
 13 31  1  0  0  0
 14 15  2  0  0  0
 14 99  1  0  0  0
 15100  1  0  0  0
 16 17  2  0  0  0
 16 21  1  0  0  0
 16 31  1  0  0  0
 17 18  1  0  0  0
 17101  1  0  0  0
 18 19  2  0  0  0
 18102  1  0  0  0
 19 20  1  0  0  0
 19 24  1  0  0  0
 20 21  2  0  0  0
 20103  1  0  0  0
 21 23  1  0  0  0
 22 28  1  0  0  0
 22 32  2  0  0  0
 26 27  1  0  0  0
 28104  1  0  0  0
 28105  1  0  0  0
 29106  1  0  0  0
 29107  1  0  0  0
 33 34  1  0  0  0
 33 66  1  0  0  0
 33 70  2  0  0  0
 34 36  1  0  0  0
 34 59  1  0  0  0
 34108  1  0  0  0
 35 44  2  0  0  0
 35 45  1  0  0  0
 35 68  1  0  0  0
 36 56  1  0  0  0
 36109  1  0  0  0
 37 39  1  0  0  0
 37 47  1  0  0  0
 37 66  1  0  0  0
 37110  1  0  0  0
 38 43  2  0  0  0
 38 46  1  0  0  0
 38 47  1  0  0  0
 39 64  1  0  0  0
 39 67  2  0  0  0
 40 52  1  0  0  0
 40 53  2  0  0  0
 40 58  1  0  0  0
 41111  1  0  0  0
 41112  1  0  0  0
 41113  1  0  0  0
 41 48  1  0  0  0
 42 43  1  0  0  0
 42 66  1  0  0  0
 42114  1  0  0  0
 42115  1  0  0  0
 43 44  1  0  0  0
 44116  1  0  0  0
 45 46  2  0  0  0
 45117  1  0  0  0
 46118  1  0  0  0
 47119  1  0  0  0
 47120  1  0  0  0
 48 56  1  0  0  0
 48 65  1  0  0  0
 48121  1  0  0  0
 49 50  1  0  0  0
 49 53  1  0  0  0
 49 64  1  0  0  0
 49122  1  0  0  0
 50 51  1  0  0  0
 50123  1  0  0  0
 50124  1  0  0  0
 51 52  1  0  0  0
 51125  1  0  0  0
 51126  1  0  0  0
 52127  1  0  0  0
 52128  1  0  0  0
 53 54  1  0  0  0
 54 55  2  0  0  0
 54129  1  0  0  0
 55 57  1  0  0  0
 55130  1  0  0  0
 56 69  2  0  0  0
 57 58  2  0  0  0
 57131  1  0  0  0
 58132  1  0  0  0
 59 60  1  0  0  0
 59 61  1  0  0  0
 59 62  1  0  0  0
 60133  1  0  0  0
 60134  1  0  0  0
 60135  1  0  0  0
 61136  1  0  0  0
 61137  1  0  0  0
 61138  1  0  0  0
 62139  1  0  0  0
 62140  1  0  0  0
 62141  1  0  0  0
 63 65  1  0  0  0
 63142  1  0  0  0
 63143  1  0  0  0
 63144  1  0  0  0
 64145  1  0  0  0
 65146  1  0  0  0
 68 83  1  0  0  0
 71 77  1  0  0  0
 71 84  1  0  0  0
 71 87  2  0  0  0
 72 78  1  0  0  0
 72147  1  0  0  0
 72148  1  0  0  0
 72149  1  0  0  0
 73 80  1  0  0  0
 73150  1  0  0  0
 73151  1  0  0  0
 73152  1  0  0  0
 74153  1  0  0  0
 74154  1  0  0  0
 74155  1  0  0  0
 74 84  1  0  0  0
 75 84  1  0  0  0
 75156  1  0  0  0
 75157  1  0  0  0
 75158  1  0  0  0
 76159  1  0  0  0
 76160  1  0  0  0
 76161  1  0  0  0
 76 85  1  0  0  0
 77 81  1  0  0  0
 77162  1  0  0  0
 77163  1  0  0  0
 78 85  1  0  0  0
 78164  1  0  0  0
 78165  1  0  0  0
 79 82  1  0  0  0
 79 85  1  0  0  0
 79166  1  0  0  0
 79167  1  0  0  0
 80168  1  0  0  0
 80169  1  0  0  0
 80 86  1  0  0  0
 81 86  1  0  0  0
 81170  1  0  0  0
 81171  1  0  0  0
 82 86  1  0  0  0
 82172  1  0  0  0
 82173  1  0  0  0
 83 85  1  0  0  0
 83174  1  0  0  0
 83175  1  0  0  0
 86176  1  0  0  0
M  CHG  1  86   1
M  ISO  4   1 100  68 101  83 101  84 100
M  END
> <chiral flag>
0

> <version>
0

> <s_m_source_file>
/data/baiqing/PycharmProjects/Reinvent-master-3.2/result/LINK_invent/BTK/process_docking_weight1_custom_sum_contain_oxygen_bond_distance_aromatic_linkinvent_7_9_3/rearranged_h_0051.sdf

> <i_m_source_file_index>
48

> <r_mmod_Potential_Energy-OPLS-2005>
-13.906587600708

> <r_mmod_Stretch_Energy-OPLS-2005>
57.4779167175293

> <r_mmod_Bend_Energy-OPLS-2005>
133.287216186523

> <r_mmod_Torsional_Energy-OPLS-2005>
237.613433837891

> <r_mmod_Improper_Torsional_Energy-OPLS-2005>
2.13919115066528

> <r_mmod_Van_der_Waal_Energy-OPLS-2005>
149.554153442383

> <r_mmod_Electrostatic_Energy-OPLS-2005>
-183.513580322266

> <r_mmod_Solvation_Energy-OPLS-2005>
-427.093353271484

> <b_mmod_Minimization_Converged-OPLS-2005>
0

> <r_mmod_RMS_Derivative-OPLS-2005>
2.3977165222168

$$$$
49
                    3D
 Structure written by MMmdl.
171178  0  0  1  0            999 V2000
  -30.7136  -14.6982   20.3474 C   0  0  0  0  0  0
  -30.4100  -12.4110   19.4571 C   0  0  0  0  0  0
  -29.4868  -12.4141   18.2233 C   0  0  0  0  0  0
  -28.0112  -12.2958   18.6478 C   0  0  0  0  0  0
  -27.6246  -13.2225   19.8322 C   0  0  2  0  0  0
  -28.6897  -13.2418   20.9457 C   0  0  0  0  0  0
  -25.2496  -13.8159   20.5769 C   0  0  0  0  0  0
  -24.1782  -13.0426   20.9277 C   0  0  0  0  0  0
  -24.6357  -11.6903   20.8820 C   0  0  0  0  0  0
  -23.9035  -10.4291   21.0447 C   0  0  0  0  0  0
  -24.3599   -9.4209   21.9210 C   0  0  0  0  0  0
  -23.6291   -8.2234   22.0759 C   0  0  0  0  0  0
  -22.4278   -8.0269   21.3541 C   0  0  0  0  0  0
  -21.9910   -9.0248   20.4650 C   0  0  0  0  0  0
  -22.7218  -10.2139   20.3080 C   0  0  0  0  0  0
  -21.6844   -6.0740   22.5277 C   0  0  0  0  0  0
  -21.4007   -6.5648   23.8209 C   0  0  0  0  0  0
  -21.3657   -5.6801   24.9169 C   0  0  0  0  0  0
  -21.6040   -4.3060   24.7224 C   0  0  0  0  0  0
  -21.8823   -3.8154   23.4347 C   0  0  0  0  0  0
  -21.9197   -4.6972   22.3405 C   0  0  0  0  0  0
  -22.7810  -13.5232   21.1893 C   0  0  0  0  0  0
  -22.1673   -4.2159   21.0981 F   0  0  0  0  0  0
  -21.5631   -3.4544   25.7739 F   0  0  0  0  0  0
  -29.9861  -13.5310   20.3228 N   0  0  0  0  0  0
  -26.2886  -12.9340   20.3338 N   0  0  0  0  0  0
  -25.9287  -11.6504   20.5861 N   0  0  0  0  0  0
  -22.0431  -12.8223   22.0420 N   0  0  0  0  0  0
  -25.4207  -15.1880   20.4147 N   0  0  0  0  0  0
  -31.9369  -14.5782   20.3651 O   0  0  0  0  0  0
  -21.6637   -6.8872   21.4232 O   0  0  0  0  0  0
  -22.3523  -14.5547   20.6732 O   0  0  0  0  0  0
  -24.6237  -31.8614   23.2044 C   0  0  0  0  0  0
  -25.9105  -32.4786   23.8353 C   0  0  1  0  0  0
  -27.2082  -27.3343   20.1224 C   0  0  0  0  0  0
  -25.5932  -33.8585   24.2288 N   0  0  0  0  0  0
  -23.4159  -30.4860   21.5462 C   0  0  2  0  0  0
  -24.8604  -28.9438   20.1085 C   0  0  0  0  0  0
  -22.7463  -29.4628   22.4945 C   0  0  0  0  0  0
  -18.0286  -28.1381   22.8486 C   0  0  0  0  0  0
  -24.1494  -36.7295   23.2638 C   0  0  0  0  0  0
  -25.9552  -30.7980   21.3715 C   0  0  0  0  0  0
  -26.0289  -29.4269   20.7134 C   0  0  0  0  0  0
  -27.2119  -28.6330   20.7095 C   0  0  0  0  0  0
  -26.0279  -26.8993   19.4877 C   0  0  0  0  0  0
  -24.8605  -27.6851   19.4853 C   0  0  0  0  0  0
  -23.6289  -29.8235   20.1597 C   0  0  0  0  0  0
  -25.4118  -36.3086   24.0328 C   0  0  1  0  0  0
  -20.5884  -28.3685   23.1296 C   0  0  2  0  0  0
  -20.6782  -26.9413   22.5416 C   0  0  0  0  0  0
  -19.5757  -26.6380   21.5217 C   0  0  0  0  0  0
  -18.1932  -26.7927   22.1624 C   0  0  0  0  0  0
  -19.1537  -28.8851   23.2887 C   0  0  0  0  0  0
  -18.9460  -30.1451   23.8906 C   0  0  0  0  0  0
  -17.6462  -30.6590   24.0567 C   0  0  0  0  0  0
  -25.9050  -34.9456   23.5102 C   0  0  0  0  0  0
  -16.5354  -29.9091   23.6324 C   0  0  0  0  0  0
  -16.7274  -28.6508   23.0349 C   0  0  0  0  0  0
  -26.4498  -31.6583   25.0713 C   0  0  0  0  0  0
  -25.3740  -31.3710   26.1444 C   0  0  0  0  0  0
  -27.0335  -30.3013   24.6139 C   0  0  0  0  0  0
  -27.6063  -32.4308   25.7489 C   0  0  0  0  0  0
  -27.5585  -37.1803   24.8466 C   0  0  0  0  0  0
  -21.4175  -29.3044   22.3689 N   0  0  0  0  0  0
  -26.4301  -37.3779   23.9407 N   0  0  0  0  0  0
  -24.6838  -31.0640   22.0979 N   0  0  0  0  0  0
  -23.4203  -28.8156   23.3001 O   0  0  0  0  0  0
  -28.2933  -26.4563   20.1603 O   0  0  0  0  0  0
  -26.5612  -34.8928   22.4664 O   0  0  0  0  0  0
  -23.5411  -32.1396   23.7387 O   0  0  0  0  0  0
  -28.5999  -25.6083   22.3406 C   0  0  0  0  0  0
  -29.6562  -16.0031   18.3999 C   0  0  0  0  0  0
  -31.4864  -17.0422   19.6340 C   0  0  0  0  0  0
  -27.1864  -22.3466   21.8212 C   0  0  0  0  0  0
  -29.6799  -22.4101   22.2754 C   0  0  0  0  0  0
  -27.5415  -18.3394   19.4773 C   0  0  0  0  0  0
  -28.7979  -21.1203   20.2968 C   0  0  0  0  0  0
  -28.6935  -23.8421   20.3692 C   0  0  0  0  0  0
  -28.9406  -19.6805   21.0136 C   0  0  0  0  0  0
  -29.2790  -17.0847   20.7582 C   0  0  0  0  0  0
  -28.0875  -25.2199   20.9443 C   0  0  2  0  0  0
  -30.2111  -16.1597   19.8387 C   0  0  0  0  0  0
  -28.5894  -22.4452   21.1815 C   0  0  0  0  0  0
  -28.8684  -18.4327   20.1392 N   0  3  1  0  0  0
  -31.4496  -12.4941   19.1350 H   0  0  0  0  0  0
  -30.3363  -11.4656   19.9970 H   0  0  0  0  0  0
  -29.7456  -11.5800   17.5690 H   0  0  0  0  0  0
  -29.6345  -13.3102   17.6265 H   0  0  0  0  0  0
  -27.8454  -11.2557   18.9285 H   0  0  0  0  0  0
  -27.3573  -12.4839   17.7958 H   0  0  0  0  0  0
  -27.5703  -14.2233   19.4265 H   0  0  0  0  0  0
  -28.7251  -12.2852   21.4693 H   0  0  0  0  0  0
  -28.4516  -13.9981   21.6947 H   0  0  0  0  0  0
  -25.2735   -9.5704   22.4791 H   0  0  0  0  0  0
  -24.0011   -7.4629   22.7473 H   0  0  0  0  0  0
  -21.0849   -8.8759   19.8952 H   0  0  0  0  0  0
  -22.3665  -10.9689   19.6205 H   0  0  0  0  0  0
  -21.1990   -7.6154   23.9710 H   0  0  0  0  0  0
  -21.1471   -6.0531   25.9069 H   0  0  0  0  0  0
  -22.0607   -2.7619   23.2841 H   0  0  0  0  0  0
  -22.4044  -11.9883   22.4808 H   0  0  0  0  0  0
  -21.1042  -13.1248   22.2602 H   0  0  0  0  0  0
  -24.6470  -15.8375   20.5037 H   0  0  0  0  0  0
  -26.2522  -15.6055   20.0258 H   0  0  0  0  0  0
  -26.7169  -32.5468   23.1099 H   0  0  0  0  0  0
  -25.0100  -33.9728   25.0446 H   0  0  0  0  0  0
  -22.7090  -31.3061   21.4053 H   0  0  0  0  0  0
  -23.3761  -35.9625   23.3298 H   0  0  0  0  0  0
  -24.3586  -36.8916   22.2055 H   0  0  0  0  0  0
  -23.7246  -37.6496   23.6657 H   0  0  0  0  0  0
  -26.0822  -31.5625   20.6033 H   0  0  0  0  0  0
  -26.8376  -30.8465   21.9979 H   0  0  0  0  0  0
  -28.1092  -28.9921   21.1937 H   0  0  0  0  0  0
  -26.0024  -25.9279   19.0139 H   0  0  0  0  0  0
  -23.9652  -27.3106   19.0074 H   0  0  0  0  0  0
  -23.7486  -30.6018   19.4051 H   0  0  0  0  0  0
  -22.7481  -29.2541   19.8561 H   0  0  0  0  0  0
  -25.1294  -36.1938   25.0821 H   0  0  0  0  0  0
  -20.9974  -28.3264   24.1417 H   0  0  0  0  0  0
  -20.5694  -26.2295   23.3610 H   0  0  0  0  0  0
  -21.6650  -26.7452   22.1200 H   0  0  0  0  0  0
  -19.6925  -25.6286   21.1254 H   0  0  0  0  0  0
  -19.6701  -27.3187   20.6744 H   0  0  0  0  0  0
  -17.4202  -26.6677   21.4027 H   0  0  0  0  0  0
  -18.0329  -26.0068   22.9019 H   0  0  0  0  0  0
  -19.7937  -30.7260   24.2291 H   0  0  0  0  0  0
  -17.5021  -31.6275   24.5161 H   0  0  0  0  0  0
  -15.5356  -30.3005   23.7641 H   0  0  0  0  0  0
  -15.8670  -28.0836   22.7060 H   0  0  0  0  0  0
  -24.5916  -30.7060   25.7767 H   0  0  0  0  0  0
  -24.8936  -32.2876   26.4878 H   0  0  0  0  0  0
  -25.8073  -30.8879   27.0210 H   0  0  0  0  0  0
  -26.2892  -29.6773   24.1179 H   0  0  0  0  0  0
  -27.4063  -29.7256   25.4618 H   0  0  0  0  0  0
  -27.8749  -30.4308   23.9330 H   0  0  0  0  0  0
  -27.2673  -33.3601   26.2078 H   0  0  0  0  0  0
  -28.3876  -32.6875   25.0323 H   0  0  0  0  0  0
  -28.0729  -31.8425   26.5399 H   0  0  0  0  0  0
  -28.2592  -38.0110   24.7512 H   0  0  0  0  0  0
  -28.1085  -36.2635   24.6282 H   0  0  0  0  0  0
  -27.2299  -37.1442   25.8869 H   0  0  0  0  0  0
  -20.9340  -29.8790   21.6927 H   0  0  0  0  0  0
  -26.0181  -38.2853   24.1411 H   0  0  0  0  0  0
  -28.2961  -24.8967   23.1044 H   0  0  0  0  0  0
  -28.1929  -26.5690   22.6559 H   0  0  0  0  0  0
  -29.6860  -25.6936   22.3517 H   0  0  0  0  0  0
  -29.5888  -16.9550   17.8740 H   0  0  0  0  0  0
  -28.6696  -15.5607   18.3549 H   0  0  0  0  0  0
  -30.3199  -15.3871   17.7935 H   0  0  0  0  0  0
  -31.2673  -18.0215   19.2091 H   0  0  0  0  0  0
  -32.1972  -16.5857   18.9430 H   0  0  0  0  0  0
  -32.0139  -17.2131   20.5740 H   0  0  0  0  0  0
  -27.0517  -21.4277   22.3908 H   0  0  0  0  0  0
  -26.4055  -22.3710   21.0598 H   0  0  0  0  0  0
  -26.9840  -23.1626   22.5126 H   0  0  0  0  0  0
  -29.5709  -21.5456   22.9295 H   0  0  0  0  0  0
  -29.6714  -23.2763   22.9291 H   0  0  0  0  0  0
  -30.6760  -22.3610   21.8346 H   0  0  0  0  0  0
  -27.3820  -19.1508   18.7694 H   0  0  0  0  0  0
  -26.7368  -18.3741   20.2125 H   0  0  0  0  0  0
  -27.4226  -17.4176   18.9128 H   0  0  0  0  0  0
  -27.9713  -21.0928   19.5894 H   0  0  0  0  0  0
  -29.6836  -21.2636   19.6785 H   0  0  0  0  0  0
  -29.7425  -24.0154   20.1262 H   0  0  0  0  0  0
  -28.2132  -23.6841   19.4027 H   0  0  0  0  0  0
  -28.1822  -19.5748   21.7889 H   0  0  0  0  0  0
  -29.8979  -19.6583   21.5354 H   0  0  0  0  0  0
  -29.8122  -17.2791   21.6898 H   0  0  0  0  0  0
  -28.3879  -16.5346   21.0625 H   0  0  0  0  0  0
  -27.0154  -25.0488   21.0489 H   0  0  0  0  0  0
  -29.5460  -18.5911   19.4084 H   0  0  0  0  0  0
  1 25  1  0  0  0
  1 30  2  0  0  0
  1 82  1  0  0  0
  2  3  1  0  0  0
  2 25  1  0  0  0
  2 85  1  0  0  0
  2 86  1  0  0  0
  3  4  1  0  0  0
  3 87  1  0  0  0
  3 88  1  0  0  0
  4  5  1  0  0  0
  4 89  1  0  0  0
  4 90  1  0  0  0
  5  6  1  0  0  0
  5 26  1  0  0  0
  5 91  1  0  0  0
  6 25  1  0  0  0
  6 92  1  0  0  0
  6 93  1  0  0  0
  7  8  2  0  0  0
  7 26  1  0  0  0
  7 29  1  0  0  0
  8  9  1  0  0  0
  8 22  1  0  0  0
  9 10  1  0  0  0
  9 27  2  0  0  0
 10 11  2  0  0  0
 10 15  1  0  0  0
 11 12  1  0  0  0
 11 94  1  0  0  0
 12 13  2  0  0  0
 12 95  1  0  0  0
 13 14  1  0  0  0
 13 31  1  0  0  0
 14 15  2  0  0  0
 14 96  1  0  0  0
 15 97  1  0  0  0
 16 17  2  0  0  0
 16 21  1  0  0  0
 16 31  1  0  0  0
 17 18  1  0  0  0
 17 98  1  0  0  0
 18 19  2  0  0  0
 18 99  1  0  0  0
 19 20  1  0  0  0
 19 24  1  0  0  0
 20 21  2  0  0  0
 20100  1  0  0  0
 21 23  1  0  0  0
 22 28  1  0  0  0
 22 32  2  0  0  0
 26 27  1  0  0  0
 28101  1  0  0  0
 28102  1  0  0  0
 29103  1  0  0  0
 29104  1  0  0  0
 33 34  1  0  0  0
 33 66  1  0  0  0
 33 70  2  0  0  0
 34 36  1  0  0  0
 34 59  1  0  0  0
 34105  1  0  0  0
 35 44  2  0  0  0
 35 45  1  0  0  0
 35 68  1  0  0  0
 36 56  1  0  0  0
 36106  1  0  0  0
 37 39  1  0  0  0
 37 47  1  0  0  0
 37 66  1  0  0  0
 37107  1  0  0  0
 38 43  2  0  0  0
 38 46  1  0  0  0
 38 47  1  0  0  0
 39 64  1  0  0  0
 39 67  2  0  0  0
 40 52  1  0  0  0
 40 53  2  0  0  0
 40 58  1  0  0  0
 41108  1  0  0  0
 41109  1  0  0  0
 41110  1  0  0  0
 41 48  1  0  0  0
 42 43  1  0  0  0
 42 66  1  0  0  0
 42111  1  0  0  0
 42112  1  0  0  0
 43 44  1  0  0  0
 44113  1  0  0  0
 45 46  2  0  0  0
 45114  1  0  0  0
 46115  1  0  0  0
 47116  1  0  0  0
 47117  1  0  0  0
 48 56  1  0  0  0
 48 65  1  0  0  0
 48118  1  0  0  0
 49 50  1  0  0  0
 49 53  1  0  0  0
 49 64  1  0  0  0
 49119  1  0  0  0
 50 51  1  0  0  0
 50120  1  0  0  0
 50121  1  0  0  0
 51 52  1  0  0  0
 51122  1  0  0  0
 51123  1  0  0  0
 52124  1  0  0  0
 52125  1  0  0  0
 53 54  1  0  0  0
 54 55  2  0  0  0
 54126  1  0  0  0
 55 57  1  0  0  0
 55127  1  0  0  0
 56 69  2  0  0  0
 57 58  2  0  0  0
 57128  1  0  0  0
 58129  1  0  0  0
 59 60  1  0  0  0
 59 61  1  0  0  0
 59 62  1  0  0  0
 60130  1  0  0  0
 60131  1  0  0  0
 60132  1  0  0  0
 61133  1  0  0  0
 61134  1  0  0  0
 61135  1  0  0  0
 62136  1  0  0  0
 62137  1  0  0  0
 62138  1  0  0  0
 63 65  1  0  0  0
 63139  1  0  0  0
 63140  1  0  0  0
 63141  1  0  0  0
 64142  1  0  0  0
 65143  1  0  0  0
 68 81  1  0  0  0
 71144  1  0  0  0
 71145  1  0  0  0
 71146  1  0  0  0
 71 81  1  0  0  0
 72147  1  0  0  0
 72148  1  0  0  0
 72149  1  0  0  0
 72 82  1  0  0  0
 73 82  1  0  0  0
 73150  1  0  0  0
 73151  1  0  0  0
 73152  1  0  0  0
 74153  1  0  0  0
 74154  1  0  0  0
 74155  1  0  0  0
 74 83  1  0  0  0
 75 83  1  0  0  0
 75156  1  0  0  0
 75157  1  0  0  0
 75158  1  0  0  0
 76159  1  0  0  0
 76160  1  0  0  0
 76161  1  0  0  0
 76 84  1  0  0  0
 77 79  1  0  0  0
 77 83  1  0  0  0
 77162  1  0  0  0
 77163  1  0  0  0
 78 81  1  0  0  0
 78 83  1  0  0  0
 78164  1  0  0  0
 78165  1  0  0  0
 79 84  1  0  0  0
 79166  1  0  0  0
 79167  1  0  0  0
 80 82  1  0  0  0
 80 84  1  0  0  0
 80168  1  0  0  0
 80169  1  0  0  0
 81170  1  0  0  0
 84171  1  0  0  0
M  CHG  1  84   1
M  ISO  4   1 100  68 101  81 101  82 100
M  END
> <chiral flag>
0

> <version>
0

> <s_m_source_file>
/data/baiqing/PycharmProjects/Reinvent-master-3.2/result/LINK_invent/BTK/process_docking_weight1_custom_sum_contain_oxygen_bond_distance_aromatic_linkinvent_7_9_3/rearranged_h_0051.sdf

> <i_m_source_file_index>
49

> <r_mmod_Potential_Energy-OPLS-2005>
218.513000488281

> <r_mmod_Stretch_Energy-OPLS-2005>
108.808631896973

> <r_mmod_Bend_Energy-OPLS-2005>
177.414764404297

> <r_mmod_Torsional_Energy-OPLS-2005>
293.974487304688

> <r_mmod_Improper_Torsional_Energy-OPLS-2005>
14.850513458252

> <r_mmod_Van_der_Waal_Energy-OPLS-2005>
136.780578613281

> <r_mmod_Electrostatic_Energy-OPLS-2005>
-180.128555297852

> <r_mmod_Solvation_Energy-OPLS-2005>
-420.427520751953

> <b_mmod_Minimization_Converged-OPLS-2005>
0

> <r_mmod_RMS_Derivative-OPLS-2005>
1.30749845504761

$$$$
50
                    3D
 Structure written by MMmdl.
187195  0  0  1  0            999 V2000
  -30.7905  -14.3915   20.5902 C   0  0  0  0  0  0
  -30.4226  -12.2616   19.4184 C   0  0  0  0  0  0
  -29.5125  -12.4809   18.1971 C   0  0  0  0  0  0
  -28.0372  -12.3126   18.6102 C   0  0  0  0  0  0
  -27.6627  -13.1575   19.8491 C   0  0  2  0  0  0
  -28.6966  -12.9950   20.9827 C   0  0  0  0  0  0
  -25.2673  -13.7958   20.5636 C   0  0  0  0  0  0
  -24.1856  -13.0339   20.9138 C   0  0  0  0  0  0
  -24.6345  -11.6836   20.8745 C   0  0  0  0  0  0
  -23.8960  -10.4289   21.0431 C   0  0  0  0  0  0
  -24.3509   -9.4260   21.9235 C   0  0  0  0  0  0
  -23.6230   -8.2275   22.0753 C   0  0  0  0  0  0
  -22.4245   -8.0277   21.3524 C   0  0  0  0  0  0
  -21.9888   -9.0212   20.4589 C   0  0  0  0  0  0
  -22.7174  -10.2128   20.3042 C   0  0  0  0  0  0
  -21.6806   -6.0804   22.5344 C   0  0  0  0  0  0
  -21.3959   -6.5684   23.8297 C   0  0  0  0  0  0
  -21.3631   -5.6835   24.9249 C   0  0  0  0  0  0
  -21.6059   -4.3079   24.7282 C   0  0  0  0  0  0
  -21.8794   -3.8200   23.4383 C   0  0  0  0  0  0
  -21.9148   -4.7024   22.3456 C   0  0  0  0  0  0
  -22.7932  -13.5286   21.1759 C   0  0  0  0  0  0
  -22.1565   -4.2214   21.1025 F   0  0  0  0  0  0
  -21.5718   -3.4532   25.7772 F   0  0  0  0  0  0
  -30.0479  -13.2549   20.4420 N   0  0  0  0  0  0
  -26.3031  -12.9083   20.3223 N   0  0  0  0  0  0
  -25.9252  -11.6321   20.5716 N   0  0  0  0  0  0
  -22.0466  -12.8479   22.0357 N   0  0  0  0  0  0
  -25.4415  -15.1594   20.4154 N   0  0  0  0  0  0
  -31.8652  -14.5454   20.0076 O   0  0  0  0  0  0
  -21.6556   -6.8896   21.4292 O   0  0  0  0  0  0
  -22.3641  -14.5527   20.6551 O   0  0  0  0  0  0
  -24.6100  -31.8694   23.2142 C   0  0  0  0  0  0
  -25.9011  -32.4823   23.8440 C   0  0  1  0  0  0
  -27.2404  -27.4783   20.0487 C   0  0  0  0  0  0
  -25.5869  -33.8625   24.2322 N   0  0  0  0  0  0
  -23.3936  -30.4919   21.5576 C   0  0  2  0  0  0
  -24.8338  -28.9558   20.1217 C   0  0  0  0  0  0
  -22.7379  -29.4651   22.5073 C   0  0  0  0  0  0
  -18.0239  -28.1337   22.8499 C   0  0  0  0  0  0
  -24.1467  -36.7312   23.2644 C   0  0  0  0  0  0
  -25.9208  -30.8339   21.3736 C   0  0  0  0  0  0
  -25.9914  -29.4748   20.7128 C   0  0  0  0  0  0
  -27.1883  -28.7368   20.6810 C   0  0  0  0  0  0
  -26.0555  -26.9528   19.4781 C   0  0  0  0  0  0
  -24.8564  -27.6889   19.5146 C   0  0  0  0  0  0
  -23.5936  -29.8120   20.1778 C   0  0  0  0  0  0
  -25.4098  -36.3107   24.0331 C   0  0  1  0  0  0
  -20.5831  -28.3604   23.1343 C   0  0  2  0  0  0
  -20.6704  -26.9355   22.5398 C   0  0  0  0  0  0
  -19.5688  -26.6348   21.5186 C   0  0  0  0  0  0
  -18.1875  -26.7892   22.1611 C   0  0  0  0  0  0
  -19.1494  -28.8793   23.2904 C   0  0  0  0  0  0
  -18.9440  -30.1409   23.8899 C   0  0  0  0  0  0
  -17.6447  -30.6572   24.0528 C   0  0  0  0  0  0
  -25.9024  -34.9478   23.5122 C   0  0  0  0  0  0
  -16.5328  -29.9059   23.6336 C   0  0  0  0  0  0
  -16.7226  -28.6454   23.0392 C   0  0  0  0  0  0
  -26.4433  -31.6634   25.0799 C   0  0  0  0  0  0
  -25.3690  -31.3756   26.1550 C   0  0  0  0  0  0
  -27.0276  -30.3067   24.6232 C   0  0  0  0  0  0
  -27.5989  -32.4389   25.7565 C   0  0  0  0  0  0
  -27.5561  -37.1820   24.8461 C   0  0  0  0  0  0
  -21.4115  -29.3008   22.3799 N   0  0  0  0  0  0
  -26.4270  -37.3807   23.9407 N   0  0  0  0  0  0
  -24.6586  -31.0824   22.1032 N   0  0  0  0  0  0
  -23.4179  -28.8203   23.3092 O   0  0  0  0  0  0
  -28.4769  -26.8763   19.9962 O   0  0  0  0  0  0
  -26.5619  -34.8900   22.4700 O   0  0  0  0  0  0
  -23.5308  -32.1452   23.7539 O   0  0  0  0  0  0
  -30.8782  -20.5828   22.4387 C   0  0  0  0  0  0
  -30.3365  -21.8100   22.0211 C   0  0  0  0  0  0
  -28.9335  -21.8240   21.8861 C   0  0  0  0  0  0
  -28.9040  -19.5432   21.9411 C   0  0  0  0  0  0
  -28.0787  -23.0624   21.7745 C   0  0  0  0  0  0
  -26.9428  -18.6374   20.6027 C   0  0  0  0  0  0
  -27.8645  -17.3259   22.4729 C   0  0  0  0  0  0
  -28.5418  -16.7295   19.2020 C   0  0  0  0  0  0
  -29.9112  -18.7528   19.3441 C   0  0  0  0  0  0
  -30.3339  -15.2362   22.7635 C   0  0  0  0  0  0
  -33.0528  -22.2297   20.1826 C   0  0  0  0  0  0
  -31.2363  -22.9994   21.6897 C   0  0  0  0  0  0
  -30.4894  -24.1377   18.4659 C   0  0  0  0  0  0
  -29.6879  -25.4560   18.4105 C   0  0  0  0  0  0
  -30.4927  -16.8083   20.8145 C   0  0  0  0  0  0
  -31.6451  -24.1676   19.5029 C   0  0  0  0  0  0
  -28.6496  -25.5468   19.5367 C   0  0  0  0  0  0
  -28.2867  -18.2624   21.3203 C   0  0  0  0  0  0
  -29.2796  -17.6246   20.2240 C   0  0  0  0  0  0
  -30.1400  -19.4613   22.4273 N   0  0  0  0  0  0
  -28.2450  -20.6825   21.7988 N   0  0  0  0  0  0
  -30.2531  -15.4129   21.2991 N   0  0  0  0  0  0
  -31.7314  -22.8978   20.2798 N   0  3  1  0  0  0
  -31.4669  -12.3241   19.1147 H   0  0  0  0  0  0
  -30.3043  -11.2485   19.8068 H   0  0  0  0  0  0
  -29.7630  -11.7619   17.4163 H   0  0  0  0  0  0
  -29.6896  -13.4677   17.7569 H   0  0  0  0  0  0
  -27.8707  -11.2602   18.8367 H   0  0  0  0  0  0
  -27.4029  -12.5621   17.7596 H   0  0  0  0  0  0
  -27.6885  -14.1673   19.4819 H   0  0  0  0  0  0
  -28.6454  -11.9871   21.3974 H   0  0  0  0  0  0
  -28.4188  -13.6529   21.8012 H   0  0  0  0  0  0
  -25.2582   -9.5794   22.4890 H   0  0  0  0  0  0
  -23.9974   -7.4689   22.7441 H   0  0  0  0  0  0
  -21.0862   -8.8657   19.8870 H   0  0  0  0  0  0
  -22.3649  -10.9695   19.6150 H   0  0  0  0  0  0
  -21.1949   -7.6195   23.9825 H   0  0  0  0  0  0
  -21.1412   -6.0550   25.9149 H   0  0  0  0  0  0
  -22.0619   -2.7657   23.2898 H   0  0  0  0  0  0
  -22.3811  -12.0031   22.4679 H   0  0  0  0  0  0
  -21.1140  -13.1744   22.2402 H   0  0  0  0  0  0
  -24.6652  -15.8089   20.4393 H   0  0  0  0  0  0
  -26.3159  -15.5804   20.1423 H   0  0  0  0  0  0
  -26.7070  -32.5522   23.1192 H   0  0  0  0  0  0
  -24.9978  -33.9795   25.0439 H   0  0  0  0  0  0
  -22.6767  -31.3047   21.4186 H   0  0  0  0  0  0
  -23.3711  -35.9663   23.3337 H   0  0  0  0  0  0
  -24.3544  -36.8909   22.2048 H   0  0  0  0  0  0
  -23.7214  -37.6520   23.6648 H   0  0  0  0  0  0
  -26.0581  -31.6098   20.6198 H   0  0  0  0  0  0
  -26.7994  -30.8637   22.0087 H   0  0  0  0  0  0
  -28.0880  -29.1427   21.1226 H   0  0  0  0  0  0
  -26.0214  -26.0024   18.9692 H   0  0  0  0  0  0
  -23.9603  -27.2864   19.0593 H   0  0  0  0  0  0
  -23.6692  -30.5716   19.3998 H   0  0  0  0  0  0
  -22.7237  -29.2087   19.9101 H   0  0  0  0  0  0
  -25.1269  -36.1974   25.0826 H   0  0  0  0  0  0
  -20.9886  -28.3109   24.1479 H   0  0  0  0  0  0
  -20.5540  -26.2219   23.3573 H   0  0  0  0  0  0
  -21.6581  -26.7342   22.1237 H   0  0  0  0  0  0
  -19.6829  -25.6253   21.1219 H   0  0  0  0  0  0
  -19.6627  -27.3145   20.6706 H   0  0  0  0  0  0
  -17.4134  -26.6638   21.4020 H   0  0  0  0  0  0
  -18.0273  -26.0020   22.8994 H   0  0  0  0  0  0
  -19.7926  -30.7201   24.2281 H   0  0  0  0  0  0
  -17.5014  -31.6286   24.5075 H   0  0  0  0  0  0
  -15.5329  -30.2959   23.7674 H   0  0  0  0  0  0
  -15.8614  -28.0743   22.7171 H   0  0  0  0  0  0
  -24.5831  -30.7135   25.7891 H   0  0  0  0  0  0
  -24.8917  -32.2914   26.5048 H   0  0  0  0  0  0
  -25.8047  -30.8888   27.0283 H   0  0  0  0  0  0
  -26.2871  -29.6878   24.1149 H   0  0  0  0  0  0
  -27.3836  -29.7277   25.4761 H   0  0  0  0  0  0
  -27.8795  -30.4356   23.9554 H   0  0  0  0  0  0
  -27.2570  -33.3664   26.2170 H   0  0  0  0  0  0
  -28.3795  -32.7005   25.0410 H   0  0  0  0  0  0
  -28.0663  -31.8519   26.5475 H   0  0  0  0  0  0
  -28.2591  -38.0109   24.7515 H   0  0  0  0  0  0
  -28.1044  -36.2641   24.6283 H   0  0  0  0  0  0
  -27.2286  -37.1464   25.8868 H   0  0  0  0  0  0
  -20.9252  -29.8777   21.7080 H   0  0  0  0  0  0
  -26.0153  -38.2881   24.1420 H   0  0  0  0  0  0
  -31.9320  -20.4608   22.6483 H   0  0  0  0  0  0
  -28.5019  -23.8981   22.3325 H   0  0  0  0  0  0
  -27.0821  -22.8808   22.1800 H   0  0  0  0  0  0
  -27.9413  -23.3173   20.7315 H   0  0  0  0  0  0
  -26.2259  -19.0792   21.2925 H   0  0  0  0  0  0
  -26.4141  -17.7964   20.1659 H   0  0  0  0  0  0
  -27.1003  -19.3650   19.8082 H   0  0  0  0  0  0
  -27.0238  -17.7430   23.0303 H   0  0  0  0  0  0
  -28.6739  -17.1999   23.1910 H   0  0  0  0  0  0
  -27.5354  -16.3514   22.1185 H   0  0  0  0  0  0
  -27.7762  -16.1507   19.6884 H   0  0  0  0  0  0
  -29.2143  -16.0448   18.6867 H   0  0  0  0  0  0
  -28.0372  -17.3005   18.4215 H   0  0  0  0  0  0
  -30.3690  -18.3537   18.4375 H   0  0  0  0  0  0
  -30.7002  -19.2999   19.8541 H   0  0  0  0  0  0
  -29.1831  -19.5000   19.0303 H   0  0  0  0  0  0
  -30.7567  -16.1030   23.2746 H   0  0  0  0  0  0
  -29.3531  -15.0422   23.1879 H   0  0  0  0  0  0
  -30.9491  -14.3834   23.0546 H   0  0  0  0  0  0
  -33.0133  -21.2449   20.6523 H   0  0  0  0  0  0
  -33.8308  -22.8045   20.6895 H   0  0  0  0  0  0
  -33.3616  -22.0877   19.1450 H   0  0  0  0  0  0
  -32.0770  -23.0553   22.3871 H   0  0  0  0  0  0
  -30.6673  -23.9163   21.8435 H   0  0  0  0  0  0
  -30.9010  -23.9313   17.4751 H   0  0  0  0  0  0
  -29.8105  -23.3056   18.6622 H   0  0  0  0  0  0
  -29.1639  -25.5308   17.4577 H   0  0  0  0  0  0
  -30.3786  -26.3008   18.4581 H   0  0  0  0  0  0
  -31.0419  -17.3614   21.5694 H   0  0  0  0  0  0
  -31.2185  -16.7929   19.9984 H   0  0  0  0  0  0
  -31.5404  -25.0128   20.1834 H   0  0  0  0  0  0
  -32.5788  -24.3671   18.9747 H   0  0  0  0  0  0
  -29.0785  -25.0642   20.4053 H   0  0  0  0  0  0
  -27.7512  -24.9845   19.2785 H   0  0  0  0  0  0
  -31.1005  -22.2815   19.7904 H   0  0  0  0  0  0
  1 25  1  0  0  0
  1 30  2  0  0  0
  1 92  1  0  0  0
  2  3  1  0  0  0
  2 25  1  0  0  0
  2 94  1  0  0  0
  2 95  1  0  0  0
  3  4  1  0  0  0
  3 96  1  0  0  0
  3 97  1  0  0  0
  4  5  1  0  0  0
  4 98  1  0  0  0
  4 99  1  0  0  0
  5  6  1  0  0  0
  5 26  1  0  0  0
  5100  1  0  0  0
  6 25  1  0  0  0
  6101  1  0  0  0
  6102  1  0  0  0
  7  8  2  0  0  0
  7 26  1  0  0  0
  7 29  1  0  0  0
  8  9  1  0  0  0
  8 22  1  0  0  0
  9 10  1  0  0  0
  9 27  2  0  0  0
 10 11  2  0  0  0
 10 15  1  0  0  0
 11 12  1  0  0  0
 11103  1  0  0  0
 12 13  2  0  0  0
 12104  1  0  0  0
 13 14  1  0  0  0
 13 31  1  0  0  0
 14 15  2  0  0  0
 14105  1  0  0  0
 15106  1  0  0  0
 16 17  2  0  0  0
 16 21  1  0  0  0
 16 31  1  0  0  0
 17 18  1  0  0  0
 17107  1  0  0  0
 18 19  2  0  0  0
 18108  1  0  0  0
 19 20  1  0  0  0
 19 24  1  0  0  0
 20 21  2  0  0  0
 20109  1  0  0  0
 21 23  1  0  0  0
 22 28  1  0  0  0
 22 32  2  0  0  0
 26 27  1  0  0  0
 28110  1  0  0  0
 28111  1  0  0  0
 29112  1  0  0  0
 29113  1  0  0  0
 33 34  1  0  0  0
 33 66  1  0  0  0
 33 70  2  0  0  0
 34 36  1  0  0  0
 34 59  1  0  0  0
 34114  1  0  0  0
 35 44  2  0  0  0
 35 45  1  0  0  0
 35 68  1  0  0  0
 36 56  1  0  0  0
 36115  1  0  0  0
 37 39  1  0  0  0
 37 47  1  0  0  0
 37 66  1  0  0  0
 37116  1  0  0  0
 38 43  2  0  0  0
 38 46  1  0  0  0
 38 47  1  0  0  0
 39 64  1  0  0  0
 39 67  2  0  0  0
 40 52  1  0  0  0
 40 53  2  0  0  0
 40 58  1  0  0  0
 41117  1  0  0  0
 41118  1  0  0  0
 41119  1  0  0  0
 41 48  1  0  0  0
 42 43  1  0  0  0
 42 66  1  0  0  0
 42120  1  0  0  0
 42121  1  0  0  0
 43 44  1  0  0  0
 44122  1  0  0  0
 45 46  2  0  0  0
 45123  1  0  0  0
 46124  1  0  0  0
 47125  1  0  0  0
 47126  1  0  0  0
 48 56  1  0  0  0
 48 65  1  0  0  0
 48127  1  0  0  0
 49 50  1  0  0  0
 49 53  1  0  0  0
 49 64  1  0  0  0
 49128  1  0  0  0
 50 51  1  0  0  0
 50129  1  0  0  0
 50130  1  0  0  0
 51 52  1  0  0  0
 51131  1  0  0  0
 51132  1  0  0  0
 52133  1  0  0  0
 52134  1  0  0  0
 53 54  1  0  0  0
 54 55  2  0  0  0
 54135  1  0  0  0
 55 57  1  0  0  0
 55136  1  0  0  0
 56 69  2  0  0  0
 57 58  2  0  0  0
 57137  1  0  0  0
 58138  1  0  0  0
 59 60  1  0  0  0
 59 61  1  0  0  0
 59 62  1  0  0  0
 60139  1  0  0  0
 60140  1  0  0  0
 60141  1  0  0  0
 61142  1  0  0  0
 61143  1  0  0  0
 61144  1  0  0  0
 62145  1  0  0  0
 62146  1  0  0  0
 62147  1  0  0  0
 63 65  1  0  0  0
 63148  1  0  0  0
 63149  1  0  0  0
 63150  1  0  0  0
 64151  1  0  0  0
 65152  1  0  0  0
 68 87  1  0  0  0
 71 72  2  0  0  0
 71 90  1  0  0  0
 71153  1  0  0  0
 72 73  1  0  0  0
 72 82  1  0  0  0
 73 75  1  0  0  0
 73 91  2  0  0  0
 74 88  1  0  0  0
 74 90  2  0  0  0
 74 91  1  0  0  0
 75154  1  0  0  0
 75155  1  0  0  0
 75156  1  0  0  0
 76157  1  0  0  0
 76158  1  0  0  0
 76159  1  0  0  0
 76 88  1  0  0  0
 77 88  1  0  0  0
 77160  1  0  0  0
 77161  1  0  0  0
 77162  1  0  0  0
 78163  1  0  0  0
 78164  1  0  0  0
 78165  1  0  0  0
 78 89  1  0  0  0
 79 89  1  0  0  0
 79166  1  0  0  0
 79167  1  0  0  0
 79168  1  0  0  0
 80 92  1  0  0  0
 80169  1  0  0  0
 80170  1  0  0  0
 80171  1  0  0  0
 81172  1  0  0  0
 81173  1  0  0  0
 81174  1  0  0  0
 81 93  1  0  0  0
 82 93  1  0  0  0
 82175  1  0  0  0
 82176  1  0  0  0
 83 84  1  0  0  0
 83 86  1  0  0  0
 83177  1  0  0  0
 83178  1  0  0  0
 84 87  1  0  0  0
 84179  1  0  0  0
 84180  1  0  0  0
 85 89  1  0  0  0
 85 92  1  0  0  0
 85181  1  0  0  0
 85182  1  0  0  0
 86 93  1  0  0  0
 86183  1  0  0  0
 86184  1  0  0  0
 87185  1  0  0  0
 87186  1  0  0  0
 88 89  1  0  0  0
 93187  1  0  0  0
M  CHG  1  93   1
M  ISO  4   1 100  68 101  87 101  92 100
M  END
> <chiral flag>
0

> <version>
0

> <s_m_source_file>
/data/baiqing/PycharmProjects/Reinvent-master-3.2/result/LINK_invent/BTK/process_docking_weight1_custom_sum_contain_oxygen_bond_distance_aromatic_linkinvent_7_9_3/rearranged_h_0051.sdf

> <i_m_source_file_index>
50

> <r_mmod_Potential_Energy-OPLS-2005>
-171.675338745117

> <r_mmod_Stretch_Energy-OPLS-2005>
54.7732467651367

> <r_mmod_Bend_Energy-OPLS-2005>
168.481201171875

> <r_mmod_Torsional_Energy-OPLS-2005>
348.997131347656

> <r_mmod_Improper_Torsional_Energy-OPLS-2005>
7.63236474990845

> <r_mmod_Van_der_Waal_Energy-OPLS-2005>
207.840408325195

> <r_mmod_Electrostatic_Energy-OPLS-2005>
-551.916564941406

> <r_mmod_Solvation_Energy-OPLS-2005>
-423.072845458984

> <b_mmod_Minimization_Converged-OPLS-2005>
0

> <r_mmod_RMS_Derivative-OPLS-2005>
7.34874868392944

$$$$
51
                    3D
 Structure written by MMmdl.
166174  0  0  1  0            999 V2000
  -30.8039  -14.4120   20.6274 C   0  0  0  0  0  0
  -30.4026  -12.2916   19.4334 C   0  0  0  0  0  0
  -29.4964  -12.5147   18.2100 C   0  0  0  0  0  0
  -28.0171  -12.3663   18.6136 C   0  0  0  0  0  0
  -27.6581  -13.2134   19.8620 C   0  0  2  0  0  0
  -28.6936  -13.0172   20.9883 C   0  0  0  0  0  0
  -25.2594  -13.8197   20.5679 C   0  0  0  0  0  0
  -24.1844  -13.0476   20.9209 C   0  0  0  0  0  0
  -24.6382  -11.6939   20.8748 C   0  0  0  0  0  0
  -23.9060  -10.4326   21.0420 C   0  0  0  0  0  0
  -24.3606   -9.4238   21.9201 C   0  0  0  0  0  0
  -23.6295   -8.2260   22.0760 C   0  0  0  0  0  0
  -22.4275   -8.0308   21.3562 C   0  0  0  0  0  0
  -21.9921   -9.0270   20.4663 C   0  0  0  0  0  0
  -22.7238  -10.2152   20.3073 C   0  0  0  0  0  0
  -21.6843   -6.0756   22.5299 C   0  0  0  0  0  0
  -21.4013   -6.5653   23.8242 C   0  0  0  0  0  0
  -21.3666   -5.6797   24.9197 C   0  0  0  0  0  0
  -21.6028   -4.3059   24.7231 C   0  0  0  0  0  0
  -21.8815   -3.8158   23.4354 C   0  0  0  0  0  0
  -21.9190   -4.6982   22.3420 C   0  0  0  0  0  0
  -22.7873  -13.5286   21.1864 C   0  0  0  0  0  0
  -22.1652   -4.2181   21.0989 F   0  0  0  0  0  0
  -21.5625   -3.4529   25.7742 F   0  0  0  0  0  0
  -30.0395  -13.2906   20.4542 N   0  0  0  0  0  0
  -26.3016  -12.9357   20.3299 N   0  0  0  0  0  0
  -25.9311  -11.6516   20.5742 N   0  0  0  0  0  0
  -22.0408  -12.8346   22.0382 N   0  0  0  0  0  0
  -25.4352  -15.1917   20.4090 N   0  0  0  0  0  0
  -31.8672  -14.5640   20.0186 O   0  0  0  0  0  0
  -21.6627   -6.8911   21.4262 O   0  0  0  0  0  0
  -22.3609  -14.5580   20.6653 O   0  0  0  0  0  0
  -24.6118  -31.8698   23.2135 C   0  0  0  0  0  0
  -25.9011  -32.4833   23.8420 C   0  0  1  0  0  0
  -27.2424  -27.4459   20.0885 C   0  0  0  0  0  0
  -25.5881  -33.8633   24.2349 N   0  0  0  0  0  0
  -23.3993  -30.4933   21.5542 C   0  0  2  0  0  0
  -24.8462  -28.9629   20.1164 C   0  0  0  0  0  0
  -22.7397  -29.4663   22.5018 C   0  0  0  0  0  0
  -18.0258  -28.1384   22.8501 C   0  0  0  0  0  0
  -24.1475  -36.7313   23.2640 C   0  0  0  0  0  0
  -25.9257  -30.8392   21.3626 C   0  0  0  0  0  0
  -26.0049  -29.4731   20.7125 C   0  0  0  0  0  0
  -27.2008  -28.7201   20.7019 C   0  0  0  0  0  0
  -26.0575  -26.9485   19.4920 C   0  0  0  0  0  0
  -24.8668  -27.6984   19.5063 C   0  0  0  0  0  0
  -23.6050  -29.8262   20.1684 C   0  0  0  0  0  0
  -25.4096  -36.3119   24.0344 C   0  0  1  0  0  0
  -20.5853  -28.3666   23.1337 C   0  0  2  0  0  0
  -20.6753  -26.9405   22.5438 C   0  0  0  0  0  0
  -19.5726  -26.6389   21.5235 C   0  0  0  0  0  0
  -18.1904  -26.7931   22.1638 C   0  0  0  0  0  0
  -19.1511  -28.8841   23.2914 C   0  0  0  0  0  0
  -18.9434  -30.1450   23.8920 C   0  0  0  0  0  0
  -17.6438  -30.6590   24.0569 C   0  0  0  0  0  0
  -25.9026  -34.9483   23.5138 C   0  0  0  0  0  0
  -16.5332  -29.9095   23.6323 C   0  0  0  0  0  0
  -16.7250  -28.6515   23.0346 C   0  0  0  0  0  0
  -26.4464  -31.6598   25.0728 C   0  0  0  0  0  0
  -25.3762  -31.3687   26.1499 C   0  0  0  0  0  0
  -27.0263  -30.3039   24.6058 C   0  0  0  0  0  0
  -27.6047  -32.4327   25.7464 C   0  0  0  0  0  0
  -27.5576  -37.1802   24.8467 C   0  0  0  0  0  0
  -21.4130  -29.3029   22.3749 N   0  0  0  0  0  0
  -26.4288  -37.3801   23.9416 N   0  0  0  0  0  0
  -24.6641  -31.0817   22.1021 N   0  0  0  0  0  0
  -23.4176  -28.8206   23.3051 O   0  0  0  0  0  0
  -28.4339  -26.7420   20.1033 O   0  0  0  0  0  0
  -26.5594  -34.8932   22.4706 O   0  0  0  0  0  0
  -23.5315  -32.1439   23.7533 O   0  0  0  0  0  0
  -30.6227  -24.5762   21.9383 C   0  0  0  0  0  0
  -30.3293  -22.3865   22.2803 C   0  0  0  0  0  0
  -30.1375  -24.0501   20.7717 C   0  0  0  0  0  0
  -29.9555  -22.6368   20.9831 C   0  0  0  0  0  0
  -31.2228  -23.7198   24.2262 C   0  0  0  0  0  0
  -30.1375  -15.2559   22.8077 C   0  0  0  0  0  0
  -29.8927  -24.8365   19.4959 C   0  0  0  0  0  0
  -29.4634  -21.6179   19.9596 C   0  0  0  0  0  0
  -29.5958  -17.8871   21.0710 C   0  0  0  0  0  0
  -30.7204  -16.8259   21.0158 C   0  0  0  0  0  0
  -30.0959  -19.2732   20.5778 C   0  0  0  0  0  0
  -28.4995  -25.4943   19.4043 C   0  0  0  0  0  0
  -30.7399  -23.5659   22.8671 N   0  0  0  0  0  0
  -30.2988  -15.4420   21.3599 N   0  0  0  0  0  0
  -29.0408  -20.3160   20.5358 N   0  3  0  0  0  0
  -31.4533  -12.3349   19.1398 H   0  0  0  0  0  0
  -30.2554  -11.2856   19.8314 H   0  0  0  0  0  0
  -29.7425  -11.7980   17.4260 H   0  0  0  0  0  0
  -29.6736  -13.5049   17.7894 H   0  0  0  0  0  0
  -27.8317  -11.3119   18.8192 H   0  0  0  0  0  0
  -27.3708  -12.6283   17.7738 H   0  0  0  0  0  0
  -27.6971  -14.2600   19.5590 H   0  0  0  0  0  0
  -28.6545  -11.9942   21.3661 H   0  0  0  0  0  0
  -28.4150  -13.6515   21.8276 H   0  0  0  0  0  0
  -25.2719   -9.5715   22.4815 H   0  0  0  0  0  0
  -24.0005   -7.4638   22.7459 H   0  0  0  0  0  0
  -21.0860   -8.8772   19.8973 H   0  0  0  0  0  0
  -22.3678  -10.9689   19.6193 H   0  0  0  0  0  0
  -21.2001   -7.6148   23.9776 H   0  0  0  0  0  0
  -21.1497   -6.0498   25.9104 H   0  0  0  0  0  0
  -22.0590   -2.7624   23.2831 H   0  0  0  0  0  0
  -22.3869  -12.0009   22.4909 H   0  0  0  0  0  0
  -21.1037  -13.1488   22.2427 H   0  0  0  0  0  0
  -24.6818  -15.8616   20.5329 H   0  0  0  0  0  0
  -26.3036  -15.6233   20.1163 H   0  0  0  0  0  0
  -26.7074  -32.5555   23.1184 H   0  0  0  0  0  0
  -25.0024  -33.9809   25.0485 H   0  0  0  0  0  0
  -22.6852  -31.3088   21.4184 H   0  0  0  0  0  0
  -23.3741  -35.9646   23.3324 H   0  0  0  0  0  0
  -24.3569  -36.8903   22.2054 H   0  0  0  0  0  0
  -23.7224  -37.6522   23.6638 H   0  0  0  0  0  0
  -26.0290  -31.6049   20.5926 H   0  0  0  0  0  0
  -26.8172  -30.8989   21.9757 H   0  0  0  0  0  0
  -28.0936  -29.1166   21.1644 H   0  0  0  0  0  0
  -26.0239  -25.9834   19.0108 H   0  0  0  0  0  0
  -23.9756  -27.2971   19.0443 H   0  0  0  0  0  0
  -23.7032  -30.6011   19.4070 H   0  0  0  0  0  0
  -22.7305  -29.2409   19.8787 H   0  0  0  0  0  0
  -25.1268  -36.1996   25.0838 H   0  0  0  0  0  0
  -20.9936  -28.3235   24.1464 H   0  0  0  0  0  0
  -20.5679  -26.2275   23.3625 H   0  0  0  0  0  0
  -21.6619  -26.7468   22.1209 H   0  0  0  0  0  0
  -19.6889  -25.6310   21.1245 H   0  0  0  0  0  0
  -19.6662  -27.3221   20.6786 H   0  0  0  0  0  0
  -17.4185  -26.6701   21.4024 H   0  0  0  0  0  0
  -18.0276  -26.0067   22.9020 H   0  0  0  0  0  0
  -19.7914  -30.7263   24.2288 H   0  0  0  0  0  0
  -17.4995  -31.6268   24.5170 H   0  0  0  0  0  0
  -15.5332  -30.3005   23.7631 H   0  0  0  0  0  0
  -15.8651  -28.0847   22.7035 H   0  0  0  0  0  0
  -24.5943  -30.7008   25.7868 H   0  0  0  0  0  0
  -24.8941  -32.2827   26.4973 H   0  0  0  0  0  0
  -25.8157  -30.8867   27.0239 H   0  0  0  0  0  0
  -26.2765  -29.6828   24.1138 H   0  0  0  0  0  0
  -27.4062  -29.7244   25.4480 H   0  0  0  0  0  0
  -27.8598  -30.4352   23.9156 H   0  0  0  0  0  0
  -27.2656  -33.3609   26.2073 H   0  0  0  0  0  0
  -28.3815  -32.6922   25.0262 H   0  0  0  0  0  0
  -28.0759  -31.8446   26.5347 H   0  0  0  0  0  0
  -28.2612  -38.0082   24.7506 H   0  0  0  0  0  0
  -28.1048  -36.2616   24.6291 H   0  0  0  0  0  0
  -27.2299  -37.1459   25.8871 H   0  0  0  0  0  0
  -20.9296  -29.8746   21.6968 H   0  0  0  0  0  0
  -26.0181  -38.2879   24.1435 H   0  0  0  0  0  0
  -30.9067  -25.5914   22.1898 H   0  0  0  0  0  0
  -30.3523  -21.4668   22.8505 H   0  0  0  0  0  0
  -30.9505  -24.7015   24.6107 H   0  0  0  0  0  0
  -32.3084  -23.6186   24.2473 H   0  0  0  0  0  0
  -30.7851  -22.9570   24.8715 H   0  0  0  0  0  0
  -30.9037  -15.7909   23.3661 H   0  0  0  0  0  0
  -30.2132  -14.2084   23.1108 H   0  0  0  0  0  0
  -29.1625  -15.6275   23.1276 H   0  0  0  0  0  0
  -30.0286  -24.1645   18.6486 H   0  0  0  0  0  0
  -30.6669  -25.5988   19.3914 H   0  0  0  0  0  0
  -30.2300  -21.4693   19.1973 H   0  0  0  0  0  0
  -28.6048  -22.0520   19.4471 H   0  0  0  0  0  0
  -29.2243  -17.9717   22.0928 H   0  0  0  0  0  0
  -28.7554  -17.5554   20.4576 H   0  0  0  0  0  0
  -31.5516  -17.1229   21.6601 H   0  0  0  0  0  0
  -31.1248  -16.8624   20.0002 H   0  0  0  0  0  0
  -30.5045  -19.1639   19.5706 H   0  0  0  0  0  0
  -30.9164  -19.6199   21.2072 H   0  0  0  0  0  0
  -27.7484  -24.7949   19.7768 H   0  0  0  0  0  0
  -28.2829  -25.6869   18.3522 H   0  0  0  0  0  0
  -28.2965  -19.9722   19.9519 H   0  0  0  0  0  0
  -28.6538  -20.4822   21.4500 H   0  0  0  0  0  0
  1 25  1  0  0  0
  1 30  2  0  0  0
  1 84  1  0  0  0
  2  3  1  0  0  0
  2 25  1  0  0  0
  2 86  1  0  0  0
  2 87  1  0  0  0
  3  4  1  0  0  0
  3 88  1  0  0  0
  3 89  1  0  0  0
  4  5  1  0  0  0
  4 90  1  0  0  0
  4 91  1  0  0  0
  5  6  1  0  0  0
  5 26  1  0  0  0
  5 92  1  0  0  0
  6 25  1  0  0  0
  6 93  1  0  0  0
  6 94  1  0  0  0
  7  8  2  0  0  0
  7 26  1  0  0  0
  7 29  1  0  0  0
  8  9  1  0  0  0
  8 22  1  0  0  0
  9 10  1  0  0  0
  9 27  2  0  0  0
 10 11  2  0  0  0
 10 15  1  0  0  0
 11 12  1  0  0  0
 11 95  1  0  0  0
 12 13  2  0  0  0
 12 96  1  0  0  0
 13 14  1  0  0  0
 13 31  1  0  0  0
 14 15  2  0  0  0
 14 97  1  0  0  0
 15 98  1  0  0  0
 16 17  2  0  0  0
 16 21  1  0  0  0
 16 31  1  0  0  0
 17 18  1  0  0  0
 17 99  1  0  0  0
 18 19  2  0  0  0
 18100  1  0  0  0
 19 20  1  0  0  0
 19 24  1  0  0  0
 20 21  2  0  0  0
 20101  1  0  0  0
 21 23  1  0  0  0
 22 28  1  0  0  0
 22 32  2  0  0  0
 26 27  1  0  0  0
 28102  1  0  0  0
 28103  1  0  0  0
 29104  1  0  0  0
 29105  1  0  0  0
 33 34  1  0  0  0
 33 66  1  0  0  0
 33 70  2  0  0  0
 34 36  1  0  0  0
 34 59  1  0  0  0
 34106  1  0  0  0
 35 44  2  0  0  0
 35 45  1  0  0  0
 35 68  1  0  0  0
 36 56  1  0  0  0
 36107  1  0  0  0
 37 39  1  0  0  0
 37 47  1  0  0  0
 37 66  1  0  0  0
 37108  1  0  0  0
 38 43  2  0  0  0
 38 46  1  0  0  0
 38 47  1  0  0  0
 39 64  1  0  0  0
 39 67  2  0  0  0
 40 52  1  0  0  0
 40 53  2  0  0  0
 40 58  1  0  0  0
 41109  1  0  0  0
 41110  1  0  0  0
 41111  1  0  0  0
 41 48  1  0  0  0
 42 43  1  0  0  0
 42 66  1  0  0  0
 42112  1  0  0  0
 42113  1  0  0  0
 43 44  1  0  0  0
 44114  1  0  0  0
 45 46  2  0  0  0
 45115  1  0  0  0
 46116  1  0  0  0
 47117  1  0  0  0
 47118  1  0  0  0
 48 56  1  0  0  0
 48 65  1  0  0  0
 48119  1  0  0  0
 49 50  1  0  0  0
 49 53  1  0  0  0
 49 64  1  0  0  0
 49120  1  0  0  0
 50 51  1  0  0  0
 50121  1  0  0  0
 50122  1  0  0  0
 51 52  1  0  0  0
 51123  1  0  0  0
 51124  1  0  0  0
 52125  1  0  0  0
 52126  1  0  0  0
 53 54  1  0  0  0
 54 55  2  0  0  0
 54127  1  0  0  0
 55 57  1  0  0  0
 55128  1  0  0  0
 56 69  2  0  0  0
 57 58  2  0  0  0
 57129  1  0  0  0
 58130  1  0  0  0
 59 60  1  0  0  0
 59 61  1  0  0  0
 59 62  1  0  0  0
 60131  1  0  0  0
 60132  1  0  0  0
 60133  1  0  0  0
 61134  1  0  0  0
 61135  1  0  0  0
 61136  1  0  0  0
 62137  1  0  0  0
 62138  1  0  0  0
 62139  1  0  0  0
 63 65  1  0  0  0
 63140  1  0  0  0
 63141  1  0  0  0
 63142  1  0  0  0
 64143  1  0  0  0
 65144  1  0  0  0
 68 82  1  0  0  0
 71 73  2  0  0  0
 71 83  1  0  0  0
 71145  1  0  0  0
 72 74  2  0  0  0
 72 83  1  0  0  0
 72146  1  0  0  0
 73 74  1  0  0  0
 73 77  1  0  0  0
 74 78  1  0  0  0
 75 83  1  0  0  0
 75147  1  0  0  0
 75148  1  0  0  0
 75149  1  0  0  0
 76 84  1  0  0  0
 76150  1  0  0  0
 76151  1  0  0  0
 76152  1  0  0  0
 77 82  1  0  0  0
 77153  1  0  0  0
 77154  1  0  0  0
 78 85  1  0  0  0
 78155  1  0  0  0
 78156  1  0  0  0
 79 80  1  0  0  0
 79 81  1  0  0  0
 79157  1  0  0  0
 79158  1  0  0  0
 80 84  1  0  0  0
 80159  1  0  0  0
 80160  1  0  0  0
 81 85  1  0  0  0
 81161  1  0  0  0
 81162  1  0  0  0
 82163  1  0  0  0
 82164  1  0  0  0
 85165  1  0  0  0
 85166  1  0  0  0
M  CHG  1  85   1
M  ISO  4   1 100  68 101  82 101  84 100
M  END
> <chiral flag>
0

> <version>
0

> <s_m_source_file>
/data/baiqing/PycharmProjects/Reinvent-master-3.2/result/LINK_invent/BTK/process_docking_weight1_custom_sum_contain_oxygen_bond_distance_aromatic_linkinvent_7_9_3/rearranged_h_0051.sdf

> <i_m_source_file_index>
51

> <r_mmod_Potential_Energy-OPLS-2005>
-100.407768249512

> <r_mmod_Stretch_Energy-OPLS-2005>
39.074405670166

> <r_mmod_Bend_Energy-OPLS-2005>
111.55379486084

> <r_mmod_Torsional_Energy-OPLS-2005>
255.924331665039

> <r_mmod_Improper_Torsional_Energy-OPLS-2005>
6.49589872360229

> <r_mmod_Van_der_Waal_Energy-OPLS-2005>
138.150421142578

> <r_mmod_Electrostatic_Energy-OPLS-2005>
-204.818420410156

> <r_mmod_Solvation_Energy-OPLS-2005>
-458.699340820312

> <b_mmod_Minimization_Converged-OPLS-2005>
0

> <r_mmod_RMS_Derivative-OPLS-2005>
3.27007818222046

$$$$
52
                    3D
 Structure written by MMmdl.
161169  0  0  1  0            999 V2000
  -30.6096  -14.7379   20.4426 C   0  0  0  0  0  0
  -30.4259  -12.4386   19.4958 C   0  0  0  0  0  0
  -29.5236  -12.5126   18.2444 C   0  0  0  0  0  0
  -28.0385  -12.3661   18.6339 C   0  0  0  0  0  0
  -27.6439  -13.2436   19.8540 C   0  0  2  0  0  0
  -28.6829  -13.1606   20.9955 C   0  0  0  0  0  0
  -25.2511  -13.8220   20.5700 C   0  0  0  0  0  0
  -24.1811  -13.0442   20.9195 C   0  0  0  0  0  0
  -24.6416  -11.6927   20.8708 C   0  0  0  0  0  0
  -23.9100  -10.4292   21.0352 C   0  0  0  0  0  0
  -24.3633   -9.4212   21.9138 C   0  0  0  0  0  0
  -23.6307   -8.2246   22.0730 C   0  0  0  0  0  0
  -22.4292   -8.0275   21.3518 C   0  0  0  0  0  0
  -21.9927   -9.0255   20.4633 C   0  0  0  0  0  0
  -22.7257  -10.2133   20.3025 C   0  0  0  0  0  0
  -21.6863   -6.0738   22.5268 C   0  0  0  0  0  0
  -21.4029   -6.5640   23.8205 C   0  0  0  0  0  0
  -21.3665   -5.6781   24.9155 C   0  0  0  0  0  0
  -21.6054   -4.3051   24.7200 C   0  0  0  0  0  0
  -21.8823   -3.8147   23.4322 C   0  0  0  0  0  0
  -21.9200   -4.6965   22.3380 C   0  0  0  0  0  0
  -22.7825  -13.5211   21.1843 C   0  0  0  0  0  0
  -22.1660   -4.2151   21.0956 F   0  0  0  0  0  0
  -21.5620   -3.4535   25.7713 F   0  0  0  0  0  0
  -29.9903  -13.5065   20.4267 N   0  0  0  0  0  0
  -26.2949  -12.9458   20.3254 N   0  0  0  0  0  0
  -25.9360  -11.6583   20.5720 N   0  0  0  0  0  0
  -22.0471  -12.8216   22.0404 N   0  0  0  0  0  0
  -25.4166  -15.1950   20.4154 N   0  0  0  0  0  0
  -31.7874  -14.8288   20.0922 O   0  0  0  0  0  0
  -21.6646   -6.8877   21.4229 O   0  0  0  0  0  0
  -22.3500  -14.5495   20.6655 O   0  0  0  0  0  0
  -24.6338  -31.8546   23.1962 C   0  0  0  0  0  0
  -25.9153  -32.4764   23.8317 C   0  0  1  0  0  0
  -27.2192  -27.2371   20.1316 C   0  0  0  0  0  0
  -25.5934  -33.8556   24.2246 N   0  0  0  0  0  0
  -23.4339  -30.4789   21.5387 C   0  0  2  0  0  0
  -24.8824  -28.9259   20.1070 C   0  0  0  0  0  0
  -22.7539  -29.4611   22.4882 C   0  0  0  0  0  0
  -18.0314  -28.1416   22.8495 C   0  0  0  0  0  0
  -24.1489  -36.7280   23.2637 C   0  0  0  0  0  0
  -25.9838  -30.7569   21.3852 C   0  0  0  0  0  0
  -26.0553  -29.3786   20.7250 C   0  0  0  0  0  0
  -27.2253  -28.5474   20.7280 C   0  0  0  0  0  0
  -26.0242  -26.8690   19.4700 C   0  0  0  0  0  0
  -24.8757  -27.6811   19.4655 C   0  0  0  0  0  0
  -23.6546  -29.8162   20.1544 C   0  0  0  0  0  0
  -25.4112  -36.3068   24.0334 C   0  0  1  0  0  0
  -20.5922  -28.3718   23.1266 C   0  0  2  0  0  0
  -20.6815  -26.9436   22.5414 C   0  0  0  0  0  0
  -19.5783  -26.6398   21.5237 C   0  0  0  0  0  0
  -18.1959  -26.7954   22.1641 C   0  0  0  0  0  0
  -19.1564  -28.8881   23.2875 C   0  0  0  0  0  0
  -18.9476  -30.1492   23.8904 C   0  0  0  0  0  0
  -17.6471  -30.6606   24.0572 C   0  0  0  0  0  0
  -25.9056  -34.9438   23.5099 C   0  0  0  0  0  0
  -16.5365  -29.9110   23.6338 C   0  0  0  0  0  0
  -16.7296  -28.6524   23.0350 C   0  0  0  0  0  0
  -26.4477  -31.6602   25.0720 C   0  0  0  0  0  0
  -25.3648  -31.3792   26.1396 C   0  0  0  0  0  0
  -27.0318  -30.3009   24.6243 C   0  0  0  0  0  0
  -27.6037  -32.4330   25.7495 C   0  0  0  0  0  0
  -27.5592  -37.1803   24.8462 C   0  0  0  0  0  0
  -21.4231  -29.3043   22.3629 N   0  0  0  0  0  0
  -26.4290  -37.3769   23.9410 N   0  0  0  0  0  0
  -24.7031  -31.0488   22.0957 N   0  0  0  0  0  0
  -23.4216  -28.8148   23.2987 O   0  0  0  0  0  0
  -28.2952  -26.3071   20.2021 O   0  0  0  0  0  0
  -26.5630  -34.8922   22.4667 O   0  0  0  0  0  0
  -23.5478  -32.1370   23.7241 O   0  0  0  0  0  0
  -29.3096  -20.7442   20.2205 C   0  0  0  0  0  0
  -29.8790  -18.6256   20.0951 C   0  0  0  0  0  0
  -28.9245  -16.8832   18.4818 C   0  0  0  0  0  0
  -33.3876  -19.9798   20.3707 C   0  0  0  0  0  0
  -32.5796  -18.9880   18.1639 C   0  0  0  0  0  0
  -28.4507  -22.0672   20.0526 C   0  0  0  0  0  0
  -28.9825  -23.5803   20.3597 C   0  0  0  0  0  0
  -28.0088  -24.8344   19.9775 C   0  0  0  0  0  0
  -29.9164  -17.0943   19.6366 C   0  0  2  0  0  0
  -32.3656  -19.0479   19.6893 C   0  0  0  0  0  0
  -28.7970  -19.4379   20.3002 N   0  0  0  0  0  0
  -30.6270  -20.7440   20.0372 N   0  0  0  0  0  0
  -30.9808  -19.4109   20.0038 N   0  0  0  0  0  0
  -29.8318  -15.8821   20.5673 N   0  0  0  0  0  0
  -31.4734  -12.5383   19.2088 H   0  0  0  0  0  0
  -30.3431  -11.4611   19.9732 H   0  0  0  0  0  0
  -29.8048  -11.7372   17.5299 H   0  0  0  0  0  0
  -29.6799  -13.4629   17.7326 H   0  0  0  0  0  0
  -27.8615  -11.3148   18.8591 H   0  0  0  0  0  0
  -27.4056  -12.6063   17.7771 H   0  0  0  0  0  0
  -27.6427  -14.2720   19.4931 H   0  0  0  0  0  0
  -28.7040  -12.1591   21.4295 H   0  0  0  0  0  0
  -28.4182  -13.8417   21.8042 H   0  0  0  0  0  0
  -25.2773   -9.5712   22.4710 H   0  0  0  0  0  0
  -24.0014   -7.4670   22.7481 H   0  0  0  0  0  0
  -21.0840   -8.8791   19.8962 H   0  0  0  0  0  0
  -22.3696  -10.9664   19.6139 H   0  0  0  0  0  0
  -21.2024   -7.6150   23.9712 H   0  0  0  0  0  0
  -21.1486   -6.0498   25.9056 H   0  0  0  0  0  0
  -22.0600   -2.7613   23.2808 H   0  0  0  0  0  0
  -22.4121  -11.9919   22.4837 H   0  0  0  0  0  0
  -21.1076  -13.1235   22.2564 H   0  0  0  0  0  0
  -24.6465  -15.8445   20.5392 H   0  0  0  0  0  0
  -26.2607  -15.6413   20.0835 H   0  0  0  0  0  0
  -26.7223  -32.5405   23.1056 H   0  0  0  0  0  0
  -25.0071  -33.9680   25.0389 H   0  0  0  0  0  0
  -22.7323  -31.3029   21.3947 H   0  0  0  0  0  0
  -23.3771  -35.9599   23.3284 H   0  0  0  0  0  0
  -24.3593  -36.8918   22.2063 H   0  0  0  0  0  0
  -23.7237  -37.6471   23.6664 H   0  0  0  0  0  0
  -26.1328  -31.5170   20.6167 H   0  0  0  0  0  0
  -26.8579  -30.8014   22.0235 H   0  0  0  0  0  0
  -28.1172  -28.8855   21.2368 H   0  0  0  0  0  0
  -25.9381  -25.9225   18.9595 H   0  0  0  0  0  0
  -23.9832  -27.3326   18.9624 H   0  0  0  0  0  0
  -23.7831  -30.5941   19.4009 H   0  0  0  0  0  0
  -22.7716  -29.2526   19.8476 H   0  0  0  0  0  0
  -25.1308  -36.1903   25.0835 H   0  0  0  0  0  0
  -21.0033  -28.3311   24.1377 H   0  0  0  0  0  0
  -20.5771  -26.2325   23.3613 H   0  0  0  0  0  0
  -21.6675  -26.7495   22.1181 H   0  0  0  0  0  0
  -19.6938  -25.6302   21.1290 H   0  0  0  0  0  0
  -19.6731  -27.3192   20.6753 H   0  0  0  0  0  0
  -17.4241  -26.6715   21.4030 H   0  0  0  0  0  0
  -18.0346  -26.0102   22.9043 H   0  0  0  0  0  0
  -19.7940  -30.7317   24.2268 H   0  0  0  0  0  0
  -17.5015  -31.6286   24.5181 H   0  0  0  0  0  0
  -15.5365  -30.3006   23.7653 H   0  0  0  0  0  0
  -15.8700  -28.0856   22.7039 H   0  0  0  0  0  0
  -24.5822  -30.7156   25.7701 H   0  0  0  0  0  0
  -24.8812  -32.2967   26.4754 H   0  0  0  0  0  0
  -25.7885  -30.8993   27.0218 H   0  0  0  0  0  0
  -26.2912  -29.6778   24.1211 H   0  0  0  0  0  0
  -27.3916  -29.7270   25.4793 H   0  0  0  0  0  0
  -27.8828  -30.4298   23.9553 H   0  0  0  0  0  0
  -27.2673  -33.3650   26.2046 H   0  0  0  0  0  0
  -28.3848  -32.6857   25.0316 H   0  0  0  0  0  0
  -28.0674  -31.8449   26.5419 H   0  0  0  0  0  0
  -28.2589  -38.0118   24.7524 H   0  0  0  0  0  0
  -28.1107  -36.2652   24.6256 H   0  0  0  0  0  0
  -27.2312  -37.1421   25.8862 H   0  0  0  0  0  0
  -20.9418  -29.8727   21.6805 H   0  0  0  0  0  0
  -26.0175  -38.2851   24.1385 H   0  0  0  0  0  0
  -29.0940  -17.6096   17.6850 H   0  0  0  0  0  0
  -27.8962  -17.0001   18.8209 H   0  0  0  0  0  0
  -29.0258  -15.8890   18.0440 H   0  0  0  0  0  0
  -34.4043  -19.6060   20.2415 H   0  0  0  0  0  0
  -33.1955  -20.0519   21.4424 H   0  0  0  0  0  0
  -33.3545  -20.9924   19.9659 H   0  0  0  0  0  0
  -33.5599  -18.5802   17.9178 H   0  0  0  0  0  0
  -32.5044  -19.9769   17.7100 H   0  0  0  0  0  0
  -31.8386  -18.3546   17.6750 H   0  0  0  0  0  0
  -27.5508  -21.9219   20.6509 H   0  0  0  0  0  0
  -28.0917  -22.0632   19.0231 H   0  0  0  0  0  0
  -29.9266  -23.7156   19.8311 H   0  0  0  0  0  0
  -29.2300  -23.6387   21.4199 H   0  0  0  0  0  0
  -27.0667  -24.6234   20.4841 H   0  0  0  0  0  0
  -27.8023  -24.7305   18.9107 H   0  0  0  0  0  0
  -30.8801  -16.9641   19.1522 H   0  0  0  0  0  0
  -32.5399  -18.0523   20.1018 H   0  0  0  0  0  0
  -28.9231  -15.7382   20.9810 H   0  0  0  0  0  0
  1 25  1  0  0  0
  1 30  2  0  0  0
  1 84  1  0  0  0
  2  3  1  0  0  0
  2 25  1  0  0  0
  2 85  1  0  0  0
  2 86  1  0  0  0
  3  4  1  0  0  0
  3 87  1  0  0  0
  3 88  1  0  0  0
  4  5  1  0  0  0
  4 89  1  0  0  0
  4 90  1  0  0  0
  5  6  1  0  0  0
  5 26  1  0  0  0
  5 91  1  0  0  0
  6 25  1  0  0  0
  6 92  1  0  0  0
  6 93  1  0  0  0
  7  8  2  0  0  0
  7 26  1  0  0  0
  7 29  1  0  0  0
  8  9  1  0  0  0
  8 22  1  0  0  0
  9 10  1  0  0  0
  9 27  2  0  0  0
 10 11  2  0  0  0
 10 15  1  0  0  0
 11 12  1  0  0  0
 11 94  1  0  0  0
 12 13  2  0  0  0
 12 95  1  0  0  0
 13 14  1  0  0  0
 13 31  1  0  0  0
 14 15  2  0  0  0
 14 96  1  0  0  0
 15 97  1  0  0  0
 16 17  2  0  0  0
 16 21  1  0  0  0
 16 31  1  0  0  0
 17 18  1  0  0  0
 17 98  1  0  0  0
 18 19  2  0  0  0
 18 99  1  0  0  0
 19 20  1  0  0  0
 19 24  1  0  0  0
 20 21  2  0  0  0
 20100  1  0  0  0
 21 23  1  0  0  0
 22 28  1  0  0  0
 22 32  2  0  0  0
 26 27  1  0  0  0
 28101  1  0  0  0
 28102  1  0  0  0
 29103  1  0  0  0
 29104  1  0  0  0
 33 34  1  0  0  0
 33 66  1  0  0  0
 33 70  2  0  0  0
 34 36  1  0  0  0
 34 59  1  0  0  0
 34105  1  0  0  0
 35 44  2  0  0  0
 35 45  1  0  0  0
 35 68  1  0  0  0
 36 56  1  0  0  0
 36106  1  0  0  0
 37 39  1  0  0  0
 37 47  1  0  0  0
 37 66  1  0  0  0
 37107  1  0  0  0
 38 43  2  0  0  0
 38 46  1  0  0  0
 38 47  1  0  0  0
 39 64  1  0  0  0
 39 67  2  0  0  0
 40 52  1  0  0  0
 40 53  2  0  0  0
 40 58  1  0  0  0
 41108  1  0  0  0
 41109  1  0  0  0
 41110  1  0  0  0
 41 48  1  0  0  0
 42 43  1  0  0  0
 42 66  1  0  0  0
 42111  1  0  0  0
 42112  1  0  0  0
 43 44  1  0  0  0
 44113  1  0  0  0
 45 46  2  0  0  0
 45114  1  0  0  0
 46115  1  0  0  0
 47116  1  0  0  0
 47117  1  0  0  0
 48 56  1  0  0  0
 48 65  1  0  0  0
 48118  1  0  0  0
 49 50  1  0  0  0
 49 53  1  0  0  0
 49 64  1  0  0  0
 49119  1  0  0  0
 50 51  1  0  0  0
 50120  1  0  0  0
 50121  1  0  0  0
 51 52  1  0  0  0
 51122  1  0  0  0
 51123  1  0  0  0
 52124  1  0  0  0
 52125  1  0  0  0
 53 54  1  0  0  0
 54 55  2  0  0  0
 54126  1  0  0  0
 55 57  1  0  0  0
 55127  1  0  0  0
 56 69  2  0  0  0
 57 58  2  0  0  0
 57128  1  0  0  0
 58129  1  0  0  0
 59 60  1  0  0  0
 59 61  1  0  0  0
 59 62  1  0  0  0
 60130  1  0  0  0
 60131  1  0  0  0
 60132  1  0  0  0
 61133  1  0  0  0
 61134  1  0  0  0
 61135  1  0  0  0
 62136  1  0  0  0
 62137  1  0  0  0
 62138  1  0  0  0
 63 65  1  0  0  0
 63139  1  0  0  0
 63140  1  0  0  0
 63141  1  0  0  0
 64142  1  0  0  0
 65143  1  0  0  0
 68 78  1  0  0  0
 71 76  1  0  0  0
 71 81  1  0  0  0
 71 82  2  0  0  0
 72 79  1  0  0  0
 72 81  2  0  0  0
 72 83  1  0  0  0
 73144  1  0  0  0
 73145  1  0  0  0
 73146  1  0  0  0
 73 79  1  0  0  0
 74147  1  0  0  0
 74148  1  0  0  0
 74149  1  0  0  0
 74 80  1  0  0  0
 75 80  1  0  0  0
 75150  1  0  0  0
 75151  1  0  0  0
 75152  1  0  0  0
 76 77  1  0  0  0
 76153  1  0  0  0
 76154  1  0  0  0
 77 78  1  0  0  0
 77155  1  0  0  0
 77156  1  0  0  0
 78157  1  0  0  0
 78158  1  0  0  0
 79 84  1  0  0  0
 79159  1  0  0  0
 80 83  1  0  0  0
 80160  1  0  0  0
 82 83  1  0  0  0
 84161  1  0  0  0
M  ISO  4   1 100  68 101  78 101  84 100
M  END
> <chiral flag>
0

> <version>
0

> <s_m_source_file>
/data/baiqing/PycharmProjects/Reinvent-master-3.2/result/LINK_invent/BTK/process_docking_weight1_custom_sum_contain_oxygen_bond_distance_aromatic_linkinvent_7_9_3/rearranged_h_0051.sdf

> <i_m_source_file_index>
52

> <r_mmod_Potential_Energy-OPLS-2005>
119.01872253418

> <r_mmod_Stretch_Energy-OPLS-2005>
138.099090576172

> <r_mmod_Bend_Energy-OPLS-2005>
203.002075195312

> <r_mmod_Torsional_Energy-OPLS-2005>
252.015655517578

> <r_mmod_Improper_Torsional_Energy-OPLS-2005>
13.3023462295532

> <r_mmod_Van_der_Waal_Energy-OPLS-2005>
117.938270568848

> <r_mmod_Electrostatic_Energy-OPLS-2005>
-477.125854492188

> <r_mmod_Solvation_Energy-OPLS-2005>
-220.876953125

> <b_mmod_Minimization_Converged-OPLS-2005>
0

> <r_mmod_RMS_Derivative-OPLS-2005>
3.08666896820068

$$$$
53
                    3D
 Structure written by MMmdl.
178186  0  0  1  0            999 V2000
  -30.7819  -14.3584   20.6534 C   0  0  0  0  0  0
  -30.4098  -12.2728   19.4030 C   0  0  0  0  0  0
  -29.4885  -12.5194   18.1942 C   0  0  0  0  0  0
  -28.0094  -12.3810   18.6043 C   0  0  0  0  0  0
  -27.6627  -13.2051   19.8726 C   0  0  2  0  0  0
  -28.6992  -12.9591   20.9883 C   0  0  0  0  0  0
  -25.2592  -13.8157   20.5665 C   0  0  0  0  0  0
  -24.1844  -13.0440   20.9159 C   0  0  0  0  0  0
  -24.6393  -11.6899   20.8711 C   0  0  0  0  0  0
  -23.9056  -10.4290   21.0391 C   0  0  0  0  0  0
  -24.3616   -9.4212   21.9175 C   0  0  0  0  0  0
  -23.6295   -8.2246   22.0752 C   0  0  0  0  0  0
  -22.4270   -8.0282   21.3541 C   0  0  0  0  0  0
  -21.9907   -9.0252   20.4642 C   0  0  0  0  0  0
  -22.7229  -10.2126   20.3046 C   0  0  0  0  0  0
  -21.6857   -6.0734   22.5282 C   0  0  0  0  0  0
  -21.4015   -6.5646   23.8214 C   0  0  0  0  0  0
  -21.3660   -5.6791   24.9173 C   0  0  0  0  0  0
  -21.6042   -4.3056   24.7222 C   0  0  0  0  0  0
  -21.8818   -3.8142   23.4345 C   0  0  0  0  0  0
  -21.9193   -4.6961   22.3405 C   0  0  0  0  0  0
  -22.7868  -13.5243   21.1839 C   0  0  0  0  0  0
  -22.1659   -4.2147   21.0981 F   0  0  0  0  0  0
  -21.5630   -3.4539   25.7734 F   0  0  0  0  0  0
  -30.0398  -13.2404   20.4450 N   0  0  0  0  0  0
  -26.3028  -12.9327   20.3333 N   0  0  0  0  0  0
  -25.9313  -11.6489   20.5725 N   0  0  0  0  0  0
  -22.0510  -12.8226   22.0388 N   0  0  0  0  0  0
  -25.4326  -15.1881   20.4095 N   0  0  0  0  0  0
  -31.9096  -14.5098   20.1877 O   0  0  0  0  0  0
  -21.6638   -6.8878   21.4244 O   0  0  0  0  0  0
  -22.3557  -14.5552   20.6697 O   0  0  0  0  0  0
  -24.6109  -31.8736   23.2129 C   0  0  0  0  0  0
  -25.9017  -32.4848   23.8408 C   0  0  1  0  0  0
  -27.2139  -27.4561   20.0744 C   0  0  0  0  0  0
  -25.5855  -33.8640   24.2324 N   0  0  0  0  0  0
  -23.3966  -30.5058   21.5568 C   0  0  2  0  0  0
  -24.8309  -28.9823   20.1213 C   0  0  0  0  0  0
  -22.7390  -29.4713   22.4991 C   0  0  0  0  0  0
  -18.0283  -28.1377   22.8495 C   0  0  0  0  0  0
  -24.1467  -36.7359   23.2633 C   0  0  0  0  0  0
  -25.9276  -30.8476   21.3630 C   0  0  0  0  0  0
  -26.0006  -29.4884   20.7024 C   0  0  0  0  0  0
  -27.1984  -28.7360   20.6716 C   0  0  0  0  0  0
  -26.0093  -26.9639   19.5172 C   0  0  0  0  0  0
  -24.8284  -27.7146   19.5293 C   0  0  0  0  0  0
  -23.5986  -29.8517   20.1680 C   0  0  0  0  0  0
  -25.4087  -36.3133   24.0321 C   0  0  1  0  0  0
  -20.5869  -28.3681   23.1306 C   0  0  2  0  0  0
  -20.6769  -26.9424   22.5399 C   0  0  0  0  0  0
  -19.5748  -26.6395   21.5194 C   0  0  0  0  0  0
  -18.1934  -26.7924   22.1613 C   0  0  0  0  0  0
  -19.1529  -28.8839   23.2906 C   0  0  0  0  0  0
  -18.9442  -30.1433   23.8927 C   0  0  0  0  0  0
  -17.6454  -30.6585   24.0575 C   0  0  0  0  0  0
  -25.9013  -34.9489   23.5128 C   0  0  0  0  0  0
  -16.5348  -29.9093   23.6319 C   0  0  0  0  0  0
  -16.7273  -28.6513   23.0341 C   0  0  0  0  0  0
  -26.4424  -31.6599   25.0720 C   0  0  0  0  0  0
  -25.3664  -31.3694   26.1446 C   0  0  0  0  0  0
  -27.0236  -30.3046   24.6052 C   0  0  0  0  0  0
  -27.6007  -32.4313   25.7449 C   0  0  0  0  0  0
  -27.5584  -37.1812   24.8445 C   0  0  0  0  0  0
  -21.4121  -29.3065   22.3702 N   0  0  0  0  0  0
  -26.4285  -37.3807   23.9407 N   0  0  0  0  0  0
  -24.6648  -31.0873   22.1030 N   0  0  0  0  0  0
  -23.4165  -28.8223   23.3007 O   0  0  0  0  0  0
  -28.3899  -26.7307   20.0481 O   0  0  0  0  0  0
  -26.5610  -34.8951   22.4706 O   0  0  0  0  0  0
  -23.5300  -32.1458   23.7540 O   0  0  0  0  0  0
  -27.7791  -23.6552   15.7205 C   0  0  0  0  0  0
  -27.9581  -22.7444   14.7137 C   0  0  0  0  0  0
  -27.7207  -21.6247   16.6163 C   0  0  0  0  0  0
  -25.9398  -23.4910   18.5638 C   0  0  0  0  0  0
  -31.2030  -16.6996   18.3240 C   0  0  0  0  0  0
  -30.2101  -15.4527   22.7332 C   0  0  0  0  0  0
  -31.7262  -19.6725   19.2875 C   0  0  0  0  0  0
  -27.6393  -20.4773   17.5734 C   0  0  0  0  0  0
  -28.8703  -20.3927   18.4956 C   0  0  0  0  0  0
  -28.1481  -24.8585   18.4264 C   0  0  0  0  0  0
  -29.8284  -16.6505   20.5810 C   0  0  0  0  0  0
  -29.4514  -18.9791   18.5299 C   0  0  0  0  0  0
  -28.2814  -25.3092   19.9009 C   0  0  0  0  0  0
  -27.4493  -23.4862   18.2453 C   0  0  2  0  0  0
  -30.9295  -17.3556   19.7120 C   0  0  2  0  0  0
  -27.6626  -22.9415   16.8890 N   0  0  0  0  0  0
  -27.9157  -21.5101   15.2984 N   0  3  0  0  0  0
  -30.1591  -15.3816   21.2663 N   0  0  0  0  0  0
  -30.5517  -18.7892   19.5188 N   0  3  1  0  0  0
  -31.4568  -12.3493   19.1036 H   0  0  0  0  0  0
  -30.2839  -11.2561   19.7781 H   0  0  0  0  0  0
  -29.7234  -11.8196   17.3905 H   0  0  0  0  0  0
  -29.6672  -13.5186   17.7921 H   0  0  0  0  0  0
  -27.8131  -11.3232   18.7836 H   0  0  0  0  0  0
  -27.3610  -12.6728   17.7769 H   0  0  0  0  0  0
  -27.7161  -14.2574   19.5941 H   0  0  0  0  0  0
  -28.6560  -11.9216   21.3231 H   0  0  0  0  0  0
  -28.4530  -13.5552   21.8645 H   0  0  0  0  0  0
  -25.2764   -9.5689   22.4747 H   0  0  0  0  0  0
  -24.0004   -7.4638   22.7471 H   0  0  0  0  0  0
  -21.0839   -8.8765   19.8946 H   0  0  0  0  0  0
  -22.3693  -10.9664   19.6153 H   0  0  0  0  0  0
  -21.2011   -7.6155   23.9716 H   0  0  0  0  0  0
  -21.1487   -6.0524   25.9077 H   0  0  0  0  0  0
  -22.0596   -2.7605   23.2844 H   0  0  0  0  0  0
  -22.4122  -11.9881   22.4765 H   0  0  0  0  0  0
  -21.1125  -13.1250   22.2590 H   0  0  0  0  0  0
  -24.6690  -15.8460   20.5231 H   0  0  0  0  0  0
  -26.2967  -15.6284   20.1217 H   0  0  0  0  0  0
  -26.7101  -32.5577   23.1186 H   0  0  0  0  0  0
  -24.9947  -33.9785   25.0426 H   0  0  0  0  0  0
  -22.6849  -31.3250   21.4293 H   0  0  0  0  0  0
  -23.3707  -35.9718   23.3289 H   0  0  0  0  0  0
  -24.3556  -36.8976   22.2053 H   0  0  0  0  0  0
  -23.7247  -37.6566   23.6656 H   0  0  0  0  0  0
  -26.0433  -31.6203   20.5994 H   0  0  0  0  0  0
  -26.8152  -30.8899   21.9823 H   0  0  0  0  0  0
  -28.1042  -29.1336   21.1073 H   0  0  0  0  0  0
  -25.9385  -26.0002   19.0561 H   0  0  0  0  0  0
  -23.9250  -27.3112   19.0930 H   0  0  0  0  0  0
  -23.7166  -30.6334   19.4164 H   0  0  0  0  0  0
  -22.7175  -29.2835   19.8641 H   0  0  0  0  0  0
  -25.1256  -36.1984   25.0810 H   0  0  0  0  0  0
  -21.0001  -28.3264   24.1414 H   0  0  0  0  0  0
  -20.5649  -26.2312   23.3600 H   0  0  0  0  0  0
  -21.6647  -26.7454   22.1211 H   0  0  0  0  0  0
  -19.6893  -25.6301   21.1222 H   0  0  0  0  0  0
  -19.6655  -27.3208   20.6727 H   0  0  0  0  0  0
  -17.4194  -26.6684   21.4021 H   0  0  0  0  0  0
  -18.0333  -26.0050   22.9001 H   0  0  0  0  0  0
  -19.7913  -30.7240   24.2319 H   0  0  0  0  0  0
  -17.4999  -31.6257   24.5185 H   0  0  0  0  0  0
  -15.5335  -30.2999   23.7619 H   0  0  0  0  0  0
  -15.8680  -28.0836   22.7027 H   0  0  0  0  0  0
  -24.5877  -30.6995   25.7751 H   0  0  0  0  0  0
  -24.8814  -32.2849   26.4838 H   0  0  0  0  0  0
  -25.8004  -30.8890   27.0220 H   0  0  0  0  0  0
  -26.2769  -29.6838   24.1093 H   0  0  0  0  0  0
  -27.3986  -29.7226   25.4479 H   0  0  0  0  0  0
  -27.8603  -30.4356   23.9206 H   0  0  0  0  0  0
  -27.2643  -33.3629   26.2011 H   0  0  0  0  0  0
  -28.3806  -32.6844   25.0258 H   0  0  0  0  0  0
  -28.0682  -31.8449   26.5361 H   0  0  0  0  0  0
  -28.2577  -38.0142   24.7562 H   0  0  0  0  0  0
  -28.1113  -36.2683   24.6184 H   0  0  0  0  0  0
  -27.2313  -37.1345   25.8847 H   0  0  0  0  0  0
  -20.9249  -29.8861   21.7018 H   0  0  0  0  0  0
  -26.0170  -38.2866   24.1444 H   0  0  0  0  0  0
  -27.7410  -24.7338   15.6825 H   0  0  0  0  0  0
  -28.1103  -22.8796   13.6525 H   0  0  0  0  0  0
  -25.7386  -23.8696   19.5655 H   0  0  0  0  0  0
  -25.5196  -22.4866   18.5346 H   0  0  0  0  0  0
  -25.3725  -24.0959   17.8533 H   0  0  0  0  0  0
  -31.9268  -15.8933   18.3473 H   0  0  0  0  0  0
  -31.6468  -17.4037   17.6217 H   0  0  0  0  0  0
  -30.2905  -16.3146   17.8677 H   0  0  0  0  0  0
  -29.2421  -15.1971   23.1636 H   0  0  0  0  0  0
  -30.4757  -16.4481   23.0891 H   0  0  0  0  0  0
  -30.9467  -14.7632   23.1532 H   0  0  0  0  0  0
  -31.4634  -20.7236   19.4032 H   0  0  0  0  0  0
  -32.1433  -19.5436   18.2887 H   0  0  0  0  0  0
  -32.5189  -19.4790   20.0109 H   0  0  0  0  0  0
  -27.5333  -19.5770   16.9667 H   0  0  0  0  0  0
  -26.7124  -20.5788   18.1382 H   0  0  0  0  0  0
  -28.6096  -20.7275   19.4992 H   0  0  0  0  0  0
  -29.6405  -21.0743   18.1314 H   0  0  0  0  0  0
  -29.1524  -24.8167   18.0046 H   0  0  0  0  0  0
  -27.6360  -25.6125   17.8303 H   0  0  0  0  0  0
  -28.9553  -16.4406   19.9636 H   0  0  0  0  0  0
  -29.4684  -17.3571   21.3298 H   0  0  0  0  0  0
  -29.7946  -18.7358   17.5234 H   0  0  0  0  0  0
  -28.6404  -18.2868   18.7546 H   0  0  0  0  0  0
  -29.1759  -24.8521   20.3233 H   0  0  0  0  0  0
  -27.4635  -24.9417   20.5230 H   0  0  0  0  0  0
  -27.9326  -22.8110   18.9458 H   0  0  0  0  0  0
  -31.8556  -17.3398   20.2907 H   0  0  0  0  0  0
  -28.0143  -20.6323   14.8028 H   0  0  0  0  0  0
  -30.1885  -19.0805   20.4158 H   0  0  0  0  0  0
  1 25  1  0  0  0
  1 30  2  0  0  0
  1 88  1  0  0  0
  2  3  1  0  0  0
  2 25  1  0  0  0
  2 90  1  0  0  0
  2 91  1  0  0  0
  3  4  1  0  0  0
  3 92  1  0  0  0
  3 93  1  0  0  0
  4  5  1  0  0  0
  4 94  1  0  0  0
  4 95  1  0  0  0
  5  6  1  0  0  0
  5 26  1  0  0  0
  5 96  1  0  0  0
  6 25  1  0  0  0
  6 97  1  0  0  0
  6 98  1  0  0  0
  7  8  2  0  0  0
  7 26  1  0  0  0
  7 29  1  0  0  0
  8  9  1  0  0  0
  8 22  1  0  0  0
  9 10  1  0  0  0
  9 27  2  0  0  0
 10 11  2  0  0  0
 10 15  1  0  0  0
 11 12  1  0  0  0
 11 99  1  0  0  0
 12 13  2  0  0  0
 12100  1  0  0  0
 13 14  1  0  0  0
 13 31  1  0  0  0
 14 15  2  0  0  0
 14101  1  0  0  0
 15102  1  0  0  0
 16 17  2  0  0  0
 16 21  1  0  0  0
 16 31  1  0  0  0
 17 18  1  0  0  0
 17103  1  0  0  0
 18 19  2  0  0  0
 18104  1  0  0  0
 19 20  1  0  0  0
 19 24  1  0  0  0
 20 21  2  0  0  0
 20105  1  0  0  0
 21 23  1  0  0  0
 22 28  1  0  0  0
 22 32  2  0  0  0
 26 27  1  0  0  0
 28106  1  0  0  0
 28107  1  0  0  0
 29108  1  0  0  0
 29109  1  0  0  0
 33 34  1  0  0  0
 33 66  1  0  0  0
 33 70  2  0  0  0
 34 36  1  0  0  0
 34 59  1  0  0  0
 34110  1  0  0  0
 35 44  2  0  0  0
 35 45  1  0  0  0
 35 68  1  0  0  0
 36 56  1  0  0  0
 36111  1  0  0  0
 37 39  1  0  0  0
 37 47  1  0  0  0
 37 66  1  0  0  0
 37112  1  0  0  0
 38 43  2  0  0  0
 38 46  1  0  0  0
 38 47  1  0  0  0
 39 64  1  0  0  0
 39 67  2  0  0  0
 40 52  1  0  0  0
 40 53  2  0  0  0
 40 58  1  0  0  0
 41113  1  0  0  0
 41114  1  0  0  0
 41115  1  0  0  0
 41 48  1  0  0  0
 42 43  1  0  0  0
 42 66  1  0  0  0
 42116  1  0  0  0
 42117  1  0  0  0
 43 44  1  0  0  0
 44118  1  0  0  0
 45 46  2  0  0  0
 45119  1  0  0  0
 46120  1  0  0  0
 47121  1  0  0  0
 47122  1  0  0  0
 48 56  1  0  0  0
 48 65  1  0  0  0
 48123  1  0  0  0
 49 50  1  0  0  0
 49 53  1  0  0  0
 49 64  1  0  0  0
 49124  1  0  0  0
 50 51  1  0  0  0
 50125  1  0  0  0
 50126  1  0  0  0
 51 52  1  0  0  0
 51127  1  0  0  0
 51128  1  0  0  0
 52129  1  0  0  0
 52130  1  0  0  0
 53 54  1  0  0  0
 54 55  2  0  0  0
 54131  1  0  0  0
 55 57  1  0  0  0
 55132  1  0  0  0
 56 69  2  0  0  0
 57 58  2  0  0  0
 57133  1  0  0  0
 58134  1  0  0  0
 59 60  1  0  0  0
 59 61  1  0  0  0
 59 62  1  0  0  0
 60135  1  0  0  0
 60136  1  0  0  0
 60137  1  0  0  0
 61138  1  0  0  0
 61139  1  0  0  0
 61140  1  0  0  0
 62141  1  0  0  0
 62142  1  0  0  0
 62143  1  0  0  0
 63 65  1  0  0  0
 63144  1  0  0  0
 63145  1  0  0  0
 63146  1  0  0  0
 64147  1  0  0  0
 65148  1  0  0  0
 68 83  1  0  0  0
 71 72  2  0  0  0
 71 86  1  0  0  0
 71149  1  0  0  0
 72 87  1  0  0  0
 72150  1  0  0  0
 73 78  1  0  0  0
 73 86  1  0  0  0
 73 87  2  0  0  0
 74151  1  0  0  0
 74152  1  0  0  0
 74153  1  0  0  0
 74 84  1  0  0  0
 75154  1  0  0  0
 75155  1  0  0  0
 75156  1  0  0  0
 75 85  1  0  0  0
 76 88  1  0  0  0
 76157  1  0  0  0
 76158  1  0  0  0
 76159  1  0  0  0
 77160  1  0  0  0
 77161  1  0  0  0
 77162  1  0  0  0
 77 89  1  0  0  0
 78 79  1  0  0  0
 78163  1  0  0  0
 78164  1  0  0  0
 79 82  1  0  0  0
 79165  1  0  0  0
 79166  1  0  0  0
 80 83  1  0  0  0
 80 84  1  0  0  0
 80167  1  0  0  0
 80168  1  0  0  0
 81 85  1  0  0  0
 81 88  1  0  0  0
 81169  1  0  0  0
 81170  1  0  0  0
 82 89  1  0  0  0
 82171  1  0  0  0
 82172  1  0  0  0
 83173  1  0  0  0
 83174  1  0  0  0
 84 86  1  0  0  0
 84175  1  0  0  0
 85 89  1  0  0  0
 85176  1  0  0  0
 87177  1  0  0  0
 89178  1  0  0  0
M  CHG  2  87   1  89   1
M  ISO  4   1 100  68 101  83 101  88 100
M  END
> <chiral flag>
0

> <version>
0

> <s_m_source_file>
/data/baiqing/PycharmProjects/Reinvent-master-3.2/result/LINK_invent/BTK/process_docking_weight1_custom_sum_contain_oxygen_bond_distance_aromatic_linkinvent_7_9_3/rearranged_h_0051.sdf

> <i_m_source_file_index>
53

> <r_mmod_Potential_Energy-OPLS-2005>
-21.1957035064697

> <r_mmod_Stretch_Energy-OPLS-2005>
38.5520515441895

> <r_mmod_Bend_Energy-OPLS-2005>
109.3740234375

> <r_mmod_Torsional_Energy-OPLS-2005>
353.189361572266

> <r_mmod_Improper_Torsional_Energy-OPLS-2005>
4.30448913574219

> <r_mmod_Van_der_Waal_Energy-OPLS-2005>
162.333023071289

> <r_mmod_Electrostatic_Energy-OPLS-2005>
173.331771850586

> <r_mmod_Solvation_Energy-OPLS-2005>
-876.4609375

> <b_mmod_Minimization_Converged-OPLS-2005>
0

> <r_mmod_RMS_Derivative-OPLS-2005>
2.62607216835022

$$$$
54
                    3D
 Structure written by MMmdl.
172180  0  0  1  0            999 V2000
  -30.7824  -14.3638   20.6822 C   0  0  0  0  0  0
  -30.4092  -12.2880   19.3994 C   0  0  0  0  0  0
  -29.4806  -12.5212   18.1942 C   0  0  0  0  0  0
  -28.0069  -12.3697   18.6115 C   0  0  0  0  0  0
  -27.6623  -13.1995   19.8747 C   0  0  2  0  0  0
  -28.7007  -12.9633   20.9956 C   0  0  0  0  0  0
  -25.2594  -13.8147   20.5658 C   0  0  0  0  0  0
  -24.1841  -13.0438   20.9179 C   0  0  0  0  0  0
  -24.6383  -11.6898   20.8739 C   0  0  0  0  0  0
  -23.9045  -10.4290   21.0410 C   0  0  0  0  0  0
  -24.3602   -9.4206   21.9185 C   0  0  0  0  0  0
  -23.6280   -8.2238   22.0754 C   0  0  0  0  0  0
  -22.4264   -8.0275   21.3543 C   0  0  0  0  0  0
  -21.9897   -9.0249   20.4645 C   0  0  0  0  0  0
  -22.7221  -10.2129   20.3057 C   0  0  0  0  0  0
  -21.6849   -6.0730   22.5278 C   0  0  0  0  0  0
  -21.4011   -6.5637   23.8212 C   0  0  0  0  0  0
  -21.3659   -5.6792   24.9176 C   0  0  0  0  0  0
  -21.6045   -4.3052   24.7229 C   0  0  0  0  0  0
  -21.8818   -3.8143   23.4350 C   0  0  0  0  0  0
  -21.9190   -4.6958   22.3404 C   0  0  0  0  0  0
  -22.7867  -13.5243   21.1843 C   0  0  0  0  0  0
  -22.1658   -4.2144   21.0982 F   0  0  0  0  0  0
  -21.5631   -3.4538   25.7743 F   0  0  0  0  0  0
  -30.0453  -13.2424   20.4584 N   0  0  0  0  0  0
  -26.3023  -12.9302   20.3355 N   0  0  0  0  0  0
  -25.9303  -11.6470   20.5760 N   0  0  0  0  0  0
  -22.0502  -12.8240   22.0397 N   0  0  0  0  0  0
  -25.4322  -15.1855   20.3996 N   0  0  0  0  0  0
  -31.8083  -14.6262   20.0443 O   0  0  0  0  0  0
  -21.6632   -6.8870   21.4239 O   0  0  0  0  0  0
  -22.3561  -14.5554   20.6694 O   0  0  0  0  0  0
  -24.6121  -31.8701   23.2136 C   0  0  0  0  0  0
  -25.9023  -32.4831   23.8423 C   0  0  1  0  0  0
  -27.2348  -27.4589   20.0845 C   0  0  0  0  0  0
  -25.5884  -33.8630   24.2359 N   0  0  0  0  0  0
  -23.3977  -30.4947   21.5534 C   0  0  2  0  0  0
  -24.8415  -28.9640   20.1173 C   0  0  0  0  0  0
  -22.7392  -29.4668   22.5011 C   0  0  0  0  0  0
  -18.0267  -28.1363   22.8489 C   0  0  0  0  0  0
  -24.1485  -36.7320   23.2644 C   0  0  0  0  0  0
  -25.9244  -30.8431   21.3627 C   0  0  0  0  0  0
  -26.0009  -29.4799   20.7085 C   0  0  0  0  0  0
  -27.1982  -28.7341   20.6888 C   0  0  0  0  0  0
  -26.0539  -26.9513   19.4919 C   0  0  0  0  0  0
  -24.8613  -27.6971   19.5101 C   0  0  0  0  0  0
  -23.6030  -29.8274   20.1679 C   0  0  0  0  0  0
  -25.4103  -36.3123   24.0353 C   0  0  1  0  0  0
  -20.5857  -28.3647   23.1326 C   0  0  2  0  0  0
  -20.6753  -26.9384   22.5424 C   0  0  0  0  0  0
  -19.5741  -26.6378   21.5203 C   0  0  0  0  0  0
  -18.1911  -26.7916   22.1603 C   0  0  0  0  0  0
  -19.1519  -28.8820   23.2905 C   0  0  0  0  0  0
  -18.9449  -30.1423   23.8911 C   0  0  0  0  0  0
  -17.6457  -30.6575   24.0562 C   0  0  0  0  0  0
  -25.9024  -34.9480   23.5157 C   0  0  0  0  0  0
  -16.5345  -29.9080   23.6327 C   0  0  0  0  0  0
  -16.7259  -28.6493   23.0348 C   0  0  0  0  0  0
  -26.4470  -31.6604   25.0739 C   0  0  0  0  0  0
  -25.3752  -31.3687   26.1501 C   0  0  0  0  0  0
  -27.0315  -30.3061   24.6097 C   0  0  0  0  0  0
  -27.6059  -32.4326   25.7478 C   0  0  0  0  0  0
  -27.5583  -37.1810   24.8463 C   0  0  0  0  0  0
  -21.4127  -29.3023   22.3740 N   0  0  0  0  0  0
  -26.4297  -37.3799   23.9407 N   0  0  0  0  0  0
  -24.6633  -31.0821   22.1020 N   0  0  0  0  0  0
  -23.4180  -28.8211   23.3042 O   0  0  0  0  0  0
  -28.4313  -26.7742   20.0935 O   0  0  0  0  0  0
  -26.5585  -34.8926   22.4716 O   0  0  0  0  0  0
  -23.5323  -32.1444   23.7548 O   0  0  0  0  0  0
  -27.0471  -20.5724   24.7250 C   0  0  0  0  0  0
  -26.8030  -19.4765   25.5088 C   0  0  0  0  0  0
  -27.3504  -18.7584   23.4765 C   0  0  0  0  0  0
  -32.3099  -16.5678   22.5811 C   0  0  0  0  0  0
  -25.7404  -22.5388   22.3547 C   0  0  0  0  0  0
  -27.6835  -17.8187   22.3520 C   0  0  0  0  0  0
  -28.7276  -16.7537   22.7278 C   0  0  0  0  0  0
  -27.7884  -24.6530   21.1482 C   0  0  0  0  0  0
  -27.8578  -23.1187   21.0573 C   0  0  0  0  0  0
  -27.7096  -20.9016   22.2714 C   0  0  0  0  0  0
  -31.3845  -15.3579   22.8216 C   0  0  0  0  0  0
  -29.4564  -16.2143   21.4798 C   0  0  0  0  0  0
  -28.4244  -25.3558   19.9323 C   0  0  0  0  0  0
  -27.2752  -22.3869   22.2878 C   0  0  2  0  0  0
  -27.3493  -20.1071   23.4659 N   0  0  0  0  0  0
  -26.9937  -18.3833   24.7105 N   0  3  0  0  0  0
  -30.4102  -15.1217   21.7397 N   0  0  0  0  0  0
  -31.4540  -12.3754   19.0947 H   0  0  0  0  0  0
  -30.2981  -11.2684   19.7721 H   0  0  0  0  0  0
  -29.7167  -11.8169   17.3953 H   0  0  0  0  0  0
  -29.6493  -13.5185   17.7846 H   0  0  0  0  0  0
  -27.8200  -11.3120   18.7995 H   0  0  0  0  0  0
  -27.3520  -12.6518   17.7862 H   0  0  0  0  0  0
  -27.7095  -14.2465   19.5792 H   0  0  0  0  0  0
  -28.6601  -11.9277   21.3361 H   0  0  0  0  0  0
  -28.4516  -13.5646   21.8705 H   0  0  0  0  0  0
  -25.2745   -9.5684   22.4759 H   0  0  0  0  0  0
  -23.9990   -7.4632   22.7476 H   0  0  0  0  0  0
  -21.0829   -8.8760   19.8953 H   0  0  0  0  0  0
  -22.3673  -10.9666   19.6167 H   0  0  0  0  0  0
  -21.2002   -7.6146   23.9714 H   0  0  0  0  0  0
  -21.1484   -6.0522   25.9078 H   0  0  0  0  0  0
  -22.0597   -2.7606   23.2853 H   0  0  0  0  0  0
  -22.4094  -11.9887   22.4777 H   0  0  0  0  0  0
  -21.1123  -13.1279   22.2601 H   0  0  0  0  0  0
  -24.6525  -15.8310   20.4578 H   0  0  0  0  0  0
  -26.2681  -15.6057   20.0151 H   0  0  0  0  0  0
  -26.7093  -32.5559   23.1189 H   0  0  0  0  0  0
  -25.0047  -33.9793   25.0514 H   0  0  0  0  0  0
  -22.6864  -31.3117   21.4157 H   0  0  0  0  0  0
  -23.3749  -35.9652   23.3322 H   0  0  0  0  0  0
  -24.3575  -36.8916   22.2055 H   0  0  0  0  0  0
  -23.7238  -37.6531   23.6644 H   0  0  0  0  0  0
  -26.0354  -31.6129   20.5977 H   0  0  0  0  0  0
  -26.8127  -30.8939   21.9802 H   0  0  0  0  0  0
  -28.0961  -29.1303   21.1435 H   0  0  0  0  0  0
  -26.0305  -25.9863   19.0084 H   0  0  0  0  0  0
  -23.9685  -27.2929   19.0535 H   0  0  0  0  0  0
  -23.7072  -30.6013   19.4070 H   0  0  0  0  0  0
  -22.7277  -29.2449   19.8759 H   0  0  0  0  0  0
  -25.1276  -36.2006   25.0850 H   0  0  0  0  0  0
  -20.9946  -28.3205   24.1447 H   0  0  0  0  0  0
  -20.5630  -26.2251   23.3610 H   0  0  0  0  0  0
  -21.6629  -26.7411   22.1233 H   0  0  0  0  0  0
  -19.6909  -25.6295   21.1219 H   0  0  0  0  0  0
  -19.6698  -27.3200   20.6746 H   0  0  0  0  0  0
  -17.4195  -26.6685   21.3990 H   0  0  0  0  0  0
  -18.0290  -26.0045   22.8984 H   0  0  0  0  0  0
  -19.7932  -30.7220   24.2299 H   0  0  0  0  0  0
  -17.5021  -31.6257   24.5157 H   0  0  0  0  0  0
  -15.5347  -30.2983   23.7646 H   0  0  0  0  0  0
  -15.8659  -28.0815   22.7062 H   0  0  0  0  0  0
  -24.5957  -30.6985   25.7857 H   0  0  0  0  0  0
  -24.8889  -32.2819   26.4943 H   0  0  0  0  0  0
  -25.8129  -30.8893   27.0266 H   0  0  0  0  0  0
  -26.2853  -29.6787   24.1206 H   0  0  0  0  0  0
  -27.4169  -29.7327   25.4535 H   0  0  0  0  0  0
  -27.8643  -30.4401   23.9191 H   0  0  0  0  0  0
  -27.2703  -33.3628   26.2078 H   0  0  0  0  0  0
  -28.3841  -32.6884   25.0273 H   0  0  0  0  0  0
  -28.0764  -31.8441   26.5367 H   0  0  0  0  0  0
  -28.2617  -38.0093   24.7500 H   0  0  0  0  0  0
  -28.1064  -36.2626   24.6300 H   0  0  0  0  0  0
  -27.2297  -37.1475   25.8866 H   0  0  0  0  0  0
  -20.9283  -29.8766   21.6986 H   0  0  0  0  0  0
  -26.0202  -38.2885   24.1407 H   0  0  0  0  0  0
  -27.0166  -21.6226   24.9777 H   0  0  0  0  0  0
  -26.5235  -19.3978   26.5508 H   0  0  0  0  0  0
  -33.0552  -16.6442   23.3732 H   0  0  0  0  0  0
  -31.7579  -17.5077   22.5695 H   0  0  0  0  0  0
  -32.8498  -16.4875   21.6374 H   0  0  0  0  0  0
  -25.4443  -23.5818   22.4629 H   0  0  0  0  0  0
  -25.3055  -22.0057   23.1991 H   0  0  0  0  0  0
  -25.2634  -22.1539   21.4526 H   0  0  0  0  0  0
  -28.0574  -18.4102   21.5191 H   0  0  0  0  0  0
  -26.7501  -17.3587   22.0260 H   0  0  0  0  0  0
  -28.2577  -15.9483   23.2937 H   0  0  0  0  0  0
  -29.4595  -17.2176   23.3898 H   0  0  0  0  0  0
  -28.2941  -24.9849   22.0556 H   0  0  0  0  0  0
  -26.7502  -24.9659   21.2470 H   0  0  0  0  0  0
  -28.9055  -22.8383   20.9357 H   0  0  0  0  0  0
  -27.3510  -22.7781   20.1533 H   0  0  0  0  0  0
  -28.7919  -20.8214   22.1598 H   0  0  0  0  0  0
  -27.2598  -20.4275   21.3988 H   0  0  0  0  0  0
  -30.8637  -15.4649   23.7728 H   0  0  0  0  0  0
  -32.0026  -14.4658   22.9459 H   0  0  0  0  0  0
  -29.9874  -17.0271   20.9811 H   0  0  0  0  0  0
  -28.7028  -15.8836   20.7650 H   0  0  0  0  0  0
  -27.9562  -25.0560   18.9946 H   0  0  0  0  0  0
  -29.4653  -25.0423   19.8471 H   0  0  0  0  0  0
  -27.7097  -22.8505   23.1748 H   0  0  0  0  0  0
  -26.8952  -17.4226   25.0164 H   0  0  0  0  0  0
  1 25  1  0  0  0
  1 30  2  0  0  0
  1 87  1  0  0  0
  2  3  1  0  0  0
  2 25  1  0  0  0
  2 88  1  0  0  0
  2 89  1  0  0  0
  3  4  1  0  0  0
  3 90  1  0  0  0
  3 91  1  0  0  0
  4  5  1  0  0  0
  4 92  1  0  0  0
  4 93  1  0  0  0
  5  6  1  0  0  0
  5 26  1  0  0  0
  5 94  1  0  0  0
  6 25  1  0  0  0
  6 95  1  0  0  0
  6 96  1  0  0  0
  7  8  2  0  0  0
  7 26  1  0  0  0
  7 29  1  0  0  0
  8  9  1  0  0  0
  8 22  1  0  0  0
  9 10  1  0  0  0
  9 27  2  0  0  0
 10 11  2  0  0  0
 10 15  1  0  0  0
 11 12  1  0  0  0
 11 97  1  0  0  0
 12 13  2  0  0  0
 12 98  1  0  0  0
 13 14  1  0  0  0
 13 31  1  0  0  0
 14 15  2  0  0  0
 14 99  1  0  0  0
 15100  1  0  0  0
 16 17  2  0  0  0
 16 21  1  0  0  0
 16 31  1  0  0  0
 17 18  1  0  0  0
 17101  1  0  0  0
 18 19  2  0  0  0
 18102  1  0  0  0
 19 20  1  0  0  0
 19 24  1  0  0  0
 20 21  2  0  0  0
 20103  1  0  0  0
 21 23  1  0  0  0
 22 28  1  0  0  0
 22 32  2  0  0  0
 26 27  1  0  0  0
 28104  1  0  0  0
 28105  1  0  0  0
 29106  1  0  0  0
 29107  1  0  0  0
 33 34  1  0  0  0
 33 66  1  0  0  0
 33 70  2  0  0  0
 34 36  1  0  0  0
 34 59  1  0  0  0
 34108  1  0  0  0
 35 44  2  0  0  0
 35 45  1  0  0  0
 35 68  1  0  0  0
 36 56  1  0  0  0
 36109  1  0  0  0
 37 39  1  0  0  0
 37 47  1  0  0  0
 37 66  1  0  0  0
 37110  1  0  0  0
 38 43  2  0  0  0
 38 46  1  0  0  0
 38 47  1  0  0  0
 39 64  1  0  0  0
 39 67  2  0  0  0
 40 52  1  0  0  0
 40 53  2  0  0  0
 40 58  1  0  0  0
 41111  1  0  0  0
 41112  1  0  0  0
 41113  1  0  0  0
 41 48  1  0  0  0
 42 43  1  0  0  0
 42 66  1  0  0  0
 42114  1  0  0  0
 42115  1  0  0  0
 43 44  1  0  0  0
 44116  1  0  0  0
 45 46  2  0  0  0
 45117  1  0  0  0
 46118  1  0  0  0
 47119  1  0  0  0
 47120  1  0  0  0
 48 56  1  0  0  0
 48 65  1  0  0  0
 48121  1  0  0  0
 49 50  1  0  0  0
 49 53  1  0  0  0
 49 64  1  0  0  0
 49122  1  0  0  0
 50 51  1  0  0  0
 50123  1  0  0  0
 50124  1  0  0  0
 51 52  1  0  0  0
 51125  1  0  0  0
 51126  1  0  0  0
 52127  1  0  0  0
 52128  1  0  0  0
 53 54  1  0  0  0
 54 55  2  0  0  0
 54129  1  0  0  0
 55 57  1  0  0  0
 55130  1  0  0  0
 56 69  2  0  0  0
 57 58  2  0  0  0
 57131  1  0  0  0
 58132  1  0  0  0
 59 60  1  0  0  0
 59 61  1  0  0  0
 59 62  1  0  0  0
 60133  1  0  0  0
 60134  1  0  0  0
 60135  1  0  0  0
 61136  1  0  0  0
 61137  1  0  0  0
 61138  1  0  0  0
 62139  1  0  0  0
 62140  1  0  0  0
 62141  1  0  0  0
 63 65  1  0  0  0
 63142  1  0  0  0
 63143  1  0  0  0
 63144  1  0  0  0
 64145  1  0  0  0
 65146  1  0  0  0
 68 83  1  0  0  0
 71 72  2  0  0  0
 71 85  1  0  0  0
 71147  1  0  0  0
 72 86  1  0  0  0
 72148  1  0  0  0
 73 76  1  0  0  0
 73 85  1  0  0  0
 73 86  2  0  0  0
 74 81  1  0  0  0
 74149  1  0  0  0
 74150  1  0  0  0
 74151  1  0  0  0
 75152  1  0  0  0
 75153  1  0  0  0
 75154  1  0  0  0
 75 84  1  0  0  0
 76 77  1  0  0  0
 76155  1  0  0  0
 76156  1  0  0  0
 77 82  1  0  0  0
 77157  1  0  0  0
 77158  1  0  0  0
 78 79  1  0  0  0
 78 83  1  0  0  0
 78159  1  0  0  0
 78160  1  0  0  0
 79 84  1  0  0  0
 79161  1  0  0  0
 79162  1  0  0  0
 80 84  1  0  0  0
 80 85  1  0  0  0
 80163  1  0  0  0
 80164  1  0  0  0
 81 87  1  0  0  0
 81165  1  0  0  0
 81166  1  0  0  0
 82 87  1  0  0  0
 82167  1  0  0  0
 82168  1  0  0  0
 83169  1  0  0  0
 83170  1  0  0  0
 84171  1  0  0  0
 86172  1  0  0  0
M  CHG  1  86   1
M  ISO  4   1 100  68 101  83 101  87 100
M  END
> <chiral flag>
0

> <version>
0

> <s_m_source_file>
/data/baiqing/PycharmProjects/Reinvent-master-3.2/result/LINK_invent/BTK/process_docking_weight1_custom_sum_contain_oxygen_bond_distance_aromatic_linkinvent_7_9_3/rearranged_h_0051.sdf

> <i_m_source_file_index>
54

> <r_mmod_Potential_Energy-OPLS-2005>
84.1110229492188

> <r_mmod_Stretch_Energy-OPLS-2005>
34.9994010925293

> <r_mmod_Bend_Energy-OPLS-2005>
100.308555603027

> <r_mmod_Torsional_Energy-OPLS-2005>
312.305847167969

> <r_mmod_Improper_Torsional_Energy-OPLS-2005>
5.73342895507812

> <r_mmod_Van_der_Waal_Energy-OPLS-2005>
135.41064453125

> <r_mmod_Electrostatic_Energy-OPLS-2005>
-101.540542602539

> <r_mmod_Solvation_Energy-OPLS-2005>
-411.114135742188

> <b_mmod_Minimization_Converged-OPLS-2005>
0

> <r_mmod_RMS_Derivative-OPLS-2005>
1.05333137512207

$$$$
55
                    3D
 Structure written by MMmdl.
166174  0  0  1  0            999 V2000
  -30.8341  -14.3108   20.7474 C   0  0  0  0  0  0
  -30.4129  -12.2783   19.4096 C   0  0  0  0  0  0
  -29.4877  -12.5173   18.2034 C   0  0  0  0  0  0
  -28.0144  -12.3650   18.6174 C   0  0  0  0  0  0
  -27.6672  -13.2047   19.8706 C   0  0  2  0  0  0
  -28.6982  -12.9830   20.9990 C   0  0  0  0  0  0
  -25.2621  -13.8159   20.5655 C   0  0  0  0  0  0
  -24.1860  -13.0436   20.9141 C   0  0  0  0  0  0
  -24.6406  -11.6899   20.8694 C   0  0  0  0  0  0
  -23.9062  -10.4283   21.0389 C   0  0  0  0  0  0
  -24.3613   -9.4207   21.9176 C   0  0  0  0  0  0
  -23.6290   -8.2242   22.0758 C   0  0  0  0  0  0
  -22.4268   -8.0277   21.3546 C   0  0  0  0  0  0
  -21.9903   -9.0248   20.4644 C   0  0  0  0  0  0
  -22.7229  -10.2128   20.3048 C   0  0  0  0  0  0
  -21.6857   -6.0723   22.5276 C   0  0  0  0  0  0
  -21.4013   -6.5637   23.8204 C   0  0  0  0  0  0
  -21.3661   -5.6798   24.9173 C   0  0  0  0  0  0
  -21.6044   -4.3058   24.7226 C   0  0  0  0  0  0
  -21.8819   -3.8141   23.4351 C   0  0  0  0  0  0
  -21.9191   -4.6953   22.3403 C   0  0  0  0  0  0
  -22.7883  -13.5236   21.1842 C   0  0  0  0  0  0
  -22.1662   -4.2136   21.0979 F   0  0  0  0  0  0
  -21.5634   -3.4546   25.7739 F   0  0  0  0  0  0
  -30.0645  -13.2187   20.4849 N   0  0  0  0  0  0
  -26.3051  -12.9335   20.3315 N   0  0  0  0  0  0
  -25.9326  -11.6489   20.5714 N   0  0  0  0  0  0
  -22.0542  -12.8203   22.0395 N   0  0  0  0  0  0
  -25.4370  -15.1880   20.4101 N   0  0  0  0  0  0
  -31.7210  -14.6994   19.9802 O   0  0  0  0  0  0
  -21.6646   -6.8861   21.4235 O   0  0  0  0  0  0
  -22.3543  -14.5544   20.6719 O   0  0  0  0  0  0
  -24.6129  -31.8680   23.2101 C   0  0  0  0  0  0
  -25.9032  -32.4823   23.8391 C   0  0  1  0  0  0
  -27.2318  -27.4554   20.0940 C   0  0  0  0  0  0
  -25.5899  -33.8616   24.2348 N   0  0  0  0  0  0
  -23.3988  -30.4942   21.5489 C   0  0  2  0  0  0
  -24.8449  -28.9672   20.1108 C   0  0  0  0  0  0
  -22.7404  -29.4648   22.4957 C   0  0  0  0  0  0
  -18.0284  -28.1367   22.8479 C   0  0  0  0  0  0
  -24.1492  -36.7314   23.2638 C   0  0  0  0  0  0
  -25.9259  -30.8443   21.3565 C   0  0  0  0  0  0
  -26.0043  -29.4800   20.7054 C   0  0  0  0  0  0
  -27.2022  -28.7333   20.6905 C   0  0  0  0  0  0
  -26.0533  -26.9538   19.4922 C   0  0  0  0  0  0
  -24.8645  -27.7029   19.4989 C   0  0  0  0  0  0
  -23.6070  -29.8317   20.1623 C   0  0  0  0  0  0
  -25.4095  -36.3100   24.0346 C   0  0  1  0  0  0
  -20.5867  -28.3663   23.1299 C   0  0  2  0  0  0
  -20.6767  -26.9395   22.5395 C   0  0  0  0  0  0
  -19.5749  -26.6377   21.5192 C   0  0  0  0  0  0
  -18.1932  -26.7907   22.1611 C   0  0  0  0  0  0
  -19.1528  -28.8822   23.2894 C   0  0  0  0  0  0
  -18.9467  -30.1440   23.8899 C   0  0  0  0  0  0
  -17.6467  -30.6563   24.0573 C   0  0  0  0  0  0
  -25.9027  -34.9473   23.5134 C   0  0  0  0  0  0
  -16.5360  -29.9080   23.6322 C   0  0  0  0  0  0
  -16.7271  -28.6511   23.0314 C   0  0  0  0  0  0
  -26.4466  -31.6580   25.0705 C   0  0  0  0  0  0
  -25.3753  -31.3682   26.1484 C   0  0  0  0  0  0
  -27.0294  -30.3040   24.6018 C   0  0  0  0  0  0
  -27.6037  -32.4289   25.7474 C   0  0  0  0  0  0
  -27.5578  -37.1803   24.8468 C   0  0  0  0  0  0
  -21.4129  -29.3050   22.3729 N   0  0  0  0  0  0
  -26.4286  -37.3782   23.9431 N   0  0  0  0  0  0
  -24.6651  -31.0802   22.0980 N   0  0  0  0  0  0
  -23.4203  -28.8173   23.2966 O   0  0  0  0  0  0
  -28.3962  -26.7227   20.1292 O   0  0  0  0  0  0
  -26.5560  -34.8926   22.4688 O   0  0  0  0  0  0
  -23.5320  -32.1417   23.7504 O   0  0  0  0  0  0
  -32.3621  -22.8302   20.8983 C   0  0  0  0  0  0
  -31.0318  -20.7445   19.8035 C   0  0  0  0  0  0
  -31.1950  -23.0210   20.1224 C   0  0  0  0  0  0
  -32.1861  -20.5466   20.5984 C   0  0  0  0  0  0
  -30.6276  -14.2903   23.2038 C   0  0  0  0  0  0
  -32.5585  -19.0700   23.3511 C   0  0  0  0  0  0
  -30.5753  -24.3930   19.9228 C   0  0  0  0  0  0
  -32.7096  -19.1397   20.8728 C   0  0  0  0  0  0
  -29.4524  -24.6570   20.9426 C   0  0  0  0  0  0
  -30.6546  -16.4443   21.9760 C   0  0  0  0  0  0
  -32.0908  -17.0244   22.0397 C   0  0  0  0  0  0
  -28.2064  -25.3255   20.3513 C   0  0  0  0  0  0
  -30.5269  -21.9786   19.5695 N   0  0  0  0  0  0
  -32.8614  -21.5926   21.1430 N   0  0  0  0  0  0
  -30.5851  -14.9735   21.9029 N   0  0  0  0  0  0
  -32.0704  -18.5158   22.0639 N   0  3  1  0  0  0
  -31.4596  -12.3614   19.1097 H   0  0  0  0  0  0
  -30.2940  -11.2569   19.7766 H   0  0  0  0  0  0
  -29.7213  -11.8094   17.4072 H   0  0  0  0  0  0
  -29.6612  -13.5140   17.7946 H   0  0  0  0  0  0
  -27.8304  -11.3092   18.8166 H   0  0  0  0  0  0
  -27.3610  -12.6371   17.7874 H   0  0  0  0  0  0
  -27.7191  -14.2522   19.5740 H   0  0  0  0  0  0
  -28.6340  -11.9667   21.3906 H   0  0  0  0  0  0
  -28.4335  -13.6388   21.8279 H   0  0  0  0  0  0
  -25.2763   -9.5687   22.4746 H   0  0  0  0  0  0
  -24.0000   -7.4639   22.7489 H   0  0  0  0  0  0
  -21.0830   -8.8742   19.8962 H   0  0  0  0  0  0
  -22.3669  -10.9655   19.6150 H   0  0  0  0  0  0
  -21.2001   -7.6145   23.9697 H   0  0  0  0  0  0
  -21.1494   -6.0535   25.9072 H   0  0  0  0  0  0
  -22.0595   -2.7602   23.2857 H   0  0  0  0  0  0
  -22.4171  -11.9841   22.4723 H   0  0  0  0  0  0
  -21.1174  -13.1232   22.2671 H   0  0  0  0  0  0
  -24.6808  -15.8513   20.5401 H   0  0  0  0  0  0
  -26.2977  -15.6248   20.1043 H   0  0  0  0  0  0
  -26.7104  -32.5542   23.1155 H   0  0  0  0  0  0
  -25.0121  -33.9789   25.0539 H   0  0  0  0  0  0
  -22.6875  -31.3114   21.4111 H   0  0  0  0  0  0
  -23.3748  -35.9660   23.3290 H   0  0  0  0  0  0
  -24.3605  -36.8922   22.2059 H   0  0  0  0  0  0
  -23.7258  -37.6525   23.6642 H   0  0  0  0  0  0
  -26.0251  -31.6058   20.5800 H   0  0  0  0  0  0
  -26.8180  -30.9035   21.9684 H   0  0  0  0  0  0
  -28.0991  -29.1227   21.1530 H   0  0  0  0  0  0
  -26.0389  -25.9837   19.0153 H   0  0  0  0  0  0
  -23.9741  -27.3042   19.0333 H   0  0  0  0  0  0
  -23.7131  -30.6098   19.4056 H   0  0  0  0  0  0
  -22.7305  -29.2530   19.8667 H   0  0  0  0  0  0
  -25.1260  -36.1963   25.0833 H   0  0  0  0  0  0
  -20.9972  -28.3223   24.1411 H   0  0  0  0  0  0
  -20.5657  -26.2266   23.3578 H   0  0  0  0  0  0
  -21.6639  -26.7402   22.1195 H   0  0  0  0  0  0
  -19.6916  -25.6296   21.1216 H   0  0  0  0  0  0
  -19.6707  -27.3196   20.6736 H   0  0  0  0  0  0
  -17.4196  -26.6658   21.4023 H   0  0  0  0  0  0
  -18.0342  -26.0034   22.8998 H   0  0  0  0  0  0
  -19.7954  -30.7257   24.2249 H   0  0  0  0  0  0
  -17.5041  -31.6248   24.5191 H   0  0  0  0  0  0
  -15.5372  -30.3006   23.7635 H   0  0  0  0  0  0
  -15.8667  -28.0871   22.6966 H   0  0  0  0  0  0
  -24.5944  -30.6970   25.7862 H   0  0  0  0  0  0
  -24.8918  -32.2830   26.4897 H   0  0  0  0  0  0
  -25.8134  -30.8910   27.0261 H   0  0  0  0  0  0
  -26.2819  -29.6800   24.1092 H   0  0  0  0  0  0
  -27.4148  -29.7233   25.4409 H   0  0  0  0  0  0
  -27.8599  -30.4389   23.9093 H   0  0  0  0  0  0
  -27.2666  -33.3608   26.2021 H   0  0  0  0  0  0
  -28.3871  -32.6812   25.0314 H   0  0  0  0  0  0
  -28.0674  -31.8429   26.5419 H   0  0  0  0  0  0
  -28.2559  -38.0127   24.7512 H   0  0  0  0  0  0
  -28.1109  -36.2655   24.6278 H   0  0  0  0  0  0
  -27.2318  -37.1423   25.8876 H   0  0  0  0  0  0
  -20.9267  -29.8847   21.7029 H   0  0  0  0  0  0
  -26.0175  -38.2861   24.1430 H   0  0  0  0  0  0
  -32.8733  -23.6702   21.3469 H   0  0  0  0  0  0
  -30.4980  -19.9110   19.3700 H   0  0  0  0  0  0
  -29.9216  -14.7315   23.9098 H   0  0  0  0  0  0
  -31.6256  -14.3616   23.6383 H   0  0  0  0  0  0
  -30.3891  -13.2273   23.1361 H   0  0  0  0  0  0
  -32.4192  -20.1487   23.4052 H   0  0  0  0  0  0
  -33.6182  -18.8585   23.4978 H   0  0  0  0  0  0
  -32.0114  -18.6362   24.1895 H   0  0  0  0  0  0
  -30.1890  -24.4408   18.9035 H   0  0  0  0  0  0
  -31.3388  -25.1689   19.9893 H   0  0  0  0  0  0
  -33.7952  -19.1513   20.9836 H   0  0  0  0  0  0
  -32.5035  -18.5441   19.9814 H   0  0  0  0  0  0
  -29.8293  -25.2085   21.8049 H   0  0  0  0  0  0
  -29.1140  -23.7008   21.3424 H   0  0  0  0  0  0
  -30.1332  -16.8503   21.1067 H   0  0  0  0  0  0
  -30.0863  -16.7839   22.8438 H   0  0  0  0  0  0
  -32.6964  -16.6682   21.2080 H   0  0  0  0  0  0
  -32.5910  -16.6425   22.9312 H   0  0  0  0  0  0
  -27.3897  -25.1684   21.0592 H   0  0  0  0  0  0
  -27.9195  -24.8255   19.4259 H   0  0  0  0  0  0
  -31.0989  -18.7786   22.0075 H   0  0  0  0  0  0
  1 25  1  0  0  0
  1 30  2  0  0  0
  1 85  1  0  0  0
  2  3  1  0  0  0
  2 25  1  0  0  0
  2 87  1  0  0  0
  2 88  1  0  0  0
  3  4  1  0  0  0
  3 89  1  0  0  0
  3 90  1  0  0  0
  4  5  1  0  0  0
  4 91  1  0  0  0
  4 92  1  0  0  0
  5  6  1  0  0  0
  5 26  1  0  0  0
  5 93  1  0  0  0
  6 25  1  0  0  0
  6 94  1  0  0  0
  6 95  1  0  0  0
  7  8  2  0  0  0
  7 26  1  0  0  0
  7 29  1  0  0  0
  8  9  1  0  0  0
  8 22  1  0  0  0
  9 10  1  0  0  0
  9 27  2  0  0  0
 10 11  2  0  0  0
 10 15  1  0  0  0
 11 12  1  0  0  0
 11 96  1  0  0  0
 12 13  2  0  0  0
 12 97  1  0  0  0
 13 14  1  0  0  0
 13 31  1  0  0  0
 14 15  2  0  0  0
 14 98  1  0  0  0
 15 99  1  0  0  0
 16 17  2  0  0  0
 16 21  1  0  0  0
 16 31  1  0  0  0
 17 18  1  0  0  0
 17100  1  0  0  0
 18 19  2  0  0  0
 18101  1  0  0  0
 19 20  1  0  0  0
 19 24  1  0  0  0
 20 21  2  0  0  0
 20102  1  0  0  0
 21 23  1  0  0  0
 22 28  1  0  0  0
 22 32  2  0  0  0
 26 27  1  0  0  0
 28103  1  0  0  0
 28104  1  0  0  0
 29105  1  0  0  0
 29106  1  0  0  0
 33 34  1  0  0  0
 33 66  1  0  0  0
 33 70  2  0  0  0
 34 36  1  0  0  0
 34 59  1  0  0  0
 34107  1  0  0  0
 35 44  2  0  0  0
 35 45  1  0  0  0
 35 68  1  0  0  0
 36 56  1  0  0  0
 36108  1  0  0  0
 37 39  1  0  0  0
 37 47  1  0  0  0
 37 66  1  0  0  0
 37109  1  0  0  0
 38 43  2  0  0  0
 38 46  1  0  0  0
 38 47  1  0  0  0
 39 64  1  0  0  0
 39 67  2  0  0  0
 40 52  1  0  0  0
 40 53  2  0  0  0
 40 58  1  0  0  0
 41110  1  0  0  0
 41111  1  0  0  0
 41112  1  0  0  0
 41 48  1  0  0  0
 42 43  1  0  0  0
 42 66  1  0  0  0
 42113  1  0  0  0
 42114  1  0  0  0
 43 44  1  0  0  0
 44115  1  0  0  0
 45 46  2  0  0  0
 45116  1  0  0  0
 46117  1  0  0  0
 47118  1  0  0  0
 47119  1  0  0  0
 48 56  1  0  0  0
 48 65  1  0  0  0
 48120  1  0  0  0
 49 50  1  0  0  0
 49 53  1  0  0  0
 49 64  1  0  0  0
 49121  1  0  0  0
 50 51  1  0  0  0
 50122  1  0  0  0
 50123  1  0  0  0
 51 52  1  0  0  0
 51124  1  0  0  0
 51125  1  0  0  0
 52126  1  0  0  0
 52127  1  0  0  0
 53 54  1  0  0  0
 54 55  2  0  0  0
 54128  1  0  0  0
 55 57  1  0  0  0
 55129  1  0  0  0
 56 69  2  0  0  0
 57 58  2  0  0  0
 57130  1  0  0  0
 58131  1  0  0  0
 59 60  1  0  0  0
 59 61  1  0  0  0
 59 62  1  0  0  0
 60132  1  0  0  0
 60133  1  0  0  0
 60134  1  0  0  0
 61135  1  0  0  0
 61136  1  0  0  0
 61137  1  0  0  0
 62138  1  0  0  0
 62139  1  0  0  0
 62140  1  0  0  0
 63 65  1  0  0  0
 63141  1  0  0  0
 63142  1  0  0  0
 63143  1  0  0  0
 64144  1  0  0  0
 65145  1  0  0  0
 68 82  1  0  0  0
 71 73  2  0  0  0
 71 84  1  0  0  0
 71146  1  0  0  0
 72 74  1  0  0  0
 72 83  2  0  0  0
 72147  1  0  0  0
 73 77  1  0  0  0
 73 83  1  0  0  0
 74 78  1  0  0  0
 74 84  2  0  0  0
 75 85  1  0  0  0
 75148  1  0  0  0
 75149  1  0  0  0
 75150  1  0  0  0
 76151  1  0  0  0
 76152  1  0  0  0
 76153  1  0  0  0
 76 86  1  0  0  0
 77 79  1  0  0  0
 77154  1  0  0  0
 77155  1  0  0  0
 78 86  1  0  0  0
 78156  1  0  0  0
 78157  1  0  0  0
 79 82  1  0  0  0
 79158  1  0  0  0
 79159  1  0  0  0
 80 81  1  0  0  0
 80 85  1  0  0  0
 80160  1  0  0  0
 80161  1  0  0  0
 81 86  1  0  0  0
 81162  1  0  0  0
 81163  1  0  0  0
 82164  1  0  0  0
 82165  1  0  0  0
 86166  1  0  0  0
M  CHG  1  86   1
M  ISO  4   1 100  68 101  82 101  85 100
M  END
> <chiral flag>
0

> <version>
0

> <s_m_source_file>
/data/baiqing/PycharmProjects/Reinvent-master-3.2/result/LINK_invent/BTK/process_docking_weight1_custom_sum_contain_oxygen_bond_distance_aromatic_linkinvent_7_9_3/rearranged_h_0051.sdf

> <i_m_source_file_index>
55

> <r_mmod_Potential_Energy-OPLS-2005>
-42.0364608764648

> <r_mmod_Stretch_Energy-OPLS-2005>
38.0819129943848

> <r_mmod_Bend_Energy-OPLS-2005>
91.4670257568359

> <r_mmod_Torsional_Energy-OPLS-2005>
286.847412109375

> <r_mmod_Improper_Torsional_Energy-OPLS-2005>
2.48169541358948

> <r_mmod_Van_der_Waal_Energy-OPLS-2005>
167.791549682617

> <r_mmod_Electrostatic_Energy-OPLS-2005>
-205.140960693359

> <r_mmod_Solvation_Energy-OPLS-2005>
-434.418212890625

> <b_mmod_Minimization_Converged-OPLS-2005>
0

> <r_mmod_RMS_Derivative-OPLS-2005>
2.53348588943481

$$$$
56
                    3D
 Structure written by MMmdl.
169177  0  0  1  0            999 V2000
  -30.7280  -14.4881   20.4757 C   0  0  0  0  0  0
  -30.4125  -12.2908   19.4236 C   0  0  0  0  0  0
  -29.4824  -12.4442   18.2021 C   0  0  0  0  0  0
  -28.0050  -12.3388   18.6254 C   0  0  0  0  0  0
  -27.6552  -13.2070   19.8664 C   0  0  2  0  0  0
  -28.7101  -13.0528   20.9840 C   0  0  0  0  0  0
  -25.2564  -13.8184   20.5691 C   0  0  0  0  0  0
  -24.1833  -13.0445   20.9196 C   0  0  0  0  0  0
  -24.6409  -11.6918   20.8776 C   0  0  0  0  0  0
  -23.9083  -10.4300   21.0429 C   0  0  0  0  0  0
  -24.3636   -9.4206   21.9198 C   0  0  0  0  0  0
  -23.6307   -8.2246   22.0760 C   0  0  0  0  0  0
  -22.4280   -8.0296   21.3557 C   0  0  0  0  0  0
  -21.9922   -9.0269   20.4654 C   0  0  0  0  0  0
  -22.7259  -10.2146   20.3066 C   0  0  0  0  0  0
  -21.6859   -6.0747   22.5285 C   0  0  0  0  0  0
  -21.4018   -6.5644   23.8221 C   0  0  0  0  0  0
  -21.3655   -5.6792   24.9179 C   0  0  0  0  0  0
  -21.6040   -4.3053   24.7227 C   0  0  0  0  0  0
  -21.8819   -3.8159   23.4347 C   0  0  0  0  0  0
  -21.9188   -4.6977   22.3402 C   0  0  0  0  0  0
  -22.7844  -13.5214   21.1844 C   0  0  0  0  0  0
  -22.1636   -4.2164   21.0976 F   0  0  0  0  0  0
  -21.5642   -3.4523   25.7735 F   0  0  0  0  0  0
  -30.0270  -13.3244   20.3959 N   0  0  0  0  0  0
  -26.3021  -12.9352   20.3428 N   0  0  0  0  0  0
  -25.9346  -11.6515   20.5880 N   0  0  0  0  0  0
  -22.0493  -12.8211   22.0416 N   0  0  0  0  0  0
  -25.4235  -15.1906   20.4055 N   0  0  0  0  0  0
  -31.9353  -14.5309   20.2367 O   0  0  0  0  0  0
  -21.6644   -6.8889   21.4249 O   0  0  0  0  0  0
  -22.3509  -14.5501   20.6663 O   0  0  0  0  0  0
  -24.6119  -31.8680   23.2107 C   0  0  0  0  0  0
  -25.9006  -32.4822   23.8402 C   0  0  1  0  0  0
  -27.2403  -27.4528   20.0895 C   0  0  0  0  0  0
  -25.5840  -33.8626   24.2332 N   0  0  0  0  0  0
  -23.4020  -30.4900   21.5493 C   0  0  2  0  0  0
  -24.8530  -28.9562   20.1146 C   0  0  0  0  0  0
  -22.7406  -29.4653   22.4987 C   0  0  0  0  0  0
  -18.0258  -28.1389   22.8467 C   0  0  0  0  0  0
  -24.1484  -36.7335   23.2645 C   0  0  0  0  0  0
  -25.9275  -30.8365   21.3627 C   0  0  0  0  0  0
  -26.0087  -29.4702   20.7163 C   0  0  0  0  0  0
  -27.2091  -28.7224   20.7086 C   0  0  0  0  0  0
  -26.0756  -26.9497   19.4814 C   0  0  0  0  0  0
  -24.8802  -27.6940   19.4957 C   0  0  0  0  0  0
  -23.6122  -29.8210   20.1637 C   0  0  0  0  0  0
  -25.4096  -36.3129   24.0349 C   0  0  1  0  0  0
  -20.5846  -28.3667   23.1315 C   0  0  2  0  0  0
  -20.6743  -26.9398   22.5436 C   0  0  0  0  0  0
  -19.5727  -26.6389   21.5223 C   0  0  0  0  0  0
  -18.1902  -26.7931   22.1617 C   0  0  0  0  0  0
  -19.1509  -28.8848   23.2894 C   0  0  0  0  0  0
  -18.9445  -30.1450   23.8920 C   0  0  0  0  0  0
  -17.6448  -30.6597   24.0565 C   0  0  0  0  0  0
  -25.9014  -34.9488   23.5157 C   0  0  0  0  0  0
  -16.5333  -29.9100   23.6326 C   0  0  0  0  0  0
  -16.7252  -28.6520   23.0334 C   0  0  0  0  0  0
  -26.4442  -31.6581   25.0717 C   0  0  0  0  0  0
  -25.3702  -31.3643   26.1456 C   0  0  0  0  0  0
  -27.0265  -30.3034   24.6050 C   0  0  0  0  0  0
  -27.6061  -32.4256   25.7434 C   0  0  0  0  0  0
  -27.5581  -37.1801   24.8459 C   0  0  0  0  0  0
  -21.4139  -29.3026   22.3730 N   0  0  0  0  0  0
  -26.4292  -37.3801   23.9416 N   0  0  0  0  0  0
  -24.6654  -31.0775   22.1013 N   0  0  0  0  0  0
  -23.4186  -28.8196   23.3035 O   0  0  0  0  0  0
  -28.3804  -26.6862   20.0680 O   0  0  0  0  0  0
  -26.5606  -34.8929   22.4732 O   0  0  0  0  0  0
  -23.5311  -32.1428   23.7496 O   0  0  0  0  0  0
  -28.6775  -21.1225   22.4493 C   0  0  0  0  0  0
  -29.3642  -22.3135   22.3932 C   0  0  0  0  0  0
  -30.8404  -20.6336   22.4520 C   0  0  0  0  0  0
  -32.1621  -19.9342   22.5090 C   0  0  0  0  0  0
  -28.8402  -16.8030   18.2856 C   0  0  0  0  0  0
  -31.3593  -17.1839   18.7024 C   0  0  0  0  0  0
  -28.9007  -23.7437   22.4438 C   0  0  0  0  0  0
  -28.9282  -24.4997   21.0952 C   0  0  0  0  0  0
  -29.8689  -17.8229   21.4259 C   0  0  0  0  0  0
  -29.3005  -18.6561   22.5944 C   0  0  0  0  0  0
  -29.3189  -16.3811   21.2695 C   0  0  0  0  0  0
  -28.6393  -26.0054   21.2997 C   0  0  0  0  0  0
  -30.1503  -16.2236   18.8543 C   0  0  0  0  0  0
  -29.6025  -20.1040   22.4824 N   0  0  0  0  0  0
  -30.6898  -21.9618   22.3723 N   0  3  0  0  0  0
  -29.9927  -15.6030   20.2018 N   0  0  0  0  0  0
  -31.4546  -12.3712   19.1113 H   0  0  0  0  0  0
  -30.3077  -11.2986   19.8658 H   0  0  0  0  0  0
  -29.7097  -11.6786   17.4578 H   0  0  0  0  0  0
  -29.6558  -13.3972   17.7052 H   0  0  0  0  0  0
  -27.8058  -11.2887   18.8411 H   0  0  0  0  0  0
  -27.3559  -12.5997   17.7898 H   0  0  0  0  0  0
  -27.6760  -14.2432   19.5402 H   0  0  0  0  0  0
  -28.6912  -12.0421   21.3930 H   0  0  0  0  0  0
  -28.5014  -13.7226   21.8180 H   0  0  0  0  0  0
  -25.2793   -9.5665   22.4768 H   0  0  0  0  0  0
  -24.0009   -7.4625   22.7469 H   0  0  0  0  0  0
  -21.0855   -8.8803   19.8947 H   0  0  0  0  0  0
  -22.3741  -10.9692   19.6167 H   0  0  0  0  0  0
  -21.2014   -7.6153   23.9722 H   0  0  0  0  0  0
  -21.1468   -6.0529   25.9081 H   0  0  0  0  0  0
  -22.0606   -2.7623   23.2851 H   0  0  0  0  0  0
  -22.4105  -11.9862   22.4795 H   0  0  0  0  0  0
  -21.1123  -13.1254   22.2626 H   0  0  0  0  0  0
  -24.6498  -15.8396   20.5002 H   0  0  0  0  0  0
  -26.2795  -15.6398   20.1075 H   0  0  0  0  0  0
  -26.7084  -32.5554   23.1173 H   0  0  0  0  0  0
  -24.9908  -33.9798   25.0412 H   0  0  0  0  0  0
  -22.6913  -31.3076   21.4094 H   0  0  0  0  0  0
  -23.3740  -35.9673   23.3307 H   0  0  0  0  0  0
  -24.3604  -36.8959   22.2066 H   0  0  0  0  0  0
  -23.7224  -37.6536   23.6652 H   0  0  0  0  0  0
  -26.0341  -31.5959   20.5865 H   0  0  0  0  0  0
  -26.8170  -30.8994   21.9757 H   0  0  0  0  0  0
  -28.1035  -29.1123   21.1748 H   0  0  0  0  0  0
  -26.0970  -25.9798   19.0034 H   0  0  0  0  0  0
  -23.9904  -27.2956   19.0270 H   0  0  0  0  0  0
  -23.7182  -30.5953   19.4035 H   0  0  0  0  0  0
  -22.7356  -29.2409   19.8686 H   0  0  0  0  0  0
  -25.1262  -36.2020   25.0840 H   0  0  0  0  0  0
  -20.9932  -28.3236   24.1432 H   0  0  0  0  0  0
  -20.5645  -26.2269   23.3622 H   0  0  0  0  0  0
  -21.6611  -26.7440   22.1220 H   0  0  0  0  0  0
  -19.6897  -25.6318   21.1214 H   0  0  0  0  0  0
  -19.6680  -27.3227   20.6777 H   0  0  0  0  0  0
  -17.4171  -26.6667   21.4020 H   0  0  0  0  0  0
  -18.0311  -26.0104   22.9041 H   0  0  0  0  0  0
  -19.7934  -30.7247   24.2300 H   0  0  0  0  0  0
  -17.5012  -31.6274   24.5173 H   0  0  0  0  0  0
  -15.5341  -30.3002   23.7667 H   0  0  0  0  0  0
  -15.8638  -28.0862   22.7021 H   0  0  0  0  0  0
  -24.5921  -30.6949   25.7764 H   0  0  0  0  0  0
  -24.8829  -32.2770   26.4903 H   0  0  0  0  0  0
  -25.8067  -30.8806   27.0209 H   0  0  0  0  0  0
  -26.2798  -29.6779   24.1151 H   0  0  0  0  0  0
  -27.4106  -29.7278   25.4485 H   0  0  0  0  0  0
  -27.8594  -30.4376   23.9146 H   0  0  0  0  0  0
  -27.2767  -33.3570   26.2038 H   0  0  0  0  0  0
  -28.3836  -32.6778   25.0213 H   0  0  0  0  0  0
  -28.0749  -31.8332   26.5302 H   0  0  0  0  0  0
  -28.2584  -38.0116   24.7551 H   0  0  0  0  0  0
  -28.1094  -36.2655   24.6218 H   0  0  0  0  0  0
  -27.2317  -37.1379   25.8866 H   0  0  0  0  0  0
  -20.9306  -29.8772   21.6957 H   0  0  0  0  0  0
  -26.0197  -38.2882   24.1427 H   0  0  0  0  0  0
  -27.6126  -20.9348   22.4999 H   0  0  0  0  0  0
  -32.0663  -19.0100   23.0774 H   0  0  0  0  0  0
  -32.8806  -20.5844   23.0073 H   0  0  0  0  0  0
  -32.4889  -19.7216   21.4904 H   0  0  0  0  0  0
  -28.0272  -16.0814   18.3288 H   0  0  0  0  0  0
  -28.9676  -17.0719   17.2372 H   0  0  0  0  0  0
  -28.5105  -17.7011   18.8024 H   0  0  0  0  0  0
  -31.6166  -17.3006   17.6493 H   0  0  0  0  0  0
  -32.2543  -16.8133   19.2022 H   0  0  0  0  0  0
  -31.1727  -18.1881   19.0737 H   0  0  0  0  0  0
  -29.5164  -24.2727   23.1730 H   0  0  0  0  0  0
  -27.8885  -23.7655   22.8495 H   0  0  0  0  0  0
  -28.1912  -24.0624   20.4222 H   0  0  0  0  0  0
  -29.8980  -24.3848   20.6086 H   0  0  0  0  0  0
  -30.9533  -17.7645   21.5059 H   0  0  0  0  0  0
  -29.6453  -18.3922   20.5283 H   0  0  0  0  0  0
  -29.6709  -18.3014   23.5563 H   0  0  0  0  0  0
  -28.2150  -18.5559   22.6201 H   0  0  0  0  0  0
  -28.2486  -16.4065   21.0659 H   0  0  0  0  0  0
  -29.4278  -15.8657   22.2259 H   0  0  0  0  0  0
  -29.4944  -26.4828   21.7795 H   0  0  0  0  0  0
  -27.8020  -26.1152   21.9923 H   0  0  0  0  0  0
  -30.3924  -15.4051   18.1744 H   0  0  0  0  0  0
  -31.4624  -22.6177   22.3414 H   0  0  0  0  0  0
  1 25  1  0  0  0
  1 30  2  0  0  0
  1 86  1  0  0  0
  2  3  1  0  0  0
  2 25  1  0  0  0
  2 87  1  0  0  0
  2 88  1  0  0  0
  3  4  1  0  0  0
  3 89  1  0  0  0
  3 90  1  0  0  0
  4  5  1  0  0  0
  4 91  1  0  0  0
  4 92  1  0  0  0
  5  6  1  0  0  0
  5 26  1  0  0  0
  5 93  1  0  0  0
  6 25  1  0  0  0
  6 94  1  0  0  0
  6 95  1  0  0  0
  7  8  2  0  0  0
  7 26  1  0  0  0
  7 29  1  0  0  0
  8  9  1  0  0  0
  8 22  1  0  0  0
  9 10  1  0  0  0
  9 27  2  0  0  0
 10 11  2  0  0  0
 10 15  1  0  0  0
 11 12  1  0  0  0
 11 96  1  0  0  0
 12 13  2  0  0  0
 12 97  1  0  0  0
 13 14  1  0  0  0
 13 31  1  0  0  0
 14 15  2  0  0  0
 14 98  1  0  0  0
 15 99  1  0  0  0
 16 17  2  0  0  0
 16 21  1  0  0  0
 16 31  1  0  0  0
 17 18  1  0  0  0
 17100  1  0  0  0
 18 19  2  0  0  0
 18101  1  0  0  0
 19 20  1  0  0  0
 19 24  1  0  0  0
 20 21  2  0  0  0
 20102  1  0  0  0
 21 23  1  0  0  0
 22 28  1  0  0  0
 22 32  2  0  0  0
 26 27  1  0  0  0
 28103  1  0  0  0
 28104  1  0  0  0
 29105  1  0  0  0
 29106  1  0  0  0
 33 34  1  0  0  0
 33 66  1  0  0  0
 33 70  2  0  0  0
 34 36  1  0  0  0
 34 59  1  0  0  0
 34107  1  0  0  0
 35 44  2  0  0  0
 35 45  1  0  0  0
 35 68  1  0  0  0
 36 56  1  0  0  0
 36108  1  0  0  0
 37 39  1  0  0  0
 37 47  1  0  0  0
 37 66  1  0  0  0
 37109  1  0  0  0
 38 43  2  0  0  0
 38 46  1  0  0  0
 38 47  1  0  0  0
 39 64  1  0  0  0
 39 67  2  0  0  0
 40 52  1  0  0  0
 40 53  2  0  0  0
 40 58  1  0  0  0
 41110  1  0  0  0
 41111  1  0  0  0
 41112  1  0  0  0
 41 48  1  0  0  0
 42 43  1  0  0  0
 42 66  1  0  0  0
 42113  1  0  0  0
 42114  1  0  0  0
 43 44  1  0  0  0
 44115  1  0  0  0
 45 46  2  0  0  0
 45116  1  0  0  0
 46117  1  0  0  0
 47118  1  0  0  0
 47119  1  0  0  0
 48 56  1  0  0  0
 48 65  1  0  0  0
 48120  1  0  0  0
 49 50  1  0  0  0
 49 53  1  0  0  0
 49 64  1  0  0  0
 49121  1  0  0  0
 50 51  1  0  0  0
 50122  1  0  0  0
 50123  1  0  0  0
 51 52  1  0  0  0
 51124  1  0  0  0
 51125  1  0  0  0
 52126  1  0  0  0
 52127  1  0  0  0
 53 54  1  0  0  0
 54 55  2  0  0  0
 54128  1  0  0  0
 55 57  1  0  0  0
 55129  1  0  0  0
 56 69  2  0  0  0
 57 58  2  0  0  0
 57130  1  0  0  0
 58131  1  0  0  0
 59 60  1  0  0  0
 59 61  1  0  0  0
 59 62  1  0  0  0
 60132  1  0  0  0
 60133  1  0  0  0
 60134  1  0  0  0
 61135  1  0  0  0
 61136  1  0  0  0
 61137  1  0  0  0
 62138  1  0  0  0
 62139  1  0  0  0
 62140  1  0  0  0
 63 65  1  0  0  0
 63141  1  0  0  0
 63142  1  0  0  0
 63143  1  0  0  0
 64144  1  0  0  0
 65145  1  0  0  0
 68 82  1  0  0  0
 71 72  2  0  0  0
 71 84  1  0  0  0
 71146  1  0  0  0
 72 77  1  0  0  0
 72 85  1  0  0  0
 73 74  1  0  0  0
 73 84  1  0  0  0
 73 85  2  0  0  0
 74147  1  0  0  0
 74148  1  0  0  0
 74149  1  0  0  0
 75150  1  0  0  0
 75151  1  0  0  0
 75152  1  0  0  0
 75 83  1  0  0  0
 76 83  1  0  0  0
 76153  1  0  0  0
 76154  1  0  0  0
 76155  1  0  0  0
 77 78  1  0  0  0
 77156  1  0  0  0
 77157  1  0  0  0
 78 82  1  0  0  0
 78158  1  0  0  0
 78159  1  0  0  0
 79 80  1  0  0  0
 79 81  1  0  0  0
 79160  1  0  0  0
 79161  1  0  0  0
 80 84  1  0  0  0
 80162  1  0  0  0
 80163  1  0  0  0
 81 86  1  0  0  0
 81164  1  0  0  0
 81165  1  0  0  0
 82166  1  0  0  0
 82167  1  0  0  0
 83 86  1  0  0  0
 83168  1  0  0  0
 85169  1  0  0  0
M  CHG  1  85   1
M  ISO  4   1 100  68 101  82 101  86 100
M  END
> <chiral flag>
0

> <version>
0

> <s_m_source_file>
/data/baiqing/PycharmProjects/Reinvent-master-3.2/result/LINK_invent/BTK/process_docking_weight1_custom_sum_contain_oxygen_bond_distance_aromatic_linkinvent_7_9_3/rearranged_h_0051.sdf

> <i_m_source_file_index>
56

> <r_mmod_Potential_Energy-OPLS-2005>
172.075607299805

> <r_mmod_Stretch_Energy-OPLS-2005>
39.1247634887695

> <r_mmod_Bend_Energy-OPLS-2005>
103.129257202148

> <r_mmod_Torsional_Energy-OPLS-2005>
367.806335449219

> <r_mmod_Improper_Torsional_Energy-OPLS-2005>
22.3291854858398

> <r_mmod_Van_der_Waal_Energy-OPLS-2005>
122.192611694336

> <r_mmod_Electrostatic_Energy-OPLS-2005>
-109.791030883789

> <r_mmod_Solvation_Energy-OPLS-2005>
-396.809295654297

> <b_mmod_Minimization_Converged-OPLS-2005>
0

> <r_mmod_RMS_Derivative-OPLS-2005>
2.80294966697693

$$$$
57
                    3D
 Structure written by MMmdl.
157165  0  0  1  0            999 V2000
  -30.8601  -14.7196   20.6037 C   0  0  0  0  0  0
  -30.3413  -12.4092   19.6536 C   0  0  0  0  0  0
  -29.6310  -12.7112   18.3328 C   0  0  0  0  0  0
  -28.1176  -12.5919   18.5949 C   0  0  0  0  0  0
  -27.6670  -13.3731   19.8640 C   0  0  2  0  0  0
  -28.6765  -13.3919   21.0552 C   0  0  0  0  0  0
  -25.2438  -13.8381   20.5448 C   0  0  0  0  0  0
  -24.1947  -13.0486   20.9090 C   0  0  0  0  0  0
  -24.6762  -11.7099   20.8618 C   0  0  0  0  0  0
  -23.9498  -10.4395   21.0225 C   0  0  0  0  0  0
  -24.3980   -9.4381   21.9113 C   0  0  0  0  0  0
  -23.6543   -8.2522   22.0860 C   0  0  0  0  0  0
  -22.4375   -8.0641   21.3762 C   0  0  0  0  0  0
  -22.0130   -9.0514   20.4739 C   0  0  0  0  0  0
  -22.7589  -10.2286   20.3021 C   0  0  0  0  0  0
  -21.6854   -6.1082   22.5420 C   0  0  0  0  0  0
  -21.3965   -6.5832   23.8465 C   0  0  0  0  0  0
  -21.3566   -5.6824   24.9282 C   0  0  0  0  0  0
  -21.6014   -4.3182   24.7156 C   0  0  0  0  0  0
  -21.8826   -3.8411   23.4274 C   0  0  0  0  0  0
  -21.9241   -4.7304   22.3391 C   0  0  0  0  0  0
  -22.7940  -13.5267   21.1670 C   0  0  0  0  0  0
  -22.1721   -4.2530   21.1000 F   0  0  0  0  0  0
  -21.5558   -3.4622   25.7618 F   0  0  0  0  0  0
  -30.0696  -13.5796   20.5557 N   0  0  0  0  0  0
  -26.3139  -12.9960   20.3081 N   0  0  0  0  0  0
  -25.9757  -11.6899   20.5605 N   0  0  0  0  0  0
  -22.0543  -12.8214   22.0176 N   0  0  0  0  0  0
  -25.3845  -15.2183   20.4231 N   0  0  0  0  0  0
  -31.8989  -14.7595   19.9363 O   0  0  0  0  0  0
  -21.6717   -6.9226   21.4465 O   0  0  0  0  0  0
  -22.3717  -14.5554   20.6492 O   0  0  0  0  0  0
  -24.6251  -31.8526   23.2072 C   0  0  0  0  0  0
  -25.9089  -32.4760   23.8396 C   0  0  1  0  0  0
  -27.1988  -27.2558   20.1081 C   0  0  0  0  0  0
  -25.5934  -33.8564   24.2344 N   0  0  0  0  0  0
  -23.4282  -30.4896   21.5505 C   0  0  2  0  0  0
  -24.8561  -28.9412   20.1036 C   0  0  0  0  0  0
  -22.7515  -29.4589   22.4930 C   0  0  0  0  0  0
  -18.0281  -28.1362   22.8475 C   0  0  0  0  0  0
  -24.1473  -36.7300   23.2645 C   0  0  0  0  0  0
  -25.9800  -30.7807   21.3693 C   0  0  0  0  0  0
  -26.0455  -29.3977   20.7099 C   0  0  0  0  0  0
  -27.2183  -28.5796   20.6907 C   0  0  0  0  0  0
  -25.9831  -26.8839   19.4879 C   0  0  0  0  0  0
  -24.8395  -27.6975   19.4854 C   0  0  0  0  0  0
  -23.6414  -29.8390   20.1658 C   0  0  0  0  0  0
  -25.4102  -36.3098   24.0371 C   0  0  1  0  0  0
  -20.5905  -28.3656   23.1275 C   0  0  2  0  0  0
  -20.6731  -26.9355   22.5398 C   0  0  0  0  0  0
  -19.5713  -26.6371   21.5180 C   0  0  0  0  0  0
  -18.1922  -26.7905   22.1606 C   0  0  0  0  0  0
  -19.1537  -28.8823   23.2897 C   0  0  0  0  0  0
  -18.9451  -30.1430   23.8900 C   0  0  0  0  0  0
  -17.6439  -30.6560   24.0547 C   0  0  0  0  0  0
  -25.9018  -34.9450   23.5132 C   0  0  0  0  0  0
  -16.5330  -29.9083   23.6305 C   0  0  0  0  0  0
  -16.7268  -28.6508   23.0342 C   0  0  0  0  0  0
  -26.4486  -31.6553   25.0740 C   0  0  0  0  0  0
  -25.3813  -31.3588   26.1533 C   0  0  0  0  0  0
  -27.0345  -30.2996   24.6128 C   0  0  0  0  0  0
  -27.6119  -32.4258   25.7515 C   0  0  0  0  0  0
  -27.5589  -37.1798   24.8492 C   0  0  0  0  0  0
  -21.4194  -29.3017   22.3709 N   0  0  0  0  0  0
  -26.4267  -37.3789   23.9452 N   0  0  0  0  0  0
  -24.7071  -31.0577   22.0982 N   0  0  0  0  0  0
  -23.4249  -28.8009   23.2926 O   0  0  0  0  0  0
  -28.2608  -26.3170   20.1618 O   0  0  0  0  0  0
  -26.5603  -34.8891   22.4697 O   0  0  0  0  0  0
  -23.5446  -32.1356   23.7463 O   0  0  0  0  0  0
  -30.3508  -24.1634   19.7957 C   0  0  0  0  0  0
  -31.3439  -23.1935   19.6540 C   0  0  0  0  0  0
  -29.0726  -23.7426   20.0768 C   0  0  0  0  0  0
  -29.8984  -21.4747   20.2247 C   0  0  0  0  0  0
  -32.7099  -23.6648   19.2467 C   0  0  0  0  0  0
  -31.1687  -15.4946   22.7722 C   0  0  0  0  0  0
  -27.9306  -24.8505   20.0109 C   0  0  0  0  0  0
  -29.7457  -19.9953   20.8843 C   0  0  0  0  0  0
  -30.1405  -18.5248   20.2489 C   0  0  0  0  0  0
  -30.8133  -17.3945   21.2467 C   0  0  0  0  0  0
  -31.1422  -21.8720   19.9044 N   0  0  0  0  0  0
  -28.8651  -22.3759   20.3015 N   0  0  0  0  0  0
  -30.5948  -15.8240   21.4212 N   0  0  0  0  0  0
  -31.3990  -12.2137   19.5278 H   0  0  0  0  0  0
  -29.9380  -11.4644   20.0619 H   0  0  0  0  0  0
  -29.9946  -12.0079   17.5774 H   0  0  0  0  0  0
  -29.9044  -13.7190   17.9995 H   0  0  0  0  0  0
  -27.8872  -11.5368   18.6952 H   0  0  0  0  0  0
  -27.5672  -13.0104   17.7483 H   0  0  0  0  0  0
  -27.6230  -14.4336   19.5616 H   0  0  0  0  0  0
  -28.5896  -12.5141   21.6837 H   0  0  0  0  0  0
  -28.3564  -14.2012   21.7036 H   0  0  0  0  0  0
  -25.3132   -9.5917   22.4748 H   0  0  0  0  0  0
  -24.0334   -7.4841   22.7585 H   0  0  0  0  0  0
  -21.1089   -8.9056   19.8916 H   0  0  0  0  0  0
  -22.4094  -10.9912   19.6272 H   0  0  0  0  0  0
  -21.1870   -7.6351   24.0120 H   0  0  0  0  0  0
  -21.1238   -6.0476   25.9234 H   0  0  0  0  0  0
  -22.0612   -2.7899   23.2585 H   0  0  0  0  0  0
  -22.4083  -11.9791   22.4467 H   0  0  0  0  0  0
  -21.1326  -13.1457   22.2497 H   0  0  0  0  0  0
  -24.5658  -15.8056   20.5200 H   0  0  0  0  0  0
  -26.2036  -15.7075   20.0863 H   0  0  0  0  0  0
  -26.7120  -32.5381   23.1128 H   0  0  0  0  0  0
  -25.0086  -33.9689   25.0504 H   0  0  0  0  0  0
  -22.7128  -31.3118   21.4213 H   0  0  0  0  0  0
  -23.3723  -35.9633   23.3292 H   0  0  0  0  0  0
  -24.3565  -36.8911   22.2057 H   0  0  0  0  0  0
  -23.7229  -37.6496   23.6643 H   0  0  0  0  0  0
  -26.0965  -31.5495   20.6084 H   0  0  0  0  0  0
  -26.8567  -30.8359   22.0047 H   0  0  0  0  0  0
  -28.1180  -28.9280   21.1518 H   0  0  0  0  0  0
  -25.8475  -25.9367   18.9974 H   0  0  0  0  0  0
  -23.9286  -27.3559   18.9989 H   0  0  0  0  0  0
  -23.7642  -30.6259   19.4225 H   0  0  0  0  0  0
  -22.7572  -29.2840   19.8423 H   0  0  0  0  0  0
  -25.1245  -36.1951   25.0861 H   0  0  0  0  0  0
  -20.9973  -28.3165   24.1416 H   0  0  0  0  0  0
  -20.5588  -26.2199   23.3613 H   0  0  0  0  0  0
  -21.6609  -26.7338   22.1203 H   0  0  0  0  0  0
  -19.6848  -25.6312   21.1194 H   0  0  0  0  0  0
  -19.6665  -27.3185   20.6754 H   0  0  0  0  0  0
  -17.4162  -26.6659   21.4041 H   0  0  0  0  0  0
  -18.0311  -26.0085   22.9030 H   0  0  0  0  0  0
  -19.7936  -30.7249   24.2268 H   0  0  0  0  0  0
  -17.5007  -31.6242   24.5143 H   0  0  0  0  0  0
  -15.5344  -30.2964   23.7663 H   0  0  0  0  0  0
  -15.8677  -28.0838   22.7039 H   0  0  0  0  0  0
  -24.5998  -30.6893   25.7829 H   0  0  0  0  0  0
  -24.8999  -32.2698   26.5082 H   0  0  0  0  0  0
  -25.8239  -30.8677   27.0210 H   0  0  0  0  0  0
  -26.2813  -29.6723   24.1286 H   0  0  0  0  0  0
  -27.4182  -29.7251   25.4550 H   0  0  0  0  0  0
  -27.8637  -30.4282   23.9195 H   0  0  0  0  0  0
  -27.2715  -33.3487   26.2206 H   0  0  0  0  0  0
  -28.3853  -32.6893   25.0296 H   0  0  0  0  0  0
  -28.0836  -31.8299   26.5335 H   0  0  0  0  0  0
  -28.2596  -38.0083   24.7514 H   0  0  0  0  0  0
  -28.1057  -36.2623   24.6298 H   0  0  0  0  0  0
  -27.2310  -37.1455   25.8880 H   0  0  0  0  0  0
  -20.9326  -29.8831   21.6992 H   0  0  0  0  0  0
  -26.0160  -38.2830   24.1462 H   0  0  0  0  0  0
  -30.5305  -25.2221   19.5940 H   0  0  0  0  0  0
  -33.4269  -23.6716   20.0578 H   0  0  0  0  0  0
  -32.5966  -24.7203   18.9438 H   0  0  0  0  0  0
  -33.1423  -23.1051   18.4256 H   0  0  0  0  0  0
  -31.5482  -14.4739   22.9740 H   0  0  0  0  0  0
  -30.4300  -15.6426   23.5314 H   0  0  0  0  0  0
  -31.9346  -16.2130   23.1159 H   0  0  0  0  0  0
  -27.0828  -24.5802   20.6589 H   0  0  0  0  0  0
  -27.5448  -24.7124   19.0038 H   0  0  0  0  0  0
  -30.3942  -20.0726   21.7593 H   0  0  0  0  0  0
  -28.7270  -19.8971   21.2541 H   0  0  0  0  0  0
  -30.8825  -18.7602   19.4782 H   0  0  0  0  0  0
  -29.2995  -18.0863   19.7430 H   0  0  0  0  0  0
  -31.8803  -17.5997   21.1940 H   0  0  0  0  0  0
  -30.5413  -17.8196   22.2157 H   0  0  0  0  0  0
  1 25  1  0  0  0
  1 30  2  0  0  0
  1 83  1  0  0  0
  2  3  1  0  0  0
  2 25  1  0  0  0
  2 84  1  0  0  0
  2 85  1  0  0  0
  3  4  1  0  0  0
  3 86  1  0  0  0
  3 87  1  0  0  0
  4  5  1  0  0  0
  4 88  1  0  0  0
  4 89  1  0  0  0
  5  6  1  0  0  0
  5 26  1  0  0  0
  5 90  1  0  0  0
  6 25  1  0  0  0
  6 91  1  0  0  0
  6 92  1  0  0  0
  7  8  2  0  0  0
  7 26  1  0  0  0
  7 29  1  0  0  0
  8  9  1  0  0  0
  8 22  1  0  0  0
  9 10  1  0  0  0
  9 27  2  0  0  0
 10 11  2  0  0  0
 10 15  1  0  0  0
 11 12  1  0  0  0
 11 93  1  0  0  0
 12 13  2  0  0  0
 12 94  1  0  0  0
 13 14  1  0  0  0
 13 31  1  0  0  0
 14 15  2  0  0  0
 14 95  1  0  0  0
 15 96  1  0  0  0
 16 17  2  0  0  0
 16 21  1  0  0  0
 16 31  1  0  0  0
 17 18  1  0  0  0
 17 97  1  0  0  0
 18 19  2  0  0  0
 18 98  1  0  0  0
 19 20  1  0  0  0
 19 24  1  0  0  0
 20 21  2  0  0  0
 20 99  1  0  0  0
 21 23  1  0  0  0
 22 28  1  0  0  0
 22 32  2  0  0  0
 26 27  1  0  0  0
 28100  1  0  0  0
 28101  1  0  0  0
 29102  1  0  0  0
 29103  1  0  0  0
 33 34  1  0  0  0
 33 66  1  0  0  0
 33 70  2  0  0  0
 34 36  1  0  0  0
 34 59  1  0  0  0
 34104  1  0  0  0
 35 44  2  0  0  0
 35 45  1  0  0  0
 35 68  1  0  0  0
 36 56  1  0  0  0
 36105  1  0  0  0
 37 39  1  0  0  0
 37 47  1  0  0  0
 37 66  1  0  0  0
 37106  1  0  0  0
 38 43  2  0  0  0
 38 46  1  0  0  0
 38 47  1  0  0  0
 39 64  1  0  0  0
 39 67  2  0  0  0
 40 52  1  0  0  0
 40 53  2  0  0  0
 40 58  1  0  0  0
 41107  1  0  0  0
 41108  1  0  0  0
 41109  1  0  0  0
 41 48  1  0  0  0
 42 43  1  0  0  0
 42 66  1  0  0  0
 42110  1  0  0  0
 42111  1  0  0  0
 43 44  1  0  0  0
 44112  1  0  0  0
 45 46  2  0  0  0
 45113  1  0  0  0
 46114  1  0  0  0
 47115  1  0  0  0
 47116  1  0  0  0
 48 56  1  0  0  0
 48 65  1  0  0  0
 48117  1  0  0  0
 49 50  1  0  0  0
 49 53  1  0  0  0
 49 64  1  0  0  0
 49118  1  0  0  0
 50 51  1  0  0  0
 50119  1  0  0  0
 50120  1  0  0  0
 51 52  1  0  0  0
 51121  1  0  0  0
 51122  1  0  0  0
 52123  1  0  0  0
 52124  1  0  0  0
 53 54  1  0  0  0
 54 55  2  0  0  0
 54125  1  0  0  0
 55 57  1  0  0  0
 55126  1  0  0  0
 56 69  2  0  0  0
 57 58  2  0  0  0
 57127  1  0  0  0
 58128  1  0  0  0
 59 60  1  0  0  0
 59 61  1  0  0  0
 59 62  1  0  0  0
 60129  1  0  0  0
 60130  1  0  0  0
 60131  1  0  0  0
 61132  1  0  0  0
 61133  1  0  0  0
 61134  1  0  0  0
 62135  1  0  0  0
 62136  1  0  0  0
 62137  1  0  0  0
 63 65  1  0  0  0
 63138  1  0  0  0
 63139  1  0  0  0
 63140  1  0  0  0
 64141  1  0  0  0
 65142  1  0  0  0
 68 77  1  0  0  0
 71 72  2  0  0  0
 71 73  1  0  0  0
 71143  1  0  0  0
 72 75  1  0  0  0
 72 81  1  0  0  0
 73 77  1  0  0  0
 73 82  2  0  0  0
 74 78  1  0  0  0
 74 81  2  0  0  0
 74 82  1  0  0  0
 75144  1  0  0  0
 75145  1  0  0  0
 75146  1  0  0  0
 76 83  1  0  0  0
 76147  1  0  0  0
 76148  1  0  0  0
 76149  1  0  0  0
 77150  1  0  0  0
 77151  1  0  0  0
 78 79  1  0  0  0
 78152  1  0  0  0
 78153  1  0  0  0
 79 80  1  0  0  0
 79154  1  0  0  0
 79155  1  0  0  0
 80 83  1  0  0  0
 80156  1  0  0  0
 80157  1  0  0  0
M  ISO  4   1 100  68 101  77 101  83 100
M  END
> <chiral flag>
0

> <version>
0

> <s_m_source_file>
/data/baiqing/PycharmProjects/Reinvent-master-3.2/result/LINK_invent/BTK/process_docking_weight1_custom_sum_contain_oxygen_bond_distance_aromatic_linkinvent_7_9_3/rearranged_h_0051.sdf

> <i_m_source_file_index>
57

> <r_mmod_Potential_Energy-OPLS-2005>
170.997817993164

> <r_mmod_Stretch_Energy-OPLS-2005>
194.280395507812

> <r_mmod_Bend_Energy-OPLS-2005>
306.465301513672

> <r_mmod_Torsional_Energy-OPLS-2005>
279.984649658203

> <r_mmod_Improper_Torsional_Energy-OPLS-2005>
10.6895036697388

> <r_mmod_Van_der_Waal_Energy-OPLS-2005>
154.790878295898

> <r_mmod_Electrostatic_Energy-OPLS-2005>
-674.591430664062

> <r_mmod_Solvation_Energy-OPLS-2005>
-225.112854003906

> <b_mmod_Minimization_Converged-OPLS-2005>
0

> <r_mmod_RMS_Derivative-OPLS-2005>
29.75510597229

$$$$
58
                    3D
 Structure written by MMmdl.
167175  0  0  1  0            999 V2000
  -30.7215  -14.4263   20.5744 C   0  0  0  0  0  0
  -30.4155  -12.2670   19.4320 C   0  0  0  0  0  0
  -29.4970  -12.4728   18.2095 C   0  0  0  0  0  0
  -28.0140  -12.3561   18.6141 C   0  0  0  0  0  0
  -27.6631  -13.2040   19.8676 C   0  0  2  0  0  0
  -28.7027  -12.9824   20.9912 C   0  0  0  0  0  0
  -25.2612  -13.8171   20.5673 C   0  0  0  0  0  0
  -24.1863  -13.0456   20.9162 C   0  0  0  0  0  0
  -24.6399  -11.6913   20.8741 C   0  0  0  0  0  0
  -23.9072  -10.4298   21.0424 C   0  0  0  0  0  0
  -24.3625   -9.4201   21.9196 C   0  0  0  0  0  0
  -23.6291   -8.2245   22.0765 C   0  0  0  0  0  0
  -22.4267   -8.0293   21.3563 C   0  0  0  0  0  0
  -21.9906   -9.0277   20.4678 C   0  0  0  0  0  0
  -22.7245  -10.2139   20.3080 C   0  0  0  0  0  0
  -21.6846   -6.0732   22.5291 C   0  0  0  0  0  0
  -21.4015   -6.5638   23.8214 C   0  0  0  0  0  0
  -21.3663   -5.6787   24.9188 C   0  0  0  0  0  0
  -21.6044   -4.3054   24.7226 C   0  0  0  0  0  0
  -21.8819   -3.8140   23.4345 C   0  0  0  0  0  0
  -21.9190   -4.6967   22.3398 C   0  0  0  0  0  0
  -22.7875  -13.5278   21.1789 C   0  0  0  0  0  0
  -22.1649   -4.2151   21.0979 F   0  0  0  0  0  0
  -21.5625   -3.4539   25.7734 F   0  0  0  0  0  0
  -30.0363  -13.2604   20.4459 N   0  0  0  0  0  0
  -26.3039  -12.9324   20.3342 N   0  0  0  0  0  0
  -25.9328  -11.6492   20.5766 N   0  0  0  0  0  0
  -22.0468  -12.8327   22.0347 N   0  0  0  0  0  0
  -25.4317  -15.1895   20.4075 N   0  0  0  0  0  0
  -31.8723  -14.5515   20.1492 O   0  0  0  0  0  0
  -21.6643   -6.8886   21.4248 O   0  0  0  0  0  0
  -22.3576  -14.5572   20.6609 O   0  0  0  0  0  0
  -24.6120  -31.8678   23.2096 C   0  0  0  0  0  0
  -25.9020  -32.4816   23.8396 C   0  0  1  0  0  0
  -27.2289  -27.4655   20.1016 C   0  0  0  0  0  0
  -25.5877  -33.8621   24.2324 N   0  0  0  0  0  0
  -23.4006  -30.4936   21.5462 C   0  0  2  0  0  0
  -24.8488  -28.9663   20.1071 C   0  0  0  0  0  0
  -22.7416  -29.4649   22.4949 C   0  0  0  0  0  0
  -18.0282  -28.1377   22.8503 C   0  0  0  0  0  0
  -24.1494  -36.7328   23.2630 C   0  0  0  0  0  0
  -25.9237  -30.8501   21.3554 C   0  0  0  0  0  0
  -26.0039  -29.4869   20.7033 C   0  0  0  0  0  0
  -27.2022  -28.7431   20.6961 C   0  0  0  0  0  0
  -26.0639  -26.9513   19.4971 C   0  0  0  0  0  0
  -24.8709  -27.6980   19.4987 C   0  0  0  0  0  0
  -23.6095  -29.8273   20.1592 C   0  0  0  0  0  0
  -25.4102  -36.3111   24.0334 C   0  0  1  0  0  0
  -20.5877  -28.3625   23.1321 C   0  0  2  0  0  0
  -20.6761  -26.9361   22.5415 C   0  0  0  0  0  0
  -19.5732  -26.6388   21.5216 C   0  0  0  0  0  0
  -18.1921  -26.7930   22.1635 C   0  0  0  0  0  0
  -19.1538  -28.8820   23.2922 C   0  0  0  0  0  0
  -18.9451  -30.1444   23.8903 C   0  0  0  0  0  0
  -17.6446  -30.6560   24.0580 C   0  0  0  0  0  0
  -25.9006  -34.9476   23.5123 C   0  0  0  0  0  0
  -16.5344  -29.9067   23.6321 C   0  0  0  0  0  0
  -16.7276  -28.6507   23.0310 C   0  0  0  0  0  0
  -26.4474  -31.6576   25.0702 C   0  0  0  0  0  0
  -25.3764  -31.3694   26.1471 C   0  0  0  0  0  0
  -27.0263  -30.3014   24.6020 C   0  0  0  0  0  0
  -27.6055  -32.4277   25.7463 C   0  0  0  0  0  0
  -27.5579  -37.1812   24.8456 C   0  0  0  0  0  0
  -21.4138  -29.3018   22.3731 N   0  0  0  0  0  0
  -26.4286  -37.3780   23.9399 N   0  0  0  0  0  0
  -24.6633  -31.0842   22.0959 N   0  0  0  0  0  0
  -23.4225  -28.8159   23.2939 O   0  0  0  0  0  0
  -28.3773  -26.7202   20.1310 O   0  0  0  0  0  0
  -26.5568  -34.8926   22.4691 O   0  0  0  0  0  0
  -23.5317  -32.1386   23.7525 O   0  0  0  0  0  0
  -29.6524  -21.8777   22.6777 C   0  0  0  0  0  0
  -28.9634  -20.6876   22.3588 C   0  0  0  0  0  0
  -27.6998  -21.8333   20.7976 C   0  0  0  0  0  0
  -28.4475  -23.0161   21.0690 C   0  0  0  0  0  0
  -26.6309  -21.7514   19.7203 C   0  0  0  0  0  0
  -29.7179  -16.6516   18.7240 C   0  0  0  0  0  0
  -30.3443  -19.3696   19.6604 C   0  0  0  0  0  0
  -29.4401  -19.3495   22.8978 C   0  0  0  0  0  0
  -28.3889  -24.2738   20.2025 C   0  0  0  0  0  0
  -30.0163  -15.7173   21.0611 C   0  0  0  0  0  0
  -30.4901  -18.6529   21.9916 C   0  0  0  0  0  0
  -28.3015  -25.5877   21.0038 C   0  0  0  0  0  0
  -30.3457  -16.9304   20.1179 C   0  0  2  0  0  0
  -29.4082  -23.0324   22.0255 N   0  0  0  0  0  0
  -27.9591  -20.6662   21.4453 N   0  0  0  0  0  0
  -29.9697  -18.3004   20.6314 N   0  3  1  0  0  0
  -31.4637  -12.3387   19.1391 H   0  0  0  0  0  0
  -30.2855  -11.2612   19.8322 H   0  0  0  0  0  0
  -29.7298  -11.7335   17.4414 H   0  0  0  0  0  0
  -29.6875  -13.4447   17.7566 H   0  0  0  0  0  0
  -27.8165  -11.3037   18.8156 H   0  0  0  0  0  0
  -27.3751  -12.6305   17.7726 H   0  0  0  0  0  0
  -27.7063  -14.2498   19.5641 H   0  0  0  0  0  0
  -28.6664  -11.9479   21.3366 H   0  0  0  0  0  0
  -28.4820  -13.5872   21.8705 H   0  0  0  0  0  0
  -25.2765   -9.5685   22.4771 H   0  0  0  0  0  0
  -23.9992   -7.4647   22.7500 H   0  0  0  0  0  0
  -21.0805   -8.8819   19.9014 H   0  0  0  0  0  0
  -22.3701  -10.9688   19.6202 H   0  0  0  0  0  0
  -21.1998   -7.6143   23.9726 H   0  0  0  0  0  0
  -21.1485   -6.0519   25.9093 H   0  0  0  0  0  0
  -22.0588   -2.7604   23.2843 H   0  0  0  0  0  0
  -22.4025  -12.0026   22.4846 H   0  0  0  0  0  0
  -21.1116  -13.1462   22.2496 H   0  0  0  0  0  0
  -24.6628  -15.8429   20.5180 H   0  0  0  0  0  0
  -26.2791  -15.6276   20.0712 H   0  0  0  0  0  0
  -26.7097  -32.5540   23.1175 H   0  0  0  0  0  0
  -25.0094  -33.9800   25.0513 H   0  0  0  0  0  0
  -22.6858  -31.3059   21.4052 H   0  0  0  0  0  0
  -23.3738  -35.9678   23.3299 H   0  0  0  0  0  0
  -24.3608  -36.8937   22.2044 H   0  0  0  0  0  0
  -23.7267  -37.6543   23.6639 H   0  0  0  0  0  0
  -26.0286  -31.6204   20.5901 H   0  0  0  0  0  0
  -26.8149  -30.9057   21.9673 H   0  0  0  0  0  0
  -28.0968  -29.1366   21.1590 H   0  0  0  0  0  0
  -26.0773  -25.9776   19.0296 H   0  0  0  0  0  0
  -23.9833  -27.2941   19.0329 H   0  0  0  0  0  0
  -23.7185  -30.6005   19.3984 H   0  0  0  0  0  0
  -22.7369  -29.2420   19.8613 H   0  0  0  0  0  0
  -25.1289  -36.1977   25.0823 H   0  0  0  0  0  0
  -20.9999  -28.3194   24.1429 H   0  0  0  0  0  0
  -20.5635  -26.2236   23.3605 H   0  0  0  0  0  0
  -21.6628  -26.7385   22.1216 H   0  0  0  0  0  0
  -19.6873  -25.6308   21.1210 H   0  0  0  0  0  0
  -19.6679  -27.3225   20.6775 H   0  0  0  0  0  0
  -17.4197  -26.6707   21.4035 H   0  0  0  0  0  0
  -18.0303  -26.0064   22.9015 H   0  0  0  0  0  0
  -19.7917  -30.7295   24.2247 H   0  0  0  0  0  0
  -17.4974  -31.6220   24.5196 H   0  0  0  0  0  0
  -15.5331  -30.2949   23.7610 H   0  0  0  0  0  0
  -15.8709  -28.0837   22.6939 H   0  0  0  0  0  0
  -24.5945  -30.7008   25.7848 H   0  0  0  0  0  0
  -24.8948  -32.2851   26.4893 H   0  0  0  0  0  0
  -25.8156  -30.8903   27.0231 H   0  0  0  0  0  0
  -26.2764  -29.6804   24.1087 H   0  0  0  0  0  0
  -27.4061  -29.7212   25.4444 H   0  0  0  0  0  0
  -27.8603  -30.4344   23.9128 H   0  0  0  0  0  0
  -27.2678  -33.3571   26.2072 H   0  0  0  0  0  0
  -28.3857  -32.6842   25.0276 H   0  0  0  0  0  0
  -28.0726  -31.8365   26.5354 H   0  0  0  0  0  0
  -28.2594  -38.0109   24.7489 H   0  0  0  0  0  0
  -28.1082  -36.2643   24.6293 H   0  0  0  0  0  0
  -27.2310  -37.1469   25.8862 H   0  0  0  0  0  0
  -20.9248  -29.8805   21.7044 H   0  0  0  0  0  0
  -26.0189  -38.2860   24.1394 H   0  0  0  0  0  0
  -30.4564  -21.8930   23.3991 H   0  0  0  0  0  0
  -25.8195  -22.4518   19.9255 H   0  0  0  0  0  0
  -26.1907  -20.7541   19.6546 H   0  0  0  0  0  0
  -27.0540  -21.9837   18.7459 H   0  0  0  0  0  0
  -30.0153  -15.6814   18.3304 H   0  0  0  0  0  0
  -30.0284  -17.3624   17.9634 H   0  0  0  0  0  0
  -28.6291  -16.6596   18.7723 H   0  0  0  0  0  0
  -31.3902  -19.2774   19.3683 H   0  0  0  0  0  0
  -30.2291  -20.3697   20.0761 H   0  0  0  0  0  0
  -29.7341  -19.3557   18.7611 H   0  0  0  0  0  0
  -28.5827  -18.7001   23.0767 H   0  0  0  0  0  0
  -29.8951  -19.5294   23.8737 H   0  0  0  0  0  0
  -27.5578  -24.2186   19.5013 H   0  0  0  0  0  0
  -29.2982  -24.2795   19.5980 H   0  0  0  0  0  0
  -28.9363  -15.6030   21.1195 H   0  0  0  0  0  0
  -30.3492  -15.8523   22.0863 H   0  0  0  0  0  0
  -30.8681  -17.7857   22.5203 H   0  0  0  0  0  0
  -31.3645  -19.3008   21.9003 H   0  0  0  0  0  0
  -27.4007  -25.5917   21.6233 H   0  0  0  0  0  0
  -29.1411  -25.6637   21.6997 H   0  0  0  0  0  0
  -31.4276  -16.9722   19.9763 H   0  0  0  0  0  0
  -28.9633  -18.3317   20.7088 H   0  0  0  0  0  0
  1 25  1  0  0  0
  1 30  2  0  0  0
  1 80  1  0  0  0
  2  3  1  0  0  0
  2 25  1  0  0  0
  2 87  1  0  0  0
  2 88  1  0  0  0
  3  4  1  0  0  0
  3 89  1  0  0  0
  3 90  1  0  0  0
  4  5  1  0  0  0
  4 91  1  0  0  0
  4 92  1  0  0  0
  5  6  1  0  0  0
  5 26  1  0  0  0
  5 93  1  0  0  0
  6 25  1  0  0  0
  6 94  1  0  0  0
  6 95  1  0  0  0
  7  8  2  0  0  0
  7 26  1  0  0  0
  7 29  1  0  0  0
  8  9  1  0  0  0
  8 22  1  0  0  0
  9 10  1  0  0  0
  9 27  2  0  0  0
 10 11  2  0  0  0
 10 15  1  0  0  0
 11 12  1  0  0  0
 11 96  1  0  0  0
 12 13  2  0  0  0
 12 97  1  0  0  0
 13 14  1  0  0  0
 13 31  1  0  0  0
 14 15  2  0  0  0
 14 98  1  0  0  0
 15 99  1  0  0  0
 16 17  2  0  0  0
 16 21  1  0  0  0
 16 31  1  0  0  0
 17 18  1  0  0  0
 17100  1  0  0  0
 18 19  2  0  0  0
 18101  1  0  0  0
 19 20  1  0  0  0
 19 24  1  0  0  0
 20 21  2  0  0  0
 20102  1  0  0  0
 21 23  1  0  0  0
 22 28  1  0  0  0
 22 32  2  0  0  0
 26 27  1  0  0  0
 28103  1  0  0  0
 28104  1  0  0  0
 29105  1  0  0  0
 29106  1  0  0  0
 33 34  1  0  0  0
 33 66  1  0  0  0
 33 70  2  0  0  0
 34 36  1  0  0  0
 34 59  1  0  0  0
 34107  1  0  0  0
 35 44  2  0  0  0
 35 45  1  0  0  0
 35 68  1  0  0  0
 36 56  1  0  0  0
 36108  1  0  0  0
 37 39  1  0  0  0
 37 47  1  0  0  0
 37 66  1  0  0  0
 37109  1  0  0  0
 38 43  2  0  0  0
 38 46  1  0  0  0
 38 47  1  0  0  0
 39 64  1  0  0  0
 39 67  2  0  0  0
 40 52  1  0  0  0
 40 53  2  0  0  0
 40 58  1  0  0  0
 41110  1  0  0  0
 41111  1  0  0  0
 41112  1  0  0  0
 41 48  1  0  0  0
 42 43  1  0  0  0
 42 66  1  0  0  0
 42113  1  0  0  0
 42114  1  0  0  0
 43 44  1  0  0  0
 44115  1  0  0  0
 45 46  2  0  0  0
 45116  1  0  0  0
 46117  1  0  0  0
 47118  1  0  0  0
 47119  1  0  0  0
 48 56  1  0  0  0
 48 65  1  0  0  0
 48120  1  0  0  0
 49 50  1  0  0  0
 49 53  1  0  0  0
 49 64  1  0  0  0
 49121  1  0  0  0
 50 51  1  0  0  0
 50122  1  0  0  0
 50123  1  0  0  0
 51 52  1  0  0  0
 51124  1  0  0  0
 51125  1  0  0  0
 52126  1  0  0  0
 52127  1  0  0  0
 53 54  1  0  0  0
 54 55  2  0  0  0
 54128  1  0  0  0
 55 57  1  0  0  0
 55129  1  0  0  0
 56 69  2  0  0  0
 57 58  2  0  0  0
 57130  1  0  0  0
 58131  1  0  0  0
 59 60  1  0  0  0
 59 61  1  0  0  0
 59 62  1  0  0  0
 60132  1  0  0  0
 60133  1  0  0  0
 60134  1  0  0  0
 61135  1  0  0  0
 61136  1  0  0  0
 61137  1  0  0  0
 62138  1  0  0  0
 62139  1  0  0  0
 62140  1  0  0  0
 63 65  1  0  0  0
 63141  1  0  0  0
 63142  1  0  0  0
 63143  1  0  0  0
 64144  1  0  0  0
 65145  1  0  0  0
 68 82  1  0  0  0
 71 72  2  0  0  0
 71 84  1  0  0  0
 71146  1  0  0  0
 72 78  1  0  0  0
 72 85  1  0  0  0
 73 74  1  0  0  0
 73 75  1  0  0  0
 73 85  2  0  0  0
 74 79  1  0  0  0
 74 84  2  0  0  0
 75147  1  0  0  0
 75148  1  0  0  0
 75149  1  0  0  0
 76150  1  0  0  0
 76151  1  0  0  0
 76152  1  0  0  0
 76 83  1  0  0  0
 77153  1  0  0  0
 77154  1  0  0  0
 77155  1  0  0  0
 77 86  1  0  0  0
 78 81  1  0  0  0
 78156  1  0  0  0
 78157  1  0  0  0
 79 82  1  0  0  0
 79158  1  0  0  0
 79159  1  0  0  0
 80 83  1  0  0  0
 80160  1  0  0  0
 80161  1  0  0  0
 81 86  1  0  0  0
 81162  1  0  0  0
 81163  1  0  0  0
 82164  1  0  0  0
 82165  1  0  0  0
 83 86  1  0  0  0
 83166  1  0  0  0
 86167  1  0  0  0
M  CHG  1  86   1
M  ISO  4   1 100  68 101  80 100  82 101
M  END
> <chiral flag>
0

> <version>
0

> <s_m_source_file>
/data/baiqing/PycharmProjects/Reinvent-master-3.2/result/LINK_invent/BTK/process_docking_weight1_custom_sum_contain_oxygen_bond_distance_aromatic_linkinvent_7_9_3/rearranged_h_0051.sdf

> <i_m_source_file_index>
58

> <r_mmod_Potential_Energy-OPLS-2005>
-107.411087036133

> <r_mmod_Stretch_Energy-OPLS-2005>
42.1172523498535

> <r_mmod_Bend_Energy-OPLS-2005>
102.452194213867

> <r_mmod_Torsional_Energy-OPLS-2005>
210.927673339844

> <r_mmod_Improper_Torsional_Energy-OPLS-2005>
5.67987012863159

> <r_mmod_Van_der_Waal_Energy-OPLS-2005>
167.684478759766

> <r_mmod_Electrostatic_Energy-OPLS-2005>
-224.97248840332

> <r_mmod_Solvation_Energy-OPLS-2005>
-424.581512451172

> <b_mmod_Minimization_Converged-OPLS-2005>
0

> <r_mmod_RMS_Derivative-OPLS-2005>
4.65451908111572

$$$$
59
                    3D
 Structure written by MMmdl.
176184  0  0  1  0            999 V2000
  -30.7418  -14.4009   20.5199 C   0  0  0  0  0  0
  -30.3978  -12.2484   19.4252 C   0  0  0  0  0  0
  -29.4835  -12.4810   18.2054 C   0  0  0  0  0  0
  -28.0061  -12.3597   18.6195 C   0  0  0  0  0  0
  -27.6590  -13.2054   19.8734 C   0  0  2  0  0  0
  -28.7019  -13.0018   20.9992 C   0  0  0  0  0  0
  -25.2585  -13.8167   20.5689 C   0  0  0  0  0  0
  -24.1833  -13.0436   20.9195 C   0  0  0  0  0  0
  -24.6393  -11.6912   20.8764 C   0  0  0  0  0  0
  -23.9065  -10.4286   21.0428 C   0  0  0  0  0  0
  -24.3620   -9.4197   21.9194 C   0  0  0  0  0  0
  -23.6283   -8.2240   22.0774 C   0  0  0  0  0  0
  -22.4260   -8.0296   21.3576 C   0  0  0  0  0  0
  -21.9902   -9.0263   20.4663 C   0  0  0  0  0  0
  -22.7248  -10.2133   20.3066 C   0  0  0  0  0  0
  -21.6856   -6.0739   22.5291 C   0  0  0  0  0  0
  -21.4006   -6.5642   23.8219 C   0  0  0  0  0  0
  -21.3653   -5.6802   24.9180 C   0  0  0  0  0  0
  -21.6041   -4.3062   24.7225 C   0  0  0  0  0  0
  -21.8825   -3.8153   23.4349 C   0  0  0  0  0  0
  -21.9194   -4.6966   22.3407 C   0  0  0  0  0  0
  -22.7849  -13.5239   21.1852 C   0  0  0  0  0  0
  -22.1677   -4.2155   21.0978 F   0  0  0  0  0  0
  -21.5620   -3.4547   25.7734 F   0  0  0  0  0  0
  -30.0364  -13.2489   20.4374 N   0  0  0  0  0  0
  -26.3013  -12.9329   20.3381 N   0  0  0  0  0  0
  -25.9315  -11.6495   20.5799 N   0  0  0  0  0  0
  -22.0506  -12.8201   22.0395 N   0  0  0  0  0  0
  -25.4285  -15.1880   20.4090 N   0  0  0  0  0  0
  -31.9174  -14.4973   20.1601 O   0  0  0  0  0  0
  -21.6644   -6.8883   21.4253 O   0  0  0  0  0  0
  -22.3541  -14.5559   20.6733 O   0  0  0  0  0  0
  -24.6079  -31.8718   23.2161 C   0  0  0  0  0  0
  -25.9002  -32.4850   23.8422 C   0  0  1  0  0  0
  -27.2347  -27.4784   20.1031 C   0  0  0  0  0  0
  -25.5900  -33.8645   24.2362 N   0  0  0  0  0  0
  -23.3944  -30.4923   21.5569 C   0  0  2  0  0  0
  -24.8436  -28.9654   20.1192 C   0  0  0  0  0  0
  -22.7388  -29.4640   22.5049 C   0  0  0  0  0  0
  -18.0261  -28.1351   22.8501 C   0  0  0  0  0  0
  -24.1496  -36.7319   23.2636 C   0  0  0  0  0  0
  -25.9165  -30.8496   21.3654 C   0  0  0  0  0  0
  -25.9971  -29.4843   20.7223 C   0  0  0  0  0  0
  -27.1960  -28.7442   20.7249 C   0  0  0  0  0  0
  -26.0748  -26.9698   19.4853 C   0  0  0  0  0  0
  -24.8738  -27.7030   19.5008 C   0  0  0  0  0  0
  -23.6010  -29.8235   20.1711 C   0  0  0  0  0  0
  -25.4118  -36.3123   24.0339 C   0  0  1  0  0  0
  -20.5840  -28.3619   23.1366 C   0  0  2  0  0  0
  -20.6745  -26.9365   22.5432 C   0  0  0  0  0  0
  -19.5726  -26.6368   21.5217 C   0  0  0  0  0  0
  -18.1900  -26.7907   22.1615 C   0  0  0  0  0  0
  -19.1503  -28.8805   23.2922 C   0  0  0  0  0  0
  -18.9429  -30.1423   23.8914 C   0  0  0  0  0  0
  -17.6436  -30.6567   24.0559 C   0  0  0  0  0  0
  -25.9037  -34.9489   23.5142 C   0  0  0  0  0  0
  -16.5325  -29.9063   23.6321 C   0  0  0  0  0  0
  -16.7248  -28.6481   23.0349 C   0  0  0  0  0  0
  -26.4454  -31.6605   25.0713 C   0  0  0  0  0  0
  -25.3737  -31.3685   26.1468 C   0  0  0  0  0  0
  -27.0278  -30.3059   24.6040 C   0  0  0  0  0  0
  -27.6034  -32.4318   25.7472 C   0  0  0  0  0  0
  -27.5598  -37.1810   24.8459 C   0  0  0  0  0  0
  -21.4120  -29.3000   22.3801 N   0  0  0  0  0  0
  -26.4306  -37.3810   23.9410 N   0  0  0  0  0  0
  -24.6570  -31.0843   22.1059 N   0  0  0  0  0  0
  -23.4174  -28.8182   23.3074 O   0  0  0  0  0  0
  -28.3672  -26.7117   20.0416 O   0  0  0  0  0  0
  -26.5585  -34.8927   22.4697 O   0  0  0  0  0  0
  -23.5280  -32.1459   23.7578 O   0  0  0  0  0  0
  -31.0068  -25.2908   20.1784 C   0  0  0  0  0  0
  -31.5721  -24.0568   19.8341 C   0  0  0  0  0  0
  -29.9503  -25.3158   21.1049 C   0  0  0  0  0  0
  -31.0424  -22.8904   20.4082 C   0  0  0  0  0  0
  -29.5865  -24.1072   21.7509 C   0  0  0  0  0  0
  -27.1153  -23.7794   22.2635 C   0  0  0  0  0  0
  -31.2476  -19.0553   18.5815 C   0  0  0  0  0  0
  -31.8006  -17.3502   22.0314 C   0  0  0  0  0  0
  -29.6014  -18.5185   21.6504 C   0  0  0  0  0  0
  -32.7429  -20.6882   21.6368 C   0  0  0  0  0  0
  -29.1563  -26.6045   21.2197 C   0  0  0  0  0  0
  -28.5168  -24.0308   22.8326 C   0  0  0  0  0  0
  -31.3784  -21.5462   19.7932 C   0  0  0  0  0  0
  -30.3757  -16.7707   20.0375 C   0  0  0  0  0  0
  -31.6182  -19.0489   20.1041 C   0  0  2  0  0  0
  -30.8545  -17.9402   20.9545 C   0  0  0  0  0  0
  -30.1123  -22.9112   21.3893 N   0  0  0  0  0  0
  -30.0047  -15.5076   20.6968 N   0  0  0  0  0  0
  -31.5850  -20.4210   20.7435 N   0  3  1  0  0  0
  -31.4464  -12.3030   19.1326 H   0  0  0  0  0  0
  -30.2519  -11.2453   19.8258 H   0  0  0  0  0  0
  -29.7065  -11.7642   17.4141 H   0  0  0  0  0  0
  -29.6692  -13.4698   17.7852 H   0  0  0  0  0  0
  -27.8069  -11.3057   18.8180 H   0  0  0  0  0  0
  -27.3585  -12.6391   17.7887 H   0  0  0  0  0  0
  -27.7009  -14.2486   19.5625 H   0  0  0  0  0  0
  -28.6535  -11.9813   21.3840 H   0  0  0  0  0  0
  -28.4971  -13.6539   21.8496 H   0  0  0  0  0  0
  -25.2766   -9.5661   22.4755 H   0  0  0  0  0  0
  -24.0003   -7.4609   22.7473 H   0  0  0  0  0  0
  -21.0858   -8.8783   19.8925 H   0  0  0  0  0  0
  -22.3734  -10.9677   19.6170 H   0  0  0  0  0  0
  -21.2006   -7.6153   23.9716 H   0  0  0  0  0  0
  -21.1467   -6.0539   25.9085 H   0  0  0  0  0  0
  -22.0601   -2.7613   23.2855 H   0  0  0  0  0  0
  -22.4158  -11.9865   22.4753 H   0  0  0  0  0  0
  -21.1134  -13.1207   22.2631 H   0  0  0  0  0  0
  -24.6552  -15.8373   20.5026 H   0  0  0  0  0  0
  -26.2759  -15.6282   20.0737 H   0  0  0  0  0  0
  -26.7075  -32.5589   23.1197 H   0  0  0  0  0  0
  -25.0097  -33.9828   25.0535 H   0  0  0  0  0  0
  -22.6780  -31.3044   21.4211 H   0  0  0  0  0  0
  -23.3777  -35.9631   23.3274 H   0  0  0  0  0  0
  -24.3595  -36.8962   22.2053 H   0  0  0  0  0  0
  -23.7217  -37.6506   23.6664 H   0  0  0  0  0  0
  -26.0168  -31.6141   20.5930 H   0  0  0  0  0  0
  -26.8098  -30.9095   21.9760 H   0  0  0  0  0  0
  -28.0847  -29.1534   21.1849 H   0  0  0  0  0  0
  -26.1022  -26.0028   19.0017 H   0  0  0  0  0  0
  -23.9881  -27.2989   19.0302 H   0  0  0  0  0  0
  -23.6995  -30.5977   19.4095 H   0  0  0  0  0  0
  -22.7283  -29.2339   19.8824 H   0  0  0  0  0  0
  -25.1286  -36.2002   25.0831 H   0  0  0  0  0  0
  -20.9895  -28.3147   24.1498 H   0  0  0  0  0  0
  -20.5647  -26.2206   23.3593 H   0  0  0  0  0  0
  -21.6622  -26.7406   22.1229 H   0  0  0  0  0  0
  -19.6885  -25.6283   21.1237 H   0  0  0  0  0  0
  -19.6683  -27.3191   20.6757 H   0  0  0  0  0  0
  -17.4178  -26.6672   21.4006 H   0  0  0  0  0  0
  -18.0277  -26.0032   22.8986 H   0  0  0  0  0  0
  -19.7902  -30.7237   24.2285 H   0  0  0  0  0  0
  -17.4981  -31.6250   24.5153 H   0  0  0  0  0  0
  -15.5322  -30.2964   23.7634 H   0  0  0  0  0  0
  -15.8650  -28.0805   22.7045 H   0  0  0  0  0  0
  -24.5898  -30.7048   25.7803 H   0  0  0  0  0  0
  -24.8932  -32.2830   26.4952 H   0  0  0  0  0  0
  -25.8091  -30.8820   27.0206 H   0  0  0  0  0  0
  -26.2798  -29.6827   24.1120 H   0  0  0  0  0  0
  -27.4109  -29.7273   25.4460 H   0  0  0  0  0  0
  -27.8608  -30.4403   23.9133 H   0  0  0  0  0  0
  -27.2654  -33.3616   26.2068 H   0  0  0  0  0  0
  -28.3826  -32.6891   25.0281 H   0  0  0  0  0  0
  -28.0721  -31.8430   26.5374 H   0  0  0  0  0  0
  -28.2595  -38.0133   24.7557 H   0  0  0  0  0  0
  -28.1117  -36.2664   24.6227 H   0  0  0  0  0  0
  -27.2314  -37.1394   25.8862 H   0  0  0  0  0  0
  -20.9267  -29.8734   21.7049 H   0  0  0  0  0  0
  -26.0199  -38.2888   24.1433 H   0  0  0  0  0  0
  -31.3158  -26.1903   19.6640 H   0  0  0  0  0  0
  -32.3185  -24.0079   19.0532 H   0  0  0  0  0  0
  -26.3782  -23.7179   23.0643 H   0  0  0  0  0  0
  -27.0842  -22.8423   21.7075 H   0  0  0  0  0  0
  -26.8104  -24.5801   21.5897 H   0  0  0  0  0  0
  -31.5056  -18.1315   18.0699 H   0  0  0  0  0  0
  -31.8171  -19.7878   18.0120 H   0  0  0  0  0  0
  -30.1850  -19.2348   18.4122 H   0  0  0  0  0  0
  -31.3348  -16.5443   22.5969 H   0  0  0  0  0  0
  -32.1030  -18.0711   22.7839 H   0  0  0  0  0  0
  -32.7060  -16.9411   21.5804 H   0  0  0  0  0  0
  -29.0684  -17.7469   22.2075 H   0  0  0  0  0  0
  -28.8985  -18.9367   20.9274 H   0  0  0  0  0  0
  -29.8465  -19.2981   22.3736 H   0  0  0  0  0  0
  -32.6752  -21.6694   22.1051 H   0  0  0  0  0  0
  -33.6834  -20.6484   21.0879 H   0  0  0  0  0  0
  -32.8111  -19.9807   22.4561 H   0  0  0  0  0  0
  -29.8385  -27.4538   21.2813 H   0  0  0  0  0  0
  -28.5359  -26.6288   22.1143 H   0  0  0  0  0  0
  -28.5297  -24.9272   23.4517 H   0  0  0  0  0  0
  -28.7728  -23.2214   23.5167 H   0  0  0  0  0  0
  -32.2520  -21.6506   19.1496 H   0  0  0  0  0  0
  -30.5141  -21.3561   19.1564 H   0  0  0  0  0  0
  -31.1570  -16.5520   19.3136 H   0  0  0  0  0  0
  -29.5192  -17.0794   19.4356 H   0  0  0  0  0  0
  -32.6694  -18.7550   20.0817 H   0  0  0  0  0  0
  -29.0459  -15.3892   20.9875 H   0  0  0  0  0  0
  -30.7584  -20.4564   21.3249 H   0  0  0  0  0  0
  1 25  1  0  0  0
  1 30  2  0  0  0
  1 88  1  0  0  0
  2  3  1  0  0  0
  2 25  1  0  0  0
  2 90  1  0  0  0
  2 91  1  0  0  0
  3  4  1  0  0  0
  3 92  1  0  0  0
  3 93  1  0  0  0
  4  5  1  0  0  0
  4 94  1  0  0  0
  4 95  1  0  0  0
  5  6  1  0  0  0
  5 26  1  0  0  0
  5 96  1  0  0  0
  6 25  1  0  0  0
  6 97  1  0  0  0
  6 98  1  0  0  0
  7  8  2  0  0  0
  7 26  1  0  0  0
  7 29  1  0  0  0
  8  9  1  0  0  0
  8 22  1  0  0  0
  9 10  1  0  0  0
  9 27  2  0  0  0
 10 11  2  0  0  0
 10 15  1  0  0  0
 11 12  1  0  0  0
 11 99  1  0  0  0
 12 13  2  0  0  0
 12100  1  0  0  0
 13 14  1  0  0  0
 13 31  1  0  0  0
 14 15  2  0  0  0
 14101  1  0  0  0
 15102  1  0  0  0
 16 17  2  0  0  0
 16 21  1  0  0  0
 16 31  1  0  0  0
 17 18  1  0  0  0
 17103  1  0  0  0
 18 19  2  0  0  0
 18104  1  0  0  0
 19 20  1  0  0  0
 19 24  1  0  0  0
 20 21  2  0  0  0
 20105  1  0  0  0
 21 23  1  0  0  0
 22 28  1  0  0  0
 22 32  2  0  0  0
 26 27  1  0  0  0
 28106  1  0  0  0
 28107  1  0  0  0
 29108  1  0  0  0
 29109  1  0  0  0
 33 34  1  0  0  0
 33 66  1  0  0  0
 33 70  2  0  0  0
 34 36  1  0  0  0
 34 59  1  0  0  0
 34110  1  0  0  0
 35 44  2  0  0  0
 35 45  1  0  0  0
 35 68  1  0  0  0
 36 56  1  0  0  0
 36111  1  0  0  0
 37 39  1  0  0  0
 37 47  1  0  0  0
 37 66  1  0  0  0
 37112  1  0  0  0
 38 43  2  0  0  0
 38 46  1  0  0  0
 38 47  1  0  0  0
 39 64  1  0  0  0
 39 67  2  0  0  0
 40 52  1  0  0  0
 40 53  2  0  0  0
 40 58  1  0  0  0
 41113  1  0  0  0
 41114  1  0  0  0
 41115  1  0  0  0
 41 48  1  0  0  0
 42 43  1  0  0  0
 42 66  1  0  0  0
 42116  1  0  0  0
 42117  1  0  0  0
 43 44  1  0  0  0
 44118  1  0  0  0
 45 46  2  0  0  0
 45119  1  0  0  0
 46120  1  0  0  0
 47121  1  0  0  0
 47122  1  0  0  0
 48 56  1  0  0  0
 48 65  1  0  0  0
 48123  1  0  0  0
 49 50  1  0  0  0
 49 53  1  0  0  0
 49 64  1  0  0  0
 49124  1  0  0  0
 50 51  1  0  0  0
 50125  1  0  0  0
 50126  1  0  0  0
 51 52  1  0  0  0
 51127  1  0  0  0
 51128  1  0  0  0
 52129  1  0  0  0
 52130  1  0  0  0
 53 54  1  0  0  0
 54 55  2  0  0  0
 54131  1  0  0  0
 55 57  1  0  0  0
 55132  1  0  0  0
 56 69  2  0  0  0
 57 58  2  0  0  0
 57133  1  0  0  0
 58134  1  0  0  0
 59 60  1  0  0  0
 59 61  1  0  0  0
 59 62  1  0  0  0
 60135  1  0  0  0
 60136  1  0  0  0
 60137  1  0  0  0
 61138  1  0  0  0
 61139  1  0  0  0
 61140  1  0  0  0
 62141  1  0  0  0
 62142  1  0  0  0
 62143  1  0  0  0
 63 65  1  0  0  0
 63144  1  0  0  0
 63145  1  0  0  0
 63146  1  0  0  0
 64147  1  0  0  0
 65148  1  0  0  0
 68 81  1  0  0  0
 71 72  2  0  0  0
 71 73  1  0  0  0
 71149  1  0  0  0
 72 74  1  0  0  0
 72150  1  0  0  0
 73 75  2  0  0  0
 73 81  1  0  0  0
 74 83  1  0  0  0
 74 87  2  0  0  0
 75 82  1  0  0  0
 75 87  1  0  0  0
 76 82  1  0  0  0
 76151  1  0  0  0
 76152  1  0  0  0
 76153  1  0  0  0
 77154  1  0  0  0
 77155  1  0  0  0
 77156  1  0  0  0
 77 85  1  0  0  0
 78157  1  0  0  0
 78158  1  0  0  0
 78159  1  0  0  0
 78 86  1  0  0  0
 79 86  1  0  0  0
 79160  1  0  0  0
 79161  1  0  0  0
 79162  1  0  0  0
 80163  1  0  0  0
 80164  1  0  0  0
 80165  1  0  0  0
 80 89  1  0  0  0
 81166  1  0  0  0
 81167  1  0  0  0
 82168  1  0  0  0
 82169  1  0  0  0
 83 89  1  0  0  0
 83170  1  0  0  0
 83171  1  0  0  0
 84 86  1  0  0  0
 84 88  1  0  0  0
 84172  1  0  0  0
 84173  1  0  0  0
 85 86  1  0  0  0
 85 89  1  0  0  0
 85174  1  0  0  0
 88175  1  0  0  0
 89176  1  0  0  0
M  CHG  1  89   1
M  ISO  4   1 100  68 101  81 101  88 100
M  END
> <chiral flag>
0

> <version>
0

> <s_m_source_file>
/data/baiqing/PycharmProjects/Reinvent-master-3.2/result/LINK_invent/BTK/process_docking_weight1_custom_sum_contain_oxygen_bond_distance_aromatic_linkinvent_7_9_3/rearranged_h_0051.sdf

> <i_m_source_file_index>
59

> <r_mmod_Potential_Energy-OPLS-2005>
-287.384887695312

> <r_mmod_Stretch_Energy-OPLS-2005>
41.6572685241699

> <r_mmod_Bend_Energy-OPLS-2005>
119.931816101074

> <r_mmod_Torsional_Energy-OPLS-2005>
289.18701171875

> <r_mmod_Improper_Torsional_Energy-OPLS-2005>
11.3663082122803

> <r_mmod_Van_der_Waal_Energy-OPLS-2005>
190.364395141602

> <r_mmod_Electrostatic_Energy-OPLS-2005>
-546.510070800781

> <r_mmod_Solvation_Energy-OPLS-2005>
-408.226745605469

> <b_mmod_Minimization_Converged-OPLS-2005>
0

> <r_mmod_RMS_Derivative-OPLS-2005>
2.52820348739624

$$$$
60
                    3D
 Structure written by MMmdl.
173181  0  0  1  0            999 V2000
  -30.7015  -14.4148   20.6613 C   0  0  0  0  0  0
  -30.4315  -12.3185   19.3738 C   0  0  0  0  0  0
  -29.4741  -12.5058   18.1757 C   0  0  0  0  0  0
  -28.0055  -12.2927   18.5928 C   0  0  0  0  0  0
  -27.6433  -13.1332   19.8335 C   0  0  2  0  0  0
  -28.6965  -12.9196   20.9544 C   0  0  0  0  0  0
  -25.2627  -13.7949   20.5599 C   0  0  0  0  0  0
  -24.1836  -13.0360   20.9169 C   0  0  0  0  0  0
  -24.6274  -11.6779   20.8719 C   0  0  0  0  0  0
  -23.8939  -10.4211   21.0415 C   0  0  0  0  0  0
  -24.3524   -9.4139   21.9185 C   0  0  0  0  0  0
  -23.6219   -8.2168   22.0755 C   0  0  0  0  0  0
  -22.4196   -8.0209   21.3569 C   0  0  0  0  0  0
  -21.9832   -9.0145   20.4662 C   0  0  0  0  0  0
  -22.7125  -10.2033   20.3067 C   0  0  0  0  0  0
  -21.6775   -6.0710   22.5283 C   0  0  0  0  0  0
  -21.3957   -6.5626   23.8230 C   0  0  0  0  0  0
  -21.3665   -5.6793   24.9194 C   0  0  0  0  0  0
  -21.6063   -4.3053   24.7236 C   0  0  0  0  0  0
  -21.8814   -3.8138   23.4344 C   0  0  0  0  0  0
  -21.9160   -4.6948   22.3407 C   0  0  0  0  0  0
  -22.7875  -13.5239   21.1872 C   0  0  0  0  0  0
  -22.1647   -4.2170   21.0976 F   0  0  0  0  0  0
  -21.5640   -3.4526   25.7737 F   0  0  0  0  0  0
  -30.0298  -13.2574   20.4277 N   0  0  0  0  0  0
  -26.2919  -12.8937   20.3148 N   0  0  0  0  0  0
  -25.9144  -11.6185   20.5638 N   0  0  0  0  0  0
  -22.0480  -12.8259   22.0428 N   0  0  0  0  0  0
  -25.4434  -15.1668   20.3926 N   0  0  0  0  0  0
  -31.7675  -14.6875   20.0938 O   0  0  0  0  0  0
  -21.6567   -6.8806   21.4239 O   0  0  0  0  0  0
  -22.3593  -14.5555   20.6684 O   0  0  0  0  0  0
  -24.6145  -31.8698   23.2147 C   0  0  0  0  0  0
  -25.9037  -32.4805   23.8428 C   0  0  1  0  0  0
  -27.2324  -27.4394   20.0617 C   0  0  0  0  0  0
  -25.5911  -33.8616   24.2359 N   0  0  0  0  0  0
  -23.4016  -30.4900   21.5613 C   0  0  2  0  0  0
  -24.8470  -28.9505   20.1375 C   0  0  0  0  0  0
  -22.7390  -29.4663   22.5121 C   0  0  0  0  0  0
  -18.0226  -28.1346   22.8580 C   0  0  0  0  0  0
  -24.1483  -36.7276   23.2661 C   0  0  0  0  0  0
  -25.9332  -30.8165   21.3845 C   0  0  0  0  0  0
  -26.0087  -29.4500   20.7411 C   0  0  0  0  0  0
  -27.2050  -28.6913   20.7167 C   0  0  0  0  0  0
  -26.0662  -26.9934   19.4198 C   0  0  0  0  0  0
  -24.8641  -27.7116   19.4869 C   0  0  0  0  0  0
  -23.6094  -29.8130   20.1846 C   0  0  0  0  0  0
  -25.4128  -36.3103   24.0346 C   0  0  1  0  0  0
  -20.5853  -28.3642   23.1373 C   0  0  2  0  0  0
  -20.6817  -26.9389   22.5434 C   0  0  0  0  0  0
  -19.5686  -26.6217   21.5365 C   0  0  0  0  0  0
  -18.1819  -26.7889   22.1687 C   0  0  0  0  0  0
  -19.1493  -28.8793   23.2968 C   0  0  0  0  0  0
  -18.9467  -30.1423   23.8933 C   0  0  0  0  0  0
  -17.6477  -30.6569   24.0624 C   0  0  0  0  0  0
  -25.9041  -34.9461   23.5149 C   0  0  0  0  0  0
  -16.5346  -29.9092   23.6413 C   0  0  0  0  0  0
  -16.7236  -28.6494   23.0441 C   0  0  0  0  0  0
  -26.4443  -31.6561   25.0752 C   0  0  0  0  0  0
  -25.3661  -31.3627   26.1441 C   0  0  0  0  0  0
  -27.0303  -30.3021   24.6106 C   0  0  0  0  0  0
  -27.5998  -32.4275   25.7524 C   0  0  0  0  0  0
  -27.5587  -37.1802   24.8484 C   0  0  0  0  0  0
  -21.4095  -29.3040   22.3815 N   0  0  0  0  0  0
  -26.4337  -37.3768   23.9385 N   0  0  0  0  0  0
  -24.6682  -31.0739   22.1088 N   0  0  0  0  0  0
  -23.4126  -28.8241   23.3201 O   0  0  0  0  0  0
  -28.3917  -26.6975   19.9686 O   0  0  0  0  0  0
  -26.5595  -34.8881   22.4698 O   0  0  0  0  0  0
  -23.5330  -32.1490   23.7508 O   0  0  0  0  0  0
  -25.0277  -21.9156   19.1397 C   0  0  0  0  0  0
  -25.7581  -19.6890   18.5878 C   0  0  0  0  0  0
  -24.7010  -20.6047   18.7621 C   0  0  0  0  0  0
  -26.3736  -22.2678   19.3411 C   0  0  0  0  0  0
  -27.0782  -20.1140   18.8524 C   0  0  0  0  0  0
  -23.2470  -20.2000   18.5875 C   0  0  0  0  0  0
  -28.5030  -19.6639   23.8360 C   0  0  0  0  0  0
  -26.6821  -23.6973   19.7450 C   0  0  0  0  0  0
  -28.2357  -19.1262   18.8263 C   0  0  0  0  0  0
  -30.1217  -15.4321   21.6667 C   0  0  0  0  0  0
  -28.1612  -24.1318   19.8311 C   0  0  0  0  0  0
  -27.9876  -17.8955   19.7347 C   0  0  0  0  0  0
  -28.8670  -16.1841   21.1577 C   0  0  0  0  0  0
  -29.3068  -18.5074   21.7233 C   0  0  0  0  0  0
  -28.4149  -25.4299   20.6494 C   0  0  0  0  0  0
  -28.3304  -18.4479   22.9325 C   0  0  0  0  0  0
  -27.3842  -21.3848   19.2082 N   0  0  0  0  0  0
  -29.1004  -17.5326   20.6325 N   0  0  0  0  0  0
  -27.0530  -18.4176   22.5529 F   0  0  0  0  0  0
  -28.5794  -17.3949   23.7128 F   0  0  0  0  0  0
  -31.4650  -12.4682   19.0596 H   0  0  0  0  0  0
  -30.3864  -11.2981   19.7580 H   0  0  0  0  0  0
  -29.7396  -11.8232   17.3690 H   0  0  0  0  0  0
  -29.5800  -13.5095   17.7609 H   0  0  0  0  0  0
  -27.8571  -11.2333   18.8007 H   0  0  0  0  0  0
  -27.3379  -12.5435   17.7666 H   0  0  0  0  0  0
  -27.6365  -14.1338   19.4252 H   0  0  0  0  0  0
  -28.7018  -11.8648   21.2397 H   0  0  0  0  0  0
  -28.4218  -13.4533   21.8625 H   0  0  0  0  0  0
  -25.2652   -9.5589   22.4798 H   0  0  0  0  0  0
  -23.9914   -7.4536   22.7458 H   0  0  0  0  0  0
  -21.0774   -8.8591   19.8969 H   0  0  0  0  0  0
  -22.3540  -10.9539   19.6181 H   0  0  0  0  0  0
  -21.1924   -7.6134   23.9733 H   0  0  0  0  0  0
  -21.1524   -6.0522   25.9115 H   0  0  0  0  0  0
  -22.0594   -2.7603   23.2816 H   0  0  0  0  0  0
  -22.3975  -11.9876   22.4862 H   0  0  0  0  0  0
  -21.1116  -13.1349   22.2609 H   0  0  0  0  0  0
  -24.6840  -15.8243   20.5341 H   0  0  0  0  0  0
  -26.2923  -15.5944   20.0541 H   0  0  0  0  0  0
  -26.7103  -32.5462   23.1182 H   0  0  0  0  0  0
  -25.0046  -33.9769   25.0495 H   0  0  0  0  0  0
  -22.6950  -31.3109   21.4212 H   0  0  0  0  0  0
  -23.3739  -35.9604   23.3371 H   0  0  0  0  0  0
  -24.3583  -36.8840   22.2067 H   0  0  0  0  0  0
  -23.7234  -37.6500   23.6639 H   0  0  0  0  0  0
  -26.0479  -31.5732   20.6115 H   0  0  0  0  0  0
  -26.8232  -30.8713   21.9973 H   0  0  0  0  0  0
  -28.1076  -29.0589   21.1884 H   0  0  0  0  0  0
  -26.0901  -26.1453   18.7740 H   0  0  0  0  0  0
  -23.9788  -27.3279   19.0005 H   0  0  0  0  0  0
  -23.7051  -30.5793   19.4156 H   0  0  0  0  0  0
  -22.7360  -29.2214   19.8984 H   0  0  0  0  0  0
  -25.1298  -36.1983   25.0848 H   0  0  0  0  0  0
  -20.9982  -28.3253   24.1487 H   0  0  0  0  0  0
  -20.6028  -26.2189   23.3605 H   0  0  0  0  0  0
  -21.6639  -26.7660   22.1030 H   0  0  0  0  0  0
  -19.6807  -25.6045   21.1597 H   0  0  0  0  0  0
  -19.6586  -27.2841   20.6767 H   0  0  0  0  0  0
  -17.4155  -26.6743   21.4001 H   0  0  0  0  0  0
  -17.9982  -26.0036   22.9049 H   0  0  0  0  0  0
  -19.7981  -30.7255   24.2195 H   0  0  0  0  0  0
  -17.5083  -31.6236   24.5235 H   0  0  0  0  0  0
  -15.5355  -30.3008   23.7749 H   0  0  0  0  0  0
  -15.8592  -28.0876   22.7196 H   0  0  0  0  0  0
  -24.5798  -30.7079   25.7673 H   0  0  0  0  0  0
  -24.8869  -32.2765   26.4965 H   0  0  0  0  0  0
  -25.7905  -30.8653   27.0162 H   0  0  0  0  0  0
  -26.2846  -29.6725   24.1235 H   0  0  0  0  0  0
  -27.4206  -29.7315   25.4542 H   0  0  0  0  0  0
  -27.8610  -30.4381   23.9176 H   0  0  0  0  0  0
  -27.2605  -33.3525   26.2184 H   0  0  0  0  0  0
  -28.3738  -32.6936   25.0317 H   0  0  0  0  0  0
  -28.0723  -31.8351   26.5359 H   0  0  0  0  0  0
  -28.2650  -38.0071   24.7516 H   0  0  0  0  0  0
  -28.1053  -36.2598   24.6341 H   0  0  0  0  0  0
  -27.2283  -37.1472   25.8895 H   0  0  0  0  0  0
  -20.9288  -29.8648   21.6935 H   0  0  0  0  0  0
  -26.0221  -38.2850   24.1363 H   0  0  0  0  0  0
  -24.2437  -22.6439   19.2975 H   0  0  0  0  0  0
  -25.5559  -18.6618   18.3039 H   0  0  0  0  0  0
  -22.5681  -20.8704   19.1221 H   0  0  0  0  0  0
  -23.0722  -19.1920   18.9682 H   0  0  0  0  0  0
  -22.9726  -20.2315   17.5339 H   0  0  0  0  0  0
  -28.3142  -20.5850   23.2883 H   0  0  0  0  0  0
  -29.5182  -19.7020   24.2304 H   0  0  0  0  0  0
  -27.8126  -19.6207   24.6773 H   0  0  0  0  0  0
  -26.1646  -23.9031   20.6789 H   0  0  0  0  0  0
  -26.1720  -24.2488   18.9720 H   0  0  0  0  0  0
  -29.1722  -19.6263   19.0698 H   0  0  0  0  0  0
  -28.3419  -18.8023   17.7897 H   0  0  0  0  0  0
  -29.8784  -14.9126   22.5888 H   0  0  0  0  0  0
  -30.9081  -16.1302   21.9474 H   0  0  0  0  0  0
  -28.6130  -24.1621   18.8399 H   0  0  0  0  0  0
  -28.6909  -23.3416   20.3664 H   0  0  0  0  0  0
  -27.0487  -17.9948   20.2820 H   0  0  0  0  0  0
  -27.8201  -17.0696   19.0399 H   0  0  0  0  0  0
  -28.0522  -16.1507   21.8810 H   0  0  0  0  0  0
  -28.4807  -15.6093   20.3344 H   0  0  0  0  0  0
  -30.3185  -18.3851   22.1055 H   0  0  0  0  0  0
  -29.2964  -19.5138   21.3089 H   0  0  0  0  0  0
  -29.4302  -25.3450   21.0391 H   0  0  0  0  0  0
  -27.7758  -25.4479   21.5324 H   0  0  0  0  0  0
  1 25  1  0  0  0
  1 30  2  0  0  0
  1 80  1  0  0  0
  2  3  1  0  0  0
  2 25  1  0  0  0
  2 91  1  0  0  0
  2 92  1  0  0  0
  3  4  1  0  0  0
  3 93  1  0  0  0
  3 94  1  0  0  0
  4  5  1  0  0  0
  4 95  1  0  0  0
  4 96  1  0  0  0
  5  6  1  0  0  0
  5 26  1  0  0  0
  5 97  1  0  0  0
  6 25  1  0  0  0
  6 98  1  0  0  0
  6 99  1  0  0  0
  7  8  2  0  0  0
  7 26  1  0  0  0
  7 29  1  0  0  0
  8  9  1  0  0  0
  8 22  1  0  0  0
  9 10  1  0  0  0
  9 27  2  0  0  0
 10 11  2  0  0  0
 10 15  1  0  0  0
 11 12  1  0  0  0
 11100  1  0  0  0
 12 13  2  0  0  0
 12101  1  0  0  0
 13 14  1  0  0  0
 13 31  1  0  0  0
 14 15  2  0  0  0
 14102  1  0  0  0
 15103  1  0  0  0
 16 17  2  0  0  0
 16 21  1  0  0  0
 16 31  1  0  0  0
 17 18  1  0  0  0
 17104  1  0  0  0
 18 19  2  0  0  0
 18105  1  0  0  0
 19 20  1  0  0  0
 19 24  1  0  0  0
 20 21  2  0  0  0
 20106  1  0  0  0
 21 23  1  0  0  0
 22 28  1  0  0  0
 22 32  2  0  0  0
 26 27  1  0  0  0
 28107  1  0  0  0
 28108  1  0  0  0
 29109  1  0  0  0
 29110  1  0  0  0
 33 34  1  0  0  0
 33 66  1  0  0  0
 33 70  2  0  0  0
 34 36  1  0  0  0
 34 59  1  0  0  0
 34111  1  0  0  0
 35 44  2  0  0  0
 35 45  1  0  0  0
 35 68  1  0  0  0
 36 56  1  0  0  0
 36112  1  0  0  0
 37 39  1  0  0  0
 37 47  1  0  0  0
 37 66  1  0  0  0
 37113  1  0  0  0
 38 43  2  0  0  0
 38 46  1  0  0  0
 38 47  1  0  0  0
 39 64  1  0  0  0
 39 67  2  0  0  0
 40 52  1  0  0  0
 40 53  2  0  0  0
 40 58  1  0  0  0
 41114  1  0  0  0
 41115  1  0  0  0
 41116  1  0  0  0
 41 48  1  0  0  0
 42 43  1  0  0  0
 42 66  1  0  0  0
 42117  1  0  0  0
 42118  1  0  0  0
 43 44  1  0  0  0
 44119  1  0  0  0
 45 46  2  0  0  0
 45120  1  0  0  0
 46121  1  0  0  0
 47122  1  0  0  0
 47123  1  0  0  0
 48 56  1  0  0  0
 48 65  1  0  0  0
 48124  1  0  0  0
 49 50  1  0  0  0
 49 53  1  0  0  0
 49 64  1  0  0  0
 49125  1  0  0  0
 50 51  1  0  0  0
 50126  1  0  0  0
 50127  1  0  0  0
 51 52  1  0  0  0
 51128  1  0  0  0
 51129  1  0  0  0
 52130  1  0  0  0
 52131  1  0  0  0
 53 54  1  0  0  0
 54 55  2  0  0  0
 54132  1  0  0  0
 55 57  1  0  0  0
 55133  1  0  0  0
 56 69  2  0  0  0
 57 58  2  0  0  0
 57134  1  0  0  0
 58135  1  0  0  0
 59 60  1  0  0  0
 59 61  1  0  0  0
 59 62  1  0  0  0
 60136  1  0  0  0
 60137  1  0  0  0
 60138  1  0  0  0
 61139  1  0  0  0
 61140  1  0  0  0
 61141  1  0  0  0
 62142  1  0  0  0
 62143  1  0  0  0
 62144  1  0  0  0
 63 65  1  0  0  0
 63145  1  0  0  0
 63146  1  0  0  0
 63147  1  0  0  0
 64148  1  0  0  0
 65149  1  0  0  0
 68 85  1  0  0  0
 71 73  2  0  0  0
 71 74  1  0  0  0
 71150  1  0  0  0
 72 73  1  0  0  0
 72 75  2  0  0  0
 72151  1  0  0  0
 73 76  1  0  0  0
 74 78  1  0  0  0
 74 87  2  0  0  0
 75 79  1  0  0  0
 75 87  1  0  0  0
 76152  1  0  0  0
 76153  1  0  0  0
 76154  1  0  0  0
 77155  1  0  0  0
 77156  1  0  0  0
 77157  1  0  0  0
 77 86  1  0  0  0
 78 81  1  0  0  0
 78158  1  0  0  0
 78159  1  0  0  0
 79 82  1  0  0  0
 79160  1  0  0  0
 79161  1  0  0  0
 80 83  1  0  0  0
 80162  1  0  0  0
 80163  1  0  0  0
 81 85  1  0  0  0
 81164  1  0  0  0
 81165  1  0  0  0
 82 88  1  0  0  0
 82166  1  0  0  0
 82167  1  0  0  0
 83 88  1  0  0  0
 83168  1  0  0  0
 83169  1  0  0  0
 84 86  1  0  0  0
 84 88  1  0  0  0
 84170  1  0  0  0
 84171  1  0  0  0
 85172  1  0  0  0
 85173  1  0  0  0
 86 89  1  0  0  0
 86 90  1  0  0  0
M  ISO  4   1 100  68 101  80 100  85 101
M  END
> <chiral flag>
0

> <version>
0

> <s_m_source_file>
/data/baiqing/PycharmProjects/Reinvent-master-3.2/result/LINK_invent/BTK/process_docking_weight1_custom_sum_contain_oxygen_bond_distance_aromatic_linkinvent_7_9_3/rearranged_h_0051.sdf

> <i_m_source_file_index>
60

> <r_mmod_Potential_Energy-OPLS-2005>
-22.544921875

> <r_mmod_Stretch_Energy-OPLS-2005>
38.1114311218262

> <r_mmod_Bend_Energy-OPLS-2005>
130.49153137207

> <r_mmod_Torsional_Energy-OPLS-2005>
244.396102905273

> <r_mmod_Improper_Torsional_Energy-OPLS-2005>
2.18613219261169

> <r_mmod_Van_der_Waal_Energy-OPLS-2005>
169.603210449219

> <r_mmod_Electrostatic_Energy-OPLS-2005>
-421.425079345703

> <r_mmod_Solvation_Energy-OPLS-2005>
-200.099563598633

> <b_mmod_Minimization_Converged-OPLS-2005>
0

> <r_mmod_RMS_Derivative-OPLS-2005>
6.8470401763916

$$$$
61
                    3D
 Structure written by MMmdl.
173180  0  0  1  0            999 V2000
  -30.9115  -14.1801   20.8251 C   0  0  0  0  0  0
  -30.4204  -12.3009   19.3199 C   0  0  0  0  0  0
  -29.4606  -12.5618   18.1548 C   0  0  0  0  0  0
  -28.0012  -12.3947   18.6044 C   0  0  0  0  0  0
  -27.6761  -13.2104   19.8801 C   0  0  2  0  0  0
  -28.7296  -12.9650   20.9863 C   0  0  0  0  0  0
  -25.2664  -13.8178   20.5707 C   0  0  0  0  0  0
  -24.1911  -13.0438   20.9169 C   0  0  0  0  0  0
  -24.6480  -11.6907   20.8747 C   0  0  0  0  0  0
  -23.9135  -10.4290   21.0421 C   0  0  0  0  0  0
  -24.3660   -9.4194   21.9191 C   0  0  0  0  0  0
  -23.6305   -8.2247   22.0769 C   0  0  0  0  0  0
  -22.4296   -8.0299   21.3550 C   0  0  0  0  0  0
  -21.9951   -9.0291   20.4654 C   0  0  0  0  0  0
  -22.7306  -10.2149   20.3060 C   0  0  0  0  0  0
  -21.6851   -6.0746   22.5276 C   0  0  0  0  0  0
  -21.4014   -6.5641   23.8209 C   0  0  0  0  0  0
  -21.3666   -5.6792   24.9166 C   0  0  0  0  0  0
  -21.6037   -4.3057   24.7217 C   0  0  0  0  0  0
  -21.8832   -3.8152   23.4339 C   0  0  0  0  0  0
  -21.9194   -4.6970   22.3392 C   0  0  0  0  0  0
  -22.7921  -13.5239   21.1767 C   0  0  0  0  0  0
  -22.1666   -4.2155   21.0972 F   0  0  0  0  0  0
  -21.5619   -3.4538   25.7731 F   0  0  0  0  0  0
  -30.0809  -13.1848   20.4369 N   0  0  0  0  0  0
  -26.3148  -12.9366   20.3467 N   0  0  0  0  0  0
  -25.9424  -11.6510   20.5818 N   0  0  0  0  0  0
  -22.0533  -12.8269   22.0334 N   0  0  0  0  0  0
  -25.4358  -15.1903   20.4100 N   0  0  0  0  0  0
  -31.6790  -14.7849   20.0661 O   0  0  0  0  0  0
  -21.6640   -6.8905   21.4248 O   0  0  0  0  0  0
  -22.3609  -14.5530   20.6586 O   0  0  0  0  0  0
  -24.6076  -31.8731   23.2151 C   0  0  0  0  0  0
  -25.8983  -32.4845   23.8440 C   0  0  1  0  0  0
  -27.2258  -27.4977   20.0618 C   0  0  0  0  0  0
  -25.5856  -33.8643   24.2363 N   0  0  0  0  0  0
  -23.3914  -30.4966   21.5592 C   0  0  2  0  0  0
  -24.8342  -28.9718   20.1163 C   0  0  0  0  0  0
  -22.7383  -29.4670   22.5050 C   0  0  0  0  0  0
  -18.0266  -28.1334   22.8489 C   0  0  0  0  0  0
  -24.1469  -36.7336   23.2632 C   0  0  0  0  0  0
  -25.9159  -30.8509   21.3613 C   0  0  0  0  0  0
  -25.9930  -29.4918   20.7062 C   0  0  0  0  0  0
  -27.1974  -28.7614   20.6807 C   0  0  0  0  0  0
  -26.0576  -26.9733   19.4756 C   0  0  0  0  0  0
  -24.8558  -27.7058   19.5034 C   0  0  0  0  0  0
  -23.5938  -29.8325   20.1723 C   0  0  0  0  0  0
  -25.4082  -36.3136   24.0342 C   0  0  1  0  0  0
  -20.5857  -28.3609   23.1336 C   0  0  2  0  0  0
  -20.6758  -26.9350   22.5416 C   0  0  0  0  0  0
  -19.5743  -26.6358   21.5199 C   0  0  0  0  0  0
  -18.1917  -26.7882   22.1609 C   0  0  0  0  0  0
  -19.1515  -28.8782   23.2913 C   0  0  0  0  0  0
  -18.9448  -30.1408   23.8884 C   0  0  0  0  0  0
  -17.6456  -30.6541   24.0544 C   0  0  0  0  0  0
  -25.9018  -34.9492   23.5145 C   0  0  0  0  0  0
  -16.5344  -29.9048   23.6312 C   0  0  0  0  0  0
  -16.7265  -28.6477   23.0320 C   0  0  0  0  0  0
  -26.4440  -31.6602   25.0733 C   0  0  0  0  0  0
  -25.3722  -31.3666   26.1482 C   0  0  0  0  0  0
  -27.0277  -30.3046   24.6070 C   0  0  0  0  0  0
  -27.6044  -32.4301   25.7466 C   0  0  0  0  0  0
  -27.5583  -37.1807   24.8458 C   0  0  0  0  0  0
  -21.4127  -29.3000   22.3765 N   0  0  0  0  0  0
  -26.4279  -37.3808   23.9407 N   0  0  0  0  0  0
  -24.6557  -31.0858   22.1036 N   0  0  0  0  0  0
  -23.4193  -28.8211   23.3060 O   0  0  0  0  0  0
  -28.3797  -26.7668   20.0453 O   0  0  0  0  0  0
  -26.5605  -34.8930   22.4722 O   0  0  0  0  0  0
  -23.5278  -32.1492   23.7556 O   0  0  0  0  0  0
  -29.1700  -20.3534   21.9960 C   0  0  0  0  0  0
  -31.5476  -13.0831   22.9158 C   0  0  0  0  0  0
  -33.7315  -18.8571   24.6574 C   0  0  0  0  0  0
  -29.3049  -23.5435   21.7082 C   0  0  0  0  0  0
  -29.4035  -24.6819   20.6942 C   0  0  0  0  0  0
  -30.4213  -22.5102   21.5701 C   0  0  0  0  0  0
  -32.0789  -16.2533   23.3028 C   0  0  0  0  0  0
  -31.5482  -20.6282   22.8510 C   0  0  0  0  0  0
  -30.8078  -15.4430   22.9712 C   0  0  0  0  0  0
  -31.7951  -17.3258   24.3763 C   0  0  0  0  0  0
  -31.5010  -19.7899   24.1409 C   0  0  0  0  0  0
  -28.3313  -25.7204   20.9970 C   0  0  0  0  0  0
  -30.2189  -21.3427   22.5499 C   0  0  2  0  0  0
  -31.0476  -14.2432   22.1677 N   0  0  0  0  0  0
  -32.4145  -18.6282   24.0245 N   0  3  1  0  0  0
  -31.4529  -12.4402   18.9922 H   0  0  0  0  0  0
  -30.3471  -11.2636   19.6508 H   0  0  0  0  0  0
  -29.6775  -11.8824   17.3301 H   0  0  0  0  0  0
  -29.6140  -13.5711   17.7694 H   0  0  0  0  0  0
  -27.8230  -11.3346   18.7852 H   0  0  0  0  0  0
  -27.3285  -12.6883   17.7977 H   0  0  0  0  0  0
  -27.7326  -14.2656   19.6070 H   0  0  0  0  0  0
  -28.6666  -11.9421   21.3627 H   0  0  0  0  0  0
  -28.5256  -13.6187   21.8367 H   0  0  0  0  0  0
  -25.2813   -9.5623   22.4762 H   0  0  0  0  0  0
  -23.9983   -7.4638   22.7509 H   0  0  0  0  0  0
  -21.0866   -8.8845   19.8969 H   0  0  0  0  0  0
  -22.3800  -10.9698   19.6163 H   0  0  0  0  0  0
  -21.2026   -7.6152   23.9714 H   0  0  0  0  0  0
  -21.1467   -6.0516   25.9067 H   0  0  0  0  0  0
  -22.0608   -2.7618   23.2830 H   0  0  0  0  0  0
  -22.4135  -11.9962   22.4782 H   0  0  0  0  0  0
  -21.1138  -13.1300   22.2457 H   0  0  0  0  0  0
  -24.6685  -15.8456   20.5157 H   0  0  0  0  0  0
  -26.2972  -15.6327   20.1144 H   0  0  0  0  0  0
  -26.7048  -32.5551   23.1218 H   0  0  0  0  0  0
  -24.9944  -33.9826   25.0464 H   0  0  0  0  0  0
  -22.6745  -31.3101   21.4275 H   0  0  0  0  0  0
  -23.3733  -35.9669   23.3291 H   0  0  0  0  0  0
  -24.3565  -36.8975   22.2050 H   0  0  0  0  0  0
  -23.7249  -37.6546   23.6666 H   0  0  0  0  0  0
  -26.0203  -31.6164   20.5913 H   0  0  0  0  0  0
  -26.8070  -30.9074   21.9743 H   0  0  0  0  0  0
  -28.0954  -29.1591   21.1299 H   0  0  0  0  0  0
  -26.0779  -26.0015   19.0009 H   0  0  0  0  0  0
  -23.9623  -27.2980   19.0495 H   0  0  0  0  0  0
  -23.6951  -30.6102   19.4148 H   0  0  0  0  0  0
  -22.7178  -29.2497   19.8817 H   0  0  0  0  0  0
  -25.1264  -36.2004   25.0841 H   0  0  0  0  0  0
  -20.9943  -28.3154   24.1464 H   0  0  0  0  0  0
  -20.5647  -26.2211   23.3593 H   0  0  0  0  0  0
  -21.6628  -26.7389   22.1215 H   0  0  0  0  0  0
  -19.6898  -25.6286   21.1195 H   0  0  0  0  0  0
  -19.6669  -27.3175   20.6729 H   0  0  0  0  0  0
  -17.4199  -26.6627   21.4003 H   0  0  0  0  0  0
  -18.0321  -26.0001   22.8978 H   0  0  0  0  0  0
  -19.7925  -30.7221   24.2244 H   0  0  0  0  0  0
  -17.5006  -31.6212   24.5147 H   0  0  0  0  0  0
  -15.5343  -30.2930   23.7631 H   0  0  0  0  0  0
  -15.8680  -28.0800   22.7000 H   0  0  0  0  0  0
  -24.5881  -30.7035   25.7820 H   0  0  0  0  0  0
  -24.8895  -32.2796   26.4971 H   0  0  0  0  0  0
  -25.8061  -30.8806   27.0224 H   0  0  0  0  0  0
  -26.2831  -29.6786   24.1128 H   0  0  0  0  0  0
  -27.4120  -29.7271   25.4499 H   0  0  0  0  0  0
  -27.8629  -30.4408   23.9182 H   0  0  0  0  0  0
  -27.2732  -33.3625   26.2039 H   0  0  0  0  0  0
  -28.3837  -32.6804   25.0264 H   0  0  0  0  0  0
  -28.0723  -31.8413   26.5377 H   0  0  0  0  0  0
  -28.2588  -38.0119   24.7537 H   0  0  0  0  0  0
  -28.1119  -36.2657   24.6256 H   0  0  0  0  0  0
  -27.2315  -37.1426   25.8869 H   0  0  0  0  0  0
  -20.9263  -29.8758   21.7030 H   0  0  0  0  0  0
  -26.0183  -38.2899   24.1390 H   0  0  0  0  0  0
  -28.2119  -20.8370   21.8143 H   0  0  0  0  0  0
  -28.9767  -19.5288   22.6809 H   0  0  0  0  0  0
  -29.4972  -19.9211   21.0503 H   0  0  0  0  0  0
  -30.7679  -12.6981   23.5724 H   0  0  0  0  0  0
  -32.4134  -13.3424   23.5255 H   0  0  0  0  0  0
  -31.8633  -12.2651   22.2637 H   0  0  0  0  0  0
  -34.3973  -18.0123   24.4787 H   0  0  0  0  0  0
  -33.6364  -18.9955   25.7353 H   0  0  0  0  0  0
  -34.2033  -19.7462   24.2387 H   0  0  0  0  0  0
  -28.3278  -23.0688   21.6081 H   0  0  0  0  0  0
  -29.3377  -23.9639   22.7134 H   0  0  0  0  0  0
  -29.2712  -24.2978   19.6823 H   0  0  0  0  0  0
  -30.3898  -25.1452   20.7316 H   0  0  0  0  0  0
  -31.3698  -23.0121   21.7621 H   0  0  0  0  0  0
  -30.4761  -22.1367   20.5461 H   0  0  0  0  0  0
  -32.4640  -16.7040   22.3869 H   0  0  0  0  0  0
  -32.8707  -15.5999   23.6698 H   0  0  0  0  0  0
  -31.8085  -20.0080   21.9921 H   0  0  0  0  0  0
  -32.3611  -21.3483   22.9511 H   0  0  0  0  0  0
  -30.0832  -16.0835   22.4645 H   0  0  0  0  0  0
  -30.3240  -15.1271   23.8962 H   0  0  0  0  0  0
  -32.1308  -16.9880   25.3597 H   0  0  0  0  0  0
  -30.7147  -17.4270   24.4770 H   0  0  0  0  0  0
  -30.4768  -19.4736   24.3253 H   0  0  0  0  0  0
  -31.7473  -20.4062   25.0056 H   0  0  0  0  0  0
  -28.4834  -26.1413   21.9927 H   0  0  0  0  0  0
  -27.3549  -25.2288   21.0078 H   0  0  0  0  0  0
  -29.8518  -21.7562   23.4907 H   0  0  0  0  0  0
  -32.5944  -18.5614   23.0350 H   0  0  0  0  0  0
  1 25  1  0  0  0
  1 30  2  0  0  0
  1 84  1  0  0  0
  2  3  1  0  0  0
  2 25  1  0  0  0
  2 86  1  0  0  0
  2 87  1  0  0  0
  3  4  1  0  0  0
  3 88  1  0  0  0
  3 89  1  0  0  0
  4  5  1  0  0  0
  4 90  1  0  0  0
  4 91  1  0  0  0
  5  6  1  0  0  0
  5 26  1  0  0  0
  5 92  1  0  0  0
  6 25  1  0  0  0
  6 93  1  0  0  0
  6 94  1  0  0  0
  7  8  2  0  0  0
  7 26  1  0  0  0
  7 29  1  0  0  0
  8  9  1  0  0  0
  8 22  1  0  0  0
  9 10  1  0  0  0
  9 27  2  0  0  0
 10 11  2  0  0  0
 10 15  1  0  0  0
 11 12  1  0  0  0
 11 95  1  0  0  0
 12 13  2  0  0  0
 12 96  1  0  0  0
 13 14  1  0  0  0
 13 31  1  0  0  0
 14 15  2  0  0  0
 14 97  1  0  0  0
 15 98  1  0  0  0
 16 17  2  0  0  0
 16 21  1  0  0  0
 16 31  1  0  0  0
 17 18  1  0  0  0
 17 99  1  0  0  0
 18 19  2  0  0  0
 18100  1  0  0  0
 19 20  1  0  0  0
 19 24  1  0  0  0
 20 21  2  0  0  0
 20101  1  0  0  0
 21 23  1  0  0  0
 22 28  1  0  0  0
 22 32  2  0  0  0
 26 27  1  0  0  0
 28102  1  0  0  0
 28103  1  0  0  0
 29104  1  0  0  0
 29105  1  0  0  0
 33 34  1  0  0  0
 33 66  1  0  0  0
 33 70  2  0  0  0
 34 36  1  0  0  0
 34 59  1  0  0  0
 34106  1  0  0  0
 35 44  2  0  0  0
 35 45  1  0  0  0
 35 68  1  0  0  0
 36 56  1  0  0  0
 36107  1  0  0  0
 37 39  1  0  0  0
 37 47  1  0  0  0
 37 66  1  0  0  0
 37108  1  0  0  0
 38 43  2  0  0  0
 38 46  1  0  0  0
 38 47  1  0  0  0
 39 64  1  0  0  0
 39 67  2  0  0  0
 40 52  1  0  0  0
 40 53  2  0  0  0
 40 58  1  0  0  0
 41109  1  0  0  0
 41110  1  0  0  0
 41111  1  0  0  0
 41 48  1  0  0  0
 42 43  1  0  0  0
 42 66  1  0  0  0
 42112  1  0  0  0
 42113  1  0  0  0
 43 44  1  0  0  0
 44114  1  0  0  0
 45 46  2  0  0  0
 45115  1  0  0  0
 46116  1  0  0  0
 47117  1  0  0  0
 47118  1  0  0  0
 48 56  1  0  0  0
 48 65  1  0  0  0
 48119  1  0  0  0
 49 50  1  0  0  0
 49 53  1  0  0  0
 49 64  1  0  0  0
 49120  1  0  0  0
 50 51  1  0  0  0
 50121  1  0  0  0
 50122  1  0  0  0
 51 52  1  0  0  0
 51123  1  0  0  0
 51124  1  0  0  0
 52125  1  0  0  0
 52126  1  0  0  0
 53 54  1  0  0  0
 54 55  2  0  0  0
 54127  1  0  0  0
 55 57  1  0  0  0
 55128  1  0  0  0
 56 69  2  0  0  0
 57 58  2  0  0  0
 57129  1  0  0  0
 58130  1  0  0  0
 59 60  1  0  0  0
 59 61  1  0  0  0
 59 62  1  0  0  0
 60131  1  0  0  0
 60132  1  0  0  0
 60133  1  0  0  0
 61134  1  0  0  0
 61135  1  0  0  0
 61136  1  0  0  0
 62137  1  0  0  0
 62138  1  0  0  0
 62139  1  0  0  0
 63 65  1  0  0  0
 63140  1  0  0  0
 63141  1  0  0  0
 63142  1  0  0  0
 64143  1  0  0  0
 65144  1  0  0  0
 68 82  1  0  0  0
 71145  1  0  0  0
 71146  1  0  0  0
 71147  1  0  0  0
 71 83  1  0  0  0
 72 84  1  0  0  0
 72148  1  0  0  0
 72149  1  0  0  0
 72150  1  0  0  0
 73151  1  0  0  0
 73152  1  0  0  0
 73153  1  0  0  0
 73 85  1  0  0  0
 74 75  1  0  0  0
 74 76  1  0  0  0
 74154  1  0  0  0
 74155  1  0  0  0
 75 82  1  0  0  0
 75156  1  0  0  0
 75157  1  0  0  0
 76 83  1  0  0  0
 76158  1  0  0  0
 76159  1  0  0  0
 77 79  1  0  0  0
 77 80  1  0  0  0
 77160  1  0  0  0
 77161  1  0  0  0
 78 81  1  0  0  0
 78 83  1  0  0  0
 78162  1  0  0  0
 78163  1  0  0  0
 79 84  1  0  0  0
 79164  1  0  0  0
 79165  1  0  0  0
 80 85  1  0  0  0
 80166  1  0  0  0
 80167  1  0  0  0
 81 85  1  0  0  0
 81168  1  0  0  0
 81169  1  0  0  0
 82170  1  0  0  0
 82171  1  0  0  0
 83172  1  0  0  0
 85173  1  0  0  0
M  CHG  1  85   1
M  ISO  4   1 100  68 101  82 101  84 100
M  END
> <chiral flag>
0

> <version>
0

> <s_m_source_file>
/data/baiqing/PycharmProjects/Reinvent-master-3.2/result/LINK_invent/BTK/process_docking_weight1_custom_sum_contain_oxygen_bond_distance_aromatic_linkinvent_7_9_3/rearranged_h_0051.sdf

> <i_m_source_file_index>
61

> <r_mmod_Potential_Energy-OPLS-2005>
100.025428771973

> <r_mmod_Stretch_Energy-OPLS-2005>
30.0354042053223

> <r_mmod_Bend_Energy-OPLS-2005>
86.3744659423828

> <r_mmod_Torsional_Energy-OPLS-2005>
374.745086669922

> <r_mmod_Improper_Torsional_Energy-OPLS-2005>
6.40968132019043

> <r_mmod_Van_der_Waal_Energy-OPLS-2005>
138.794525146484

> <r_mmod_Electrostatic_Energy-OPLS-2005>
-145.179534912109

> <r_mmod_Solvation_Energy-OPLS-2005>
-409.391784667969

> <b_mmod_Minimization_Converged-OPLS-2005>
0

> <r_mmod_RMS_Derivative-OPLS-2005>
3.28832840919495

$$$$
62
                    3D
 Structure written by MMmdl.
181189  0  0  1  0            999 V2000
  -30.8777  -14.2301   20.8101 C   0  0  0  0  0  0
  -30.4289  -12.2983   19.3486 C   0  0  0  0  0  0
  -29.4742  -12.5844   18.1756 C   0  0  0  0  0  0
  -28.0054  -12.4257   18.6042 C   0  0  0  0  0  0
  -27.6870  -13.2078   19.9022 C   0  0  2  0  0  0
  -28.7354  -12.9044   20.9992 C   0  0  0  0  0  0
  -25.2660  -13.8182   20.5653 C   0  0  0  0  0  0
  -24.1885  -13.0484   20.9095 C   0  0  0  0  0  0
  -24.6410  -11.6939   20.8634 C   0  0  0  0  0  0
  -23.9038  -10.4337   21.0296 C   0  0  0  0  0  0
  -24.3596   -9.4283   21.9102 C   0  0  0  0  0  0
  -23.6287   -8.2311   22.0739 C   0  0  0  0  0  0
  -22.4263   -8.0305   21.3545 C   0  0  0  0  0  0
  -21.9875   -9.0245   20.4620 C   0  0  0  0  0  0
  -22.7179  -10.2137   20.2979 C   0  0  0  0  0  0
  -21.6879   -6.0748   22.5295 C   0  0  0  0  0  0
  -21.4013   -6.5654   23.8224 C   0  0  0  0  0  0
  -21.3650   -5.6804   24.9195 C   0  0  0  0  0  0
  -21.6042   -4.3058   24.7242 C   0  0  0  0  0  0
  -21.8817   -3.8156   23.4357 C   0  0  0  0  0  0
  -21.9198   -4.6980   22.3415 C   0  0  0  0  0  0
  -22.7895  -13.5272   21.1775 C   0  0  0  0  0  0
  -22.1662   -4.2162   21.0998 F   0  0  0  0  0  0
  -21.5612   -3.4546   25.7748 F   0  0  0  0  0  0
  -30.0937  -13.1688   20.4826 N   0  0  0  0  0  0
  -26.3178  -12.9374   20.3522 N   0  0  0  0  0  0
  -25.9365  -11.6523   20.5768 N   0  0  0  0  0  0
  -22.0531  -12.8277   22.0333 N   0  0  0  0  0  0
  -25.4316  -15.1915   20.4008 N   0  0  0  0  0  0
  -31.6757  -14.7428   20.0161 O   0  0  0  0  0  0
  -21.6648   -6.8882   21.4251 O   0  0  0  0  0  0
  -22.3576  -14.5599   20.6651 O   0  0  0  0  0  0
  -24.6051  -31.8717   23.2157 C   0  0  0  0  0  0
  -25.8966  -32.4844   23.8460 C   0  0  1  0  0  0
  -27.2498  -27.4898   20.0717 C   0  0  0  0  0  0
  -25.5867  -33.8665   24.2402 N   0  0  0  0  0  0
  -23.3938  -30.4936   21.5538 C   0  0  2  0  0  0
  -24.8408  -28.9676   20.1195 C   0  0  0  0  0  0
  -22.7372  -29.4671   22.5022 C   0  0  0  0  0  0
  -18.0281  -28.1371   22.8492 C   0  0  0  0  0  0
  -24.1493  -36.7346   23.2651 C   0  0  0  0  0  0
  -25.9162  -30.8517   21.3615 C   0  0  0  0  0  0
  -25.9963  -29.4924   20.7061 C   0  0  0  0  0  0
  -27.1998  -28.7602   20.6792 C   0  0  0  0  0  0
  -26.0674  -26.9635   19.4953 C   0  0  0  0  0  0
  -24.8691  -27.6997   19.5172 C   0  0  0  0  0  0
  -23.6007  -29.8271   20.1698 C   0  0  0  0  0  0
  -25.4133  -36.3175   24.0347 C   0  0  1  0  0  0
  -20.5869  -28.3666   23.1348 C   0  0  2  0  0  0
  -20.6815  -26.9417   22.5443 C   0  0  0  0  0  0
  -19.5799  -26.6393   21.5245 C   0  0  0  0  0  0
  -18.1950  -26.7922   22.1602 C   0  0  0  0  0  0
  -19.1529  -28.8833   23.2910 C   0  0  0  0  0  0
  -18.9483  -30.1455   23.8903 C   0  0  0  0  0  0
  -17.6483  -30.6592   24.0577 C   0  0  0  0  0  0
  -25.9048  -34.9500   23.5190 C   0  0  0  0  0  0
  -16.5364  -29.9089   23.6353 C   0  0  0  0  0  0
  -16.7262  -28.6513   23.0360 C   0  0  0  0  0  0
  -26.4468  -31.6585   25.0743 C   0  0  0  0  0  0
  -25.3826  -31.3566   26.1543 C   0  0  0  0  0  0
  -27.0287  -30.3041   24.6043 C   0  0  0  0  0  0
  -27.6075  -32.4277   25.7499 C   0  0  0  0  0  0
  -27.5600  -37.1847   24.8472 C   0  0  0  0  0  0
  -21.4100  -29.3029   22.3739 N   0  0  0  0  0  0
  -26.4312  -37.3864   23.9424 N   0  0  0  0  0  0
  -24.6560  -31.0880   22.1020 N   0  0  0  0  0  0
  -23.4161  -28.8246   23.3081 O   0  0  0  0  0  0
  -28.4637  -26.8314   20.0629 O   0  0  0  0  0  0
  -26.5607  -34.8895   22.4742 O   0  0  0  0  0  0
  -23.5240  -32.1435   23.7561 O   0  0  0  0  0  0
  -27.2812  -16.1436   23.2898 C   0  0  0  0  0  0
  -27.2196  -17.0233   24.3903 C   0  0  0  0  0  0
  -29.4917  -17.4128   24.2183 C   0  0  0  0  0  0
  -29.5639  -16.4816   23.1413 C   0  0  0  0  0  0
  -31.2880  -17.6811   26.0225 C   0  0  0  0  0  0
  -32.5516  -13.1780   23.2851 C   0  0  0  0  0  0
  -25.8861  -17.3518   25.0420 C   0  0  0  0  0  0
  -30.6839  -18.2207   24.7171 C   0  0  0  0  0  0
  -30.8637  -16.0475   22.4642 C   0  0  0  0  0  0
  -25.4496  -18.8128   24.8238 C   0  0  0  0  0  0
  -25.5915  -19.3356   23.3751 C   0  0  0  0  0  0
  -27.5433  -23.2593   20.9019 C   0  0  0  0  0  0
  -27.9411  -24.7264   21.1154 C   0  0  0  0  0  0
  -31.1022  -13.7012   23.2374 C   0  0  0  0  0  0
  -25.8216  -20.8517   23.3506 C   0  0  0  0  0  0
  -26.9312  -22.6920   22.1938 C   0  0  0  0  0  0
  -28.4874  -25.4234   19.8588 C   0  0  0  0  0  0
  -28.4446  -15.8846   22.6606 N   0  0  0  0  0  0
  -28.3195  -17.6649   24.8537 N   0  0  0  0  0  0
  -30.8443  -14.6187   22.1079 N   0  0  0  0  0  0
  -26.3946  -21.3200   22.0703 N   0  3  0  0  0  0
  -31.4646  -12.4296   19.0257 H   0  0  0  0  0  0
  -30.3456  -11.2560   19.6590 H   0  0  0  0  0  0
  -29.6931  -11.9215   17.3377 H   0  0  0  0  0  0
  -29.6441  -13.5981   17.8081 H   0  0  0  0  0  0
  -27.8040  -11.3641   18.7456 H   0  0  0  0  0  0
  -27.3469  -12.7593   17.8002 H   0  0  0  0  0  0
  -27.7584  -14.2713   19.6718 H   0  0  0  0  0  0
  -28.6794  -11.8574   21.2986 H   0  0  0  0  0  0
  -28.5093  -13.4742   21.8962 H   0  0  0  0  0  0
  -25.2757   -9.5822   22.4628 H   0  0  0  0  0  0
  -24.0028   -7.4763   22.7507 H   0  0  0  0  0  0
  -21.0785   -8.8712   19.8951 H   0  0  0  0  0  0
  -22.3586  -10.9632   19.6057 H   0  0  0  0  0  0
  -21.1975   -7.6156   23.9731 H   0  0  0  0  0  0
  -21.1448   -6.0528   25.9100 H   0  0  0  0  0  0
  -22.0564   -2.7613   23.2864 H   0  0  0  0  0  0
  -22.4158  -11.9946   22.4723 H   0  0  0  0  0  0
  -21.1141  -13.1287   22.2519 H   0  0  0  0  0  0
  -24.6570  -15.8404   20.4819 H   0  0  0  0  0  0
  -26.3074  -15.6399   20.1612 H   0  0  0  0  0  0
  -26.7023  -32.5530   23.1208 H   0  0  0  0  0  0
  -25.0063  -33.9900   25.0563 H   0  0  0  0  0  0
  -22.6807  -31.3092   21.4155 H   0  0  0  0  0  0
  -23.3766  -35.9673   23.3329 H   0  0  0  0  0  0
  -24.3621  -36.8941   22.2075 H   0  0  0  0  0  0
  -23.7188  -37.6529   23.6645 H   0  0  0  0  0  0
  -26.0332  -31.6190   20.5942 H   0  0  0  0  0  0
  -26.8004  -30.8965   21.9860 H   0  0  0  0  0  0
  -28.0930  -29.1754   21.1277 H   0  0  0  0  0  0
  -26.0450  -26.0001   19.0109 H   0  0  0  0  0  0
  -23.9772  -27.2906   19.0654 H   0  0  0  0  0  0
  -23.7040  -30.5989   19.4051 H   0  0  0  0  0  0
  -22.7244  -29.2463   19.8780 H   0  0  0  0  0  0
  -25.1300  -36.2095   25.0840 H   0  0  0  0  0  0
  -20.9960  -28.3225   24.1478 H   0  0  0  0  0  0
  -20.5851  -26.2255   23.3610 H   0  0  0  0  0  0
  -21.6684  -26.7569   22.1190 H   0  0  0  0  0  0
  -19.7015  -25.6347   21.1225 H   0  0  0  0  0  0
  -19.6739  -27.3253   20.6817 H   0  0  0  0  0  0
  -17.4283  -26.6697   21.3934 H   0  0  0  0  0  0
  -18.0295  -26.0047   22.8970 H   0  0  0  0  0  0
  -19.7972  -30.7255   24.2237 H   0  0  0  0  0  0
  -17.5076  -31.6272   24.5188 H   0  0  0  0  0  0
  -15.5397  -30.3009   23.7725 H   0  0  0  0  0  0
  -15.8641  -28.0843   22.7089 H   0  0  0  0  0  0
  -24.6089  -30.6777   25.7923 H   0  0  0  0  0  0
  -24.8926  -32.2635   26.5057 H   0  0  0  0  0  0
  -25.8334  -30.8765   27.0232 H   0  0  0  0  0  0
  -26.2740  -29.6741   24.1315 H   0  0  0  0  0  0
  -27.4294  -29.7329   25.4421 H   0  0  0  0  0  0
  -27.8471  -30.4395   23.8996 H   0  0  0  0  0  0
  -27.2763  -33.3581   26.2097 H   0  0  0  0  0  0
  -28.3899  -32.6801   25.0350 H   0  0  0  0  0  0
  -28.0698  -31.8360   26.5384 H   0  0  0  0  0  0
  -28.2670  -38.0114   24.7591 H   0  0  0  0  0  0
  -28.1051  -36.2657   24.6241 H   0  0  0  0  0  0
  -27.2322  -37.1443   25.8876 H   0  0  0  0  0  0
  -20.9222  -29.8654   21.6893 H   0  0  0  0  0  0
  -26.0194  -38.2940   24.1409 H   0  0  0  0  0  0
  -26.3970  -15.6560   22.9067 H   0  0  0  0  0  0
  -32.1263  -18.3039   26.3363 H   0  0  0  0  0  0
  -31.6505  -16.6598   25.9076 H   0  0  0  0  0  0
  -30.5609  -17.6830   26.8357 H   0  0  0  0  0  0
  -32.7231  -12.6074   24.2003 H   0  0  0  0  0  0
  -33.2823  -13.9895   23.2728 H   0  0  0  0  0  0
  -32.7746  -12.5171   22.4469 H   0  0  0  0  0  0
  -25.9617  -17.1429   26.1095 H   0  0  0  0  0  0
  -25.1194  -16.6819   24.6523 H   0  0  0  0  0  0
  -30.3542  -19.2489   24.8830 H   0  0  0  0  0  0
  -31.4485  -18.2981   23.9457 H   0  0  0  0  0  0
  -31.7222  -16.2294   23.1104 H   0  0  0  0  0  0
  -31.0082  -16.6777   21.5842 H   0  0  0  0  0  0
  -26.0721  -19.4164   25.4842 H   0  0  0  0  0  0
  -24.4247  -18.9593   25.1723 H   0  0  0  0  0  0
  -24.7093  -19.0698   22.7903 H   0  0  0  0  0  0
  -26.4315  -18.8629   22.8708 H   0  0  0  0  0  0
  -28.4204  -22.6808   20.6052 H   0  0  0  0  0  0
  -26.8253  -23.1878   20.0846 H   0  0  0  0  0  0
  -28.6923  -24.8050   21.9044 H   0  0  0  0  0  0
  -27.0653  -25.2614   21.4860 H   0  0  0  0  0  0
  -30.8925  -14.2117   24.1804 H   0  0  0  0  0  0
  -30.4127  -12.8572   23.2127 H   0  0  0  0  0  0
  -26.5182  -21.1232   24.1468 H   0  0  0  0  0  0
  -24.8872  -21.3736   23.5562 H   0  0  0  0  0  0
  -26.1176  -23.3360   22.5272 H   0  0  0  0  0  0
  -27.6885  -22.7098   22.9802 H   0  0  0  0  0  0
  -27.9718  -25.1357   18.9430 H   0  0  0  0  0  0
  -29.5257  -25.1229   19.7109 H   0  0  0  0  0  0
  -25.6836  -21.2875   21.3578 H   0  0  0  0  0  0
  -27.1330  -20.6919   21.7956 H   0  0  0  0  0  0
  1 25  1  0  0  0
  1 30  2  0  0  0
  1 90  1  0  0  0
  2  3  1  0  0  0
  2 25  1  0  0  0
  2 92  1  0  0  0
  2 93  1  0  0  0
  3  4  1  0  0  0
  3 94  1  0  0  0
  3 95  1  0  0  0
  4  5  1  0  0  0
  4 96  1  0  0  0
  4 97  1  0  0  0
  5  6  1  0  0  0
  5 26  1  0  0  0
  5 98  1  0  0  0
  6 25  1  0  0  0
  6 99  1  0  0  0
  6100  1  0  0  0
  7  8  2  0  0  0
  7 26  1  0  0  0
  7 29  1  0  0  0
  8  9  1  0  0  0
  8 22  1  0  0  0
  9 10  1  0  0  0
  9 27  2  0  0  0
 10 11  2  0  0  0
 10 15  1  0  0  0
 11 12  1  0  0  0
 11101  1  0  0  0
 12 13  2  0  0  0
 12102  1  0  0  0
 13 14  1  0  0  0
 13 31  1  0  0  0
 14 15  2  0  0  0
 14103  1  0  0  0
 15104  1  0  0  0
 16 17  2  0  0  0
 16 21  1  0  0  0
 16 31  1  0  0  0
 17 18  1  0  0  0
 17105  1  0  0  0
 18 19  2  0  0  0
 18106  1  0  0  0
 19 20  1  0  0  0
 19 24  1  0  0  0
 20 21  2  0  0  0
 20107  1  0  0  0
 21 23  1  0  0  0
 22 28  1  0  0  0
 22 32  2  0  0  0
 26 27  1  0  0  0
 28108  1  0  0  0
 28109  1  0  0  0
 29110  1  0  0  0
 29111  1  0  0  0
 33 34  1  0  0  0
 33 66  1  0  0  0
 33 70  2  0  0  0
 34 36  1  0  0  0
 34 59  1  0  0  0
 34112  1  0  0  0
 35 44  2  0  0  0
 35 45  1  0  0  0
 35 68  1  0  0  0
 36 56  1  0  0  0
 36113  1  0  0  0
 37 39  1  0  0  0
 37 47  1  0  0  0
 37 66  1  0  0  0
 37114  1  0  0  0
 38 43  2  0  0  0
 38 46  1  0  0  0
 38 47  1  0  0  0
 39 64  1  0  0  0
 39 67  2  0  0  0
 40 52  1  0  0  0
 40 53  2  0  0  0
 40 58  1  0  0  0
 41115  1  0  0  0
 41116  1  0  0  0
 41117  1  0  0  0
 41 48  1  0  0  0
 42 43  1  0  0  0
 42 66  1  0  0  0
 42118  1  0  0  0
 42119  1  0  0  0
 43 44  1  0  0  0
 44120  1  0  0  0
 45 46  2  0  0  0
 45121  1  0  0  0
 46122  1  0  0  0
 47123  1  0  0  0
 47124  1  0  0  0
 48 56  1  0  0  0
 48 65  1  0  0  0
 48125  1  0  0  0
 49 50  1  0  0  0
 49 53  1  0  0  0
 49 64  1  0  0  0
 49126  1  0  0  0
 50 51  1  0  0  0
 50127  1  0  0  0
 50128  1  0  0  0
 51 52  1  0  0  0
 51129  1  0  0  0
 51130  1  0  0  0
 52131  1  0  0  0
 52132  1  0  0  0
 53 54  1  0  0  0
 54 55  2  0  0  0
 54133  1  0  0  0
 55 57  1  0  0  0
 55134  1  0  0  0
 56 69  2  0  0  0
 57 58  2  0  0  0
 57135  1  0  0  0
 58136  1  0  0  0
 59 60  1  0  0  0
 59 61  1  0  0  0
 59 62  1  0  0  0
 60137  1  0  0  0
 60138  1  0  0  0
 60139  1  0  0  0
 61140  1  0  0  0
 61141  1  0  0  0
 61142  1  0  0  0
 62143  1  0  0  0
 62144  1  0  0  0
 62145  1  0  0  0
 63 65  1  0  0  0
 63146  1  0  0  0
 63147  1  0  0  0
 63148  1  0  0  0
 64149  1  0  0  0
 65150  1  0  0  0
 68 87  1  0  0  0
 71 72  2  0  0  0
 71 88  1  0  0  0
 71151  1  0  0  0
 72 77  1  0  0  0
 72 89  1  0  0  0
 73 74  1  0  0  0
 73 78  1  0  0  0
 73 89  2  0  0  0
 74 79  1  0  0  0
 74 88  2  0  0  0
 75 78  1  0  0  0
 75152  1  0  0  0
 75153  1  0  0  0
 75154  1  0  0  0
 76 84  1  0  0  0
 76155  1  0  0  0
 76156  1  0  0  0
 76157  1  0  0  0
 77 80  1  0  0  0
 77158  1  0  0  0
 77159  1  0  0  0
 78160  1  0  0  0
 78161  1  0  0  0
 79 90  1  0  0  0
 79162  1  0  0  0
 79163  1  0  0  0
 80 81  1  0  0  0
 80164  1  0  0  0
 80165  1  0  0  0
 81 85  1  0  0  0
 81166  1  0  0  0
 81167  1  0  0  0
 82 83  1  0  0  0
 82 86  1  0  0  0
 82168  1  0  0  0
 82169  1  0  0  0
 83 87  1  0  0  0
 83170  1  0  0  0
 83171  1  0  0  0
 84 90  1  0  0  0
 84172  1  0  0  0
 84173  1  0  0  0
 85 91  1  0  0  0
 85174  1  0  0  0
 85175  1  0  0  0
 86 91  1  0  0  0
 86176  1  0  0  0
 86177  1  0  0  0
 87178  1  0  0  0
 87179  1  0  0  0
 91180  1  0  0  0
 91181  1  0  0  0
M  CHG  1  91   1
M  ISO  4   1 100  68 101  87 101  90 100
M  END
> <chiral flag>
0

> <version>
0

> <s_m_source_file>
/data/baiqing/PycharmProjects/Reinvent-master-3.2/result/LINK_invent/BTK/process_docking_weight1_custom_sum_contain_oxygen_bond_distance_aromatic_linkinvent_7_9_3/rearranged_h_0051.sdf

> <i_m_source_file_index>
62

> <r_mmod_Potential_Energy-OPLS-2005>
-32.842342376709

> <r_mmod_Stretch_Energy-OPLS-2005>
38.5614013671875

> <r_mmod_Bend_Energy-OPLS-2005>
102.272117614746

> <r_mmod_Torsional_Energy-OPLS-2005>
270.82470703125

> <r_mmod_Improper_Torsional_Energy-OPLS-2005>
3.39230680465698

> <r_mmod_Van_der_Waal_Energy-OPLS-2005>
155.205596923828

> <r_mmod_Electrostatic_Energy-OPLS-2005>
-185.186111450195

> <r_mmod_Solvation_Energy-OPLS-2005>
-434.149932861328

> <b_mmod_Minimization_Converged-OPLS-2005>
0

> <r_mmod_RMS_Derivative-OPLS-2005>
4.91829681396484

$$$$
63
                    3D
 Structure written by MMmdl.
163171  0  0  1  0            999 V2000
  -30.8747  -14.2858   20.7430 C   0  0  0  0  0  0
  -30.4048  -12.2940   19.3547 C   0  0  0  0  0  0
  -29.4626  -12.5482   18.1658 C   0  0  0  0  0  0
  -27.9957  -12.3924   18.5926 C   0  0  0  0  0  0
  -27.6664  -13.2162   19.8571 C   0  0  2  0  0  0
  -28.7074  -12.9988   20.9743 C   0  0  0  0  0  0
  -25.2624  -13.8220   20.5651 C   0  0  0  0  0  0
  -24.1884  -13.0454   20.9129 C   0  0  0  0  0  0
  -24.6455  -11.6929   20.8712 C   0  0  0  0  0  0
  -23.9116  -10.4295   21.0404 C   0  0  0  0  0  0
  -24.3659   -9.4202   21.9186 C   0  0  0  0  0  0
  -23.6316   -8.2252   22.0774 C   0  0  0  0  0  0
  -22.4303   -8.0303   21.3555 C   0  0  0  0  0  0
  -21.9946   -9.0268   20.4656 C   0  0  0  0  0  0
  -22.7286  -10.2139   20.3049 C   0  0  0  0  0  0
  -21.6853   -6.0753   22.5269 C   0  0  0  0  0  0
  -21.4009   -6.5640   23.8205 C   0  0  0  0  0  0
  -21.3651   -5.6797   24.9157 C   0  0  0  0  0  0
  -21.6055   -4.3061   24.7219 C   0  0  0  0  0  0
  -21.8819   -3.8154   23.4333 C   0  0  0  0  0  0
  -21.9194   -4.6975   22.3390 C   0  0  0  0  0  0
  -22.7895  -13.5231   21.1781 C   0  0  0  0  0  0
  -22.1674   -4.2162   21.0971 F   0  0  0  0  0  0
  -21.5622   -3.4545   25.7730 F   0  0  0  0  0  0
  -30.0751  -13.2152   20.4588 N   0  0  0  0  0  0
  -26.3075  -12.9399   20.3292 N   0  0  0  0  0  0
  -25.9376  -11.6547   20.5728 N   0  0  0  0  0  0
  -22.0555  -12.8211   22.0361 N   0  0  0  0  0  0
  -25.4317  -15.1947   20.4100 N   0  0  0  0  0  0
  -31.6791  -14.7310   19.9191 O   0  0  0  0  0  0
  -21.6641   -6.8907   21.4247 O   0  0  0  0  0  0
  -22.3548  -14.5503   20.6602 O   0  0  0  0  0  0
  -24.6207  -31.8663   23.2123 C   0  0  0  0  0  0
  -25.9087  -32.4794   23.8419 C   0  0  1  0  0  0
  -27.2069  -27.3952   20.0874 C   0  0  0  0  0  0
  -25.5931  -33.8603   24.2327 N   0  0  0  0  0  0
  -23.4059  -30.4951   21.5588 C   0  0  2  0  0  0
  -24.8415  -28.9761   20.1076 C   0  0  0  0  0  0
  -22.7427  -29.4630   22.4987 C   0  0  0  0  0  0
  -18.0271  -28.1303   22.8494 C   0  0  0  0  0  0
  -24.1475  -36.7334   23.2631 C   0  0  0  0  0  0
  -25.9421  -30.8102   21.3787 C   0  0  0  0  0  0
  -26.0079  -29.4500   20.7196 C   0  0  0  0  0  0
  -27.1907  -28.6675   20.7116 C   0  0  0  0  0  0
  -26.0200  -26.9757   19.4266 C   0  0  0  0  0  0
  -24.8464  -27.7393   19.4539 C   0  0  0  0  0  0
  -23.6105  -29.8469   20.1681 C   0  0  0  0  0  0
  -25.4088  -36.3101   24.0339 C   0  0  1  0  0  0
  -20.5864  -28.3621   23.1275 C   0  0  2  0  0  0
  -20.6759  -26.9342   22.5379 C   0  0  0  0  0  0
  -19.5736  -26.6329   21.5165 C   0  0  0  0  0  0
  -18.1918  -26.7851   22.1591 C   0  0  0  0  0  0
  -19.1537  -28.8777   23.2878 C   0  0  0  0  0  0
  -18.9457  -30.1389   23.8878 C   0  0  0  0  0  0
  -17.6475  -30.6525   24.0559 C   0  0  0  0  0  0
  -25.9034  -34.9460   23.5117 C   0  0  0  0  0  0
  -16.5367  -29.9029   23.6303 C   0  0  0  0  0  0
  -16.7267  -28.6439   23.0345 C   0  0  0  0  0  0
  -26.4492  -31.6588   25.0777 C   0  0  0  0  0  0
  -25.3723  -31.3718   26.1518 C   0  0  0  0  0  0
  -27.0339  -30.3016   24.6198 C   0  0  0  0  0  0
  -27.6049  -32.4346   25.7536 C   0  0  0  0  0  0
  -27.5566  -37.1805   24.8463 C   0  0  0  0  0  0
  -21.4147  -29.3027   22.3717 N   0  0  0  0  0  0
  -26.4266  -37.3788   23.9425 N   0  0  0  0  0  0
  -24.6759  -31.0703   22.1087 N   0  0  0  0  0  0
  -23.4165  -28.8124   23.3013 O   0  0  0  0  0  0
  -28.3470  -26.6000   20.1726 O   0  0  0  0  0  0
  -26.5589  -34.8902   22.4677 O   0  0  0  0  0  0
  -23.5402  -32.1445   23.7509 O   0  0  0  0  0  0
  -29.4957  -21.7431   20.0568 C   0  0  0  0  0  0
  -29.2607  -22.9823   19.4431 C   0  0  0  0  0  0
  -29.4919  -21.6926   21.4639 C   0  0  0  0  0  0
  -28.9716  -24.0922   20.2600 C   0  0  0  0  0  0
  -30.6660  -13.8730   23.1757 C   0  0  0  0  0  0
  -31.9563  -20.0661   21.1537 C   0  0  0  0  0  0
  -29.6604  -20.3422   22.1778 C   0  0  0  0  0  0
  -28.2718  -25.2780   19.5911 C   0  0  0  0  0  0
  -30.7152  -17.3197   22.1637 C   0  0  0  0  0  0
  -31.5609  -16.0349   22.3735 C   0  0  0  0  0  0
  -31.2315  -18.5465   22.9792 C   0  0  0  0  0  0
  -29.2810  -22.8143   22.2108 N   0  0  0  0  0  0
  -28.9981  -23.9927   21.6202 N   0  0  0  0  0  0
  -30.8631  -14.7688   22.0190 N   0  0  0  0  0  0
  -31.0736  -19.8862   22.3354 N   0  3  1  0  0  0
  -31.4426  -12.3953   19.0306 H   0  0  0  0  0  0
  -30.3070  -11.2599   19.6900 H   0  0  0  0  0  0
  -29.6792  -11.8565   17.3493 H   0  0  0  0  0  0
  -29.6290  -13.5484   17.7639 H   0  0  0  0  0  0
  -27.7958  -11.3337   18.7669 H   0  0  0  0  0  0
  -27.3324  -12.6928   17.7805 H   0  0  0  0  0  0
  -27.7140  -14.2659   19.5665 H   0  0  0  0  0  0
  -28.6290  -11.9913   21.3828 H   0  0  0  0  0  0
  -28.4501  -13.6896   21.7744 H   0  0  0  0  0  0
  -25.2825   -9.5645   22.4736 H   0  0  0  0  0  0
  -24.0007   -7.4650   22.7506 H   0  0  0  0  0  0
  -21.0873   -8.8775   19.8983 H   0  0  0  0  0  0
  -22.3759  -10.9654   19.6138 H   0  0  0  0  0  0
  -21.1994   -7.6149   23.9701 H   0  0  0  0  0  0
  -21.1482   -6.0528   25.9060 H   0  0  0  0  0  0
  -22.0614   -2.7621   23.2816 H   0  0  0  0  0  0
  -22.4190  -11.9869   22.4718 H   0  0  0  0  0  0
  -21.1165  -13.1219   22.2548 H   0  0  0  0  0  0
  -24.6698  -15.8525   20.5327 H   0  0  0  0  0  0
  -26.2955  -15.6432   20.1300 H   0  0  0  0  0  0
  -26.7154  -32.5453   23.1176 H   0  0  0  0  0  0
  -25.0171  -33.9786   25.0536 H   0  0  0  0  0  0
  -22.6963  -31.3148   21.4299 H   0  0  0  0  0  0
  -23.3707  -35.9695   23.3324 H   0  0  0  0  0  0
  -24.3566  -36.8931   22.2034 H   0  0  0  0  0  0
  -23.7266  -37.6573   23.6638 H   0  0  0  0  0  0
  -26.0575  -31.5691   20.6043 H   0  0  0  0  0  0
  -26.8315  -30.8616   21.9938 H   0  0  0  0  0  0
  -28.0842  -29.0270   21.2007 H   0  0  0  0  0  0
  -25.9285  -26.0650   18.8570 H   0  0  0  0  0  0
  -23.9613  -27.3792   18.9452 H   0  0  0  0  0  0
  -23.7244  -30.6351   19.4220 H   0  0  0  0  0  0
  -22.7298  -29.2765   19.8660 H   0  0  0  0  0  0
  -25.1238  -36.1980   25.0833 H   0  0  0  0  0  0
  -20.9957  -28.3189   24.1396 H   0  0  0  0  0  0
  -20.5592  -26.2231   23.3573 H   0  0  0  0  0  0
  -21.6621  -26.7309   22.1190 H   0  0  0  0  0  0
  -19.6896  -25.6232   21.1197 H   0  0  0  0  0  0
  -19.6678  -27.3129   20.6687 H   0  0  0  0  0  0
  -17.4171  -26.6604   21.4012 H   0  0  0  0  0  0
  -18.0349  -25.9936   22.8937 H   0  0  0  0  0  0
  -19.7967  -30.7222   24.2183 H   0  0  0  0  0  0
  -17.5049  -31.6208   24.5167 H   0  0  0  0  0  0
  -15.5365  -30.2957   23.7624 H   0  0  0  0  0  0
  -15.8660  -28.0788   22.7021 H   0  0  0  0  0  0
  -24.5919  -30.7009   25.7913 H   0  0  0  0  0  0
  -24.8871  -32.2876   26.4893 H   0  0  0  0  0  0
  -25.8062  -30.8976   27.0321 H   0  0  0  0  0  0
  -26.2894  -29.6775   24.1236 H   0  0  0  0  0  0
  -27.4092  -29.7264   25.4681 H   0  0  0  0  0  0
  -27.8740  -30.4343   23.9367 H   0  0  0  0  0  0
  -27.2639  -33.3666   26.2046 H   0  0  0  0  0  0
  -28.3864  -32.6879   25.0360 H   0  0  0  0  0  0
  -28.0685  -31.8514   26.5490 H   0  0  0  0  0  0
  -28.2560  -38.0115   24.7513 H   0  0  0  0  0  0
  -28.1083  -36.2650   24.6277 H   0  0  0  0  0  0
  -27.2315  -37.1456   25.8873 H   0  0  0  0  0  0
  -20.9282  -29.8879   21.7070 H   0  0  0  0  0  0
  -26.0170  -38.2875   24.1432 H   0  0  0  0  0  0
  -29.6290  -20.8528   19.4591 H   0  0  0  0  0  0
  -29.1941  -23.0540   18.3672 H   0  0  0  0  0  0
  -29.6618  -13.9813   23.5799 H   0  0  0  0  0  0
  -31.3693  -14.0654   23.9842 H   0  0  0  0  0  0
  -30.8097  -12.8194   22.9256 H   0  0  0  0  0  0
  -31.5211  -19.6654   20.2374 H   0  0  0  0  0  0
  -32.9094  -19.5604   21.3037 H   0  0  0  0  0  0
  -32.1901  -21.1217   20.9878 H   0  0  0  0  0  0
  -29.0874  -19.6010   21.6173 H   0  0  0  0  0  0
  -29.1887  -20.3876   23.1604 H   0  0  0  0  0  0
  -27.2727  -24.8631   19.6478 H   0  0  0  0  0  0
  -28.5403  -25.3412   18.5354 H   0  0  0  0  0  0
  -29.6836  -17.1239   22.4603 H   0  0  0  0  0  0
  -30.6930  -17.5364   21.0951 H   0  0  0  0  0  0
  -31.9023  -16.0104   23.4072 H   0  0  0  0  0  0
  -32.4872  -16.1212   21.8020 H   0  0  0  0  0  0
  -32.2878  -18.4178   23.2191 H   0  0  0  0  0  0
  -30.7328  -18.5741   23.9487 H   0  0  0  0  0  0
  -31.4509  -20.5348   23.0108 H   0  0  0  0  0  0
  1 25  1  0  0  0
  1 30  2  0  0  0
  1 84  1  0  0  0
  2  3  1  0  0  0
  2 25  1  0  0  0
  2 86  1  0  0  0
  2 87  1  0  0  0
  3  4  1  0  0  0
  3 88  1  0  0  0
  3 89  1  0  0  0
  4  5  1  0  0  0
  4 90  1  0  0  0
  4 91  1  0  0  0
  5  6  1  0  0  0
  5 26  1  0  0  0
  5 92  1  0  0  0
  6 25  1  0  0  0
  6 93  1  0  0  0
  6 94  1  0  0  0
  7  8  2  0  0  0
  7 26  1  0  0  0
  7 29  1  0  0  0
  8  9  1  0  0  0
  8 22  1  0  0  0
  9 10  1  0  0  0
  9 27  2  0  0  0
 10 11  2  0  0  0
 10 15  1  0  0  0
 11 12  1  0  0  0
 11 95  1  0  0  0
 12 13  2  0  0  0
 12 96  1  0  0  0
 13 14  1  0  0  0
 13 31  1  0  0  0
 14 15  2  0  0  0
 14 97  1  0  0  0
 15 98  1  0  0  0
 16 17  2  0  0  0
 16 21  1  0  0  0
 16 31  1  0  0  0
 17 18  1  0  0  0
 17 99  1  0  0  0
 18 19  2  0  0  0
 18100  1  0  0  0
 19 20  1  0  0  0
 19 24  1  0  0  0
 20 21  2  0  0  0
 20101  1  0  0  0
 21 23  1  0  0  0
 22 28  1  0  0  0
 22 32  2  0  0  0
 26 27  1  0  0  0
 28102  1  0  0  0
 28103  1  0  0  0
 29104  1  0  0  0
 29105  1  0  0  0
 33 34  1  0  0  0
 33 66  1  0  0  0
 33 70  2  0  0  0
 34 36  1  0  0  0
 34 59  1  0  0  0
 34106  1  0  0  0
 35 44  2  0  0  0
 35 45  1  0  0  0
 35 68  1  0  0  0
 36 56  1  0  0  0
 36107  1  0  0  0
 37 39  1  0  0  0
 37 47  1  0  0  0
 37 66  1  0  0  0
 37108  1  0  0  0
 38 43  2  0  0  0
 38 46  1  0  0  0
 38 47  1  0  0  0
 39 64  1  0  0  0
 39 67  2  0  0  0
 40 52  1  0  0  0
 40 53  2  0  0  0
 40 58  1  0  0  0
 41109  1  0  0  0
 41110  1  0  0  0
 41111  1  0  0  0
 41 48  1  0  0  0
 42 43  1  0  0  0
 42 66  1  0  0  0
 42112  1  0  0  0
 42113  1  0  0  0
 43 44  1  0  0  0
 44114  1  0  0  0
 45 46  2  0  0  0
 45115  1  0  0  0
 46116  1  0  0  0
 47117  1  0  0  0
 47118  1  0  0  0
 48 56  1  0  0  0
 48 65  1  0  0  0
 48119  1  0  0  0
 49 50  1  0  0  0
 49 53  1  0  0  0
 49 64  1  0  0  0
 49120  1  0  0  0
 50 51  1  0  0  0
 50121  1  0  0  0
 50122  1  0  0  0
 51 52  1  0  0  0
 51123  1  0  0  0
 51124  1  0  0  0
 52125  1  0  0  0
 52126  1  0  0  0
 53 54  1  0  0  0
 54 55  2  0  0  0
 54127  1  0  0  0
 55 57  1  0  0  0
 55128  1  0  0  0
 56 69  2  0  0  0
 57 58  2  0  0  0
 57129  1  0  0  0
 58130  1  0  0  0
 59 60  1  0  0  0
 59 61  1  0  0  0
 59 62  1  0  0  0
 60131  1  0  0  0
 60132  1  0  0  0
 60133  1  0  0  0
 61134  1  0  0  0
 61135  1  0  0  0
 61136  1  0  0  0
 62137  1  0  0  0
 62138  1  0  0  0
 62139  1  0  0  0
 63 65  1  0  0  0
 63140  1  0  0  0
 63141  1  0  0  0
 63142  1  0  0  0
 64143  1  0  0  0
 65144  1  0  0  0
 68 78  1  0  0  0
 71 72  2  0  0  0
 71 73  1  0  0  0
 71145  1  0  0  0
 72 74  1  0  0  0
 72146  1  0  0  0
 73 77  1  0  0  0
 73 82  2  0  0  0
 74 78  1  0  0  0
 74 83  2  0  0  0
 75 84  1  0  0  0
 75147  1  0  0  0
 75148  1  0  0  0
 75149  1  0  0  0
 76150  1  0  0  0
 76151  1  0  0  0
 76152  1  0  0  0
 76 85  1  0  0  0
 77 85  1  0  0  0
 77153  1  0  0  0
 77154  1  0  0  0
 78155  1  0  0  0
 78156  1  0  0  0
 79 80  1  0  0  0
 79 81  1  0  0  0
 79157  1  0  0  0
 79158  1  0  0  0
 80 84  1  0  0  0
 80159  1  0  0  0
 80160  1  0  0  0
 81 85  1  0  0  0
 81161  1  0  0  0
 81162  1  0  0  0
 82 83  1  0  0  0
 85163  1  0  0  0
M  CHG  1  85   1
M  ISO  4   1 100  68 101  78 101  84 100
M  END
> <chiral flag>
0

> <version>
0

> <s_m_source_file>
/data/baiqing/PycharmProjects/Reinvent-master-3.2/result/LINK_invent/BTK/process_docking_weight1_custom_sum_contain_oxygen_bond_distance_aromatic_linkinvent_7_9_3/rearranged_h_0051.sdf

> <i_m_source_file_index>
63

> <r_mmod_Potential_Energy-OPLS-2005>
41.6905937194824

> <r_mmod_Stretch_Energy-OPLS-2005>
49.1736679077148

> <r_mmod_Bend_Energy-OPLS-2005>
129.041748046875

> <r_mmod_Torsional_Energy-OPLS-2005>
279.398803710938

> <r_mmod_Improper_Torsional_Energy-OPLS-2005>
7.17238855361938

> <r_mmod_Van_der_Waal_Energy-OPLS-2005>
178.404159545898

> <r_mmod_Electrostatic_Energy-OPLS-2005>
-149.712799072266

> <r_mmod_Solvation_Energy-OPLS-2005>
-474.459075927734

> <b_mmod_Minimization_Converged-OPLS-2005>
0

> <r_mmod_RMS_Derivative-OPLS-2005>
4.79914999008179

$$$$
64
                    3D
 Structure written by MMmdl.
165173  0  0  1  0            999 V2000
  -30.7409  -14.4364   20.5291 C   0  0  0  0  0  0
  -30.4262  -12.2848   19.4002 C   0  0  0  0  0  0
  -29.4940  -12.4676   18.1846 C   0  0  0  0  0  0
  -28.0063  -12.3659   18.5908 C   0  0  0  0  0  0
  -27.6636  -13.1987   19.8569 C   0  0  2  0  0  0
  -28.7099  -12.9788   20.9658 C   0  0  0  0  0  0
  -25.2666  -13.8205   20.5675 C   0  0  0  0  0  0
  -24.1887  -13.0500   20.9130 C   0  0  0  0  0  0
  -24.6424  -11.6950   20.8684 C   0  0  0  0  0  0
  -23.9082  -10.4348   21.0352 C   0  0  0  0  0  0
  -24.3674   -9.4271   21.9123 C   0  0  0  0  0  0
  -23.6360   -8.2307   22.0730 C   0  0  0  0  0  0
  -22.4322   -8.0344   21.3545 C   0  0  0  0  0  0
  -21.9934   -9.0311   20.4628 C   0  0  0  0  0  0
  -22.7256  -10.2190   20.3008 C   0  0  0  0  0  0
  -21.6894   -6.0805   22.5287 C   0  0  0  0  0  0
  -21.4053   -6.5690   23.8233 C   0  0  0  0  0  0
  -21.3647   -5.6819   24.9173 C   0  0  0  0  0  0
  -21.6041   -4.3085   24.7209 C   0  0  0  0  0  0
  -21.8848   -3.8202   23.4320 C   0  0  0  0  0  0
  -21.9224   -4.7035   22.3393 C   0  0  0  0  0  0
  -22.7903  -13.5291   21.1803 C   0  0  0  0  0  0
  -22.1675   -4.2255   21.0949 F   0  0  0  0  0  0
  -21.5588   -3.4545   25.7701 F   0  0  0  0  0  0
  -30.0350  -13.2828   20.4027 N   0  0  0  0  0  0
  -26.3059  -12.9321   20.3296 N   0  0  0  0  0  0
  -25.9344  -11.6484   20.5720 N   0  0  0  0  0  0
  -22.0573  -12.8271   22.0384 N   0  0  0  0  0  0
  -25.4480  -15.1918   20.4148 N   0  0  0  0  0  0
  -31.9216  -14.5329   20.1747 O   0  0  0  0  0  0
  -21.6676   -6.8954   21.4256 O   0  0  0  0  0  0
  -22.3556  -14.5583   20.6671 O   0  0  0  0  0  0
  -24.6121  -31.8708   23.2102 C   0  0  0  0  0  0
  -25.9025  -32.4829   23.8409 C   0  0  1  0  0  0
  -27.2314  -27.4701   20.1237 C   0  0  0  0  0  0
  -25.5907  -33.8621   24.2386 N   0  0  0  0  0  0
  -23.3976  -30.4909   21.5519 C   0  0  2  0  0  0
  -24.8465  -28.9662   20.1142 C   0  0  0  0  0  0
  -22.7441  -29.4615   22.5014 C   0  0  0  0  0  0
  -18.0276  -28.1341   22.8484 C   0  0  0  0  0  0
  -24.1467  -36.7282   23.2609 C   0  0  0  0  0  0
  -25.9185  -30.8544   21.3535 C   0  0  0  0  0  0
  -25.9988  -29.4829   20.7239 C   0  0  0  0  0  0
  -27.1942  -28.7389   20.7332 C   0  0  0  0  0  0
  -26.0741  -26.9592   19.4982 C   0  0  0  0  0  0
  -24.8803  -27.7043   19.4936 C   0  0  0  0  0  0
  -23.6013  -29.8198   20.1661 C   0  0  0  0  0  0
  -25.4076  -36.3111   24.0347 C   0  0  1  0  0  0
  -20.5859  -28.3629   23.1347 C   0  0  2  0  0  0
  -20.6753  -26.9348   22.5473 C   0  0  0  0  0  0
  -19.5725  -26.6371   21.5246 C   0  0  0  0  0  0
  -18.1898  -26.7887   22.1639 C   0  0  0  0  0  0
  -19.1512  -28.8802   23.2903 C   0  0  0  0  0  0
  -18.9439  -30.1423   23.8896 C   0  0  0  0  0  0
  -17.6433  -30.6548   24.0559 C   0  0  0  0  0  0
  -25.9029  -34.9476   23.5155 C   0  0  0  0  0  0
  -16.5333  -29.9059   23.6299 C   0  0  0  0  0  0
  -16.7253  -28.6477   23.0306 C   0  0  0  0  0  0
  -26.4483  -31.6529   25.0680 C   0  0  0  0  0  0
  -25.3800  -31.3698   26.1499 C   0  0  0  0  0  0
  -27.0191  -30.2929   24.5975 C   0  0  0  0  0  0
  -27.6118  -32.4179   25.7410 C   0  0  0  0  0  0
  -27.5583  -37.1753   24.8438 C   0  0  0  0  0  0
  -21.4159  -29.2997   22.3781 N   0  0  0  0  0  0
  -26.4253  -37.3817   23.9462 N   0  0  0  0  0  0
  -24.6605  -31.0874   22.0984 N   0  0  0  0  0  0
  -23.4228  -28.8137   23.3021 O   0  0  0  0  0  0
  -28.3946  -26.7586   20.0600 O   0  0  0  0  0  0
  -26.5589  -34.8917   22.4721 O   0  0  0  0  0  0
  -23.5316  -32.1455   23.7520 O   0  0  0  0  0  0
  -29.0928  -23.5726   21.7498 C   0  0  0  0  0  0
  -29.1762  -24.6944   20.9608 C   0  0  0  0  0  0
  -29.6867  -24.2066   19.7252 C   0  0  0  0  0  0
  -29.9922  -24.9587   18.4589 C   0  0  0  0  0  0
  -29.6828  -16.1148   21.9246 C   0  0  0  0  0  0
  -31.8962  -18.4706   20.7858 C   0  0  0  0  0  0
  -28.8281  -26.1286   21.2619 C   0  0  0  0  0  0
  -29.5666  -21.0705   21.3290 C   0  0  0  0  0  0
  -30.1268  -16.4716   19.4159 C   0  0  0  0  0  0
  -30.2942  -20.2536   20.2358 C   0  0  0  0  0  0
  -29.7609  -17.9694   19.5234 C   0  0  0  0  0  0
  -29.8682  -22.9022   19.7477 N   0  0  0  0  0  0
  -29.5079  -22.4963   20.9857 N   0  0  0  0  0  0
  -30.0015  -15.5703   20.5941 N   0  0  0  0  0  0
  -30.4662  -18.8068   20.5390 N   0  3  1  0  0  0
  -31.4649  -12.3994   19.0785 H   0  0  0  0  0  0
  -30.3400  -11.2814   19.8190 H   0  0  0  0  0  0
  -29.7095  -11.7175   17.4233 H   0  0  0  0  0  0
  -29.6905  -13.4306   17.7139 H   0  0  0  0  0  0
  -27.7760  -11.3129   18.7553 H   0  0  0  0  0  0
  -27.3798  -12.6888   17.7580 H   0  0  0  0  0  0
  -27.7126  -14.2462   19.5620 H   0  0  0  0  0  0
  -28.6789  -11.9444   21.3079 H   0  0  0  0  0  0
  -28.4703  -13.5837   21.8347 H   0  0  0  0  0  0
  -25.2861   -9.5845   22.4621 H   0  0  0  0  0  0
  -24.0152   -7.4743   22.7473 H   0  0  0  0  0  0
  -21.0847   -8.8835   19.8948 H   0  0  0  0  0  0
  -22.3694  -10.9734   19.6102 H   0  0  0  0  0  0
  -21.2065   -7.6201   23.9780 H   0  0  0  0  0  0
  -21.1393   -6.0508   25.9081 H   0  0  0  0  0  0
  -22.0620   -2.7675   23.2770 H   0  0  0  0  0  0
  -22.4161  -11.9878   22.4696 H   0  0  0  0  0  0
  -21.1218  -13.1305   22.2646 H   0  0  0  0  0  0
  -24.6998  -15.8659   20.5334 H   0  0  0  0  0  0
  -26.3329  -15.6247   20.1805 H   0  0  0  0  0  0
  -26.7093  -32.5605   23.1187 H   0  0  0  0  0  0
  -25.0175  -33.9799   25.0602 H   0  0  0  0  0  0
  -22.6795  -31.3013   21.4181 H   0  0  0  0  0  0
  -23.3754  -35.9578   23.3221 H   0  0  0  0  0  0
  -24.3595  -36.8956   22.2035 H   0  0  0  0  0  0
  -23.7152  -37.6446   23.6645 H   0  0  0  0  0  0
  -26.0158  -31.6085   20.5703 H   0  0  0  0  0  0
  -26.8142  -30.9258   21.9582 H   0  0  0  0  0  0
  -28.0917  -29.1407   21.1858 H   0  0  0  0  0  0
  -26.1032  -25.9944   19.0105 H   0  0  0  0  0  0
  -23.9979  -27.3128   19.0050 H   0  0  0  0  0  0
  -23.6820  -30.5841   19.3926 H   0  0  0  0  0  0
  -22.7317  -29.2179   19.8961 H   0  0  0  0  0  0
  -25.1191  -36.2013   25.0827 H   0  0  0  0  0  0
  -20.9932  -28.3207   24.1471 H   0  0  0  0  0  0
  -20.5669  -26.2201   23.3660 H   0  0  0  0  0  0
  -21.6631  -26.7403   22.1256 H   0  0  0  0  0  0
  -19.6877  -25.6319   21.1203 H   0  0  0  0  0  0
  -19.6639  -27.3241   20.6823 H   0  0  0  0  0  0
  -17.4189  -26.6653   21.4020 H   0  0  0  0  0  0
  -18.0214  -26.0053   22.9035 H   0  0  0  0  0  0
  -19.7913  -30.7242   24.2239 H   0  0  0  0  0  0
  -17.4988  -31.6221   24.5192 H   0  0  0  0  0  0
  -15.5308  -30.2949   23.7629 H   0  0  0  0  0  0
  -15.8657  -28.0830   22.6963 H   0  0  0  0  0  0
  -24.5860  -30.7149   25.7892 H   0  0  0  0  0  0
  -24.9151  -32.2901   26.5035 H   0  0  0  0  0  0
  -25.8199  -30.8795   27.0196 H   0  0  0  0  0  0
  -26.2672  -29.6777   24.1019 H   0  0  0  0  0  0
  -27.3918  -29.7063   25.4385 H   0  0  0  0  0  0
  -27.8543  -30.4140   23.9071 H   0  0  0  0  0  0
  -27.2795  -33.3477   26.2025 H   0  0  0  0  0  0
  -28.3908  -32.6722   25.0203 H   0  0  0  0  0  0
  -28.0786  -31.8264   26.5307 H   0  0  0  0  0  0
  -28.2533  -38.0120   24.7636 H   0  0  0  0  0  0
  -28.1148  -36.2680   24.6032 H   0  0  0  0  0  0
  -27.2354  -37.1158   25.8849 H   0  0  0  0  0  0
  -20.9325  -29.8713   21.7005 H   0  0  0  0  0  0
  -26.0136  -38.2861   24.1624 H   0  0  0  0  0  0
  -28.7562  -23.4536   22.7708 H   0  0  0  0  0  0
  -30.4741  -25.9154   18.6666 H   0  0  0  0  0  0
  -29.0755  -25.1595   17.9054 H   0  0  0  0  0  0
  -30.6577  -24.3961   17.8039 H   0  0  0  0  0  0
  -29.0698  -15.4353   22.5091 H   0  0  0  0  0  0
  -29.1240  -17.0482   21.9098 H   0  0  0  0  0  0
  -30.5972  -16.2702   22.5010 H   0  0  0  0  0  0
  -32.2492  -19.0010   21.6721 H   0  0  0  0  0  0
  -32.5305  -18.7634   19.9464 H   0  0  0  0  0  0
  -32.0712  -17.4123   20.9757 H   0  0  0  0  0  0
  -29.7132  -26.6610   21.6140 H   0  0  0  0  0  0
  -28.0873  -26.1974   22.0623 H   0  0  0  0  0  0
  -30.0515  -20.9610   22.2997 H   0  0  0  0  0  0
  -28.5450  -20.7029   21.4363 H   0  0  0  0  0  0
  -31.1270  -16.4335   18.9754 H   0  0  0  0  0  0
  -29.4882  -16.0449   18.6407 H   0  0  0  0  0  0
  -31.2641  -20.7061   20.0237 H   0  0  0  0  0  0
  -29.7203  -20.3701   19.3141 H   0  0  0  0  0  0
  -28.6861  -18.0765   19.6754 H   0  0  0  0  0  0
  -29.9575  -18.3828   18.5316 H   0  0  0  0  0  0
  -29.9843  -18.6316   21.4080 H   0  0  0  0  0  0
  1 25  1  0  0  0
  1 30  2  0  0  0
  1 84  1  0  0  0
  2  3  1  0  0  0
  2 25  1  0  0  0
  2 86  1  0  0  0
  2 87  1  0  0  0
  3  4  1  0  0  0
  3 88  1  0  0  0
  3 89  1  0  0  0
  4  5  1  0  0  0
  4 90  1  0  0  0
  4 91  1  0  0  0
  5  6  1  0  0  0
  5 26  1  0  0  0
  5 92  1  0  0  0
  6 25  1  0  0  0
  6 93  1  0  0  0
  6 94  1  0  0  0
  7  8  2  0  0  0
  7 26  1  0  0  0
  7 29  1  0  0  0
  8  9  1  0  0  0
  8 22  1  0  0  0
  9 10  1  0  0  0
  9 27  2  0  0  0
 10 11  2  0  0  0
 10 15  1  0  0  0
 11 12  1  0  0  0
 11 95  1  0  0  0
 12 13  2  0  0  0
 12 96  1  0  0  0
 13 14  1  0  0  0
 13 31  1  0  0  0
 14 15  2  0  0  0
 14 97  1  0  0  0
 15 98  1  0  0  0
 16 17  2  0  0  0
 16 21  1  0  0  0
 16 31  1  0  0  0
 17 18  1  0  0  0
 17 99  1  0  0  0
 18 19  2  0  0  0
 18100  1  0  0  0
 19 20  1  0  0  0
 19 24  1  0  0  0
 20 21  2  0  0  0
 20101  1  0  0  0
 21 23  1  0  0  0
 22 28  1  0  0  0
 22 32  2  0  0  0
 26 27  1  0  0  0
 28102  1  0  0  0
 28103  1  0  0  0
 29104  1  0  0  0
 29105  1  0  0  0
 33 34  1  0  0  0
 33 66  1  0  0  0
 33 70  2  0  0  0
 34 36  1  0  0  0
 34 59  1  0  0  0
 34106  1  0  0  0
 35 44  2  0  0  0
 35 45  1  0  0  0
 35 68  1  0  0  0
 36 56  1  0  0  0
 36107  1  0  0  0
 37 39  1  0  0  0
 37 47  1  0  0  0
 37 66  1  0  0  0
 37108  1  0  0  0
 38 43  2  0  0  0
 38 46  1  0  0  0
 38 47  1  0  0  0
 39 64  1  0  0  0
 39 67  2  0  0  0
 40 52  1  0  0  0
 40 53  2  0  0  0
 40 58  1  0  0  0
 41109  1  0  0  0
 41110  1  0  0  0
 41111  1  0  0  0
 41 48  1  0  0  0
 42 43  1  0  0  0
 42 66  1  0  0  0
 42112  1  0  0  0
 42113  1  0  0  0
 43 44  1  0  0  0
 44114  1  0  0  0
 45 46  2  0  0  0
 45115  1  0  0  0
 46116  1  0  0  0
 47117  1  0  0  0
 47118  1  0  0  0
 48 56  1  0  0  0
 48 65  1  0  0  0
 48119  1  0  0  0
 49 50  1  0  0  0
 49 53  1  0  0  0
 49 64  1  0  0  0
 49120  1  0  0  0
 50 51  1  0  0  0
 50121  1  0  0  0
 50122  1  0  0  0
 51 52  1  0  0  0
 51123  1  0  0  0
 51124  1  0  0  0
 52125  1  0  0  0
 52126  1  0  0  0
 53 54  1  0  0  0
 54 55  2  0  0  0
 54127  1  0  0  0
 55 57  1  0  0  0
 55128  1  0  0  0
 56 69  2  0  0  0
 57 58  2  0  0  0
 57129  1  0  0  0
 58130  1  0  0  0
 59 60  1  0  0  0
 59 61  1  0  0  0
 59 62  1  0  0  0
 60131  1  0  0  0
 60132  1  0  0  0
 60133  1  0  0  0
 61134  1  0  0  0
 61135  1  0  0  0
 61136  1  0  0  0
 62137  1  0  0  0
 62138  1  0  0  0
 62139  1  0  0  0
 63 65  1  0  0  0
 63140  1  0  0  0
 63141  1  0  0  0
 63142  1  0  0  0
 64143  1  0  0  0
 65144  1  0  0  0
 68 77  1  0  0  0
 71 72  2  0  0  0
 71 83  1  0  0  0
 71145  1  0  0  0
 72 73  1  0  0  0
 72 77  1  0  0  0
 73 74  1  0  0  0
 73 82  2  0  0  0
 74146  1  0  0  0
 74147  1  0  0  0
 74148  1  0  0  0
 75 84  1  0  0  0
 75149  1  0  0  0
 75150  1  0  0  0
 75151  1  0  0  0
 76152  1  0  0  0
 76153  1  0  0  0
 76154  1  0  0  0
 76 85  1  0  0  0
 77155  1  0  0  0
 77156  1  0  0  0
 78 80  1  0  0  0
 78 83  1  0  0  0
 78157  1  0  0  0
 78158  1  0  0  0
 79 81  1  0  0  0
 79 84  1  0  0  0
 79159  1  0  0  0
 79160  1  0  0  0
 80 85  1  0  0  0
 80161  1  0  0  0
 80162  1  0  0  0
 81 85  1  0  0  0
 81163  1  0  0  0
 81164  1  0  0  0
 82 83  1  0  0  0
 85165  1  0  0  0
M  CHG  1  85   1
M  ISO  4   1 100  68 101  77 101  84 100
M  END
> <chiral flag>
0

> <version>
0

> <s_m_source_file>
/data/baiqing/PycharmProjects/Reinvent-master-3.2/result/LINK_invent/BTK/process_docking_weight1_custom_sum_contain_oxygen_bond_distance_aromatic_linkinvent_7_9_3/rearranged_h_0051.sdf

> <i_m_source_file_index>
64

> <r_mmod_Potential_Energy-OPLS-2005>
36.3564872741699

> <r_mmod_Stretch_Energy-OPLS-2005>
36.0922889709473

> <r_mmod_Bend_Energy-OPLS-2005>
121.189682006836

> <r_mmod_Torsional_Energy-OPLS-2005>
382.589630126953

> <r_mmod_Improper_Torsional_Energy-OPLS-2005>
15.9093322753906

> <r_mmod_Van_der_Waal_Energy-OPLS-2005>
146.349792480469

> <r_mmod_Electrostatic_Energy-OPLS-2005>
-255.612762451172

> <r_mmod_Solvation_Energy-OPLS-2005>
-425.94970703125

> <b_mmod_Minimization_Converged-OPLS-2005>
0

> <r_mmod_RMS_Derivative-OPLS-2005>
6.2972526550293

$$$$
65
                    3D
 Structure written by MMmdl.
158166  0  0  1  0            999 V2000
  -30.6878  -14.5607   20.4749 C   0  0  0  0  0  0
  -30.4250  -12.3346   19.4426 C   0  0  0  0  0  0
  -29.4998  -12.4670   18.2152 C   0  0  0  0  0  0
  -28.0222  -12.3307   18.6334 C   0  0  0  0  0  0
  -27.6523  -13.2120   19.8578 C   0  0  2  0  0  0
  -28.7014  -13.0906   20.9854 C   0  0  0  0  0  0
  -25.2570  -13.8183   20.5683 C   0  0  0  0  0  0
  -24.1828  -13.0458   20.9187 C   0  0  0  0  0  0
  -24.6395  -11.6920   20.8770 C   0  0  0  0  0  0
  -23.9067  -10.4300   21.0435 C   0  0  0  0  0  0
  -24.3625   -9.4207   21.9205 C   0  0  0  0  0  0
  -23.6289   -8.2249   22.0771 C   0  0  0  0  0  0
  -22.4279   -8.0297   21.3546 C   0  0  0  0  0  0
  -21.9919   -9.0278   20.4656 C   0  0  0  0  0  0
  -22.7250  -10.2148   20.3069 C   0  0  0  0  0  0
  -21.6846   -6.0746   22.5269 C   0  0  0  0  0  0
  -21.4015   -6.5641   23.8207 C   0  0  0  0  0  0
  -21.3654   -5.6789   24.9167 C   0  0  0  0  0  0
  -21.6042   -4.3052   24.7208 C   0  0  0  0  0  0
  -21.8825   -3.8152   23.4325 C   0  0  0  0  0  0
  -21.9185   -4.6975   22.3384 C   0  0  0  0  0  0
  -22.7839  -13.5248   21.1836 C   0  0  0  0  0  0
  -22.1652   -4.2167   21.0957 F   0  0  0  0  0  0
  -21.5641   -3.4526   25.7711 F   0  0  0  0  0  0
  -30.0204  -13.3734   20.4042 N   0  0  0  0  0  0
  -26.2992  -12.9347   20.3339 N   0  0  0  0  0  0
  -25.9315  -11.6505   20.5803 N   0  0  0  0  0  0
  -22.0461  -12.8253   22.0385 N   0  0  0  0  0  0
  -25.4309  -15.1906   20.4085 N   0  0  0  0  0  0
  -31.8880  -14.6503   20.1995 O   0  0  0  0  0  0
  -21.6633   -6.8905   21.4242 O   0  0  0  0  0  0
  -22.3523  -14.5546   20.6672 O   0  0  0  0  0  0
  -24.6158  -31.8656   23.2102 C   0  0  0  0  0  0
  -25.9038  -32.4804   23.8411 C   0  0  1  0  0  0
  -27.2269  -27.4161   20.0978 C   0  0  0  0  0  0
  -25.5885  -33.8609   24.2345 N   0  0  0  0  0  0
  -23.4063  -30.4895   21.5495 C   0  0  2  0  0  0
  -24.8557  -28.9645   20.1037 C   0  0  0  0  0  0
  -22.7435  -29.4628   22.4972 C   0  0  0  0  0  0
  -18.0280  -28.1379   22.8475 C   0  0  0  0  0  0
  -24.1491  -36.7332   23.2639 C   0  0  0  0  0  0
  -25.9374  -30.8272   21.3664 C   0  0  0  0  0  0
  -26.0175  -29.4629   20.7084 C   0  0  0  0  0  0
  -27.2116  -28.6975   20.7036 C   0  0  0  0  0  0
  -26.0541  -26.9455   19.4734 C   0  0  0  0  0  0
  -24.8717  -27.7079   19.4769 C   0  0  0  0  0  0
  -23.6155  -29.8302   20.1618 C   0  0  0  0  0  0
  -25.4103  -36.3109   24.0343 C   0  0  1  0  0  0
  -20.5866  -28.3666   23.1301 C   0  0  2  0  0  0
  -20.6772  -26.9403   22.5407 C   0  0  0  0  0  0
  -19.5756  -26.6392   21.5200 C   0  0  0  0  0  0
  -18.1935  -26.7920   22.1611 C   0  0  0  0  0  0
  -19.1527  -28.8842   23.2879 C   0  0  0  0  0  0
  -18.9457  -30.1451   23.8885 C   0  0  0  0  0  0
  -17.6455  -30.6578   24.0560 C   0  0  0  0  0  0
  -25.9029  -34.9466   23.5150 C   0  0  0  0  0  0
  -16.5347  -29.9079   23.6323 C   0  0  0  0  0  0
  -16.7267  -28.6507   23.0322 C   0  0  0  0  0  0
  -26.4462  -31.6578   25.0737 C   0  0  0  0  0  0
  -25.3716  -31.3665   26.1469 C   0  0  0  0  0  0
  -27.0334  -30.3041   24.6123 C   0  0  0  0  0  0
  -27.6057  -32.4293   25.7472 C   0  0  0  0  0  0
  -27.5587  -37.1808   24.8460 C   0  0  0  0  0  0
  -21.4160  -29.3021   22.3704 N   0  0  0  0  0  0
  -26.4292  -37.3788   23.9414 N   0  0  0  0  0  0
  -24.6712  -31.0748   22.1006 N   0  0  0  0  0  0
  -23.4199  -28.8171   23.3016 O   0  0  0  0  0  0
  -28.3218  -26.5741   20.1496 O   0  0  0  0  0  0
  -26.5599  -34.8914   22.4720 O   0  0  0  0  0  0
  -23.5343  -32.1409   23.7475 O   0  0  0  0  0  0
  -30.0199  -23.9036   21.7837 C   0  0  0  0  0  0
  -28.8460  -24.2377   21.0862 C   0  0  0  0  0  0
  -28.2172  -23.1539   20.4331 C   0  0  0  0  0  0
  -29.7808  -21.6853   21.2582 C   0  0  0  0  0  0
  -26.9568  -23.3246   19.6100 C   0  0  0  0  0  0
  -29.7961  -16.2306   18.9477 C   0  0  0  0  0  0
  -28.2139  -25.6395   21.2476 C   0  0  0  0  0  0
  -30.2393  -17.9532   21.4980 C   0  0  0  0  0  0
  -29.4605  -16.5930   21.3725 C   0  0  0  0  0  0
  -29.5029  -19.2665   21.0585 C   0  0  0  0  0  0
  -30.4827  -22.6359   21.8616 N   0  0  0  0  0  0
  -28.6853  -21.8840   20.5310 N   0  0  0  0  0  0
  -29.9049  -15.6664   20.3014 N   0  0  0  0  0  0
  -30.2654  -20.4258   21.4514 O   0  0  0  0  0  0
  -31.4700  -12.4297   19.1422 H   0  0  0  0  0  0
  -30.3272  -11.3452   19.8927 H   0  0  0  0  0  0
  -29.7461  -11.7027   17.4754 H   0  0  0  0  0  0
  -29.6602  -13.4278   17.7234 H   0  0  0  0  0  0
  -27.8501  -11.2808   18.8714 H   0  0  0  0  0  0
  -27.3676  -12.5619   17.7914 H   0  0  0  0  0  0
  -27.6597  -14.2417   19.5049 H   0  0  0  0  0  0
  -28.6922  -12.0925   21.4232 H   0  0  0  0  0  0
  -28.4765  -13.7884   21.7937 H   0  0  0  0  0  0
  -25.2774   -9.5672   22.4769 H   0  0  0  0  0  0
  -23.9985   -7.4645   22.7491 H   0  0  0  0  0  0
  -21.0850   -8.8812   19.8960 H   0  0  0  0  0  0
  -22.3732  -10.9695   19.6176 H   0  0  0  0  0  0
  -21.2016   -7.6148   23.9721 H   0  0  0  0  0  0
  -21.1474   -6.0508   25.9069 H   0  0  0  0  0  0
  -22.0614   -2.7614   23.2808 H   0  0  0  0  0  0
  -22.4050  -11.9912   22.4792 H   0  0  0  0  0  0
  -21.1097  -13.1336   22.2609 H   0  0  0  0  0  0
  -24.6735  -15.8551   20.5268 H   0  0  0  0  0  0
  -26.2976  -15.6261   20.1203 H   0  0  0  0  0  0
  -26.7119  -32.5520   23.1190 H   0  0  0  0  0  0
  -24.9993  -33.9791   25.0450 H   0  0  0  0  0  0
  -22.6918  -31.3038   21.4133 H   0  0  0  0  0  0
  -23.3742  -35.9674   23.3265 H   0  0  0  0  0  0
  -24.3589  -36.8985   22.2062 H   0  0  0  0  0  0
  -23.7262  -37.6534   23.6676 H   0  0  0  0  0  0
  -26.0489  -31.5955   20.6002 H   0  0  0  0  0  0
  -26.8246  -30.8811   21.9856 H   0  0  0  0  0  0
  -28.1051  -29.0732   21.1828 H   0  0  0  0  0  0
  -26.0458  -25.9760   18.9993 H   0  0  0  0  0  0
  -23.9828  -27.3238   18.9955 H   0  0  0  0  0  0
  -23.7156  -30.6086   19.4044 H   0  0  0  0  0  0
  -22.7397  -29.2494   19.8693 H   0  0  0  0  0  0
  -25.1270  -36.1979   25.0836 H   0  0  0  0  0  0
  -20.9943  -28.3248   24.1430 H   0  0  0  0  0  0
  -20.5687  -26.2280   23.3594 H   0  0  0  0  0  0
  -21.6643  -26.7453   22.1192 H   0  0  0  0  0  0
  -19.6922  -25.6307   21.1229 H   0  0  0  0  0  0
  -19.6702  -27.3192   20.6719 H   0  0  0  0  0  0
  -17.4198  -26.6644   21.4023 H   0  0  0  0  0  0
  -18.0337  -26.0065   22.9019 H   0  0  0  0  0  0
  -19.7932  -30.7267   24.2253 H   0  0  0  0  0  0
  -17.5016  -31.6257   24.5178 H   0  0  0  0  0  0
  -15.5351  -30.2984   23.7668 H   0  0  0  0  0  0
  -15.8662  -28.0855   22.7010 H   0  0  0  0  0  0
  -24.5906  -30.6999   25.7786 H   0  0  0  0  0  0
  -24.8869  -32.2802   26.4924 H   0  0  0  0  0  0
  -25.8054  -30.8824   27.0230 H   0  0  0  0  0  0
  -26.2914  -29.6752   24.1197 H   0  0  0  0  0  0
  -27.4145  -29.7319   25.4594 H   0  0  0  0  0  0
  -27.8704  -30.4382   23.9265 H   0  0  0  0  0  0
  -27.2721  -33.3604   26.2063 H   0  0  0  0  0  0
  -28.3832  -32.6835   25.0253 H   0  0  0  0  0  0
  -28.0752  -31.8395   26.5356 H   0  0  0  0  0  0
  -28.2574  -38.0132   24.7534 H   0  0  0  0  0  0
  -28.1121  -36.2668   24.6246 H   0  0  0  0  0  0
  -27.2313  -37.1399   25.8863 H   0  0  0  0  0  0
  -20.9325  -29.8767   21.6941 H   0  0  0  0  0  0
  -26.0181  -38.2873   24.1411 H   0  0  0  0  0  0
  -30.5687  -24.6488   22.3426 H   0  0  0  0  0  0
  -27.1530  -23.9801   18.7614 H   0  0  0  0  0  0
  -26.1539  -23.7509   20.2110 H   0  0  0  0  0  0
  -26.6082  -22.3697   19.2163 H   0  0  0  0  0  0
  -28.8528  -15.9329   18.4931 H   0  0  0  0  0  0
  -30.5936  -15.8877   18.2859 H   0  0  0  0  0  0
  -29.8315  -17.3174   18.9385 H   0  0  0  0  0  0
  -28.6628  -26.1171   22.1192 H   0  0  0  0  0  0
  -27.1711  -25.4798   21.5282 H   0  0  0  0  0  0
  -31.2068  -17.8853   20.9998 H   0  0  0  0  0  0
  -30.4777  -18.0792   22.5545 H   0  0  0  0  0  0
  -28.3930  -16.7817   21.2532 H   0  0  0  0  0  0
  -29.5473  -16.0644   22.3229 H   0  0  0  0  0  0
  -28.5189  -19.3123   21.5280 H   0  0  0  0  0  0
  -29.3469  -19.2816   19.9803 H   0  0  0  0  0  0
  1 25  1  0  0  0
  1 30  2  0  0  0
  1 83  1  0  0  0
  2  3  1  0  0  0
  2 25  1  0  0  0
  2 85  1  0  0  0
  2 86  1  0  0  0
  3  4  1  0  0  0
  3 87  1  0  0  0
  3 88  1  0  0  0
  4  5  1  0  0  0
  4 89  1  0  0  0
  4 90  1  0  0  0
  5  6  1  0  0  0
  5 26  1  0  0  0
  5 91  1  0  0  0
  6 25  1  0  0  0
  6 92  1  0  0  0
  6 93  1  0  0  0
  7  8  2  0  0  0
  7 26  1  0  0  0
  7 29  1  0  0  0
  8  9  1  0  0  0
  8 22  1  0  0  0
  9 10  1  0  0  0
  9 27  2  0  0  0
 10 11  2  0  0  0
 10 15  1  0  0  0
 11 12  1  0  0  0
 11 94  1  0  0  0
 12 13  2  0  0  0
 12 95  1  0  0  0
 13 14  1  0  0  0
 13 31  1  0  0  0
 14 15  2  0  0  0
 14 96  1  0  0  0
 15 97  1  0  0  0
 16 17  2  0  0  0
 16 21  1  0  0  0
 16 31  1  0  0  0
 17 18  1  0  0  0
 17 98  1  0  0  0
 18 19  2  0  0  0
 18 99  1  0  0  0
 19 20  1  0  0  0
 19 24  1  0  0  0
 20 21  2  0  0  0
 20100  1  0  0  0
 21 23  1  0  0  0
 22 28  1  0  0  0
 22 32  2  0  0  0
 26 27  1  0  0  0
 28101  1  0  0  0
 28102  1  0  0  0
 29103  1  0  0  0
 29104  1  0  0  0
 33 34  1  0  0  0
 33 66  1  0  0  0
 33 70  2  0  0  0
 34 36  1  0  0  0
 34 59  1  0  0  0
 34105  1  0  0  0
 35 44  2  0  0  0
 35 45  1  0  0  0
 35 68  1  0  0  0
 36 56  1  0  0  0
 36106  1  0  0  0
 37 39  1  0  0  0
 37 47  1  0  0  0
 37 66  1  0  0  0
 37107  1  0  0  0
 38 43  2  0  0  0
 38 46  1  0  0  0
 38 47  1  0  0  0
 39 64  1  0  0  0
 39 67  2  0  0  0
 40 52  1  0  0  0
 40 53  2  0  0  0
 40 58  1  0  0  0
 41108  1  0  0  0
 41109  1  0  0  0
 41110  1  0  0  0
 41 48  1  0  0  0
 42 43  1  0  0  0
 42 66  1  0  0  0
 42111  1  0  0  0
 42112  1  0  0  0
 43 44  1  0  0  0
 44113  1  0  0  0
 45 46  2  0  0  0
 45114  1  0  0  0
 46115  1  0  0  0
 47116  1  0  0  0
 47117  1  0  0  0
 48 56  1  0  0  0
 48 65  1  0  0  0
 48118  1  0  0  0
 49 50  1  0  0  0
 49 53  1  0  0  0
 49 64  1  0  0  0
 49119  1  0  0  0
 50 51  1  0  0  0
 50120  1  0  0  0
 50121  1  0  0  0
 51 52  1  0  0  0
 51122  1  0  0  0
 51123  1  0  0  0
 52124  1  0  0  0
 52125  1  0  0  0
 53 54  1  0  0  0
 54 55  2  0  0  0
 54126  1  0  0  0
 55 57  1  0  0  0
 55127  1  0  0  0
 56 69  2  0  0  0
 57 58  2  0  0  0
 57128  1  0  0  0
 58129  1  0  0  0
 59 60  1  0  0  0
 59 61  1  0  0  0
 59 62  1  0  0  0
 60130  1  0  0  0
 60131  1  0  0  0
 60132  1  0  0  0
 61133  1  0  0  0
 61134  1  0  0  0
 61135  1  0  0  0
 62136  1  0  0  0
 62137  1  0  0  0
 62138  1  0  0  0
 63 65  1  0  0  0
 63139  1  0  0  0
 63140  1  0  0  0
 63141  1  0  0  0
 64142  1  0  0  0
 65143  1  0  0  0
 68 77  1  0  0  0
 71 72  2  0  0  0
 71 81  1  0  0  0
 71144  1  0  0  0
 72 73  1  0  0  0
 72 77  1  0  0  0
 73 75  1  0  0  0
 73 82  2  0  0  0
 74 81  2  0  0  0
 74 82  1  0  0  0
 74 84  1  0  0  0
 75145  1  0  0  0
 75146  1  0  0  0
 75147  1  0  0  0
 76 83  1  0  0  0
 76148  1  0  0  0
 76149  1  0  0  0
 76150  1  0  0  0
 77151  1  0  0  0
 77152  1  0  0  0
 78 79  1  0  0  0
 78 80  1  0  0  0
 78153  1  0  0  0
 78154  1  0  0  0
 79 83  1  0  0  0
 79155  1  0  0  0
 79156  1  0  0  0
 80 84  1  0  0  0
 80157  1  0  0  0
 80158  1  0  0  0
M  ISO  4   1 100  68 101  77 101  83 100
M  END
> <chiral flag>
0

> <version>
0

> <s_m_source_file>
/data/baiqing/PycharmProjects/Reinvent-master-3.2/result/LINK_invent/BTK/process_docking_weight1_custom_sum_contain_oxygen_bond_distance_aromatic_linkinvent_7_9_3/rearranged_h_0051.sdf

> <i_m_source_file_index>
65

> <r_mmod_Potential_Energy-OPLS-2005>
-199.466903686523

> <r_mmod_Stretch_Energy-OPLS-2005>
46.3503227233887

> <r_mmod_Bend_Energy-OPLS-2005>
117.175880432129

> <r_mmod_Torsional_Energy-OPLS-2005>
357.538696289062

> <r_mmod_Improper_Torsional_Energy-OPLS-2005>
20.1472225189209

> <r_mmod_Van_der_Waal_Energy-OPLS-2005>
151.519683837891

> <r_mmod_Electrostatic_Energy-OPLS-2005>
-707.850402832031

> <r_mmod_Solvation_Energy-OPLS-2005>
-216.184463500977

> <b_mmod_Minimization_Converged-OPLS-2005>
0

> <r_mmod_RMS_Derivative-OPLS-2005>
2.10985088348389

$$$$
66
                    3D
 Structure written by MMmdl.
165173  0  0  1  0            999 V2000
  -30.7358  -14.6398   20.4364 C   0  0  0  0  0  0
  -30.4124  -12.3831   19.4698 C   0  0  0  0  0  0
  -29.4945  -12.4408   18.2326 C   0  0  0  0  0  0
  -28.0327  -12.2230   18.6696 C   0  0  0  0  0  0
  -27.6149  -13.1656   19.8257 C   0  0  2  0  0  0
  -28.6763  -13.2053   20.9581 C   0  0  0  0  0  0
  -25.2514  -13.8041   20.5794 C   0  0  0  0  0  0
  -24.1751  -13.0373   20.9305 C   0  0  0  0  0  0
  -24.6259  -11.6827   20.8839 C   0  0  0  0  0  0
  -23.8941  -10.4246   21.0494 C   0  0  0  0  0  0
  -24.3556   -9.4169   21.9249 C   0  0  0  0  0  0
  -23.6251   -8.2194   22.0779 C   0  0  0  0  0  0
  -22.4237   -8.0253   21.3559 C   0  0  0  0  0  0
  -21.9861   -9.0208   20.4664 C   0  0  0  0  0  0
  -22.7153  -10.2096   20.3106 C   0  0  0  0  0  0
  -21.6805   -6.0736   22.5303 C   0  0  0  0  0  0
  -21.3966   -6.5636   23.8234 C   0  0  0  0  0  0
  -21.3681   -5.6801   24.9198 C   0  0  0  0  0  0
  -21.6042   -4.3058   24.7242 C   0  0  0  0  0  0
  -21.8799   -3.8154   23.4365 C   0  0  0  0  0  0
  -21.9171   -4.6970   22.3422 C   0  0  0  0  0  0
  -22.7805  -13.5254   21.1884 C   0  0  0  0  0  0
  -22.1646   -4.2180   21.0996 F   0  0  0  0  0  0
  -21.5664   -3.4526   25.7740 F   0  0  0  0  0  0
  -29.9981  -13.4804   20.3651 N   0  0  0  0  0  0
  -26.2808  -12.9060   20.3302 N   0  0  0  0  0  0
  -25.9132  -11.6280   20.5773 N   0  0  0  0  0  0
  -22.0410  -12.8302   22.0465 N   0  0  0  0  0  0
  -25.4266  -15.1762   20.4302 N   0  0  0  0  0  0
  -31.9503  -14.6066   20.2413 O   0  0  0  0  0  0
  -21.6572   -6.8883   21.4278 O   0  0  0  0  0  0
  -22.3533  -14.5540   20.6684 O   0  0  0  0  0  0
  -24.6145  -31.8667   23.2048 C   0  0  0  0  0  0
  -25.9059  -32.4803   23.8344 C   0  0  1  0  0  0
  -27.2486  -27.4096   20.1168 C   0  0  0  0  0  0
  -25.5916  -33.8586   24.2302 N   0  0  0  0  0  0
  -23.4051  -30.4854   21.5466 C   0  0  2  0  0  0
  -24.8552  -28.9430   20.1218 C   0  0  0  0  0  0
  -22.7394  -29.4663   22.4998 C   0  0  0  0  0  0
  -18.0257  -28.1357   22.8482 C   0  0  0  0  0  0
  -24.1512  -36.7287   23.2643 C   0  0  0  0  0  0
  -25.9362  -30.8251   21.3624 C   0  0  0  0  0  0
  -26.0178  -29.4567   20.7106 C   0  0  0  0  0  0
  -27.2181  -28.7033   20.6930 C   0  0  0  0  0  0
  -26.0691  -26.9196   19.5118 C   0  0  0  0  0  0
  -24.8787  -27.6737   19.5169 C   0  0  0  0  0  0
  -23.6138  -29.8070   20.1660 C   0  0  0  0  0  0
  -25.4126  -36.3091   24.0346 C   0  0  1  0  0  0
  -20.5844  -28.3662   23.1294 C   0  0  2  0  0  0
  -20.6738  -26.9381   22.5385 C   0  0  0  0  0  0
  -19.5699  -26.6326   21.5214 C   0  0  0  0  0  0
  -18.1886  -26.7895   22.1623 C   0  0  0  0  0  0
  -19.1509  -28.8818   23.2881 C   0  0  0  0  0  0
  -18.9414  -30.1425   23.8893 C   0  0  0  0  0  0
  -17.6420  -30.6568   24.0554 C   0  0  0  0  0  0
  -25.9033  -34.9460   23.5126 C   0  0  0  0  0  0
  -16.5319  -29.9054   23.6357 C   0  0  0  0  0  0
  -16.7250  -28.6489   23.0339 C   0  0  0  0  0  0
  -26.4474  -31.6578   25.0679 C   0  0  0  0  0  0
  -25.3744  -31.3711   26.1437 C   0  0  0  0  0  0
  -27.0324  -30.3024   24.6066 C   0  0  0  0  0  0
  -27.6037  -32.4307   25.7444 C   0  0  0  0  0  0
  -27.5581  -37.1797   24.8465 C   0  0  0  0  0  0
  -21.4115  -29.3057   22.3713 N   0  0  0  0  0  0
  -26.4294  -37.3776   23.9415 N   0  0  0  0  0  0
  -24.6701  -31.0743   22.0959 N   0  0  0  0  0  0
  -23.4146  -28.8230   23.3079 O   0  0  0  0  0  0
  -28.4140  -26.6567   20.1377 O   0  0  0  0  0  0
  -26.5605  -34.8918   22.4693 O   0  0  0  0  0  0
  -23.5361  -32.1441   23.7433 O   0  0  0  0  0  0
  -28.9372  -19.8651   22.1000 C   0  0  0  0  0  0
  -29.5617  -20.5008   21.0470 C   0  0  0  0  0  0
  -30.2607  -18.3807   21.2064 C   0  0  0  0  0  0
  -27.9272  -20.4154   23.0610 C   0  0  0  0  0  0
  -28.8920  -17.4239   18.7685 C   0  0  0  0  0  0
  -31.4192  -19.8143   19.4644 C   0  0  0  0  0  0
  -29.3241  -21.8926   20.4435 C   0  0  0  0  0  0
  -30.9635  -17.0499   20.8918 C   0  0  0  0  0  0
  -29.6616  -23.1276   21.3286 C   0  0  0  0  0  0
  -29.6505  -24.5347   20.6319 C   0  0  0  0  0  0
  -28.9679  -16.1249   19.5917 C   0  0  0  0  0  0
  -28.2782  -25.2535   20.4832 C   0  0  0  0  0  0
  -29.3664  -18.5364   22.1832 N   0  0  0  0  0  0
  -30.4721  -19.5562   20.5405 N   0  0  0  0  0  0
  -30.1129  -15.8721   20.5015 N   0  0  0  0  0  0
  -30.3089  -11.4280   19.9872 H   0  0  0  0  0  0
  -31.4615  -12.4487   19.1697 H   0  0  0  0  0  0
  -29.7896  -11.6743   17.5137 H   0  0  0  0  0  0
  -29.6049  -13.3954   17.7173 H   0  0  0  0  0  0
  -27.9455  -11.1871   19.0044 H   0  0  0  0  0  0
  -27.3574  -12.3229   17.8211 H   0  0  0  0  0  0
  -27.5068  -14.1173   19.3373 H   0  0  0  0  0  0
  -28.4094  -13.9642   21.6995 H   0  0  0  0  0  0
  -28.6997  -12.2539   21.4881 H   0  0  0  0  0  0
  -25.2730   -9.5592   22.4805 H   0  0  0  0  0  0
  -23.9957   -7.4560   22.7490 H   0  0  0  0  0  0
  -21.0798   -8.8692   19.8969 H   0  0  0  0  0  0
  -22.3654  -10.9623   19.6191 H   0  0  0  0  0  0
  -21.1908   -7.6134   23.9719 H   0  0  0  0  0  0
  -21.1542   -6.0553   25.9104 H   0  0  0  0  0  0
  -22.0552   -2.7623   23.2850 H   0  0  0  0  0  0
  -22.3962  -11.9915   22.4789 H   0  0  0  0  0  0
  -21.1060  -13.1400   22.2657 H   0  0  0  0  0  0
  -24.6591  -15.8325   20.5390 H   0  0  0  0  0  0
  -26.2828  -15.6165   20.1140 H   0  0  0  0  0  0
  -26.7136  -32.5528   23.1117 H   0  0  0  0  0  0
  -25.0128  -33.9755   25.0484 H   0  0  0  0  0  0
  -22.6947  -31.3033   21.4017 H   0  0  0  0  0  0
  -23.3765  -35.9618   23.3318 H   0  0  0  0  0  0
  -24.3603  -36.8871   22.2045 H   0  0  0  0  0  0
  -23.7260  -37.6497   23.6649 H   0  0  0  0  0  0
  -26.0556  -31.5906   20.5947 H   0  0  0  0  0  0
  -26.8201  -30.8748   21.9862 H   0  0  0  0  0  0
  -28.1147  -29.1071   21.1429 H   0  0  0  0  0  0
  -26.0584  -25.9550   19.0285 H   0  0  0  0  0  0
  -23.9900  -27.2706   19.0536 H   0  0  0  0  0  0
  -23.7108  -30.5704   19.3935 H   0  0  0  0  0  0
  -22.7407  -29.2159   19.8839 H   0  0  0  0  0  0
  -25.1309  -36.1936   25.0830 H   0  0  0  0  0  0
  -20.9931  -28.3201   24.1415 H   0  0  0  0  0  0
  -20.5683  -26.2273   23.3588 H   0  0  0  0  0  0
  -21.6596  -26.7437   22.1128 H   0  0  0  0  0  0
  -19.6867  -25.6224   21.1237 H   0  0  0  0  0  0
  -19.6617  -27.3099   20.6724 H   0  0  0  0  0  0
  -17.4125  -26.6635   21.4046 H   0  0  0  0  0  0
  -18.0289  -26.0032   22.8996 H   0  0  0  0  0  0
  -19.7889  -30.7238   24.2225 H   0  0  0  0  0  0
  -17.4979  -31.6251   24.5146 H   0  0  0  0  0  0
  -15.5312  -30.2914   23.7710 H   0  0  0  0  0  0
  -15.8644  -28.0840   22.7051 H   0  0  0  0  0  0
  -24.5902  -30.7069   25.7792 H   0  0  0  0  0  0
  -24.8934  -32.2872   26.4873 H   0  0  0  0  0  0
  -25.8084  -30.8887   27.0203 H   0  0  0  0  0  0
  -26.2891  -29.6787   24.1087 H   0  0  0  0  0  0
  -27.4087  -29.7258   25.4532 H   0  0  0  0  0  0
  -27.8723  -30.4372   23.9246 H   0  0  0  0  0  0
  -27.2655  -33.3606   26.2022 H   0  0  0  0  0  0
  -28.3826  -32.6856   25.0251 H   0  0  0  0  0  0
  -28.0740  -31.8447   26.5346 H   0  0  0  0  0  0
  -28.2609  -38.0091   24.7499 H   0  0  0  0  0  0
  -28.1089  -36.2616   24.6330 H   0  0  0  0  0  0
  -27.2298  -37.1463   25.8869 H   0  0  0  0  0  0
  -20.9304  -29.8720   21.6856 H   0  0  0  0  0  0
  -26.0196  -38.2861   24.1372 H   0  0  0  0  0  0
  -27.3599  -19.6238   23.5527 H   0  0  0  0  0  0
  -27.2169  -21.0775   22.5633 H   0  0  0  0  0  0
  -28.4160  -20.9895   23.8487 H   0  0  0  0  0  0
  -28.5113  -18.2680   19.3465 H   0  0  0  0  0  0
  -29.8502  -17.6763   18.3205 H   0  0  0  0  0  0
  -28.1758  -17.3122   17.9517 H   0  0  0  0  0  0
  -31.8106  -20.8284   19.5534 H   0  0  0  0  0  0
  -30.9301  -19.6949   18.4945 H   0  0  0  0  0  0
  -32.2752  -19.1494   19.5204 H   0  0  0  0  0  0
  -28.2755  -21.9623   20.1528 H   0  0  0  0  0  0
  -29.8612  -21.9835   19.5009 H   0  0  0  0  0  0
  -31.5355  -16.7775   21.7807 H   0  0  0  0  0  0
  -31.7040  -17.1979   20.1069 H   0  0  0  0  0  0
  -30.6742  -22.9752   21.7088 H   0  0  0  0  0  0
  -29.0117  -23.1451   22.2045 H   0  0  0  0  0  0
  -30.1369  -24.4739   19.6582 H   0  0  0  0  0  0
  -30.2886  -25.1890   21.2278 H   0  0  0  0  0  0
  -28.9957  -15.3703   18.8087 H   0  0  0  0  0  0
  -28.0508  -16.0300   20.1702 H   0  0  0  0  0  0
  -27.7363  -25.1870   21.4278 H   0  0  0  0  0  0
  -27.6891  -24.7168   19.7413 H   0  0  0  0  0  0
  1 25  1  0  0  0
  1 30  2  0  0  0
  1 85  1  0  0  0
  2  3  1  0  0  0
  2 25  1  0  0  0
  2 86  1  0  0  0
  2 87  1  0  0  0
  3  4  1  0  0  0
  3 88  1  0  0  0
  3 89  1  0  0  0
  4  5  1  0  0  0
  4 90  1  0  0  0
  4 91  1  0  0  0
  5  6  1  0  0  0
  5 26  1  0  0  0
  5 92  1  0  0  0
  6 25  1  0  0  0
  6 93  1  0  0  0
  6 94  1  0  0  0
  7  8  2  0  0  0
  7 26  1  0  0  0
  7 29  1  0  0  0
  8  9  1  0  0  0
  8 22  1  0  0  0
  9 10  1  0  0  0
  9 27  2  0  0  0
 10 11  2  0  0  0
 10 15  1  0  0  0
 11 12  1  0  0  0
 11 95  1  0  0  0
 12 13  2  0  0  0
 12 96  1  0  0  0
 13 14  1  0  0  0
 13 31  1  0  0  0
 14 15  2  0  0  0
 14 97  1  0  0  0
 15 98  1  0  0  0
 16 17  2  0  0  0
 16 21  1  0  0  0
 16 31  1  0  0  0
 17 18  1  0  0  0
 17 99  1  0  0  0
 18 19  2  0  0  0
 18100  1  0  0  0
 19 20  1  0  0  0
 19 24  1  0  0  0
 20 21  2  0  0  0
 20101  1  0  0  0
 21 23  1  0  0  0
 22 28  1  0  0  0
 22 32  2  0  0  0
 26 27  1  0  0  0
 28102  1  0  0  0
 28103  1  0  0  0
 29104  1  0  0  0
 29105  1  0  0  0
 33 34  1  0  0  0
 33 66  1  0  0  0
 33 70  2  0  0  0
 34 36  1  0  0  0
 34 59  1  0  0  0
 34106  1  0  0  0
 35 44  2  0  0  0
 35 45  1  0  0  0
 35 68  1  0  0  0
 36 56  1  0  0  0
 36107  1  0  0  0
 37 39  1  0  0  0
 37 47  1  0  0  0
 37 66  1  0  0  0
 37108  1  0  0  0
 38 43  2  0  0  0
 38 46  1  0  0  0
 38 47  1  0  0  0
 39 64  1  0  0  0
 39 67  2  0  0  0
 40 52  1  0  0  0
 40 53  2  0  0  0
 40 58  1  0  0  0
 41109  1  0  0  0
 41110  1  0  0  0
 41111  1  0  0  0
 41 48  1  0  0  0
 42 43  1  0  0  0
 42 66  1  0  0  0
 42112  1  0  0  0
 42113  1  0  0  0
 43 44  1  0  0  0
 44114  1  0  0  0
 45 46  2  0  0  0
 45115  1  0  0  0
 46116  1  0  0  0
 47117  1  0  0  0
 47118  1  0  0  0
 48 56  1  0  0  0
 48 65  1  0  0  0
 48119  1  0  0  0
 49 50  1  0  0  0
 49 53  1  0  0  0
 49 64  1  0  0  0
 49120  1  0  0  0
 50 51  1  0  0  0
 50121  1  0  0  0
 50122  1  0  0  0
 51 52  1  0  0  0
 51123  1  0  0  0
 51124  1  0  0  0
 52125  1  0  0  0
 52126  1  0  0  0
 53 54  1  0  0  0
 54 55  2  0  0  0
 54127  1  0  0  0
 55 57  1  0  0  0
 55128  1  0  0  0
 56 69  2  0  0  0
 57 58  2  0  0  0
 57129  1  0  0  0
 58130  1  0  0  0
 59 60  1  0  0  0
 59 61  1  0  0  0
 59 62  1  0  0  0
 60131  1  0  0  0
 60132  1  0  0  0
 60133  1  0  0  0
 61134  1  0  0  0
 61135  1  0  0  0
 61136  1  0  0  0
 62137  1  0  0  0
 62138  1  0  0  0
 62139  1  0  0  0
 63 65  1  0  0  0
 63140  1  0  0  0
 63141  1  0  0  0
 63142  1  0  0  0
 64143  1  0  0  0
 65144  1  0  0  0
 68 82  1  0  0  0
 71 72  2  0  0  0
 71 74  1  0  0  0
 71 83  1  0  0  0
 72 77  1  0  0  0
 72 84  1  0  0  0
 73 78  1  0  0  0
 73 83  2  0  0  0
 73 84  1  0  0  0
 74145  1  0  0  0
 74146  1  0  0  0
 74147  1  0  0  0
 75 81  1  0  0  0
 75148  1  0  0  0
 75149  1  0  0  0
 75150  1  0  0  0
 76 84  1  0  0  0
 76151  1  0  0  0
 76152  1  0  0  0
 76153  1  0  0  0
 77 79  1  0  0  0
 77154  1  0  0  0
 77155  1  0  0  0
 78 85  1  0  0  0
 78156  1  0  0  0
 78157  1  0  0  0
 79 80  1  0  0  0
 79158  1  0  0  0
 79159  1  0  0  0
 80 82  1  0  0  0
 80160  1  0  0  0
 80161  1  0  0  0
 81 85  1  0  0  0
 81162  1  0  0  0
 81163  1  0  0  0
 82164  1  0  0  0
 82165  1  0  0  0
M  ISO  4   1 100  68 101  82 101  85 100
M  END
> <chiral flag>
0

> <version>
0

> <s_m_source_file>
/data/baiqing/PycharmProjects/Reinvent-master-3.2/result/LINK_invent/BTK/process_docking_weight1_custom_sum_contain_oxygen_bond_distance_aromatic_linkinvent_7_9_3/rearranged_h_0051.sdf

> <i_m_source_file_index>
66

> <r_mmod_Potential_Energy-OPLS-2005>
138.876174926758

> <r_mmod_Stretch_Energy-OPLS-2005>
58.327335357666

> <r_mmod_Bend_Energy-OPLS-2005>
147.895050048828

> <r_mmod_Torsional_Energy-OPLS-2005>
301.745208740234

> <r_mmod_Improper_Torsional_Energy-OPLS-2005>
6.8930459022522

> <r_mmod_Van_der_Waal_Energy-OPLS-2005>
144.435775756836

> <r_mmod_Electrostatic_Energy-OPLS-2005>
-369.565734863281

> <r_mmod_Solvation_Energy-OPLS-2005>
-204.337249755859

> <b_mmod_Minimization_Converged-OPLS-2005>
0

> <r_mmod_RMS_Derivative-OPLS-2005>
4.96698713302612

$$$$
67
                    3D
 Structure written by MMmdl.
154162  0  0  1  0            999 V2000
  -30.5538  -14.8956   20.5319 C   0  0  0  0  0  0
  -30.4461  -12.5696   19.4964 C   0  0  0  0  0  0
  -29.5230  -12.5569   18.2547 C   0  0  0  0  0  0
  -28.0539  -12.3376   18.6617 C   0  0  0  0  0  0
  -27.6420  -13.2392   19.8527 C   0  0  2  0  0  0
  -28.6791  -13.1956   20.9937 C   0  0  0  0  0  0
  -25.2507  -13.8201   20.5692 C   0  0  0  0  0  0
  -24.1802  -13.0436   20.9192 C   0  0  0  0  0  0
  -24.6405  -11.6917   20.8727 C   0  0  0  0  0  0
  -23.9083  -10.4293   21.0399 C   0  0  0  0  0  0
  -24.3632   -9.4214   21.9184 C   0  0  0  0  0  0
  -23.6304   -8.2249   22.0753 C   0  0  0  0  0  0
  -22.4283   -8.0284   21.3546 C   0  0  0  0  0  0
  -21.9921   -9.0258   20.4646 C   0  0  0  0  0  0
  -22.7251  -10.2136   20.3054 C   0  0  0  0  0  0
  -21.6854   -6.0739   22.5281 C   0  0  0  0  0  0
  -21.4017   -6.5644   23.8215 C   0  0  0  0  0  0
  -21.3660   -5.6794   24.9176 C   0  0  0  0  0  0
  -21.6045   -4.3057   24.7225 C   0  0  0  0  0  0
  -21.8820   -3.8152   23.4346 C   0  0  0  0  0  0
  -21.9193   -4.6967   22.3403 C   0  0  0  0  0  0
  -22.7824  -13.5215   21.1866 C   0  0  0  0  0  0
  -22.1658   -4.2152   21.0978 F   0  0  0  0  0  0
  -21.5629   -3.4541   25.7739 F   0  0  0  0  0  0
  -29.9739  -13.6266   20.4391 N   0  0  0  0  0  0
  -26.2936  -12.9417   20.3262 N   0  0  0  0  0  0
  -25.9342  -11.6552   20.5729 N   0  0  0  0  0  0
  -22.0476  -12.8199   22.0424 N   0  0  0  0  0  0
  -25.4202  -15.1929   20.4156 N   0  0  0  0  0  0
  -31.6435  -15.0575   19.9722 O   0  0  0  0  0  0
  -21.6641   -6.8885   21.4245 O   0  0  0  0  0  0
  -22.3500  -14.5520   20.6716 O   0  0  0  0  0  0
  -24.6422  -31.8443   23.1886 C   0  0  0  0  0  0
  -25.9196  -32.4698   23.8268 C   0  0  1  0  0  0
  -27.2197  -27.1393   20.1466 C   0  0  0  0  0  0
  -25.5949  -33.8506   24.2184 N   0  0  0  0  0  0
  -23.4459  -30.4634   21.5340 C   0  0  2  0  0  0
  -24.8962  -28.8934   20.1066 C   0  0  0  0  0  0
  -22.7561  -29.4548   22.4859 C   0  0  0  0  0  0
  -18.0305  -28.1396   22.8480 C   0  0  0  0  0  0
  -24.1492  -36.7261   23.2645 C   0  0  0  0  0  0
  -26.0012  -30.7174   21.3894 C   0  0  0  0  0  0
  -26.0711  -29.3295   20.7308 C   0  0  0  0  0  0
  -27.2285  -28.4658   20.7404 C   0  0  0  0  0  0
  -26.0254  -26.8157   19.4623 C   0  0  0  0  0  0
  -24.8872  -27.6507   19.4569 C   0  0  0  0  0  0
  -23.6711  -29.7932   20.1526 C   0  0  0  0  0  0
  -25.4126  -36.3036   24.0313 C   0  0  1  0  0  0
  -20.5917  -28.3722   23.1241 C   0  0  2  0  0  0
  -20.6790  -26.9422   22.5413 C   0  0  0  0  0  0
  -19.5761  -26.6380   21.5223 C   0  0  0  0  0  0
  -18.1941  -26.7933   22.1627 C   0  0  0  0  0  0
  -19.1562  -28.8874   23.2854 C   0  0  0  0  0  0
  -18.9477  -30.1473   23.8874 C   0  0  0  0  0  0
  -17.6472  -30.6594   24.0559 C   0  0  0  0  0  0
  -25.9075  -34.9411   23.5058 C   0  0  0  0  0  0
  -16.5362  -29.9084   23.6341 C   0  0  0  0  0  0
  -16.7286  -28.6505   23.0354 C   0  0  0  0  0  0
  -26.4517  -31.6568   25.0712 C   0  0  0  0  0  0
  -25.3694  -31.3759   26.1399 C   0  0  0  0  0  0
  -27.0386  -30.2963   24.6303 C   0  0  0  0  0  0
  -27.6044  -32.4335   25.7493 C   0  0  0  0  0  0
  -27.5573  -37.1787   24.8462 C   0  0  0  0  0  0
  -21.4254  -29.3046   22.3606 N   0  0  0  0  0  0
  -26.4288  -37.3750   23.9401 N   0  0  0  0  0  0
  -24.7163  -31.0293   22.0927 N   0  0  0  0  0  0
  -23.4199  -28.8094   23.3016 O   0  0  0  0  0  0
  -28.2809  -26.1664   20.2580 O   0  0  0  0  0  0
  -26.5667  -34.8904   22.4642 O   0  0  0  0  0  0
  -23.5542  -32.1322   23.7106 O   0  0  0  0  0  0
  -29.7624  -15.7593   22.7506 C   0  0  0  0  0  0
  -29.4700  -17.8557   22.6469 C   0  0  0  0  0  0
  -29.9730  -16.0755   21.4238 C   0  0  0  0  0  0
  -27.5683  -20.1254   21.2780 C   0  0  0  0  0  0
  -28.7936  -23.3154   20.6524 C   0  0  0  0  0  0
  -29.0358  -21.7728   19.9997 C   0  0  0  0  0  0
  -29.6726  -18.8059   20.3697 C   0  0  0  0  0  0
  -28.1759  -24.6637   19.8546 C   0  0  0  0  0  0
  -29.0409  -20.3203   20.8575 C   0  0  2  0  0  0
  -29.4500  -16.8632   23.5162 N   0  0  0  0  0  0
  -29.7111  -17.5677   21.3510 N   0  0  0  0  0  0
  -31.4807  -12.7281   19.1887 H   0  0  0  0  0  0
  -30.4362  -11.5950   19.9867 H   0  0  0  0  0  0
  -29.8386  -11.7815   17.5551 H   0  0  0  0  0  0
  -29.6165  -13.5050   17.7234 H   0  0  0  0  0  0
  -27.9364  -11.2879   18.9338 H   0  0  0  0  0  0
  -27.3942  -12.5069   17.8099 H   0  0  0  0  0  0
  -27.6298  -14.2597   19.4685 H   0  0  0  0  0  0
  -28.7514  -12.1923   21.4158 H   0  0  0  0  0  0
  -28.3401  -13.8350   21.8049 H   0  0  0  0  0  0
  -25.2778   -9.5687   22.4763 H   0  0  0  0  0  0
  -24.0010   -7.4639   22.7473 H   0  0  0  0  0  0
  -21.0852   -8.8782   19.8951 H   0  0  0  0  0  0
  -22.3712  -10.9679   19.6165 H   0  0  0  0  0  0
  -21.2012   -7.6152   23.9722 H   0  0  0  0  0  0
  -21.1480   -6.0521   25.9078 H   0  0  0  0  0  0
  -22.0599   -2.7612   23.2844 H   0  0  0  0  0  0
  -22.4088  -11.9856   22.4809 H   0  0  0  0  0  0
  -21.1098  -13.1230   22.2646 H   0  0  0  0  0  0
  -24.6589  -15.8504   20.5430 H   0  0  0  0  0  0
  -26.2824  -15.6371   20.1249 H   0  0  0  0  0  0
  -26.7257  -32.5295   23.0987 H   0  0  0  0  0  0
  -25.0050  -33.9626   25.0299 H   0  0  0  0  0  0
  -22.7491  -31.2901   21.3797 H   0  0  0  0  0  0
  -23.3759  -35.9589   23.3298 H   0  0  0  0  0  0
  -24.3582  -36.8907   22.2064 H   0  0  0  0  0  0
  -23.7241  -37.6452   23.6690 H   0  0  0  0  0  0
  -26.1587  -31.4721   20.6174 H   0  0  0  0  0  0
  -26.8717  -30.7664   22.0321 H   0  0  0  0  0  0
  -28.1183  -28.7911   21.2606 H   0  0  0  0  0  0
  -25.9265  -25.8819   18.9325 H   0  0  0  0  0  0
  -23.9943  -27.3182   18.9452 H   0  0  0  0  0  0
  -23.8020  -30.5676   19.3959 H   0  0  0  0  0  0
  -22.7868  -29.2324   19.8453 H   0  0  0  0  0  0
  -25.1316  -36.1870   25.0806 H   0  0  0  0  0  0
  -21.0013  -28.3312   24.1363 H   0  0  0  0  0  0
  -20.5700  -26.2326   23.3629 H   0  0  0  0  0  0
  -21.6650  -26.7436   22.1195 H   0  0  0  0  0  0
  -19.6925  -25.6290   21.1257 H   0  0  0  0  0  0
  -19.6698  -27.3188   20.6750 H   0  0  0  0  0  0
  -17.4212  -26.6683   21.4027 H   0  0  0  0  0  0
  -18.0328  -26.0083   22.9031 H   0  0  0  0  0  0
  -19.7953  -30.7300   24.2221 H   0  0  0  0  0  0
  -17.5026  -31.6269   24.5167 H   0  0  0  0  0  0
  -15.5364  -30.2975   23.7685 H   0  0  0  0  0  0
  -15.8687  -28.0821   22.7076 H   0  0  0  0  0  0
  -24.5879  -30.7106   25.7709 H   0  0  0  0  0  0
  -24.8875  -32.2944   26.4759 H   0  0  0  0  0  0
  -25.7966  -30.8964   27.0216 H   0  0  0  0  0  0
  -26.3013  -29.6676   24.1302 H   0  0  0  0  0  0
  -27.3986  -29.7269   25.4884 H   0  0  0  0  0  0
  -27.8919  -30.4193   23.9632 H   0  0  0  0  0  0
  -27.2640  -33.3658   26.2005 H   0  0  0  0  0  0
  -28.3884  -32.6862   25.0342 H   0  0  0  0  0  0
  -28.0676  -31.8503   26.5459 H   0  0  0  0  0  0
  -28.2584  -38.0090   24.7514 H   0  0  0  0  0  0
  -28.1072  -36.2619   24.6283 H   0  0  0  0  0  0
  -27.2286  -37.1431   25.8864 H   0  0  0  0  0  0
  -20.9460  -29.8740   21.6770 H   0  0  0  0  0  0
  -26.0154  -38.2816   24.1408 H   0  0  0  0  0  0
  -29.8829  -14.7980   23.2324 H   0  0  0  0  0  0
  -29.2930  -18.8555   23.0088 H   0  0  0  0  0  0
  -27.1884  -20.9982   21.8086 H   0  0  0  0  0  0
  -27.4001  -19.2675   21.9253 H   0  0  0  0  0  0
  -26.9367  -19.9778   20.4014 H   0  0  0  0  0  0
  -29.7597  -23.6175   21.0576 H   0  0  0  0  0  0
  -28.1680  -23.1874   21.5359 H   0  0  0  0  0  0
  -29.9857  -21.8205   19.4663 H   0  0  0  0  0  0
  -28.2992  -21.6576   19.2035 H   0  0  0  0  0  0
  -30.6989  -18.9649   20.0384 H   0  0  0  0  0  0
  -29.1322  -18.4831   19.4796 H   0  0  0  0  0  0
  -27.1259  -24.4131   19.7302 H   0  0  0  0  0  0
  -28.5858  -24.6304   18.8454 H   0  0  0  0  0  0
  -29.6102  -20.5753   21.7512 H   0  0  0  0  0  0
  1 25  1  0  0  0
  1 30  2  0  0  0
  1 73  1  0  0  0
  2  3  1  0  0  0
  2 25  1  0  0  0
  2 82  1  0  0  0
  2 83  1  0  0  0
  3  4  1  0  0  0
  3 84  1  0  0  0
  3 85  1  0  0  0
  4  5  1  0  0  0
  4 86  1  0  0  0
  4 87  1  0  0  0
  5  6  1  0  0  0
  5 26  1  0  0  0
  5 88  1  0  0  0
  6 25  1  0  0  0
  6 89  1  0  0  0
  6 90  1  0  0  0
  7  8  2  0  0  0
  7 26  1  0  0  0
  7 29  1  0  0  0
  8  9  1  0  0  0
  8 22  1  0  0  0
  9 10  1  0  0  0
  9 27  2  0  0  0
 10 11  2  0  0  0
 10 15  1  0  0  0
 11 12  1  0  0  0
 11 91  1  0  0  0
 12 13  2  0  0  0
 12 92  1  0  0  0
 13 14  1  0  0  0
 13 31  1  0  0  0
 14 15  2  0  0  0
 14 93  1  0  0  0
 15 94  1  0  0  0
 16 17  2  0  0  0
 16 21  1  0  0  0
 16 31  1  0  0  0
 17 18  1  0  0  0
 17 95  1  0  0  0
 18 19  2  0  0  0
 18 96  1  0  0  0
 19 20  1  0  0  0
 19 24  1  0  0  0
 20 21  2  0  0  0
 20 97  1  0  0  0
 21 23  1  0  0  0
 22 28  1  0  0  0
 22 32  2  0  0  0
 26 27  1  0  0  0
 28 98  1  0  0  0
 28 99  1  0  0  0
 29100  1  0  0  0
 29101  1  0  0  0
 33 34  1  0  0  0
 33 66  1  0  0  0
 33 70  2  0  0  0
 34 36  1  0  0  0
 34 59  1  0  0  0
 34102  1  0  0  0
 35 44  2  0  0  0
 35 45  1  0  0  0
 35 68  1  0  0  0
 36 56  1  0  0  0
 36103  1  0  0  0
 37 39  1  0  0  0
 37 47  1  0  0  0
 37 66  1  0  0  0
 37104  1  0  0  0
 38 43  2  0  0  0
 38 46  1  0  0  0
 38 47  1  0  0  0
 39 64  1  0  0  0
 39 67  2  0  0  0
 40 52  1  0  0  0
 40 53  2  0  0  0
 40 58  1  0  0  0
 41105  1  0  0  0
 41106  1  0  0  0
 41107  1  0  0  0
 41 48  1  0  0  0
 42 43  1  0  0  0
 42 66  1  0  0  0
 42108  1  0  0  0
 42109  1  0  0  0
 43 44  1  0  0  0
 44110  1  0  0  0
 45 46  2  0  0  0
 45111  1  0  0  0
 46112  1  0  0  0
 47113  1  0  0  0
 47114  1  0  0  0
 48 56  1  0  0  0
 48 65  1  0  0  0
 48115  1  0  0  0
 49 50  1  0  0  0
 49 53  1  0  0  0
 49 64  1  0  0  0
 49116  1  0  0  0
 50 51  1  0  0  0
 50117  1  0  0  0
 50118  1  0  0  0
 51 52  1  0  0  0
 51119  1  0  0  0
 51120  1  0  0  0
 52121  1  0  0  0
 52122  1  0  0  0
 53 54  1  0  0  0
 54 55  2  0  0  0
 54123  1  0  0  0
 55 57  1  0  0  0
 55124  1  0  0  0
 56 69  2  0  0  0
 57 58  2  0  0  0
 57125  1  0  0  0
 58126  1  0  0  0
 59 60  1  0  0  0
 59 61  1  0  0  0
 59 62  1  0  0  0
 60127  1  0  0  0
 60128  1  0  0  0
 60129  1  0  0  0
 61130  1  0  0  0
 61131  1  0  0  0
 61132  1  0  0  0
 62133  1  0  0  0
 62134  1  0  0  0
 62135  1  0  0  0
 63 65  1  0  0  0
 63136  1  0  0  0
 63137  1  0  0  0
 63138  1  0  0  0
 64139  1  0  0  0
 65140  1  0  0  0
 68 78  1  0  0  0
 71 73  2  0  0  0
 71 80  1  0  0  0
 71141  1  0  0  0
 72 80  2  0  0  0
 72 81  1  0  0  0
 72142  1  0  0  0
 73 81  1  0  0  0
 74143  1  0  0  0
 74144  1  0  0  0
 74145  1  0  0  0
 74 79  1  0  0  0
 75 76  1  0  0  0
 75 78  1  0  0  0
 75146  1  0  0  0
 75147  1  0  0  0
 76 79  1  0  0  0
 76148  1  0  0  0
 76149  1  0  0  0
 77 79  1  0  0  0
 77 81  1  0  0  0
 77150  1  0  0  0
 77151  1  0  0  0
 78152  1  0  0  0
 78153  1  0  0  0
 79154  1  0  0  0
M  ISO  4   1 100  68 101  73 100  78 101
M  END
> <chiral flag>
0

> <version>
0

> <s_m_source_file>
/data/baiqing/PycharmProjects/Reinvent-master-3.2/result/LINK_invent/BTK/process_docking_weight1_custom_sum_contain_oxygen_bond_distance_aromatic_linkinvent_7_9_3/rearranged_h_0051.sdf

> <i_m_source_file_index>
67

> <r_mmod_Potential_Energy-OPLS-2005>
645.473999023438

> <r_mmod_Stretch_Energy-OPLS-2005>
295.386016845703

> <r_mmod_Bend_Energy-OPLS-2005>
333.584381103516

> <r_mmod_Torsional_Energy-OPLS-2005>
213.204605102539

> <r_mmod_Improper_Torsional_Energy-OPLS-2005>
3.94681406021118

> <r_mmod_Van_der_Waal_Energy-OPLS-2005>
119.955406188965

> <r_mmod_Electrostatic_Energy-OPLS-2005>
-290.296569824219

> <r_mmod_Solvation_Energy-OPLS-2005>
-202.89697265625

> <b_mmod_Minimization_Converged-OPLS-2005>
0

> <r_mmod_RMS_Derivative-OPLS-2005>
0.88599044084549

$$$$
68
                    3D
 Structure written by MMmdl.
165173  0  0  1  0            999 V2000
  -30.6327  -14.7376   20.4043 C   0  0  0  0  0  0
  -30.4274  -12.4428   19.4490 C   0  0  0  0  0  0
  -29.4992  -12.4765   18.2184 C   0  0  0  0  0  0
  -28.0202  -12.3310   18.6357 C   0  0  0  0  0  0
  -27.6334  -13.2222   19.8483 C   0  0  2  0  0  0
  -28.6951  -13.1826   20.9666 C   0  0  0  0  0  0
  -25.2517  -13.8146   20.5748 C   0  0  0  0  0  0
  -24.1790  -13.0408   20.9209 C   0  0  0  0  0  0
  -24.6373  -11.6886   20.8760 C   0  0  0  0  0  0
  -23.9049  -10.4269   21.0408 C   0  0  0  0  0  0
  -24.3604   -9.4196   21.9186 C   0  0  0  0  0  0
  -23.6290   -8.2232   22.0749 C   0  0  0  0  0  0
  -22.4276   -8.0259   21.3530 C   0  0  0  0  0  0
  -21.9903   -9.0233   20.4638 C   0  0  0  0  0  0
  -22.7219  -10.2120   20.3056 C   0  0  0  0  0  0
  -21.6855   -6.0725   22.5277 C   0  0  0  0  0  0
  -21.4016   -6.5638   23.8209 C   0  0  0  0  0  0
  -21.3661   -5.6796   24.9177 C   0  0  0  0  0  0
  -21.6052   -4.3057   24.7235 C   0  0  0  0  0  0
  -21.8817   -3.8146   23.4355 C   0  0  0  0  0  0
  -21.9193   -4.6953   22.3405 C   0  0  0  0  0  0
  -22.7815  -13.5205   21.1850 C   0  0  0  0  0  0
  -22.1660   -4.2141   21.0982 F   0  0  0  0  0  0
  -21.5633   -3.4537   25.7749 F   0  0  0  0  0  0
  -29.9840  -13.5240   20.3522 N   0  0  0  0  0  0
  -26.2924  -12.9326   20.3364 N   0  0  0  0  0  0
  -25.9307  -11.6477   20.5816 N   0  0  0  0  0  0
  -22.0463  -12.8196   22.0403 N   0  0  0  0  0  0
  -25.4234  -15.1865   20.4186 N   0  0  0  0  0  0
  -31.8574  -14.7806   20.2595 O   0  0  0  0  0  0
  -21.6641   -6.8859   21.4230 O   0  0  0  0  0  0
  -22.3519  -14.5523   20.6703 O   0  0  0  0  0  0
  -24.6316  -31.8569   23.2011 C   0  0  0  0  0  0
  -25.9146  -32.4763   23.8348 C   0  0  1  0  0  0
  -27.2176  -27.2717   20.1295 C   0  0  0  0  0  0
  -25.5945  -33.8565   24.2273 N   0  0  0  0  0  0
  -23.4278  -30.4817   21.5443 C   0  0  2  0  0  0
  -24.8747  -28.9334   20.1129 C   0  0  0  0  0  0
  -22.7499  -29.4617   22.4918 C   0  0  0  0  0  0
  -18.0290  -28.1395   22.8484 C   0  0  0  0  0  0
  -24.1488  -36.7282   23.2642 C   0  0  0  0  0  0
  -25.9742  -30.7731   21.3814 C   0  0  0  0  0  0
  -26.0474  -29.3971   20.7235 C   0  0  0  0  0  0
  -27.2227  -28.5790   20.7212 C   0  0  0  0  0  0
  -26.0268  -26.8890   19.4692 C   0  0  0  0  0  0
  -24.8693  -27.6863   19.4758 C   0  0  0  0  0  0
  -23.6454  -29.8180   20.1604 C   0  0  0  0  0  0
  -25.4114  -36.3073   24.0329 C   0  0  1  0  0  0
  -20.5897  -28.3709   23.1266 C   0  0  2  0  0  0
  -20.6784  -26.9424   22.5408 C   0  0  0  0  0  0
  -19.5754  -26.6388   21.5220 C   0  0  0  0  0  0
  -18.1932  -26.7939   22.1627 C   0  0  0  0  0  0
  -19.1545  -28.8866   23.2875 C   0  0  0  0  0  0
  -18.9467  -30.1469   23.8898 C   0  0  0  0  0  0
  -17.6465  -30.6598   24.0563 C   0  0  0  0  0  0
  -25.9051  -34.9440   23.5096 C   0  0  0  0  0  0
  -16.5354  -29.9092   23.6336 C   0  0  0  0  0  0
  -16.7276  -28.6505   23.0361 C   0  0  0  0  0  0
  -26.4511  -31.6589   25.0736 C   0  0  0  0  0  0
  -25.3732  -31.3721   26.1454 C   0  0  0  0  0  0
  -27.0376  -30.3012   24.6227 C   0  0  0  0  0  0
  -27.6063  -32.4333   25.7508 C   0  0  0  0  0  0
  -27.5579  -37.1795   24.8459 C   0  0  0  0  0  0
  -21.4206  -29.3061   22.3657 N   0  0  0  0  0  0
  -26.4284  -37.3778   23.9410 N   0  0  0  0  0  0
  -24.6972  -31.0534   22.0990 N   0  0  0  0  0  0
  -23.4182  -28.8155   23.3027 O   0  0  0  0  0  0
  -28.3025  -26.3666   20.1781 O   0  0  0  0  0  0
  -26.5615  -34.8910   22.4662 O   0  0  0  0  0  0
  -23.5467  -32.1395   23.7306 O   0  0  0  0  0  0
  -28.7290  -19.5675   20.8932 C   0  0  0  0  0  0
  -29.8212  -18.6205   20.7773 C   0  0  0  0  0  0
  -29.1884  -20.8471   20.5790 C   0  0  0  0  0  0
  -31.1523  -17.7764   15.7142 C   0  0  0  0  0  0
  -31.5209  -21.5800   19.8272 C   0  0  0  0  0  0
  -29.9512  -17.0979   21.2171 C   0  0  0  0  0  0
  -28.4191  -22.2262   20.5958 C   0  0  0  0  0  0
  -30.0467  -17.2142   16.6155 C   0  0  0  0  0  0
  -29.0267  -23.6992   20.3192 C   0  0  0  0  0  0
  -30.5728  -16.7524   17.9808 C   0  0  0  0  0  0
  -29.4346  -16.2842   18.9129 C   0  0  0  0  0  0
  -27.9890  -24.9256   20.4733 C   0  0  0  0  0  0
  -30.8926  -19.3088   20.3896 N   0  0  0  0  0  0
  -30.5199  -20.6222   20.2521 N   0  0  0  0  0  0
  -29.8856  -15.9070   20.2686 N   0  0  0  0  0  0
  -31.4657  -12.5659   19.1362 H   0  0  0  0  0  0
  -30.3723  -11.4746   19.9481 H   0  0  0  0  0  0
  -29.7664  -11.6787   17.5242 H   0  0  0  0  0  0
  -29.6441  -13.4059   17.6680 H   0  0  0  0  0  0
  -27.8529  -11.2824   18.8838 H   0  0  0  0  0  0
  -27.3694  -12.5454   17.7875 H   0  0  0  0  0  0
  -27.5943  -14.2394   19.4748 H   0  0  0  0  0  0
  -28.7383  -12.1964   21.4311 H   0  0  0  0  0  0
  -28.4474  -13.8909   21.7597 H   0  0  0  0  0  0
  -25.2746   -9.5684   22.4773 H   0  0  0  0  0  0
  -23.9990   -7.4637   22.7479 H   0  0  0  0  0  0
  -21.0831   -8.8746   19.8960 H   0  0  0  0  0  0
  -22.3655  -10.9663   19.6185 H   0  0  0  0  0  0
  -21.2002   -7.6150   23.9705 H   0  0  0  0  0  0
  -21.1488   -6.0532   25.9075 H   0  0  0  0  0  0
  -22.0593   -2.7605   23.2865 H   0  0  0  0  0  0
  -22.4087  -11.9854   22.4789 H   0  0  0  0  0  0
  -21.1081  -13.1214   22.2624 H   0  0  0  0  0  0
  -24.6598  -15.8438   20.5340 H   0  0  0  0  0  0
  -26.2866  -15.6276   20.1264 H   0  0  0  0  0  0
  -26.7214  -32.5409   23.1092 H   0  0  0  0  0  0
  -25.0102  -33.9708   25.0427 H   0  0  0  0  0  0
  -22.7258  -31.3046   21.3974 H   0  0  0  0  0  0
  -23.3759  -35.9605   23.3289 H   0  0  0  0  0  0
  -24.3584  -36.8922   22.2059 H   0  0  0  0  0  0
  -23.7225  -37.6471   23.6677 H   0  0  0  0  0  0
  -26.1117  -31.5346   20.6127 H   0  0  0  0  0  0
  -26.8528  -30.8207   22.0129 H   0  0  0  0  0  0
  -28.1191  -28.9277   21.2156 H   0  0  0  0  0  0
  -25.9591  -25.9564   18.9320 H   0  0  0  0  0  0
  -23.9757  -27.3304   18.9816 H   0  0  0  0  0  0
  -23.7698  -30.5951   19.4049 H   0  0  0  0  0  0
  -22.7648  -29.2500   19.8537 H   0  0  0  0  0  0
  -25.1299  -36.1917   25.0821 H   0  0  0  0  0  0
  -20.9992  -28.3292   24.1385 H   0  0  0  0  0  0
  -20.5701  -26.2317   23.3620 H   0  0  0  0  0  0
  -21.6648  -26.7457   22.1190 H   0  0  0  0  0  0
  -19.6917  -25.6298   21.1259 H   0  0  0  0  0  0
  -19.6697  -27.3192   20.6746 H   0  0  0  0  0  0
  -17.4208  -26.6698   21.4023 H   0  0  0  0  0  0
  -18.0322  -26.0077   22.9016 H   0  0  0  0  0  0
  -19.7942  -30.7290   24.2265 H   0  0  0  0  0  0
  -17.5015  -31.6277   24.5162 H   0  0  0  0  0  0
  -15.5357  -30.2994   23.7668 H   0  0  0  0  0  0
  -15.8674  -28.0824   22.7088 H   0  0  0  0  0  0
  -24.5923  -30.7058   25.7770 H   0  0  0  0  0  0
  -24.8906  -32.2880   26.4874 H   0  0  0  0  0  0
  -25.8054  -30.8899   27.0233 H   0  0  0  0  0  0
  -26.2974  -29.6742   24.1248 H   0  0  0  0  0  0
  -27.4064  -29.7290   25.4750 H   0  0  0  0  0  0
  -27.8840  -30.4299   23.9476 H   0  0  0  0  0  0
  -27.2681  -33.3650   26.2054 H   0  0  0  0  0  0
  -28.3892  -32.6873   25.0347 H   0  0  0  0  0  0
  -28.0714  -31.8477   26.5449 H   0  0  0  0  0  0
  -28.2578  -38.0117   24.7541 H   0  0  0  0  0  0
  -28.1103  -36.2646   24.6248 H   0  0  0  0  0  0
  -27.2293  -37.1383   25.8861 H   0  0  0  0  0  0
  -20.9396  -29.8763   21.6848 H   0  0  0  0  0  0
  -26.0160  -38.2845   24.1445 H   0  0  0  0  0  0
  -27.7264  -19.3366   21.2256 H   0  0  0  0  0  0
  -30.7547  -18.0566   14.7383 H   0  0  0  0  0  0
  -31.9452  -17.0452   15.5537 H   0  0  0  0  0  0
  -31.6046  -18.6669   16.1527 H   0  0  0  0  0  0
  -31.7010  -22.3032   20.6221 H   0  0  0  0  0  0
  -31.1800  -22.1023   18.9335 H   0  0  0  0  0  0
  -32.4615  -21.0790   19.5951 H   0  0  0  0  0  0
  -29.1740  -16.9045   21.9577 H   0  0  0  0  0  0
  -30.8806  -16.9957   21.7787 H   0  0  0  0  0  0
  -27.9412  -22.2886   21.5738 H   0  0  0  0  0  0
  -27.5844  -22.1139   19.9044 H   0  0  0  0  0  0
  -29.5570  -16.3798   16.1117 H   0  0  0  0  0  0
  -29.2839  -17.9809   16.7581 H   0  0  0  0  0  0
  -29.4365  -23.7215   19.3097 H   0  0  0  0  0  0
  -29.8661  -23.8716   20.9920 H   0  0  0  0  0  0
  -31.1291  -17.5671   18.4401 H   0  0  0  0  0  0
  -31.2918  -15.9465   17.8302 H   0  0  0  0  0  0
  -28.9523  -15.4426   18.4254 H   0  0  0  0  0  0
  -28.6601  -17.0483   18.9807 H   0  0  0  0  0  0
  -27.6440  -24.9132   21.5081 H   0  0  0  0  0  0
  -27.1267  -24.6022   19.8986 H   0  0  0  0  0  0
  1 25  1  0  0  0
  1 30  2  0  0  0
  1 85  1  0  0  0
  2  3  1  0  0  0
  2 25  1  0  0  0
  2 86  1  0  0  0
  2 87  1  0  0  0
  3  4  1  0  0  0
  3 88  1  0  0  0
  3 89  1  0  0  0
  4  5  1  0  0  0
  4 90  1  0  0  0
  4 91  1  0  0  0
  5  6  1  0  0  0
  5 26  1  0  0  0
  5 92  1  0  0  0
  6 25  1  0  0  0
  6 93  1  0  0  0
  6 94  1  0  0  0
  7  8  2  0  0  0
  7 26  1  0  0  0
  7 29  1  0  0  0
  8  9  1  0  0  0
  8 22  1  0  0  0
  9 10  1  0  0  0
  9 27  2  0  0  0
 10 11  2  0  0  0
 10 15  1  0  0  0
 11 12  1  0  0  0
 11 95  1  0  0  0
 12 13  2  0  0  0
 12 96  1  0  0  0
 13 14  1  0  0  0
 13 31  1  0  0  0
 14 15  2  0  0  0
 14 97  1  0  0  0
 15 98  1  0  0  0
 16 17  2  0  0  0
 16 21  1  0  0  0
 16 31  1  0  0  0
 17 18  1  0  0  0
 17 99  1  0  0  0
 18 19  2  0  0  0
 18100  1  0  0  0
 19 20  1  0  0  0
 19 24  1  0  0  0
 20 21  2  0  0  0
 20101  1  0  0  0
 21 23  1  0  0  0
 22 28  1  0  0  0
 22 32  2  0  0  0
 26 27  1  0  0  0
 28102  1  0  0  0
 28103  1  0  0  0
 29104  1  0  0  0
 29105  1  0  0  0
 33 34  1  0  0  0
 33 66  1  0  0  0
 33 70  2  0  0  0
 34 36  1  0  0  0
 34 59  1  0  0  0
 34106  1  0  0  0
 35 44  2  0  0  0
 35 45  1  0  0  0
 35 68  1  0  0  0
 36 56  1  0  0  0
 36107  1  0  0  0
 37 39  1  0  0  0
 37 47  1  0  0  0
 37 66  1  0  0  0
 37108  1  0  0  0
 38 43  2  0  0  0
 38 46  1  0  0  0
 38 47  1  0  0  0
 39 64  1  0  0  0
 39 67  2  0  0  0
 40 52  1  0  0  0
 40 53  2  0  0  0
 40 58  1  0  0  0
 41109  1  0  0  0
 41110  1  0  0  0
 41111  1  0  0  0
 41 48  1  0  0  0
 42 43  1  0  0  0
 42 66  1  0  0  0
 42112  1  0  0  0
 42113  1  0  0  0
 43 44  1  0  0  0
 44114  1  0  0  0
 45 46  2  0  0  0
 45115  1  0  0  0
 46116  1  0  0  0
 47117  1  0  0  0
 47118  1  0  0  0
 48 56  1  0  0  0
 48 65  1  0  0  0
 48119  1  0  0  0
 49 50  1  0  0  0
 49 53  1  0  0  0
 49 64  1  0  0  0
 49120  1  0  0  0
 50 51  1  0  0  0
 50121  1  0  0  0
 50122  1  0  0  0
 51 52  1  0  0  0
 51123  1  0  0  0
 51124  1  0  0  0
 52125  1  0  0  0
 52126  1  0  0  0
 53 54  1  0  0  0
 54 55  2  0  0  0
 54127  1  0  0  0
 55 57  1  0  0  0
 55128  1  0  0  0
 56 69  2  0  0  0
 57 58  2  0  0  0
 57129  1  0  0  0
 58130  1  0  0  0
 59 60  1  0  0  0
 59 61  1  0  0  0
 59 62  1  0  0  0
 60131  1  0  0  0
 60132  1  0  0  0
 60133  1  0  0  0
 61134  1  0  0  0
 61135  1  0  0  0
 61136  1  0  0  0
 62137  1  0  0  0
 62138  1  0  0  0
 62139  1  0  0  0
 63 65  1  0  0  0
 63140  1  0  0  0
 63141  1  0  0  0
 63142  1  0  0  0
 64143  1  0  0  0
 65144  1  0  0  0
 68 82  1  0  0  0
 71 72  1  0  0  0
 71 73  2  0  0  0
 71145  1  0  0  0
 72 76  1  0  0  0
 72 83  2  0  0  0
 73 77  1  0  0  0
 73 84  1  0  0  0
 74 78  1  0  0  0
 74146  1  0  0  0
 74147  1  0  0  0
 74148  1  0  0  0
 75 84  1  0  0  0
 75149  1  0  0  0
 75150  1  0  0  0
 75151  1  0  0  0
 76 85  1  0  0  0
 76152  1  0  0  0
 76153  1  0  0  0
 77 79  1  0  0  0
 77154  1  0  0  0
 77155  1  0  0  0
 78 80  1  0  0  0
 78156  1  0  0  0
 78157  1  0  0  0
 79 82  1  0  0  0
 79158  1  0  0  0
 79159  1  0  0  0
 80 81  1  0  0  0
 80160  1  0  0  0
 80161  1  0  0  0
 81 85  1  0  0  0
 81162  1  0  0  0
 81163  1  0  0  0
 82164  1  0  0  0
 82165  1  0  0  0
 83 84  1  0  0  0
M  ISO  4   1 100  68 101  82 101  85 100
M  END
> <chiral flag>
0

> <version>
0

> <s_m_source_file>
/data/baiqing/PycharmProjects/Reinvent-master-3.2/result/LINK_invent/BTK/process_docking_weight1_custom_sum_contain_oxygen_bond_distance_aromatic_linkinvent_7_9_3/rearranged_h_0051.sdf

> <i_m_source_file_index>
68

> <r_mmod_Potential_Energy-OPLS-2005>
251.141220092773

> <r_mmod_Stretch_Energy-OPLS-2005>
112.00407409668

> <r_mmod_Bend_Energy-OPLS-2005>
178.366012573242

> <r_mmod_Torsional_Energy-OPLS-2005>
317.363189697266

> <r_mmod_Improper_Torsional_Energy-OPLS-2005>
10.997127532959

> <r_mmod_Van_der_Waal_Energy-OPLS-2005>
113.038963317871

> <r_mmod_Electrostatic_Energy-OPLS-2005>
-361.350769042969

> <r_mmod_Solvation_Energy-OPLS-2005>
-208.080581665039

> <b_mmod_Minimization_Converged-OPLS-2005>
0

> <r_mmod_RMS_Derivative-OPLS-2005>
1.75350487232208

$$$$
69
                    3D
 Structure written by MMmdl.
168176  0  0  1  0            999 V2000
  -30.7419  -14.4438   20.6185 C   0  0  0  0  0  0
  -30.4190  -12.3092   19.4118 C   0  0  0  0  0  0
  -29.4891  -12.5169   18.1987 C   0  0  0  0  0  0
  -28.0096  -12.3846   18.6061 C   0  0  0  0  0  0
  -27.6624  -13.2092   19.8726 C   0  0  2  0  0  0
  -28.7029  -12.9387   20.9775 C   0  0  0  0  0  0
  -25.2590  -13.8172   20.5710 C   0  0  0  0  0  0
  -24.1841  -13.0443   20.9206 C   0  0  0  0  0  0
  -24.6391  -11.6915   20.8756 C   0  0  0  0  0  0
  -23.9075  -10.4298   21.0418 C   0  0  0  0  0  0
  -24.3631   -9.4215   21.9201 C   0  0  0  0  0  0
  -23.6302   -8.2254   22.0754 C   0  0  0  0  0  0
  -22.4280   -8.0303   21.3552 C   0  0  0  0  0  0
  -21.9922   -9.0271   20.4655 C   0  0  0  0  0  0
  -22.7250  -10.2148   20.3068 C   0  0  0  0  0  0
  -21.6856   -6.0758   22.5291 C   0  0  0  0  0  0
  -21.4009   -6.5651   23.8227 C   0  0  0  0  0  0
  -21.3654   -5.6798   24.9186 C   0  0  0  0  0  0
  -21.6043   -4.3064   24.7228 C   0  0  0  0  0  0
  -21.8815   -3.8157   23.4349 C   0  0  0  0  0  0
  -21.9191   -4.6980   22.3404 C   0  0  0  0  0  0
  -22.7857  -13.5257   21.1845 C   0  0  0  0  0  0
  -22.1657   -4.2172   21.0978 F   0  0  0  0  0  0
  -21.5631   -3.4529   25.7734 F   0  0  0  0  0  0
  -30.0356  -13.2829   20.4535 N   0  0  0  0  0  0
  -26.3027  -12.9350   20.3371 N   0  0  0  0  0  0
  -25.9317  -11.6507   20.5763 N   0  0  0  0  0  0
  -22.0503  -12.8249   22.0410 N   0  0  0  0  0  0
  -25.4281  -15.1899   20.4138 N   0  0  0  0  0  0
  -31.8308  -14.6105   20.0612 O   0  0  0  0  0  0
  -21.6630   -6.8906   21.4261 O   0  0  0  0  0  0
  -22.3523  -14.5560   20.6690 O   0  0  0  0  0  0
  -24.6136  -31.8712   23.2117 C   0  0  0  0  0  0
  -25.9036  -32.4836   23.8421 C   0  0  1  0  0  0
  -27.2286  -27.4705   20.0674 C   0  0  0  0  0  0
  -25.5920  -33.8638   24.2336 N   0  0  0  0  0  0
  -23.4007  -30.4942   21.5535 C   0  0  2  0  0  0
  -24.8443  -28.9736   20.1153 C   0  0  0  0  0  0
  -22.7414  -29.4651   22.5012 C   0  0  0  0  0  0
  -18.0271  -28.1398   22.8480 C   0  0  0  0  0  0
  -24.1473  -36.7321   23.2640 C   0  0  0  0  0  0
  -25.9290  -30.8492   21.3580 C   0  0  0  0  0  0
  -26.0085  -29.4897   20.6992 C   0  0  0  0  0  0
  -27.2120  -28.7456   20.6730 C   0  0  0  0  0  0
  -26.0335  -26.9443   19.5467 C   0  0  0  0  0  0
  -24.8486  -27.6958   19.5386 C   0  0  0  0  0  0
  -23.6069  -29.8357   20.1659 C   0  0  0  0  0  0
  -25.4095  -36.3099   24.0326 C   0  0  1  0  0  0
  -20.5853  -28.3681   23.1324 C   0  0  2  0  0  0
  -20.6761  -26.9431   22.5421 C   0  0  0  0  0  0
  -19.5742  -26.6412   21.5208 C   0  0  0  0  0  0
  -18.1921  -26.7955   22.1617 C   0  0  0  0  0  0
  -19.1512  -28.8855   23.2898 C   0  0  0  0  0  0
  -18.9451  -30.1456   23.8917 C   0  0  0  0  0  0
  -17.6454  -30.6602   24.0568 C   0  0  0  0  0  0
  -25.9041  -34.9477   23.5121 C   0  0  0  0  0  0
  -16.5341  -29.9114   23.6324 C   0  0  0  0  0  0
  -16.7263  -28.6531   23.0345 C   0  0  0  0  0  0
  -26.4490  -31.6618   25.0741 C   0  0  0  0  0  0
  -25.3767  -31.3721   26.1491 C   0  0  0  0  0  0
  -27.0324  -30.3059   24.6099 C   0  0  0  0  0  0
  -27.6054  -32.4368   25.7497 C   0  0  0  0  0  0
  -27.5561  -37.1794   24.8465 C   0  0  0  0  0  0
  -21.4142  -29.3039   22.3764 N   0  0  0  0  0  0
  -26.4271  -37.3779   23.9408 N   0  0  0  0  0  0
  -24.6662  -31.0837   22.1004 N   0  0  0  0  0  0
  -23.4174  -28.8195   23.3069 O   0  0  0  0  0  0
  -28.3489  -26.6771   20.0637 O   0  0  0  0  0  0
  -26.5602  -34.8921   22.4673 O   0  0  0  0  0  0
  -23.5337  -32.1494   23.7517 O   0  0  0  0  0  0
  -26.4429  -24.9912   16.8767 C   0  0  0  0  0  0
  -26.1232  -23.6708   16.9449 C   0  0  0  0  0  0
  -27.7565  -25.0727   17.4193 C   0  0  0  0  0  0
  -29.6801  -15.4716   22.5955 C   0  0  0  0  0  0
  -28.4961  -18.7819   17.0720 C   0  0  0  0  0  0
  -28.5662  -26.3509   17.5280 C   0  0  0  0  0  0
  -29.2595  -17.4374   19.7847 C   0  0  0  0  0  0
  -27.2988  -21.5490   17.5979 C   0  0  0  0  0  0
  -30.3671  -16.8949   20.7143 C   0  0  0  0  0  0
  -29.5301  -18.8976   19.3132 C   0  0  0  0  0  0
  -28.5607  -20.9519   18.2722 C   0  0  0  0  0  0
  -29.1832  -26.7121   18.9030 C   0  0  0  0  0  0
  -28.2384  -23.8625   17.7239 N   0  0  0  0  0  0
  -27.2158  -23.0025   17.4527 N   0  0  0  0  0  0
  -30.1081  -15.5095   21.1911 N   0  0  0  0  0  0
  -28.4928  -19.4586   18.3954 N   0  3  1  0  0  0
  -31.4603  -12.4036   19.1046 H   0  0  0  0  0  0
  -30.3223  -11.2893   19.7863 H   0  0  0  0  0  0
  -29.7270  -11.8011   17.4104 H   0  0  0  0  0  0
  -29.6605  -13.5037   17.7705 H   0  0  0  0  0  0
  -27.8113  -11.3293   18.7906 H   0  0  0  0  0  0
  -27.3645  -12.6749   17.7761 H   0  0  0  0  0  0
  -27.7226  -14.2647   19.6023 H   0  0  0  0  0  0
  -28.6885  -11.8791   21.2385 H   0  0  0  0  0  0
  -28.4319  -13.4515   21.8908 H   0  0  0  0  0  0
  -25.2791   -9.5685   22.4767 H   0  0  0  0  0  0
  -24.0007   -7.4624   22.7458 H   0  0  0  0  0  0
  -21.0859   -8.8795   19.8958 H   0  0  0  0  0  0
  -22.3721  -10.9678   19.6164 H   0  0  0  0  0  0
  -21.1996   -7.6153   23.9737 H   0  0  0  0  0  0
  -21.1487   -6.0530   25.9089 H   0  0  0  0  0  0
  -22.0593   -2.7620   23.2839 H   0  0  0  0  0  0
  -22.4071  -11.9897   22.4824 H   0  0  0  0  0  0
  -21.1121  -13.1291   22.2582 H   0  0  0  0  0  0
  -24.6736  -15.8558   20.5409 H   0  0  0  0  0  0
  -26.2989  -15.6239   20.1421 H   0  0  0  0  0  0
  -26.7117  -32.5561   23.1198 H   0  0  0  0  0  0
  -25.0037  -33.9845   25.0451 H   0  0  0  0  0  0
  -22.6853  -31.3087   21.4150 H   0  0  0  0  0  0
  -23.3728  -35.9665   23.3325 H   0  0  0  0  0  0
  -24.3568  -36.8927   22.2056 H   0  0  0  0  0  0
  -23.7251  -37.6530   23.6671 H   0  0  0  0  0  0
  -26.0348  -31.6188   20.5917 H   0  0  0  0  0  0
  -26.8181  -30.9023   21.9752 H   0  0  0  0  0  0
  -28.1107  -29.1423   21.1234 H   0  0  0  0  0  0
  -26.0072  -25.9367   19.1716 H   0  0  0  0  0  0
  -23.9429  -27.2744   19.1211 H   0  0  0  0  0  0
  -23.7239  -30.6161   19.4132 H   0  0  0  0  0  0
  -22.7317  -29.2535   19.8691 H   0  0  0  0  0  0
  -25.1255  -36.1945   25.0820 H   0  0  0  0  0  0
  -20.9900  -28.3259   24.1453 H   0  0  0  0  0  0
  -20.5672  -26.2300   23.3622 H   0  0  0  0  0  0
  -21.6636  -26.7516   22.1193 H   0  0  0  0  0  0
  -19.6916  -25.6325   21.1242 H   0  0  0  0  0  0
  -19.6666  -27.3223   20.6747 H   0  0  0  0  0  0
  -17.4184  -26.6694   21.4033 H   0  0  0  0  0  0
  -18.0330  -26.0104   22.9025 H   0  0  0  0  0  0
  -19.7919  -30.7262   24.2302 H   0  0  0  0  0  0
  -17.5010  -31.6275   24.5191 H   0  0  0  0  0  0
  -15.5336  -30.3022   23.7635 H   0  0  0  0  0  0
  -15.8674  -28.0857   22.7052 H   0  0  0  0  0  0
  -24.5914  -30.7086   25.7835 H   0  0  0  0  0  0
  -24.8996  -32.2893   26.4969 H   0  0  0  0  0  0
  -25.8141  -30.8870   27.0227 H   0  0  0  0  0  0
  -26.2868  -29.6791   24.1178 H   0  0  0  0  0  0
  -27.4143  -29.7291   25.4534 H   0  0  0  0  0  0
  -27.8678  -30.4377   23.9210 H   0  0  0  0  0  0
  -27.2646  -33.3653   26.2091 H   0  0  0  0  0  0
  -28.3851  -32.6966   25.0328 H   0  0  0  0  0  0
  -28.0747  -31.8505   26.5404 H   0  0  0  0  0  0
  -28.2568  -38.0091   24.7481 H   0  0  0  0  0  0
  -28.1055  -36.2618   24.6302 H   0  0  0  0  0  0
  -27.2297  -37.1461   25.8872 H   0  0  0  0  0  0
  -20.9348  -29.8791   21.6996 H   0  0  0  0  0  0
  -26.0155  -38.2850   24.1419 H   0  0  0  0  0  0
  -25.8169  -25.7909   16.5035 H   0  0  0  0  0  0
  -25.2230  -23.1492   16.6501 H   0  0  0  0  0  0
  -30.1039  -16.2831   23.1868 H   0  0  0  0  0  0
  -29.9810  -14.5509   23.0972 H   0  0  0  0  0  0
  -28.5946  -15.5534   22.6571 H   0  0  0  0  0  0
  -28.4226  -17.7008   17.1612 H   0  0  0  0  0  0
  -29.4088  -19.0119   16.5201 H   0  0  0  0  0  0
  -27.6455  -19.0714   16.4583 H   0  0  0  0  0  0
  -27.9274  -27.1846   17.2303 H   0  0  0  0  0  0
  -29.3581  -26.3379   16.7802 H   0  0  0  0  0  0
  -28.3040  -17.3956   20.3080 H   0  0  0  0  0  0
  -29.1777  -16.7638   18.9342 H   0  0  0  0  0  0
  -26.4158  -21.2276   18.1513 H   0  0  0  0  0  0
  -27.1834  -21.1525   16.5912 H   0  0  0  0  0  0
  -30.4871  -17.5897   21.5472 H   0  0  0  0  0  0
  -31.3211  -16.9581   20.1877 H   0  0  0  0  0  0
  -30.5045  -18.9606   18.8269 H   0  0  0  0  0  0
  -29.5955  -19.5283   20.1998 H   0  0  0  0  0  0
  -28.6628  -21.3966   19.2616 H   0  0  0  0  0  0
  -29.4552  -21.2345   17.7176 H   0  0  0  0  0  0
  -30.0048  -26.0227   19.0991 H   0  0  0  0  0  0
  -29.6403  -27.6993   18.8318 H   0  0  0  0  0  0
  -27.6030  -19.2586   18.8287 H   0  0  0  0  0  0
  1 25  1  0  0  0
  1 30  2  0  0  0
  1 85  1  0  0  0
  2  3  1  0  0  0
  2 25  1  0  0  0
  2 87  1  0  0  0
  2 88  1  0  0  0
  3  4  1  0  0  0
  3 89  1  0  0  0
  3 90  1  0  0  0
  4  5  1  0  0  0
  4 91  1  0  0  0
  4 92  1  0  0  0
  5  6  1  0  0  0
  5 26  1  0  0  0
  5 93  1  0  0  0
  6 25  1  0  0  0
  6 94  1  0  0  0
  6 95  1  0  0  0
  7  8  2  0  0  0
  7 26  1  0  0  0
  7 29  1  0  0  0
  8  9  1  0  0  0
  8 22  1  0  0  0
  9 10  1  0  0  0
  9 27  2  0  0  0
 10 11  2  0  0  0
 10 15  1  0  0  0
 11 12  1  0  0  0
 11 96  1  0  0  0
 12 13  2  0  0  0
 12 97  1  0  0  0
 13 14  1  0  0  0
 13 31  1  0  0  0
 14 15  2  0  0  0
 14 98  1  0  0  0
 15 99  1  0  0  0
 16 17  2  0  0  0
 16 21  1  0  0  0
 16 31  1  0  0  0
 17 18  1  0  0  0
 17100  1  0  0  0
 18 19  2  0  0  0
 18101  1  0  0  0
 19 20  1  0  0  0
 19 24  1  0  0  0
 20 21  2  0  0  0
 20102  1  0  0  0
 21 23  1  0  0  0
 22 28  1  0  0  0
 22 32  2  0  0  0
 26 27  1  0  0  0
 28103  1  0  0  0
 28104  1  0  0  0
 29105  1  0  0  0
 29106  1  0  0  0
 33 34  1  0  0  0
 33 66  1  0  0  0
 33 70  2  0  0  0
 34 36  1  0  0  0
 34 59  1  0  0  0
 34107  1  0  0  0
 35 44  2  0  0  0
 35 45  1  0  0  0
 35 68  1  0  0  0
 36 56  1  0  0  0
 36108  1  0  0  0
 37 39  1  0  0  0
 37 47  1  0  0  0
 37 66  1  0  0  0
 37109  1  0  0  0
 38 43  2  0  0  0
 38 46  1  0  0  0
 38 47  1  0  0  0
 39 64  1  0  0  0
 39 67  2  0  0  0
 40 52  1  0  0  0
 40 53  2  0  0  0
 40 58  1  0  0  0
 41110  1  0  0  0
 41111  1  0  0  0
 41112  1  0  0  0
 41 48  1  0  0  0
 42 43  1  0  0  0
 42 66  1  0  0  0
 42113  1  0  0  0
 42114  1  0  0  0
 43 44  1  0  0  0
 44115  1  0  0  0
 45 46  2  0  0  0
 45116  1  0  0  0
 46117  1  0  0  0
 47118  1  0  0  0
 47119  1  0  0  0
 48 56  1  0  0  0
 48 65  1  0  0  0
 48120  1  0  0  0
 49 50  1  0  0  0
 49 53  1  0  0  0
 49 64  1  0  0  0
 49121  1  0  0  0
 50 51  1  0  0  0
 50122  1  0  0  0
 50123  1  0  0  0
 51 52  1  0  0  0
 51124  1  0  0  0
 51125  1  0  0  0
 52126  1  0  0  0
 52127  1  0  0  0
 53 54  1  0  0  0
 54 55  2  0  0  0
 54128  1  0  0  0
 55 57  1  0  0  0
 55129  1  0  0  0
 56 69  2  0  0  0
 57 58  2  0  0  0
 57130  1  0  0  0
 58131  1  0  0  0
 59 60  1  0  0  0
 59 61  1  0  0  0
 59 62  1  0  0  0
 60132  1  0  0  0
 60133  1  0  0  0
 60134  1  0  0  0
 61135  1  0  0  0
 61136  1  0  0  0
 61137  1  0  0  0
 62138  1  0  0  0
 62139  1  0  0  0
 62140  1  0  0  0
 63 65  1  0  0  0
 63141  1  0  0  0
 63142  1  0  0  0
 63143  1  0  0  0
 64144  1  0  0  0
 65145  1  0  0  0
 68 82  1  0  0  0
 71 72  2  0  0  0
 71 73  1  0  0  0
 71146  1  0  0  0
 72 84  1  0  0  0
 72147  1  0  0  0
 73 76  1  0  0  0
 73 83  2  0  0  0
 74 85  1  0  0  0
 74148  1  0  0  0
 74149  1  0  0  0
 74150  1  0  0  0
 75151  1  0  0  0
 75152  1  0  0  0
 75153  1  0  0  0
 75 86  1  0  0  0
 76 82  1  0  0  0
 76154  1  0  0  0
 76155  1  0  0  0
 77 79  1  0  0  0
 77 80  1  0  0  0
 77156  1  0  0  0
 77157  1  0  0  0
 78 81  1  0  0  0
 78 84  1  0  0  0
 78158  1  0  0  0
 78159  1  0  0  0
 79 85  1  0  0  0
 79160  1  0  0  0
 79161  1  0  0  0
 80 86  1  0  0  0
 80162  1  0  0  0
 80163  1  0  0  0
 81 86  1  0  0  0
 81164  1  0  0  0
 81165  1  0  0  0
 82166  1  0  0  0
 82167  1  0  0  0
 83 84  1  0  0  0
 86168  1  0  0  0
M  CHG  1  86   1
M  ISO  4   1 100  68 101  82 101  85 100
M  END
> <chiral flag>
0

> <version>
0

> <s_m_source_file>
/data/baiqing/PycharmProjects/Reinvent-master-3.2/result/LINK_invent/BTK/process_docking_weight1_custom_sum_contain_oxygen_bond_distance_aromatic_linkinvent_7_9_3/rearranged_h_0051.sdf

> <i_m_source_file_index>
69

> <r_mmod_Potential_Energy-OPLS-2005>
-27.5070495605469

> <r_mmod_Stretch_Energy-OPLS-2005>
41.8039703369141

> <r_mmod_Bend_Energy-OPLS-2005>
125.213539123535

> <r_mmod_Torsional_Energy-OPLS-2005>
282.174713134766

> <r_mmod_Improper_Torsional_Energy-OPLS-2005>
8.49652671813965

> <r_mmod_Van_der_Waal_Energy-OPLS-2005>
138.97819519043

> <r_mmod_Electrostatic_Energy-OPLS-2005>
-187.774795532227

> <r_mmod_Solvation_Energy-OPLS-2005>
-447.103759765625

> <b_mmod_Minimization_Converged-OPLS-2005>
0

> <r_mmod_RMS_Derivative-OPLS-2005>
3.52662062644958

$$$$
70
                    3D
 Structure written by MMmdl.
162170  0  0  1  0            999 V2000
  -30.7463  -14.3989   20.6300 C   0  0  0  0  0  0
  -30.4119  -12.2913   19.3955 C   0  0  0  0  0  0
  -29.4842  -12.5301   18.1892 C   0  0  0  0  0  0
  -28.0061  -12.3958   18.6041 C   0  0  0  0  0  0
  -27.6649  -13.2064   19.8831 C   0  0  2  0  0  0
  -28.7058  -12.9566   20.9957 C   0  0  0  0  0  0
  -25.2618  -13.8156   20.5681 C   0  0  0  0  0  0
  -24.1863  -13.0423   20.9164 C   0  0  0  0  0  0
  -24.6414  -11.6895   20.8720 C   0  0  0  0  0  0
  -23.9075  -10.4285   21.0417 C   0  0  0  0  0  0
  -24.3619   -9.4197   21.9192 C   0  0  0  0  0  0
  -23.6287   -8.2228   22.0769 C   0  0  0  0  0  0
  -22.4269   -8.0277   21.3553 C   0  0  0  0  0  0
  -21.9916   -9.0256   20.4654 C   0  0  0  0  0  0
  -22.7245  -10.2135   20.3066 C   0  0  0  0  0  0
  -21.6860   -6.0724   22.5271 C   0  0  0  0  0  0
  -21.4014   -6.5641   23.8200 C   0  0  0  0  0  0
  -21.3652   -5.6803   24.9162 C   0  0  0  0  0  0
  -21.6050   -4.3061   24.7223 C   0  0  0  0  0  0
  -21.8820   -3.8149   23.4352 C   0  0  0  0  0  0
  -21.9197   -4.6958   22.3400 C   0  0  0  0  0  0
  -22.7896  -13.5238   21.1822 C   0  0  0  0  0  0
  -22.1679   -4.2144   21.0982 F   0  0  0  0  0  0
  -21.5629   -3.4545   25.7737 F   0  0  0  0  0  0
  -30.0393  -13.2533   20.4441 N   0  0  0  0  0  0
  -26.3048  -12.9319   20.3396 N   0  0  0  0  0  0
  -25.9344  -11.6480   20.5774 N   0  0  0  0  0  0
  -22.0545  -12.8216   22.0387 N   0  0  0  0  0  0
  -25.4374  -15.1868   20.4104 N   0  0  0  0  0  0
  -31.8282  -14.6080   20.0717 O   0  0  0  0  0  0
  -21.6638   -6.8869   21.4236 O   0  0  0  0  0  0
  -22.3580  -14.5549   20.6679 O   0  0  0  0  0  0
  -24.6113  -31.8711   23.2136 C   0  0  0  0  0  0
  -25.9003  -32.4851   23.8414 C   0  0  1  0  0  0
  -27.2198  -27.4491   20.0971 C   0  0  0  0  0  0
  -25.5865  -33.8656   24.2330 N   0  0  0  0  0  0
  -23.3965  -30.4972   21.5544 C   0  0  2  0  0  0
  -24.8387  -28.9651   20.1139 C   0  0  0  0  0  0
  -22.7373  -29.4682   22.5008 C   0  0  0  0  0  0
  -18.0265  -28.1372   22.8501 C   0  0  0  0  0  0
  -24.1475  -36.7341   23.2632 C   0  0  0  0  0  0
  -25.9232  -30.8400   21.3654 C   0  0  0  0  0  0
  -25.9980  -29.4762   20.7112 C   0  0  0  0  0  0
  -27.1923  -28.7263   20.6971 C   0  0  0  0  0  0
  -26.0462  -26.9488   19.4887 C   0  0  0  0  0  0
  -24.8566  -27.7022   19.4981 C   0  0  0  0  0  0
  -23.5997  -29.8302   20.1675 C   0  0  0  0  0  0
  -25.4102  -36.3156   24.0326 C   0  0  1  0  0  0
  -20.5851  -28.3671   23.1332 C   0  0  2  0  0  0
  -20.6758  -26.9410   22.5427 C   0  0  0  0  0  0
  -19.5738  -26.6386   21.5232 C   0  0  0  0  0  0
  -18.1915  -26.7925   22.1631 C   0  0  0  0  0  0
  -19.1505  -28.8838   23.2915 C   0  0  0  0  0  0
  -18.9442  -30.1448   23.8921 C   0  0  0  0  0  0
  -17.6447  -30.6588   24.0586 C   0  0  0  0  0  0
  -25.9024  -34.9515   23.5138 C   0  0  0  0  0  0
  -16.5337  -29.9096   23.6338 C   0  0  0  0  0  0
  -16.7254  -28.6516   23.0355 C   0  0  0  0  0  0
  -26.4454  -31.6644   25.0744 C   0  0  0  0  0  0
  -25.3719  -31.3749   26.1498 C   0  0  0  0  0  0
  -27.0300  -30.3082   24.6146 C   0  0  0  0  0  0
  -27.6048  -32.4370   25.7476 C   0  0  0  0  0  0
  -27.5592  -37.1818   24.8454 C   0  0  0  0  0  0
  -21.4107  -29.3045   22.3744 N   0  0  0  0  0  0
  -26.4305  -37.3830   23.9402 N   0  0  0  0  0  0
  -24.6624  -31.0815   22.1040 N   0  0  0  0  0  0
  -23.4162  -28.8206   23.3029 O   0  0  0  0  0  0
  -28.3944  -26.7319   20.1206 O   0  0  0  0  0  0
  -26.5598  -34.8964   22.4709 O   0  0  0  0  0  0
  -23.5319  -32.1471   23.7535 O   0  0  0  0  0  0
  -30.0384  -19.8962   19.8309 C   0  0  0  0  0  0
  -31.5645  -19.3986   21.2981 C   0  0  0  0  0  0
  -30.5308  -21.0525   20.3950 C   0  0  0  0  0  0
  -30.5637  -17.2328   18.4998 C   0  0  0  0  0  0
  -30.5075  -15.4283   22.8075 C   0  0  0  0  0  0
  -30.2366  -22.4835   20.0398 C   0  0  0  0  0  0
  -29.5922  -23.2804   21.1863 C   0  0  0  0  0  0
  -29.5570  -24.8018   20.9279 C   0  0  0  0  0  0
  -29.6709  -16.6288   20.8268 C   0  0  0  0  0  0
  -28.2783  -25.3140   20.2492 C   0  0  0  0  0  0
  -30.7305  -17.4271   20.0205 C   0  0  2  0  0  0
  -31.4901  -20.7243   21.3520 N   0  0  0  0  0  0
  -30.7710  -18.8421   20.3717 N   0  0  0  0  0  0
  -30.1544  -15.3472   21.3894 N   0  0  0  0  0  0
  -31.4555  -12.3850   19.0891 H   0  0  0  0  0  0
  -30.3038  -11.2725   19.7706 H   0  0  0  0  0  0
  -29.7136  -11.8247   17.3892 H   0  0  0  0  0  0
  -29.6613  -13.5289   17.7803 H   0  0  0  0  0  0
  -27.8010  -11.3380   18.7684 H   0  0  0  0  0  0
  -27.3601  -12.7077   17.7816 H   0  0  0  0  0  0
  -27.7173  -14.2602   19.6129 H   0  0  0  0  0  0
  -28.6740  -11.9135   21.3141 H   0  0  0  0  0  0
  -28.4661  -13.5363   21.8878 H   0  0  0  0  0  0
  -25.2766   -9.5661   22.4756 H   0  0  0  0  0  0
  -24.0000   -7.4619   22.7489 H   0  0  0  0  0  0
  -21.0858   -8.8758   19.8953 H   0  0  0  0  0  0
  -22.3702  -10.9668   19.6173 H   0  0  0  0  0  0
  -21.1987   -7.6144   23.9686 H   0  0  0  0  0  0
  -21.1496   -6.0544   25.9064 H   0  0  0  0  0  0
  -22.0608   -2.7615   23.2846 H   0  0  0  0  0  0
  -22.4199  -11.9880   22.4756 H   0  0  0  0  0  0
  -21.1160  -13.1250   22.2580 H   0  0  0  0  0  0
  -24.6808  -15.8529   20.5263 H   0  0  0  0  0  0
  -26.3050  -15.6218   20.1226 H   0  0  0  0  0  0
  -26.7056  -32.5554   23.1167 H   0  0  0  0  0  0
  -25.0037  -33.9831   25.0494 H   0  0  0  0  0  0
  -22.6853  -31.3139   21.4187 H   0  0  0  0  0  0
  -23.3770  -35.9644   23.3291 H   0  0  0  0  0  0
  -24.3583  -36.8983   22.2057 H   0  0  0  0  0  0
  -23.7207  -37.6520   23.6670 H   0  0  0  0  0  0
  -26.0328  -31.6066   20.5974 H   0  0  0  0  0  0
  -26.8125  -30.8905   21.9842 H   0  0  0  0  0  0
  -28.0893  -29.1126   21.1618 H   0  0  0  0  0  0
  -26.0375  -25.9845   19.0014 H   0  0  0  0  0  0
  -23.9646  -27.3107   19.0288 H   0  0  0  0  0  0
  -23.7018  -30.6053   19.4066 H   0  0  0  0  0  0
  -22.7229  -29.2459   19.8794 H   0  0  0  0  0  0
  -25.1293  -36.2030   25.0821 H   0  0  0  0  0  0
  -20.9945  -28.3243   24.1457 H   0  0  0  0  0  0
  -20.5700  -26.2277   23.3613 H   0  0  0  0  0  0
  -21.6624  -26.7488   22.1198 H   0  0  0  0  0  0
  -19.6912  -25.6308   21.1251 H   0  0  0  0  0  0
  -19.6670  -27.3207   20.6771 H   0  0  0  0  0  0
  -17.4189  -26.6694   21.4022 H   0  0  0  0  0  0
  -18.0293  -26.0047   22.9000 H   0  0  0  0  0  0
  -19.7920  -30.7256   24.2291 H   0  0  0  0  0  0
  -17.5015  -31.6274   24.5170 H   0  0  0  0  0  0
  -15.5341  -30.3017   23.7662 H   0  0  0  0  0  0
  -15.8648  -28.0863   22.7052 H   0  0  0  0  0  0
  -24.5829  -30.7179   25.7808 H   0  0  0  0  0  0
  -24.8977  -32.2911   26.5019 H   0  0  0  0  0  0
  -25.8051  -30.8824   27.0211 H   0  0  0  0  0  0
  -26.2852  -29.6797   24.1234 H   0  0  0  0  0  0
  -27.4100  -29.7373   25.4630 H   0  0  0  0  0  0
  -27.8676  -30.4409   23.9294 H   0  0  0  0  0  0
  -27.2695  -33.3686   26.2056 H   0  0  0  0  0  0
  -28.3838  -32.6903   25.0267 H   0  0  0  0  0  0
  -28.0736  -31.8487   26.5384 H   0  0  0  0  0  0
  -28.2605  -38.0116   24.7559 H   0  0  0  0  0  0
  -28.1096  -36.2668   24.6227 H   0  0  0  0  0  0
  -27.2315  -37.1415   25.8851 H   0  0  0  0  0  0
  -20.9254  -29.8778   21.6983 H   0  0  0  0  0  0
  -26.0207  -38.2909   24.1420 H   0  0  0  0  0  0
  -29.2975  -19.7465   19.0578 H   0  0  0  0  0  0
  -32.2488  -18.8202   21.9060 H   0  0  0  0  0  0
  -30.6561  -16.1829   18.2233 H   0  0  0  0  0  0
  -31.3269  -17.7851   17.9490 H   0  0  0  0  0  0
  -29.5903  -17.5732   18.1465 H   0  0  0  0  0  0
  -29.6474  -15.7653   23.3883 H   0  0  0  0  0  0
  -31.3202  -16.1393   22.9596 H   0  0  0  0  0  0
  -30.8224  -14.4680   23.2181 H   0  0  0  0  0  0
  -29.5990  -22.5313   19.1567 H   0  0  0  0  0  0
  -31.1718  -22.9689   19.7510 H   0  0  0  0  0  0
  -30.1878  -23.1109   22.0838 H   0  0  0  0  0  0
  -28.5964  -22.8935   21.4089 H   0  0  0  0  0  0
  -30.4250  -25.1041   20.3416 H   0  0  0  0  0  0
  -29.6527  -25.3137   21.8870 H   0  0  0  0  0  0
  -28.8084  -16.4229   20.1898 H   0  0  0  0  0  0
  -29.2749  -17.2502   21.6327 H   0  0  0  0  0  0
  -27.4193  -25.0434   20.8665 H   0  0  0  0  0  0
  -28.1465  -24.8582   19.2670 H   0  0  0  0  0  0
  -31.7211  -17.0593   20.2850 H   0  0  0  0  0  0
  1 25  1  0  0  0
  1 30  2  0  0  0
  1 84  1  0  0  0
  2  3  1  0  0  0
  2 25  1  0  0  0
  2 85  1  0  0  0
  2 86  1  0  0  0
  3  4  1  0  0  0
  3 87  1  0  0  0
  3 88  1  0  0  0
  4  5  1  0  0  0
  4 89  1  0  0  0
  4 90  1  0  0  0
  5  6  1  0  0  0
  5 26  1  0  0  0
  5 91  1  0  0  0
  6 25  1  0  0  0
  6 92  1  0  0  0
  6 93  1  0  0  0
  7  8  2  0  0  0
  7 26  1  0  0  0
  7 29  1  0  0  0
  8  9  1  0  0  0
  8 22  1  0  0  0
  9 10  1  0  0  0
  9 27  2  0  0  0
 10 11  2  0  0  0
 10 15  1  0  0  0
 11 12  1  0  0  0
 11 94  1  0  0  0
 12 13  2  0  0  0
 12 95  1  0  0  0
 13 14  1  0  0  0
 13 31  1  0  0  0
 14 15  2  0  0  0
 14 96  1  0  0  0
 15 97  1  0  0  0
 16 17  2  0  0  0
 16 21  1  0  0  0
 16 31  1  0  0  0
 17 18  1  0  0  0
 17 98  1  0  0  0
 18 19  2  0  0  0
 18 99  1  0  0  0
 19 20  1  0  0  0
 19 24  1  0  0  0
 20 21  2  0  0  0
 20100  1  0  0  0
 21 23  1  0  0  0
 22 28  1  0  0  0
 22 32  2  0  0  0
 26 27  1  0  0  0
 28101  1  0  0  0
 28102  1  0  0  0
 29103  1  0  0  0
 29104  1  0  0  0
 33 34  1  0  0  0
 33 66  1  0  0  0
 33 70  2  0  0  0
 34 36  1  0  0  0
 34 59  1  0  0  0
 34105  1  0  0  0
 35 44  2  0  0  0
 35 45  1  0  0  0
 35 68  1  0  0  0
 36 56  1  0  0  0
 36106  1  0  0  0
 37 39  1  0  0  0
 37 47  1  0  0  0
 37 66  1  0  0  0
 37107  1  0  0  0
 38 43  2  0  0  0
 38 46  1  0  0  0
 38 47  1  0  0  0
 39 64  1  0  0  0
 39 67  2  0  0  0
 40 52  1  0  0  0
 40 53  2  0  0  0
 40 58  1  0  0  0
 41108  1  0  0  0
 41109  1  0  0  0
 41110  1  0  0  0
 41 48  1  0  0  0
 42 43  1  0  0  0
 42 66  1  0  0  0
 42111  1  0  0  0
 42112  1  0  0  0
 43 44  1  0  0  0
 44113  1  0  0  0
 45 46  2  0  0  0
 45114  1  0  0  0
 46115  1  0  0  0
 47116  1  0  0  0
 47117  1  0  0  0
 48 56  1  0  0  0
 48 65  1  0  0  0
 48118  1  0  0  0
 49 50  1  0  0  0
 49 53  1  0  0  0
 49 64  1  0  0  0
 49119  1  0  0  0
 50 51  1  0  0  0
 50120  1  0  0  0
 50121  1  0  0  0
 51 52  1  0  0  0
 51122  1  0  0  0
 51123  1  0  0  0
 52124  1  0  0  0
 52125  1  0  0  0
 53 54  1  0  0  0
 54 55  2  0  0  0
 54126  1  0  0  0
 55 57  1  0  0  0
 55127  1  0  0  0
 56 69  2  0  0  0
 57 58  2  0  0  0
 57128  1  0  0  0
 58129  1  0  0  0
 59 60  1  0  0  0
 59 61  1  0  0  0
 59 62  1  0  0  0
 60130  1  0  0  0
 60131  1  0  0  0
 60132  1  0  0  0
 61133  1  0  0  0
 61134  1  0  0  0
 61135  1  0  0  0
 62136  1  0  0  0
 62137  1  0  0  0
 62138  1  0  0  0
 63 65  1  0  0  0
 63139  1  0  0  0
 63140  1  0  0  0
 63141  1  0  0  0
 64142  1  0  0  0
 65143  1  0  0  0
 68 80  1  0  0  0
 71 73  2  0  0  0
 71 83  1  0  0  0
 71144  1  0  0  0
 72 82  2  0  0  0
 72 83  1  0  0  0
 72145  1  0  0  0
 73 76  1  0  0  0
 73 82  1  0  0  0
 74146  1  0  0  0
 74147  1  0  0  0
 74148  1  0  0  0
 74 81  1  0  0  0
 75 84  1  0  0  0
 75149  1  0  0  0
 75150  1  0  0  0
 75151  1  0  0  0
 76 77  1  0  0  0
 76152  1  0  0  0
 76153  1  0  0  0
 77 78  1  0  0  0
 77154  1  0  0  0
 77155  1  0  0  0
 78 80  1  0  0  0
 78156  1  0  0  0
 78157  1  0  0  0
 79 81  1  0  0  0
 79 84  1  0  0  0
 79158  1  0  0  0
 79159  1  0  0  0
 80160  1  0  0  0
 80161  1  0  0  0
 81 83  1  0  0  0
 81162  1  0  0  0
M  ISO  4   1 100  68 101  80 101  84 100
M  END
> <chiral flag>
0

> <version>
0

> <s_m_source_file>
/data/baiqing/PycharmProjects/Reinvent-master-3.2/result/LINK_invent/BTK/process_docking_weight1_custom_sum_contain_oxygen_bond_distance_aromatic_linkinvent_7_9_3/rearranged_h_0051.sdf

> <i_m_source_file_index>
70

> <r_mmod_Potential_Energy-OPLS-2005>
80.382438659668

> <r_mmod_Stretch_Energy-OPLS-2005>
33.2892951965332

> <r_mmod_Bend_Energy-OPLS-2005>
100.499397277832

> <r_mmod_Torsional_Energy-OPLS-2005>
324.739013671875

> <r_mmod_Improper_Torsional_Energy-OPLS-2005>
4.32047605514526

> <r_mmod_Van_der_Waal_Energy-OPLS-2005>
131.271560668945

> <r_mmod_Electrostatic_Energy-OPLS-2005>
-317.889465332031

> <r_mmod_Solvation_Energy-OPLS-2005>
-205.127227783203

> <b_mmod_Minimization_Converged-OPLS-2005>
0

> <r_mmod_RMS_Derivative-OPLS-2005>
3.47271680831909

$$$$
71
                    3D
 Structure written by MMmdl.
163171  0  0  1  0            999 V2000
  -30.6188  -14.7374   20.3935 C   0  0  0  0  0  0
  -30.4386  -12.4249   19.4710 C   0  0  0  0  0  0
  -29.5071  -12.3978   18.2369 C   0  0  0  0  0  0
  -28.0244  -12.3018   18.6479 C   0  0  0  0  0  0
  -27.6380  -13.2238   19.8360 C   0  0  2  0  0  0
  -28.6906  -13.1918   20.9644 C   0  0  0  0  0  0
  -25.2546  -13.8208   20.5707 C   0  0  0  0  0  0
  -24.1819  -13.0465   20.9184 C   0  0  0  0  0  0
  -24.6382  -11.6925   20.8755 C   0  0  0  0  0  0
  -23.9055  -10.4308   21.0435 C   0  0  0  0  0  0
  -24.3608   -9.4227   21.9222 C   0  0  0  0  0  0
  -23.6289   -8.2259   22.0797 C   0  0  0  0  0  0
  -22.4296   -8.0270   21.3548 C   0  0  0  0  0  0
  -21.9912   -9.0249   20.4658 C   0  0  0  0  0  0
  -22.7230  -10.2140   20.3081 C   0  0  0  0  0  0
  -21.6845   -6.0734   22.5276 C   0  0  0  0  0  0
  -21.4015   -6.5648   23.8204 C   0  0  0  0  0  0
  -21.3676   -5.6800   24.9166 C   0  0  0  0  0  0
  -21.6041   -4.3053   24.7235 C   0  0  0  0  0  0
  -21.8824   -3.8148   23.4355 C   0  0  0  0  0  0
  -21.9208   -4.6963   22.3403 C   0  0  0  0  0  0
  -22.7844  -13.5246   21.1831 C   0  0  0  0  0  0
  -22.1668   -4.2146   21.0974 F   0  0  0  0  0  0
  -21.5636   -3.4533   25.7753 F   0  0  0  0  0  0
  -29.9845  -13.5177   20.3563 N   0  0  0  0  0  0
  -26.2942  -12.9383   20.3275 N   0  0  0  0  0  0
  -25.9314  -11.6539   20.5814 N   0  0  0  0  0  0
  -22.0501  -12.8194   22.0367 N   0  0  0  0  0  0
  -25.4249  -15.1940   20.4157 N   0  0  0  0  0  0
  -31.8400  -14.8025   20.2266 O   0  0  0  0  0  0
  -21.6650   -6.8874   21.4244 O   0  0  0  0  0  0
  -22.3513  -14.5564   20.6712 O   0  0  0  0  0  0
  -24.6322  -31.8560   23.2041 C   0  0  0  0  0  0
  -25.9167  -32.4755   23.8377 C   0  0  1  0  0  0
  -27.2140  -27.2808   20.1087 C   0  0  0  0  0  0
  -25.6008  -33.8574   24.2318 N   0  0  0  0  0  0
  -23.4279  -30.4827   21.5457 C   0  0  2  0  0  0
  -24.8728  -28.9409   20.1087 C   0  0  0  0  0  0
  -22.7513  -29.4596   22.4900 C   0  0  0  0  0  0
  -18.0306  -28.1371   22.8486 C   0  0  0  0  0  0
  -24.1523  -36.7255   23.2627 C   0  0  0  0  0  0
  -25.9746  -30.7745   21.3870 C   0  0  0  0  0  0
  -26.0456  -29.4031   20.7180 C   0  0  0  0  0  0
  -27.2194  -28.5848   20.7072 C   0  0  0  0  0  0
  -26.0179  -26.8889   19.4657 C   0  0  0  0  0  0
  -24.8638  -27.6922   19.4727 C   0  0  0  0  0  0
  -23.6467  -29.8297   20.1584 C   0  0  0  0  0  0
  -25.4139  -36.3055   24.0328 C   0  0  1  0  0  0
  -20.5904  -28.3686   23.1262 C   0  0  2  0  0  0
  -20.6810  -26.9396   22.5392 C   0  0  0  0  0  0
  -19.5776  -26.6376   21.5210 C   0  0  0  0  0  0
  -18.1947  -26.7928   22.1595 C   0  0  0  0  0  0
  -19.1553  -28.8847   23.2878 C   0  0  0  0  0  0
  -18.9452  -30.1458   23.8878 C   0  0  0  0  0  0
  -17.6443  -30.6561   24.0568 C   0  0  0  0  0  0
  -25.9069  -34.9436   23.5102 C   0  0  0  0  0  0
  -16.5350  -29.9046   23.6330 C   0  0  0  0  0  0
  -16.7291  -28.6476   23.0343 C   0  0  0  0  0  0
  -26.4565  -31.6557   25.0741 C   0  0  0  0  0  0
  -25.3802  -31.3651   26.1457 C   0  0  0  0  0  0
  -27.0430  -30.2983   24.6217 C   0  0  0  0  0  0
  -27.6123  -32.4296   25.7520 C   0  0  0  0  0  0
  -27.5599  -37.1785   24.8460 C   0  0  0  0  0  0
  -21.4213  -29.3051   22.3667 N   0  0  0  0  0  0
  -26.4324  -37.3753   23.9407 N   0  0  0  0  0  0
  -24.6962  -31.0542   22.1012 N   0  0  0  0  0  0
  -23.4219  -28.8105   23.2972 O   0  0  0  0  0  0
  -28.3117  -26.3925   20.1645 O   0  0  0  0  0  0
  -26.5572  -34.8890   22.4631 O   0  0  0  0  0  0
  -23.5478  -32.1368   23.7347 O   0  0  0  0  0  0
  -27.7588  -21.5611   21.9912 C   0  0  0  0  0  0
  -28.1888  -19.4077   22.3188 C   0  0  0  0  0  0
  -28.6062  -21.1950   20.9795 C   0  0  0  0  0  0
  -28.8635  -19.7391   21.1699 C   0  0  0  0  0  0
  -31.1101  -19.0243   20.1896 C   0  0  0  0  0  0
  -26.5570  -20.4494   23.9144 C   0  0  0  0  0  0
  -29.6502  -16.1517   18.6723 C   0  0  0  0  0  0
  -29.0223  -22.2742   19.9142 C   0  0  0  0  0  0
  -29.1549  -23.8317   20.3497 C   0  0  0  0  0  0
  -29.5601  -17.0846   20.9674 C   0  0  0  0  0  0
  -28.0908  -24.9367   19.8847 C   0  0  0  0  0  0
  -29.6417  -18.6118   20.3787 C   0  0  1  0  0  0
  -27.4715  -20.4791   22.7874 N   0  0  0  0  0  0
  -29.8446  -15.8608   20.1007 N   0  0  0  0  0  0
  -31.4744  -12.5504   19.1508 H   0  0  0  0  0  0
  -30.4002  -11.4774   20.0091 H   0  0  0  0  0  0
  -29.7532  -11.5456   17.6006 H   0  0  0  0  0  0
  -29.6700  -13.2714   17.6120 H   0  0  0  0  0  0
  -27.8328  -11.2618   18.9130 H   0  0  0  0  0  0
  -27.3880  -12.5127   17.7870 H   0  0  0  0  0  0
  -27.6229  -14.2352   19.4334 H   0  0  0  0  0  0
  -28.7268  -12.2125   21.4429 H   0  0  0  0  0  0
  -28.4370  -13.9136   21.7435 H   0  0  0  0  0  0
  -25.2765   -9.5694   22.4772 H   0  0  0  0  0  0
  -23.9998   -7.4655   22.7523 H   0  0  0  0  0  0
  -21.0865   -8.8770   19.8936 H   0  0  0  0  0  0
  -22.3726  -10.9674   19.6168 H   0  0  0  0  0  0
  -21.1993   -7.6156   23.9693 H   0  0  0  0  0  0
  -21.1487   -6.0538   25.9053 H   0  0  0  0  0  0
  -22.0588   -2.7617   23.2861 H   0  0  0  0  0  0
  -22.4111  -11.9817   22.4699 H   0  0  0  0  0  0
  -21.1127  -13.1202   22.2614 H   0  0  0  0  0  0
  -24.6648  -15.8526   20.5339 H   0  0  0  0  0  0
  -26.2889  -15.6397   20.1328 H   0  0  0  0  0  0
  -26.7228  -32.5407   23.1118 H   0  0  0  0  0  0
  -25.0405  -33.9752   25.0627 H   0  0  0  0  0  0
  -22.7241  -31.3043   21.4059 H   0  0  0  0  0  0
  -23.3813  -35.9549   23.3255 H   0  0  0  0  0  0
  -24.3613  -36.8900   22.2045 H   0  0  0  0  0  0
  -23.7239  -37.6432   23.6662 H   0  0  0  0  0  0
  -26.1284  -31.5485   20.6330 H   0  0  0  0  0  0
  -26.8446  -30.8047   22.0309 H   0  0  0  0  0  0
  -28.1186  -28.9344   21.1950 H   0  0  0  0  0  0
  -25.9421  -25.9411   18.9546 H   0  0  0  0  0  0
  -23.9679  -27.3383   18.9823 H   0  0  0  0  0  0
  -23.7780  -30.6156   19.4125 H   0  0  0  0  0  0
  -22.7660  -29.2706   19.8412 H   0  0  0  0  0  0
  -25.1330  -36.1914   25.0815 H   0  0  0  0  0  0
  -21.0004  -28.3250   24.1382 H   0  0  0  0  0  0
  -20.5756  -26.2264   23.3580 H   0  0  0  0  0  0
  -21.6665  -26.7451   22.1146 H   0  0  0  0  0  0
  -19.6936  -25.6286   21.1247 H   0  0  0  0  0  0
  -19.6742  -27.3191   20.6746 H   0  0  0  0  0  0
  -17.4235  -26.6720   21.3976 H   0  0  0  0  0  0
  -18.0316  -26.0060   22.8966 H   0  0  0  0  0  0
  -19.7913  -30.7319   24.2221 H   0  0  0  0  0  0
  -17.4964  -31.6227   24.5170 H   0  0  0  0  0  0
  -15.5336  -30.2919   23.7658 H   0  0  0  0  0  0
  -15.8710  -28.0801   22.7027 H   0  0  0  0  0  0
  -24.6029  -30.6957   25.7754 H   0  0  0  0  0  0
  -24.8959  -32.2800   26.4886 H   0  0  0  0  0  0
  -25.8155  -30.8825   27.0217 H   0  0  0  0  0  0
  -26.3000  -29.6684   24.1321 H   0  0  0  0  0  0
  -27.4210  -29.7297   25.4716 H   0  0  0  0  0  0
  -27.8842  -30.4274   23.9404 H   0  0  0  0  0  0
  -27.2760  -33.3628   26.2053 H   0  0  0  0  0  0
  -28.3966  -32.6787   25.0358 H   0  0  0  0  0  0
  -28.0750  -31.8437   26.5469 H   0  0  0  0  0  0
  -28.2572  -38.0131   24.7560 H   0  0  0  0  0  0
  -28.1155  -36.2657   24.6253 H   0  0  0  0  0  0
  -27.2308  -37.1382   25.8860 H   0  0  0  0  0  0
  -20.9360  -29.8798   21.6912 H   0  0  0  0  0  0
  -26.0198  -38.2814   24.1418 H   0  0  0  0  0  0
  -27.3007  -22.5201   22.2073 H   0  0  0  0  0  0
  -28.1135  -18.4624   22.8425 H   0  0  0  0  0  0
  -31.2013  -19.9619   19.6432 H   0  0  0  0  0  0
  -31.6741  -18.2769   19.6344 H   0  0  0  0  0  0
  -31.6035  -19.1533   21.1542 H   0  0  0  0  0  0
  -25.8107  -21.2392   23.8213 H   0  0  0  0  0  0
  -27.0944  -20.5733   24.8544 H   0  0  0  0  0  0
  -26.0374  -19.4899   23.9379 H   0  0  0  0  0  0
  -28.6143  -16.4174   18.4724 H   0  0  0  0  0  0
  -29.8967  -15.3127   18.0263 H   0  0  0  0  0  0
  -30.2851  -16.9691   18.3342 H   0  0  0  0  0  0
  -28.3280  -22.1990   19.0754 H   0  0  0  0  0  0
  -29.9805  -21.9578   19.5043 H   0  0  0  0  0  0
  -30.1048  -24.1727   19.9350 H   0  0  0  0  0  0
  -29.3047  -23.8966   21.4271 H   0  0  0  0  0  0
  -28.5298  -16.9155   21.2848 H   0  0  0  0  0  0
  -30.1559  -17.0164   21.8804 H   0  0  0  0  0  0
  -27.1419  -24.6292   20.3251 H   0  0  0  0  0  0
  -27.9705  -24.8392   18.8030 H   0  0  0  0  0  0
  -29.1557  -18.6231   19.4034 H   0  0  0  0  0  0
  1 25  1  0  0  0
  1 30  2  0  0  0
  1 84  1  0  0  0
  2  3  1  0  0  0
  2 25  1  0  0  0
  2 85  1  0  0  0
  2 86  1  0  0  0
  3  4  1  0  0  0
  3 87  1  0  0  0
  3 88  1  0  0  0
  4  5  1  0  0  0
  4 89  1  0  0  0
  4 90  1  0  0  0
  5  6  1  0  0  0
  5 26  1  0  0  0
  5 91  1  0  0  0
  6 25  1  0  0  0
  6 92  1  0  0  0
  6 93  1  0  0  0
  7  8  2  0  0  0
  7 26  1  0  0  0
  7 29  1  0  0  0
  8  9  1  0  0  0
  8 22  1  0  0  0
  9 10  1  0  0  0
  9 27  2  0  0  0
 10 11  2  0  0  0
 10 15  1  0  0  0
 11 12  1  0  0  0
 11 94  1  0  0  0
 12 13  2  0  0  0
 12 95  1  0  0  0
 13 14  1  0  0  0
 13 31  1  0  0  0
 14 15  2  0  0  0
 14 96  1  0  0  0
 15 97  1  0  0  0
 16 17  2  0  0  0
 16 21  1  0  0  0
 16 31  1  0  0  0
 17 18  1  0  0  0
 17 98  1  0  0  0
 18 19  2  0  0  0
 18 99  1  0  0  0
 19 20  1  0  0  0
 19 24  1  0  0  0
 20 21  2  0  0  0
 20100  1  0  0  0
 21 23  1  0  0  0
 22 28  1  0  0  0
 22 32  2  0  0  0
 26 27  1  0  0  0
 28101  1  0  0  0
 28102  1  0  0  0
 29103  1  0  0  0
 29104  1  0  0  0
 33 34  1  0  0  0
 33 66  1  0  0  0
 33 70  2  0  0  0
 34 36  1  0  0  0
 34 59  1  0  0  0
 34105  1  0  0  0
 35 44  2  0  0  0
 35 45  1  0  0  0
 35 68  1  0  0  0
 36 56  1  0  0  0
 36106  1  0  0  0
 37 39  1  0  0  0
 37 47  1  0  0  0
 37 66  1  0  0  0
 37107  1  0  0  0
 38 43  2  0  0  0
 38 46  1  0  0  0
 38 47  1  0  0  0
 39 64  1  0  0  0
 39 67  2  0  0  0
 40 52  1  0  0  0
 40 53  2  0  0  0
 40 58  1  0  0  0
 41108  1  0  0  0
 41109  1  0  0  0
 41110  1  0  0  0
 41 48  1  0  0  0
 42 43  1  0  0  0
 42 66  1  0  0  0
 42111  1  0  0  0
 42112  1  0  0  0
 43 44  1  0  0  0
 44113  1  0  0  0
 45 46  2  0  0  0
 45114  1  0  0  0
 46115  1  0  0  0
 47116  1  0  0  0
 47117  1  0  0  0
 48 56  1  0  0  0
 48 65  1  0  0  0
 48118  1  0  0  0
 49 50  1  0  0  0
 49 53  1  0  0  0
 49 64  1  0  0  0
 49119  1  0  0  0
 50 51  1  0  0  0
 50120  1  0  0  0
 50121  1  0  0  0
 51 52  1  0  0  0
 51122  1  0  0  0
 51123  1  0  0  0
 52124  1  0  0  0
 52125  1  0  0  0
 53 54  1  0  0  0
 54 55  2  0  0  0
 54126  1  0  0  0
 55 57  1  0  0  0
 55127  1  0  0  0
 56 69  2  0  0  0
 57 58  2  0  0  0
 57128  1  0  0  0
 58129  1  0  0  0
 59 60  1  0  0  0
 59 61  1  0  0  0
 59 62  1  0  0  0
 60130  1  0  0  0
 60131  1  0  0  0
 60132  1  0  0  0
 61133  1  0  0  0
 61134  1  0  0  0
 61135  1  0  0  0
 62136  1  0  0  0
 62137  1  0  0  0
 62138  1  0  0  0
 63 65  1  0  0  0
 63139  1  0  0  0
 63140  1  0  0  0
 63141  1  0  0  0
 64142  1  0  0  0
 65143  1  0  0  0
 68 81  1  0  0  0
 71 73  2  0  0  0
 71 83  1  0  0  0
 71144  1  0  0  0
 72 74  2  0  0  0
 72 83  1  0  0  0
 72145  1  0  0  0
 73 74  1  0  0  0
 73 78  1  0  0  0
 74 82  1  0  0  0
 75146  1  0  0  0
 75147  1  0  0  0
 75148  1  0  0  0
 75 82  1  0  0  0
 76 83  1  0  0  0
 76149  1  0  0  0
 76150  1  0  0  0
 76151  1  0  0  0
 77 84  1  0  0  0
 77152  1  0  0  0
 77153  1  0  0  0
 77154  1  0  0  0
 78 79  1  0  0  0
 78155  1  0  0  0
 78156  1  0  0  0
 79 81  1  0  0  0
 79157  1  0  0  0
 79158  1  0  0  0
 80 82  1  0  0  0
 80 84  1  0  0  0
 80159  1  0  0  0
 80160  1  0  0  0
 81161  1  0  0  0
 81162  1  0  0  0
 82163  1  0  0  0
M  ISO  4   1 100  68 101  81 101  84 100
M  END
> <chiral flag>
0

> <version>
0

> <s_m_source_file>
/data/baiqing/PycharmProjects/Reinvent-master-3.2/result/LINK_invent/BTK/process_docking_weight1_custom_sum_contain_oxygen_bond_distance_aromatic_linkinvent_7_9_3/rearranged_h_0051.sdf

> <i_m_source_file_index>
71

> <r_mmod_Potential_Energy-OPLS-2005>
314.555755615234

> <r_mmod_Stretch_Energy-OPLS-2005>
120.41431427002

> <r_mmod_Bend_Energy-OPLS-2005>
177.802917480469

> <r_mmod_Torsional_Energy-OPLS-2005>
328.699981689453

> <r_mmod_Improper_Torsional_Energy-OPLS-2005>
17.3533210754395

> <r_mmod_Van_der_Waal_Energy-OPLS-2005>
118.855278015137

> <r_mmod_Electrostatic_Energy-OPLS-2005>
-337.082885742188

> <r_mmod_Solvation_Energy-OPLS-2005>
-199.236679077148

> <b_mmod_Minimization_Converged-OPLS-2005>
0

> <r_mmod_RMS_Derivative-OPLS-2005>
4.1669716835022

$$$$
72
                    3D
 Structure written by MMmdl.
171179  0  0  1  0            999 V2000
  -30.7495  -14.4504   20.6392 C   0  0  0  0  0  0
  -30.4195  -12.3243   19.4165 C   0  0  0  0  0  0
  -29.4875  -12.4977   18.2018 C   0  0  0  0  0  0
  -28.0154  -12.3250   18.6209 C   0  0  0  0  0  0
  -27.6519  -13.1830   19.8563 C   0  0  2  0  0  0
  -28.6956  -13.0031   20.9865 C   0  0  0  0  0  0
  -25.2578  -13.8096   20.5653 C   0  0  0  0  0  0
  -24.1822  -13.0404   20.9193 C   0  0  0  0  0  0
  -24.6352  -11.6866   20.8752 C   0  0  0  0  0  0
  -23.9018  -10.4269   21.0425 C   0  0  0  0  0  0
  -24.3581   -9.4187   21.9198 C   0  0  0  0  0  0
  -23.6264   -8.2220   22.0761 C   0  0  0  0  0  0
  -22.4252   -8.0259   21.3544 C   0  0  0  0  0  0
  -21.9877   -9.0234   20.4650 C   0  0  0  0  0  0
  -22.7199  -10.2116   20.3065 C   0  0  0  0  0  0
  -21.6839   -6.0716   22.5277 C   0  0  0  0  0  0
  -21.4004   -6.5626   23.8208 C   0  0  0  0  0  0
  -21.3664   -5.6786   24.9178 C   0  0  0  0  0  0
  -21.6047   -4.3047   24.7234 C   0  0  0  0  0  0
  -21.8816   -3.8132   23.4356 C   0  0  0  0  0  0
  -21.9186   -4.6945   22.3409 C   0  0  0  0  0  0
  -22.7854  -13.5232   21.1862 C   0  0  0  0  0  0
  -22.1654   -4.2128   21.0985 F   0  0  0  0  0  0
  -21.5639   -3.4538   25.7751 F   0  0  0  0  0  0
  -30.0300  -13.3087   20.4413 N   0  0  0  0  0  0
  -26.2962  -12.9210   20.3269 N   0  0  0  0  0  0
  -25.9258  -11.6405   20.5744 N   0  0  0  0  0  0
  -22.0476  -12.8238   22.0414 N   0  0  0  0  0  0
  -25.4299  -15.1816   20.4034 N   0  0  0  0  0  0
  -31.8318  -14.6554   20.0830 O   0  0  0  0  0  0
  -21.6619   -6.8856   21.4238 O   0  0  0  0  0  0
  -22.3559  -14.5545   20.6714 O   0  0  0  0  0  0
  -24.6121  -31.8677   23.2103 C   0  0  0  0  0  0
  -25.9025  -32.4820   23.8392 C   0  0  1  0  0  0
  -27.2459  -27.4509   20.0881 C   0  0  0  0  0  0
  -25.5886  -33.8616   24.2324 N   0  0  0  0  0  0
  -23.3996  -30.4875   21.5527 C   0  0  2  0  0  0
  -24.8463  -28.9515   20.1179 C   0  0  0  0  0  0
  -22.7398  -29.4629   22.5014 C   0  0  0  0  0  0
  -18.0265  -28.1373   22.8461 C   0  0  0  0  0  0
  -24.1482  -36.7320   23.2645 C   0  0  0  0  0  0
  -25.9236  -30.8369   21.3595 C   0  0  0  0  0  0
  -26.0031  -29.4718   20.7083 C   0  0  0  0  0  0
  -27.2025  -28.7280   20.6901 C   0  0  0  0  0  0
  -26.0676  -26.9350   19.4983 C   0  0  0  0  0  0
  -24.8717  -27.6813   19.5145 C   0  0  0  0  0  0
  -23.6077  -29.8185   20.1668 C   0  0  0  0  0  0
  -25.4106  -36.3106   24.0336 C   0  0  1  0  0  0
  -20.5845  -28.3645   23.1327 C   0  0  2  0  0  0
  -20.6746  -26.9384   22.5418 C   0  0  0  0  0  0
  -19.5734  -26.6381   21.5198 C   0  0  0  0  0  0
  -18.1913  -26.7907   22.1605 C   0  0  0  0  0  0
  -19.1509  -28.8826   23.2878 C   0  0  0  0  0  0
  -18.9448  -30.1438   23.8885 C   0  0  0  0  0  0
  -17.6453  -30.6577   24.0554 C   0  0  0  0  0  0
  -25.9032  -34.9471   23.5132 C   0  0  0  0  0  0
  -16.5345  -29.9081   23.6316 C   0  0  0  0  0  0
  -16.7254  -28.6507   23.0308 C   0  0  0  0  0  0
  -26.4463  -31.6591   25.0701 C   0  0  0  0  0  0
  -25.3725  -31.3707   26.1444 C   0  0  0  0  0  0
  -27.0295  -30.3037   24.6053 C   0  0  0  0  0  0
  -27.6041  -32.4310   25.7460 C   0  0  0  0  0  0
  -27.5582  -37.1805   24.8464 C   0  0  0  0  0  0
  -21.4136  -29.3009   22.3754 N   0  0  0  0  0  0
  -26.4297  -37.3784   23.9410 N   0  0  0  0  0  0
  -24.6638  -31.0776   22.1007 N   0  0  0  0  0  0
  -23.4174  -28.8174   23.3065 O   0  0  0  0  0  0
  -28.4504  -26.7791   20.0942 O   0  0  0  0  0  0
  -26.5604  -34.8924   22.4700 O   0  0  0  0  0  0
  -23.5327  -32.1433   23.7500 O   0  0  0  0  0  0
  -29.4127  -21.6047   19.8225 C   0  0  0  0  0  0
  -30.1222  -20.3803   19.6552 C   0  0  0  0  0  0
  -30.1604  -22.3349   20.7023 C   0  0  0  0  0  0
  -30.6203  -14.8978   23.9344 C   0  0  0  0  0  0
  -32.3458  -21.8259   21.9380 C   0  0  0  0  0  0
  -29.4428  -16.8493   18.3586 C   0  0  0  0  0  0
  -29.7425  -19.2141   18.7679 C   0  0  0  0  0  0
  -29.9175  -23.7065   21.2705 C   0  0  0  0  0  0
  -29.8804  -24.8411   20.2204 C   0  0  0  0  0  0
  -31.0608  -15.7132   22.7093 C   0  0  0  0  0  0
  -29.1071  -16.2430   21.2656 C   0  0  0  0  0  0
  -29.3794  -17.6874   20.7281 C   0  0  0  0  0  0
  -28.4755  -25.3714   19.8506 C   0  0  0  0  0  0
  -31.2347  -20.3577   20.3760 N   0  0  0  0  0  0
  -31.2534  -21.5451   21.0262 N   0  0  0  0  0  0
  -30.2643  -15.3546   21.5276 N   0  0  0  0  0  0
  -29.9302  -17.8478   19.3441 N   0  3  1  0  0  0
  -31.4616  -12.4260   19.1077 H   0  0  0  0  0  0
  -30.3335  -11.3149   19.8223 H   0  0  0  0  0  0
  -29.7412  -11.7715   17.4284 H   0  0  0  0  0  0
  -29.6339  -13.4821   17.7554 H   0  0  0  0  0  0
  -27.8523  -11.2702   18.8429 H   0  0  0  0  0  0
  -27.3548  -12.5643   17.7868 H   0  0  0  0  0  0
  -27.6685  -14.2040   19.4900 H   0  0  0  0  0  0
  -28.6831  -11.9749   21.3501 H   0  0  0  0  0  0
  -28.4386  -13.6140   21.8520 H   0  0  0  0  0  0
  -25.2727   -9.5662   22.4771 H   0  0  0  0  0  0
  -23.9972   -7.4609   22.7479 H   0  0  0  0  0  0
  -21.0809   -8.8749   19.8958 H   0  0  0  0  0  0
  -22.3661  -10.9654   19.6171 H   0  0  0  0  0  0
  -21.1985   -7.6132   23.9705 H   0  0  0  0  0  0
  -21.1497   -6.0521   25.9081 H   0  0  0  0  0  0
  -22.0593   -2.7593   23.2865 H   0  0  0  0  0  0
  -22.4064  -11.9886   22.4801 H   0  0  0  0  0  0
  -21.1101  -13.1292   22.2623 H   0  0  0  0  0  0
  -24.6575  -15.8305   20.5097 H   0  0  0  0  0  0
  -26.2665  -15.6192   20.0452 H   0  0  0  0  0  0
  -26.7103  -32.5524   23.1171 H   0  0  0  0  0  0
  -24.9964  -33.9781   25.0416 H   0  0  0  0  0  0
  -22.6873  -31.3029   21.4155 H   0  0  0  0  0  0
  -23.3727  -35.9665   23.3312 H   0  0  0  0  0  0
  -24.3589  -36.8930   22.2060 H   0  0  0  0  0  0
  -23.7250  -37.6534   23.6652 H   0  0  0  0  0  0
  -26.0247  -31.6004   20.5861 H   0  0  0  0  0  0
  -26.8145  -30.8968   21.9718 H   0  0  0  0  0  0
  -28.0975  -29.1294   21.1451 H   0  0  0  0  0  0
  -26.0561  -25.9666   19.0177 H   0  0  0  0  0  0
  -23.9794  -27.2726   19.0600 H   0  0  0  0  0  0
  -23.7169  -30.5942   19.4074 H   0  0  0  0  0  0
  -22.7294  -29.2428   19.8721 H   0  0  0  0  0  0
  -25.1279  -36.1978   25.0828 H   0  0  0  0  0  0
  -20.9904  -28.3219   24.1462 H   0  0  0  0  0  0
  -20.5645  -26.2258   23.3600 H   0  0  0  0  0  0
  -21.6624  -26.7436   22.1219 H   0  0  0  0  0  0
  -19.6897  -25.6300   21.1202 H   0  0  0  0  0  0
  -19.6681  -27.3203   20.6737 H   0  0  0  0  0  0
  -17.4176  -26.6639   21.4008 H   0  0  0  0  0  0
  -18.0336  -26.0054   22.9018 H   0  0  0  0  0  0
  -19.7937  -30.7226   24.2271 H   0  0  0  0  0  0
  -17.5023  -31.6253   24.5166 H   0  0  0  0  0  0
  -15.5346  -30.2974   23.7662 H   0  0  0  0  0  0
  -15.8653  -28.0846   22.6994 H   0  0  0  0  0  0
  -24.5884  -30.7074   25.7778 H   0  0  0  0  0  0
  -24.8921  -32.2865   26.4886 H   0  0  0  0  0  0
  -25.8050  -30.8865   27.0206 H   0  0  0  0  0  0
  -26.2825  -29.6800   24.1110 H   0  0  0  0  0  0
  -27.4096  -29.7268   25.4498 H   0  0  0  0  0  0
  -27.8644  -30.4381   23.9171 H   0  0  0  0  0  0
  -27.2664  -33.3605   26.2062 H   0  0  0  0  0  0
  -28.3826  -32.6883   25.0266 H   0  0  0  0  0  0
  -28.0722  -31.8406   26.5353 H   0  0  0  0  0  0
  -28.2592  -38.0106   24.7511 H   0  0  0  0  0  0
  -28.1085  -36.2636   24.6282 H   0  0  0  0  0  0
  -27.2299  -37.1447   25.8866 H   0  0  0  0  0  0
  -20.9327  -29.8779   21.6993 H   0  0  0  0  0  0
  -26.0181  -38.2861   24.1407 H   0  0  0  0  0  0
  -28.4858  -21.9108   19.3574 H   0  0  0  0  0  0
  -31.2428  -15.1312   24.7989 H   0  0  0  0  0  0
  -30.6991  -13.8251   23.7522 H   0  0  0  0  0  0
  -29.5866  -15.1148   24.2072 H   0  0  0  0  0  0
  -31.9606  -21.9009   22.9549 H   0  0  0  0  0  0
  -32.8263  -22.7662   21.6679 H   0  0  0  0  0  0
  -33.0906  -21.0302   21.9076 H   0  0  0  0  0  0
  -29.8551  -17.0440   17.3677 H   0  0  0  0  0  0
  -28.3555  -16.8786   18.2753 H   0  0  0  0  0  0
  -29.7321  -15.8342   18.6055 H   0  0  0  0  0  0
  -30.3215  -19.2848   17.8470 H   0  0  0  0  0  0
  -28.7002  -19.3276   18.4635 H   0  0  0  0  0  0
  -30.6971  -23.9434   21.9945 H   0  0  0  0  0  0
  -29.0023  -23.7015   21.8609 H   0  0  0  0  0  0
  -30.4278  -24.5527   19.3222 H   0  0  0  0  0  0
  -30.4538  -25.6717   20.6330 H   0  0  0  0  0  0
  -32.1246  -15.5410   22.5288 H   0  0  0  0  0  0
  -30.9734  -16.7765   22.9331 H   0  0  0  0  0  0
  -28.3898  -15.7674   20.6126 H   0  0  0  0  0  0
  -28.5674  -16.3376   22.2091 H   0  0  0  0  0  0
  -30.0264  -18.2137   21.4298 H   0  0  0  0  0  0
  -28.4280  -18.2223   20.7631 H   0  0  0  0  0  0
  -27.6983  -24.8708   20.4293 H   0  0  0  0  0  0
  -28.2767  -25.1734   18.7967 H   0  0  0  0  0  0
  -30.9305  -17.7390   19.4217 H   0  0  0  0  0  0
  1 25  1  0  0  0
  1 30  2  0  0  0
  1 86  1  0  0  0
  2  3  1  0  0  0
  2 25  1  0  0  0
  2 88  1  0  0  0
  2 89  1  0  0  0
  3  4  1  0  0  0
  3 90  1  0  0  0
  3 91  1  0  0  0
  4  5  1  0  0  0
  4 92  1  0  0  0
  4 93  1  0  0  0
  5  6  1  0  0  0
  5 26  1  0  0  0
  5 94  1  0  0  0
  6 25  1  0  0  0
  6 95  1  0  0  0
  6 96  1  0  0  0
  7  8  2  0  0  0
  7 26  1  0  0  0
  7 29  1  0  0  0
  8  9  1  0  0  0
  8 22  1  0  0  0
  9 10  1  0  0  0
  9 27  2  0  0  0
 10 11  2  0  0  0
 10 15  1  0  0  0
 11 12  1  0  0  0
 11 97  1  0  0  0
 12 13  2  0  0  0
 12 98  1  0  0  0
 13 14  1  0  0  0
 13 31  1  0  0  0
 14 15  2  0  0  0
 14 99  1  0  0  0
 15100  1  0  0  0
 16 17  2  0  0  0
 16 21  1  0  0  0
 16 31  1  0  0  0
 17 18  1  0  0  0
 17101  1  0  0  0
 18 19  2  0  0  0
 18102  1  0  0  0
 19 20  1  0  0  0
 19 24  1  0  0  0
 20 21  2  0  0  0
 20103  1  0  0  0
 21 23  1  0  0  0
 22 28  1  0  0  0
 22 32  2  0  0  0
 26 27  1  0  0  0
 28104  1  0  0  0
 28105  1  0  0  0
 29106  1  0  0  0
 29107  1  0  0  0
 33 34  1  0  0  0
 33 66  1  0  0  0
 33 70  2  0  0  0
 34 36  1  0  0  0
 34 59  1  0  0  0
 34108  1  0  0  0
 35 44  2  0  0  0
 35 45  1  0  0  0
 35 68  1  0  0  0
 36 56  1  0  0  0
 36109  1  0  0  0
 37 39  1  0  0  0
 37 47  1  0  0  0
 37 66  1  0  0  0
 37110  1  0  0  0
 38 43  2  0  0  0
 38 46  1  0  0  0
 38 47  1  0  0  0
 39 64  1  0  0  0
 39 67  2  0  0  0
 40 52  1  0  0  0
 40 53  2  0  0  0
 40 58  1  0  0  0
 41111  1  0  0  0
 41112  1  0  0  0
 41113  1  0  0  0
 41 48  1  0  0  0
 42 43  1  0  0  0
 42 66  1  0  0  0
 42114  1  0  0  0
 42115  1  0  0  0
 43 44  1  0  0  0
 44116  1  0  0  0
 45 46  2  0  0  0
 45117  1  0  0  0
 46118  1  0  0  0
 47119  1  0  0  0
 47120  1  0  0  0
 48 56  1  0  0  0
 48 65  1  0  0  0
 48121  1  0  0  0
 49 50  1  0  0  0
 49 53  1  0  0  0
 49 64  1  0  0  0
 49122  1  0  0  0
 50 51  1  0  0  0
 50123  1  0  0  0
 50124  1  0  0  0
 51 52  1  0  0  0
 51125  1  0  0  0
 51126  1  0  0  0
 52127  1  0  0  0
 52128  1  0  0  0
 53 54  1  0  0  0
 54 55  2  0  0  0
 54129  1  0  0  0
 55 57  1  0  0  0
 55130  1  0  0  0
 56 69  2  0  0  0
 57 58  2  0  0  0
 57131  1  0  0  0
 58132  1  0  0  0
 59 60  1  0  0  0
 59 61  1  0  0  0
 59 62  1  0  0  0
 60133  1  0  0  0
 60134  1  0  0  0
 60135  1  0  0  0
 61136  1  0  0  0
 61137  1  0  0  0
 61138  1  0  0  0
 62139  1  0  0  0
 62140  1  0  0  0
 62141  1  0  0  0
 63 65  1  0  0  0
 63142  1  0  0  0
 63143  1  0  0  0
 63144  1  0  0  0
 64145  1  0  0  0
 65146  1  0  0  0
 68 83  1  0  0  0
 71 72  1  0  0  0
 71 73  2  0  0  0
 71147  1  0  0  0
 72 77  1  0  0  0
 72 84  2  0  0  0
 73 78  1  0  0  0
 73 85  1  0  0  0
 74 80  1  0  0  0
 74148  1  0  0  0
 74149  1  0  0  0
 74150  1  0  0  0
 75 85  1  0  0  0
 75151  1  0  0  0
 75152  1  0  0  0
 75153  1  0  0  0
 76154  1  0  0  0
 76155  1  0  0  0
 76156  1  0  0  0
 76 87  1  0  0  0
 77 87  1  0  0  0
 77157  1  0  0  0
 77158  1  0  0  0
 78 79  1  0  0  0
 78159  1  0  0  0
 78160  1  0  0  0
 79 83  1  0  0  0
 79161  1  0  0  0
 79162  1  0  0  0
 80 86  1  0  0  0
 80163  1  0  0  0
 80164  1  0  0  0
 81 82  1  0  0  0
 81 86  1  0  0  0
 81165  1  0  0  0
 81166  1  0  0  0
 82 87  1  0  0  0
 82167  1  0  0  0
 82168  1  0  0  0
 83169  1  0  0  0
 83170  1  0  0  0
 84 85  1  0  0  0
 87171  1  0  0  0
M  CHG  1  87   1
M  ISO  4   1 100  68 101  83 101  86 100
M  END
> <chiral flag>
0

> <version>
0

> <s_m_source_file>
/data/baiqing/PycharmProjects/Reinvent-master-3.2/result/LINK_invent/BTK/process_docking_weight1_custom_sum_contain_oxygen_bond_distance_aromatic_linkinvent_7_9_3/rearranged_h_0051.sdf

> <i_m_source_file_index>
72

> <r_mmod_Potential_Energy-OPLS-2005>
-48.0152740478516

> <r_mmod_Stretch_Energy-OPLS-2005>
38.5687828063965

> <r_mmod_Bend_Energy-OPLS-2005>
121.231018066406

> <r_mmod_Torsional_Energy-OPLS-2005>
351.497955322266

> <r_mmod_Improper_Torsional_Energy-OPLS-2005>
2.40139245986938

> <r_mmod_Van_der_Waal_Energy-OPLS-2005>
128.047424316406

> <r_mmod_Electrostatic_Energy-OPLS-2005>
-290.238952636719

> <r_mmod_Solvation_Energy-OPLS-2005>
-411.343597412109

> <b_mmod_Minimization_Converged-OPLS-2005>
0

> <r_mmod_RMS_Derivative-OPLS-2005>
1.87533032894135

$$$$
73
                    3D
 Structure written by MMmdl.
165173  0  0  1  0            999 V2000
  -30.7359  -14.4024   20.6531 C   0  0  0  0  0  0
  -30.4172  -12.2947   19.4056 C   0  0  0  0  0  0
  -29.4875  -12.5236   18.1992 C   0  0  0  0  0  0
  -28.0108  -12.3779   18.6129 C   0  0  0  0  0  0
  -27.6634  -13.2009   19.8812 C   0  0  2  0  0  0
  -28.7004  -12.9498   20.9976 C   0  0  0  0  0  0
  -25.2585  -13.8156   20.5676 C   0  0  0  0  0  0
  -24.1831  -13.0438   20.9169 C   0  0  0  0  0  0
  -24.6376  -11.6905   20.8724 C   0  0  0  0  0  0
  -23.9039  -10.4291   21.0397 C   0  0  0  0  0  0
  -24.3600   -9.4215   21.9184 C   0  0  0  0  0  0
  -23.6284   -8.2246   22.0755 C   0  0  0  0  0  0
  -22.4268   -8.0278   21.3543 C   0  0  0  0  0  0
  -21.9898   -9.0243   20.4644 C   0  0  0  0  0  0
  -22.7212  -10.2127   20.3048 C   0  0  0  0  0  0
  -21.6850   -6.0732   22.5281 C   0  0  0  0  0  0
  -21.4015   -6.5637   23.8211 C   0  0  0  0  0  0
  -21.3660   -5.6790   24.9174 C   0  0  0  0  0  0
  -21.6042   -4.3052   24.7224 C   0  0  0  0  0  0
  -21.8820   -3.8143   23.4344 C   0  0  0  0  0  0
  -21.9191   -4.6962   22.3401 C   0  0  0  0  0  0
  -22.7856  -13.5242   21.1847 C   0  0  0  0  0  0
  -22.1658   -4.2146   21.0979 F   0  0  0  0  0  0
  -21.5630   -3.4536   25.7737 F   0  0  0  0  0  0
  -30.0401  -13.2488   20.4593 N   0  0  0  0  0  0
  -26.3024  -12.9315   20.3388 N   0  0  0  0  0  0
  -25.9302  -11.6474   20.5757 N   0  0  0  0  0  0
  -22.0491  -12.8232   22.0396 N   0  0  0  0  0  0
  -25.4314  -15.1875   20.4084 N   0  0  0  0  0  0
  -31.7865  -14.6656   20.0568 O   0  0  0  0  0  0
  -21.6636   -6.8875   21.4241 O   0  0  0  0  0  0
  -22.3540  -14.5549   20.6704 O   0  0  0  0  0  0
  -24.6132  -31.8676   23.2107 C   0  0  0  0  0  0
  -25.9042  -32.4808   23.8378 C   0  0  1  0  0  0
  -27.2403  -27.4468   20.0830 C   0  0  0  0  0  0
  -25.5930  -33.8610   24.2310 N   0  0  0  0  0  0
  -23.3991  -30.4955   21.5482 C   0  0  2  0  0  0
  -24.8432  -28.9585   20.1164 C   0  0  0  0  0  0
  -22.7403  -29.4677   22.4960 C   0  0  0  0  0  0
  -18.0287  -28.1414   22.8476 C   0  0  0  0  0  0
  -24.1507  -36.7308   23.2638 C   0  0  0  0  0  0
  -25.9258  -30.8385   21.3585 C   0  0  0  0  0  0
  -26.0006  -29.4708   20.7119 C   0  0  0  0  0  0
  -27.1957  -28.7200   20.6960 C   0  0  0  0  0  0
  -26.0555  -26.9375   19.4996 C   0  0  0  0  0  0
  -24.8653  -27.6902   19.5118 C   0  0  0  0  0  0
  -23.6082  -29.8296   20.1609 C   0  0  0  0  0  0
  -25.4127  -36.3096   24.0326 C   0  0  1  0  0  0
  -20.5875  -28.3688   23.1329 C   0  0  2  0  0  0
  -20.6795  -26.9423   22.5439 C   0  0  0  0  0  0
  -19.5768  -26.6405   21.5243 C   0  0  0  0  0  0
  -18.1935  -26.7961   22.1623 C   0  0  0  0  0  0
  -19.1530  -28.8862   23.2906 C   0  0  0  0  0  0
  -18.9454  -30.1473   23.8906 C   0  0  0  0  0  0
  -17.6455  -30.6605   24.0579 C   0  0  0  0  0  0
  -25.9055  -34.9473   23.5106 C   0  0  0  0  0  0
  -16.5342  -29.9103   23.6339 C   0  0  0  0  0  0
  -16.7273  -28.6547   23.0313 C   0  0  0  0  0  0
  -26.4493  -31.6578   25.0684 C   0  0  0  0  0  0
  -25.3771  -31.3663   26.1421 C   0  0  0  0  0  0
  -27.0308  -30.3030   24.6022 C   0  0  0  0  0  0
  -27.6071  -32.4279   25.7453 C   0  0  0  0  0  0
  -27.5583  -37.1806   24.8461 C   0  0  0  0  0  0
  -21.4133  -29.3053   22.3715 N   0  0  0  0  0  0
  -26.4297  -37.3792   23.9403 N   0  0  0  0  0  0
  -24.6645  -31.0811   22.0982 N   0  0  0  0  0  0
  -23.4174  -28.8217   23.2999 O   0  0  0  0  0  0
  -28.4580  -26.7945   20.0610 O   0  0  0  0  0  0
  -26.5602  -34.8924   22.4657 O   0  0  0  0  0  0
  -23.5339  -32.1394   23.7541 O   0  0  0  0  0  0
  -28.6317  -24.4424   21.9601 C   0  0  0  0  0  0
  -28.3800  -24.4147   20.6128 C   0  0  0  0  0  0
  -27.8862  -22.4002   21.4709 C   0  0  0  0  0  0
  -28.4185  -22.8137   23.8702 C   0  0  0  0  0  0
  -30.6718  -15.3031   22.8867 C   0  0  0  0  0  0
  -27.5488  -19.5406   23.4368 C   0  0  0  0  0  0
  -28.5842  -25.4599   19.5575 C   0  0  0  0  0  0
  -27.3897  -20.9661   21.5118 C   0  0  0  0  0  0
  -29.2168  -17.6326   21.9807 C   0  0  0  0  0  0
  -29.6423  -16.5556   20.9517 C   0  0  0  0  0  0
  -28.4219  -18.7920   21.3297 C   0  0  0  0  0  0
  -28.3142  -23.2052   22.4642 N   0  0  0  0  0  0
  -27.9273  -23.1442   20.3563 N   0  3  0  0  0  0
  -30.1779  -15.2912   21.5056 N   0  0  0  0  0  0
  -28.2243  -19.9607   22.2044 N   0  0  0  0  0  0
  -31.4612  -12.3948   19.1039 H   0  0  0  0  0  0
  -30.3147  -11.2731   19.7747 H   0  0  0  0  0  0
  -29.7231  -11.8182   17.4017 H   0  0  0  0  0  0
  -29.6569  -13.5198   17.7867 H   0  0  0  0  0  0
  -27.8189  -11.3200   18.7947 H   0  0  0  0  0  0
  -27.3583  -12.6660   17.7881 H   0  0  0  0  0  0
  -27.7181  -14.2535   19.6052 H   0  0  0  0  0  0
  -28.6646  -11.9078   21.3179 H   0  0  0  0  0  0
  -28.4517  -13.5306   21.8862 H   0  0  0  0  0  0
  -25.2746   -9.5696   22.4753 H   0  0  0  0  0  0
  -23.9994   -7.4638   22.7470 H   0  0  0  0  0  0
  -21.0829   -8.8752   19.8941 H   0  0  0  0  0  0
  -22.3672  -10.9663   19.6148 H   0  0  0  0  0  0
  -21.2010   -7.6144   23.9716 H   0  0  0  0  0  0
  -21.1482   -6.0519   25.9076 H   0  0  0  0  0  0
  -22.0601   -2.7607   23.2845 H   0  0  0  0  0  0
  -22.4095  -11.9881   22.4779 H   0  0  0  0  0  0
  -21.1105  -13.1262   22.2605 H   0  0  0  0  0  0
  -24.6663  -15.8445   20.5155 H   0  0  0  0  0  0
  -26.2909  -15.6241   20.1024 H   0  0  0  0  0  0
  -26.7095  -32.5522   23.1123 H   0  0  0  0  0  0
  -25.0129  -33.9787   25.0487 H   0  0  0  0  0  0
  -22.6880  -31.3130   21.4084 H   0  0  0  0  0  0
  -23.3758  -35.9653   23.3321 H   0  0  0  0  0  0
  -24.3595  -36.8915   22.2049 H   0  0  0  0  0  0
  -23.7289  -37.6529   23.6642 H   0  0  0  0  0  0
  -26.0333  -31.6017   20.5870 H   0  0  0  0  0  0
  -26.8173  -30.8955   21.9713 H   0  0  0  0  0  0
  -28.0931  -29.1190   21.1490 H   0  0  0  0  0  0
  -26.0209  -25.9731   19.0180 H   0  0  0  0  0  0
  -23.9736  -27.2903   19.0498 H   0  0  0  0  0  0
  -23.7289  -30.6070   19.4053 H   0  0  0  0  0  0
  -22.7302  -29.2591   19.8534 H   0  0  0  0  0  0
  -25.1318  -36.1934   25.0821 H   0  0  0  0  0  0
  -20.9969  -28.3263   24.1455 H   0  0  0  0  0  0
  -20.5784  -26.2270   23.3611 H   0  0  0  0  0  0
  -21.6648  -26.7533   22.1176 H   0  0  0  0  0  0
  -19.6945  -25.6333   21.1245 H   0  0  0  0  0  0
  -19.6731  -27.3246   20.6798 H   0  0  0  0  0  0
  -17.4226  -26.6734   21.3992 H   0  0  0  0  0  0
  -18.0287  -26.0110   22.9020 H   0  0  0  0  0  0
  -19.7932  -30.7300   24.2255 H   0  0  0  0  0  0
  -17.5014  -31.6280   24.5196 H   0  0  0  0  0  0
  -15.5348  -30.3014   23.7682 H   0  0  0  0  0  0
  -15.8669  -28.0905   22.6968 H   0  0  0  0  0  0
  -24.6002  -30.6931   25.7770 H   0  0  0  0  0  0
  -24.8882  -32.2800   26.4816 H   0  0  0  0  0  0
  -25.8147  -30.8894   27.0196 H   0  0  0  0  0  0
  -26.2804  -29.6771   24.1159 H   0  0  0  0  0  0
  -27.4204  -29.7278   25.4436 H   0  0  0  0  0  0
  -27.8594  -30.4379   23.9056 H   0  0  0  0  0  0
  -27.2717  -33.3594   26.2019 H   0  0  0  0  0  0
  -28.3903  -32.6799   25.0290 H   0  0  0  0  0  0
  -28.0690  -31.8379   26.5380 H   0  0  0  0  0  0
  -28.2589  -38.0110   24.7513 H   0  0  0  0  0  0
  -28.1085  -36.2639   24.6277 H   0  0  0  0  0  0
  -27.2287  -37.1463   25.8860 H   0  0  0  0  0  0
  -20.9273  -29.8743   21.6918 H   0  0  0  0  0  0
  -26.0170  -38.2859   24.1418 H   0  0  0  0  0  0
  -29.0112  -25.2480   22.5736 H   0  0  0  0  0  0
  -28.7700  -23.6600   24.4608 H   0  0  0  0  0  0
  -29.1283  -21.9919   23.9650 H   0  0  0  0  0  0
  -27.4358  -22.5200   24.2364 H   0  0  0  0  0  0
  -29.8485  -15.4029   23.5940 H   0  0  0  0  0  0
  -31.3744  -16.1218   23.0449 H   0  0  0  0  0  0
  -31.1955  -14.3788   23.1406 H   0  0  0  0  0  0
  -27.2410  -20.3850   24.0492 H   0  0  0  0  0  0
  -28.2043  -18.9314   24.0600 H   0  0  0  0  0  0
  -26.6522  -18.9549   23.2260 H   0  0  0  0  0  0
  -27.9642  -25.2626   18.6838 H   0  0  0  0  0  0
  -29.6092  -25.3565   19.2001 H   0  0  0  0  0  0
  -27.2578  -20.6876   20.4644 H   0  0  0  0  0  0
  -26.3807  -21.0081   21.9251 H   0  0  0  0  0  0
  -30.1008  -18.0333   22.4807 H   0  0  0  0  0  0
  -28.5981  -17.1615   22.7450 H   0  0  0  0  0  0
  -30.3736  -16.9947   20.2699 H   0  0  0  0  0  0
  -28.7750  -16.3032   20.3393 H   0  0  0  0  0  0
  -27.4566  -18.4110   20.9875 H   0  0  0  0  0  0
  -28.9551  -19.1209   20.4360 H   0  0  0  0  0  0
  -27.6634  -22.8055   19.4385 H   0  0  0  0  0  0
  1 25  1  0  0  0
  1 30  2  0  0  0
  1 84  1  0  0  0
  2  3  1  0  0  0
  2 25  1  0  0  0
  2 86  1  0  0  0
  2 87  1  0  0  0
  3  4  1  0  0  0
  3 88  1  0  0  0
  3 89  1  0  0  0
  4  5  1  0  0  0
  4 90  1  0  0  0
  4 91  1  0  0  0
  5  6  1  0  0  0
  5 26  1  0  0  0
  5 92  1  0  0  0
  6 25  1  0  0  0
  6 93  1  0  0  0
  6 94  1  0  0  0
  7  8  2  0  0  0
  7 26  1  0  0  0
  7 29  1  0  0  0
  8  9  1  0  0  0
  8 22  1  0  0  0
  9 10  1  0  0  0
  9 27  2  0  0  0
 10 11  2  0  0  0
 10 15  1  0  0  0
 11 12  1  0  0  0
 11 95  1  0  0  0
 12 13  2  0  0  0
 12 96  1  0  0  0
 13 14  1  0  0  0
 13 31  1  0  0  0
 14 15  2  0  0  0
 14 97  1  0  0  0
 15 98  1  0  0  0
 16 17  2  0  0  0
 16 21  1  0  0  0
 16 31  1  0  0  0
 17 18  1  0  0  0
 17 99  1  0  0  0
 18 19  2  0  0  0
 18100  1  0  0  0
 19 20  1  0  0  0
 19 24  1  0  0  0
 20 21  2  0  0  0
 20101  1  0  0  0
 21 23  1  0  0  0
 22 28  1  0  0  0
 22 32  2  0  0  0
 26 27  1  0  0  0
 28102  1  0  0  0
 28103  1  0  0  0
 29104  1  0  0  0
 29105  1  0  0  0
 33 34  1  0  0  0
 33 66  1  0  0  0
 33 70  2  0  0  0
 34 36  1  0  0  0
 34 59  1  0  0  0
 34106  1  0  0  0
 35 44  2  0  0  0
 35 45  1  0  0  0
 35 68  1  0  0  0
 36 56  1  0  0  0
 36107  1  0  0  0
 37 39  1  0  0  0
 37 47  1  0  0  0
 37 66  1  0  0  0
 37108  1  0  0  0
 38 43  2  0  0  0
 38 46  1  0  0  0
 38 47  1  0  0  0
 39 64  1  0  0  0
 39 67  2  0  0  0
 40 52  1  0  0  0
 40 53  2  0  0  0
 40 58  1  0  0  0
 41109  1  0  0  0
 41110  1  0  0  0
 41111  1  0  0  0
 41 48  1  0  0  0
 42 43  1  0  0  0
 42 66  1  0  0  0
 42112  1  0  0  0
 42113  1  0  0  0
 43 44  1  0  0  0
 44114  1  0  0  0
 45 46  2  0  0  0
 45115  1  0  0  0
 46116  1  0  0  0
 47117  1  0  0  0
 47118  1  0  0  0
 48 56  1  0  0  0
 48 65  1  0  0  0
 48119  1  0  0  0
 49 50  1  0  0  0
 49 53  1  0  0  0
 49 64  1  0  0  0
 49120  1  0  0  0
 50 51  1  0  0  0
 50121  1  0  0  0
 50122  1  0  0  0
 51 52  1  0  0  0
 51123  1  0  0  0
 51124  1  0  0  0
 52125  1  0  0  0
 52126  1  0  0  0
 53 54  1  0  0  0
 54 55  2  0  0  0
 54127  1  0  0  0
 55 57  1  0  0  0
 55128  1  0  0  0
 56 69  2  0  0  0
 57 58  2  0  0  0
 57129  1  0  0  0
 58130  1  0  0  0
 59 60  1  0  0  0
 59 61  1  0  0  0
 59 62  1  0  0  0
 60131  1  0  0  0
 60132  1  0  0  0
 60133  1  0  0  0
 61134  1  0  0  0
 61135  1  0  0  0
 61136  1  0  0  0
 62137  1  0  0  0
 62138  1  0  0  0
 62139  1  0  0  0
 63 65  1  0  0  0
 63140  1  0  0  0
 63141  1  0  0  0
 63142  1  0  0  0
 64143  1  0  0  0
 65144  1  0  0  0
 68 77  1  0  0  0
 71 72  2  0  0  0
 71 82  1  0  0  0
 71145  1  0  0  0
 72 77  1  0  0  0
 72 83  1  0  0  0
 73 78  1  0  0  0
 73 82  1  0  0  0
 73 83  2  0  0  0
 74 82  1  0  0  0
 74146  1  0  0  0
 74147  1  0  0  0
 74148  1  0  0  0
 75 84  1  0  0  0
 75149  1  0  0  0
 75150  1  0  0  0
 75151  1  0  0  0
 76 85  1  0  0  0
 76152  1  0  0  0
 76153  1  0  0  0
 76154  1  0  0  0
 77155  1  0  0  0
 77156  1  0  0  0
 78 85  1  0  0  0
 78157  1  0  0  0
 78158  1  0  0  0
 79 80  1  0  0  0
 79 81  1  0  0  0
 79159  1  0  0  0
 79160  1  0  0  0
 80 84  1  0  0  0
 80161  1  0  0  0
 80162  1  0  0  0
 81 85  1  0  0  0
 81163  1  0  0  0
 81164  1  0  0  0
 83165  1  0  0  0
M  CHG  1  83   1
M  ISO  4   1 100  68 101  77 101  84 100
M  END
> <chiral flag>
0

> <version>
0

> <s_m_source_file>
/data/baiqing/PycharmProjects/Reinvent-master-3.2/result/LINK_invent/BTK/process_docking_weight1_custom_sum_contain_oxygen_bond_distance_aromatic_linkinvent_7_9_3/rearranged_h_0051.sdf

> <i_m_source_file_index>
73

> <r_mmod_Potential_Energy-OPLS-2005>
83.2929229736328

> <r_mmod_Stretch_Energy-OPLS-2005>
38.2461624145508

> <r_mmod_Bend_Energy-OPLS-2005>
111.874900817871

> <r_mmod_Torsional_Energy-OPLS-2005>
314.446685791016

> <r_mmod_Improper_Torsional_Energy-OPLS-2005>
3.98968291282654

> <r_mmod_Van_der_Waal_Energy-OPLS-2005>
139.200134277344

> <r_mmod_Electrostatic_Energy-OPLS-2005>
-130.628067016602

> <r_mmod_Solvation_Energy-OPLS-2005>
-402.169036865234

> <b_mmod_Minimization_Converged-OPLS-2005>
0

> <r_mmod_RMS_Derivative-OPLS-2005>
2.02170467376709

$$$$
74
                    3D
 Structure written by MMmdl.
166174  0  0  1  0            999 V2000
  -30.6450  -14.6107   20.3795 C   0  0  0  0  0  0
  -30.4248  -12.3364   19.4651 C   0  0  0  0  0  0
  -29.5058  -12.4016   18.2297 C   0  0  0  0  0  0
  -28.0189  -12.3152   18.6399 C   0  0  0  0  0  0
  -27.6431  -13.2086   19.8555 C   0  0  2  0  0  0
  -28.6942  -13.1267   20.9800 C   0  0  0  0  0  0
  -25.2541  -13.8159   20.5730 C   0  0  0  0  0  0
  -24.1803  -13.0428   20.9228 C   0  0  0  0  0  0
  -24.6359  -11.6893   20.8770 C   0  0  0  0  0  0
  -23.9027  -10.4281   21.0411 C   0  0  0  0  0  0
  -24.3583   -9.4192   21.9183 C   0  0  0  0  0  0
  -23.6269   -8.2220   22.0740 C   0  0  0  0  0  0
  -22.4256   -8.0259   21.3525 C   0  0  0  0  0  0
  -21.9888   -9.0233   20.4626 C   0  0  0  0  0  0
  -22.7205  -10.2126   20.3050 C   0  0  0  0  0  0
  -21.6847   -6.0727   22.5269 C   0  0  0  0  0  0
  -21.4012   -6.5631   23.8205 C   0  0  0  0  0  0
  -21.3664   -5.6782   24.9166 C   0  0  0  0  0  0
  -21.6048   -4.3047   24.7223 C   0  0  0  0  0  0
  -21.8827   -3.8146   23.4343 C   0  0  0  0  0  0
  -21.9194   -4.6960   22.3398 C   0  0  0  0  0  0
  -22.7830  -13.5218   21.1876 C   0  0  0  0  0  0
  -22.1654   -4.2146   21.0977 F   0  0  0  0  0  0
  -21.5628   -3.4524   25.7731 F   0  0  0  0  0  0
  -29.9993  -13.4094   20.3745 N   0  0  0  0  0  0
  -26.2942  -12.9312   20.3362 N   0  0  0  0  0  0
  -25.9287  -11.6482   20.5828 N   0  0  0  0  0  0
  -22.0466  -12.8201   22.0428 N   0  0  0  0  0  0
  -25.4290  -15.1879   20.4136 N   0  0  0  0  0  0
  -31.8716  -14.6850   20.2699 O   0  0  0  0  0  0
  -21.6632   -6.8855   21.4224 O   0  0  0  0  0  0
  -22.3528  -14.5540   20.6738 O   0  0  0  0  0  0
  -24.6177  -31.8650   23.2033 C   0  0  0  0  0  0
  -25.9052  -32.4813   23.8354 C   0  0  1  0  0  0
  -27.2332  -27.3764   20.1116 C   0  0  0  0  0  0
  -25.5902  -33.8612   24.2284 N   0  0  0  0  0  0
  -23.4084  -30.4836   21.5457 C   0  0  2  0  0  0
  -24.8550  -28.9387   20.1131 C   0  0  0  0  0  0
  -22.7431  -29.4642   22.4981 C   0  0  0  0  0  0
  -18.0290  -28.1371   22.8501 C   0  0  0  0  0  0
  -24.1483  -36.7286   23.2636 C   0  0  0  0  0  0
  -25.9411  -30.8123   21.3639 C   0  0  0  0  0  0
  -26.0156  -29.4413   20.7122 C   0  0  0  0  0  0
  -27.2036  -28.6674   20.7055 C   0  0  0  0  0  0
  -26.0527  -26.9024   19.4997 C   0  0  0  0  0  0
  -24.8712  -27.6721   19.5020 C   0  0  0  0  0  0
  -23.6170  -29.8081   20.1632 C   0  0  0  0  0  0
  -25.4114  -36.3106   24.0328 C   0  0  1  0  0  0
  -20.5877  -28.3663   23.1310 C   0  0  2  0  0  0
  -20.6767  -26.9395   22.5417 C   0  0  0  0  0  0
  -19.5735  -26.6374   21.5222 C   0  0  0  0  0  0
  -18.1920  -26.7917   22.1632 C   0  0  0  0  0  0
  -19.1540  -28.8836   23.2898 C   0  0  0  0  0  0
  -18.9460  -30.1445   23.8901 C   0  0  0  0  0  0
  -17.6455  -30.6570   24.0569 C   0  0  0  0  0  0
  -25.9048  -34.9474   23.5106 C   0  0  0  0  0  0
  -16.5345  -29.9065   23.6340 C   0  0  0  0  0  0
  -16.7277  -28.6487   23.0356 C   0  0  0  0  0  0
  -26.4468  -31.6615   25.0701 C   0  0  0  0  0  0
  -25.3722  -31.3719   26.1435 C   0  0  0  0  0  0
  -27.0301  -30.3057   24.6092 C   0  0  0  0  0  0
  -27.6048  -32.4336   25.7463 C   0  0  0  0  0  0
  -27.5581  -37.1802   24.8468 C   0  0  0  0  0  0
  -21.4158  -29.3023   22.3709 N   0  0  0  0  0  0
  -26.4295  -37.3798   23.9410 N   0  0  0  0  0  0
  -24.6743  -31.0700   22.0952 N   0  0  0  0  0  0
  -23.4190  -28.8205   23.3059 O   0  0  0  0  0  0
  -28.4069  -26.6331   20.1651 O   0  0  0  0  0  0
  -26.5606  -34.8940   22.4667 O   0  0  0  0  0  0
  -23.5353  -32.1412   23.7397 O   0  0  0  0  0  0
  -25.9384  -21.7654   20.7313 C   0  0  0  0  0  0
  -25.3941  -20.5915   21.1666 C   0  0  0  0  0  0
  -27.5977  -20.2851   20.9510 C   0  0  0  0  0  0
  -28.6469  -15.9935   17.7904 C   0  0  0  0  0  0
  -28.3992  -24.2928   22.0935 C   0  0  0  0  0  0
  -28.9020  -19.4874   21.0049 C   0  0  0  0  0  0
  -28.7809  -18.0133   20.4643 C   0  0  0  0  0  0
  -28.2336  -22.6518   20.1495 C   0  0  0  0  0  0
  -29.9919  -16.0236   18.5477 C   0  0  0  0  0  0
  -29.9380  -16.9815   20.7738 C   0  0  0  0  0  0
  -28.4926  -25.2516   19.7104 C   0  0  0  0  0  0
  -27.9203  -24.1246   20.6429 C   0  0  2  0  0  0
  -27.3022  -21.5854   20.6365 N   0  0  0  0  0  0
  -26.4332  -19.7206   21.3018 N   0  3  0  0  0  0
  -29.8860  -15.6970   19.9967 N   0  0  0  0  0  0
  -31.4702  -12.4380   19.1679 H   0  0  0  0  0  0
  -30.3416  -11.3679   19.9607 H   0  0  0  0  0  0
  -29.7451  -11.5820   17.5514 H   0  0  0  0  0  0
  -29.7054  -13.3076   17.6648 H   0  0  0  0  0  0
  -27.8189  -11.2708   18.8814 H   0  0  0  0  0  0
  -27.3776  -12.5553   17.7916 H   0  0  0  0  0  0
  -27.6367  -14.2342   19.5006 H   0  0  0  0  0  0
  -28.6958  -12.1420   21.4498 H   0  0  0  0  0  0
  -28.4700  -13.8501   21.7673 H   0  0  0  0  0  0
  -25.2720   -9.5667   22.4767 H   0  0  0  0  0  0
  -23.9994   -7.4604   22.7443 H   0  0  0  0  0  0
  -21.0831   -8.8740   19.8915 H   0  0  0  0  0  0
  -22.3654  -10.9669   19.6167 H   0  0  0  0  0  0
  -21.1999   -7.6143   23.9706 H   0  0  0  0  0  0
  -21.1477   -6.0507   25.9067 H   0  0  0  0  0  0
  -22.0610   -2.7607   23.2838 H   0  0  0  0  0  0
  -22.4090  -11.9870   22.4827 H   0  0  0  0  0  0
  -21.1097  -13.1223   22.2673 H   0  0  0  0  0  0
  -24.6549  -15.8381   20.4911 H   0  0  0  0  0  0
  -26.2776  -15.6105   20.0577 H   0  0  0  0  0  0
  -26.7121  -32.5495   23.1116 H   0  0  0  0  0  0
  -25.0104  -33.9782   25.0456 H   0  0  0  0  0  0
  -22.6976  -31.3001   21.4026 H   0  0  0  0  0  0
  -23.3765  -35.9602   23.3312 H   0  0  0  0  0  0
  -24.3568  -36.8884   22.2050 H   0  0  0  0  0  0
  -23.7221  -37.6481   23.6643 H   0  0  0  0  0  0
  -26.0580  -31.5733   20.5911 H   0  0  0  0  0  0
  -26.8261  -30.8675   21.9862 H   0  0  0  0  0  0
  -28.0975  -29.0500   21.1781 H   0  0  0  0  0  0
  -26.0192  -25.9342   19.0249 H   0  0  0  0  0  0
  -23.9806  -27.2787   19.0321 H   0  0  0  0  0  0
  -23.7209  -30.5763   19.3966 H   0  0  0  0  0  0
  -22.7419  -29.2226   19.8750 H   0  0  0  0  0  0
  -25.1306  -36.1968   25.0825 H   0  0  0  0  0  0
  -20.9992  -28.3233   24.1418 H   0  0  0  0  0  0
  -20.5676  -26.2274   23.3602 H   0  0  0  0  0  0
  -21.6636  -26.7415   22.1213 H   0  0  0  0  0  0
  -19.6884  -25.6294   21.1226 H   0  0  0  0  0  0
  -19.6675  -27.3195   20.6759 H   0  0  0  0  0  0
  -17.4204  -26.6705   21.4013 H   0  0  0  0  0  0
  -18.0300  -26.0041   22.9009 H   0  0  0  0  0  0
  -19.7933  -30.7277   24.2245 H   0  0  0  0  0  0
  -17.5004  -31.6255   24.5158 H   0  0  0  0  0  0
  -15.5339  -30.2959   23.7650 H   0  0  0  0  0  0
  -15.8689  -28.0800   22.7046 H   0  0  0  0  0  0
  -24.5894  -30.7081   25.7746 H   0  0  0  0  0  0
  -24.8910  -32.2872   26.4894 H   0  0  0  0  0  0
  -25.8058  -30.8867   27.0188 H   0  0  0  0  0  0
  -26.2838  -29.6826   24.1151 H   0  0  0  0  0  0
  -27.4067  -29.7303   25.4560 H   0  0  0  0  0  0
  -27.8685  -30.4366   23.9244 H   0  0  0  0  0  0
  -27.2668  -33.3631   26.2053 H   0  0  0  0  0  0
  -28.3840  -32.6905   25.0276 H   0  0  0  0  0  0
  -28.0735  -31.8457   26.5358 H   0  0  0  0  0  0
  -28.2624  -38.0081   24.7535 H   0  0  0  0  0  0
  -28.1063  -36.2622   24.6292 H   0  0  0  0  0  0
  -27.2298  -37.1447   25.8871 H   0  0  0  0  0  0
  -20.9313  -29.8740   21.6927 H   0  0  0  0  0  0
  -26.0184  -38.2873   24.1428 H   0  0  0  0  0  0
  -25.4349  -22.6896   20.4895 H   0  0  0  0  0  0
  -24.3680  -20.3185   21.3731 H   0  0  0  0  0  0
  -28.7242  -16.5634   16.8645 H   0  0  0  0  0  0
  -27.8232  -16.4135   18.3633 H   0  0  0  0  0  0
  -28.3497  -14.9889   17.5036 H   0  0  0  0  0  0
  -27.9375  -23.5523   22.7475 H   0  0  0  0  0  0
  -28.1475  -25.2794   22.4825 H   0  0  0  0  0  0
  -29.4805  -24.1711   22.1689 H   0  0  0  0  0  0
  -29.2031  -19.4858   22.0533 H   0  0  0  0  0  0
  -29.6579  -20.0424   20.4501 H   0  0  0  0  0  0
  -28.6448  -18.1354   19.3926 H   0  0  0  0  0  0
  -27.8624  -17.5560   20.8313 H   0  0  0  0  0  0
  -29.2509  -22.3705   20.4203 H   0  0  0  0  0  0
  -28.1861  -22.6159   19.0607 H   0  0  0  0  0  0
  -30.4404  -17.0096   18.4180 H   0  0  0  0  0  0
  -30.6867  -15.3646   18.0226 H   0  0  0  0  0  0
  -29.9217  -16.7496   21.8398 H   0  0  0  0  0  0
  -30.9043  -17.4574   20.5961 H   0  0  0  0  0  0
  -28.0749  -25.1626   18.7076 H   0  0  0  0  0  0
  -29.5577  -25.0528   19.5859 H   0  0  0  0  0  0
  -26.8452  -24.2817   20.6424 H   0  0  0  0  0  0
  -26.3282  -18.7620   21.6104 H   0  0  0  0  0  0
  1 25  1  0  0  0
  1 30  2  0  0  0
  1 85  1  0  0  0
  2  3  1  0  0  0
  2 25  1  0  0  0
  2 86  1  0  0  0
  2 87  1  0  0  0
  3  4  1  0  0  0
  3 88  1  0  0  0
  3 89  1  0  0  0
  4  5  1  0  0  0
  4 90  1  0  0  0
  4 91  1  0  0  0
  5  6  1  0  0  0
  5 26  1  0  0  0
  5 92  1  0  0  0
  6 25  1  0  0  0
  6 93  1  0  0  0
  6 94  1  0  0  0
  7  8  2  0  0  0
  7 26  1  0  0  0
  7 29  1  0  0  0
  8  9  1  0  0  0
  8 22  1  0  0  0
  9 10  1  0  0  0
  9 27  2  0  0  0
 10 11  2  0  0  0
 10 15  1  0  0  0
 11 12  1  0  0  0
 11 95  1  0  0  0
 12 13  2  0  0  0
 12 96  1  0  0  0
 13 14  1  0  0  0
 13 31  1  0  0  0
 14 15  2  0  0  0
 14 97  1  0  0  0
 15 98  1  0  0  0
 16 17  2  0  0  0
 16 21  1  0  0  0
 16 31  1  0  0  0
 17 18  1  0  0  0
 17 99  1  0  0  0
 18 19  2  0  0  0
 18100  1  0  0  0
 19 20  1  0  0  0
 19 24  1  0  0  0
 20 21  2  0  0  0
 20101  1  0  0  0
 21 23  1  0  0  0
 22 28  1  0  0  0
 22 32  2  0  0  0
 26 27  1  0  0  0
 28102  1  0  0  0
 28103  1  0  0  0
 29104  1  0  0  0
 29105  1  0  0  0
 33 34  1  0  0  0
 33 66  1  0  0  0
 33 70  2  0  0  0
 34 36  1  0  0  0
 34 59  1  0  0  0
 34106  1  0  0  0
 35 44  2  0  0  0
 35 45  1  0  0  0
 35 68  1  0  0  0
 36 56  1  0  0  0
 36107  1  0  0  0
 37 39  1  0  0  0
 37 47  1  0  0  0
 37 66  1  0  0  0
 37108  1  0  0  0
 38 43  2  0  0  0
 38 46  1  0  0  0
 38 47  1  0  0  0
 39 64  1  0  0  0
 39 67  2  0  0  0
 40 52  1  0  0  0
 40 53  2  0  0  0
 40 58  1  0  0  0
 41109  1  0  0  0
 41110  1  0  0  0
 41111  1  0  0  0
 41 48  1  0  0  0
 42 43  1  0  0  0
 42 66  1  0  0  0
 42112  1  0  0  0
 42113  1  0  0  0
 43 44  1  0  0  0
 44114  1  0  0  0
 45 46  2  0  0  0
 45115  1  0  0  0
 46116  1  0  0  0
 47117  1  0  0  0
 47118  1  0  0  0
 48 56  1  0  0  0
 48 65  1  0  0  0
 48119  1  0  0  0
 49 50  1  0  0  0
 49 53  1  0  0  0
 49 64  1  0  0  0
 49120  1  0  0  0
 50 51  1  0  0  0
 50121  1  0  0  0
 50122  1  0  0  0
 51 52  1  0  0  0
 51123  1  0  0  0
 51124  1  0  0  0
 52125  1  0  0  0
 52126  1  0  0  0
 53 54  1  0  0  0
 54 55  2  0  0  0
 54127  1  0  0  0
 55 57  1  0  0  0
 55128  1  0  0  0
 56 69  2  0  0  0
 57 58  2  0  0  0
 57129  1  0  0  0
 58130  1  0  0  0
 59 60  1  0  0  0
 59 61  1  0  0  0
 59 62  1  0  0  0
 60131  1  0  0  0
 60132  1  0  0  0
 60133  1  0  0  0
 61134  1  0  0  0
 61135  1  0  0  0
 61136  1  0  0  0
 62137  1  0  0  0
 62138  1  0  0  0
 62139  1  0  0  0
 63 65  1  0  0  0
 63140  1  0  0  0
 63141  1  0  0  0
 63142  1  0  0  0
 64143  1  0  0  0
 65144  1  0  0  0
 68 81  1  0  0  0
 71 72  2  0  0  0
 71 83  1  0  0  0
 71145  1  0  0  0
 72 84  1  0  0  0
 72146  1  0  0  0
 73 76  1  0  0  0
 73 83  1  0  0  0
 73 84  2  0  0  0
 74 79  1  0  0  0
 74147  1  0  0  0
 74148  1  0  0  0
 74149  1  0  0  0
 75150  1  0  0  0
 75151  1  0  0  0
 75152  1  0  0  0
 75 82  1  0  0  0
 76 77  1  0  0  0
 76153  1  0  0  0
 76154  1  0  0  0
 77 80  1  0  0  0
 77155  1  0  0  0
 77156  1  0  0  0
 78 82  1  0  0  0
 78 83  1  0  0  0
 78157  1  0  0  0
 78158  1  0  0  0
 79 85  1  0  0  0
 79159  1  0  0  0
 79160  1  0  0  0
 80 85  1  0  0  0
 80161  1  0  0  0
 80162  1  0  0  0
 81 82  1  0  0  0
 81163  1  0  0  0
 81164  1  0  0  0
 82165  1  0  0  0
 84166  1  0  0  0
M  CHG  1  84   1
M  ISO  4   1 100  68 101  81 101  85 100
M  END
> <chiral flag>
0

> <version>
0

> <s_m_source_file>
/data/baiqing/PycharmProjects/Reinvent-master-3.2/result/LINK_invent/BTK/process_docking_weight1_custom_sum_contain_oxygen_bond_distance_aromatic_linkinvent_7_9_3/rearranged_h_0051.sdf

> <i_m_source_file_index>
74

> <r_mmod_Potential_Energy-OPLS-2005>
191.813110351562

> <r_mmod_Stretch_Energy-OPLS-2005>
62.8786811828613

> <r_mmod_Bend_Energy-OPLS-2005>
141.908111572266

> <r_mmod_Torsional_Energy-OPLS-2005>
324.976715087891

> <r_mmod_Improper_Torsional_Energy-OPLS-2005>
20.8320426940918

> <r_mmod_Van_der_Waal_Energy-OPLS-2005>
123.812889099121

> <r_mmod_Electrostatic_Energy-OPLS-2005>
-110.492568969727

> <r_mmod_Solvation_Energy-OPLS-2005>
-419.153991699219

> <b_mmod_Minimization_Converged-OPLS-2005>
0

> <r_mmod_RMS_Derivative-OPLS-2005>
2.20510625839233

$$$$
75
                    3D
 Structure written by MMmdl.
170178  0  0  1  0            999 V2000
  -30.7604  -14.4218   20.6307 C   0  0  0  0  0  0
  -30.4183  -12.3031   19.4084 C   0  0  0  0  0  0
  -29.4859  -12.4999   18.1967 C   0  0  0  0  0  0
  -28.0116  -12.3651   18.6184 C   0  0  0  0  0  0
  -27.6657  -13.2057   19.8751 C   0  0  2  0  0  0
  -28.7068  -12.9913   20.9969 C   0  0  0  0  0  0
  -25.2627  -13.8172   20.5686 C   0  0  0  0  0  0
  -24.1862  -13.0450   20.9192 C   0  0  0  0  0  0
  -24.6421  -11.6925   20.8747 C   0  0  0  0  0  0
  -23.9090  -10.4299   21.0425 C   0  0  0  0  0  0
  -24.3652   -9.4218   21.9198 C   0  0  0  0  0  0
  -23.6331   -8.2250   22.0759 C   0  0  0  0  0  0
  -22.4306   -8.0294   21.3554 C   0  0  0  0  0  0
  -21.9948   -9.0263   20.4645 C   0  0  0  0  0  0
  -22.7278  -10.2144   20.3061 C   0  0  0  0  0  0
  -21.6851   -6.0768   22.5300 C   0  0  0  0  0  0
  -21.4007   -6.5671   23.8239 C   0  0  0  0  0  0
  -21.3635   -5.6814   24.9194 C   0  0  0  0  0  0
  -21.6041   -4.3078   24.7243 C   0  0  0  0  0  0
  -21.8820   -3.8180   23.4361 C   0  0  0  0  0  0
  -21.9190   -4.6996   22.3418 C   0  0  0  0  0  0
  -22.7876  -13.5230   21.1868 C   0  0  0  0  0  0
  -22.1654   -4.2192   21.0990 F   0  0  0  0  0  0
  -21.5639   -3.4549   25.7745 F   0  0  0  0  0  0
  -30.0440  -13.2779   20.4444 N   0  0  0  0  0  0
  -26.3065  -12.9341   20.3378 N   0  0  0  0  0  0
  -25.9345  -11.6508   20.5768 N   0  0  0  0  0  0
  -22.0513  -12.8199   22.0419 N   0  0  0  0  0  0
  -25.4368  -15.1873   20.4073 N   0  0  0  0  0  0
  -31.8168  -14.6536   20.0342 O   0  0  0  0  0  0
  -21.6651   -6.8906   21.4255 O   0  0  0  0  0  0
  -22.3553  -14.5531   20.6728 O   0  0  0  0  0  0
  -24.6112  -31.8678   23.2088 C   0  0  0  0  0  0
  -25.9015  -32.4811   23.8382 C   0  0  1  0  0  0
  -27.2346  -27.4397   20.0872 C   0  0  0  0  0  0
  -25.5907  -33.8611   24.2332 N   0  0  0  0  0  0
  -23.3972  -30.4908   21.5496 C   0  0  2  0  0  0
  -24.8423  -28.9553   20.1131 C   0  0  0  0  0  0
  -22.7386  -29.4660   22.5002 C   0  0  0  0  0  0
  -18.0265  -28.1353   22.8510 C   0  0  0  0  0  0
  -24.1485  -36.7285   23.2646 C   0  0  0  0  0  0
  -25.9242  -30.8347   21.3579 C   0  0  0  0  0  0
  -26.0000  -29.4677   20.7095 C   0  0  0  0  0  0
  -27.1933  -28.7128   20.7002 C   0  0  0  0  0  0
  -26.0536  -26.9328   19.4992 C   0  0  0  0  0  0
  -24.8623  -27.6849   19.5102 C   0  0  0  0  0  0
  -23.6021  -29.8198   20.1644 C   0  0  0  0  0  0
  -25.4104  -36.3095   24.0347 C   0  0  1  0  0  0
  -20.5860  -28.3630   23.1339 C   0  0  2  0  0  0
  -20.6748  -26.9367   22.5428 C   0  0  0  0  0  0
  -19.5744  -26.6374   21.5203 C   0  0  0  0  0  0
  -18.1915  -26.7918   22.1597 C   0  0  0  0  0  0
  -19.1519  -28.8810   23.2923 C   0  0  0  0  0  0
  -18.9445  -30.1414   23.8934 C   0  0  0  0  0  0
  -17.6455  -30.6571   24.0566 C   0  0  0  0  0  0
  -25.9028  -34.9470   23.5129 C   0  0  0  0  0  0
  -16.5341  -29.9072   23.6330 C   0  0  0  0  0  0
  -16.7256  -28.6481   23.0363 C   0  0  0  0  0  0
  -26.4476  -31.6586   25.0696 C   0  0  0  0  0  0
  -25.3778  -31.3665   26.1472 C   0  0  0  0  0  0
  -27.0307  -30.3050   24.6007 C   0  0  0  0  0  0
  -27.6061  -32.4310   25.7454 C   0  0  0  0  0  0
  -27.5576  -37.1786   24.8471 C   0  0  0  0  0  0
  -21.4118  -29.3013   22.3743 N   0  0  0  0  0  0
  -26.4285  -37.3783   23.9425 N   0  0  0  0  0  0
  -24.6633  -31.0794   22.0976 N   0  0  0  0  0  0
  -23.4179  -28.8197   23.3024 O   0  0  0  0  0  0
  -28.4328  -26.7535   20.1024 O   0  0  0  0  0  0
  -26.5572  -34.8932   22.4677 O   0  0  0  0  0  0
  -23.5309  -32.1416   23.7505 O   0  0  0  0  0  0
  -28.2183  -21.2975   20.8015 C   0  0  0  0  0  0
  -28.3400  -20.0292   21.4139 C   0  0  0  0  0  0
  -29.1968  -21.7300   19.8806 C   0  0  0  0  0  0
  -29.4576  -19.2222   21.0918 C   0  0  0  0  0  0
  -30.2671  -20.8375   19.6064 C   0  0  0  0  0  0
  -27.2804  -19.5786   22.4081 C   0  0  0  0  0  0
  -30.9052  -20.6894   17.1545 C   0  0  0  0  0  0
  -31.0340  -14.0424   23.5297 C   0  0  0  0  0  0
  -29.0622  -23.0892   19.1699 C   0  0  0  0  0  0
  -29.7792  -17.8910   21.7846 C   0  0  0  0  0  0
  -31.3499  -21.0974   18.5642 C   0  0  0  0  0  0
  -28.4388  -24.2564   19.9800 C   0  0  0  0  0  0
  -30.6732  -15.3925   22.8720 C   0  0  0  0  0  0
  -29.8163  -16.6444   20.8491 C   0  0  0  0  0  0
  -28.6381  -25.6134   19.2606 C   0  0  0  0  0  0
  -30.3847  -19.6338   20.2067 N   0  0  0  0  0  0
  -30.2214  -15.3442   21.4639 N   0  0  0  0  0  0
  -31.4601  -12.3984   19.0989 H   0  0  0  0  0  0
  -30.3229  -11.2906   19.8066 H   0  0  0  0  0  0
  -29.7175  -11.7600   17.4288 H   0  0  0  0  0  0
  -29.6551  -13.4778   17.7422 H   0  0  0  0  0  0
  -27.8212  -11.3085   18.8142 H   0  0  0  0  0  0
  -27.3542  -12.6393   17.7928 H   0  0  0  0  0  0
  -27.7143  -14.2517   19.5779 H   0  0  0  0  0  0
  -28.6804  -11.9627   21.3601 H   0  0  0  0  0  0
  -28.4563  -13.6119   21.8597 H   0  0  0  0  0  0
  -25.2807   -9.5682   22.4772 H   0  0  0  0  0  0
  -24.0054   -7.4623   22.7465 H   0  0  0  0  0  0
  -21.0900   -8.8775   19.8917 H   0  0  0  0  0  0
  -22.3765  -10.9687   19.6163 H   0  0  0  0  0  0
  -21.1978   -7.6173   23.9764 H   0  0  0  0  0  0
  -21.1445   -6.0534   25.9100 H   0  0  0  0  0  0
  -22.0607   -2.7655   23.2852 H   0  0  0  0  0  0
  -22.4135  -11.9836   22.4737 H   0  0  0  0  0  0
  -21.1121  -13.1190   22.2608 H   0  0  0  0  0  0
  -24.6771  -15.8500   20.5173 H   0  0  0  0  0  0
  -26.3002  -15.6174   20.0991 H   0  0  0  0  0  0
  -26.7079  -32.5530   23.1135 H   0  0  0  0  0  0
  -25.0151  -33.9790   25.0539 H   0  0  0  0  0  0
  -22.6854  -31.3065   21.4098 H   0  0  0  0  0  0
  -23.3760  -35.9603   23.3303 H   0  0  0  0  0  0
  -24.3598  -36.8880   22.2064 H   0  0  0  0  0  0
  -23.7210  -37.6481   23.6649 H   0  0  0  0  0  0
  -26.0299  -31.5994   20.5870 H   0  0  0  0  0  0
  -26.8143  -30.8930   21.9713 H   0  0  0  0  0  0
  -28.0892  -29.1090   21.1586 H   0  0  0  0  0  0
  -26.0260  -25.9562   19.0394 H   0  0  0  0  0  0
  -23.9691  -27.2798   19.0553 H   0  0  0  0  0  0
  -23.7022  -30.5921   19.4019 H   0  0  0  0  0  0
  -22.7281  -29.2348   19.8719 H   0  0  0  0  0  0
  -25.1270  -36.1959   25.0837 H   0  0  0  0  0  0
  -20.9945  -28.3169   24.1457 H   0  0  0  0  0  0
  -20.5618  -26.2223   23.3593 H   0  0  0  0  0  0
  -21.6618  -26.7400   22.1233 H   0  0  0  0  0  0
  -19.6902  -25.6288   21.1210 H   0  0  0  0  0  0
  -19.6704  -27.3204   20.6754 H   0  0  0  0  0  0
  -17.4187  -26.6698   21.3983 H   0  0  0  0  0  0
  -18.0292  -26.0034   22.8965 H   0  0  0  0  0  0
  -19.7926  -30.7206   24.2333 H   0  0  0  0  0  0
  -17.5012  -31.6271   24.5129 H   0  0  0  0  0  0
  -15.5340  -30.2981   23.7650 H   0  0  0  0  0  0
  -15.8648  -28.0797   22.7090 H   0  0  0  0  0  0
  -24.5987  -30.6944   25.7832 H   0  0  0  0  0  0
  -24.8937  -32.2815   26.4917 H   0  0  0  0  0  0
  -25.8203  -30.8879   27.0224 H   0  0  0  0  0  0
  -26.2801  -29.6786   24.1165 H   0  0  0  0  0  0
  -27.4234  -29.7297   25.4402 H   0  0  0  0  0  0
  -27.8574  -30.4401   23.9022 H   0  0  0  0  0  0
  -27.2675  -33.3608   26.2043 H   0  0  0  0  0  0
  -28.3876  -32.6863   25.0279 H   0  0  0  0  0  0
  -28.0720  -31.8422   26.5362 H   0  0  0  0  0  0
  -28.2586  -38.0094   24.7535 H   0  0  0  0  0  0
  -28.1076  -36.2625   24.6263 H   0  0  0  0  0  0
  -27.2311  -37.1383   25.8880 H   0  0  0  0  0  0
  -20.9232  -29.8753   21.7009 H   0  0  0  0  0  0
  -26.0166  -38.2849   24.1464 H   0  0  0  0  0  0
  -27.3734  -21.9298   21.0379 H   0  0  0  0  0  0
  -26.4339  -20.2654   22.4225 H   0  0  0  0  0  0
  -27.6934  -19.5412   23.4163 H   0  0  0  0  0  0
  -26.9020  -18.5889   22.1479 H   0  0  0  0  0  0
  -31.7194  -20.8100   16.4408 H   0  0  0  0  0  0
  -30.0687  -21.2960   16.8088 H   0  0  0  0  0  0
  -30.5914  -19.6443   17.1349 H   0  0  0  0  0  0
  -31.2053  -14.1805   24.5977 H   0  0  0  0  0  0
  -31.9522  -13.6187   23.1162 H   0  0  0  0  0  0
  -30.2386  -13.3044   23.4276 H   0  0  0  0  0  0
  -28.4961  -22.9393   18.2497 H   0  0  0  0  0  0
  -30.0487  -23.4210   18.8548 H   0  0  0  0  0  0
  -29.0770  -17.7218   22.5974 H   0  0  0  0  0  0
  -30.7525  -18.0262   22.2571 H   0  0  0  0  0  0
  -32.2354  -20.5155   18.8267 H   0  0  0  0  0  0
  -31.6901  -22.1313   18.5784 H   0  0  0  0  0  0
  -28.9149  -24.3108   20.9601 H   0  0  0  0  0  0
  -27.3768  -24.0817   20.1574 H   0  0  0  0  0  0
  -31.5475  -16.0423   22.9389 H   0  0  0  0  0  0
  -29.8876  -15.8399   23.4803 H   0  0  0  0  0  0
  -30.4900  -16.8767   20.0202 H   0  0  0  0  0  0
  -28.8343  -16.5115   20.3939 H   0  0  0  0  0  0
  -28.0748  -25.6641   18.3273 H   0  0  0  0  0  0
  -29.6817  -25.6830   18.9555 H   0  0  0  0  0  0
  1 25  1  0  0  0
  1 30  2  0  0  0
  1 87  1  0  0  0
  2  3  1  0  0  0
  2 25  1  0  0  0
  2 88  1  0  0  0
  2 89  1  0  0  0
  3  4  1  0  0  0
  3 90  1  0  0  0
  3 91  1  0  0  0
  4  5  1  0  0  0
  4 92  1  0  0  0
  4 93  1  0  0  0
  5  6  1  0  0  0
  5 26  1  0  0  0
  5 94  1  0  0  0
  6 25  1  0  0  0
  6 95  1  0  0  0
  6 96  1  0  0  0
  7  8  2  0  0  0
  7 26  1  0  0  0
  7 29  1  0  0  0
  8  9  1  0  0  0
  8 22  1  0  0  0
  9 10  1  0  0  0
  9 27  2  0  0  0
 10 11  2  0  0  0
 10 15  1  0  0  0
 11 12  1  0  0  0
 11 97  1  0  0  0
 12 13  2  0  0  0
 12 98  1  0  0  0
 13 14  1  0  0  0
 13 31  1  0  0  0
 14 15  2  0  0  0
 14 99  1  0  0  0
 15100  1  0  0  0
 16 17  2  0  0  0
 16 21  1  0  0  0
 16 31  1  0  0  0
 17 18  1  0  0  0
 17101  1  0  0  0
 18 19  2  0  0  0
 18102  1  0  0  0
 19 20  1  0  0  0
 19 24  1  0  0  0
 20 21  2  0  0  0
 20103  1  0  0  0
 21 23  1  0  0  0
 22 28  1  0  0  0
 22 32  2  0  0  0
 26 27  1  0  0  0
 28104  1  0  0  0
 28105  1  0  0  0
 29106  1  0  0  0
 29107  1  0  0  0
 33 34  1  0  0  0
 33 66  1  0  0  0
 33 70  2  0  0  0
 34 36  1  0  0  0
 34 59  1  0  0  0
 34108  1  0  0  0
 35 44  2  0  0  0
 35 45  1  0  0  0
 35 68  1  0  0  0
 36 56  1  0  0  0
 36109  1  0  0  0
 37 39  1  0  0  0
 37 47  1  0  0  0
 37 66  1  0  0  0
 37110  1  0  0  0
 38 43  2  0  0  0
 38 46  1  0  0  0
 38 47  1  0  0  0
 39 64  1  0  0  0
 39 67  2  0  0  0
 40 52  1  0  0  0
 40 53  2  0  0  0
 40 58  1  0  0  0
 41111  1  0  0  0
 41112  1  0  0  0
 41113  1  0  0  0
 41 48  1  0  0  0
 42 43  1  0  0  0
 42 66  1  0  0  0
 42114  1  0  0  0
 42115  1  0  0  0
 43 44  1  0  0  0
 44116  1  0  0  0
 45 46  2  0  0  0
 45117  1  0  0  0
 46118  1  0  0  0
 47119  1  0  0  0
 47120  1  0  0  0
 48 56  1  0  0  0
 48 65  1  0  0  0
 48121  1  0  0  0
 49 50  1  0  0  0
 49 53  1  0  0  0
 49 64  1  0  0  0
 49122  1  0  0  0
 50 51  1  0  0  0
 50123  1  0  0  0
 50124  1  0  0  0
 51 52  1  0  0  0
 51125  1  0  0  0
 51126  1  0  0  0
 52127  1  0  0  0
 52128  1  0  0  0
 53 54  1  0  0  0
 54 55  2  0  0  0
 54129  1  0  0  0
 55 57  1  0  0  0
 55130  1  0  0  0
 56 69  2  0  0  0
 57 58  2  0  0  0
 57131  1  0  0  0
 58132  1  0  0  0
 59 60  1  0  0  0
 59 61  1  0  0  0
 59 62  1  0  0  0
 60133  1  0  0  0
 60134  1  0  0  0
 60135  1  0  0  0
 61136  1  0  0  0
 61137  1  0  0  0
 61138  1  0  0  0
 62139  1  0  0  0
 62140  1  0  0  0
 62141  1  0  0  0
 63 65  1  0  0  0
 63142  1  0  0  0
 63143  1  0  0  0
 63144  1  0  0  0
 64145  1  0  0  0
 65146  1  0  0  0
 68 85  1  0  0  0
 71 72  2  0  0  0
 71 73  1  0  0  0
 71147  1  0  0  0
 72 74  1  0  0  0
 72 76  1  0  0  0
 73 75  2  0  0  0
 73 79  1  0  0  0
 74 80  1  0  0  0
 74 86  2  0  0  0
 75 81  1  0  0  0
 75 86  1  0  0  0
 76148  1  0  0  0
 76149  1  0  0  0
 76150  1  0  0  0
 77 81  1  0  0  0
 77151  1  0  0  0
 77152  1  0  0  0
 77153  1  0  0  0
 78 83  1  0  0  0
 78154  1  0  0  0
 78155  1  0  0  0
 78156  1  0  0  0
 79 82  1  0  0  0
 79157  1  0  0  0
 79158  1  0  0  0
 80 84  1  0  0  0
 80159  1  0  0  0
 80160  1  0  0  0
 81161  1  0  0  0
 81162  1  0  0  0
 82 85  1  0  0  0
 82163  1  0  0  0
 82164  1  0  0  0
 83 87  1  0  0  0
 83165  1  0  0  0
 83166  1  0  0  0
 84 87  1  0  0  0
 84167  1  0  0  0
 84168  1  0  0  0
 85169  1  0  0  0
 85170  1  0  0  0
M  ISO  4   1 100  68 101  85 101  87 100
M  END
> <chiral flag>
0

> <version>
0

> <s_m_source_file>
/data/baiqing/PycharmProjects/Reinvent-master-3.2/result/LINK_invent/BTK/process_docking_weight1_custom_sum_contain_oxygen_bond_distance_aromatic_linkinvent_7_9_3/rearranged_h_0051.sdf

> <i_m_source_file_index>
75

> <r_mmod_Potential_Energy-OPLS-2005>
-30.2688369750977

> <r_mmod_Stretch_Energy-OPLS-2005>
42.867015838623

> <r_mmod_Bend_Energy-OPLS-2005>
117.51139831543

> <r_mmod_Torsional_Energy-OPLS-2005>
266.697662353516

> <r_mmod_Improper_Torsional_Energy-OPLS-2005>
4.63172483444214

> <r_mmod_Van_der_Waal_Energy-OPLS-2005>
162.631912231445

> <r_mmod_Electrostatic_Energy-OPLS-2005>
-433.989562988281

> <r_mmod_Solvation_Energy-OPLS-2005>
-200.292663574219

> <b_mmod_Minimization_Converged-OPLS-2005>
0

> <r_mmod_RMS_Derivative-OPLS-2005>
3.27068996429443

$$$$
76
                    3D
 Structure written by MMmdl.
172181  0  0  1  0            999 V2000
  -29.2301  -15.6811   20.5315 C   0  0  0  0  0  0
  -30.2370  -13.2535   19.6719 C   0  0  0  0  0  0
  -29.5035  -12.7214   18.3943 C   0  0  0  0  0  0
  -28.0697  -12.2613   18.7296 C   0  0  0  0  0  0
  -27.4687  -13.1949   19.7984 C   0  0  2  0  0  0
  -28.3491  -13.3381   21.0269 C   0  0  0  0  0  0
  -25.1596  -13.7819   20.5349 C   0  0  0  0  0  0
  -24.1118  -13.0122   20.9207 C   0  0  0  0  0  0
  -24.5802  -11.6632   20.8787 C   0  0  0  0  0  0
  -23.8665  -10.4077   21.0507 C   0  0  0  0  0  0
  -24.3384   -9.4063   21.9246 C   0  0  0  0  0  0
  -23.6145   -8.2071   22.0776 C   0  0  0  0  0  0
  -22.4139   -8.0105   21.3547 C   0  0  0  0  0  0
  -21.9686   -9.0021   20.4652 C   0  0  0  0  0  0
  -22.6918  -10.1921   20.3081 C   0  0  0  0  0  0
  -21.6794   -6.0630   22.5293 C   0  0  0  0  0  0
  -21.3988   -6.5582   23.8213 C   0  0  0  0  0  0
  -21.3662   -5.6761   24.9191 C   0  0  0  0  0  0
  -21.6047   -4.3021   24.7257 C   0  0  0  0  0  0
  -21.8819   -3.8084   23.4388 C   0  0  0  0  0  0
  -21.9171   -4.6874   22.3431 C   0  0  0  0  0  0
  -22.7280  -13.5010   21.2048 C   0  0  0  0  0  0
  -22.1650   -4.2067   21.1007 F   0  0  0  0  0  0
  -21.5632   -3.4527   25.7781 F   0  0  0  0  0  0
  -29.3360  -14.2178   20.4963 N   0  0  0  0  0  0
  -26.1675  -12.8862   20.2554 N   0  0  0  0  0  0
  -25.8574  -11.6110   20.5487 N   0  0  0  0  0  0
  -22.0004  -12.8035   22.0676 N   0  0  0  0  0  0
  -25.3222  -15.1511   20.3734 N   0  0  0  0  0  0
  -30.4141  -15.9829   20.1669 O   0  0  0  0  0  0
  -21.6542   -6.8715   21.4233 O   0  0  0  0  0  0
  -22.3040  -14.5393   20.6985 O   0  0  0  0  0  0
  -24.6039  -31.9452   22.8731 C   0  0  0  0  0  0
  -25.8723  -32.4868   23.7025 C   0  0  1  0  0  0
  -26.2951  -28.0633   21.4996 C   0  0  0  0  0  0
  -25.5450  -33.8527   24.1343 N   0  0  0  0  0  0
  -23.5188  -30.0970   21.0453 C   0  0  2  0  0  0
  -25.1811  -29.2224   19.5603 C   0  0  0  0  0  0
  -23.1376  -28.3661   21.3702 C   0  0  0  0  0  0
  -18.2271  -27.7603   22.8331 C   0  0  0  0  0  0
  -24.1445  -36.7395   23.2674 C   0  0  0  0  0  0
  -25.9023  -31.1445   20.9981 C   0  0  0  0  0  0
  -26.1824  -29.8339   20.3565 C   0  0  0  0  0  0
  -27.1273  -29.0309   20.9894 C   0  0  0  0  0  0
  -26.0452  -27.1890   20.3287 C   0  0  0  0  0  0
  -25.3023  -27.8348   19.3076 C   0  0  0  0  0  0
  -23.8540  -29.9122   19.5857 C   0  0  0  0  0  0
  -25.4117  -36.3106   24.0252 C   0  0  1  0  0  0
  -21.3860  -27.5593   23.8031 C   0  0  2  0  0  0
  -22.1936  -26.2222   23.0544 C   0  0  0  0  0  0
  -21.7250  -25.9133   21.3319 C   0  0  0  0  0  0
  -18.3790  -26.6615   21.4085 C   0  0  0  0  0  0
  -19.4595  -28.1850   23.7862 C   0  0  0  0  0  0
  -19.0959  -29.4569   24.4126 C   0  0  0  0  0  0
  -17.8893  -30.2071   24.2654 C   0  0  0  0  0  0
  -25.9034  -34.9597   23.4740 C   0  0  0  0  0  0
  -16.7924  -29.6772   23.5738 C   0  0  0  0  0  0
  -16.9720  -28.4558   22.8938 C   0  0  0  0  0  0
  -26.4036  -31.6917   24.9971 C   0  0  0  0  0  0
  -25.3679  -31.4569   26.1266 C   0  0  0  0  0  0
  -27.0257  -30.3312   24.6329 C   0  0  0  0  0  0
  -27.5657  -32.4881   25.6607 C   0  0  0  0  0  0
  -27.5582  -37.1785   24.8454 C   0  0  0  0  0  0
  -22.5770  -27.6561   22.5539 N   0  0  0  0  0  0
  -26.4267  -37.3837   23.9436 N   0  0  0  0  0  0
  -24.6456  -31.0782   21.7422 N   0  0  0  0  0  0
  -23.8448  -27.4780   21.4804 O   0  0  0  0  0  0
  -25.3954  -28.6668   22.6815 O   0  0  0  0  0  0
  -26.5852  -34.9264   22.4468 O   0  0  0  0  0  0
  -23.5123  -32.2767   23.3702 O   0  0  0  0  0  0
  -20.1594  -23.5013   18.7517 C   0  0  0  0  0  0
  -20.0190  -24.4207   21.3090 C   0  0  0  0  0  0
  -19.9446  -25.7809   22.5830 C   0  0  0  0  0  0
  -20.3695  -27.6294   21.6423 C   0  0  0  0  0  0
  -19.8829  -25.3812   19.9557 C   0  0  0  0  0  0
  -21.0382  -23.0421   20.9305 C   0  0  0  0  0  0
  -19.5651  -25.2932   23.9970 C   0  0  0  0  0  0
  -25.7192  -19.9907   22.4441 C   0  0  0  0  0  0
  -20.3493  -27.9013   18.8821 C   0  0  0  0  0  0
  -27.6303  -16.4597   22.3108 C   0  0  0  0  0  0
  -21.3181  -29.5526   22.4796 C   0  0  0  0  0  0
  -23.6738  -20.8484   20.7080 C   0  0  0  0  0  0
  -26.7291  -18.1336   20.5234 C   0  0  0  0  0  0
  -23.6040  -29.4821   23.4654 C   0  0  0  0  0  0
  -25.1102  -19.3534   21.1923 C   0  0  1  0  0  0
  -19.8204  -24.7888   18.7404 N   0  0  0  0  0  0
  -20.8001  -22.7306   19.6419 N   0  0  0  0  0  0
  -20.1931  -27.0589   20.0472 N   0  0  0  0  0  0
  -22.3270  -21.9733   21.3454 N   0  0  0  0  0  0
  -27.9013  -16.6419   20.8780 N   0  0  0  0  0  0
  -31.1571  -13.7564   19.3714 H   0  0  0  0  0  0
  -30.5747  -12.4180   20.2859 H   0  0  0  0  0  0
  -30.0703  -11.9164   17.9236 H   0  0  0  0  0  0
  -29.4510  -13.5286   17.6610 H   0  0  0  0  0  0
  -28.1072  -11.2389   19.1082 H   0  0  0  0  0  0
  -27.4492  -12.2384   17.8337 H   0  0  0  0  0  0
  -27.3503  -14.1441   19.2720 H   0  0  0  0  0  0
  -28.7179  -12.3800   21.3983 H   0  0  0  0  0  0
  -27.8239  -13.8075   21.8589 H   0  0  0  0  0  0
  -25.2531   -9.5616   22.4798 H   0  0  0  0  0  0
  -23.9886   -7.4464   22.7480 H   0  0  0  0  0  0
  -21.0626   -8.8467   19.8967 H   0  0  0  0  0  0
  -22.3357  -10.9448   19.6192 H   0  0  0  0  0  0
  -21.1990   -7.6099   23.9686 H   0  0  0  0  0  0
  -21.1502   -6.0516   25.9092 H   0  0  0  0  0  0
  -22.0605   -2.7543   23.2911 H   0  0  0  0  0  0
  -22.3583  -11.9674   22.5060 H   0  0  0  0  0  0
  -21.0689  -13.1171   22.3009 H   0  0  0  0  0  0
  -24.5782  -15.7994   20.6026 H   0  0  0  0  0  0
  -26.2044  -15.6150   20.1957 H   0  0  0  0  0  0
  -26.7473  -32.5952   23.0753 H   0  0  0  0  0  0
  -24.9402  -33.9456   24.9365 H   0  0  0  0  0  0
  -22.7157  -30.8018   20.9060 H   0  0  0  0  0  0
  -23.3725  -35.9702   23.3275 H   0  0  0  0  0  0
  -24.3492  -36.9154   22.2097 H   0  0  0  0  0  0
  -23.7209  -37.6537   23.6852 H   0  0  0  0  0  0
  -25.7932  -31.9052   20.2236 H   0  0  0  0  0  0
  -26.7970  -31.4221   21.5332 H   0  0  0  0  0  0
  -27.7479  -29.5455   21.7050 H   0  0  0  0  0  0
  -25.8175  -26.1392   20.4628 H   0  0  0  0  0  0
  -24.6145  -27.2739   18.6902 H   0  0  0  0  0  0
  -23.9301  -30.8716   19.0722 H   0  0  0  0  0  0
  -23.1001  -29.3393   19.0426 H   0  0  0  0  0  0
  -25.1368  -36.1803   25.0745 H   0  0  0  0  0  0
  -21.7933  -27.6869   24.8081 H   0  0  0  0  0  0
  -21.9478  -25.3295   23.6342 H   0  0  0  0  0  0
  -23.2364  -25.8974   23.3605 H   0  0  0  0  0  0
  -22.2314  -24.9611   21.2352 H   0  0  0  0  0  0
  -22.2891  -26.2554   20.4563 H   0  0  0  0  0  0
  -17.9083  -27.1563   20.5489 H   0  0  0  0  0  0
  -17.7188  -25.7983   21.5837 H   0  0  0  0  0  0
  -19.8554  -29.9119   25.0338 H   0  0  0  0  0  0
  -17.7872  -31.1557   24.7711 H   0  0  0  0  0  0
  -15.8568  -30.2094   23.5167 H   0  0  0  0  0  0
  -16.1615  -28.1054   22.2706 H   0  0  0  0  0  0
  -24.6395  -30.6840   25.9225 H   0  0  0  0  0  0
  -24.8210  -32.3677   26.3658 H   0  0  0  0  0  0
  -25.8551  -31.1358   27.0482 H   0  0  0  0  0  0
  -26.2643  -29.5680   24.5488 H   0  0  0  0  0  0
  -27.6890  -29.9617   25.4160 H   0  0  0  0  0  0
  -27.6118  -30.3751   23.7172 H   0  0  0  0  0  0
  -27.2317  -33.4427   26.0711 H   0  0  0  0  0  0
  -28.3575  -32.7065   24.9434 H   0  0  0  0  0  0
  -28.0271  -31.9470   26.4903 H   0  0  0  0  0  0
  -28.2570  -38.0120   24.7590 H   0  0  0  0  0  0
  -28.1105  -36.2653   24.6174 H   0  0  0  0  0  0
  -27.2303  -37.1300   25.8853 H   0  0  0  0  0  0
  -23.0252  -26.7627   22.4582 H   0  0  0  0  0  0
  -26.0139  -38.2879   24.1552 H   0  0  0  0  0  0
  -20.0601  -23.0312   17.7857 H   0  0  0  0  0  0
  -19.7050  -24.2146   24.0709 H   0  0  0  0  0  0
  -18.5113  -25.4781   24.2109 H   0  0  0  0  0  0
  -20.1258  -25.7178   24.8283 H   0  0  0  0  0  0
  -24.9735  -20.5533   23.0071 H   0  0  0  0  0  0
  -26.5129  -20.6843   22.1645 H   0  0  0  0  0  0
  -26.1410  -19.2382   23.1080 H   0  0  0  0  0  0
  -20.4397  -28.9416   19.1897 H   0  0  0  0  0  0
  -19.4780  -27.7920   18.2336 H   0  0  0  0  0  0
  -21.2415  -27.6023   18.3340 H   0  0  0  0  0  0
  -27.6391  -17.4254   22.8127 H   0  0  0  0  0  0
  -28.3648  -15.8455   22.8363 H   0  0  0  0  0  0
  -26.6568  -16.0030   22.4765 H   0  0  0  0  0  0
  -20.7763  -30.2070   23.1278 H   0  0  0  0  0  0
  -21.1051  -30.2381   21.6716 H   0  0  0  0  0  0
  -23.2002  -20.4288   19.8207 H   0  0  0  0  0  0
  -24.3300  -21.6133   20.2885 H   0  0  0  0  0  0
  -27.4978  -18.8907   20.3600 H   0  0  0  0  0  0
  -26.4004  -17.8848   19.5147 H   0  0  0  0  0  0
  -23.5628  -28.7961   24.3162 H   0  0  0  0  0  0
  -23.6947  -30.2153   24.2364 H   0  0  0  0  0  0
  -24.4325  -18.5718   21.5413 H   0  0  0  0  0  0
  -22.4521  -22.0566   22.3530 H   0  0  0  0  0  0
  1 25  1  0  0  0
  1 30  2  0  0  0
  1 90  1  0  0  0
  2  3  1  0  0  0
  2 25  1  0  0  0
  2 91  1  0  0  0
  2 92  1  0  0  0
  3  4  1  0  0  0
  3 93  1  0  0  0
  3 94  1  0  0  0
  4  5  1  0  0  0
  4 95  1  0  0  0
  4 96  1  0  0  0
  5  6  1  0  0  0
  5 26  1  0  0  0
  5 97  1  0  0  0
  6 25  1  0  0  0
  6 98  1  0  0  0
  6 99  1  0  0  0
  7  8  2  0  0  0
  7 26  1  0  0  0
  7 29  1  0  0  0
  8  9  1  0  0  0
  8 22  1  0  0  0
  9 10  1  0  0  0
  9 27  2  0  0  0
 10 11  2  0  0  0
 10 15  1  0  0  0
 11 12  1  0  0  0
 11100  1  0  0  0
 12 13  2  0  0  0
 12101  1  0  0  0
 13 14  1  0  0  0
 13 31  1  0  0  0
 14 15  2  0  0  0
 14102  1  0  0  0
 15103  1  0  0  0
 16 17  2  0  0  0
 16 21  1  0  0  0
 16 31  1  0  0  0
 17 18  1  0  0  0
 17104  1  0  0  0
 18 19  2  0  0  0
 18105  1  0  0  0
 19 20  1  0  0  0
 19 24  1  0  0  0
 20 21  2  0  0  0
 20106  1  0  0  0
 21 23  1  0  0  0
 22 28  1  0  0  0
 22 32  2  0  0  0
 26 27  1  0  0  0
 28107  1  0  0  0
 28108  1  0  0  0
 29109  1  0  0  0
 29110  1  0  0  0
 33 34  1  0  0  0
 33 66  1  0  0  0
 33 70  2  0  0  0
 34 36  1  0  0  0
 34 59  1  0  0  0
 34111  1  0  0  0
 35 44  2  0  0  0
 35 45  1  0  0  0
 35 68  1  0  0  0
 36 56  1  0  0  0
 36112  1  0  0  0
 37 39  1  0  0  0
 37 47  1  0  0  0
 37 66  1  0  0  0
 37113  1  0  0  0
 38 43  2  0  0  0
 38 46  1  0  0  0
 38 47  1  0  0  0
 39 64  1  0  0  0
 39 67  2  0  0  0
 40 52  1  0  0  0
 40 53  2  0  0  0
 40 58  1  0  0  0
 41114  1  0  0  0
 41115  1  0  0  0
 41116  1  0  0  0
 41 48  1  0  0  0
 42 43  1  0  0  0
 42 66  1  0  0  0
 42117  1  0  0  0
 42118  1  0  0  0
 43 44  1  0  0  0
 44119  1  0  0  0
 45 46  2  0  0  0
 45120  1  0  0  0
 46121  1  0  0  0
 47122  1  0  0  0
 47123  1  0  0  0
 48 56  1  0  0  0
 48 65  1  0  0  0
 48124  1  0  0  0
 49 50  1  0  0  0
 49 53  1  0  0  0
 49 64  1  0  0  0
 49125  1  0  0  0
 50 51  1  0  0  0
 50126  1  0  0  0
 50127  1  0  0  0
 51 52  1  0  0  0
 51128  1  0  0  0
 51129  1  0  0  0
 52130  1  0  0  0
 52131  1  0  0  0
 53 54  1  0  0  0
 54 55  2  0  0  0
 54132  1  0  0  0
 55 57  1  0  0  0
 55133  1  0  0  0
 56 69  2  0  0  0
 57 58  2  0  0  0
 57134  1  0  0  0
 58135  1  0  0  0
 59 60  1  0  0  0
 59 61  1  0  0  0
 59 62  1  0  0  0
 60136  1  0  0  0
 60137  1  0  0  0
 60138  1  0  0  0
 61139  1  0  0  0
 61140  1  0  0  0
 61141  1  0  0  0
 62142  1  0  0  0
 62143  1  0  0  0
 62144  1  0  0  0
 63 65  1  0  0  0
 63145  1  0  0  0
 63146  1  0  0  0
 63147  1  0  0  0
 64148  1  0  0  0
 65149  1  0  0  0
 68 84  1  0  0  0
 71 86  2  0  0  0
 71 87  1  0  0  0
 71150  1  0  0  0
 72 73  1  0  0  0
 72 75  2  0  0  0
 72 76  1  0  0  0
 73 74  2  0  0  0
 73 77  1  0  0  0
 74 81  1  0  0  0
 74 88  1  0  0  0
 75 86  1  0  0  0
 75 88  1  0  0  0
 76 87  2  0  0  0
 76 89  1  0  0  0
 77151  1  0  0  0
 77152  1  0  0  0
 77153  1  0  0  0
 78154  1  0  0  0
 78155  1  0  0  0
 78156  1  0  0  0
 78 85  1  0  0  0
 79 88  1  0  0  0
 79157  1  0  0  0
 79158  1  0  0  0
 79159  1  0  0  0
 80 90  1  0  0  0
 80160  1  0  0  0
 80161  1  0  0  0
 80162  1  0  0  0
 81 84  1  0  0  0
 81163  1  0  0  0
 81164  1  0  0  0
 82 85  1  0  0  0
 82 89  1  0  0  0
 82165  1  0  0  0
 82166  1  0  0  0
 83 85  1  0  0  0
 83 90  1  0  0  0
 83167  1  0  0  0
 83168  1  0  0  0
 84169  1  0  0  0
 84170  1  0  0  0
 85171  1  0  0  0
 89172  1  0  0  0
M  ISO  4   1 100  68 101  84 101  90 100
M  END
> <chiral flag>
0

> <version>
0

> <s_m_source_file>
/data/baiqing/PycharmProjects/Reinvent-master-3.2/result/LINK_invent/BTK/process_docking_weight1_custom_sum_contain_oxygen_bond_distance_aromatic_linkinvent_7_9_3/rearranged_h_0051.sdf

> <i_m_source_file_index>
76

> <r_mmod_Potential_Energy-OPLS-2005>
25133.484375

> <r_mmod_Stretch_Energy-OPLS-2005>
11977.56640625

> <r_mmod_Bend_Energy-OPLS-2005>
2328.5380859375

> <r_mmod_Torsional_Energy-OPLS-2005>
838.32275390625

> <r_mmod_Improper_Torsional_Energy-OPLS-2005>
127.804382324219

> <r_mmod_Van_der_Waal_Energy-OPLS-2005>
4425.0947265625

> <r_mmod_Electrostatic_Energy-OPLS-2005>
-603.355529785156

> <r_mmod_Solvation_Energy-OPLS-2005>
-224.728164672852

> <b_mmod_Minimization_Converged-OPLS-2005>
0

> <r_mmod_RMS_Derivative-OPLS-2005>
10.5943918228149

$$$$
77
                    3D
 Structure written by MMmdl.
157165  0  0  1  0            999 V2000
  -30.6720  -14.6700   20.5519 C   0  0  0  0  0  0
  -30.4283  -12.4268   19.4713 C   0  0  0  0  0  0
  -29.5095  -12.5276   18.2341 C   0  0  0  0  0  0
  -28.0326  -12.3589   18.6376 C   0  0  0  0  0  0
  -27.6497  -13.2299   19.8626 C   0  0  2  0  0  0
  -28.6890  -13.1029   20.9954 C   0  0  0  0  0  0
  -25.2530  -13.8193   20.5696 C   0  0  0  0  0  0
  -24.1812  -13.0432   20.9185 C   0  0  0  0  0  0
  -24.6403  -11.6912   20.8726 C   0  0  0  0  0  0
  -23.9077  -10.4290   21.0393 C   0  0  0  0  0  0
  -24.3624   -9.4207   21.9174 C   0  0  0  0  0  0
  -23.6296   -8.2243   22.0747 C   0  0  0  0  0  0
  -22.4277   -8.0282   21.3542 C   0  0  0  0  0  0
  -21.9915   -9.0254   20.4643 C   0  0  0  0  0  0
  -22.7246  -10.2131   20.3048 C   0  0  0  0  0  0
  -21.6853   -6.0736   22.5279 C   0  0  0  0  0  0
  -21.4015   -6.5641   23.8212 C   0  0  0  0  0  0
  -21.3661   -5.6793   24.9174 C   0  0  0  0  0  0
  -21.6045   -4.3057   24.7224 C   0  0  0  0  0  0
  -21.8820   -3.8147   23.4346 C   0  0  0  0  0  0
  -21.9192   -4.6964   22.3401 C   0  0  0  0  0  0
  -22.7838  -13.5214   21.1855 C   0  0  0  0  0  0
  -22.1662   -4.2149   21.0979 F   0  0  0  0  0  0
  -21.5627   -3.4540   25.7737 F   0  0  0  0  0  0
  -30.0049  -13.4653   20.4429 N   0  0  0  0  0  0
  -26.2971  -12.9401   20.3313 N   0  0  0  0  0  0
  -25.9336  -11.6540   20.5738 N   0  0  0  0  0  0
  -22.0494  -12.8200   22.0420 N   0  0  0  0  0  0
  -25.4222  -15.1917   20.4157 N   0  0  0  0  0  0
  -31.7895  -14.7911   20.0395 O   0  0  0  0  0  0
  -21.6640   -6.8879   21.4241 O   0  0  0  0  0  0
  -22.3513  -14.5514   20.6705 O   0  0  0  0  0  0
  -24.6284  -31.8585   23.2010 C   0  0  0  0  0  0
  -25.9122  -32.4770   23.8348 C   0  0  1  0  0  0
  -27.2228  -27.2895   20.1184 C   0  0  0  0  0  0
  -25.5932  -33.8573   24.2273 N   0  0  0  0  0  0
  -23.4241  -30.4825   21.5435 C   0  0  2  0  0  0
  -24.8724  -28.9390   20.1070 C   0  0  0  0  0  0
  -22.7490  -29.4613   22.4907 C   0  0  0  0  0  0
  -18.0286  -28.1387   22.8474 C   0  0  0  0  0  0
  -24.1485  -36.7284   23.2634 C   0  0  0  0  0  0
  -25.9686  -30.7783   21.3803 C   0  0  0  0  0  0
  -26.0420  -29.4040   20.7211 C   0  0  0  0  0  0
  -27.2182  -28.5902   20.7207 C   0  0  0  0  0  0
  -26.0335  -26.8996   19.4567 C   0  0  0  0  0  0
  -24.8723  -27.6933   19.4646 C   0  0  0  0  0  0
  -23.6418  -29.8220   20.1577 C   0  0  0  0  0  0
  -25.4112  -36.3074   24.0319 C   0  0  1  0  0  0
  -20.5890  -28.3692   23.1268 C   0  0  2  0  0  0
  -20.6779  -26.9411   22.5408 C   0  0  0  0  0  0
  -19.5758  -26.6378   21.5209 C   0  0  0  0  0  0
  -18.1934  -26.7927   22.1615 C   0  0  0  0  0  0
  -19.1540  -28.8856   23.2867 C   0  0  0  0  0  0
  -18.9462  -30.1455   23.8890 C   0  0  0  0  0  0
  -17.6464  -30.6587   24.0557 C   0  0  0  0  0  0
  -25.9054  -34.9444   23.5095 C   0  0  0  0  0  0
  -16.5354  -29.9087   23.6326 C   0  0  0  0  0  0
  -16.7274  -28.6506   23.0345 C   0  0  0  0  0  0
  -26.4501  -31.6582   25.0725 C   0  0  0  0  0  0
  -25.3727  -31.3722   26.1446 C   0  0  0  0  0  0
  -27.0343  -30.2996   24.6199 C   0  0  0  0  0  0
  -27.6055  -32.4326   25.7499 C   0  0  0  0  0  0
  -27.5577  -37.1798   24.8460 C   0  0  0  0  0  0
  -21.4200  -29.3040   22.3654 N   0  0  0  0  0  0
  -26.4285  -37.3774   23.9407 N   0  0  0  0  0  0
  -24.6921  -31.0570   22.0979 N   0  0  0  0  0  0
  -23.4202  -28.8155   23.2998 O   0  0  0  0  0  0
  -28.3215  -26.4040   20.1989 O   0  0  0  0  0  0
  -26.5623  -34.8910   22.4663 O   0  0  0  0  0  0
  -23.5441  -32.1410   23.7310 O   0  0  0  0  0  0
  -29.6108  -19.7665   20.1204 C   0  0  0  0  0  0
  -29.0519  -20.9737   20.6676 C   0  0  0  0  0  0
  -29.6075  -18.5495   20.8886 C   0  0  0  0  0  0
  -28.5789  -19.7626   22.5678 C   0  0  0  0  0  0
  -27.9772  -19.7477   23.9565 C   0  0  0  0  0  0
  -29.7923  -15.7934   22.4934 C   0  0  0  0  0  0
  -28.7513  -22.3024   19.8660 C   0  0  0  0  0  0
  -30.2334  -17.1689   20.3960 C   0  0  0  0  0  0
  -29.0194  -23.7708   20.4720 C   0  0  0  0  0  0
  -28.1079  -24.9568   19.8891 C   0  0  0  0  0  0
  -28.5298  -20.9183   21.9064 N   0  0  0  0  0  0
  -29.0762  -18.6098   22.1238 N   0  0  0  0  0  0
  -30.0176  -15.7906   21.0413 N   0  0  0  0  0  0
  -31.4715  -12.5336   19.1704 H   0  0  0  0  0  0
  -30.3573  -11.4354   19.9218 H   0  0  0  0  0  0
  -29.7837  -11.7741   17.4946 H   0  0  0  0  0  0
  -29.6496  -13.4960   17.7512 H   0  0  0  0  0  0
  -27.8708  -11.3053   18.8679 H   0  0  0  0  0  0
  -27.3816  -12.5900   17.7937 H   0  0  0  0  0  0
  -27.6639  -14.2659   19.5234 H   0  0  0  0  0  0
  -28.7118  -12.0837   21.3844 H   0  0  0  0  0  0
  -28.3934  -13.7287   21.8339 H   0  0  0  0  0  0
  -25.2767   -9.5680   22.4749 H   0  0  0  0  0  0
  -24.0001   -7.4636   22.7468 H   0  0  0  0  0  0
  -21.0845   -8.8778   19.8951 H   0  0  0  0  0  0
  -22.3704  -10.9669   19.6158 H   0  0  0  0  0  0
  -21.2012   -7.6150   23.9714 H   0  0  0  0  0  0
  -21.1482   -6.0525   25.9076 H   0  0  0  0  0  0
  -22.0598   -2.7610   23.2847 H   0  0  0  0  0  0
  -22.4123  -11.9862   22.4802 H   0  0  0  0  0  0
  -21.1113  -13.1215   22.2629 H   0  0  0  0  0  0
  -24.6594  -15.8483   20.5411 H   0  0  0  0  0  0
  -26.2864  -15.6380   20.1345 H   0  0  0  0  0  0
  -26.7181  -32.5441   23.1088 H   0  0  0  0  0  0
  -25.0079  -33.9720   25.0416 H   0  0  0  0  0  0
  -22.7188  -31.3038   21.4010 H   0  0  0  0  0  0
  -23.3745  -35.9618   23.3297 H   0  0  0  0  0  0
  -24.3575  -36.8919   22.2050 H   0  0  0  0  0  0
  -23.7247  -37.6482   23.6669 H   0  0  0  0  0  0
  -26.1066  -31.5409   20.6126 H   0  0  0  0  0  0
  -26.8462  -30.8274   22.0127 H   0  0  0  0  0  0
  -28.1110  -28.9378   21.2218 H   0  0  0  0  0  0
  -25.9633  -25.9598   18.9304 H   0  0  0  0  0  0
  -23.9806  -27.3366   18.9674 H   0  0  0  0  0  0
  -23.7652  -30.6020   19.4056 H   0  0  0  0  0  0
  -22.7615  -29.2555   19.8490 H   0  0  0  0  0  0
  -25.1294  -36.1920   25.0810 H   0  0  0  0  0  0
  -20.9979  -28.3278   24.1390 H   0  0  0  0  0  0
  -20.5690  -26.2299   23.3609 H   0  0  0  0  0  0
  -21.6647  -26.7449   22.1200 H   0  0  0  0  0  0
  -19.6920  -25.6286   21.1247 H   0  0  0  0  0  0
  -19.6703  -27.3172   20.6727 H   0  0  0  0  0  0
  -17.4205  -26.6651   21.4017 H   0  0  0  0  0  0
  -18.0347  -26.0081   22.9027 H   0  0  0  0  0  0
  -19.7941  -30.7265   24.2262 H   0  0  0  0  0  0
  -17.5023  -31.6266   24.5156 H   0  0  0  0  0  0
  -15.5355  -30.2993   23.7657 H   0  0  0  0  0  0
  -15.8670  -28.0830   22.7067 H   0  0  0  0  0  0
  -24.5917  -30.7053   25.7773 H   0  0  0  0  0  0
  -24.8895  -32.2884   26.4846 H   0  0  0  0  0  0
  -25.8056  -30.8925   27.0235 H   0  0  0  0  0  0
  -26.2917  -29.6741   24.1231 H   0  0  0  0  0  0
  -27.4028  -29.7264   25.4714 H   0  0  0  0  0  0
  -27.8800  -30.4251   23.9433 H   0  0  0  0  0  0
  -27.2659  -33.3636   26.2046 H   0  0  0  0  0  0
  -28.3882  -32.6875   25.0341 H   0  0  0  0  0  0
  -28.0701  -31.8475   26.5443 H   0  0  0  0  0  0
  -28.2581  -38.0108   24.7527 H   0  0  0  0  0  0
  -28.1093  -36.2643   24.6271 H   0  0  0  0  0  0
  -27.2299  -37.1425   25.8863 H   0  0  0  0  0  0
  -20.9378  -29.8783   21.6881 H   0  0  0  0  0  0
  -26.0161  -38.2839   24.1438 H   0  0  0  0  0  0
  -30.0045  -19.7649   19.1118 H   0  0  0  0  0  0
  -28.0361  -20.7311   24.4229 H   0  0  0  0  0  0
  -28.4968  -19.0401   24.6032 H   0  0  0  0  0  0
  -26.9284  -19.4566   23.9068 H   0  0  0  0  0  0
  -28.7563  -16.0490   22.7176 H   0  0  0  0  0  0
  -30.4452  -16.5181   22.9805 H   0  0  0  0  0  0
  -30.0025  -14.8355   22.9738 H   0  0  0  0  0  0
  -27.6917  -22.2448   19.6166 H   0  0  0  0  0  0
  -29.2619  -22.2334   18.9049 H   0  0  0  0  0  0
  -31.3101  -17.3423   20.3741 H   0  0  0  0  0  0
  -29.9435  -17.0651   19.3497 H   0  0  0  0  0  0
  -30.0746  -24.0154   20.3493 H   0  0  0  0  0  0
  -28.8512  -23.7334   21.5485 H   0  0  0  0  0  0
  -27.1047  -24.6831   20.2150 H   0  0  0  0  0  0
  -28.1085  -24.8713   18.8017 H   0  0  0  0  0  0
  1 25  1  0  0  0
  1 30  2  0  0  0
  1 83  1  0  0  0
  2  3  1  0  0  0
  2 25  1  0  0  0
  2 84  1  0  0  0
  2 85  1  0  0  0
  3  4  1  0  0  0
  3 86  1  0  0  0
  3 87  1  0  0  0
  4  5  1  0  0  0
  4 88  1  0  0  0
  4 89  1  0  0  0
  5  6  1  0  0  0
  5 26  1  0  0  0
  5 90  1  0  0  0
  6 25  1  0  0  0
  6 91  1  0  0  0
  6 92  1  0  0  0
  7  8  2  0  0  0
  7 26  1  0  0  0
  7 29  1  0  0  0
  8  9  1  0  0  0
  8 22  1  0  0  0
  9 10  1  0  0  0
  9 27  2  0  0  0
 10 11  2  0  0  0
 10 15  1  0  0  0
 11 12  1  0  0  0
 11 93  1  0  0  0
 12 13  2  0  0  0
 12 94  1  0  0  0
 13 14  1  0  0  0
 13 31  1  0  0  0
 14 15  2  0  0  0
 14 95  1  0  0  0
 15 96  1  0  0  0
 16 17  2  0  0  0
 16 21  1  0  0  0
 16 31  1  0  0  0
 17 18  1  0  0  0
 17 97  1  0  0  0
 18 19  2  0  0  0
 18 98  1  0  0  0
 19 20  1  0  0  0
 19 24  1  0  0  0
 20 21  2  0  0  0
 20 99  1  0  0  0
 21 23  1  0  0  0
 22 28  1  0  0  0
 22 32  2  0  0  0
 26 27  1  0  0  0
 28100  1  0  0  0
 28101  1  0  0  0
 29102  1  0  0  0
 29103  1  0  0  0
 33 34  1  0  0  0
 33 66  1  0  0  0
 33 70  2  0  0  0
 34 36  1  0  0  0
 34 59  1  0  0  0
 34104  1  0  0  0
 35 44  2  0  0  0
 35 45  1  0  0  0
 35 68  1  0  0  0
 36 56  1  0  0  0
 36105  1  0  0  0
 37 39  1  0  0  0
 37 47  1  0  0  0
 37 66  1  0  0  0
 37106  1  0  0  0
 38 43  2  0  0  0
 38 46  1  0  0  0
 38 47  1  0  0  0
 39 64  1  0  0  0
 39 67  2  0  0  0
 40 52  1  0  0  0
 40 53  2  0  0  0
 40 58  1  0  0  0
 41107  1  0  0  0
 41108  1  0  0  0
 41109  1  0  0  0
 41 48  1  0  0  0
 42 43  1  0  0  0
 42 66  1  0  0  0
 42110  1  0  0  0
 42111  1  0  0  0
 43 44  1  0  0  0
 44112  1  0  0  0
 45 46  2  0  0  0
 45113  1  0  0  0
 46114  1  0  0  0
 47115  1  0  0  0
 47116  1  0  0  0
 48 56  1  0  0  0
 48 65  1  0  0  0
 48117  1  0  0  0
 49 50  1  0  0  0
 49 53  1  0  0  0
 49 64  1  0  0  0
 49118  1  0  0  0
 50 51  1  0  0  0
 50119  1  0  0  0
 50120  1  0  0  0
 51 52  1  0  0  0
 51121  1  0  0  0
 51122  1  0  0  0
 52123  1  0  0  0
 52124  1  0  0  0
 53 54  1  0  0  0
 54 55  2  0  0  0
 54125  1  0  0  0
 55 57  1  0  0  0
 55126  1  0  0  0
 56 69  2  0  0  0
 57 58  2  0  0  0
 57127  1  0  0  0
 58128  1  0  0  0
 59 60  1  0  0  0
 59 61  1  0  0  0
 59 62  1  0  0  0
 60129  1  0  0  0
 60130  1  0  0  0
 60131  1  0  0  0
 61132  1  0  0  0
 61133  1  0  0  0
 61134  1  0  0  0
 62135  1  0  0  0
 62136  1  0  0  0
 62137  1  0  0  0
 63 65  1  0  0  0
 63138  1  0  0  0
 63139  1  0  0  0
 63140  1  0  0  0
 64141  1  0  0  0
 65142  1  0  0  0
 68 80  1  0  0  0
 71 72  2  0  0  0
 71 73  1  0  0  0
 71143  1  0  0  0
 72 77  1  0  0  0
 72 81  1  0  0  0
 73 78  1  0  0  0
 73 82  2  0  0  0
 74 75  1  0  0  0
 74 81  2  0  0  0
 74 82  1  0  0  0
 75144  1  0  0  0
 75145  1  0  0  0
 75146  1  0  0  0
 76 83  1  0  0  0
 76147  1  0  0  0
 76148  1  0  0  0
 76149  1  0  0  0
 77 79  1  0  0  0
 77150  1  0  0  0
 77151  1  0  0  0
 78 83  1  0  0  0
 78152  1  0  0  0
 78153  1  0  0  0
 79 80  1  0  0  0
 79154  1  0  0  0
 79155  1  0  0  0
 80156  1  0  0  0
 80157  1  0  0  0
M  ISO  4   1 100  68 101  80 101  83 100
M  END
> <chiral flag>
0

> <version>
0

> <s_m_source_file>
/data/baiqing/PycharmProjects/Reinvent-master-3.2/result/LINK_invent/BTK/process_docking_weight1_custom_sum_contain_oxygen_bond_distance_aromatic_linkinvent_7_9_3/rearranged_h_0051.sdf

> <i_m_source_file_index>
77

> <r_mmod_Potential_Energy-OPLS-2005>
-286.342376708984

> <r_mmod_Stretch_Energy-OPLS-2005>
105.77099609375

> <r_mmod_Bend_Energy-OPLS-2005>
171.274276733398

> <r_mmod_Torsional_Energy-OPLS-2005>
253.337783813477

> <r_mmod_Improper_Torsional_Energy-OPLS-2005>
8.06576347351074

> <r_mmod_Van_der_Waal_Energy-OPLS-2005>
162.814010620117

> <r_mmod_Electrostatic_Energy-OPLS-2005>
-830.392028808594

> <r_mmod_Solvation_Energy-OPLS-2005>
-217.830505371094

> <b_mmod_Minimization_Converged-OPLS-2005>
0

> <r_mmod_RMS_Derivative-OPLS-2005>
0.945181429386139

$$$$
78
                    3D
 Structure written by MMmdl.
181189  0  0  1  0            999 V2000
  -30.6688  -14.5580   20.4098 C   0  0  0  0  0  0
  -30.4693  -12.3124   19.4236 C   0  0  0  0  0  0
  -29.5203  -12.3111   18.2083 C   0  0  0  0  0  0
  -28.0299  -12.2808   18.6070 C   0  0  0  0  0  0
  -27.6707  -13.1680   19.8313 C   0  0  2  0  0  0
  -28.7254  -13.0333   20.9484 C   0  0  0  0  0  0
  -25.2867  -13.8062   20.5641 C   0  0  0  0  0  0
  -24.2051  -13.0496   20.9135 C   0  0  0  0  0  0
  -24.6473  -11.6905   20.8748 C   0  0  0  0  0  0
  -23.9107  -10.4337   21.0474 C   0  0  0  0  0  0
  -24.3684   -9.4245   21.9215 C   0  0  0  0  0  0
  -23.6377   -8.2245   22.0714 C   0  0  0  0  0  0
  -22.4352   -8.0297   21.3507 C   0  0  0  0  0  0
  -22.0009   -9.0310   20.4610 C   0  0  0  0  0  0
  -22.7319  -10.2209   20.3092 C   0  0  0  0  0  0
  -21.6843   -6.0764   22.5232 C   0  0  0  0  0  0
  -21.3945   -6.5636   23.8174 C   0  0  0  0  0  0
  -21.3685   -5.6778   24.9140 C   0  0  0  0  0  0
  -21.6090   -4.3049   24.7171 C   0  0  0  0  0  0
  -21.8847   -3.8153   23.4278 C   0  0  0  0  0  0
  -21.9222   -4.6999   22.3355 C   0  0  0  0  0  0
  -22.8078  -13.5348   21.1811 C   0  0  0  0  0  0
  -22.1725   -4.2200   21.0932 F   0  0  0  0  0  0
  -21.5708   -3.4517   25.7685 F   0  0  0  0  0  0
  -30.0210  -13.3627   20.3532 N   0  0  0  0  0  0
  -26.3185  -12.9116   20.3235 N   0  0  0  0  0  0
  -25.9392  -11.6353   20.5783 N   0  0  0  0  0  0
  -22.0688  -12.8320   22.0253 N   0  0  0  0  0  0
  -25.4818  -15.1734   20.4019 N   0  0  0  0  0  0
  -31.8953  -14.6063   20.3116 O   0  0  0  0  0  0
  -21.6660   -6.8929   21.4206 O   0  0  0  0  0  0
  -22.3820  -14.5716   20.6711 O   0  0  0  0  0  0
  -24.6203  -31.8598   23.2091 C   0  0  0  0  0  0
  -25.9075  -32.4807   23.8389 C   0  0  1  0  0  0
  -27.2479  -27.4300   20.0879 C   0  0  0  0  0  0
  -25.5901  -33.8604   24.2331 N   0  0  0  0  0  0
  -23.4096  -30.4868   21.5435 C   0  0  2  0  0  0
  -24.8610  -28.9420   20.1215 C   0  0  0  0  0  0
  -22.7428  -29.4611   22.4932 C   0  0  0  0  0  0
  -18.0273  -28.1375   22.8449 C   0  0  0  0  0  0
  -24.1490  -36.7354   23.2638 C   0  0  0  0  0  0
  -25.9366  -30.8304   21.3553 C   0  0  0  0  0  0
  -26.0184  -29.4555   20.7214 C   0  0  0  0  0  0
  -27.2168  -28.7029   20.7098 C   0  0  0  0  0  0
  -26.0759  -26.9378   19.4781 C   0  0  0  0  0  0
  -24.8813  -27.6752   19.5130 C   0  0  0  0  0  0
  -23.6252  -29.8122   20.1608 C   0  0  0  0  0  0
  -25.4096  -36.3096   24.0334 C   0  0  1  0  0  0
  -20.5862  -28.3625   23.1298 C   0  0  2  0  0  0
  -20.6770  -26.9356   22.5409 C   0  0  0  0  0  0
  -19.5741  -26.6349   21.5226 C   0  0  0  0  0  0
  -18.1907  -26.7913   22.1611 C   0  0  0  0  0  0
  -19.1530  -28.8822   23.2892 C   0  0  0  0  0  0
  -18.9460  -30.1418   23.8894 C   0  0  0  0  0  0
  -17.6461  -30.6579   24.0550 C   0  0  0  0  0  0
  -25.8997  -34.9459   23.5106 C   0  0  0  0  0  0
  -16.5352  -29.9063   23.6332 C   0  0  0  0  0  0
  -16.7265  -28.6516   23.0307 C   0  0  0  0  0  0
  -26.4470  -31.6600   25.0749 C   0  0  0  0  0  0
  -25.3740  -31.3654   26.1504 C   0  0  0  0  0  0
  -27.0298  -30.3060   24.6079 C   0  0  0  0  0  0
  -27.6066  -32.4267   25.7504 C   0  0  0  0  0  0
  -27.5546  -37.1832   24.8462 C   0  0  0  0  0  0
  -21.4140  -29.3029   22.3735 N   0  0  0  0  0  0
  -26.4248  -37.3801   23.9401 N   0  0  0  0  0  0
  -24.6744  -31.0701   22.0974 N   0  0  0  0  0  0
  -23.4214  -28.8124   23.2956 O   0  0  0  0  0  0
  -28.4155  -26.7078   19.9949 O   0  0  0  0  0  0
  -26.5515  -34.8902   22.4647 O   0  0  0  0  0  0
  -23.5388  -32.1307   23.7486 O   0  0  0  0  0  0
  -30.4094  -20.7592   21.6626 C   0  0  0  0  0  0
  -29.5800  -20.2050   20.7246 C   0  0  0  0  0  0
  -28.7082  -22.1590   21.3560 C   0  0  0  0  0  0
  -27.5373  -21.1830   16.6770 C   0  0  0  0  0  0
  -32.2905  -15.5884   17.2832 C   0  0  0  0  0  0
  -26.2965  -22.5652   21.8765 C   0  0  0  0  0  0
  -27.9957  -23.7504   23.1762 C   0  0  0  0  0  0
  -29.6148  -18.8190   20.1480 C   0  0  0  0  0  0
  -28.4557  -21.1980   17.9118 C   0  0  0  0  0  0
  -31.5471  -16.6003   18.1651 C   0  0  0  0  0  0
  -29.1258  -17.7476   21.1605 C   0  0  0  0  0  0
  -27.5731  -24.4401   20.7621 C   0  0  0  0  0  0
  -27.7139  -21.1425   19.2642 C   0  0  0  0  0  0
  -30.1325  -16.1069   18.5397 C   0  0  0  0  0  0
  -28.8367  -16.3215   20.6089 C   0  0  0  0  0  0
  -28.5917  -25.6042   20.8997 C   0  0  0  0  0  0
  -27.6876  -23.2319   21.7501 C   0  0  0  0  0  0
  -28.6568  -21.1874   20.4088 N   0  0  0  0  0  0
  -29.8340  -21.9328   22.0443 N   0  3  0  0  0  0
  -29.9493  -15.6253   19.9279 N   0  0  0  0  0  0
  -31.4923  -12.4713   19.0732 H   0  0  0  0  0  0
  -30.4800  -11.3426   19.9214 H   0  0  0  0  0  0
  -29.7474  -11.4218   17.6123 H   0  0  0  0  0  0
  -29.7174  -13.1592   17.5619 H   0  0  0  0  0  0
  -27.7767  -11.2440   18.8199 H   0  0  0  0  0  0
  -27.4227  -12.5549   17.7443 H   0  0  0  0  0  0
  -27.6890  -14.1839   19.4501 H   0  0  0  0  0  0
  -28.7577  -12.0151   21.3367 H   0  0  0  0  0  0
  -28.4957  -13.6686   21.8027 H   0  0  0  0  0  0
  -25.2843   -9.5709   22.4783 H   0  0  0  0  0  0
  -24.0127   -7.4596   22.7365 H   0  0  0  0  0  0
  -21.0973   -8.8847   19.8865 H   0  0  0  0  0  0
  -22.3795  -10.9793   19.6221 H   0  0  0  0  0  0
  -21.1784   -7.6110   23.9667 H   0  0  0  0  0  0
  -21.1536   -6.0492   25.9062 H   0  0  0  0  0  0
  -22.0607   -2.7610   23.2722 H   0  0  0  0  0  0
  -22.4366  -11.9957   22.4579 H   0  0  0  0  0  0
  -21.1242  -13.1257   22.2356 H   0  0  0  0  0  0
  -24.7431  -15.8601   20.4942 H   0  0  0  0  0  0
  -26.3570  -15.5632   20.0846 H   0  0  0  0  0  0
  -26.7184  -32.5551   23.1183 H   0  0  0  0  0  0
  -25.0181  -33.9772   25.0552 H   0  0  0  0  0  0
  -22.7082  -31.3110   21.3953 H   0  0  0  0  0  0
  -23.3696  -35.9744   23.3299 H   0  0  0  0  0  0
  -24.3629  -36.8983   22.2062 H   0  0  0  0  0  0
  -23.7309  -37.6588   23.6652 H   0  0  0  0  0  0
  -26.0156  -31.5798   20.5667 H   0  0  0  0  0  0
  -26.8399  -30.9169   21.9479 H   0  0  0  0  0  0
  -28.1165  -29.0864   21.1697 H   0  0  0  0  0  0
  -26.0870  -25.9761   18.9803 H   0  0  0  0  0  0
  -23.9896  -27.2618   19.0647 H   0  0  0  0  0  0
  -23.7585  -30.5851   19.4018 H   0  0  0  0  0  0
  -22.7507  -29.2324   19.8529 H   0  0  0  0  0  0
  -25.1281  -36.1917   25.0822 H   0  0  0  0  0  0
  -20.9989  -28.3161   24.1410 H   0  0  0  0  0  0
  -20.5660  -26.2212   23.3586 H   0  0  0  0  0  0
  -21.6623  -26.7375   22.1193 H   0  0  0  0  0  0
  -19.6877  -25.6263   21.1220 H   0  0  0  0  0  0
  -19.6709  -27.3196   20.6793 H   0  0  0  0  0  0
  -17.4189  -26.6672   21.4013 H   0  0  0  0  0  0
  -18.0257  -26.0106   22.9040 H   0  0  0  0  0  0
  -19.7948  -30.7224   24.2283 H   0  0  0  0  0  0
  -17.5027  -31.6260   24.5103 H   0  0  0  0  0  0
  -15.5342  -30.2944   23.7691 H   0  0  0  0  0  0
  -15.8682  -28.0856   22.6966 H   0  0  0  0  0  0
  -24.5992  -30.6908   25.7850 H   0  0  0  0  0  0
  -24.8826  -32.2751   26.4934 H   0  0  0  0  0  0
  -25.8116  -30.8862   27.0274 H   0  0  0  0  0  0
  -26.2825  -29.6839   24.1152 H   0  0  0  0  0  0
  -27.4118  -29.7294   25.4512 H   0  0  0  0  0  0
  -27.8602  -30.4450   23.9179 H   0  0  0  0  0  0
  -27.2775  -33.3615   26.2030 H   0  0  0  0  0  0
  -28.3882  -32.6728   25.0323 H   0  0  0  0  0  0
  -28.0679  -31.8378   26.5445 H   0  0  0  0  0  0
  -28.2556  -38.0132   24.7469 H   0  0  0  0  0  0
  -28.1024  -36.2650   24.6272 H   0  0  0  0  0  0
  -27.2269  -37.1485   25.8872 H   0  0  0  0  0  0
  -20.9266  -29.8932   21.7131 H   0  0  0  0  0  0
  -26.0117  -38.2855   24.1427 H   0  0  0  0  0  0
  -31.2951  -20.3555   22.1296 H   0  0  0  0  0  0
  -28.1376  -21.3773   15.7872 H   0  0  0  0  0  0
  -26.7630  -21.9501   16.7161 H   0  0  0  0  0  0
  -27.0507  -20.2128   16.5515 H   0  0  0  0  0  0
  -32.5949  -14.7061   17.8440 H   0  0  0  0  0  0
  -33.1817  -16.0274   16.8401 H   0  0  0  0  0  0
  -31.6624  -15.2409   16.4621 H   0  0  0  0  0  0
  -26.3459  -21.6465   22.4638 H   0  0  0  0  0  0
  -25.8477  -22.3163   20.9211 H   0  0  0  0  0  0
  -25.5811  -23.2262   22.3650 H   0  0  0  0  0  0
  -27.9612  -22.9377   23.9023 H   0  0  0  0  0  0
  -27.2700  -24.4961   23.5040 H   0  0  0  0  0  0
  -28.9778  -24.2178   23.2481 H   0  0  0  0  0  0
  -30.6419  -18.6154   19.8519 H   0  0  0  0  0  0
  -29.0126  -18.7810   19.2468 H   0  0  0  0  0  0
  -29.0471  -22.1121   17.8855 H   0  0  0  0  0  0
  -29.1621  -20.3726   17.8175 H   0  0  0  0  0  0
  -31.4619  -17.5373   17.6132 H   0  0  0  0  0  0
  -32.1226  -16.8540   19.0556 H   0  0  0  0  0  0
  -28.1877  -18.1018   21.6032 H   0  0  0  0  0  0
  -29.8314  -17.6810   21.9879 H   0  0  0  0  0  0
  -27.4977  -24.1120   19.7263 H   0  0  0  0  0  0
  -26.6139  -24.8961   20.9907 H   0  0  0  0  0  0
  -27.0838  -20.2571   19.3564 H   0  0  0  0  0  0
  -27.0535  -21.9991   19.2901 H   0  0  0  0  0  0
  -29.8152  -15.3211   17.8602 H   0  0  0  0  0  0
  -29.4352  -16.9115   18.3134 H   0  0  0  0  0  0
  -28.0001  -16.3746   19.9125 H   0  0  0  0  0  0
  -28.4634  -15.7208   21.4313 H   0  0  0  0  0  0
  -29.6041  -25.2194   20.7671 H   0  0  0  0  0  0
  -28.5543  -26.0149   21.9070 H   0  0  0  0  0  0
  -30.1518  -22.4917   22.8303 H   0  0  0  0  0  0
  1 25  1  0  0  0
  1 30  2  0  0  0
  1 90  1  0  0  0
  2  3  1  0  0  0
  2 25  1  0  0  0
  2 91  1  0  0  0
  2 92  1  0  0  0
  3  4  1  0  0  0
  3 93  1  0  0  0
  3 94  1  0  0  0
  4  5  1  0  0  0
  4 95  1  0  0  0
  4 96  1  0  0  0
  5  6  1  0  0  0
  5 26  1  0  0  0
  5 97  1  0  0  0
  6 25  1  0  0  0
  6 98  1  0  0  0
  6 99  1  0  0  0
  7  8  2  0  0  0
  7 26  1  0  0  0
  7 29  1  0  0  0
  8  9  1  0  0  0
  8 22  1  0  0  0
  9 10  1  0  0  0
  9 27  2  0  0  0
 10 11  2  0  0  0
 10 15  1  0  0  0
 11 12  1  0  0  0
 11100  1  0  0  0
 12 13  2  0  0  0
 12101  1  0  0  0
 13 14  1  0  0  0
 13 31  1  0  0  0
 14 15  2  0  0  0
 14102  1  0  0  0
 15103  1  0  0  0
 16 17  2  0  0  0
 16 21  1  0  0  0
 16 31  1  0  0  0
 17 18  1  0  0  0
 17104  1  0  0  0
 18 19  2  0  0  0
 18105  1  0  0  0
 19 20  1  0  0  0
 19 24  1  0  0  0
 20 21  2  0  0  0
 20106  1  0  0  0
 21 23  1  0  0  0
 22 28  1  0  0  0
 22 32  2  0  0  0
 26 27  1  0  0  0
 28107  1  0  0  0
 28108  1  0  0  0
 29109  1  0  0  0
 29110  1  0  0  0
 33 34  1  0  0  0
 33 66  1  0  0  0
 33 70  2  0  0  0
 34 36  1  0  0  0
 34 59  1  0  0  0
 34111  1  0  0  0
 35 44  2  0  0  0
 35 45  1  0  0  0
 35 68  1  0  0  0
 36 56  1  0  0  0
 36112  1  0  0  0
 37 39  1  0  0  0
 37 47  1  0  0  0
 37 66  1  0  0  0
 37113  1  0  0  0
 38 43  2  0  0  0
 38 46  1  0  0  0
 38 47  1  0  0  0
 39 64  1  0  0  0
 39 67  2  0  0  0
 40 52  1  0  0  0
 40 53  2  0  0  0
 40 58  1  0  0  0
 41114  1  0  0  0
 41115  1  0  0  0
 41116  1  0  0  0
 41 48  1  0  0  0
 42 43  1  0  0  0
 42 66  1  0  0  0
 42117  1  0  0  0
 42118  1  0  0  0
 43 44  1  0  0  0
 44119  1  0  0  0
 45 46  2  0  0  0
 45120  1  0  0  0
 46121  1  0  0  0
 47122  1  0  0  0
 47123  1  0  0  0
 48 56  1  0  0  0
 48 65  1  0  0  0
 48124  1  0  0  0
 49 50  1  0  0  0
 49 53  1  0  0  0
 49 64  1  0  0  0
 49125  1  0  0  0
 50 51  1  0  0  0
 50126  1  0  0  0
 50127  1  0  0  0
 51 52  1  0  0  0
 51128  1  0  0  0
 51129  1  0  0  0
 52130  1  0  0  0
 52131  1  0  0  0
 53 54  1  0  0  0
 54 55  2  0  0  0
 54132  1  0  0  0
 55 57  1  0  0  0
 55133  1  0  0  0
 56 69  2  0  0  0
 57 58  2  0  0  0
 57134  1  0  0  0
 58135  1  0  0  0
 59 60  1  0  0  0
 59 61  1  0  0  0
 59 62  1  0  0  0
 60136  1  0  0  0
 60137  1  0  0  0
 60138  1  0  0  0
 61139  1  0  0  0
 61140  1  0  0  0
 61141  1  0  0  0
 62142  1  0  0  0
 62143  1  0  0  0
 62144  1  0  0  0
 63 65  1  0  0  0
 63145  1  0  0  0
 63146  1  0  0  0
 63147  1  0  0  0
 64148  1  0  0  0
 65149  1  0  0  0
 68 86  1  0  0  0
 71 72  2  0  0  0
 71 89  1  0  0  0
 71150  1  0  0  0
 72 78  1  0  0  0
 72 88  1  0  0  0
 73 87  1  0  0  0
 73 88  1  0  0  0
 73 89  2  0  0  0
 74 79  1  0  0  0
 74151  1  0  0  0
 74152  1  0  0  0
 74153  1  0  0  0
 75 80  1  0  0  0
 75154  1  0  0  0
 75155  1  0  0  0
 75156  1  0  0  0
 76157  1  0  0  0
 76158  1  0  0  0
 76159  1  0  0  0
 76 87  1  0  0  0
 77 87  1  0  0  0
 77160  1  0  0  0
 77161  1  0  0  0
 77162  1  0  0  0
 78 81  1  0  0  0
 78163  1  0  0  0
 78164  1  0  0  0
 79 83  1  0  0  0
 79165  1  0  0  0
 79166  1  0  0  0
 80 84  1  0  0  0
 80167  1  0  0  0
 80168  1  0  0  0
 81 85  1  0  0  0
 81169  1  0  0  0
 81170  1  0  0  0
 82 86  1  0  0  0
 82 87  1  0  0  0
 82171  1  0  0  0
 82172  1  0  0  0
 83 88  1  0  0  0
 83173  1  0  0  0
 83174  1  0  0  0
 84 90  1  0  0  0
 84175  1  0  0  0
 84176  1  0  0  0
 85 90  1  0  0  0
 85177  1  0  0  0
 85178  1  0  0  0
 86179  1  0  0  0
 86180  1  0  0  0
 89181  1  0  0  0
M  CHG  1  89   1
M  ISO  4   1 100  68 101  86 101  90 100
M  END
> <chiral flag>
0

> <version>
0

> <s_m_source_file>
/data/baiqing/PycharmProjects/Reinvent-master-3.2/result/LINK_invent/BTK/process_docking_weight1_custom_sum_contain_oxygen_bond_distance_aromatic_linkinvent_7_9_3/rearranged_h_0051.sdf

> <i_m_source_file_index>
78

> <r_mmod_Potential_Energy-OPLS-2005>
292.396057128906

> <r_mmod_Stretch_Energy-OPLS-2005>
47.4447593688965

> <r_mmod_Bend_Energy-OPLS-2005>
135.666076660156

> <r_mmod_Torsional_Energy-OPLS-2005>
417.6298828125

> <r_mmod_Improper_Torsional_Energy-OPLS-2005>
24.2440853118896

> <r_mmod_Van_der_Waal_Energy-OPLS-2005>
132.105865478516

> <r_mmod_Electrostatic_Energy-OPLS-2005>
-117.785758972168

> <r_mmod_Solvation_Energy-OPLS-2005>
-387.181884765625

> <b_mmod_Minimization_Converged-OPLS-2005>
0

> <r_mmod_RMS_Derivative-OPLS-2005>
7.92556524276733

$$$$
79
                    3D
 Structure written by MMmdl.
161169  0  0  1  0            999 V2000
  -30.7234  -14.7057   20.2805 C   0  0  0  0  0  0
  -30.4135  -12.4084   19.4455 C   0  0  0  0  0  0
  -29.4790  -12.3520   18.2247 C   0  0  0  0  0  0
  -28.0077  -12.2506   18.6633 C   0  0  0  0  0  0
  -27.6220  -13.2067   19.8255 C   0  0  2  0  0  0
  -28.6969  -13.2756   20.9279 C   0  0  0  0  0  0
  -25.2521  -13.8144   20.5784 C   0  0  0  0  0  0
  -24.1779  -13.0428   20.9241 C   0  0  0  0  0  0
  -24.6338  -11.6890   20.8816 C   0  0  0  0  0  0
  -23.9014  -10.4281   21.0439 C   0  0  0  0  0  0
  -24.3580   -9.4191   21.9200 C   0  0  0  0  0  0
  -23.6265   -8.2224   22.0764 C   0  0  0  0  0  0
  -22.4255   -8.0262   21.3545 C   0  0  0  0  0  0
  -21.9889   -9.0235   20.4655 C   0  0  0  0  0  0
  -22.7198  -10.2124   20.3078 C   0  0  0  0  0  0
  -21.6851   -6.0710   22.5271 C   0  0  0  0  0  0
  -21.3999   -6.5620   23.8195 C   0  0  0  0  0  0
  -21.3659   -5.6785   24.9164 C   0  0  0  0  0  0
  -21.6051   -4.3046   24.7228 C   0  0  0  0  0  0
  -21.8809   -3.8130   23.4349 C   0  0  0  0  0  0
  -21.9185   -4.6940   22.3400 C   0  0  0  0  0  0
  -22.7810  -13.5237   21.1866 C   0  0  0  0  0  0
  -22.1666   -4.2132   21.0982 F   0  0  0  0  0  0
  -21.5642   -3.4533   25.7742 F   0  0  0  0  0  0
  -29.9829  -13.5476   20.2756 N   0  0  0  0  0  0
  -26.2894  -12.9278   20.3391 N   0  0  0  0  0  0
  -25.9261  -11.6458   20.5897 N   0  0  0  0  0  0
  -22.0452  -12.8224   22.0418 N   0  0  0  0  0  0
  -25.4292  -15.1875   20.4234 N   0  0  0  0  0  0
  -31.9335  -14.5696   20.4567 O   0  0  0  0  0  0
  -21.6630   -6.8852   21.4232 O   0  0  0  0  0  0
  -22.3511  -14.5547   20.6708 O   0  0  0  0  0  0
  -24.6218  -31.8622   23.2022 C   0  0  0  0  0  0
  -25.9083  -32.4782   23.8343 C   0  0  1  0  0  0
  -27.2255  -27.3525   20.1183 C   0  0  0  0  0  0
  -25.5902  -33.8579   24.2274 N   0  0  0  0  0  0
  -23.4123  -30.4842   21.5447 C   0  0  2  0  0  0
  -24.8567  -28.9374   20.1100 C   0  0  0  0  0  0
  -22.7445  -29.4638   22.4956 C   0  0  0  0  0  0
  -18.0279  -28.1398   22.8502 C   0  0  0  0  0  0
  -24.1477  -36.7312   23.2640 C   0  0  0  0  0  0
  -25.9464  -30.8049   21.3625 C   0  0  0  0  0  0
  -26.0197  -29.4328   20.7098 C   0  0  0  0  0  0
  -27.2041  -28.6504   20.7028 C   0  0  0  0  0  0
  -26.0375  -26.8850   19.5146 C   0  0  0  0  0  0
  -24.8657  -27.6684   19.5052 C   0  0  0  0  0  0
  -23.6231  -29.8145   20.1597 C   0  0  0  0  0  0
  -25.4100  -36.3085   24.0328 C   0  0  1  0  0  0
  -20.5878  -28.3684   23.1306 C   0  0  2  0  0  0
  -20.6762  -26.9411   22.5424 C   0  0  0  0  0  0
  -19.5733  -26.6389   21.5232 C   0  0  0  0  0  0
  -18.1919  -26.7937   22.1648 C   0  0  0  0  0  0
  -19.1532  -28.8858   23.2900 C   0  0  0  0  0  0
  -18.9456  -30.1467   23.8901 C   0  0  0  0  0  0
  -17.6458  -30.6597   24.0575 C   0  0  0  0  0  0
  -25.9042  -34.9452   23.5104 C   0  0  0  0  0  0
  -16.5352  -29.9102   23.6328 C   0  0  0  0  0  0
  -16.7268  -28.6527   23.0337 C   0  0  0  0  0  0
  -26.4471  -31.6579   25.0704 C   0  0  0  0  0  0
  -25.3714  -31.3735   26.1447 C   0  0  0  0  0  0
  -27.0310  -30.3003   24.6143 C   0  0  0  0  0  0
  -27.6025  -32.4319   25.7488 C   0  0  0  0  0  0
  -27.5572  -37.1808   24.8463 C   0  0  0  0  0  0
  -21.4166  -29.3037   22.3696 N   0  0  0  0  0  0
  -26.4278  -37.3775   23.9411 N   0  0  0  0  0  0
  -24.6791  -31.0668   22.0945 N   0  0  0  0  0  0
  -23.4190  -28.8179   23.3018 O   0  0  0  0  0  0
  -28.3923  -26.5932   20.1693 O   0  0  0  0  0  0
  -26.5625  -34.8916   22.4679 O   0  0  0  0  0  0
  -23.5397  -32.1410   23.7387 O   0  0  0  0  0  0
  -27.9325  -18.8493   20.1932 C   0  0  0  0  0  0
  -28.7677  -19.9688   20.4169 C   0  0  0  0  0  0
  -30.0973  -19.6015   20.7393 C   0  0  0  0  0  0
  -29.6823  -17.3244   20.3255 C   0  0  0  0  0  0
  -31.1948  -20.6058   21.0266 C   0  0  0  0  0  0
  -31.6639  -16.6434   18.9106 C   0  0  0  0  0  0
  -29.5294  -15.8967   18.2224 C   0  0  0  0  0  0
  -28.1805  -21.4178   20.2087 C   0  0  0  0  0  0
  -28.8589  -22.7099   20.8090 C   0  0  0  0  0  0
  -28.0624  -24.0855   20.7884 C   0  0  0  0  0  0
  -28.4650  -25.1937   19.7416 C   0  0  0  0  0  0
  -30.3268  -16.0999   19.5392 C   0  0  0  0  0  0
  -28.3790  -17.5671   20.1491 N   0  0  0  0  0  0
  -30.5092  -18.3077   20.7200 N   0  0  0  0  0  0
  -31.4495  -12.5029   19.1126 H   0  0  0  0  0  0
  -30.3637  -11.4817   20.0192 H   0  0  0  0  0  0
  -29.7368  -11.4878   17.6120 H   0  0  0  0  0  0
  -29.6191  -13.2021   17.5708 H   0  0  0  0  0  0
  -27.8531  -11.2186   18.9803 H   0  0  0  0  0  0
  -27.3456  -12.4047   17.8106 H   0  0  0  0  0  0
  -27.5458  -14.1897   19.3907 H   0  0  0  0  0  0
  -28.7433  -12.3475   21.4992 H   0  0  0  0  0  0
  -28.4601  -14.0725   21.6358 H   0  0  0  0  0  0
  -25.2722   -9.5669   22.4778 H   0  0  0  0  0  0
  -23.9974   -7.4611   22.7486 H   0  0  0  0  0  0
  -21.0818   -8.8735   19.8961 H   0  0  0  0  0  0
  -22.3640  -10.9662   19.6201 H   0  0  0  0  0  0
  -21.1992   -7.6131   23.9678 H   0  0  0  0  0  0
  -21.1503   -6.0529   25.9059 H   0  0  0  0  0  0
  -22.0599   -2.7593   23.2854 H   0  0  0  0  0  0
  -22.4084  -11.9882   22.4795 H   0  0  0  0  0  0
  -21.1085  -13.1262   22.2659 H   0  0  0  0  0  0
  -24.6761  -15.8514   20.5598 H   0  0  0  0  0  0
  -26.3059  -15.6337   20.1771 H   0  0  0  0  0  0
  -26.7145  -32.5461   23.1093 H   0  0  0  0  0  0
  -24.9979  -33.9721   25.0369 H   0  0  0  0  0  0
  -22.7040  -31.3030   21.4019 H   0  0  0  0  0  0
  -23.3727  -35.9661   23.3303 H   0  0  0  0  0  0
  -24.3568  -36.8943   22.2056 H   0  0  0  0  0  0
  -23.7245  -37.6518   23.6667 H   0  0  0  0  0  0
  -26.0615  -31.5677   20.5919 H   0  0  0  0  0  0
  -26.8340  -30.8624   21.9803 H   0  0  0  0  0  0
  -28.1008  -29.0306   21.1703 H   0  0  0  0  0  0
  -25.9900  -25.9065   19.0609 H   0  0  0  0  0  0
  -23.9702  -27.2805   19.0388 H   0  0  0  0  0  0
  -23.7363  -30.5900   19.4016 H   0  0  0  0  0  0
  -22.7440  -29.2409   19.8605 H   0  0  0  0  0  0
  -25.1275  -36.1934   25.0822 H   0  0  0  0  0  0
  -20.9974  -28.3248   24.1425 H   0  0  0  0  0  0
  -20.5677  -26.2294   23.3621 H   0  0  0  0  0  0
  -21.6628  -26.7446   22.1209 H   0  0  0  0  0  0
  -19.6888  -25.6299   21.1258 H   0  0  0  0  0  0
  -19.6658  -27.3206   20.6767 H   0  0  0  0  0  0
  -17.4184  -26.6693   21.4056 H   0  0  0  0  0  0
  -18.0305  -26.0093   22.9052 H   0  0  0  0  0  0
  -19.7932  -30.7297   24.2257 H   0  0  0  0  0  0
  -17.5008  -31.6274   24.5187 H   0  0  0  0  0  0
  -15.5349  -30.3006   23.7641 H   0  0  0  0  0  0
  -15.8674  -28.0860   22.7010 H   0  0  0  0  0  0
  -24.5868  -30.7098   25.7788 H   0  0  0  0  0  0
  -24.8927  -32.2916   26.4869 H   0  0  0  0  0  0
  -25.8043  -30.8912   27.0222 H   0  0  0  0  0  0
  -26.2881  -29.6773   24.1148 H   0  0  0  0  0  0
  -27.3987  -29.7235   25.4642 H   0  0  0  0  0  0
  -27.8751  -30.4290   23.9363 H   0  0  0  0  0  0
  -27.2613  -33.3610   26.2071 H   0  0  0  0  0  0
  -28.3838  -32.6910   25.0328 H   0  0  0  0  0  0
  -28.0691  -31.8449   26.5413 H   0  0  0  0  0  0
  -28.2585  -38.0105   24.7500 H   0  0  0  0  0  0
  -28.1067  -36.2639   24.6287 H   0  0  0  0  0  0
  -27.2301  -37.1461   25.8868 H   0  0  0  0  0  0
  -20.9333  -29.8754   21.6908 H   0  0  0  0  0  0
  -26.0164  -38.2854   24.1409 H   0  0  0  0  0  0
  -26.8877  -18.9884   19.9543 H   0  0  0  0  0  0
  -30.9291  -21.2547   21.8591 H   0  0  0  0  0  0
  -31.3906  -21.2122   20.1420 H   0  0  0  0  0  0
  -32.1282  -20.1111   21.2946 H   0  0  0  0  0  0
  -31.5037  -17.5421   18.3126 H   0  0  0  0  0  0
  -32.1428  -15.9106   18.2591 H   0  0  0  0  0  0
  -32.3977  -16.9141   19.6713 H   0  0  0  0  0  0
  -29.4615  -16.8330   17.6675 H   0  0  0  0  0  0
  -28.5004  -15.6012   18.3651 H   0  0  0  0  0  0
  -30.0176  -15.2025   17.5462 H   0  0  0  0  0  0
  -27.1567  -21.3863   20.5839 H   0  0  0  0  0  0
  -28.0850  -21.5668   19.1324 H   0  0  0  0  0  0
  -29.8389  -22.8696   20.3621 H   0  0  0  0  0  0
  -29.0427  -22.4922   21.8617 H   0  0  0  0  0  0
  -28.2198  -24.5378   21.7687 H   0  0  0  0  0  0
  -26.9883  -23.9028   20.7390 H   0  0  0  0  0  0
  -27.9581  -25.0339   18.7904 H   0  0  0  0  0  0
  -29.5204  -25.0445   19.5107 H   0  0  0  0  0  0
  1 25  1  0  0  0
  1 30  2  0  0  0
  1 82  1  0  0  0
  2  3  1  0  0  0
  2 25  1  0  0  0
  2 85  1  0  0  0
  2 86  1  0  0  0
  3  4  1  0  0  0
  3 87  1  0  0  0
  3 88  1  0  0  0
  4  5  1  0  0  0
  4 89  1  0  0  0
  4 90  1  0  0  0
  5  6  1  0  0  0
  5 26  1  0  0  0
  5 91  1  0  0  0
  6 25  1  0  0  0
  6 92  1  0  0  0
  6 93  1  0  0  0
  7  8  2  0  0  0
  7 26  1  0  0  0
  7 29  1  0  0  0
  8  9  1  0  0  0
  8 22  1  0  0  0
  9 10  1  0  0  0
  9 27  2  0  0  0
 10 11  2  0  0  0
 10 15  1  0  0  0
 11 12  1  0  0  0
 11 94  1  0  0  0
 12 13  2  0  0  0
 12 95  1  0  0  0
 13 14  1  0  0  0
 13 31  1  0  0  0
 14 15  2  0  0  0
 14 96  1  0  0  0
 15 97  1  0  0  0
 16 17  2  0  0  0
 16 21  1  0  0  0
 16 31  1  0  0  0
 17 18  1  0  0  0
 17 98  1  0  0  0
 18 19  2  0  0  0
 18 99  1  0  0  0
 19 20  1  0  0  0
 19 24  1  0  0  0
 20 21  2  0  0  0
 20100  1  0  0  0
 21 23  1  0  0  0
 22 28  1  0  0  0
 22 32  2  0  0  0
 26 27  1  0  0  0
 28101  1  0  0  0
 28102  1  0  0  0
 29103  1  0  0  0
 29104  1  0  0  0
 33 34  1  0  0  0
 33 66  1  0  0  0
 33 70  2  0  0  0
 34 36  1  0  0  0
 34 59  1  0  0  0
 34105  1  0  0  0
 35 44  2  0  0  0
 35 45  1  0  0  0
 35 68  1  0  0  0
 36 56  1  0  0  0
 36106  1  0  0  0
 37 39  1  0  0  0
 37 47  1  0  0  0
 37 66  1  0  0  0
 37107  1  0  0  0
 38 43  2  0  0  0
 38 46  1  0  0  0
 38 47  1  0  0  0
 39 64  1  0  0  0
 39 67  2  0  0  0
 40 52  1  0  0  0
 40 53  2  0  0  0
 40 58  1  0  0  0
 41108  1  0  0  0
 41109  1  0  0  0
 41110  1  0  0  0
 41 48  1  0  0  0
 42 43  1  0  0  0
 42 66  1  0  0  0
 42111  1  0  0  0
 42112  1  0  0  0
 43 44  1  0  0  0
 44113  1  0  0  0
 45 46  2  0  0  0
 45114  1  0  0  0
 46115  1  0  0  0
 47116  1  0  0  0
 47117  1  0  0  0
 48 56  1  0  0  0
 48 65  1  0  0  0
 48118  1  0  0  0
 49 50  1  0  0  0
 49 53  1  0  0  0
 49 64  1  0  0  0
 49119  1  0  0  0
 50 51  1  0  0  0
 50120  1  0  0  0
 50121  1  0  0  0
 51 52  1  0  0  0
 51122  1  0  0  0
 51123  1  0  0  0
 52124  1  0  0  0
 52125  1  0  0  0
 53 54  1  0  0  0
 54 55  2  0  0  0
 54126  1  0  0  0
 55 57  1  0  0  0
 55127  1  0  0  0
 56 69  2  0  0  0
 57 58  2  0  0  0
 57128  1  0  0  0
 58129  1  0  0  0
 59 60  1  0  0  0
 59 61  1  0  0  0
 59 62  1  0  0  0
 60130  1  0  0  0
 60131  1  0  0  0
 60132  1  0  0  0
 61133  1  0  0  0
 61134  1  0  0  0
 61135  1  0  0  0
 62136  1  0  0  0
 62137  1  0  0  0
 62138  1  0  0  0
 63 65  1  0  0  0
 63139  1  0  0  0
 63140  1  0  0  0
 63141  1  0  0  0
 64142  1  0  0  0
 65143  1  0  0  0
 68 81  1  0  0  0
 71 72  2  0  0  0
 71 83  1  0  0  0
 71144  1  0  0  0
 72 73  1  0  0  0
 72 78  1  0  0  0
 73 75  1  0  0  0
 73 84  2  0  0  0
 74 82  1  0  0  0
 74 83  2  0  0  0
 74 84  1  0  0  0
 75145  1  0  0  0
 75146  1  0  0  0
 75147  1  0  0  0
 76148  1  0  0  0
 76149  1  0  0  0
 76150  1  0  0  0
 76 82  1  0  0  0
 77 82  1  0  0  0
 77151  1  0  0  0
 77152  1  0  0  0
 77153  1  0  0  0
 78 79  1  0  0  0
 78154  1  0  0  0
 78155  1  0  0  0
 79 80  1  0  0  0
 79156  1  0  0  0
 79157  1  0  0  0
 80 81  1  0  0  0
 80158  1  0  0  0
 80159  1  0  0  0
 81160  1  0  0  0
 81161  1  0  0  0
M  ISO  4   1 100  68 101  81 101  82 100
M  END
> <chiral flag>
0

> <version>
0

> <s_m_source_file>
/data/baiqing/PycharmProjects/Reinvent-master-3.2/result/LINK_invent/BTK/process_docking_weight1_custom_sum_contain_oxygen_bond_distance_aromatic_linkinvent_7_9_3/rearranged_h_0051.sdf

> <i_m_source_file_index>
79

> <r_mmod_Potential_Energy-OPLS-2005>
-0.13028946518898

> <r_mmod_Stretch_Energy-OPLS-2005>
83.9978485107422

> <r_mmod_Bend_Energy-OPLS-2005>
204.905868530273

> <r_mmod_Torsional_Energy-OPLS-2005>
267.492614746094

> <r_mmod_Improper_Torsional_Energy-OPLS-2005>
22.7471809387207

> <r_mmod_Van_der_Waal_Energy-OPLS-2005>
177.202865600586

> <r_mmod_Electrostatic_Energy-OPLS-2005>
-659.061462402344

> <r_mmod_Solvation_Energy-OPLS-2005>
-196.226348876953

> <b_mmod_Minimization_Converged-OPLS-2005>
0

> <r_mmod_RMS_Derivative-OPLS-2005>
1.9727246761322

$$$$
80
                    3D
 Structure written by MMmdl.
168176  0  0  1  0            999 V2000
  -30.7494  -14.4691   20.5748 C   0  0  0  0  0  0
  -30.4110  -12.3071   19.4292 C   0  0  0  0  0  0
  -29.4868  -12.4898   18.2133 C   0  0  0  0  0  0
  -28.0129  -12.3322   18.6314 C   0  0  0  0  0  0
  -27.6514  -13.1878   19.8714 C   0  0  2  0  0  0
  -28.7045  -13.0063   20.9949 C   0  0  0  0  0  0
  -25.2527  -13.8142   20.5679 C   0  0  0  0  0  0
  -24.1798  -13.0412   20.9225 C   0  0  0  0  0  0
  -24.6397  -11.6899   20.8841 C   0  0  0  0  0  0
  -23.9125  -10.4268   21.0499 C   0  0  0  0  0  0
  -24.3685   -9.4182   21.9252 C   0  0  0  0  0  0
  -23.6340   -8.2220   22.0804 C   0  0  0  0  0  0
  -22.4337   -8.0259   21.3567 C   0  0  0  0  0  0
  -21.9994   -9.0275   20.4717 C   0  0  0  0  0  0
  -22.7301  -10.2154   20.3161 C   0  0  0  0  0  0
  -21.6887   -6.0712   22.5278 C   0  0  0  0  0  0
  -21.4009   -6.5611   23.8209 C   0  0  0  0  0  0
  -21.3659   -5.6761   24.9168 C   0  0  0  0  0  0
  -21.6069   -4.3029   24.7210 C   0  0  0  0  0  0
  -21.8820   -3.8127   23.4330 C   0  0  0  0  0  0
  -21.9187   -4.6946   22.3386 C   0  0  0  0  0  0
  -22.7795  -13.5173   21.1807 C   0  0  0  0  0  0
  -22.1661   -4.2140   21.0960 F   0  0  0  0  0  0
  -21.5683   -3.4492   25.7715 F   0  0  0  0  0  0
  -30.0289  -13.3158   20.4349 N   0  0  0  0  0  0
  -26.2973  -12.9277   20.3429 N   0  0  0  0  0  0
  -25.9310  -11.6480   20.5879 N   0  0  0  0  0  0
  -22.0399  -12.8204   22.0397 N   0  0  0  0  0  0
  -25.4167  -15.1859   20.3985 N   0  0  0  0  0  0
  -31.8748  -14.5794   20.0754 O   0  0  0  0  0  0
  -21.6696   -6.8854   21.4231 O   0  0  0  0  0  0
  -22.3476  -14.5408   20.6564 O   0  0  0  0  0  0
  -24.6129  -31.8688   23.2118 C   0  0  0  0  0  0
  -25.9036  -32.4831   23.8406 C   0  0  1  0  0  0
  -27.2405  -27.4507   20.0734 C   0  0  0  0  0  0
  -25.5904  -33.8629   24.2337 N   0  0  0  0  0  0
  -23.3995  -30.4926   21.5539 C   0  0  2  0  0  0
  -24.8448  -28.9597   20.1196 C   0  0  0  0  0  0
  -22.7395  -29.4658   22.5019 C   0  0  0  0  0  0
  -18.0269  -28.1376   22.8508 C   0  0  0  0  0  0
  -24.1492  -36.7311   23.2633 C   0  0  0  0  0  0
  -25.9281  -30.8327   21.3698 C   0  0  0  0  0  0
  -26.0037  -29.4674   20.7197 C   0  0  0  0  0  0
  -27.1972  -28.7108   20.7113 C   0  0  0  0  0  0
  -26.0555  -26.9505   19.4831 C   0  0  0  0  0  0
  -24.8640  -27.6969   19.5058 C   0  0  0  0  0  0
  -23.6058  -29.8234   20.1694 C   0  0  0  0  0  0
  -25.4117  -36.3116   24.0336 C   0  0  1  0  0  0
  -20.5857  -28.3654   23.1333 C   0  0  2  0  0  0
  -20.6759  -26.9394   22.5420 C   0  0  0  0  0  0
  -19.5730  -26.6379   21.5223 C   0  0  0  0  0  0
  -18.1906  -26.7924   22.1630 C   0  0  0  0  0  0
  -19.1516  -28.8832   23.2918 C   0  0  0  0  0  0
  -18.9439  -30.1446   23.8909 C   0  0  0  0  0  0
  -17.6443  -30.6585   24.0559 C   0  0  0  0  0  0
  -25.9037  -34.9481   23.5132 C   0  0  0  0  0  0
  -16.5341  -29.9078   23.6337 C   0  0  0  0  0  0
  -16.7261  -28.6500   23.0360 C   0  0  0  0  0  0
  -26.4469  -31.6601   25.0723 C   0  0  0  0  0  0
  -25.3734  -31.3686   26.1469 C   0  0  0  0  0  0
  -27.0311  -30.3045   24.6104 C   0  0  0  0  0  0
  -27.6048  -32.4316   25.7490 C   0  0  0  0  0  0
  -27.5597  -37.1804   24.8460 C   0  0  0  0  0  0
  -21.4127  -29.3036   22.3764 N   0  0  0  0  0  0
  -26.4304  -37.3801   23.9415 N   0  0  0  0  0  0
  -24.6657  -31.0792   22.1034 N   0  0  0  0  0  0
  -23.4168  -28.8201   23.3056 O   0  0  0  0  0  0
  -28.4281  -26.7467   20.0552 O   0  0  0  0  0  0
  -26.5595  -34.8923   22.4689 O   0  0  0  0  0  0
  -23.5333  -32.1453   23.7513 O   0  0  0  0  0  0
  -32.4429  -19.6522   22.1199 C   0  0  0  0  0  0
  -30.5448  -20.3378   21.2588 C   0  0  0  0  0  0
  -31.0292  -19.4942   22.2231 C   0  0  0  0  0  0
  -30.2403  -18.6017   23.1635 C   0  0  0  0  0  0
  -30.7249  -17.1268   23.2425 C   0  0  0  0  0  0
  -30.1000  -23.8539   19.5546 C   0  0  0  0  0  0
  -31.5280  -23.2700   19.6717 C   0  0  0  0  0  0
  -30.0831  -25.2911   18.9886 C   0  0  0  0  0  0
  -31.6284  -21.7471   19.4189 C   0  0  0  0  0  0
  -31.1854  -16.4401   21.9266 C   0  0  0  0  0  0
  -29.0151  -16.2189   20.8185 C   0  0  0  0  0  0
  -28.6776  -25.9165   18.9163 C   0  0  0  0  0  0
  -29.0317  -16.6044   19.3232 C   0  0  0  0  0  0
  -32.7917  -20.5026   21.1628 N   0  0  0  0  0  0
  -31.6221  -20.9084   20.6125 N   0  0  0  0  0  0
  -30.2240  -15.5069   21.2908 N   0  0  0  0  0  0
  -30.0897  -17.3656   19.0498 F   0  0  0  0  0  0
  -31.4578  -12.3845   19.1263 H   0  0  0  0  0  0
  -30.3062  -11.3008   19.8402 H   0  0  0  0  0  0
  -29.7403  -11.7575   17.4487 H   0  0  0  0  0  0
  -29.6424  -13.4732   17.7659 H   0  0  0  0  0  0
  -27.8553  -11.2746   18.8453 H   0  0  0  0  0  0
  -27.3523  -12.5720   17.7953 H   0  0  0  0  0  0
  -27.6691  -14.2114   19.5217 H   0  0  0  0  0  0
  -28.6969  -11.9784   21.3636 H   0  0  0  0  0  0
  -28.4705  -13.6143   21.8695 H   0  0  0  0  0  0
  -25.2860   -9.5631   22.4800 H   0  0  0  0  0  0
  -24.0040   -7.4605   22.7532 H   0  0  0  0  0  0
  -21.0949   -8.8845   19.8990 H   0  0  0  0  0  0
  -22.3818  -10.9741   19.6301 H   0  0  0  0  0  0
  -21.2013   -7.6117   23.9704 H   0  0  0  0  0  0
  -21.1497   -6.0503   25.9079 H   0  0  0  0  0  0
  -22.0612   -2.7589   23.2830 H   0  0  0  0  0  0
  -22.3961  -11.9896   22.4891 H   0  0  0  0  0  0
  -21.1035  -13.1327   22.2538 H   0  0  0  0  0  0
  -24.6341  -15.8272   20.4882 H   0  0  0  0  0  0
  -26.2769  -15.6340   20.1180 H   0  0  0  0  0  0
  -26.7102  -32.5546   23.1167 H   0  0  0  0  0  0
  -25.0104  -33.9804   25.0512 H   0  0  0  0  0  0
  -22.6890  -31.3104   21.4151 H   0  0  0  0  0  0
  -23.3762  -35.9633   23.3288 H   0  0  0  0  0  0
  -24.3583  -36.8934   22.2049 H   0  0  0  0  0  0
  -23.7226  -37.6504   23.6654 H   0  0  0  0  0  0
  -26.0434  -31.5971   20.6010 H   0  0  0  0  0  0
  -26.8151  -30.8834   21.9903 H   0  0  0  0  0  0
  -28.0928  -29.0988   21.1775 H   0  0  0  0  0  0
  -26.0214  -25.9829   19.0065 H   0  0  0  0  0  0
  -23.9688  -27.2941   19.0504 H   0  0  0  0  0  0
  -23.7061  -30.5956   19.4053 H   0  0  0  0  0  0
  -22.7309  -29.2388   19.8797 H   0  0  0  0  0  0
  -25.1293  -36.1992   25.0830 H   0  0  0  0  0  0
  -20.9946  -28.3204   24.1451 H   0  0  0  0  0  0
  -20.5688  -26.2250   23.3597 H   0  0  0  0  0  0
  -21.6628  -26.7450   22.1197 H   0  0  0  0  0  0
  -19.6884  -25.6289   21.1243 H   0  0  0  0  0  0
  -19.6674  -27.3202   20.6762 H   0  0  0  0  0  0
  -17.4189  -26.6717   21.4014 H   0  0  0  0  0  0
  -18.0271  -26.0053   22.9002 H   0  0  0  0  0  0
  -19.7913  -30.7279   24.2269 H   0  0  0  0  0  0
  -17.4987  -31.6275   24.5148 H   0  0  0  0  0  0
  -15.5338  -30.2982   23.7644 H   0  0  0  0  0  0
  -15.8661  -28.0823   22.7055 H   0  0  0  0  0  0
  -24.5921  -30.7030   25.7789 H   0  0  0  0  0  0
  -24.8910  -32.2832   26.4927 H   0  0  0  0  0  0
  -25.8080  -30.8842   27.0223 H   0  0  0  0  0  0
  -26.2862  -29.6792   24.1174 H   0  0  0  0  0  0
  -27.4103  -29.7298   25.4567 H   0  0  0  0  0  0
  -27.8683  -30.4373   23.9246 H   0  0  0  0  0  0
  -27.2684  -33.3618   26.2084 H   0  0  0  0  0  0
  -28.3848  -32.6876   25.0303 H   0  0  0  0  0  0
  -28.0727  -31.8425   26.5390 H   0  0  0  0  0  0
  -28.2588  -38.0130   24.7570 H   0  0  0  0  0  0
  -28.1129  -36.2667   24.6227 H   0  0  0  0  0  0
  -27.2313  -37.1375   25.8858 H   0  0  0  0  0  0
  -20.9280  -29.8777   21.7011 H   0  0  0  0  0  0
  -26.0196  -38.2877   24.1438 H   0  0  0  0  0  0
  -33.2168  -19.1615   22.6941 H   0  0  0  0  0  0
  -29.5294  -20.5500   20.9560 H   0  0  0  0  0  0
  -29.1825  -18.6261   22.9029 H   0  0  0  0  0  0
  -30.2581  -19.0218   24.1702 H   0  0  0  0  0  0
  -29.9965  -16.5076   23.7690 H   0  0  0  0  0  0
  -31.5967  -17.1424   23.8987 H   0  0  0  0  0  0
  -29.6098  -23.8257   20.5274 H   0  0  0  0  0  0
  -29.4971  -23.2301   18.8918 H   0  0  0  0  0  0
  -31.9783  -23.5413   20.6288 H   0  0  0  0  0  0
  -32.1523  -23.7576   18.9203 H   0  0  0  0  0  0
  -30.4876  -25.2562   17.9756 H   0  0  0  0  0  0
  -30.7561  -25.9413   19.5484 H   0  0  0  0  0  0
  -32.5499  -21.5411   18.8698 H   0  0  0  0  0  0
  -30.8252  -21.4149   18.7605 H   0  0  0  0  0  0
  -32.0758  -15.8714   22.2029 H   0  0  0  0  0  0
  -31.5332  -17.1579   21.1817 H   0  0  0  0  0  0
  -28.1239  -15.6479   21.0679 H   0  0  0  0  0  0
  -28.8661  -17.1380   21.3777 H   0  0  0  0  0  0
  -27.9410  -25.1198   18.8134 H   0  0  0  0  0  0
  -28.6077  -26.5355   18.0193 H   0  0  0  0  0  0
  -28.1495  -17.1859   19.0544 H   0  0  0  0  0  0
  -29.0703  -15.7481   18.6518 H   0  0  0  0  0  0
  1 25  1  0  0  0
  1 30  2  0  0  0
  1 86  1  0  0  0
  2  3  1  0  0  0
  2 25  1  0  0  0
  2 88  1  0  0  0
  2 89  1  0  0  0
  3  4  1  0  0  0
  3 90  1  0  0  0
  3 91  1  0  0  0
  4  5  1  0  0  0
  4 92  1  0  0  0
  4 93  1  0  0  0
  5  6  1  0  0  0
  5 26  1  0  0  0
  5 94  1  0  0  0
  6 25  1  0  0  0
  6 95  1  0  0  0
  6 96  1  0  0  0
  7  8  2  0  0  0
  7 26  1  0  0  0
  7 29  1  0  0  0
  8  9  1  0  0  0
  8 22  1  0  0  0
  9 10  1  0  0  0
  9 27  2  0  0  0
 10 11  2  0  0  0
 10 15  1  0  0  0
 11 12  1  0  0  0
 11 97  1  0  0  0
 12 13  2  0  0  0
 12 98  1  0  0  0
 13 14  1  0  0  0
 13 31  1  0  0  0
 14 15  2  0  0  0
 14 99  1  0  0  0
 15100  1  0  0  0
 16 17  2  0  0  0
 16 21  1  0  0  0
 16 31  1  0  0  0
 17 18  1  0  0  0
 17101  1  0  0  0
 18 19  2  0  0  0
 18102  1  0  0  0
 19 20  1  0  0  0
 19 24  1  0  0  0
 20 21  2  0  0  0
 20103  1  0  0  0
 21 23  1  0  0  0
 22 28  1  0  0  0
 22 32  2  0  0  0
 26 27  1  0  0  0
 28104  1  0  0  0
 28105  1  0  0  0
 29106  1  0  0  0
 29107  1  0  0  0
 33 34  1  0  0  0
 33 66  1  0  0  0
 33 70  2  0  0  0
 34 36  1  0  0  0
 34 59  1  0  0  0
 34108  1  0  0  0
 35 44  2  0  0  0
 35 45  1  0  0  0
 35 68  1  0  0  0
 36 56  1  0  0  0
 36109  1  0  0  0
 37 39  1  0  0  0
 37 47  1  0  0  0
 37 66  1  0  0  0
 37110  1  0  0  0
 38 43  2  0  0  0
 38 46  1  0  0  0
 38 47  1  0  0  0
 39 64  1  0  0  0
 39 67  2  0  0  0
 40 52  1  0  0  0
 40 53  2  0  0  0
 40 58  1  0  0  0
 41111  1  0  0  0
 41112  1  0  0  0
 41113  1  0  0  0
 41 48  1  0  0  0
 42 43  1  0  0  0
 42 66  1  0  0  0
 42114  1  0  0  0
 42115  1  0  0  0
 43 44  1  0  0  0
 44116  1  0  0  0
 45 46  2  0  0  0
 45117  1  0  0  0
 46118  1  0  0  0
 47119  1  0  0  0
 47120  1  0  0  0
 48 56  1  0  0  0
 48 65  1  0  0  0
 48121  1  0  0  0
 49 50  1  0  0  0
 49 53  1  0  0  0
 49 64  1  0  0  0
 49122  1  0  0  0
 50 51  1  0  0  0
 50123  1  0  0  0
 50124  1  0  0  0
 51 52  1  0  0  0
 51125  1  0  0  0
 51126  1  0  0  0
 52127  1  0  0  0
 52128  1  0  0  0
 53 54  1  0  0  0
 54 55  2  0  0  0
 54129  1  0  0  0
 55 57  1  0  0  0
 55130  1  0  0  0
 56 69  2  0  0  0
 57 58  2  0  0  0
 57131  1  0  0  0
 58132  1  0  0  0
 59 60  1  0  0  0
 59 61  1  0  0  0
 59 62  1  0  0  0
 60133  1  0  0  0
 60134  1  0  0  0
 60135  1  0  0  0
 61136  1  0  0  0
 61137  1  0  0  0
 61138  1  0  0  0
 62139  1  0  0  0
 62140  1  0  0  0
 62141  1  0  0  0
 63 65  1  0  0  0
 63142  1  0  0  0
 63143  1  0  0  0
 63144  1  0  0  0
 64145  1  0  0  0
 65146  1  0  0  0
 68 82  1  0  0  0
 71 73  1  0  0  0
 71 84  2  0  0  0
 71147  1  0  0  0
 72 73  2  0  0  0
 72 85  1  0  0  0
 72148  1  0  0  0
 73 74  1  0  0  0
 74 75  1  0  0  0
 74149  1  0  0  0
 74150  1  0  0  0
 75 80  1  0  0  0
 75151  1  0  0  0
 75152  1  0  0  0
 76 77  1  0  0  0
 76 78  1  0  0  0
 76153  1  0  0  0
 76154  1  0  0  0
 77 79  1  0  0  0
 77155  1  0  0  0
 77156  1  0  0  0
 78 82  1  0  0  0
 78157  1  0  0  0
 78158  1  0  0  0
 79 85  1  0  0  0
 79159  1  0  0  0
 79160  1  0  0  0
 80 86  1  0  0  0
 80161  1  0  0  0
 80162  1  0  0  0
 81 83  1  0  0  0
 81 86  1  0  0  0
 81163  1  0  0  0
 81164  1  0  0  0
 82165  1  0  0  0
 82166  1  0  0  0
 83 87  1  0  0  0
 83167  1  0  0  0
 83168  1  0  0  0
 84 85  1  0  0  0
M  ISO  4   1 100  68 101  82 101  86 100
M  END
> <chiral flag>
0

> <version>
0

> <s_m_source_file>
/data/baiqing/PycharmProjects/Reinvent-master-3.2/result/LINK_invent/BTK/process_docking_weight1_custom_sum_contain_oxygen_bond_distance_aromatic_linkinvent_7_9_3/rearranged_h_0051.sdf

> <i_m_source_file_index>
80

> <r_mmod_Potential_Energy-OPLS-2005>
150.568283081055

> <r_mmod_Stretch_Energy-OPLS-2005>
39.1494445800781

> <r_mmod_Bend_Energy-OPLS-2005>
119.73397064209

> <r_mmod_Torsional_Energy-OPLS-2005>
324.025634765625

> <r_mmod_Improper_Torsional_Energy-OPLS-2005>
5.20863389968872

> <r_mmod_Van_der_Waal_Energy-OPLS-2005>
140.121627807617

> <r_mmod_Electrostatic_Energy-OPLS-2005>
-269.259887695312

> <r_mmod_Solvation_Energy-OPLS-2005>
-222.216735839844

> <b_mmod_Minimization_Converged-OPLS-2005>
0

> <r_mmod_RMS_Derivative-OPLS-2005>
4.45546102523804

$$$$
81
                    3D
 Structure written by MMmdl.
174182  0  0  1  0            999 V2000
  -30.7756  -14.3861   20.5903 C   0  0  0  0  0  0
  -30.3942  -12.2609   19.4116 C   0  0  0  0  0  0
  -29.4768  -12.4957   18.1982 C   0  0  0  0  0  0
  -28.0032  -12.3611   18.6151 C   0  0  0  0  0  0
  -27.6611  -13.2032   19.8724 C   0  0  2  0  0  0
  -28.7038  -12.9881   20.9950 C   0  0  0  0  0  0
  -25.2627  -13.8176   20.5697 C   0  0  0  0  0  0
  -24.1849  -13.0476   20.9186 C   0  0  0  0  0  0
  -24.6378  -11.6933   20.8720 C   0  0  0  0  0  0
  -23.9059  -10.4320   21.0376 C   0  0  0  0  0  0
  -24.3609   -9.4228   21.9163 C   0  0  0  0  0  0
  -23.6284   -8.2254   22.0730 C   0  0  0  0  0  0
  -22.4275   -8.0279   21.3517 C   0  0  0  0  0  0
  -21.9914   -9.0253   20.4619 C   0  0  0  0  0  0
  -22.7229  -10.2144   20.3024 C   0  0  0  0  0  0
  -21.6854   -6.0730   22.5275 C   0  0  0  0  0  0
  -21.4008   -6.5637   23.8209 C   0  0  0  0  0  0
  -21.3658   -5.6786   24.9177 C   0  0  0  0  0  0
  -21.6040   -4.3040   24.7222 C   0  0  0  0  0  0
  -21.8818   -3.8144   23.4340 C   0  0  0  0  0  0
  -21.9197   -4.6962   22.3403 C   0  0  0  0  0  0
  -22.7871  -13.5250   21.1852 C   0  0  0  0  0  0
  -22.1665   -4.2154   21.0970 F   0  0  0  0  0  0
  -21.5651   -3.4514   25.7729 F   0  0  0  0  0  0
  -30.0432  -13.2502   20.4407 N   0  0  0  0  0  0
  -26.3022  -12.9323   20.3366 N   0  0  0  0  0  0
  -25.9301  -11.6503   20.5765 N   0  0  0  0  0  0
  -22.0554  -12.8202   22.0404 N   0  0  0  0  0  0
  -25.4506  -15.1885   20.4111 N   0  0  0  0  0  0
  -31.8458  -14.5730   20.0037 O   0  0  0  0  0  0
  -21.6636   -6.8866   21.4226 O   0  0  0  0  0  0
  -22.3551  -14.5574   20.6748 O   0  0  0  0  0  0
  -24.6080  -31.8695   23.2091 C   0  0  0  0  0  0
  -25.8980  -32.4824   23.8383 C   0  0  1  0  0  0
  -27.2342  -27.4677   20.0769 C   0  0  0  0  0  0
  -25.5886  -33.8619   24.2366 N   0  0  0  0  0  0
  -23.3933  -30.4912   21.5500 C   0  0  2  0  0  0
  -24.8360  -28.9574   20.1168 C   0  0  0  0  0  0
  -22.7383  -29.4642   22.5008 C   0  0  0  0  0  0
  -18.0257  -28.1313   22.8430 C   0  0  0  0  0  0
  -24.1486  -36.7269   23.2653 C   0  0  0  0  0  0
  -25.9169  -30.8490   21.3460 C   0  0  0  0  0  0
  -25.9964  -29.4787   20.7076 C   0  0  0  0  0  0
  -27.1950  -28.7405   20.6831 C   0  0  0  0  0  0
  -26.0573  -26.9493   19.4909 C   0  0  0  0  0  0
  -24.8612  -27.6887   19.5123 C   0  0  0  0  0  0
  -23.5968  -29.8203   20.1646 C   0  0  0  0  0  0
  -25.4103  -36.3103   24.0371 C   0  0  1  0  0  0
  -20.5860  -28.3586   23.1294 C   0  0  2  0  0  0
  -20.6751  -26.9321   22.5424 C   0  0  0  0  0  0
  -19.5737  -26.6332   21.5190 C   0  0  0  0  0  0
  -18.1897  -26.7867   22.1562 C   0  0  0  0  0  0
  -19.1528  -28.8762   23.2829 C   0  0  0  0  0  0
  -18.9501  -30.1359   23.8846 C   0  0  0  0  0  0
  -17.6516  -30.6524   24.0504 C   0  0  0  0  0  0
  -25.9032  -34.9466   23.5149 C   0  0  0  0  0  0
  -16.5378  -29.9044   23.6283 C   0  0  0  0  0  0
  -16.7271  -28.6464   23.0269 C   0  0  0  0  0  0
  -26.4478  -31.6546   25.0632 C   0  0  0  0  0  0
  -25.3836  -31.3592   26.1446 C   0  0  0  0  0  0
  -27.0276  -30.3048   24.5780 C   0  0  0  0  0  0
  -27.6023  -32.4297   25.7410 C   0  0  0  0  0  0
  -27.5581  -37.1768   24.8492 C   0  0  0  0  0  0
  -21.4134  -29.2971   22.3714 N   0  0  0  0  0  0
  -26.4300  -37.3785   23.9451 N   0  0  0  0  0  0
  -24.6591  -31.0852   22.0949 N   0  0  0  0  0  0
  -23.4201  -28.8169   23.2991 O   0  0  0  0  0  0
  -28.4338  -26.7969   20.0425 O   0  0  0  0  0  0
  -26.5577  -34.8912   22.4710 O   0  0  0  0  0  0
  -23.5272  -32.1463   23.7500 O   0  0  0  0  0  0
  -27.4852  -22.4638   22.3494 C   0  0  0  0  0  0
  -28.3572  -23.4880   21.8775 C   0  0  0  0  0  0
  -28.3232  -21.4912   22.8335 C   0  0  0  0  0  0
  -33.1963  -16.9788   23.3963 C   0  0  0  0  0  0
  -30.8944  -21.3241   22.9156 C   0  0  0  0  0  0
  -26.8079  -18.1635   23.8219 C   0  0  0  0  0  0
  -28.0270  -24.9197   21.5334 C   0  0  0  0  0  0
  -27.9992  -20.2801   23.6720 C   0  0  0  0  0  0
  -32.1502  -16.8142   22.2839 C   0  0  0  0  0  0
  -28.3923  -17.1068   21.4498 C   0  0  0  0  0  0
  -31.1047  -15.7029   22.5604 C   0  0  0  0  0  0
  -29.5917  -16.4742   20.6995 C   0  0  0  0  0  0
  -28.7549  -18.3510   22.2995 C   0  0  0  0  0  0
  -28.4404  -25.3699   20.1177 C   0  0  0  0  0  0
  -29.6243  -23.1211   21.9577 N   0  0  0  0  0  0
  -29.6164  -21.9154   22.5594 N   0  0  0  0  0  0
  -30.2689  -15.3491   21.3928 N   0  0  0  0  0  0
  -27.5977  -19.0531   22.9314 N   0  3  1  0  0  0
  -31.4427  -12.3063   19.1152 H   0  0  0  0  0  0
  -30.2503  -11.2524   19.8059 H   0  0  0  0  0  0
  -29.7087  -11.7843   17.4053 H   0  0  0  0  0  0
  -29.6532  -13.4878   17.7811 H   0  0  0  0  0  0
  -27.8119  -11.3036   18.8097 H   0  0  0  0  0  0
  -27.3485  -12.6353   17.7850 H   0  0  0  0  0  0
  -27.7058  -14.2489   19.5710 H   0  0  0  0  0  0
  -28.6595  -11.9618   21.3619 H   0  0  0  0  0  0
  -28.4742  -13.6166   21.8546 H   0  0  0  0  0  0
  -25.2761   -9.5702   22.4733 H   0  0  0  0  0  0
  -24.0005   -7.4634   22.7423 H   0  0  0  0  0  0
  -21.0870   -8.8717   19.8911 H   0  0  0  0  0  0
  -22.3662  -10.9649   19.6109 H   0  0  0  0  0  0
  -21.1986   -7.6138   23.9708 H   0  0  0  0  0  0
  -21.1493   -6.0517   25.9074 H   0  0  0  0  0  0
  -22.0609   -2.7603   23.2832 H   0  0  0  0  0  0
  -22.4163  -11.9799   22.4680 H   0  0  0  0  0  0
  -21.1176  -13.1190   22.2626 H   0  0  0  0  0  0
  -24.7070  -15.8658   20.5339 H   0  0  0  0  0  0
  -26.3101  -15.5931   20.0640 H   0  0  0  0  0  0
  -26.6969  -32.5548   23.1082 H   0  0  0  0  0  0
  -25.0151  -33.9826   25.0592 H   0  0  0  0  0  0
  -22.6763  -31.3015   21.4073 H   0  0  0  0  0  0
  -23.3745  -35.9581   23.3340 H   0  0  0  0  0  0
  -24.3621  -36.8852   22.2056 H   0  0  0  0  0  0
  -23.7231  -37.6482   23.6649 H   0  0  0  0  0  0
  -26.0138  -31.6032   20.5601 H   0  0  0  0  0  0
  -26.8138  -30.9196   21.9478 H   0  0  0  0  0  0
  -28.0966  -29.1515   21.1148 H   0  0  0  0  0  0
  -26.0423  -25.9939   18.9923 H   0  0  0  0  0  0
  -23.9697  -27.2778   19.0576 H   0  0  0  0  0  0
  -23.7001  -30.5947   19.4032 H   0  0  0  0  0  0
  -22.7223  -29.2330   19.8752 H   0  0  0  0  0  0
  -25.1265  -36.1973   25.0857 H   0  0  0  0  0  0
  -20.9911  -28.3145   24.1422 H   0  0  0  0  0  0
  -20.5643  -26.2181   23.3612 H   0  0  0  0  0  0
  -21.6620  -26.7338   22.1218 H   0  0  0  0  0  0
  -19.6942  -25.6278   21.1132 H   0  0  0  0  0  0
  -19.6693  -27.3164   20.6732 H   0  0  0  0  0  0
  -17.4208  -26.6567   21.3924 H   0  0  0  0  0  0
  -18.0257  -26.0035   22.8975 H   0  0  0  0  0  0
  -19.8024  -30.7102   24.2205 H   0  0  0  0  0  0
  -17.5131  -31.6209   24.5115 H   0  0  0  0  0  0
  -15.5377  -30.2931   23.7684 H   0  0  0  0  0  0
  -15.8654  -28.0798   22.6971 H   0  0  0  0  0  0
  -24.6081  -30.6799   25.7921 H   0  0  0  0  0  0
  -24.8911  -32.2676   26.4886 H   0  0  0  0  0  0
  -25.8325  -30.8903   27.0209 H   0  0  0  0  0  0
  -26.2702  -29.6810   24.1023 H   0  0  0  0  0  0
  -27.4417  -29.7239   25.4020 H   0  0  0  0  0  0
  -27.8350  -30.4472   23.8606 H   0  0  0  0  0  0
  -27.2607  -33.3639   26.1874 H   0  0  0  0  0  0
  -28.3873  -32.6815   25.0275 H   0  0  0  0  0  0
  -28.0595  -31.8506   26.5426 H   0  0  0  0  0  0
  -28.2567  -38.0093   24.7588 H   0  0  0  0  0  0
  -28.1115  -36.2635   24.6269 H   0  0  0  0  0  0
  -27.2337  -37.1361   25.8908 H   0  0  0  0  0  0
  -20.9312  -29.8771   21.7021 H   0  0  0  0  0  0
  -26.0175  -38.2839   24.1523 H   0  0  0  0  0  0
  -26.4076  -22.4989   22.4452 H   0  0  0  0  0  0
  -33.7522  -17.9101   23.2700 H   0  0  0  0  0  0
  -33.9237  -16.1652   23.3759 H   0  0  0  0  0  0
  -32.7435  -17.0056   24.3890 H   0  0  0  0  0  0
  -30.9417  -20.2844   22.6006 H   0  0  0  0  0  0
  -31.0362  -21.3827   23.9949 H   0  0  0  0  0  0
  -31.7111  -21.8625   22.4342 H   0  0  0  0  0  0
  -27.4291  -17.7888   24.6362 H   0  0  0  0  0  0
  -26.3852  -17.3116   23.2934 H   0  0  0  0  0  0
  -25.9695  -18.6994   24.2696 H   0  0  0  0  0  0
  -28.5344  -25.5602   22.2574 H   0  0  0  0  0  0
  -26.9626  -25.1067   21.6747 H   0  0  0  0  0  0
  -27.1730  -20.5668   24.3257 H   0  0  0  0  0  0
  -28.8294  -20.0606   24.3430 H   0  0  0  0  0  0
  -32.6788  -16.6318   21.3443 H   0  0  0  0  0  0
  -31.6391  -17.7673   22.1606 H   0  0  0  0  0  0
  -27.9109  -16.3326   22.0458 H   0  0  0  0  0  0
  -27.6520  -17.4183   20.7074 H   0  0  0  0  0  0
  -30.4611  -15.9718   23.3977 H   0  0  0  0  0  0
  -31.6343  -14.8091   22.9056 H   0  0  0  0  0  0
  -30.3102  -17.2285   20.3717 H   0  0  0  0  0  0
  -29.1787  -16.0875   19.7641 H   0  0  0  0  0  0
  -29.2709  -19.0629   21.6569 H   0  0  0  0  0  0
  -29.4635  -18.0707   23.0769 H   0  0  0  0  0  0
  -27.8470  -24.8964   19.3390 H   0  0  0  0  0  0
  -29.4721  -25.0746   19.9282 H   0  0  0  0  0  0
  -26.9764  -19.3644   22.1968 H   0  0  0  0  0  0
  1 25  1  0  0  0
  1 30  2  0  0  0
  1 87  1  0  0  0
  2  3  1  0  0  0
  2 25  1  0  0  0
  2 89  1  0  0  0
  2 90  1  0  0  0
  3  4  1  0  0  0
  3 91  1  0  0  0
  3 92  1  0  0  0
  4  5  1  0  0  0
  4 93  1  0  0  0
  4 94  1  0  0  0
  5  6  1  0  0  0
  5 26  1  0  0  0
  5 95  1  0  0  0
  6 25  1  0  0  0
  6 96  1  0  0  0
  6 97  1  0  0  0
  7  8  2  0  0  0
  7 26  1  0  0  0
  7 29  1  0  0  0
  8  9  1  0  0  0
  8 22  1  0  0  0
  9 10  1  0  0  0
  9 27  2  0  0  0
 10 11  2  0  0  0
 10 15  1  0  0  0
 11 12  1  0  0  0
 11 98  1  0  0  0
 12 13  2  0  0  0
 12 99  1  0  0  0
 13 14  1  0  0  0
 13 31  1  0  0  0
 14 15  2  0  0  0
 14100  1  0  0  0
 15101  1  0  0  0
 16 17  2  0  0  0
 16 21  1  0  0  0
 16 31  1  0  0  0
 17 18  1  0  0  0
 17102  1  0  0  0
 18 19  2  0  0  0
 18103  1  0  0  0
 19 20  1  0  0  0
 19 24  1  0  0  0
 20 21  2  0  0  0
 20104  1  0  0  0
 21 23  1  0  0  0
 22 28  1  0  0  0
 22 32  2  0  0  0
 26 27  1  0  0  0
 28105  1  0  0  0
 28106  1  0  0  0
 29107  1  0  0  0
 29108  1  0  0  0
 33 34  1  0  0  0
 33 66  1  0  0  0
 33 70  2  0  0  0
 34 36  1  0  0  0
 34 59  1  0  0  0
 34109  1  0  0  0
 35 44  2  0  0  0
 35 45  1  0  0  0
 35 68  1  0  0  0
 36 56  1  0  0  0
 36110  1  0  0  0
 37 39  1  0  0  0
 37 47  1  0  0  0
 37 66  1  0  0  0
 37111  1  0  0  0
 38 43  2  0  0  0
 38 46  1  0  0  0
 38 47  1  0  0  0
 39 64  1  0  0  0
 39 67  2  0  0  0
 40 52  1  0  0  0
 40 53  2  0  0  0
 40 58  1  0  0  0
 41112  1  0  0  0
 41113  1  0  0  0
 41114  1  0  0  0
 41 48  1  0  0  0
 42 43  1  0  0  0
 42 66  1  0  0  0
 42115  1  0  0  0
 42116  1  0  0  0
 43 44  1  0  0  0
 44117  1  0  0  0
 45 46  2  0  0  0
 45118  1  0  0  0
 46119  1  0  0  0
 47120  1  0  0  0
 47121  1  0  0  0
 48 56  1  0  0  0
 48 65  1  0  0  0
 48122  1  0  0  0
 49 50  1  0  0  0
 49 53  1  0  0  0
 49 64  1  0  0  0
 49123  1  0  0  0
 50 51  1  0  0  0
 50124  1  0  0  0
 50125  1  0  0  0
 51 52  1  0  0  0
 51126  1  0  0  0
 51127  1  0  0  0
 52128  1  0  0  0
 52129  1  0  0  0
 53 54  1  0  0  0
 54 55  2  0  0  0
 54130  1  0  0  0
 55 57  1  0  0  0
 55131  1  0  0  0
 56 69  2  0  0  0
 57 58  2  0  0  0
 57132  1  0  0  0
 58133  1  0  0  0
 59 60  1  0  0  0
 59 61  1  0  0  0
 59 62  1  0  0  0
 60134  1  0  0  0
 60135  1  0  0  0
 60136  1  0  0  0
 61137  1  0  0  0
 61138  1  0  0  0
 61139  1  0  0  0
 62140  1  0  0  0
 62141  1  0  0  0
 62142  1  0  0  0
 63 65  1  0  0  0
 63143  1  0  0  0
 63144  1  0  0  0
 63145  1  0  0  0
 64146  1  0  0  0
 65147  1  0  0  0
 68 84  1  0  0  0
 71 72  1  0  0  0
 71 73  2  0  0  0
 71148  1  0  0  0
 72 77  1  0  0  0
 72 85  2  0  0  0
 73 78  1  0  0  0
 73 86  1  0  0  0
 74 79  1  0  0  0
 74149  1  0  0  0
 74150  1  0  0  0
 74151  1  0  0  0
 75 86  1  0  0  0
 75152  1  0  0  0
 75153  1  0  0  0
 75154  1  0  0  0
 76155  1  0  0  0
 76156  1  0  0  0
 76157  1  0  0  0
 76 88  1  0  0  0
 77 84  1  0  0  0
 77158  1  0  0  0
 77159  1  0  0  0
 78 88  1  0  0  0
 78160  1  0  0  0
 78161  1  0  0  0
 79 81  1  0  0  0
 79162  1  0  0  0
 79163  1  0  0  0
 80 82  1  0  0  0
 80 83  1  0  0  0
 80164  1  0  0  0
 80165  1  0  0  0
 81 87  1  0  0  0
 81166  1  0  0  0
 81167  1  0  0  0
 82 87  1  0  0  0
 82168  1  0  0  0
 82169  1  0  0  0
 83 88  1  0  0  0
 83170  1  0  0  0
 83171  1  0  0  0
 84172  1  0  0  0
 84173  1  0  0  0
 85 86  1  0  0  0
 88174  1  0  0  0
M  CHG  1  88   1
M  ISO  4   1 100  68 101  84 101  87 100
M  END
> <chiral flag>
0

> <version>
0

> <s_m_source_file>
/data/baiqing/PycharmProjects/Reinvent-master-3.2/result/LINK_invent/BTK/process_docking_weight1_custom_sum_contain_oxygen_bond_distance_aromatic_linkinvent_7_9_3/rearranged_h_0051.sdf

> <i_m_source_file_index>
81

> <r_mmod_Potential_Energy-OPLS-2005>
-46.0391120910645

> <r_mmod_Stretch_Energy-OPLS-2005>
37.3860778808594

> <r_mmod_Bend_Energy-OPLS-2005>
116.626884460449

> <r_mmod_Torsional_Energy-OPLS-2005>
308.845031738281

> <r_mmod_Improper_Torsional_Energy-OPLS-2005>
7.31696653366089

> <r_mmod_Van_der_Waal_Energy-OPLS-2005>
124.449279785156

> <r_mmod_Electrostatic_Energy-OPLS-2005>
-186.524475097656

> <r_mmod_Solvation_Energy-OPLS-2005>
-464.076995849609

> <b_mmod_Minimization_Converged-OPLS-2005>
0

> <r_mmod_RMS_Derivative-OPLS-2005>
5.77607917785645

$$$$
82
                    3D
 Structure written by MMmdl.
180188  0  0  1  0            999 V2000
  -30.7816  -14.3888   20.5836 C   0  0  0  0  0  0
  -30.3977  -12.2643   19.4235 C   0  0  0  0  0  0
  -29.4798  -12.4957   18.2090 C   0  0  0  0  0  0
  -28.0049  -12.3661   18.6280 C   0  0  0  0  0  0
  -27.6630  -13.2088   19.8855 C   0  0  2  0  0  0
  -28.7069  -13.0035   21.0097 C   0  0  0  0  0  0
  -25.2609  -13.8184   20.5716 C   0  0  0  0  0  0
  -24.1857  -13.0466   20.9187 C   0  0  0  0  0  0
  -24.6401  -11.6927   20.8754 C   0  0  0  0  0  0
  -23.9062  -10.4303   21.0413 C   0  0  0  0  0  0
  -24.3602   -9.4208   21.9200 C   0  0  0  0  0  0
  -23.6271   -8.2250   22.0774 C   0  0  0  0  0  0
  -22.4263   -8.0286   21.3544 C   0  0  0  0  0  0
  -21.9903   -9.0263   20.4650 C   0  0  0  0  0  0
  -22.7229  -10.2149   20.3066 C   0  0  0  0  0  0
  -21.6857   -6.0741   22.5270 C   0  0  0  0  0  0
  -21.4013   -6.5638   23.8200 C   0  0  0  0  0  0
  -21.3664   -5.6786   24.9162 C   0  0  0  0  0  0
  -21.6038   -4.3055   24.7213 C   0  0  0  0  0  0
  -21.8823   -3.8150   23.4333 C   0  0  0  0  0  0
  -21.9186   -4.6965   22.3386 C   0  0  0  0  0  0
  -22.7877  -13.5247   21.1827 C   0  0  0  0  0  0
  -22.1658   -4.2147   21.0964 F   0  0  0  0  0  0
  -21.5637   -3.4543   25.7733 F   0  0  0  0  0  0
  -30.0448  -13.2571   20.4495 N   0  0  0  0  0  0
  -26.3042  -12.9348   20.3443 N   0  0  0  0  0  0
  -25.9329  -11.6503   20.5817 N   0  0  0  0  0  0
  -22.0530  -12.8234   22.0387 N   0  0  0  0  0  0
  -25.4362  -15.1893   20.4116 N   0  0  0  0  0  0
  -31.8727  -14.5417   20.0310 O   0  0  0  0  0  0
  -21.6632   -6.8883   21.4232 O   0  0  0  0  0  0
  -22.3564  -14.5559   20.6683 O   0  0  0  0  0  0
  -24.6039  -31.8709   23.2137 C   0  0  0  0  0  0
  -25.8960  -32.4837   23.8411 C   0  0  1  0  0  0
  -27.2672  -27.5026   20.0725 C   0  0  0  0  0  0
  -25.5858  -33.8643   24.2339 N   0  0  0  0  0  0
  -23.3930  -30.4896   21.5520 C   0  0  2  0  0  0
  -24.8453  -28.9545   20.1222 C   0  0  0  0  0  0
  -22.7353  -29.4632   22.4999 C   0  0  0  0  0  0
  -18.0254  -28.1367   22.8494 C   0  0  0  0  0  0
  -24.1497  -36.7328   23.2651 C   0  0  0  0  0  0
  -25.9112  -30.8530   21.3617 C   0  0  0  0  0  0
  -25.9950  -29.4871   20.7184 C   0  0  0  0  0  0
  -27.2007  -28.7617   20.7086 C   0  0  0  0  0  0
  -26.0963  -26.9557   19.5088 C   0  0  0  0  0  0
  -24.8849  -27.6784   19.5278 C   0  0  0  0  0  0
  -23.6019  -29.8152   20.1676 C   0  0  0  0  0  0
  -25.4126  -36.3128   24.0321 C   0  0  1  0  0  0
  -20.5824  -28.3651   23.1330 C   0  0  2  0  0  0
  -20.6738  -26.9385   22.5435 C   0  0  0  0  0  0
  -19.5744  -26.6378   21.5193 C   0  0  0  0  0  0
  -18.1912  -26.7930   22.1580 C   0  0  0  0  0  0
  -19.1501  -28.8811   23.2919 C   0  0  0  0  0  0
  -18.9446  -30.1432   23.8929 C   0  0  0  0  0  0
  -17.6462  -30.6597   24.0559 C   0  0  0  0  0  0
  -25.9040  -34.9480   23.5137 C   0  0  0  0  0  0
  -16.5355  -29.9099   23.6306 C   0  0  0  0  0  0
  -16.7252  -28.6510   23.0374 C   0  0  0  0  0  0
  -26.4424  -31.6591   25.0702 C   0  0  0  0  0  0
  -25.3754  -31.3747   26.1510 C   0  0  0  0  0  0
  -27.0151  -30.2999   24.6055 C   0  0  0  0  0  0
  -27.6066  -32.4223   25.7436 C   0  0  0  0  0  0
  -27.5568  -37.1860   24.8488 C   0  0  0  0  0  0
  -21.4080  -29.3020   22.3735 N   0  0  0  0  0  0
  -26.4334  -37.3784   23.9356 N   0  0  0  0  0  0
  -24.6535  -31.0832   22.1029 N   0  0  0  0  0  0
  -23.4141  -28.8153   23.3013 O   0  0  0  0  0  0
  -28.4541  -26.8207   19.9573 O   0  0  0  0  0  0
  -26.5600  -34.8911   22.4703 O   0  0  0  0  0  0
  -23.5250  -32.1429   23.7566 O   0  0  0  0  0  0
  -30.7561  -24.8837   18.2894 C   0  0  0  0  0  0
  -31.2492  -25.7323   19.2521 C   0  0  0  0  0  0
  -32.3236  -23.7817   19.4094 C   0  0  0  0  0  0
  -32.3277  -15.9127   23.1584 C   0  0  0  0  0  0
  -30.5972  -17.6218   23.5798 C   0  0  0  0  0  0
  -31.2271  -22.4769   17.6244 C   0  0  0  0  0  0
  -32.0641  -22.5905   22.1374 C   0  0  0  0  0  0
  -33.8808  -17.7909   21.5803 C   0  0  0  0  0  0
  -30.8932  -27.1323   19.6482 C   0  0  0  0  0  0
  -33.1503  -22.6704   19.9893 C   0  0  0  0  0  0
  -33.0657  -20.5944   21.2561 C   0  0  0  0  0  0
  -30.8315  -16.7535   21.2409 C   0  0  0  0  0  0
  -32.0445  -19.4740   21.5964 C   0  0  0  0  0  0
  -29.4695  -27.5542   19.2534 C   0  0  0  0  0  0
  -31.6278  -17.1465   22.5271 C   0  0  0  0  0  0
  -31.4333  -23.6972   18.4100 N   0  0  0  0  0  0
  -32.2532  -25.0322   19.8747 N   0  3  0  0  0  0
  -30.2348  -15.4064   21.2631 N   0  0  0  0  0  0
  -32.3716  -21.8376   20.9176 N   0  0  0  0  0  0
  -32.6237  -18.2539   22.2447 N   0  3  1  0  0  0
  -31.4447  -12.3112   19.1210 H   0  0  0  0  0  0
  -30.2554  -11.2597   19.8237 H   0  0  0  0  0  0
  -29.7099  -11.7767   17.4208 H   0  0  0  0  0  0
  -29.6565  -13.4854   17.7858 H   0  0  0  0  0  0
  -27.8084  -11.3100   18.8217 H   0  0  0  0  0  0
  -27.3513  -12.6454   17.8005 H   0  0  0  0  0  0
  -27.7084  -14.2551   19.5830 H   0  0  0  0  0  0
  -28.6671  -11.9819   21.3904 H   0  0  0  0  0  0
  -28.4813  -13.6435   21.8642 H   0  0  0  0  0  0
  -25.2753   -9.5694   22.4773 H   0  0  0  0  0  0
  -23.9990   -7.4656   22.7513 H   0  0  0  0  0  0
  -21.0851   -8.8786   19.8945 H   0  0  0  0  0  0
  -22.3696  -10.9696   19.6182 H   0  0  0  0  0  0
  -21.2015   -7.6150   23.9700 H   0  0  0  0  0  0
  -21.1486   -6.0524   25.9063 H   0  0  0  0  0  0
  -22.0602   -2.7611   23.2834 H   0  0  0  0  0  0
  -22.4166  -11.9854   22.4694 H   0  0  0  0  0  0
  -21.1150  -13.1258   22.2616 H   0  0  0  0  0  0
  -24.6806  -15.8553   20.5329 H   0  0  0  0  0  0
  -26.2999  -15.6241   20.1114 H   0  0  0  0  0  0
  -26.7028  -32.5604   23.1194 H   0  0  0  0  0  0
  -24.9966  -33.9834   25.0447 H   0  0  0  0  0  0
  -22.6785  -31.3017   21.4084 H   0  0  0  0  0  0
  -23.3794  -35.9627   23.3254 H   0  0  0  0  0  0
  -24.3579  -36.9049   22.2077 H   0  0  0  0  0  0
  -23.7192  -37.6476   23.6754 H   0  0  0  0  0  0
  -26.0095  -31.6220   20.5938 H   0  0  0  0  0  0
  -26.8031  -30.9148   21.9725 H   0  0  0  0  0  0
  -28.0838  -29.1817   21.1689 H   0  0  0  0  0  0
  -26.1331  -25.9882   19.0307 H   0  0  0  0  0  0
  -23.9988  -27.2561   19.0710 H   0  0  0  0  0  0
  -23.7066  -30.5901   19.4074 H   0  0  0  0  0  0
  -22.7311  -29.2279   19.8704 H   0  0  0  0  0  0
  -25.1310  -36.2034   25.0816 H   0  0  0  0  0  0
  -20.9916  -28.3252   24.1451 H   0  0  0  0  0  0
  -20.5607  -26.2256   23.3627 H   0  0  0  0  0  0
  -21.6642  -26.7423   22.1287 H   0  0  0  0  0  0
  -19.6952  -25.6287   21.1227 H   0  0  0  0  0  0
  -19.6725  -27.3188   20.6728 H   0  0  0  0  0  0
  -17.4203  -26.6692   21.3963 H   0  0  0  0  0  0
  -18.0299  -26.0045   22.8948 H   0  0  0  0  0  0
  -19.7921  -30.7205   24.2346 H   0  0  0  0  0  0
  -17.5033  -31.6282   24.5175 H   0  0  0  0  0  0
  -15.5360  -30.3058   23.7588 H   0  0  0  0  0  0
  -15.8638  -28.0821   22.7113 H   0  0  0  0  0  0
  -24.5756  -30.7283   25.7862 H   0  0  0  0  0  0
  -24.9169  -32.2962   26.5124 H   0  0  0  0  0  0
  -25.8122  -30.8732   27.0153 H   0  0  0  0  0  0
  -26.2609  -29.6796   24.1186 H   0  0  0  0  0  0
  -27.3948  -29.7204   25.4480 H   0  0  0  0  0  0
  -27.8469  -30.4240   23.9108 H   0  0  0  0  0  0
  -27.2824  -33.3640   26.1870 H   0  0  0  0  0  0
  -28.3973  -32.6529   25.0284 H   0  0  0  0  0  0
  -28.0567  -31.8357   26.5460 H   0  0  0  0  0  0
  -28.2737  -38.0003   24.7340 H   0  0  0  0  0  0
  -28.0909  -36.2533   24.6616 H   0  0  0  0  0  0
  -27.2234  -37.1898   25.8881 H   0  0  0  0  0  0
  -20.9229  -29.8780   21.6989 H   0  0  0  0  0  0
  -26.0243  -38.2892   24.1280 H   0  0  0  0  0  0
  -29.9695  -25.0247   17.5610 H   0  0  0  0  0  0
  -31.6052  -15.1929   23.5459 H   0  0  0  0  0  0
  -32.9628  -16.1920   23.9994 H   0  0  0  0  0  0
  -32.9384  -15.3661   22.4404 H   0  0  0  0  0  0
  -29.9374  -16.8069   23.8823 H   0  0  0  0  0  0
  -29.9455  -18.4114   23.2055 H   0  0  0  0  0  0
  -31.0809  -17.9943   24.4834 H   0  0  0  0  0  0
  -30.3819  -22.6107   16.9509 H   0  0  0  0  0  0
  -31.0233  -21.6433   18.2973 H   0  0  0  0  0  0
  -32.1246  -22.2698   17.0414 H   0  0  0  0  0  0
  -31.4825  -23.4859   21.9176 H   0  0  0  0  0  0
  -32.9742  -22.9045   22.6531 H   0  0  0  0  0  0
  -31.4686  -22.0065   22.8387 H   0  0  0  0  0  0
  -34.6320  -18.5766   21.5265 H   0  0  0  0  0  0
  -33.6993  -17.4336   20.5668 H   0  0  0  0  0  0
  -34.3836  -16.9973   22.1296 H   0  0  0  0  0  0
  -31.6121  -27.8062   19.1841 H   0  0  0  0  0  0
  -31.0134  -27.2429   20.7253 H   0  0  0  0  0  0
  -34.0195  -23.1185   20.4741 H   0  0  0  0  0  0
  -33.5127  -22.0857   19.1428 H   0  0  0  0  0  0
  -33.6513  -20.2641   20.3961 H   0  0  0  0  0  0
  -33.7725  -20.7642   22.0709 H   0  0  0  0  0  0
  -31.4583  -16.8765   20.3567 H   0  0  0  0  0  0
  -30.0130  -17.4559   21.0769 H   0  0  0  0  0  0
  -31.5251  -19.2145   20.6744 H   0  0  0  0  0  0
  -31.2869  -19.8806   22.2631 H   0  0  0  0  0  0
  -29.3208  -27.4227   18.1813 H   0  0  0  0  0  0
  -29.3993  -28.6284   19.4226 H   0  0  0  0  0  0
  -32.8429  -25.3893   20.6195 H   0  0  0  0  0  0
  -29.3394  -15.2690   21.7072 H   0  0  0  0  0  0
  -32.9317  -18.5697   23.1543 H   0  0  0  0  0  0
  1 25  1  0  0  0
  1 30  2  0  0  0
  1 88  1  0  0  0
  2  3  1  0  0  0
  2 25  1  0  0  0
  2 91  1  0  0  0
  2 92  1  0  0  0
  3  4  1  0  0  0
  3 93  1  0  0  0
  3 94  1  0  0  0
  4  5  1  0  0  0
  4 95  1  0  0  0
  4 96  1  0  0  0
  5  6  1  0  0  0
  5 26  1  0  0  0
  5 97  1  0  0  0
  6 25  1  0  0  0
  6 98  1  0  0  0
  6 99  1  0  0  0
  7  8  2  0  0  0
  7 26  1  0  0  0
  7 29  1  0  0  0
  8  9  1  0  0  0
  8 22  1  0  0  0
  9 10  1  0  0  0
  9 27  2  0  0  0
 10 11  2  0  0  0
 10 15  1  0  0  0
 11 12  1  0  0  0
 11100  1  0  0  0
 12 13  2  0  0  0
 12101  1  0  0  0
 13 14  1  0  0  0
 13 31  1  0  0  0
 14 15  2  0  0  0
 14102  1  0  0  0
 15103  1  0  0  0
 16 17  2  0  0  0
 16 21  1  0  0  0
 16 31  1  0  0  0
 17 18  1  0  0  0
 17104  1  0  0  0
 18 19  2  0  0  0
 18105  1  0  0  0
 19 20  1  0  0  0
 19 24  1  0  0  0
 20 21  2  0  0  0
 20106  1  0  0  0
 21 23  1  0  0  0
 22 28  1  0  0  0
 22 32  2  0  0  0
 26 27  1  0  0  0
 28107  1  0  0  0
 28108  1  0  0  0
 29109  1  0  0  0
 29110  1  0  0  0
 33 34  1  0  0  0
 33 66  1  0  0  0
 33 70  2  0  0  0
 34 36  1  0  0  0
 34 59  1  0  0  0
 34111  1  0  0  0
 35 44  2  0  0  0
 35 45  1  0  0  0
 35 68  1  0  0  0
 36 56  1  0  0  0
 36112  1  0  0  0
 37 39  1  0  0  0
 37 47  1  0  0  0
 37 66  1  0  0  0
 37113  1  0  0  0
 38 43  2  0  0  0
 38 46  1  0  0  0
 38 47  1  0  0  0
 39 64  1  0  0  0
 39 67  2  0  0  0
 40 52  1  0  0  0
 40 53  2  0  0  0
 40 58  1  0  0  0
 41114  1  0  0  0
 41115  1  0  0  0
 41116  1  0  0  0
 41 48  1  0  0  0
 42 43  1  0  0  0
 42 66  1  0  0  0
 42117  1  0  0  0
 42118  1  0  0  0
 43 44  1  0  0  0
 44119  1  0  0  0
 45 46  2  0  0  0
 45120  1  0  0  0
 46121  1  0  0  0
 47122  1  0  0  0
 47123  1  0  0  0
 48 56  1  0  0  0
 48 65  1  0  0  0
 48124  1  0  0  0
 49 50  1  0  0  0
 49 53  1  0  0  0
 49 64  1  0  0  0
 49125  1  0  0  0
 50 51  1  0  0  0
 50126  1  0  0  0
 50127  1  0  0  0
 51 52  1  0  0  0
 51128  1  0  0  0
 51129  1  0  0  0
 52130  1  0  0  0
 52131  1  0  0  0
 53 54  1  0  0  0
 54 55  2  0  0  0
 54132  1  0  0  0
 55 57  1  0  0  0
 55133  1  0  0  0
 56 69  2  0  0  0
 57 58  2  0  0  0
 57134  1  0  0  0
 58135  1  0  0  0
 59 60  1  0  0  0
 59 61  1  0  0  0
 59 62  1  0  0  0
 60136  1  0  0  0
 60137  1  0  0  0
 60138  1  0  0  0
 61139  1  0  0  0
 61140  1  0  0  0
 61141  1  0  0  0
 62142  1  0  0  0
 62143  1  0  0  0
 62144  1  0  0  0
 63 65  1  0  0  0
 63145  1  0  0  0
 63146  1  0  0  0
 63147  1  0  0  0
 64148  1  0  0  0
 65149  1  0  0  0
 68 84  1  0  0  0
 71 72  2  0  0  0
 71 86  1  0  0  0
 71150  1  0  0  0
 72 79  1  0  0  0
 72 87  1  0  0  0
 73 80  1  0  0  0
 73 86  1  0  0  0
 73 87  2  0  0  0
 74151  1  0  0  0
 74152  1  0  0  0
 74153  1  0  0  0
 74 85  1  0  0  0
 75 85  1  0  0  0
 75154  1  0  0  0
 75155  1  0  0  0
 75156  1  0  0  0
 76 86  1  0  0  0
 76157  1  0  0  0
 76158  1  0  0  0
 76159  1  0  0  0
 77 89  1  0  0  0
 77160  1  0  0  0
 77161  1  0  0  0
 77162  1  0  0  0
 78163  1  0  0  0
 78164  1  0  0  0
 78165  1  0  0  0
 78 90  1  0  0  0
 79 84  1  0  0  0
 79166  1  0  0  0
 79167  1  0  0  0
 80 89  1  0  0  0
 80168  1  0  0  0
 80169  1  0  0  0
 81 83  1  0  0  0
 81 89  1  0  0  0
 81170  1  0  0  0
 81171  1  0  0  0
 82 85  1  0  0  0
 82 88  1  0  0  0
 82172  1  0  0  0
 82173  1  0  0  0
 83 90  1  0  0  0
 83174  1  0  0  0
 83175  1  0  0  0
 84176  1  0  0  0
 84177  1  0  0  0
 85 90  1  0  0  0
 87178  1  0  0  0
 88179  1  0  0  0
 90180  1  0  0  0
M  CHG  2  87   1  90   1
M  ISO  4   1 100  68 101  84 101  88 100
M  END
> <chiral flag>
0

> <version>
0

> <s_m_source_file>
/data/baiqing/PycharmProjects/Reinvent-master-3.2/result/LINK_invent/BTK/process_docking_weight1_custom_sum_contain_oxygen_bond_distance_aromatic_linkinvent_7_9_3/rearranged_h_0051.sdf

> <i_m_source_file_index>
82

> <r_mmod_Potential_Energy-OPLS-2005>
-160.865127563477

> <r_mmod_Stretch_Energy-OPLS-2005>
39.9933471679688

> <r_mmod_Bend_Energy-OPLS-2005>
109.550331115723

> <r_mmod_Torsional_Energy-OPLS-2005>
258.474090576172

> <r_mmod_Improper_Torsional_Energy-OPLS-2005>
2.98418092727661

> <r_mmod_Van_der_Waal_Energy-OPLS-2005>
162.490325927734

> <r_mmod_Electrostatic_Energy-OPLS-2005>
59.2545204162598

> <r_mmod_Solvation_Energy-OPLS-2005>
-804.403564453125

> <b_mmod_Minimization_Converged-OPLS-2005>
0

> <r_mmod_RMS_Derivative-OPLS-2005>
3.4640793800354

$$$$
84
                    3D
 Structure written by MMmdl.
153161  0  0  1  0            999 V2000
  -30.4663  -15.0360   20.3839 C   0  0  0  0  0  0
  -30.4749  -12.6439   19.4807 C   0  0  0  0  0  0
  -29.5296  -12.5355   18.2547 C   0  0  0  0  0  0
  -28.0600  -12.3066   18.6730 C   0  0  0  0  0  0
  -27.6331  -13.2078   19.8585 C   0  0  2  0  0  0
  -28.7049  -13.1954   20.9697 C   0  0  0  0  0  0
  -25.2438  -13.8043   20.5676 C   0  0  0  0  0  0
  -24.1749  -13.0325   20.9233 C   0  0  0  0  0  0
  -24.6355  -11.6811   20.8804 C   0  0  0  0  0  0
  -23.9034  -10.4222   21.0443 C   0  0  0  0  0  0
  -24.3591   -9.4140   21.9211 C   0  0  0  0  0  0
  -23.6264   -8.2182   22.0762 C   0  0  0  0  0  0
  -22.4251   -8.0243   21.3541 C   0  0  0  0  0  0
  -21.9888   -9.0220   20.4646 C   0  0  0  0  0  0
  -22.7220  -10.2091   20.3069 C   0  0  0  0  0  0
  -21.6833   -6.0711   22.5278 C   0  0  0  0  0  0
  -21.4002   -6.5618   23.8212 C   0  0  0  0  0  0
  -21.3659   -5.6773   24.9173 C   0  0  0  0  0  0
  -21.6050   -4.3039   24.7228 C   0  0  0  0  0  0
  -21.8825   -3.8125   23.4349 C   0  0  0  0  0  0
  -21.9188   -4.6940   22.3400 C   0  0  0  0  0  0
  -22.7778  -13.5151   21.1864 C   0  0  0  0  0  0
  -22.1660   -4.2125   21.0979 F   0  0  0  0  0  0
  -21.5633   -3.4530   25.7745 F   0  0  0  0  0  0
  -29.9583  -13.7170   20.3841 N   0  0  0  0  0  0
  -26.2906  -12.9210   20.3408 N   0  0  0  0  0  0
  -25.9294  -11.6387   20.5868 N   0  0  0  0  0  0
  -22.0410  -12.8181   22.0439 N   0  0  0  0  0  0
  -25.3936  -15.1760   20.3913 N   0  0  0  0  0  0
  -31.6796  -15.1170   20.1487 O   0  0  0  0  0  0
  -21.6606   -6.8849   21.4240 O   0  0  0  0  0  0
  -22.3480  -14.5461   20.6696 O   0  0  0  0  0  0
  -24.6438  -31.8436   23.1862 C   0  0  0  0  0  0
  -25.9203  -32.4694   23.8264 C   0  0  1  0  0  0
  -27.2347  -27.1345   20.1515 C   0  0  0  0  0  0
  -25.5949  -33.8500   24.2180 N   0  0  0  0  0  0
  -23.4489  -30.4598   21.5326 C   0  0  2  0  0  0
  -24.9025  -28.8838   20.1114 C   0  0  0  0  0  0
  -22.7574  -29.4537   22.4865 C   0  0  0  0  0  0
  -18.0307  -28.1401   22.8480 C   0  0  0  0  0  0
  -24.1491  -36.7254   23.2643 C   0  0  0  0  0  0
  -26.0045  -30.7163   21.3862 C   0  0  0  0  0  0
  -26.0792  -29.3263   20.7286 C   0  0  0  0  0  0
  -27.2437  -28.4685   20.7306 C   0  0  0  0  0  0
  -26.0277  -26.7922   19.4998 C   0  0  0  0  0  0
  -24.8898  -27.6297   19.4820 C   0  0  0  0  0  0
  -23.6771  -29.7850   20.1536 C   0  0  0  0  0  0
  -25.4123  -36.3032   24.0315 C   0  0  1  0  0  0
  -20.5921  -28.3726   23.1241 C   0  0  2  0  0  0
  -20.6795  -26.9431   22.5408 C   0  0  0  0  0  0
  -19.5765  -26.6384   21.5220 C   0  0  0  0  0  0
  -18.1947  -26.7938   22.1630 C   0  0  0  0  0  0
  -19.1564  -28.8882   23.2851 C   0  0  0  0  0  0
  -18.9478  -30.1481   23.8872 C   0  0  0  0  0  0
  -17.6474  -30.6596   24.0560 C   0  0  0  0  0  0
  -25.9075  -34.9409   23.5060 C   0  0  0  0  0  0
  -16.5365  -29.9087   23.6340 C   0  0  0  0  0  0
  -16.7292  -28.6508   23.0356 C   0  0  0  0  0  0
  -26.4519  -31.6567   25.0712 C   0  0  0  0  0  0
  -25.3695  -31.3757   26.1401 C   0  0  0  0  0  0
  -27.0386  -30.2965   24.6294 C   0  0  0  0  0  0
  -27.6048  -32.4334   25.7495 C   0  0  0  0  0  0
  -27.5575  -37.1784   24.8466 C   0  0  0  0  0  0
  -21.4265  -29.3045   22.3609 N   0  0  0  0  0  0
  -26.4286  -37.3747   23.9408 N   0  0  0  0  0  0
  -24.7187  -31.0278   22.0904 N   0  0  0  0  0  0
  -23.4209  -28.8100   23.3035 O   0  0  0  0  0  0
  -28.3019  -26.1590   20.2183 O   0  0  0  0  0  0
  -26.5662  -34.8908   22.4640 O   0  0  0  0  0  0
  -23.5555  -32.1317   23.7075 O   0  0  0  0  0  0
  -30.8537  -19.9205   20.2278 C   0  0  0  0  0  0
  -29.4603  -20.2695   20.3107 C   0  0  0  0  0  0
  -28.7190  -16.3959   19.0472 C   0  0  0  0  0  0
  -28.5555  -16.2956   21.6204 C   0  0  0  0  0  0
  -28.6212  -21.6932   20.1698 C   0  0  0  0  0  0
  -29.0914  -23.3096   20.3335 C   0  0  0  0  0  0
  -28.0508  -24.6243   20.0646 C   0  0  0  0  0  0
  -29.4977  -16.4462   20.3953 C   0  0  0  0  0  0
  -31.0954  -18.6015   20.2796 N   0  0  0  0  0  0
  -28.8846  -19.0508   20.4289 N   0  0  0  0  0  0
  -29.8725  -18.0108   20.4333 N   0  0  0  0  0  0
  -31.4891  -12.8581   19.1395 H   0  0  0  0  0  0
  -30.5422  -11.6895   20.0054 H   0  0  0  0  0  0
  -29.8582  -11.7276   17.5999 H   0  0  0  0  0  0
  -29.6025  -13.4461   17.6593 H   0  0  0  0  0  0
  -27.9594  -11.2594   18.9606 H   0  0  0  0  0  0
  -27.3942  -12.4531   17.8222 H   0  0  0  0  0  0
  -27.5654  -14.2042   19.4553 H   0  0  0  0  0  0
  -28.8420  -12.1755   21.3323 H   0  0  0  0  0  0
  -28.4057  -13.7388   21.8603 H   0  0  0  0  0  0
  -25.2739   -9.5607   22.4782 H   0  0  0  0  0  0
  -23.9968   -7.4565   22.7480 H   0  0  0  0  0  0
  -21.0818   -8.8748   19.8948 H   0  0  0  0  0  0
  -22.3705  -10.9635   19.6174 H   0  0  0  0  0  0
  -21.1992   -7.6125   23.9712 H   0  0  0  0  0  0
  -21.1478   -6.0498   25.9077 H   0  0  0  0  0  0
  -22.0609   -2.7587   23.2851 H   0  0  0  0  0  0
  -22.4011  -11.9852   22.4853 H   0  0  0  0  0  0
  -21.1037  -13.1235   22.2640 H   0  0  0  0  0  0
  -24.6161  -15.8180   20.5014 H   0  0  0  0  0  0
  -26.2374  -15.6274   20.0668 H   0  0  0  0  0  0
  -26.7270  -32.5303   23.0997 H   0  0  0  0  0  0
  -25.0070  -33.9615   25.0308 H   0  0  0  0  0  0
  -22.7516  -31.2855   21.3755 H   0  0  0  0  0  0
  -23.3762  -35.9578   23.3290 H   0  0  0  0  0  0
  -24.3578  -36.8901   22.2061 H   0  0  0  0  0  0
  -23.7235  -37.6441   23.6689 H   0  0  0  0  0  0
  -26.1583  -31.4709   20.6137 H   0  0  0  0  0  0
  -26.8749  -30.7693   22.0285 H   0  0  0  0  0  0
  -28.1389  -28.8044   21.2348 H   0  0  0  0  0  0
  -25.9306  -25.8335   19.0132 H   0  0  0  0  0  0
  -23.9921  -27.2840   18.9879 H   0  0  0  0  0  0
  -23.8107  -30.5580   19.3958 H   0  0  0  0  0  0
  -22.7928  -29.2248   19.8450 H   0  0  0  0  0  0
  -25.1312  -36.1860   25.0806 H   0  0  0  0  0  0
  -21.0009  -28.3317   24.1365 H   0  0  0  0  0  0
  -20.5707  -26.2337   23.3626 H   0  0  0  0  0  0
  -21.6659  -26.7449   22.1193 H   0  0  0  0  0  0
  -19.6927  -25.6289   21.1266 H   0  0  0  0  0  0
  -19.6700  -27.3182   20.6740 H   0  0  0  0  0  0
  -17.4217  -26.6686   21.4032 H   0  0  0  0  0  0
  -18.0342  -26.0090   22.9035 H   0  0  0  0  0  0
  -19.7953  -30.7307   24.2227 H   0  0  0  0  0  0
  -17.5026  -31.6274   24.5166 H   0  0  0  0  0  0
  -15.5365  -30.2977   23.7679 H   0  0  0  0  0  0
  -15.8695  -28.0819   22.7079 H   0  0  0  0  0  0
  -24.5884  -30.7099   25.7716 H   0  0  0  0  0  0
  -24.8873  -32.2939   26.4766 H   0  0  0  0  0  0
  -25.7974  -30.8968   27.0218 H   0  0  0  0  0  0
  -26.3007  -29.6687   24.1288 H   0  0  0  0  0  0
  -27.3986  -29.7266   25.4870 H   0  0  0  0  0  0
  -27.8917  -30.4205   23.9620 H   0  0  0  0  0  0
  -27.2643  -33.3657   26.2012 H   0  0  0  0  0  0
  -28.3888  -32.6858   25.0342 H   0  0  0  0  0  0
  -28.0682  -31.8498   26.5460 H   0  0  0  0  0  0
  -28.2584  -38.0090   24.7518 H   0  0  0  0  0  0
  -28.1081  -36.2620   24.6286 H   0  0  0  0  0  0
  -27.2295  -37.1422   25.8869 H   0  0  0  0  0  0
  -20.9486  -29.8734   21.6760 H   0  0  0  0  0  0
  -26.0153  -38.2815   24.1414 H   0  0  0  0  0  0
  -31.6770  -20.6086   20.0907 H   0  0  0  0  0  0
  -27.6482  -16.5399   19.1854 H   0  0  0  0  0  0
  -28.8791  -15.4867   18.4731 H   0  0  0  0  0  0
  -29.0408  -17.1820   18.3630 H   0  0  0  0  0  0
  -28.1185  -17.2314   21.9646 H   0  0  0  0  0  0
  -29.0871  -15.8886   22.4815 H   0  0  0  0  0  0
  -27.7049  -15.6615   21.4111 H   0  0  0  0  0  0
  -27.7677  -21.5998   20.8409 H   0  0  0  0  0  0
  -28.1594  -21.6569   19.1829 H   0  0  0  0  0  0
  -29.9527  -23.4543   19.6813 H   0  0  0  0  0  0
  -29.4843  -23.4221   21.3439 H   0  0  0  0  0  0
  -27.1699  -24.4229   20.6762 H   0  0  0  0  0  0
  -27.7108  -24.4987   19.0367 H   0  0  0  0  0  0
  1 25  1  0  0  0
  1 30  2  0  0  0
  1 78  1  0  0  0
  2  3  1  0  0  0
  2 25  1  0  0  0
  2 82  1  0  0  0
  2 83  1  0  0  0
  3  4  1  0  0  0
  3 84  1  0  0  0
  3 85  1  0  0  0
  4  5  1  0  0  0
  4 86  1  0  0  0
  4 87  1  0  0  0
  5  6  1  0  0  0
  5 26  1  0  0  0
  5 88  1  0  0  0
  6 25  1  0  0  0
  6 89  1  0  0  0
  6 90  1  0  0  0
  7  8  2  0  0  0
  7 26  1  0  0  0
  7 29  1  0  0  0
  8  9  1  0  0  0
  8 22  1  0  0  0
  9 10  1  0  0  0
  9 27  2  0  0  0
 10 11  2  0  0  0
 10 15  1  0  0  0
 11 12  1  0  0  0
 11 91  1  0  0  0
 12 13  2  0  0  0
 12 92  1  0  0  0
 13 14  1  0  0  0
 13 31  1  0  0  0
 14 15  2  0  0  0
 14 93  1  0  0  0
 15 94  1  0  0  0
 16 17  2  0  0  0
 16 21  1  0  0  0
 16 31  1  0  0  0
 17 18  1  0  0  0
 17 95  1  0  0  0
 18 19  2  0  0  0
 18 96  1  0  0  0
 19 20  1  0  0  0
 19 24  1  0  0  0
 20 21  2  0  0  0
 20 97  1  0  0  0
 21 23  1  0  0  0
 22 28  1  0  0  0
 22 32  2  0  0  0
 26 27  1  0  0  0
 28 98  1  0  0  0
 28 99  1  0  0  0
 29100  1  0  0  0
 29101  1  0  0  0
 33 34  1  0  0  0
 33 66  1  0  0  0
 33 70  2  0  0  0
 34 36  1  0  0  0
 34 59  1  0  0  0
 34102  1  0  0  0
 35 44  2  0  0  0
 35 45  1  0  0  0
 35 68  1  0  0  0
 36 56  1  0  0  0
 36103  1  0  0  0
 37 39  1  0  0  0
 37 47  1  0  0  0
 37 66  1  0  0  0
 37104  1  0  0  0
 38 43  2  0  0  0
 38 46  1  0  0  0
 38 47  1  0  0  0
 39 64  1  0  0  0
 39 67  2  0  0  0
 40 52  1  0  0  0
 40 53  2  0  0  0
 40 58  1  0  0  0
 41105  1  0  0  0
 41106  1  0  0  0
 41107  1  0  0  0
 41 48  1  0  0  0
 42 43  1  0  0  0
 42 66  1  0  0  0
 42108  1  0  0  0
 42109  1  0  0  0
 43 44  1  0  0  0
 44110  1  0  0  0
 45 46  2  0  0  0
 45111  1  0  0  0
 46112  1  0  0  0
 47113  1  0  0  0
 47114  1  0  0  0
 48 56  1  0  0  0
 48 65  1  0  0  0
 48115  1  0  0  0
 49 50  1  0  0  0
 49 53  1  0  0  0
 49 64  1  0  0  0
 49116  1  0  0  0
 50 51  1  0  0  0
 50117  1  0  0  0
 50118  1  0  0  0
 51 52  1  0  0  0
 51119  1  0  0  0
 51120  1  0  0  0
 52121  1  0  0  0
 52122  1  0  0  0
 53 54  1  0  0  0
 54 55  2  0  0  0
 54123  1  0  0  0
 55 57  1  0  0  0
 55124  1  0  0  0
 56 69  2  0  0  0
 57 58  2  0  0  0
 57125  1  0  0  0
 58126  1  0  0  0
 59 60  1  0  0  0
 59 61  1  0  0  0
 59 62  1  0  0  0
 60127  1  0  0  0
 60128  1  0  0  0
 60129  1  0  0  0
 61130  1  0  0  0
 61131  1  0  0  0
 61132  1  0  0  0
 62133  1  0  0  0
 62134  1  0  0  0
 62135  1  0  0  0
 63 65  1  0  0  0
 63136  1  0  0  0
 63137  1  0  0  0
 63138  1  0  0  0
 64139  1  0  0  0
 65140  1  0  0  0
 68 77  1  0  0  0
 71 72  1  0  0  0
 71 79  2  0  0  0
 71141  1  0  0  0
 72 75  1  0  0  0
 72 80  2  0  0  0
 73142  1  0  0  0
 73143  1  0  0  0
 73144  1  0  0  0
 73 78  1  0  0  0
 74 78  1  0  0  0
 74145  1  0  0  0
 74146  1  0  0  0
 74147  1  0  0  0
 75 76  1  0  0  0
 75148  1  0  0  0
 75149  1  0  0  0
 76 77  1  0  0  0
 76150  1  0  0  0
 76151  1  0  0  0
 77152  1  0  0  0
 77153  1  0  0  0
 78 81  1  0  0  0
 79 81  1  0  0  0
 80 81  1  0  0  0
M  ISO  4   1 100  68 101  77 101  78 100
M  END
> <chiral flag>
0

> <version>
0

> <s_m_source_file>
/data/baiqing/PycharmProjects/Reinvent-master-3.2/result/LINK_invent/BTK/process_docking_weight1_custom_sum_contain_oxygen_bond_distance_aromatic_linkinvent_7_9_3/rearranged_h_0051.sdf

> <i_m_source_file_index>
83

> <r_mmod_Potential_Energy-OPLS-2005>
747.32470703125

> <r_mmod_Stretch_Energy-OPLS-2005>
302.338623046875

> <r_mmod_Bend_Energy-OPLS-2005>
328.597442626953

> <r_mmod_Torsional_Energy-OPLS-2005>
238.142547607422

> <r_mmod_Improper_Torsional_Energy-OPLS-2005>
6.81945323944092

> <r_mmod_Van_der_Waal_Energy-OPLS-2005>
131.624908447266

> <r_mmod_Electrostatic_Energy-OPLS-2005>
-272.084136962891

> <r_mmod_Solvation_Energy-OPLS-2005>
-208.233734130859

> <b_mmod_Minimization_Converged-OPLS-2005>
0

> <r_mmod_RMS_Derivative-OPLS-2005>
0.987686097621918

$$$$
85
                    3D
 Structure written by MMmdl.
178186  0  0  1  0            999 V2000
  -30.7135  -14.4304   20.7131 C   0  0  0  0  0  0
  -30.4292  -12.3142   19.4616 C   0  0  0  0  0  0
  -29.5279  -12.5461   18.2332 C   0  0  0  0  0  0
  -28.0429  -12.3682   18.6048 C   0  0  0  0  0  0
  -27.6602  -13.1871   19.8631 C   0  0  2  0  0  0
  -28.6724  -12.9691   21.0048 C   0  0  0  0  0  0
  -25.2617  -13.8057   20.5698 C   0  0  0  0  0  0
  -24.1853  -13.0359   20.9241 C   0  0  0  0  0  0
  -24.6365  -11.6820   20.8709 C   0  0  0  0  0  0
  -23.9012  -10.4259   21.0392 C   0  0  0  0  0  0
  -24.3588   -9.4204   21.9201 C   0  0  0  0  0  0
  -23.6266   -8.2243   22.0818 C   0  0  0  0  0  0
  -22.4259   -8.0278   21.3600 C   0  0  0  0  0  0
  -21.9844   -9.0214   20.4681 C   0  0  0  0  0  0
  -22.7178  -10.2106   20.3055 C   0  0  0  0  0  0
  -21.6797   -6.0775   22.5370 C   0  0  0  0  0  0
  -21.3963   -6.5669   23.8311 C   0  0  0  0  0  0
  -21.3662   -5.6816   24.9259 C   0  0  0  0  0  0
  -21.6014   -4.3082   24.7256 C   0  0  0  0  0  0
  -21.8791   -3.8188   23.4379 C   0  0  0  0  0  0
  -21.9160   -4.7014   22.3453 C   0  0  0  0  0  0
  -22.7908  -13.5254   21.1899 C   0  0  0  0  0  0
  -22.1587   -4.2201   21.1020 F   0  0  0  0  0  0
  -21.5658   -3.4563   25.7773 F   0  0  0  0  0  0
  -30.0273  -13.2720   20.5070 N   0  0  0  0  0  0
  -26.2984  -12.9170   20.3192 N   0  0  0  0  0  0
  -25.9230  -11.6340   20.5530 N   0  0  0  0  0  0
  -22.0343  -12.8386   22.0410 N   0  0  0  0  0  0
  -25.4313  -15.1756   20.4235 N   0  0  0  0  0  0
  -31.7697  -14.6854   20.1203 O   0  0  0  0  0  0
  -21.6601   -6.8900   21.4324 O   0  0  0  0  0  0
  -22.3672  -14.5554   20.6684 O   0  0  0  0  0  0
  -24.6040  -31.8724   23.2119 C   0  0  0  0  0  0
  -25.8966  -32.4845   23.8398 C   0  0  1  0  0  0
  -27.2606  -27.5019   20.0971 C   0  0  0  0  0  0
  -25.5845  -33.8643   24.2337 N   0  0  0  0  0  0
  -23.3893  -30.4925   21.5505 C   0  0  2  0  0  0
  -24.8422  -28.9651   20.1147 C   0  0  0  0  0  0
  -22.7351  -29.4666   22.5010 C   0  0  0  0  0  0
  -18.0254  -28.1364   22.8500 C   0  0  0  0  0  0
  -24.1486  -36.7332   23.2640 C   0  0  0  0  0  0
  -25.9059  -30.8646   21.3487 C   0  0  0  0  0  0
  -25.9925  -29.4997   20.7085 C   0  0  0  0  0  0
  -27.1988  -28.7784   20.7029 C   0  0  0  0  0  0
  -26.0922  -26.9688   19.5113 C   0  0  0  0  0  0
  -24.8851  -27.6950   19.5134 C   0  0  0  0  0  0
  -23.5938  -29.8159   20.1663 C   0  0  0  0  0  0
  -25.4102  -36.3131   24.0347 C   0  0  1  0  0  0
  -20.5844  -28.3637   23.1342 C   0  0  2  0  0  0
  -20.6749  -26.9378   22.5429 C   0  0  0  0  0  0
  -19.5728  -26.6375   21.5219 C   0  0  0  0  0  0
  -18.1907  -26.7909   22.1625 C   0  0  0  0  0  0
  -19.1507  -28.8812   23.2921 C   0  0  0  0  0  0
  -18.9438  -30.1429   23.8921 C   0  0  0  0  0  0
  -17.6446  -30.6579   24.0563 C   0  0  0  0  0  0
  -25.9015  -34.9489   23.5150 C   0  0  0  0  0  0
  -16.5334  -29.9088   23.6326 C   0  0  0  0  0  0
  -16.7246  -28.6500   23.0347 C   0  0  0  0  0  0
  -26.4432  -31.6596   25.0691 C   0  0  0  0  0  0
  -25.3724  -31.3684   26.1458 C   0  0  0  0  0  0
  -27.0262  -30.3057   24.5993 C   0  0  0  0  0  0
  -27.6021  -32.4298   25.7442 C   0  0  0  0  0  0
  -27.5582  -37.1817   24.8463 C   0  0  0  0  0  0
  -21.4085  -29.3017   22.3757 N   0  0  0  0  0  0
  -26.4295  -37.3803   23.9409 N   0  0  0  0  0  0
  -24.6518  -31.0888   22.0975 N   0  0  0  0  0  0
  -23.4154  -28.8221   23.3027 O   0  0  0  0  0  0
  -28.4047  -26.7414   20.0284 O   0  0  0  0  0  0
  -26.5589  -34.8935   22.4714 O   0  0  0  0  0  0
  -23.5263  -32.1433   23.7568 O   0  0  0  0  0  0
  -30.2316  -18.7988   18.4569 C   0  0  0  0  0  0
  -29.0717  -18.2493   19.0183 C   0  0  0  0  0  0
  -27.9391  -19.0909   19.0708 C   0  0  0  0  0  0
  -29.1578  -20.7731   18.1001 C   0  0  0  0  0  0
  -26.5797  -18.6760   19.6064 C   0  0  0  0  0  0
  -30.8484  -16.1524   23.6930 C   0  0  0  0  0  0
  -31.9058  -23.0809   21.8164 C   0  0  0  0  0  0
  -29.1338  -16.8244   19.5360 C   0  0  0  0  0  0
  -29.2261  -22.2113   17.6283 C   0  0  0  0  0  0
  -30.1567  -23.1305   18.4605 C   0  0  0  0  0  0
  -30.6879  -26.1924   20.4494 C   0  0  0  0  0  0
  -29.8371  -15.3314   22.8636 C   0  0  0  0  0  0
  -29.9303  -16.7597   20.8596 C   0  0  0  0  0  0
  -30.3220  -22.7493   19.9530 C   0  0  0  0  0  0
  -30.3538  -24.8973   21.2142 C   0  0  0  0  0  0
  -29.5975  -27.2538   20.6214 C   0  0  0  0  0  0
  -30.2697  -20.0574   17.9894 N   0  0  0  0  0  0
  -28.0125  -20.3582   18.6251 N   0  0  0  0  0  0
  -30.0460  -15.4005   21.4042 N   0  0  0  0  0  0
  -31.1368  -23.7289   20.7271 N   0  3  1  0  0  0
  -31.4810  -12.4079   19.1822 H   0  0  0  0  0  0
  -30.3096  -11.2964   19.8338 H   0  0  0  0  0  0
  -29.8167  -11.8589   17.4348 H   0  0  0  0  0  0
  -29.6852  -13.5540   17.8468 H   0  0  0  0  0  0
  -27.8567  -11.3048   18.7713 H   0  0  0  0  0  0
  -27.4186  -12.6672   17.7640 H   0  0  0  0  0  0
  -27.7048  -14.2340   19.5656 H   0  0  0  0  0  0
  -28.6392  -11.9431   21.3702 H   0  0  0  0  0  0
  -28.3521  -13.5731   21.8512 H   0  0  0  0  0  0
  -25.2727   -9.5687   22.4776 H   0  0  0  0  0  0
  -23.9963   -7.4645   22.7552 H   0  0  0  0  0  0
  -21.0757   -8.8645   19.9016 H   0  0  0  0  0  0
  -22.3578  -10.9588   19.6149 H   0  0  0  0  0  0
  -21.1932   -7.6184   23.9817 H   0  0  0  0  0  0
  -21.1510   -6.0561   25.9170 H   0  0  0  0  0  0
  -22.0564   -2.7647   23.2868 H   0  0  0  0  0  0
  -22.3624  -12.0023   22.4969 H   0  0  0  0  0  0
  -21.0962  -13.1589   22.2288 H   0  0  0  0  0  0
  -24.6614  -15.8216   20.5594 H   0  0  0  0  0  0
  -26.2950  -15.6261   20.1567 H   0  0  0  0  0  0
  -26.7040  -32.5603   23.1184 H   0  0  0  0  0  0
  -24.9987  -33.9813   25.0476 H   0  0  0  0  0  0
  -22.6744  -31.3064   21.4104 H   0  0  0  0  0  0
  -23.3742  -35.9671   23.3316 H   0  0  0  0  0  0
  -24.3589  -36.8926   22.2051 H   0  0  0  0  0  0
  -23.7243  -37.6547   23.6638 H   0  0  0  0  0  0
  -25.9947  -31.6271   20.5737 H   0  0  0  0  0  0
  -26.8018  -30.9352   21.9531 H   0  0  0  0  0  0
  -28.0684  -29.2290   21.1587 H   0  0  0  0  0  0
  -26.1253  -25.9930   19.0490 H   0  0  0  0  0  0
  -24.0031  -27.2746   19.0483 H   0  0  0  0  0  0
  -23.6773  -30.5836   19.3957 H   0  0  0  0  0  0
  -22.7252  -29.2154   19.8876 H   0  0  0  0  0  0
  -25.1279  -36.2011   25.0841 H   0  0  0  0  0  0
  -20.9936  -28.3203   24.1461 H   0  0  0  0  0  0
  -20.5650  -26.2238   23.3609 H   0  0  0  0  0  0
  -21.6620  -26.7431   22.1221 H   0  0  0  0  0  0
  -19.6891  -25.6297   21.1227 H   0  0  0  0  0  0
  -19.6676  -27.3209   20.6771 H   0  0  0  0  0  0
  -17.4180  -26.6663   21.4024 H   0  0  0  0  0  0
  -18.0299  -26.0049   22.9013 H   0  0  0  0  0  0
  -19.7921  -30.7236   24.2291 H   0  0  0  0  0  0
  -17.5009  -31.6270   24.5146 H   0  0  0  0  0  0
  -15.5342  -30.2998   23.7640 H   0  0  0  0  0  0
  -15.8638  -28.0837   22.7044 H   0  0  0  0  0  0
  -24.5878  -30.7049   25.7801 H   0  0  0  0  0  0
  -24.8935  -32.2840   26.4938 H   0  0  0  0  0  0
  -25.8093  -30.8827   27.0191 H   0  0  0  0  0  0
  -26.2788  -29.6816   24.1077 H   0  0  0  0  0  0
  -27.4112  -29.7279   25.4405 H   0  0  0  0  0  0
  -27.8574  -30.4416   23.9069 H   0  0  0  0  0  0
  -27.2649  -33.3587   26.2054 H   0  0  0  0  0  0
  -28.3807  -32.6869   25.0248 H   0  0  0  0  0  0
  -28.0704  -31.8393   26.5325 H   0  0  0  0  0  0
  -28.2609  -38.0105   24.7514 H   0  0  0  0  0  0
  -28.1071  -36.2642   24.6289 H   0  0  0  0  0  0
  -27.2303  -37.1465   25.8867 H   0  0  0  0  0  0
  -20.9218  -29.8731   21.6998 H   0  0  0  0  0  0
  -26.0198  -38.2890   24.1400 H   0  0  0  0  0  0
  -31.1416  -18.2181   18.3973 H   0  0  0  0  0  0
  -25.9637  -18.2796   18.7943 H   0  0  0  0  0  0
  -26.0457  -19.5309   20.0235 H   0  0  0  0  0  0
  -26.6603  -17.9395   20.4057 H   0  0  0  0  0  0
  -30.7957  -17.2277   23.4992 H   0  0  0  0  0  0
  -31.8744  -15.8251   23.5131 H   0  0  0  0  0  0
  -30.6530  -16.0289   24.7599 H   0  0  0  0  0  0
  -32.5484  -22.2949   21.4230 H   0  0  0  0  0  0
  -31.2465  -22.6384   22.5662 H   0  0  0  0  0  0
  -32.5506  -23.8024   22.3187 H   0  0  0  0  0  0
  -29.6267  -16.2276   18.7647 H   0  0  0  0  0  0
  -28.1389  -16.3977   19.6468 H   0  0  0  0  0  0
  -28.2149  -22.6303   17.6309 H   0  0  0  0  0  0
  -29.5321  -22.2091   16.5828 H   0  0  0  0  0  0
  -29.8007  -24.1533   18.3419 H   0  0  0  0  0  0
  -31.1455  -23.0950   17.9995 H   0  0  0  0  0  0
  -30.8185  -26.0002   19.3858 H   0  0  0  0  0  0
  -31.6391  -26.5903   20.8066 H   0  0  0  0  0  0
  -28.8147  -15.6412   23.0890 H   0  0  0  0  0  0
  -29.9139  -14.3022   23.2144 H   0  0  0  0  0  0
  -30.9442  -17.1447   20.7137 H   0  0  0  0  0  0
  -29.4447  -17.4174   21.5856 H   0  0  0  0  0  0
  -30.8215  -21.7799   20.0029 H   0  0  0  0  0  0
  -29.3541  -22.5970   20.4276 H   0  0  0  0  0  0
  -29.2874  -24.6798   21.1584 H   0  0  0  0  0  0
  -30.5436  -25.0753   22.2755 H   0  0  0  0  0  0
  -29.8992  -28.1775   20.1213 H   0  0  0  0  0  0
  -29.4541  -27.4784   21.6800 H   0  0  0  0  0  0
  -31.8434  -24.0874   20.1025 H   0  0  0  0  0  0
  1 25  1  0  0  0
  1 30  2  0  0  0
  1 89  1  0  0  0
  2  3  1  0  0  0
  2 25  1  0  0  0
  2 91  1  0  0  0
  2 92  1  0  0  0
  3  4  1  0  0  0
  3 93  1  0  0  0
  3 94  1  0  0  0
  4  5  1  0  0  0
  4 95  1  0  0  0
  4 96  1  0  0  0
  5  6  1  0  0  0
  5 26  1  0  0  0
  5 97  1  0  0  0
  6 25  1  0  0  0
  6 98  1  0  0  0
  6 99  1  0  0  0
  7  8  2  0  0  0
  7 26  1  0  0  0
  7 29  1  0  0  0
  8  9  1  0  0  0
  8 22  1  0  0  0
  9 10  1  0  0  0
  9 27  2  0  0  0
 10 11  2  0  0  0
 10 15  1  0  0  0
 11 12  1  0  0  0
 11100  1  0  0  0
 12 13  2  0  0  0
 12101  1  0  0  0
 13 14  1  0  0  0
 13 31  1  0  0  0
 14 15  2  0  0  0
 14102  1  0  0  0
 15103  1  0  0  0
 16 17  2  0  0  0
 16 21  1  0  0  0
 16 31  1  0  0  0
 17 18  1  0  0  0
 17104  1  0  0  0
 18 19  2  0  0  0
 18105  1  0  0  0
 19 20  1  0  0  0
 19 24  1  0  0  0
 20 21  2  0  0  0
 20106  1  0  0  0
 21 23  1  0  0  0
 22 28  1  0  0  0
 22 32  2  0  0  0
 26 27  1  0  0  0
 28107  1  0  0  0
 28108  1  0  0  0
 29109  1  0  0  0
 29110  1  0  0  0
 33 34  1  0  0  0
 33 66  1  0  0  0
 33 70  2  0  0  0
 34 36  1  0  0  0
 34 59  1  0  0  0
 34111  1  0  0  0
 35 44  2  0  0  0
 35 45  1  0  0  0
 35 68  1  0  0  0
 36 56  1  0  0  0
 36112  1  0  0  0
 37 39  1  0  0  0
 37 47  1  0  0  0
 37 66  1  0  0  0
 37113  1  0  0  0
 38 43  2  0  0  0
 38 46  1  0  0  0
 38 47  1  0  0  0
 39 64  1  0  0  0
 39 67  2  0  0  0
 40 52  1  0  0  0
 40 53  2  0  0  0
 40 58  1  0  0  0
 41114  1  0  0  0
 41115  1  0  0  0
 41116  1  0  0  0
 41 48  1  0  0  0
 42 43  1  0  0  0
 42 66  1  0  0  0
 42117  1  0  0  0
 42118  1  0  0  0
 43 44  1  0  0  0
 44119  1  0  0  0
 45 46  2  0  0  0
 45120  1  0  0  0
 46121  1  0  0  0
 47122  1  0  0  0
 47123  1  0  0  0
 48 56  1  0  0  0
 48 65  1  0  0  0
 48124  1  0  0  0
 49 50  1  0  0  0
 49 53  1  0  0  0
 49 64  1  0  0  0
 49125  1  0  0  0
 50 51  1  0  0  0
 50126  1  0  0  0
 50127  1  0  0  0
 51 52  1  0  0  0
 51128  1  0  0  0
 51129  1  0  0  0
 52130  1  0  0  0
 52131  1  0  0  0
 53 54  1  0  0  0
 54 55  2  0  0  0
 54132  1  0  0  0
 55 57  1  0  0  0
 55133  1  0  0  0
 56 69  2  0  0  0
 57 58  2  0  0  0
 57134  1  0  0  0
 58135  1  0  0  0
 59 60  1  0  0  0
 59 61  1  0  0  0
 59 62  1  0  0  0
 60136  1  0  0  0
 60137  1  0  0  0
 60138  1  0  0  0
 61139  1  0  0  0
 61140  1  0  0  0
 61141  1  0  0  0
 62142  1  0  0  0
 62143  1  0  0  0
 62144  1  0  0  0
 63 65  1  0  0  0
 63145  1  0  0  0
 63146  1  0  0  0
 63147  1  0  0  0
 64148  1  0  0  0
 65149  1  0  0  0
 68 86  1  0  0  0
 71 72  2  0  0  0
 71 87  1  0  0  0
 71150  1  0  0  0
 72 73  1  0  0  0
 72 78  1  0  0  0
 73 75  1  0  0  0
 73 88  2  0  0  0
 74 79  1  0  0  0
 74 87  2  0  0  0
 74 88  1  0  0  0
 75151  1  0  0  0
 75152  1  0  0  0
 75153  1  0  0  0
 76 82  1  0  0  0
 76154  1  0  0  0
 76155  1  0  0  0
 76156  1  0  0  0
 77157  1  0  0  0
 77158  1  0  0  0
 77159  1  0  0  0
 77 90  1  0  0  0
 78 83  1  0  0  0
 78160  1  0  0  0
 78161  1  0  0  0
 79 80  1  0  0  0
 79162  1  0  0  0
 79163  1  0  0  0
 80 84  1  0  0  0
 80164  1  0  0  0
 80165  1  0  0  0
 81 85  1  0  0  0
 81 86  1  0  0  0
 81166  1  0  0  0
 81167  1  0  0  0
 82 89  1  0  0  0
 82168  1  0  0  0
 82169  1  0  0  0
 83 89  1  0  0  0
 83170  1  0  0  0
 83171  1  0  0  0
 84 90  1  0  0  0
 84172  1  0  0  0
 84173  1  0  0  0
 85 90  1  0  0  0
 85174  1  0  0  0
 85175  1  0  0  0
 86176  1  0  0  0
 86177  1  0  0  0
 90178  1  0  0  0
M  CHG  1  90   1
M  ISO  4   1 100  68 101  86 101  89 100
M  END
> <chiral flag>
0

> <version>
0

> <s_m_source_file>
/data/baiqing/PycharmProjects/Reinvent-master-3.2/result/LINK_invent/BTK/process_docking_weight1_custom_sum_contain_oxygen_bond_distance_aromatic_linkinvent_7_9_3/rearranged_h_0051.sdf

> <i_m_source_file_index>
84

> <r_mmod_Potential_Energy-OPLS-2005>
-444.885101318359

> <r_mmod_Stretch_Energy-OPLS-2005>
36.3171997070312

> <r_mmod_Bend_Energy-OPLS-2005>
112.417655944824

> <r_mmod_Torsional_Energy-OPLS-2005>
283.944061279297

> <r_mmod_Improper_Torsional_Energy-OPLS-2005>
6.94514131546021

> <r_mmod_Van_der_Waal_Energy-OPLS-2005>
165.223922729492

> <r_mmod_Electrostatic_Energy-OPLS-2005>
-641.8349609375

> <r_mmod_Solvation_Energy-OPLS-2005>
-417.188385009766

> <b_mmod_Minimization_Converged-OPLS-2005>
0

> <r_mmod_RMS_Derivative-OPLS-2005>
6.14426708221436

$$$$
86
                    3D
 Structure written by MMmdl.
166174  0  0  1  0            999 V2000
  -30.5379  -14.7731   20.5659 C   0  0  0  0  0  0
  -30.4411  -12.4948   19.4939 C   0  0  0  0  0  0
  -29.5204  -12.5510   18.2525 C   0  0  0  0  0  0
  -28.0431  -12.3459   18.6369 C   0  0  0  0  0  0
  -27.6455  -13.2172   19.8565 C   0  0  2  0  0  0
  -28.6659  -13.0843   21.0028 C   0  0  0  0  0  0
  -25.2576  -13.8170   20.5607 C   0  0  0  0  0  0
  -24.1853  -13.0448   20.9114 C   0  0  0  0  0  0
  -24.6404  -11.6885   20.8669 C   0  0  0  0  0  0
  -23.9084  -10.4279   21.0355 C   0  0  0  0  0  0
  -24.3627   -9.4182   21.9138 C   0  0  0  0  0  0
  -23.6289   -8.2236   22.0736 C   0  0  0  0  0  0
  -22.4284   -8.0253   21.3505 C   0  0  0  0  0  0
  -21.9890   -9.0254   20.4627 C   0  0  0  0  0  0
  -22.7235  -10.2135   20.3013 C   0  0  0  0  0  0
  -21.6896   -6.0745   22.5283 C   0  0  0  0  0  0
  -21.4029   -6.5651   23.8219 C   0  0  0  0  0  0
  -21.3621   -5.6796   24.9179 C   0  0  0  0  0  0
  -21.6057   -4.3072   24.7249 C   0  0  0  0  0  0
  -21.8797   -3.8154   23.4383 C   0  0  0  0  0  0
  -21.9193   -4.6957   22.3434 C   0  0  0  0  0  0
  -22.7885  -13.5202   21.1849 C   0  0  0  0  0  0
  -22.1659   -4.2154   21.1002 F   0  0  0  0  0  0
  -21.5591   -3.4526   25.7765 F   0  0  0  0  0  0
  -29.9683  -13.5110   20.4729 N   0  0  0  0  0  0
  -26.2948  -12.9351   20.3166 N   0  0  0  0  0  0
  -25.9318  -11.6520   20.5688 N   0  0  0  0  0  0
  -22.0524  -12.8204   22.0371 N   0  0  0  0  0  0
  -25.4325  -15.1926   20.4079 N   0  0  0  0  0  0
  -31.6536  -14.9554   20.0701 O   0  0  0  0  0  0
  -21.6602   -6.8887   21.4261 O   0  0  0  0  0  0
  -22.3560  -14.5518   20.6690 O   0  0  0  0  0  0
  -24.6248  -31.8634   23.2031 C   0  0  0  0  0  0
  -25.9126  -32.4789   23.8366 C   0  0  1  0  0  0
  -27.1538  -27.2450   20.1029 C   0  0  0  0  0  0
  -25.5953  -33.8606   24.2302 N   0  0  0  0  0  0
  -23.4185  -30.4880   21.5495 C   0  0  2  0  0  0
  -24.8544  -28.9392   20.0972 C   0  0  0  0  0  0
  -22.7497  -29.4638   22.4925 C   0  0  0  0  0  0
  -18.0282  -28.1427   22.8484 C   0  0  0  0  0  0
  -24.1488  -36.7287   23.2646 C   0  0  0  0  0  0
  -25.9694  -30.7597   21.3862 C   0  0  0  0  0  0
  -26.0259  -29.3792   20.7253 C   0  0  0  0  0  0
  -27.1831  -28.5344   20.7274 C   0  0  0  0  0  0
  -25.9713  -26.8818   19.4258 C   0  0  0  0  0  0
  -24.8268  -27.6997   19.4386 C   0  0  0  0  0  0
  -23.6338  -29.8323   20.1609 C   0  0  0  0  0  0
  -25.4114  -36.3098   24.0332 C   0  0  1  0  0  0
  -20.5904  -28.3736   23.1291 C   0  0  2  0  0  0
  -20.6790  -26.9447   22.5420 C   0  0  0  0  0  0
  -19.5768  -26.6408   21.5222 C   0  0  0  0  0  0
  -18.1950  -26.7977   22.1625 C   0  0  0  0  0  0
  -19.1540  -28.8910   23.2880 C   0  0  0  0  0  0
  -18.9449  -30.1514   23.8886 C   0  0  0  0  0  0
  -17.6458  -30.6635   24.0581 C   0  0  0  0  0  0
  -25.9048  -34.9456   23.5106 C   0  0  0  0  0  0
  -16.5350  -29.9117   23.6342 C   0  0  0  0  0  0
  -16.7279  -28.6538   23.0350 C   0  0  0  0  0  0
  -26.4492  -31.6581   25.0727 C   0  0  0  0  0  0
  -25.3741  -31.3709   26.1469 C   0  0  0  0  0  0
  -27.0306  -30.2997   24.6152 C   0  0  0  0  0  0
  -27.6050  -32.4322   25.7501 C   0  0  0  0  0  0
  -27.5576  -37.1778   24.8484 C   0  0  0  0  0  0
  -21.4239  -29.3031   22.3663 N   0  0  0  0  0  0
  -26.4317  -37.3762   23.9399 N   0  0  0  0  0  0
  -24.6896  -31.0572   22.1009 N   0  0  0  0  0  0
  -23.4245  -28.8190   23.3020 O   0  0  0  0  0  0
  -28.2111  -26.3199   20.1366 O   0  0  0  0  0  0
  -26.5619  -34.8909   22.4671 O   0  0  0  0  0  0
  -23.5391  -32.1570   23.7255 O   0  0  0  0  0  0
  -27.3440  -21.4713   21.0200 C   0  0  0  0  0  0
  -28.2698  -22.1534   20.2409 C   0  0  0  0  0  0
  -28.9320  -19.9306   20.5461 C   0  0  0  0  0  0
  -32.3255  -21.0411   20.8971 C   0  0  0  0  0  0
  -31.4011  -23.3382   20.6842 C   0  0  0  0  0  0
  -29.3582  -15.8818   22.4532 C   0  0  0  0  0  0
  -28.3196  -23.6388   19.6623 C   0  0  0  0  0  0
  -29.7919  -18.5998   20.6777 C   0  0  0  0  0  0
  -30.4613  -21.3711   19.1801 C   0  0  0  0  0  0
  -29.2462  -17.1158   20.3195 C   0  0  0  0  0  0
  -27.9025  -24.9066   20.5605 C   0  0  0  0  0  0
  -31.6713  -22.0186   19.9228 C   0  0  0  0  0  0
  -29.2352  -21.1577   19.9848 N   0  0  0  0  0  0
  -27.7656  -20.1602   21.1719 N   0  3  0  0  0  0
  -29.7626  -15.8506   21.0390 N   0  0  0  0  0  0
  -31.4754  -12.6552   19.1922 H   0  0  0  0  0  0
  -30.4203  -11.5002   19.9357 H   0  0  0  0  0  0
  -29.8296  -11.8083   17.5165 H   0  0  0  0  0  0
  -29.6306  -13.5243   17.7766 H   0  0  0  0  0  0
  -27.8919  -11.2869   18.8578 H   0  0  0  0  0  0
  -27.4012  -12.5761   17.7835 H   0  0  0  0  0  0
  -27.6612  -14.2553   19.5179 H   0  0  0  0  0  0
  -28.7253  -12.0520   21.3527 H   0  0  0  0  0  0
  -28.3199  -13.6610   21.8579 H   0  0  0  0  0  0
  -25.2774   -9.5707   22.4700 H   0  0  0  0  0  0
  -23.9999   -7.4679   22.7488 H   0  0  0  0  0  0
  -21.0792   -8.8782   19.9005 H   0  0  0  0  0  0
  -22.3638  -10.9667   19.6135 H   0  0  0  0  0  0
  -21.1999   -7.6147   23.9745 H   0  0  0  0  0  0
  -21.1467   -6.0508   25.9094 H   0  0  0  0  0  0
  -22.0606   -2.7608   23.2881 H   0  0  0  0  0  0
  -22.4146  -11.9849   22.4738 H   0  0  0  0  0  0
  -21.1162  -13.1317   22.2658 H   0  0  0  0  0  0
  -24.6653  -15.8451   20.5144 H   0  0  0  0  0  0
  -26.2833  -15.6324   20.0881 H   0  0  0  0  0  0
  -26.7233  -32.5430   23.1139 H   0  0  0  0  0  0
  -25.0089  -33.9806   25.0438 H   0  0  0  0  0  0
  -22.7056  -31.3077   21.4060 H   0  0  0  0  0  0
  -23.3735  -35.9626   23.3351 H   0  0  0  0  0  0
  -24.3596  -36.8878   22.2054 H   0  0  0  0  0  0
  -23.7225  -37.6495   23.6657 H   0  0  0  0  0  0
  -26.1071  -31.4974   20.5967 H   0  0  0  0  0  0
  -26.8590  -30.8241   22.0033 H   0  0  0  0  0  0
  -28.0828  -28.8252   21.2465 H   0  0  0  0  0  0
  -25.9120  -25.9391   18.8959 H   0  0  0  0  0  0
  -23.9244  -27.3704   18.9394 H   0  0  0  0  0  0
  -23.7646  -30.6142   19.4139 H   0  0  0  0  0  0
  -22.7480  -29.2753   19.8519 H   0  0  0  0  0  0
  -25.1243  -36.1989   25.0815 H   0  0  0  0  0  0
  -20.9976  -28.3324   24.1440 H   0  0  0  0  0  0
  -20.5747  -26.2307   23.3600 H   0  0  0  0  0  0
  -21.6640  -26.7504   22.1155 H   0  0  0  0  0  0
  -19.6905  -25.6306   21.1273 H   0  0  0  0  0  0
  -19.6737  -27.3229   20.6767 H   0  0  0  0  0  0
  -17.4197  -26.6743   21.4071 H   0  0  0  0  0  0
  -18.0345  -26.0144   22.9044 H   0  0  0  0  0  0
  -19.7918  -30.7352   24.2265 H   0  0  0  0  0  0
  -17.4978  -31.6312   24.5202 H   0  0  0  0  0  0
  -15.5350  -30.2993   23.7700 H   0  0  0  0  0  0
  -15.8661  -28.0868   22.7046 H   0  0  0  0  0  0
  -24.5931  -30.7053   25.7814 H   0  0  0  0  0  0
  -24.8899  -32.2844   26.4925 H   0  0  0  0  0  0
  -25.8058  -30.8888   27.0253 H   0  0  0  0  0  0
  -26.2902  -29.6794   24.1090 H   0  0  0  0  0  0
  -27.3964  -29.7202   25.4643 H   0  0  0  0  0  0
  -27.8781  -30.4320   23.9416 H   0  0  0  0  0  0
  -27.2704  -33.3648   26.2076 H   0  0  0  0  0  0
  -28.3829  -32.6875   25.0294 H   0  0  0  0  0  0
  -28.0768  -31.8464   26.5415 H   0  0  0  0  0  0
  -28.2568  -38.0085   24.7432 H   0  0  0  0  0  0
  -28.1071  -36.2575   24.6384 H   0  0  0  0  0  0
  -27.2293  -37.1509   25.8898 H   0  0  0  0  0  0
  -20.9456  -29.8702   21.6808 H   0  0  0  0  0  0
  -26.0189  -38.2845   24.1372 H   0  0  0  0  0  0
  -26.4163  -21.7830   21.4925 H   0  0  0  0  0  0
  -33.2130  -21.4766   21.3538 H   0  0  0  0  0  0
  -32.6332  -20.1330   20.3825 H   0  0  0  0  0  0
  -31.6395  -20.7694   21.6964 H   0  0  0  0  0  0
  -32.2849  -23.7135   21.2004 H   0  0  0  0  0  0
  -30.6369  -23.1881   21.4453 H   0  0  0  0  0  0
  -31.1206  -24.1625   20.0358 H   0  0  0  0  0  0
  -29.8066  -16.7159   22.9902 H   0  0  0  0  0  0
  -29.6410  -14.9830   23.0020 H   0  0  0  0  0  0
  -28.2722  -15.9859   22.5276 H   0  0  0  0  0  0
  -27.7291  -23.6803   18.7472 H   0  0  0  0  0  0
  -29.3058  -23.8055   19.2478 H   0  0  0  0  0  0
  -30.1003  -18.6115   21.7203 H   0  0  0  0  0  0
  -30.7037  -18.7743   20.1142 H   0  0  0  0  0  0
  -30.7303  -20.4199   18.7248 H   0  0  0  0  0  0
  -30.1957  -21.9876   18.3265 H   0  0  0  0  0  0
  -29.3015  -16.9500   19.2416 H   0  0  0  0  0  0
  -28.1769  -17.1491   20.5376 H   0  0  0  0  0  0
  -26.8313  -24.8133   20.7443 H   0  0  0  0  0  0
  -28.3722  -24.7837   21.5416 H   0  0  0  0  0  0
  -32.4076  -22.2360   19.1476 H   0  0  0  0  0  0
  -27.2736  -19.4729   21.7368 H   0  0  0  0  0  0
  1 25  1  0  0  0
  1 30  2  0  0  0
  1 85  1  0  0  0
  2  3  1  0  0  0
  2 25  1  0  0  0
  2 86  1  0  0  0
  2 87  1  0  0  0
  3  4  1  0  0  0
  3 88  1  0  0  0
  3 89  1  0  0  0
  4  5  1  0  0  0
  4 90  1  0  0  0
  4 91  1  0  0  0
  5  6  1  0  0  0
  5 26  1  0  0  0
  5 92  1  0  0  0
  6 25  1  0  0  0
  6 93  1  0  0  0
  6 94  1  0  0  0
  7  8  2  0  0  0
  7 26  1  0  0  0
  7 29  1  0  0  0
  8  9  1  0  0  0
  8 22  1  0  0  0
  9 10  1  0  0  0
  9 27  2  0  0  0
 10 11  2  0  0  0
 10 15  1  0  0  0
 11 12  1  0  0  0
 11 95  1  0  0  0
 12 13  2  0  0  0
 12 96  1  0  0  0
 13 14  1  0  0  0
 13 31  1  0  0  0
 14 15  2  0  0  0
 14 97  1  0  0  0
 15 98  1  0  0  0
 16 17  2  0  0  0
 16 21  1  0  0  0
 16 31  1  0  0  0
 17 18  1  0  0  0
 17 99  1  0  0  0
 18 19  2  0  0  0
 18100  1  0  0  0
 19 20  1  0  0  0
 19 24  1  0  0  0
 20 21  2  0  0  0
 20101  1  0  0  0
 21 23  1  0  0  0
 22 28  1  0  0  0
 22 32  2  0  0  0
 26 27  1  0  0  0
 28102  1  0  0  0
 28103  1  0  0  0
 29104  1  0  0  0
 29105  1  0  0  0
 33 34  1  0  0  0
 33 66  1  0  0  0
 33 70  2  0  0  0
 34 36  1  0  0  0
 34 59  1  0  0  0
 34106  1  0  0  0
 35 44  2  0  0  0
 35 45  1  0  0  0
 35 68  1  0  0  0
 36 56  1  0  0  0
 36107  1  0  0  0
 37 39  1  0  0  0
 37 47  1  0  0  0
 37 66  1  0  0  0
 37108  1  0  0  0
 38 43  2  0  0  0
 38 46  1  0  0  0
 38 47  1  0  0  0
 39 64  1  0  0  0
 39 67  2  0  0  0
 40 52  1  0  0  0
 40 53  2  0  0  0
 40 58  1  0  0  0
 41109  1  0  0  0
 41110  1  0  0  0
 41111  1  0  0  0
 41 48  1  0  0  0
 42 43  1  0  0  0
 42 66  1  0  0  0
 42112  1  0  0  0
 42113  1  0  0  0
 43 44  1  0  0  0
 44114  1  0  0  0
 45 46  2  0  0  0
 45115  1  0  0  0
 46116  1  0  0  0
 47117  1  0  0  0
 47118  1  0  0  0
 48 56  1  0  0  0
 48 65  1  0  0  0
 48119  1  0  0  0
 49 50  1  0  0  0
 49 53  1  0  0  0
 49 64  1  0  0  0
 49120  1  0  0  0
 50 51  1  0  0  0
 50121  1  0  0  0
 50122  1  0  0  0
 51 52  1  0  0  0
 51123  1  0  0  0
 51124  1  0  0  0
 52125  1  0  0  0
 52126  1  0  0  0
 53 54  1  0  0  0
 54 55  2  0  0  0
 54127  1  0  0  0
 55 57  1  0  0  0
 55128  1  0  0  0
 56 69  2  0  0  0
 57 58  2  0  0  0
 57129  1  0  0  0
 58130  1  0  0  0
 59 60  1  0  0  0
 59 61  1  0  0  0
 59 62  1  0  0  0
 60131  1  0  0  0
 60132  1  0  0  0
 60133  1  0  0  0
 61134  1  0  0  0
 61135  1  0  0  0
 61136  1  0  0  0
 62137  1  0  0  0
 62138  1  0  0  0
 62139  1  0  0  0
 63 65  1  0  0  0
 63140  1  0  0  0
 63141  1  0  0  0
 63142  1  0  0  0
 64143  1  0  0  0
 65144  1  0  0  0
 68 81  1  0  0  0
 71 72  2  0  0  0
 71 84  1  0  0  0
 71145  1  0  0  0
 72 77  1  0  0  0
 72 83  1  0  0  0
 73 78  1  0  0  0
 73 83  1  0  0  0
 73 84  2  0  0  0
 74146  1  0  0  0
 74147  1  0  0  0
 74148  1  0  0  0
 74 82  1  0  0  0
 75 82  1  0  0  0
 75149  1  0  0  0
 75150  1  0  0  0
 75151  1  0  0  0
 76 85  1  0  0  0
 76152  1  0  0  0
 76153  1  0  0  0
 76154  1  0  0  0
 77 81  1  0  0  0
 77155  1  0  0  0
 77156  1  0  0  0
 78 80  1  0  0  0
 78157  1  0  0  0
 78158  1  0  0  0
 79 82  1  0  0  0
 79 83  1  0  0  0
 79159  1  0  0  0
 79160  1  0  0  0
 80 85  1  0  0  0
 80161  1  0  0  0
 80162  1  0  0  0
 81163  1  0  0  0
 81164  1  0  0  0
 82165  1  0  0  0
 84166  1  0  0  0
M  CHG  1  84   1
M  ISO  4   1 100  68 101  81 101  85 100
M  END
> <chiral flag>
0

> <version>
0

> <s_m_source_file>
/data/baiqing/PycharmProjects/Reinvent-master-3.2/result/LINK_invent/BTK/process_docking_weight1_custom_sum_contain_oxygen_bond_distance_aromatic_linkinvent_7_9_3/rearranged_h_0051.sdf

> <i_m_source_file_index>
85

> <r_mmod_Potential_Energy-OPLS-2005>
332.919677734375

> <r_mmod_Stretch_Energy-OPLS-2005>
136.617248535156

> <r_mmod_Bend_Energy-OPLS-2005>
182.914840698242

> <r_mmod_Torsional_Energy-OPLS-2005>
333.298553466797

> <r_mmod_Improper_Torsional_Energy-OPLS-2005>
5.17454624176025

> <r_mmod_Van_der_Waal_Energy-OPLS-2005>
120.819839477539

> <r_mmod_Electrostatic_Energy-OPLS-2005>
-136.394104003906

> <r_mmod_Solvation_Energy-OPLS-2005>
-412.594116210938

> <b_mmod_Minimization_Converged-OPLS-2005>
0

> <r_mmod_RMS_Derivative-OPLS-2005>
11.0114936828613

$$$$
88
                    3D
 Structure written by MMmdl.
164172  0  0  1  0            999 V2000
  -30.6796  -14.4069   20.6662 C   0  0  0  0  0  0
  -30.4199  -12.3060   19.3894 C   0  0  0  0  0  0
  -29.4694  -12.5355   18.1937 C   0  0  0  0  0  0
  -27.9968  -12.3919   18.6114 C   0  0  0  0  0  0
  -27.6639  -13.1904   19.8989 C   0  0  2  0  0  0
  -28.7011  -12.8855   21.0013 C   0  0  0  0  0  0
  -25.2557  -13.8121   20.5682 C   0  0  0  0  0  0
  -24.1794  -13.0393   20.9145 C   0  0  0  0  0  0
  -24.6366  -11.6880   20.8725 C   0  0  0  0  0  0
  -23.9059  -10.4270   21.0402 C   0  0  0  0  0  0
  -24.3617   -9.4197   21.9152 C   0  0  0  0  0  0
  -23.6317   -8.2213   22.0740 C   0  0  0  0  0  0
  -22.4299   -8.0240   21.3530 C   0  0  0  0  0  0
  -21.9921   -9.0227   20.4634 C   0  0  0  0  0  0
  -22.7235  -10.2118   20.3064 C   0  0  0  0  0  0
  -21.6842   -6.0728   22.5278 C   0  0  0  0  0  0
  -21.4001   -6.5658   23.8197 C   0  0  0  0  0  0
  -21.3626   -5.6831   24.9187 C   0  0  0  0  0  0
  -21.6020   -4.3096   24.7239 C   0  0  0  0  0  0
  -21.8831   -3.8164   23.4371 C   0  0  0  0  0  0
  -21.9192   -4.6960   22.3411 C   0  0  0  0  0  0
  -22.7839  -13.5208   21.1844 C   0  0  0  0  0  0
  -22.1697   -4.2171   21.0998 F   0  0  0  0  0  0
  -21.5643   -3.4565   25.7749 F   0  0  0  0  0  0
  -30.0337  -13.2272   20.4648 N   0  0  0  0  0  0
  -26.3028  -12.9260   20.3494 N   0  0  0  0  0  0
  -25.9281  -11.6446   20.5826 N   0  0  0  0  0  0
  -22.0550  -12.8149   22.0442 N   0  0  0  0  0  0
  -25.4316  -15.1812   20.4089 N   0  0  0  0  0  0
  -31.7499  -14.7070   20.1240 O   0  0  0  0  0  0
  -21.6631   -6.8857   21.4231 O   0  0  0  0  0  0
  -22.3489  -14.5500   20.6737 O   0  0  0  0  0  0
  -24.6125  -31.8750   23.2162 C   0  0  0  0  0  0
  -25.9033  -32.4874   23.8465 C   0  0  1  0  0  0
  -27.2180  -27.4877   20.0974 C   0  0  0  0  0  0
  -25.5907  -33.8669   24.2404 N   0  0  0  0  0  0
  -23.3982  -30.5064   21.5481 C   0  0  2  0  0  0
  -24.8418  -28.9844   20.1063 C   0  0  0  0  0  0
  -22.7423  -29.4707   22.4903 C   0  0  0  0  0  0
  -18.0288  -28.1408   22.8469 C   0  0  0  0  0  0
  -24.1487  -36.7351   23.2631 C   0  0  0  0  0  0
  -25.9206  -30.8696   21.3499 C   0  0  0  0  0  0
  -25.9993  -29.5049   20.7010 C   0  0  0  0  0  0
  -27.1977  -28.7650   20.6896 C   0  0  0  0  0  0
  -26.0529  -26.9615   19.5108 C   0  0  0  0  0  0
  -24.8621  -27.7134   19.5039 C   0  0  0  0  0  0
  -23.6088  -29.8572   20.1539 C   0  0  0  0  0  0
  -25.4099  -36.3155   24.0354 C   0  0  1  0  0  0
  -20.5882  -28.3705   23.1287 C   0  0  2  0  0  0
  -20.6766  -26.9435   22.5399 C   0  0  0  0  0  0
  -19.5739  -26.6408   21.5202 C   0  0  0  0  0  0
  -18.1917  -26.7954   22.1608 C   0  0  0  0  0  0
  -19.1537  -28.8861   23.2901 C   0  0  0  0  0  0
  -18.9457  -30.1448   23.8947 C   0  0  0  0  0  0
  -17.6460  -30.6592   24.0587 C   0  0  0  0  0  0
  -25.9024  -34.9512   23.5181 C   0  0  0  0  0  0
  -16.5354  -29.9113   23.6299 C   0  0  0  0  0  0
  -16.7282  -28.6541   23.0314 C   0  0  0  0  0  0
  -26.4451  -31.6625   25.0765 C   0  0  0  0  0  0
  -25.3713  -31.3734   26.1513 C   0  0  0  0  0  0
  -27.0261  -30.3088   24.6072 C   0  0  0  0  0  0
  -27.6069  -32.4293   25.7520 C   0  0  0  0  0  0
  -27.5607  -37.1819   24.8448 C   0  0  0  0  0  0
  -21.4145  -29.3088   22.3690 N   0  0  0  0  0  0
  -26.4297  -37.3829   23.9423 N   0  0  0  0  0  0
  -24.6623  -31.0959   22.0989 N   0  0  0  0  0  0
  -23.4222  -28.8215   23.2899 O   0  0  0  0  0  0
  -28.3475  -26.7265   20.1243 O   0  0  0  0  0  0
  -26.5568  -34.8950   22.4727 O   0  0  0  0  0  0
  -23.5326  -32.1435   23.7598 O   0  0  0  0  0  0
  -29.7960  -22.7724   17.7877 C   0  0  0  0  0  0
  -29.9160  -24.1611   17.9377 C   0  0  0  0  0  0
  -30.3578  -22.5695   20.1315 C   0  0  0  0  0  0
  -30.0644  -21.9557   18.8991 C   0  0  0  0  0  0
  -30.2749  -24.6858   19.1906 C   0  0  0  0  0  0
  -27.7738  -20.2736   19.5059 C   0  0  0  0  0  0
  -30.1551  -20.4452   18.7330 C   0  0  0  0  0  0
  -30.5121  -26.1781   19.3432 C   0  0  0  0  0  0
  -29.7465  -17.4982   20.4335 C   0  0  0  0  0  0
  -30.2152  -16.6897   21.6536 C   0  0  0  0  0  0
  -29.5822  -19.0070   20.6893 C   0  0  0  0  0  0
  -29.2480  -26.9947   19.0714 C   0  0  0  0  0  0
  -30.4553  -23.9063   20.2821 N   0  0  0  0  0  0
  -29.9914  -15.2637   21.4378 N   0  0  0  0  0  0
  -29.1171  -19.6507   19.4356 N   0  3  1  0  0  0
  -31.4561  -12.4435   19.0778 H   0  0  0  0  0  0
  -30.3547  -11.2747   19.7402 H   0  0  0  0  0  0
  -29.7020  -11.8539   17.3766 H   0  0  0  0  0  0
  -29.6258  -13.5441   17.8065 H   0  0  0  0  0  0
  -27.7924  -11.3298   18.7639 H   0  0  0  0  0  0
  -27.3543  -12.7112   17.7917 H   0  0  0  0  0  0
  -27.7326  -14.2510   19.6531 H   0  0  0  0  0  0
  -28.6746  -11.8255   21.2600 H   0  0  0  0  0  0
  -28.4446  -13.3919   21.9330 H   0  0  0  0  0  0
  -25.2754   -9.5717   22.4721 H   0  0  0  0  0  0
  -24.0023   -7.4633   22.7497 H   0  0  0  0  0  0
  -21.0846   -8.8747   19.8959 H   0  0  0  0  0  0
  -22.3660  -10.9657   19.6218 H   0  0  0  0  0  0
  -21.1956   -7.6163   23.9714 H   0  0  0  0  0  0
  -21.1446   -6.0579   25.9103 H   0  0  0  0  0  0
  -22.0598   -2.7624   23.2896 H   0  0  0  0  0  0
  -22.4276  -11.9831   22.4776 H   0  0  0  0  0  0
  -21.1187  -13.1135   22.2751 H   0  0  0  0  0  0
  -24.6682  -15.8415   20.5193 H   0  0  0  0  0  0
  -26.2848  -15.6100   20.0708 H   0  0  0  0  0  0
  -26.7156  -32.5624   23.1296 H   0  0  0  0  0  0
  -25.0095  -33.9844   25.0578 H   0  0  0  0  0  0
  -22.6859  -31.3239   21.4177 H   0  0  0  0  0  0
  -23.3758  -35.9669   23.3239 H   0  0  0  0  0  0
  -24.3617  -36.9006   22.2061 H   0  0  0  0  0  0
  -23.7214  -37.6542   23.6653 H   0  0  0  0  0  0
  -26.0130  -31.6360   20.5775 H   0  0  0  0  0  0
  -26.8185  -30.9368   21.9529 H   0  0  0  0  0  0
  -28.0975  -29.1681   21.1353 H   0  0  0  0  0  0
  -26.0709  -25.9786   19.0637 H   0  0  0  0  0  0
  -23.9714  -27.3106   19.0432 H   0  0  0  0  0  0
  -23.7448  -30.6482   19.4145 H   0  0  0  0  0  0
  -22.7278  -29.2994   19.8320 H   0  0  0  0  0  0
  -25.1252  -36.2037   25.0843 H   0  0  0  0  0  0
  -21.0012  -28.3285   24.1396 H   0  0  0  0  0  0
  -20.5638  -26.2337   23.3607 H   0  0  0  0  0  0
  -21.6638  -26.7431   22.1221 H   0  0  0  0  0  0
  -19.6885  -25.6317   21.1238 H   0  0  0  0  0  0
  -19.6674  -27.3216   20.6730 H   0  0  0  0  0  0
  -17.4186  -26.6720   21.4012 H   0  0  0  0  0  0
  -18.0295  -26.0103   22.9008 H   0  0  0  0  0  0
  -19.7930  -30.7243   24.2365 H   0  0  0  0  0  0
  -17.5014  -31.6258   24.5220 H   0  0  0  0  0  0
  -15.5362  -30.3047   23.7573 H   0  0  0  0  0  0
  -15.8685  -28.0894   22.6974 H   0  0  0  0  0  0
  -24.5935  -30.7008   25.7871 H   0  0  0  0  0  0
  -24.8825  -32.2882   26.4885 H   0  0  0  0  0  0
  -25.8063  -30.8995   27.0324 H   0  0  0  0  0  0
  -26.2798  -29.6898   24.1078 H   0  0  0  0  0  0
  -27.4026  -29.7268   25.4495 H   0  0  0  0  0  0
  -27.8623  -30.4447   23.9209 H   0  0  0  0  0  0
  -27.2768  -33.3628   26.2091 H   0  0  0  0  0  0
  -28.3896  -32.6780   25.0339 H   0  0  0  0  0  0
  -28.0706  -31.8391   26.5437 H   0  0  0  0  0  0
  -28.2563  -38.0179   24.7593 H   0  0  0  0  0  0
  -28.1168  -36.2724   24.6122 H   0  0  0  0  0  0
  -27.2357  -37.1296   25.8856 H   0  0  0  0  0  0
  -20.9280  -29.8944   21.7042 H   0  0  0  0  0  0
  -26.0193  -38.2901   24.1457 H   0  0  0  0  0  0
  -29.5633  -22.3519   16.8207 H   0  0  0  0  0  0
  -29.7724  -24.8135   17.0886 H   0  0  0  0  0  0
  -30.5525  -21.9763   21.0117 H   0  0  0  0  0  0
  -27.4775  -20.6001   18.5116 H   0  0  0  0  0  0
  -27.7378  -21.1347   20.1768 H   0  0  0  0  0  0
  -27.0294  -19.5538   19.8482 H   0  0  0  0  0  0
  -31.1635  -20.1320   19.0037 H   0  0  0  0  0  0
  -30.0661  -20.2108   17.6722 H   0  0  0  0  0  0
  -31.2970  -26.4727   18.6484 H   0  0  0  0  0  0
  -30.8827  -26.4062   20.3448 H   0  0  0  0  0  0
  -28.7778  -17.1131   20.1143 H   0  0  0  0  0  0
  -30.4327  -17.3329   19.5985 H   0  0  0  0  0  0
  -29.6277  -16.9946   22.5224 H   0  0  0  0  0  0
  -31.2619  -16.8910   21.8904 H   0  0  0  0  0  0
  -30.5134  -19.4570   21.0420 H   0  0  0  0  0  0
  -28.8593  -19.1598   21.4918 H   0  0  0  0  0  0
  -28.8007  -26.7095   18.1178 H   0  0  0  0  0  0
  -29.4803  -28.0602   19.0131 H   0  0  0  0  0  0
  -29.1305  -14.8914   21.8078 H   0  0  0  0  0  0
  -28.9911  -18.8610   18.8210 H   0  0  0  0  0  0
  1 25  1  0  0  0
  1 30  2  0  0  0
  1 84  1  0  0  0
  2  3  1  0  0  0
  2 25  1  0  0  0
  2 86  1  0  0  0
  2 87  1  0  0  0
  3  4  1  0  0  0
  3 88  1  0  0  0
  3 89  1  0  0  0
  4  5  1  0  0  0
  4 90  1  0  0  0
  4 91  1  0  0  0
  5  6  1  0  0  0
  5 26  1  0  0  0
  5 92  1  0  0  0
  6 25  1  0  0  0
  6 93  1  0  0  0
  6 94  1  0  0  0
  7  8  2  0  0  0
  7 26  1  0  0  0
  7 29  1  0  0  0
  8  9  1  0  0  0
  8 22  1  0  0  0
  9 10  1  0  0  0
  9 27  2  0  0  0
 10 11  2  0  0  0
 10 15  1  0  0  0
 11 12  1  0  0  0
 11 95  1  0  0  0
 12 13  2  0  0  0
 12 96  1  0  0  0
 13 14  1  0  0  0
 13 31  1  0  0  0
 14 15  2  0  0  0
 14 97  1  0  0  0
 15 98  1  0  0  0
 16 17  2  0  0  0
 16 21  1  0  0  0
 16 31  1  0  0  0
 17 18  1  0  0  0
 17 99  1  0  0  0
 18 19  2  0  0  0
 18100  1  0  0  0
 19 20  1  0  0  0
 19 24  1  0  0  0
 20 21  2  0  0  0
 20101  1  0  0  0
 21 23  1  0  0  0
 22 28  1  0  0  0
 22 32  2  0  0  0
 26 27  1  0  0  0
 28102  1  0  0  0
 28103  1  0  0  0
 29104  1  0  0  0
 29105  1  0  0  0
 33 34  1  0  0  0
 33 66  1  0  0  0
 33 70  2  0  0  0
 34 36  1  0  0  0
 34 59  1  0  0  0
 34106  1  0  0  0
 35 44  2  0  0  0
 35 45  1  0  0  0
 35 68  1  0  0  0
 36 56  1  0  0  0
 36107  1  0  0  0
 37 39  1  0  0  0
 37 47  1  0  0  0
 37 66  1  0  0  0
 37108  1  0  0  0
 38 43  2  0  0  0
 38 46  1  0  0  0
 38 47  1  0  0  0
 39 64  1  0  0  0
 39 67  2  0  0  0
 40 52  1  0  0  0
 40 53  2  0  0  0
 40 58  1  0  0  0
 41109  1  0  0  0
 41110  1  0  0  0
 41111  1  0  0  0
 41 48  1  0  0  0
 42 43  1  0  0  0
 42 66  1  0  0  0
 42112  1  0  0  0
 42113  1  0  0  0
 43 44  1  0  0  0
 44114  1  0  0  0
 45 46  2  0  0  0
 45115  1  0  0  0
 46116  1  0  0  0
 47117  1  0  0  0
 47118  1  0  0  0
 48 56  1  0  0  0
 48 65  1  0  0  0
 48119  1  0  0  0
 49 50  1  0  0  0
 49 53  1  0  0  0
 49 64  1  0  0  0
 49120  1  0  0  0
 50 51  1  0  0  0
 50121  1  0  0  0
 50122  1  0  0  0
 51 52  1  0  0  0
 51123  1  0  0  0
 51124  1  0  0  0
 52125  1  0  0  0
 52126  1  0  0  0
 53 54  1  0  0  0
 54 55  2  0  0  0
 54127  1  0  0  0
 55 57  1  0  0  0
 55128  1  0  0  0
 56 69  2  0  0  0
 57 58  2  0  0  0
 57129  1  0  0  0
 58130  1  0  0  0
 59 60  1  0  0  0
 59 61  1  0  0  0
 59 62  1  0  0  0
 60131  1  0  0  0
 60132  1  0  0  0
 60133  1  0  0  0
 61134  1  0  0  0
 61135  1  0  0  0
 61136  1  0  0  0
 62137  1  0  0  0
 62138  1  0  0  0
 62139  1  0  0  0
 63 65  1  0  0  0
 63140  1  0  0  0
 63141  1  0  0  0
 63142  1  0  0  0
 64143  1  0  0  0
 65144  1  0  0  0
 68 82  1  0  0  0
 71 72  2  0  0  0
 71 74  1  0  0  0
 71145  1  0  0  0
 72 75  1  0  0  0
 72146  1  0  0  0
 73 74  2  0  0  0
 73 83  1  0  0  0
 73147  1  0  0  0
 74 77  1  0  0  0
 75 78  1  0  0  0
 75 83  2  0  0  0
 76148  1  0  0  0
 76149  1  0  0  0
 76150  1  0  0  0
 76 85  1  0  0  0
 77 85  1  0  0  0
 77151  1  0  0  0
 77152  1  0  0  0
 78 82  1  0  0  0
 78153  1  0  0  0
 78154  1  0  0  0
 79 80  1  0  0  0
 79 81  1  0  0  0
 79155  1  0  0  0
 79156  1  0  0  0
 80 84  1  0  0  0
 80157  1  0  0  0
 80158  1  0  0  0
 81 85  1  0  0  0
 81159  1  0  0  0
 81160  1  0  0  0
 82161  1  0  0  0
 82162  1  0  0  0
 84163  1  0  0  0
 85164  1  0  0  0
M  CHG  1  85   1
M  ISO  4   1 100  68 101  82 101  84 100
M  END
> <chiral flag>
0

> <version>
0

> <s_m_source_file>
/data/baiqing/PycharmProjects/Reinvent-master-3.2/result/LINK_invent/BTK/process_docking_weight1_custom_sum_contain_oxygen_bond_distance_aromatic_linkinvent_7_9_3/rearranged_h_0051.sdf

> <i_m_source_file_index>
86

> <r_mmod_Potential_Energy-OPLS-2005>
-301.661285400391

> <r_mmod_Stretch_Energy-OPLS-2005>
30.2439975738525

> <r_mmod_Bend_Energy-OPLS-2005>
97.9809341430664

> <r_mmod_Torsional_Energy-OPLS-2005>
223.618682861328

> <r_mmod_Improper_Torsional_Energy-OPLS-2005>
3.14980125427246

> <r_mmod_Van_der_Waal_Energy-OPLS-2005>
153.147750854492

> <r_mmod_Electrostatic_Energy-OPLS-2005>
-350.815063476562

> <r_mmod_Solvation_Energy-OPLS-2005>
-469.529937744141

> <b_mmod_Minimization_Converged-OPLS-2005>
0

> <r_mmod_RMS_Derivative-OPLS-2005>
5.55998516082764

$$$$
89
                    3D
 Structure written by MMmdl.
157165  0  0  1  0            999 V2000
  -30.6879  -14.5730   20.5527 C   0  0  0  0  0  0
  -30.4205  -12.3645   19.4491 C   0  0  0  0  0  0
  -29.4967  -12.5123   18.2202 C   0  0  0  0  0  0
  -28.0201  -12.3564   18.6317 C   0  0  0  0  0  0
  -27.6524  -13.2181   19.8681 C   0  0  2  0  0  0
  -28.6946  -13.0596   20.9968 C   0  0  0  0  0  0
  -25.2550  -13.8187   20.5707 C   0  0  0  0  0  0
  -24.1816  -13.0446   20.9181 C   0  0  0  0  0  0
  -24.6390  -11.6915   20.8745 C   0  0  0  0  0  0
  -23.9068  -10.4295   21.0418 C   0  0  0  0  0  0
  -24.3621   -9.4212   21.9195 C   0  0  0  0  0  0
  -23.6297   -8.2250   22.0761 C   0  0  0  0  0  0
  -22.4281   -8.0291   21.3550 C   0  0  0  0  0  0
  -21.9921   -9.0261   20.4652 C   0  0  0  0  0  0
  -22.7246  -10.2138   20.3059 C   0  0  0  0  0  0
  -21.6854   -6.0750   22.5286 C   0  0  0  0  0  0
  -21.4018   -6.5648   23.8224 C   0  0  0  0  0  0
  -21.3653   -5.6795   24.9179 C   0  0  0  0  0  0
  -21.6039   -4.3060   24.7228 C   0  0  0  0  0  0
  -21.8816   -3.8157   23.4347 C   0  0  0  0  0  0
  -21.9196   -4.6978   22.3405 C   0  0  0  0  0  0
  -22.7839  -13.5243   21.1854 C   0  0  0  0  0  0
  -22.1665   -4.2162   21.0987 F   0  0  0  0  0  0
  -21.5624   -3.4541   25.7741 F   0  0  0  0  0  0
  -30.0159  -13.3841   20.4383 N   0  0  0  0  0  0
  -26.2982  -12.9373   20.3353 N   0  0  0  0  0  0
  -25.9320  -11.6519   20.5773 N   0  0  0  0  0  0
  -22.0478  -12.8227   22.0395 N   0  0  0  0  0  0
  -25.4270  -15.1913   20.4141 N   0  0  0  0  0  0
  -31.8282  -14.7021   20.0949 O   0  0  0  0  0  0
  -21.6647   -6.8894   21.4247 O   0  0  0  0  0  0
  -22.3527  -14.5556   20.6712 O   0  0  0  0  0  0
  -24.6232  -31.8617   23.2098 C   0  0  0  0  0  0
  -25.9117  -32.4771   23.8395 C   0  0  1  0  0  0
  -27.1990  -27.3310   20.1065 C   0  0  0  0  0  0
  -25.5958  -33.8573   24.2300 N   0  0  0  0  0  0
  -23.4126  -30.4944   21.5527 C   0  0  2  0  0  0
  -24.8524  -28.9649   20.1069 C   0  0  0  0  0  0
  -22.7455  -29.4620   22.4934 C   0  0  0  0  0  0
  -18.0277  -28.1379   22.8444 C   0  0  0  0  0  0
  -24.1482  -36.7292   23.2634 C   0  0  0  0  0  0
  -25.9576  -30.7949   21.3819 C   0  0  0  0  0  0
  -26.0247  -29.4295   20.7162 C   0  0  0  0  0  0
  -27.2021  -28.6257   20.7090 C   0  0  0  0  0  0
  -26.0059  -26.9347   19.4502 C   0  0  0  0  0  0
  -24.8462  -27.7217   19.4655 C   0  0  0  0  0  0
  -23.6237  -29.8462   20.1616 C   0  0  0  0  0  0
  -25.4102  -36.3065   24.0315 C   0  0  1  0  0  0
  -20.5871  -28.3665   23.1253 C   0  0  2  0  0  0
  -20.6769  -26.9386   22.5381 C   0  0  0  0  0  0
  -19.5764  -26.6372   21.5174 C   0  0  0  0  0  0
  -18.1936  -26.7909   22.1588 C   0  0  0  0  0  0
  -19.1527  -28.8844   23.2840 C   0  0  0  0  0  0
  -18.9472  -30.1459   23.8847 C   0  0  0  0  0  0
  -17.6476  -30.6574   24.0565 C   0  0  0  0  0  0
  -25.9056  -34.9441   23.5090 C   0  0  0  0  0  0
  -16.5364  -29.9069   23.6356 C   0  0  0  0  0  0
  -16.7263  -28.6508   23.0321 C   0  0  0  0  0  0
  -26.4523  -31.6584   25.0767 C   0  0  0  0  0  0
  -25.3746  -31.3730   26.1491 C   0  0  0  0  0  0
  -27.0404  -30.3001   24.6266 C   0  0  0  0  0  0
  -27.6086  -32.4329   25.7526 C   0  0  0  0  0  0
  -27.5568  -37.1791   24.8459 C   0  0  0  0  0  0
  -21.4168  -29.3028   22.3679 N   0  0  0  0  0  0
  -26.4279  -37.3757   23.9403 N   0  0  0  0  0  0
  -24.6832  -31.0657   22.1038 N   0  0  0  0  0  0
  -23.4194  -28.8114   23.2966 O   0  0  0  0  0  0
  -28.2910  -26.4529   20.1862 O   0  0  0  0  0  0
  -26.5612  -34.8899   22.4651 O   0  0  0  0  0  0
  -23.5408  -32.1429   23.7442 O   0  0  0  0  0  0
  -28.6653  -18.8930   21.0952 C   0  0  0  0  0  0
  -29.6727  -18.3401   20.2561 C   0  0  0  0  0  0
  -30.0667  -20.5122   19.4432 C   0  0  0  0  0  0
  -29.0081  -21.0566   20.2253 C   0  0  0  0  0  0
  -30.8172  -21.3349   18.4154 C   0  0  0  0  0  0
  -29.6805  -15.9695   22.2962 C   0  0  0  0  0  0
  -28.3450  -22.4421   19.9133 C   0  0  0  0  0  0
  -29.8306  -16.8191   19.9030 C   0  0  0  0  0  0
  -28.9126  -23.8345   20.4157 C   0  0  0  0  0  0
  -27.9991  -25.0287   19.9274 C   0  0  0  0  0  0
  -28.3490  -20.2291   21.0886 N   0  0  0  0  0  0
  -30.3965  -19.1874   19.4736 N   0  0  0  0  0  0
  -29.9566  -15.6874   20.8855 N   0  0  0  0  0  0
  -31.4660  -12.4593   19.1502 H   0  0  0  0  0  0
  -30.3274  -11.3670   19.8803 H   0  0  0  0  0  0
  -29.7518  -11.7703   17.4626 H   0  0  0  0  0  0
  -29.6483  -13.4885   17.7571 H   0  0  0  0  0  0
  -27.8467  -11.3022   18.8510 H   0  0  0  0  0  0
  -27.3666  -12.6014   17.7938 H   0  0  0  0  0  0
  -27.6770  -14.2574   19.5402 H   0  0  0  0  0  0
  -28.6918  -12.0396   21.3833 H   0  0  0  0  0  0
  -28.4320  -13.6925   21.8437 H   0  0  0  0  0  0
  -25.2762   -9.5698   22.4767 H   0  0  0  0  0  0
  -24.0012   -7.4650   22.7473 H   0  0  0  0  0  0
  -21.0859   -8.8776   19.8951 H   0  0  0  0  0  0
  -22.3711  -10.9681   19.6167 H   0  0  0  0  0  0
  -21.2014   -7.6155   23.9730 H   0  0  0  0  0  0
  -21.1472   -6.0528   25.9084 H   0  0  0  0  0  0
  -22.0602   -2.7620   23.2847 H   0  0  0  0  0  0
  -22.4092  -11.9882   22.4773 H   0  0  0  0  0  0
  -21.1095  -13.1255   22.2604 H   0  0  0  0  0  0
  -24.6591  -15.8457   20.5230 H   0  0  0  0  0  0
  -26.2849  -15.6334   20.1104 H   0  0  0  0  0  0
  -26.7178  -32.5438   23.1137 H   0  0  0  0  0  0
  -25.0156  -33.9745   25.0469 H   0  0  0  0  0  0
  -22.7046  -31.3144   21.4185 H   0  0  0  0  0  0
  -23.3732  -35.9640   23.3304 H   0  0  0  0  0  0
  -24.3554  -36.8909   22.2051 H   0  0  0  0  0  0
  -23.7281  -37.6507   23.6662 H   0  0  0  0  0  0
  -26.0976  -31.5608   20.6172 H   0  0  0  0  0  0
  -26.8358  -30.8298   22.0161 H   0  0  0  0  0  0
  -28.0991  -28.9739   21.2014 H   0  0  0  0  0  0
  -25.9189  -25.9959   18.9227 H   0  0  0  0  0  0
  -23.9509  -27.3632   18.9764 H   0  0  0  0  0  0
  -23.7444  -30.6342   19.4176 H   0  0  0  0  0  0
  -22.7414  -29.2838   19.8499 H   0  0  0  0  0  0
  -25.1270  -36.1912   25.0803 H   0  0  0  0  0  0
  -20.9954  -28.3249   24.1373 H   0  0  0  0  0  0
  -20.5641  -26.2274   23.3570 H   0  0  0  0  0  0
  -21.6641  -26.7379   22.1197 H   0  0  0  0  0  0
  -19.6923  -25.6273   21.1231 H   0  0  0  0  0  0
  -19.6731  -27.3168   20.6691 H   0  0  0  0  0  0
  -17.4182  -26.6612   21.4009 H   0  0  0  0  0  0
  -18.0364  -26.0046   22.8993 H   0  0  0  0  0  0
  -19.7960  -30.7305   24.2137 H   0  0  0  0  0  0
  -17.5038  -31.6234   24.5193 H   0  0  0  0  0  0
  -15.5375  -30.2975   23.7707 H   0  0  0  0  0  0
  -15.8650  -28.0872   22.6996 H   0  0  0  0  0  0
  -24.5919  -30.7070   25.7842 H   0  0  0  0  0  0
  -24.8956  -32.2912   26.4909 H   0  0  0  0  0  0
  -25.8064  -30.8932   27.0280 H   0  0  0  0  0  0
  -26.3022  -29.6722   24.1277 H   0  0  0  0  0  0
  -27.4082  -29.7278   25.4799 H   0  0  0  0  0  0
  -27.8873  -30.4278   23.9514 H   0  0  0  0  0  0
  -27.2701  -33.3631   26.2089 H   0  0  0  0  0  0
  -28.3912  -32.6881   25.0369 H   0  0  0  0  0  0
  -28.0741  -31.8471   26.5469 H   0  0  0  0  0  0
  -28.2556  -38.0113   24.7501 H   0  0  0  0  0  0
  -28.1085  -36.2638   24.6264 H   0  0  0  0  0  0
  -27.2288  -37.1412   25.8863 H   0  0  0  0  0  0
  -20.9331  -29.8818   21.6957 H   0  0  0  0  0  0
  -26.0150  -38.2807   24.1456 H   0  0  0  0  0  0
  -28.0351  -18.2554   21.6969 H   0  0  0  0  0  0
  -30.3510  -21.2209   17.4366 H   0  0  0  0  0  0
  -31.8535  -21.0046   18.3385 H   0  0  0  0  0  0
  -30.8241  -22.3943   18.6656 H   0  0  0  0  0  0
  -28.6133  -16.1308   22.4507 H   0  0  0  0  0  0
  -30.2219  -16.8534   22.6342 H   0  0  0  0  0  0
  -29.9805  -15.1445   22.9477 H   0  0  0  0  0  0
  -27.3094  -22.3712   20.2525 H   0  0  0  0  0  0
  -28.2620  -22.4950   18.8267 H   0  0  0  0  0  0
  -30.6627  -16.7547   19.1986 H   0  0  0  0  0  0
  -28.9560  -16.5755   19.2993 H   0  0  0  0  0  0
  -29.9279  -23.9856   20.0523 H   0  0  0  0  0  0
  -28.9635  -23.8370   21.5044 H   0  0  0  0  0  0
  -27.0264  -24.7939   20.3626 H   0  0  0  0  0  0
  -27.8932  -24.9265   18.8465 H   0  0  0  0  0  0
  1 25  1  0  0  0
  1 30  2  0  0  0
  1 83  1  0  0  0
  2  3  1  0  0  0
  2 25  1  0  0  0
  2 84  1  0  0  0
  2 85  1  0  0  0
  3  4  1  0  0  0
  3 86  1  0  0  0
  3 87  1  0  0  0
  4  5  1  0  0  0
  4 88  1  0  0  0
  4 89  1  0  0  0
  5  6  1  0  0  0
  5 26  1  0  0  0
  5 90  1  0  0  0
  6 25  1  0  0  0
  6 91  1  0  0  0
  6 92  1  0  0  0
  7  8  2  0  0  0
  7 26  1  0  0  0
  7 29  1  0  0  0
  8  9  1  0  0  0
  8 22  1  0  0  0
  9 10  1  0  0  0
  9 27  2  0  0  0
 10 11  2  0  0  0
 10 15  1  0  0  0
 11 12  1  0  0  0
 11 93  1  0  0  0
 12 13  2  0  0  0
 12 94  1  0  0  0
 13 14  1  0  0  0
 13 31  1  0  0  0
 14 15  2  0  0  0
 14 95  1  0  0  0
 15 96  1  0  0  0
 16 17  2  0  0  0
 16 21  1  0  0  0
 16 31  1  0  0  0
 17 18  1  0  0  0
 17 97  1  0  0  0
 18 19  2  0  0  0
 18 98  1  0  0  0
 19 20  1  0  0  0
 19 24  1  0  0  0
 20 21  2  0  0  0
 20 99  1  0  0  0
 21 23  1  0  0  0
 22 28  1  0  0  0
 22 32  2  0  0  0
 26 27  1  0  0  0
 28100  1  0  0  0
 28101  1  0  0  0
 29102  1  0  0  0
 29103  1  0  0  0
 33 34  1  0  0  0
 33 66  1  0  0  0
 33 70  2  0  0  0
 34 36  1  0  0  0
 34 59  1  0  0  0
 34104  1  0  0  0
 35 44  2  0  0  0
 35 45  1  0  0  0
 35 68  1  0  0  0
 36 56  1  0  0  0
 36105  1  0  0  0
 37 39  1  0  0  0
 37 47  1  0  0  0
 37 66  1  0  0  0
 37106  1  0  0  0
 38 43  2  0  0  0
 38 46  1  0  0  0
 38 47  1  0  0  0
 39 64  1  0  0  0
 39 67  2  0  0  0
 40 52  1  0  0  0
 40 53  2  0  0  0
 40 58  1  0  0  0
 41107  1  0  0  0
 41108  1  0  0  0
 41109  1  0  0  0
 41 48  1  0  0  0
 42 43  1  0  0  0
 42 66  1  0  0  0
 42110  1  0  0  0
 42111  1  0  0  0
 43 44  1  0  0  0
 44112  1  0  0  0
 45 46  2  0  0  0
 45113  1  0  0  0
 46114  1  0  0  0
 47115  1  0  0  0
 47116  1  0  0  0
 48 56  1  0  0  0
 48 65  1  0  0  0
 48117  1  0  0  0
 49 50  1  0  0  0
 49 53  1  0  0  0
 49 64  1  0  0  0
 49118  1  0  0  0
 50 51  1  0  0  0
 50119  1  0  0  0
 50120  1  0  0  0
 51 52  1  0  0  0
 51121  1  0  0  0
 51122  1  0  0  0
 52123  1  0  0  0
 52124  1  0  0  0
 53 54  1  0  0  0
 54 55  2  0  0  0
 54125  1  0  0  0
 55 57  1  0  0  0
 55126  1  0  0  0
 56 69  2  0  0  0
 57 58  2  0  0  0
 57127  1  0  0  0
 58128  1  0  0  0
 59 60  1  0  0  0
 59 61  1  0  0  0
 59 62  1  0  0  0
 60129  1  0  0  0
 60130  1  0  0  0
 60131  1  0  0  0
 61132  1  0  0  0
 61133  1  0  0  0
 61134  1  0  0  0
 62135  1  0  0  0
 62136  1  0  0  0
 62137  1  0  0  0
 63 65  1  0  0  0
 63138  1  0  0  0
 63139  1  0  0  0
 63140  1  0  0  0
 64141  1  0  0  0
 65142  1  0  0  0
 68 80  1  0  0  0
 71 72  2  0  0  0
 71 81  1  0  0  0
 71143  1  0  0  0
 72 78  1  0  0  0
 72 82  1  0  0  0
 73 74  1  0  0  0
 73 75  1  0  0  0
 73 82  2  0  0  0
 74 77  1  0  0  0
 74 81  2  0  0  0
 75144  1  0  0  0
 75145  1  0  0  0
 75146  1  0  0  0
 76 83  1  0  0  0
 76147  1  0  0  0
 76148  1  0  0  0
 76149  1  0  0  0
 77 79  1  0  0  0
 77150  1  0  0  0
 77151  1  0  0  0
 78 83  1  0  0  0
 78152  1  0  0  0
 78153  1  0  0  0
 79 80  1  0  0  0
 79154  1  0  0  0
 79155  1  0  0  0
 80156  1  0  0  0
 80157  1  0  0  0
M  ISO  4   1 100  68 101  80 101  83 100
M  END
> <chiral flag>
0

> <version>
0

> <s_m_source_file>
/data/baiqing/PycharmProjects/Reinvent-master-3.2/result/LINK_invent/BTK/process_docking_weight1_custom_sum_contain_oxygen_bond_distance_aromatic_linkinvent_7_9_3/rearranged_h_0051.sdf

> <i_m_source_file_index>
87

> <r_mmod_Potential_Energy-OPLS-2005>
208.960632324219

> <r_mmod_Stretch_Energy-OPLS-2005>
74.475471496582

> <r_mmod_Bend_Energy-OPLS-2005>
155.072540283203

> <r_mmod_Torsional_Energy-OPLS-2005>
278.699157714844

> <r_mmod_Improper_Torsional_Energy-OPLS-2005>
12.880560874939

> <r_mmod_Van_der_Waal_Energy-OPLS-2005>
158.636260986328

> <r_mmod_Electrostatic_Energy-OPLS-2005>
-294.962554931641

> <r_mmod_Solvation_Energy-OPLS-2005>
-216.426895141602

> <b_mmod_Minimization_Converged-OPLS-2005>
0

> <r_mmod_RMS_Derivative-OPLS-2005>
2.77459406852722

$$$$
90
                    3D
 Structure written by MMmdl.
166174  0  0  1  0            999 V2000
  -30.6562  -14.7539   20.4166 C   0  0  0  0  0  0
  -30.4309  -12.4561   19.4692 C   0  0  0  0  0  0
  -29.5057  -12.4452   18.2347 C   0  0  0  0  0  0
  -28.0326  -12.2846   18.6583 C   0  0  0  0  0  0
  -27.6312  -13.2107   19.8351 C   0  0  2  0  0  0
  -28.6865  -13.2237   20.9628 C   0  0  0  0  0  0
  -25.2520  -13.8121   20.5702 C   0  0  0  0  0  0
  -24.1788  -13.0403   20.9223 C   0  0  0  0  0  0
  -24.6350  -11.6872   20.8782 C   0  0  0  0  0  0
  -23.9024  -10.4263   21.0418 C   0  0  0  0  0  0
  -24.3594   -9.4176   21.9189 C   0  0  0  0  0  0
  -23.6280   -8.2208   22.0735 C   0  0  0  0  0  0
  -22.4265   -8.0247   21.3524 C   0  0  0  0  0  0
  -21.9888   -9.0221   20.4636 C   0  0  0  0  0  0
  -22.7196  -10.2114   20.3058 C   0  0  0  0  0  0
  -21.6844   -6.0711   22.5270 C   0  0  0  0  0  0
  -21.4007   -6.5624   23.8200 C   0  0  0  0  0  0
  -21.3663   -5.6783   24.9170 C   0  0  0  0  0  0
  -21.6051   -4.3046   24.7228 C   0  0  0  0  0  0
  -21.8825   -3.8133   23.4350 C   0  0  0  0  0  0
  -21.9196   -4.6942   22.3404 C   0  0  0  0  0  0
  -22.7823  -13.5212   21.1880 C   0  0  0  0  0  0
  -22.1654   -4.2126   21.0978 F   0  0  0  0  0  0
  -21.5646   -3.4534   25.7744 F   0  0  0  0  0  0
  -29.9813  -13.5521   20.3548 N   0  0  0  0  0  0
  -26.2898  -12.9273   20.3290 N   0  0  0  0  0  0
  -25.9279  -11.6448   20.5825 N   0  0  0  0  0  0
  -22.0476  -12.8208   22.0441 N   0  0  0  0  0  0
  -25.4296  -15.1835   20.4076 N   0  0  0  0  0  0
  -31.8793  -14.7686   20.2513 O   0  0  0  0  0  0
  -21.6628   -6.8843   21.4221 O   0  0  0  0  0  0
  -22.3513  -14.5515   20.6716 O   0  0  0  0  0  0
  -24.6293  -31.8577   23.2016 C   0  0  0  0  0  0
  -25.9126  -32.4770   23.8348 C   0  0  1  0  0  0
  -27.2185  -27.2793   20.1271 C   0  0  0  0  0  0
  -25.5931  -33.8567   24.2273 N   0  0  0  0  0  0
  -23.4251  -30.4823   21.5452 C   0  0  2  0  0  0
  -24.8717  -28.9376   20.1087 C   0  0  0  0  0  0
  -22.7497  -29.4614   22.4924 C   0  0  0  0  0  0
  -18.0292  -28.1391   22.8482 C   0  0  0  0  0  0
  -24.1486  -36.7290   23.2641 C   0  0  0  0  0  0
  -25.9707  -30.7755   21.3810 C   0  0  0  0  0  0
  -26.0436  -29.4019   20.7198 C   0  0  0  0  0  0
  -27.2193  -28.5856   20.7190 C   0  0  0  0  0  0
  -26.0212  -26.8865   19.4792 C   0  0  0  0  0  0
  -24.8655  -27.6880   19.4771 C   0  0  0  0  0  0
  -23.6414  -29.8213   20.1590 C   0  0  0  0  0  0
  -25.4114  -36.3080   24.0328 C   0  0  1  0  0  0
  -20.5896  -28.3697   23.1274 C   0  0  2  0  0  0
  -20.6781  -26.9412   22.5420 C   0  0  0  0  0  0
  -19.5763  -26.6382   21.5218 C   0  0  0  0  0  0
  -18.1936  -26.7936   22.1614 C   0  0  0  0  0  0
  -19.1546  -28.8862   23.2876 C   0  0  0  0  0  0
  -18.9465  -30.1462   23.8892 C   0  0  0  0  0  0
  -17.6467  -30.6587   24.0567 C   0  0  0  0  0  0
  -25.9056  -34.9450   23.5103 C   0  0  0  0  0  0
  -16.5353  -29.9084   23.6336 C   0  0  0  0  0  0
  -16.7281  -28.6503   23.0349 C   0  0  0  0  0  0
  -26.4504  -31.6591   25.0732 C   0  0  0  0  0  0
  -25.3749  -31.3750   26.1479 C   0  0  0  0  0  0
  -27.0330  -30.2999   24.6210 C   0  0  0  0  0  0
  -27.6068  -32.4339   25.7477 C   0  0  0  0  0  0
  -27.5593  -37.1783   24.8452 C   0  0  0  0  0  0
  -21.4207  -29.3038   22.3660 N   0  0  0  0  0  0
  -26.4288  -37.3783   23.9421 N   0  0  0  0  0  0
  -24.6939  -31.0551   22.0986 N   0  0  0  0  0  0
  -23.4204  -28.8154   23.3018 O   0  0  0  0  0  0
  -28.3070  -26.3791   20.2074 O   0  0  0  0  0  0
  -26.5622  -34.8920   22.4670 O   0  0  0  0  0  0
  -23.5445  -32.1399   23.7318 O   0  0  0  0  0  0
  -28.7268  -22.3626   20.2991 C   0  0  0  0  0  0
  -29.7349  -21.3765   20.5660 C   0  0  0  0  0  0
  -29.0235  -23.7673   20.4176 C   0  0  0  0  0  0
  -31.1470  -23.1535   21.0440 C   0  0  0  0  0  0
  -32.5369  -23.5996   21.4415 C   0  0  0  0  0  0
  -27.5448  -19.2976   22.4985 C   0  0  0  0  0  0
  -30.5998  -19.1355   22.5374 C   0  0  0  0  0  0
  -29.1615  -16.2333   19.1956 C   0  0  0  0  0  0
  -29.6201  -19.8163   20.2401 C   0  0  0  0  0  0
  -27.9962  -24.9189   20.0581 C   0  0  0  0  0  0
  -28.3853  -18.1876   21.8393 C   0  0  0  0  0  0
  -30.6104  -17.2797   20.8348 C   0  0  0  0  0  0
  -29.7897  -18.6110   21.3267 C   0  0  2  0  0  0
  -30.9524  -21.8376   20.9217 N   0  0  0  0  0  0
  -30.2624  -24.1230   20.8095 N   0  0  0  0  0  0
  -29.9556  -15.9661   20.4077 N   0  0  0  0  0  0
  -31.4660  -12.5821   19.1481 H   0  0  0  0  0  0
  -30.3921  -11.5019   19.9972 H   0  0  0  0  0  0
  -29.7870  -11.6231   17.5734 H   0  0  0  0  0  0
  -29.6390  -13.3557   17.6522 H   0  0  0  0  0  0
  -27.8924  -11.2436   18.9521 H   0  0  0  0  0  0
  -27.3726  -12.4459   17.8053 H   0  0  0  0  0  0
  -27.5832  -14.2027   19.4050 H   0  0  0  0  0  0
  -28.7333  -12.2593   21.4700 H   0  0  0  0  0  0
  -28.4236  -13.9655   21.7181 H   0  0  0  0  0  0
  -25.2731   -9.5666   22.4778 H   0  0  0  0  0  0
  -23.9995   -7.4591   22.7441 H   0  0  0  0  0  0
  -21.0820   -8.8725   19.8949 H   0  0  0  0  0  0
  -22.3617  -10.9664   19.6193 H   0  0  0  0  0  0
  -21.1970   -7.6127   23.9702 H   0  0  0  0  0  0
  -21.1493   -6.0509   25.9073 H   0  0  0  0  0  0
  -22.0609   -2.7596   23.2861 H   0  0  0  0  0  0
  -22.4079  -11.9871   22.4836 H   0  0  0  0  0  0
  -21.1101  -13.1257   22.2667 H   0  0  0  0  0  0
  -24.6787  -15.8556   20.5188 H   0  0  0  0  0  0
  -26.3026  -15.6078   20.1238 H   0  0  0  0  0  0
  -26.7188  -32.5424   23.1087 H   0  0  0  0  0  0
  -25.0070  -33.9706   25.0413 H   0  0  0  0  0  0
  -22.7206  -31.3045   21.4026 H   0  0  0  0  0  0
  -23.3768  -35.9602   23.3266 H   0  0  0  0  0  0
  -24.3592  -36.8952   22.2064 H   0  0  0  0  0  0
  -23.7206  -37.6466   23.6688 H   0  0  0  0  0  0
  -26.1104  -31.5380   20.6133 H   0  0  0  0  0  0
  -26.8477  -30.8203   22.0140 H   0  0  0  0  0  0
  -28.1125  -28.9342   21.2184 H   0  0  0  0  0  0
  -25.9335  -25.9352   18.9777 H   0  0  0  0  0  0
  -23.9696  -27.3288   18.9888 H   0  0  0  0  0  0
  -23.7632  -30.6013   19.4064 H   0  0  0  0  0  0
  -22.7605  -29.2541   19.8538 H   0  0  0  0  0  0
  -25.1296  -36.1929   25.0819 H   0  0  0  0  0  0
  -20.9989  -28.3280   24.1393 H   0  0  0  0  0  0
  -20.5675  -26.2309   23.3630 H   0  0  0  0  0  0
  -21.6648  -26.7437   22.1211 H   0  0  0  0  0  0
  -19.6920  -25.6292   21.1248 H   0  0  0  0  0  0
  -19.6711  -27.3195   20.6751 H   0  0  0  0  0  0
  -17.4220  -26.6715   21.3995 H   0  0  0  0  0  0
  -18.0308  -26.0070   22.8991 H   0  0  0  0  0  0
  -19.7945  -30.7284   24.2252 H   0  0  0  0  0  0
  -17.5017  -31.6267   24.5172 H   0  0  0  0  0  0
  -15.5355  -30.2978   23.7666 H   0  0  0  0  0  0
  -15.8681  -28.0822   22.7057 H   0  0  0  0  0  0
  -24.5854  -30.7182   25.7813 H   0  0  0  0  0  0
  -24.9033  -32.2931   26.4989 H   0  0  0  0  0  0
  -25.8070  -30.8845   27.0209 H   0  0  0  0  0  0
  -26.2891  -29.6755   24.1244 H   0  0  0  0  0  0
  -27.4013  -29.7258   25.4722 H   0  0  0  0  0  0
  -27.8781  -30.4266   23.9440 H   0  0  0  0  0  0
  -27.2653  -33.3585   26.2147 H   0  0  0  0  0  0
  -28.3801  -32.7010   25.0260 H   0  0  0  0  0  0
  -28.0841  -31.8438   26.5311 H   0  0  0  0  0  0
  -28.2592  -38.0105   24.7543 H   0  0  0  0  0  0
  -28.1107  -36.2639   24.6207 H   0  0  0  0  0  0
  -27.2330  -37.1352   25.8860 H   0  0  0  0  0  0
  -20.9395  -29.8760   21.6864 H   0  0  0  0  0  0
  -26.0171  -38.2848   24.1474 H   0  0  0  0  0  0
  -27.7470  -22.0509   19.9617 H   0  0  0  0  0  0
  -33.1703  -22.7513   21.7045 H   0  0  0  0  0  0
  -32.4950  -24.2704   22.2996 H   0  0  0  0  0  0
  -33.0063  -24.1302   20.6135 H   0  0  0  0  0  0
  -26.5462  -18.9243   22.7286 H   0  0  0  0  0  0
  -27.4196  -20.1654   21.8509 H   0  0  0  0  0  0
  -27.9796  -19.6407   23.4365 H   0  0  0  0  0  0
  -30.1866  -20.0504   22.9620 H   0  0  0  0  0  0
  -31.6309  -19.3538   22.2558 H   0  0  0  0  0  0
  -30.6341  -18.4024   23.3437 H   0  0  0  0  0  0
  -28.1059  -16.3345   19.4314 H   0  0  0  0  0  0
  -29.2577  -15.4532   18.4406 H   0  0  0  0  0  0
  -29.4669  -17.1547   18.6957 H   0  0  0  0  0  0
  -30.3820  -19.6547   19.4783 H   0  0  0  0  0  0
  -28.6846  -19.6688   19.6992 H   0  0  0  0  0  0
  -27.1003  -24.6986   20.6403 H   0  0  0  0  0  0
  -27.7411  -24.7431   19.0124 H   0  0  0  0  0  0
  -27.7988  -17.7992   21.0103 H   0  0  0  0  0  0
  -28.4834  -17.3629   22.5475 H   0  0  0  0  0  0
  -31.2589  -16.9759   21.6587 H   0  0  0  0  0  0
  -31.3245  -17.5716   20.0635 H   0  0  0  0  0  0
  1 25  1  0  0  0
  1 30  2  0  0  0
  1 86  1  0  0  0
  2  3  1  0  0  0
  2 25  1  0  0  0
  2 87  1  0  0  0
  2 88  1  0  0  0
  3  4  1  0  0  0
  3 89  1  0  0  0
  3 90  1  0  0  0
  4  5  1  0  0  0
  4 91  1  0  0  0
  4 92  1  0  0  0
  5  6  1  0  0  0
  5 26  1  0  0  0
  5 93  1  0  0  0
  6 25  1  0  0  0
  6 94  1  0  0  0
  6 95  1  0  0  0
  7  8  2  0  0  0
  7 26  1  0  0  0
  7 29  1  0  0  0
  8  9  1  0  0  0
  8 22  1  0  0  0
  9 10  1  0  0  0
  9 27  2  0  0  0
 10 11  2  0  0  0
 10 15  1  0  0  0
 11 12  1  0  0  0
 11 96  1  0  0  0
 12 13  2  0  0  0
 12 97  1  0  0  0
 13 14  1  0  0  0
 13 31  1  0  0  0
 14 15  2  0  0  0
 14 98  1  0  0  0
 15 99  1  0  0  0
 16 17  2  0  0  0
 16 21  1  0  0  0
 16 31  1  0  0  0
 17 18  1  0  0  0
 17100  1  0  0  0
 18 19  2  0  0  0
 18101  1  0  0  0
 19 20  1  0  0  0
 19 24  1  0  0  0
 20 21  2  0  0  0
 20102  1  0  0  0
 21 23  1  0  0  0
 22 28  1  0  0  0
 22 32  2  0  0  0
 26 27  1  0  0  0
 28103  1  0  0  0
 28104  1  0  0  0
 29105  1  0  0  0
 29106  1  0  0  0
 33 34  1  0  0  0
 33 66  1  0  0  0
 33 70  2  0  0  0
 34 36  1  0  0  0
 34 59  1  0  0  0
 34107  1  0  0  0
 35 44  2  0  0  0
 35 45  1  0  0  0
 35 68  1  0  0  0
 36 56  1  0  0  0
 36108  1  0  0  0
 37 39  1  0  0  0
 37 47  1  0  0  0
 37 66  1  0  0  0
 37109  1  0  0  0
 38 43  2  0  0  0
 38 46  1  0  0  0
 38 47  1  0  0  0
 39 64  1  0  0  0
 39 67  2  0  0  0
 40 52  1  0  0  0
 40 53  2  0  0  0
 40 58  1  0  0  0
 41110  1  0  0  0
 41111  1  0  0  0
 41112  1  0  0  0
 41 48  1  0  0  0
 42 43  1  0  0  0
 42 66  1  0  0  0
 42113  1  0  0  0
 42114  1  0  0  0
 43 44  1  0  0  0
 44115  1  0  0  0
 45 46  2  0  0  0
 45116  1  0  0  0
 46117  1  0  0  0
 47118  1  0  0  0
 47119  1  0  0  0
 48 56  1  0  0  0
 48 65  1  0  0  0
 48120  1  0  0  0
 49 50  1  0  0  0
 49 53  1  0  0  0
 49 64  1  0  0  0
 49121  1  0  0  0
 50 51  1  0  0  0
 50122  1  0  0  0
 50123  1  0  0  0
 51 52  1  0  0  0
 51124  1  0  0  0
 51125  1  0  0  0
 52126  1  0  0  0
 52127  1  0  0  0
 53 54  1  0  0  0
 54 55  2  0  0  0
 54128  1  0  0  0
 55 57  1  0  0  0
 55129  1  0  0  0
 56 69  2  0  0  0
 57 58  2  0  0  0
 57130  1  0  0  0
 58131  1  0  0  0
 59 60  1  0  0  0
 59 61  1  0  0  0
 59 62  1  0  0  0
 60132  1  0  0  0
 60133  1  0  0  0
 60134  1  0  0  0
 61135  1  0  0  0
 61136  1  0  0  0
 61137  1  0  0  0
 62138  1  0  0  0
 62139  1  0  0  0
 62140  1  0  0  0
 63 65  1  0  0  0
 63141  1  0  0  0
 63142  1  0  0  0
 63143  1  0  0  0
 64144  1  0  0  0
 65145  1  0  0  0
 68 80  1  0  0  0
 71 72  2  0  0  0
 71 73  1  0  0  0
 71146  1  0  0  0
 72 79  1  0  0  0
 72 84  1  0  0  0
 73 80  1  0  0  0
 73 85  2  0  0  0
 74 75  1  0  0  0
 74 84  2  0  0  0
 74 85  1  0  0  0
 75147  1  0  0  0
 75148  1  0  0  0
 75149  1  0  0  0
 76 81  1  0  0  0
 76150  1  0  0  0
 76151  1  0  0  0
 76152  1  0  0  0
 77153  1  0  0  0
 77154  1  0  0  0
 77155  1  0  0  0
 77 83  1  0  0  0
 78 86  1  0  0  0
 78156  1  0  0  0
 78157  1  0  0  0
 78158  1  0  0  0
 79 83  1  0  0  0
 79159  1  0  0  0
 79160  1  0  0  0
 80161  1  0  0  0
 80162  1  0  0  0
 81 83  1  0  0  0
 81163  1  0  0  0
 81164  1  0  0  0
 82 83  1  0  0  0
 82 86  1  0  0  0
 82165  1  0  0  0
 82166  1  0  0  0
M  ISO  4   1 100  68 101  80 101  86 100
M  END
> <chiral flag>
0

> <version>
0

> <s_m_source_file>
/data/baiqing/PycharmProjects/Reinvent-master-3.2/result/LINK_invent/BTK/process_docking_weight1_custom_sum_contain_oxygen_bond_distance_aromatic_linkinvent_7_9_3/rearranged_h_0051.sdf

> <i_m_source_file_index>
88

> <r_mmod_Potential_Energy-OPLS-2005>
5.71030616760254

> <r_mmod_Stretch_Energy-OPLS-2005>
122.297897338867

> <r_mmod_Bend_Energy-OPLS-2005>
190.262710571289

> <r_mmod_Torsional_Energy-OPLS-2005>
304.678771972656

> <r_mmod_Improper_Torsional_Energy-OPLS-2005>
10.8451318740845

> <r_mmod_Van_der_Waal_Energy-OPLS-2005>
159.742370605469

> <r_mmod_Electrostatic_Energy-OPLS-2005>
-652.776123046875

> <r_mmod_Solvation_Energy-OPLS-2005>
-223.861846923828

> <b_mmod_Minimization_Converged-OPLS-2005>
0

> <r_mmod_RMS_Derivative-OPLS-2005>
2.03674960136414

$$$$
91
                    3D
 Structure written by MMmdl.
173181  0  0  1  0            999 V2000
  -30.7891  -14.4060   20.6569 C   0  0  0  0  0  0
  -30.4131  -12.2851   19.4403 C   0  0  0  0  0  0
  -29.4969  -12.4993   18.2186 C   0  0  0  0  0  0
  -28.0204  -12.3562   18.6304 C   0  0  0  0  0  0
  -27.6680  -13.2060   19.8787 C   0  0  2  0  0  0
  -28.7042  -13.0033   21.0084 C   0  0  0  0  0  0
  -25.2622  -13.8142   20.5714 C   0  0  0  0  0  0
  -24.1876  -13.0428   20.9190 C   0  0  0  0  0  0
  -24.6425  -11.6887   20.8759 C   0  0  0  0  0  0
  -23.9087  -10.4292   21.0414 C   0  0  0  0  0  0
  -24.3641   -9.4204   21.9190 C   0  0  0  0  0  0
  -23.6304   -8.2253   22.0761 C   0  0  0  0  0  0
  -22.4281   -8.0300   21.3552 C   0  0  0  0  0  0
  -21.9916   -9.0264   20.4644 C   0  0  0  0  0  0
  -22.7258  -10.2138   20.3057 C   0  0  0  0  0  0
  -21.6859   -6.0766   22.5286 C   0  0  0  0  0  0
  -21.4031   -6.5655   23.8223 C   0  0  0  0  0  0
  -21.3657   -5.6802   24.9176 C   0  0  0  0  0  0
  -21.6040   -4.3063   24.7226 C   0  0  0  0  0  0
  -21.8819   -3.8171   23.4341 C   0  0  0  0  0  0
  -21.9193   -4.6992   22.3400 C   0  0  0  0  0  0
  -22.7908  -13.5236   21.1826 C   0  0  0  0  0  0
  -22.1680   -4.2189   21.0985 F   0  0  0  0  0  0
  -21.5586   -3.4534   25.7728 F   0  0  0  0  0  0
  -30.0522  -13.2726   20.4738 N   0  0  0  0  0  0
  -26.3075  -12.9330   20.3400 N   0  0  0  0  0  0
  -25.9362  -11.6488   20.5804 N   0  0  0  0  0  0
  -22.0547  -12.8244   22.0387 N   0  0  0  0  0  0
  -25.4290  -15.1855   20.4113 N   0  0  0  0  0  0
  -31.7943  -14.6524   19.9837 O   0  0  0  0  0  0
  -21.6638   -6.8910   21.4254 O   0  0  0  0  0  0
  -22.3619  -14.5562   20.6682 O   0  0  0  0  0  0
  -24.6122  -31.8693   23.2113 C   0  0  0  0  0  0
  -25.9018  -32.4830   23.8400 C   0  0  1  0  0  0
  -27.2477  -27.4570   20.0815 C   0  0  0  0  0  0
  -25.5881  -33.8634   24.2328 N   0  0  0  0  0  0
  -23.4007  -30.4917   21.5499 C   0  0  2  0  0  0
  -24.8495  -28.9567   20.1147 C   0  0  0  0  0  0
  -22.7398  -29.4662   22.4987 C   0  0  0  0  0  0
  -18.0269  -28.1389   22.8490 C   0  0  0  0  0  0
  -24.1485  -36.7319   23.2637 C   0  0  0  0  0  0
  -25.9270  -30.8357   21.3659 C   0  0  0  0  0  0
  -26.0044  -29.4693   20.7174 C   0  0  0  0  0  0
  -27.2000  -28.7196   20.7120 C   0  0  0  0  0  0
  -26.0737  -26.9487   19.4803 C   0  0  0  0  0  0
  -24.8766  -27.6923   19.4992 C   0  0  0  0  0  0
  -23.6096  -29.8216   20.1646 C   0  0  0  0  0  0
  -25.4108  -36.3123   24.0335 C   0  0  1  0  0  0
  -20.5858  -28.3668   23.1319 C   0  0  2  0  0  0
  -20.6757  -26.9405   22.5418 C   0  0  0  0  0  0
  -19.5743  -26.6394   21.5211 C   0  0  0  0  0  0
  -18.1922  -26.7934   22.1621 C   0  0  0  0  0  0
  -19.1519  -28.8844   23.2904 C   0  0  0  0  0  0
  -18.9451  -30.1449   23.8918 C   0  0  0  0  0  0
  -17.6453  -30.6591   24.0571 C   0  0  0  0  0  0
  -25.9032  -34.9483   23.5128 C   0  0  0  0  0  0
  -16.5344  -29.9100   23.6328 C   0  0  0  0  0  0
  -16.7258  -28.6518   23.0344 C   0  0  0  0  0  0
  -26.4457  -31.6616   25.0729 C   0  0  0  0  0  0
  -25.3719  -31.3720   26.1472 C   0  0  0  0  0  0
  -27.0290  -30.3061   24.6102 C   0  0  0  0  0  0
  -27.6039  -32.4337   25.7482 C   0  0  0  0  0  0
  -27.5584  -37.1812   24.8462 C   0  0  0  0  0  0
  -21.4132  -29.3035   22.3721 N   0  0  0  0  0  0
  -26.4298  -37.3802   23.9407 N   0  0  0  0  0  0
  -24.6639  -31.0803   22.1001 N   0  0  0  0  0  0
  -23.4172  -28.8213   23.3030 O   0  0  0  0  0  0
  -28.4334  -26.7551   20.0935 O   0  0  0  0  0  0
  -26.5603  -34.8931   22.4699 O   0  0  0  0  0  0
  -23.5317  -32.1438   23.7509 O   0  0  0  0  0  0
  -30.0316  -22.0424   16.3873 C   0  0  0  0  0  0
  -30.4255  -23.1160   17.1924 C   0  0  0  0  0  0
  -29.5288  -20.8839   16.9997 C   0  0  0  0  0  0
  -30.2651  -23.0359   18.5885 C   0  0  0  0  0  0
  -29.4785  -20.8302   18.4154 C   0  0  0  0  0  0
  -29.0414  -19.7521   16.1030 C   0  0  0  0  0  0
  -31.1376  -26.7553   19.5294 C   0  0  0  0  0  0
  -30.4778  -15.0089   22.9635 C   0  0  0  0  0  0
  -31.3665  -18.6428   18.7680 C   0  0  0  0  0  0
  -30.6153  -24.2301   19.4912 C   0  0  0  0  0  0
  -29.0554  -19.5476   19.1545 C   0  0  0  0  0  0
  -30.5478  -16.7730   21.2755 C   0  0  0  0  0  0
  -29.7431  -17.3379   20.0713 C   0  0  0  0  0  0
  -28.7633  -25.9936   18.9317 C   0  0  0  0  0  0
  -30.2706  -25.6403   18.9140 C   0  0  1  0  0  0
  -29.8326  -21.8949   19.1866 N   0  0  0  0  0  0
  -30.3235  -15.3276   21.5375 N   0  0  0  0  0  0
  -30.1814  -18.7083   19.6668 N   0  3  1  0  0  0
  -31.4638  -12.3454   19.1492 H   0  0  0  0  0  0
  -30.2813  -11.2757   19.8375 H   0  0  0  0  0  0
  -29.7396  -11.7808   17.4352 H   0  0  0  0  0  0
  -29.6682  -13.4891   17.7920 H   0  0  0  0  0  0
  -27.8315  -11.3036   18.8432 H   0  0  0  0  0  0
  -27.3654  -12.6133   17.7976 H   0  0  0  0  0  0
  -27.7143  -14.2526   19.5735 H   0  0  0  0  0  0
  -28.6671  -11.9803   21.3867 H   0  0  0  0  0  0
  -28.4412  -13.6336   21.8553 H   0  0  0  0  0  0
  -25.2797   -9.5655   22.4756 H   0  0  0  0  0  0
  -24.0006   -7.4642   22.7483 H   0  0  0  0  0  0
  -21.0838   -8.8778   19.8955 H   0  0  0  0  0  0
  -22.3722  -10.9674   19.6149 H   0  0  0  0  0  0
  -21.2073   -7.6170   23.9729 H   0  0  0  0  0  0
  -21.1457   -6.0540   25.9071 H   0  0  0  0  0  0
  -22.0602   -2.7645   23.2823 H   0  0  0  0  0  0
  -22.4158  -11.9911   22.4806 H   0  0  0  0  0  0
  -21.1139  -13.1232   22.2542 H   0  0  0  0  0  0
  -24.6603  -15.8318   20.5490 H   0  0  0  0  0  0
  -26.2734  -15.6313   20.0802 H   0  0  0  0  0  0
  -26.7093  -32.5550   23.1172 H   0  0  0  0  0  0
  -25.0018  -33.9802   25.0460 H   0  0  0  0  0  0
  -22.6887  -31.3073   21.4097 H   0  0  0  0  0  0
  -23.3745  -35.9656   23.3326 H   0  0  0  0  0  0
  -24.3571  -36.8909   22.2047 H   0  0  0  0  0  0
  -23.7243  -37.6533   23.6635 H   0  0  0  0  0  0
  -26.0385  -31.5999   20.5954 H   0  0  0  0  0  0
  -26.8152  -30.8910   21.9833 H   0  0  0  0  0  0
  -28.0932  -29.1116   21.1782 H   0  0  0  0  0  0
  -26.0684  -25.9785   19.0053 H   0  0  0  0  0  0
  -23.9863  -27.2901   19.0358 H   0  0  0  0  0  0
  -23.7159  -30.5958   19.4038 H   0  0  0  0  0  0
  -22.7352  -29.2392   19.8694 H   0  0  0  0  0  0
  -25.1288  -36.1991   25.0829 H   0  0  0  0  0  0
  -20.9950  -28.3238   24.1440 H   0  0  0  0  0  0
  -20.5663  -26.2278   23.3608 H   0  0  0  0  0  0
  -21.6628  -26.7453   22.1209 H   0  0  0  0  0  0
  -19.6904  -25.6312   21.1234 H   0  0  0  0  0  0
  -19.6689  -27.3213   20.6754 H   0  0  0  0  0  0
  -17.4189  -26.6683   21.4025 H   0  0  0  0  0  0
  -18.0323  -26.0074   22.9019 H   0  0  0  0  0  0
  -19.7927  -30.7257   24.2299 H   0  0  0  0  0  0
  -17.5013  -31.6272   24.5175 H   0  0  0  0  0  0
  -15.5349  -30.3012   23.7640 H   0  0  0  0  0  0
  -15.8657  -28.0849   22.7045 H   0  0  0  0  0  0
  -24.5881  -30.7088   25.7795 H   0  0  0  0  0  0
  -24.8923  -32.2880   26.4935 H   0  0  0  0  0  0
  -25.8059  -30.8866   27.0222 H   0  0  0  0  0  0
  -26.2836  -29.6832   24.1142 H   0  0  0  0  0  0
  -27.4049  -29.7289   25.4560 H   0  0  0  0  0  0
  -27.8675  -30.4390   23.9259 H   0  0  0  0  0  0
  -27.2658  -33.3619   26.2100 H   0  0  0  0  0  0
  -28.3818  -32.6928   25.0288 H   0  0  0  0  0  0
  -28.0741  -31.8440   26.5361 H   0  0  0  0  0  0
  -28.2602  -38.0107   24.7521 H   0  0  0  0  0  0
  -28.1078  -36.2643   24.6278 H   0  0  0  0  0  0
  -27.2301  -37.1451   25.8862 H   0  0  0  0  0  0
  -20.9294  -29.8746   21.6936 H   0  0  0  0  0  0
  -26.0192  -38.2882   24.1412 H   0  0  0  0  0  0
  -30.1145  -22.1187   15.3120 H   0  0  0  0  0  0
  -30.8333  -23.9878   16.7055 H   0  0  0  0  0  0
  -29.3692  -19.8973   15.0733 H   0  0  0  0  0  0
  -27.9513  -19.7248   16.0907 H   0  0  0  0  0  0
  -29.4047  -18.7773   16.4199 H   0  0  0  0  0  0
  -32.1982  -26.5778   19.3463 H   0  0  0  0  0  0
  -30.9948  -26.8319   20.6077 H   0  0  0  0  0  0
  -30.8921  -27.7243   19.0913 H   0  0  0  0  0  0
  -30.4577  -13.9372   23.1710 H   0  0  0  0  0  0
  -29.6862  -15.4686   23.5552 H   0  0  0  0  0  0
  -31.4351  -15.3842   23.3327 H   0  0  0  0  0  0
  -31.8330  -19.6178   18.6228 H   0  0  0  0  0  0
  -31.1048  -18.2444   17.7895 H   0  0  0  0  0  0
  -32.1398  -17.9900   19.1722 H   0  0  0  0  0  0
  -31.6916  -24.1751   19.6617 H   0  0  0  0  0  0
  -30.1548  -24.1101   20.4726 H   0  0  0  0  0  0
  -28.4277  -18.9455   18.4998 H   0  0  0  0  0  0
  -28.4086  -19.8182   19.9900 H   0  0  0  0  0  0
  -31.6169  -16.9395   21.1333 H   0  0  0  0  0  0
  -30.2879  -17.3549   22.1609 H   0  0  0  0  0  0
  -28.6883  -17.3492   20.3512 H   0  0  0  0  0  0
  -29.8094  -16.6791   19.2034 H   0  0  0  0  0  0
  -28.1566  -25.0904   18.8640 H   0  0  0  0  0  0
  -28.5379  -26.5961   18.0494 H   0  0  0  0  0  0
  -30.5641  -25.6579   17.8689 H   0  0  0  0  0  0
  -30.4802  -19.1991   20.4955 H   0  0  0  0  0  0
  1 25  1  0  0  0
  1 30  2  0  0  0
  1 87  1  0  0  0
  2  3  1  0  0  0
  2 25  1  0  0  0
  2 89  1  0  0  0
  2 90  1  0  0  0
  3  4  1  0  0  0
  3 91  1  0  0  0
  3 92  1  0  0  0
  4  5  1  0  0  0
  4 93  1  0  0  0
  4 94  1  0  0  0
  5  6  1  0  0  0
  5 26  1  0  0  0
  5 95  1  0  0  0
  6 25  1  0  0  0
  6 96  1  0  0  0
  6 97  1  0  0  0
  7  8  2  0  0  0
  7 26  1  0  0  0
  7 29  1  0  0  0
  8  9  1  0  0  0
  8 22  1  0  0  0
  9 10  1  0  0  0
  9 27  2  0  0  0
 10 11  2  0  0  0
 10 15  1  0  0  0
 11 12  1  0  0  0
 11 98  1  0  0  0
 12 13  2  0  0  0
 12 99  1  0  0  0
 13 14  1  0  0  0
 13 31  1  0  0  0
 14 15  2  0  0  0
 14100  1  0  0  0
 15101  1  0  0  0
 16 17  2  0  0  0
 16 21  1  0  0  0
 16 31  1  0  0  0
 17 18  1  0  0  0
 17102  1  0  0  0
 18 19  2  0  0  0
 18103  1  0  0  0
 19 20  1  0  0  0
 19 24  1  0  0  0
 20 21  2  0  0  0
 20104  1  0  0  0
 21 23  1  0  0  0
 22 28  1  0  0  0
 22 32  2  0  0  0
 26 27  1  0  0  0
 28105  1  0  0  0
 28106  1  0  0  0
 29107  1  0  0  0
 29108  1  0  0  0
 33 34  1  0  0  0
 33 66  1  0  0  0
 33 70  2  0  0  0
 34 36  1  0  0  0
 34 59  1  0  0  0
 34109  1  0  0  0
 35 44  2  0  0  0
 35 45  1  0  0  0
 35 68  1  0  0  0
 36 56  1  0  0  0
 36110  1  0  0  0
 37 39  1  0  0  0
 37 47  1  0  0  0
 37 66  1  0  0  0
 37111  1  0  0  0
 38 43  2  0  0  0
 38 46  1  0  0  0
 38 47  1  0  0  0
 39 64  1  0  0  0
 39 67  2  0  0  0
 40 52  1  0  0  0
 40 53  2  0  0  0
 40 58  1  0  0  0
 41112  1  0  0  0
 41113  1  0  0  0
 41114  1  0  0  0
 41 48  1  0  0  0
 42 43  1  0  0  0
 42 66  1  0  0  0
 42115  1  0  0  0
 42116  1  0  0  0
 43 44  1  0  0  0
 44117  1  0  0  0
 45 46  2  0  0  0
 45118  1  0  0  0
 46119  1  0  0  0
 47120  1  0  0  0
 47121  1  0  0  0
 48 56  1  0  0  0
 48 65  1  0  0  0
 48122  1  0  0  0
 49 50  1  0  0  0
 49 53  1  0  0  0
 49 64  1  0  0  0
 49123  1  0  0  0
 50 51  1  0  0  0
 50124  1  0  0  0
 50125  1  0  0  0
 51 52  1  0  0  0
 51126  1  0  0  0
 51127  1  0  0  0
 52128  1  0  0  0
 52129  1  0  0  0
 53 54  1  0  0  0
 54 55  2  0  0  0
 54130  1  0  0  0
 55 57  1  0  0  0
 55131  1  0  0  0
 56 69  2  0  0  0
 57 58  2  0  0  0
 57132  1  0  0  0
 58133  1  0  0  0
 59 60  1  0  0  0
 59 61  1  0  0  0
 59 62  1  0  0  0
 60134  1  0  0  0
 60135  1  0  0  0
 60136  1  0  0  0
 61137  1  0  0  0
 61138  1  0  0  0
 61139  1  0  0  0
 62140  1  0  0  0
 62141  1  0  0  0
 62142  1  0  0  0
 63 65  1  0  0  0
 63143  1  0  0  0
 63144  1  0  0  0
 63145  1  0  0  0
 64146  1  0  0  0
 65147  1  0  0  0
 68 84  1  0  0  0
 71 72  2  0  0  0
 71 73  1  0  0  0
 71148  1  0  0  0
 72 74  1  0  0  0
 72149  1  0  0  0
 73 75  2  0  0  0
 73 76  1  0  0  0
 74 80  1  0  0  0
 74 86  2  0  0  0
 75 81  1  0  0  0
 75 86  1  0  0  0
 76150  1  0  0  0
 76151  1  0  0  0
 76152  1  0  0  0
 77153  1  0  0  0
 77154  1  0  0  0
 77155  1  0  0  0
 77 85  1  0  0  0
 78 87  1  0  0  0
 78156  1  0  0  0
 78157  1  0  0  0
 78158  1  0  0  0
 79159  1  0  0  0
 79160  1  0  0  0
 79161  1  0  0  0
 79 88  1  0  0  0
 80 85  1  0  0  0
 80162  1  0  0  0
 80163  1  0  0  0
 81 88  1  0  0  0
 81164  1  0  0  0
 81165  1  0  0  0
 82 83  1  0  0  0
 82 87  1  0  0  0
 82166  1  0  0  0
 82167  1  0  0  0
 83 88  1  0  0  0
 83168  1  0  0  0
 83169  1  0  0  0
 84 85  1  0  0  0
 84170  1  0  0  0
 84171  1  0  0  0
 85172  1  0  0  0
 88173  1  0  0  0
M  CHG  1  88   1
M  ISO  4   1 100  68 101  84 101  87 100
M  END
> <chiral flag>
0

> <version>
0

> <s_m_source_file>
/data/baiqing/PycharmProjects/Reinvent-master-3.2/result/LINK_invent/BTK/process_docking_weight1_custom_sum_contain_oxygen_bond_distance_aromatic_linkinvent_7_9_3/rearranged_h_0051.sdf

> <i_m_source_file_index>
89

> <r_mmod_Potential_Energy-OPLS-2005>
-232.085632324219

> <r_mmod_Stretch_Energy-OPLS-2005>
43.5047645568848

> <r_mmod_Bend_Energy-OPLS-2005>
111.593475341797

> <r_mmod_Torsional_Energy-OPLS-2005>
278.684173583984

> <r_mmod_Improper_Torsional_Energy-OPLS-2005>
6.11948871612549

> <r_mmod_Van_der_Waal_Energy-OPLS-2005>
165.360595703125

> <r_mmod_Electrostatic_Energy-OPLS-2005>
-429.786895751953

> <r_mmod_Solvation_Energy-OPLS-2005>
-417.16259765625

> <b_mmod_Minimization_Converged-OPLS-2005>
0

> <r_mmod_RMS_Derivative-OPLS-2005>
3.06406760215759

$$$$
92
                    3D
 Structure written by MMmdl.
175183  0  0  1  0            999 V2000
  -30.7102  -14.3583   20.6521 C   0  0  0  0  0  0
  -30.4190  -12.2561   19.4056 C   0  0  0  0  0  0
  -29.4909  -12.5108   18.1992 C   0  0  0  0  0  0
  -28.0055  -12.3997   18.5985 C   0  0  0  0  0  0
  -27.6672  -13.1953   19.8887 C   0  0  2  0  0  0
  -28.6981  -12.8896   20.9986 C   0  0  0  0  0  0
  -25.2598  -13.8138   20.5667 C   0  0  0  0  0  0
  -24.1836  -13.0436   20.9152 C   0  0  0  0  0  0
  -24.6360  -11.6891   20.8676 C   0  0  0  0  0  0
  -23.9036  -10.4287   21.0362 C   0  0  0  0  0  0
  -24.3596   -9.4219   21.9149 C   0  0  0  0  0  0
  -23.6286   -8.2248   22.0738 C   0  0  0  0  0  0
  -22.4267   -8.0275   21.3538 C   0  0  0  0  0  0
  -21.9897   -9.0235   20.4640 C   0  0  0  0  0  0
  -22.7207  -10.2121   20.3025 C   0  0  0  0  0  0
  -21.6851   -6.0738   22.5276 C   0  0  0  0  0  0
  -21.4025   -6.5642   23.8214 C   0  0  0  0  0  0
  -21.3633   -5.6785   24.9167 C   0  0  0  0  0  0
  -21.6028   -4.3041   24.7217 C   0  0  0  0  0  0
  -21.8822   -3.8156   23.4331 C   0  0  0  0  0  0
  -21.9199   -4.6972   22.3400 C   0  0  0  0  0  0
  -22.7871  -13.5235   21.1834 C   0  0  0  0  0  0
  -22.1675   -4.2175   21.0976 F   0  0  0  0  0  0
  -21.5619   -3.4508   25.7719 F   0  0  0  0  0  0
  -30.0449  -13.1894   20.4751 N   0  0  0  0  0  0
  -26.3026  -12.9287   20.3374 N   0  0  0  0  0  0
  -25.9274  -11.6446   20.5697 N   0  0  0  0  0  0
  -22.0530  -12.8219   22.0400 N   0  0  0  0  0  0
  -25.4342  -15.1867   20.4123 N   0  0  0  0  0  0
  -31.7623  -14.6496   20.0751 O   0  0  0  0  0  0
  -21.6643   -6.8868   21.4232 O   0  0  0  0  0  0
  -22.3536  -14.5544   20.6708 O   0  0  0  0  0  0
  -24.6088  -31.8705   23.2122 C   0  0  0  0  0  0
  -25.9004  -32.4836   23.8404 C   0  0  1  0  0  0
  -27.2471  -27.4861   20.0990 C   0  0  0  0  0  0
  -25.5874  -33.8638   24.2342 N   0  0  0  0  0  0
  -23.3949  -30.4905   21.5519 C   0  0  2  0  0  0
  -24.8436  -28.9517   20.1255 C   0  0  0  0  0  0
  -22.7372  -29.4672   22.5030 C   0  0  0  0  0  0
  -18.0263  -28.1373   22.8497 C   0  0  0  0  0  0
  -24.1484  -36.7327   23.2639 C   0  0  0  0  0  0
  -25.9161  -30.8512   21.3560 C   0  0  0  0  0  0
  -25.9975  -29.4853   20.7132 C   0  0  0  0  0  0
  -27.2030  -28.7589   20.6963 C   0  0  0  0  0  0
  -26.0813  -26.9430   19.5189 C   0  0  0  0  0  0
  -24.8768  -27.6761   19.5295 C   0  0  0  0  0  0
  -23.6025  -29.8136   20.1693 C   0  0  0  0  0  0
  -25.4104  -36.3128   24.0344 C   0  0  1  0  0  0
  -20.5846  -28.3653   23.1339 C   0  0  2  0  0  0
  -20.6760  -26.9399   22.5426 C   0  0  0  0  0  0
  -19.5745  -26.6390   21.5216 C   0  0  0  0  0  0
  -18.1916  -26.7925   22.1621 C   0  0  0  0  0  0
  -19.1508  -28.8834   23.2913 C   0  0  0  0  0  0
  -18.9442  -30.1439   23.8921 C   0  0  0  0  0  0
  -17.6446  -30.6584   24.0569 C   0  0  0  0  0  0
  -25.9025  -34.9485   23.5141 C   0  0  0  0  0  0
  -16.5338  -29.9087   23.6321 C   0  0  0  0  0  0
  -16.7254  -28.6505   23.0344 C   0  0  0  0  0  0
  -26.4456  -31.6599   25.0709 C   0  0  0  0  0  0
  -25.3746  -31.3683   26.1472 C   0  0  0  0  0  0
  -27.0273  -30.3053   24.6037 C   0  0  0  0  0  0
  -27.6042  -32.4306   25.7464 C   0  0  0  0  0  0
  -27.5584  -37.1813   24.8463 C   0  0  0  0  0  0
  -21.4110  -29.3025   22.3758 N   0  0  0  0  0  0
  -26.4295  -37.3807   23.9410 N   0  0  0  0  0  0
  -24.6579  -31.0840   22.0999 N   0  0  0  0  0  0
  -23.4164  -28.8221   23.3069 O   0  0  0  0  0  0
  -28.4479  -26.8361   20.0326 O   0  0  0  0  0  0
  -26.5590  -34.8931   22.4705 O   0  0  0  0  0  0
  -23.5292  -32.1438   23.7546 O   0  0  0  0  0  0
  -28.8561  -23.4938   18.1937 C   0  0  0  0  0  0
  -28.4287  -22.2320   17.7523 C   0  0  0  0  0  0
  -30.0970  -23.6102   18.8602 C   0  0  0  0  0  0
  -29.2661  -21.1236   17.9631 C   0  0  0  0  0  0
  -30.8756  -22.4348   19.0116 C   0  0  0  0  0  0
  -32.2010  -21.8185   21.0933 C   0  0  0  0  0  0
  -30.7302  -25.9075   18.4023 C   0  0  0  0  0  0
  -26.9874  -19.4053   19.1530 C   0  0  0  0  0  0
  -32.2409  -22.4307   19.6852 C   0  0  0  0  0  0
  -28.8414  -19.7258   17.5315 C   0  0  0  0  0  0
  -29.1214  -17.1134   20.1428 C   0  0  0  0  0  0
  -30.1192  -16.6892   21.2380 C   0  0  0  0  0  0
  -30.0102  -25.1555   20.7197 C   0  0  0  0  0  0
  -29.2522  -18.5810   19.7156 C   0  0  0  0  0  0
  -28.5379  -25.6168   20.7490 C   0  0  0  0  0  0
  -30.4675  -21.2272   18.5690 N   0  0  0  0  0  0
  -30.0456  -15.2432   21.4034 N   0  0  0  0  0  0
  -30.5214  -24.8435   19.3808 N   0  0  0  0  0  0
  -28.2829  -18.9056   18.6372 N   0  3  1  0  0  0
  -31.4664  -12.3588   19.1161 H   0  0  0  0  0  0
  -30.3060  -11.2296   19.7559 H   0  0  0  0  0  0
  -29.7093  -11.7959   17.4039 H   0  0  0  0  0  0
  -29.6881  -13.4993   17.7832 H   0  0  0  0  0  0
  -27.7775  -11.3419   18.7388 H   0  0  0  0  0  0
  -27.3744  -12.7358   17.7750 H   0  0  0  0  0  0
  -27.7363  -14.2567   19.6487 H   0  0  0  0  0  0
  -28.6500  -11.8346   21.2718 H   0  0  0  0  0  0
  -28.4494  -13.4194   21.9188 H   0  0  0  0  0  0
  -25.2750   -9.5713   22.4693 H   0  0  0  0  0  0
  -24.0001   -7.4654   22.7445 H   0  0  0  0  0  0
  -21.0832   -8.8742   19.8949 H   0  0  0  0  0  0
  -22.3657  -10.9647   19.6123 H   0  0  0  0  0  0
  -21.2031   -7.6153   23.9711 H   0  0  0  0  0  0
  -21.1444   -6.0528   25.9058 H   0  0  0  0  0  0
  -22.0628   -2.7625   23.2836 H   0  0  0  0  0  0
  -22.4166  -11.9886   22.4778 H   0  0  0  0  0  0
  -21.1133  -13.1203   22.2618 H   0  0  0  0  0  0
  -24.6682  -15.8416   20.5278 H   0  0  0  0  0  0
  -26.2933  -15.6258   20.1139 H   0  0  0  0  0  0
  -26.7078  -32.5574   23.1178 H   0  0  0  0  0  0
  -25.0021  -33.9807   25.0484 H   0  0  0  0  0  0
  -22.6822  -31.3053   21.4098 H   0  0  0  0  0  0
  -23.3739  -35.9666   23.3312 H   0  0  0  0  0  0
  -24.3579  -36.8928   22.2051 H   0  0  0  0  0  0
  -23.7238  -37.6540   23.6640 H   0  0  0  0  0  0
  -26.0147  -31.6137   20.5820 H   0  0  0  0  0  0
  -26.8093  -30.9140   21.9662 H   0  0  0  0  0  0
  -28.1019  -29.1741   21.1313 H   0  0  0  0  0  0
  -26.1116  -25.9735   19.0419 H   0  0  0  0  0  0
  -23.9894  -27.2579   19.0753 H   0  0  0  0  0  0
  -23.7087  -30.5834   19.4042 H   0  0  0  0  0  0
  -22.7291  -29.2279   19.8773 H   0  0  0  0  0  0
  -25.1277  -36.2000   25.0838 H   0  0  0  0  0  0
  -20.9936  -28.3217   24.1462 H   0  0  0  0  0  0
  -20.5673  -26.2262   23.3604 H   0  0  0  0  0  0
  -21.6630  -26.7456   22.1213 H   0  0  0  0  0  0
  -19.6906  -25.6306   21.1230 H   0  0  0  0  0  0
  -19.6684  -27.3216   20.6759 H   0  0  0  0  0  0
  -17.4191  -26.6680   21.4015 H   0  0  0  0  0  0
  -18.0308  -26.0056   22.9006 H   0  0  0  0  0  0
  -19.7919  -30.7247   24.2303 H   0  0  0  0  0  0
  -17.5003  -31.6268   24.5160 H   0  0  0  0  0  0
  -15.5339  -30.2999   23.7637 H   0  0  0  0  0  0
  -15.8655  -28.0837   22.7042 H   0  0  0  0  0  0
  -24.5909  -30.7041   25.7812 H   0  0  0  0  0  0
  -24.8947  -32.2830   26.4964 H   0  0  0  0  0  0
  -25.8121  -30.8822   27.0202 H   0  0  0  0  0  0
  -26.2792  -29.6821   24.1121 H   0  0  0  0  0  0
  -27.4098  -29.7277   25.4461 H   0  0  0  0  0  0
  -27.8601  -30.4387   23.9128 H   0  0  0  0  0  0
  -27.2670  -33.3588   26.2091 H   0  0  0  0  0  0
  -28.3826  -32.6896   25.0274 H   0  0  0  0  0  0
  -28.0739  -31.8398   26.5338 H   0  0  0  0  0  0
  -28.2606  -38.0109   24.7516 H   0  0  0  0  0  0
  -28.1076  -36.2640   24.6276 H   0  0  0  0  0  0
  -27.2305  -37.1451   25.8869 H   0  0  0  0  0  0
  -20.9272  -29.8733   21.6965 H   0  0  0  0  0  0
  -26.0188  -38.2889   24.1410 H   0  0  0  0  0  0
  -28.2196  -24.3543   18.0443 H   0  0  0  0  0  0
  -27.4707  -22.1253   17.2625 H   0  0  0  0  0  0
  -33.1995  -21.7838   21.5290 H   0  0  0  0  0  0
  -31.8178  -20.7987   21.0661 H   0  0  0  0  0  0
  -31.5640  -22.3992   21.7612 H   0  0  0  0  0  0
  -29.8286  -26.1169   17.8255 H   0  0  0  0  0  0
  -31.5252  -25.6382   17.7048 H   0  0  0  0  0  0
  -31.0270  -26.8354   18.8935 H   0  0  0  0  0  0
  -26.2894  -19.5897   18.3364 H   0  0  0  0  0  0
  -27.1068  -20.3360   19.7079 H   0  0  0  0  0  0
  -26.5256  -18.6739   19.8161 H   0  0  0  0  0  0
  -32.6517  -23.4390   19.7299 H   0  0  0  0  0  0
  -32.9294  -21.8647   19.0566 H   0  0  0  0  0  0
  -29.6960  -19.2128   17.0878 H   0  0  0  0  0  0
  -28.1016  -19.8066   16.7335 H   0  0  0  0  0  0
  -28.1035  -16.9127   20.4823 H   0  0  0  0  0  0
  -29.2808  -16.4947   19.2569 H   0  0  0  0  0  0
  -29.8717  -17.1687   22.1852 H   0  0  0  0  0  0
  -31.1342  -17.0024   20.9871 H   0  0  0  0  0  0
  -30.1155  -24.2736   21.3532 H   0  0  0  0  0  0
  -30.6425  -25.9195   21.1748 H   0  0  0  0  0  0
  -30.2730  -18.7323   19.3642 H   0  0  0  0  0  0
  -29.1215  -19.2496   20.5690 H   0  0  0  0  0  0
  -28.2348  -25.7808   21.7847 H   0  0  0  0  0  0
  -27.8666  -24.8613   20.3432 H   0  0  0  0  0  0
  -29.2324  -14.8761   21.8778 H   0  0  0  0  0  0
  -28.0753  -18.0290   18.1857 H   0  0  0  0  0  0
  1 25  1  0  0  0
  1 30  2  0  0  0
  1 87  1  0  0  0
  2  3  1  0  0  0
  2 25  1  0  0  0
  2 90  1  0  0  0
  2 91  1  0  0  0
  3  4  1  0  0  0
  3 92  1  0  0  0
  3 93  1  0  0  0
  4  5  1  0  0  0
  4 94  1  0  0  0
  4 95  1  0  0  0
  5  6  1  0  0  0
  5 26  1  0  0  0
  5 96  1  0  0  0
  6 25  1  0  0  0
  6 97  1  0  0  0
  6 98  1  0  0  0
  7  8  2  0  0  0
  7 26  1  0  0  0
  7 29  1  0  0  0
  8  9  1  0  0  0
  8 22  1  0  0  0
  9 10  1  0  0  0
  9 27  2  0  0  0
 10 11  2  0  0  0
 10 15  1  0  0  0
 11 12  1  0  0  0
 11 99  1  0  0  0
 12 13  2  0  0  0
 12100  1  0  0  0
 13 14  1  0  0  0
 13 31  1  0  0  0
 14 15  2  0  0  0
 14101  1  0  0  0
 15102  1  0  0  0
 16 17  2  0  0  0
 16 21  1  0  0  0
 16 31  1  0  0  0
 17 18  1  0  0  0
 17103  1  0  0  0
 18 19  2  0  0  0
 18104  1  0  0  0
 19 20  1  0  0  0
 19 24  1  0  0  0
 20 21  2  0  0  0
 20105  1  0  0  0
 21 23  1  0  0  0
 22 28  1  0  0  0
 22 32  2  0  0  0
 26 27  1  0  0  0
 28106  1  0  0  0
 28107  1  0  0  0
 29108  1  0  0  0
 29109  1  0  0  0
 33 34  1  0  0  0
 33 66  1  0  0  0
 33 70  2  0  0  0
 34 36  1  0  0  0
 34 59  1  0  0  0
 34110  1  0  0  0
 35 44  2  0  0  0
 35 45  1  0  0  0
 35 68  1  0  0  0
 36 56  1  0  0  0
 36111  1  0  0  0
 37 39  1  0  0  0
 37 47  1  0  0  0
 37 66  1  0  0  0
 37112  1  0  0  0
 38 43  2  0  0  0
 38 46  1  0  0  0
 38 47  1  0  0  0
 39 64  1  0  0  0
 39 67  2  0  0  0
 40 52  1  0  0  0
 40 53  2  0  0  0
 40 58  1  0  0  0
 41113  1  0  0  0
 41114  1  0  0  0
 41115  1  0  0  0
 41 48  1  0  0  0
 42 43  1  0  0  0
 42 66  1  0  0  0
 42116  1  0  0  0
 42117  1  0  0  0
 43 44  1  0  0  0
 44118  1  0  0  0
 45 46  2  0  0  0
 45119  1  0  0  0
 46120  1  0  0  0
 47121  1  0  0  0
 47122  1  0  0  0
 48 56  1  0  0  0
 48 65  1  0  0  0
 48123  1  0  0  0
 49 50  1  0  0  0
 49 53  1  0  0  0
 49 64  1  0  0  0
 49124  1  0  0  0
 50 51  1  0  0  0
 50125  1  0  0  0
 50126  1  0  0  0
 51 52  1  0  0  0
 51127  1  0  0  0
 51128  1  0  0  0
 52129  1  0  0  0
 52130  1  0  0  0
 53 54  1  0  0  0
 54 55  2  0  0  0
 54131  1  0  0  0
 55 57  1  0  0  0
 55132  1  0  0  0
 56 69  2  0  0  0
 57 58  2  0  0  0
 57133  1  0  0  0
 58134  1  0  0  0
 59 60  1  0  0  0
 59 61  1  0  0  0
 59 62  1  0  0  0
 60135  1  0  0  0
 60136  1  0  0  0
 60137  1  0  0  0
 61138  1  0  0  0
 61139  1  0  0  0
 61140  1  0  0  0
 62141  1  0  0  0
 62142  1  0  0  0
 62143  1  0  0  0
 63 65  1  0  0  0
 63144  1  0  0  0
 63145  1  0  0  0
 63146  1  0  0  0
 64147  1  0  0  0
 65148  1  0  0  0
 68 85  1  0  0  0
 71 72  2  0  0  0
 71 73  1  0  0  0
 71149  1  0  0  0
 72 74  1  0  0  0
 72150  1  0  0  0
 73 75  2  0  0  0
 73 88  1  0  0  0
 74 80  1  0  0  0
 74 86  2  0  0  0
 75 79  1  0  0  0
 75 86  1  0  0  0
 76 79  1  0  0  0
 76151  1  0  0  0
 76152  1  0  0  0
 76153  1  0  0  0
 77 88  1  0  0  0
 77154  1  0  0  0
 77155  1  0  0  0
 77156  1  0  0  0
 78157  1  0  0  0
 78158  1  0  0  0
 78159  1  0  0  0
 78 89  1  0  0  0
 79160  1  0  0  0
 79161  1  0  0  0
 80 89  1  0  0  0
 80162  1  0  0  0
 80163  1  0  0  0
 81 82  1  0  0  0
 81 84  1  0  0  0
 81164  1  0  0  0
 81165  1  0  0  0
 82 87  1  0  0  0
 82166  1  0  0  0
 82167  1  0  0  0
 83 85  1  0  0  0
 83 88  1  0  0  0
 83168  1  0  0  0
 83169  1  0  0  0
 84 89  1  0  0  0
 84170  1  0  0  0
 84171  1  0  0  0
 85172  1  0  0  0
 85173  1  0  0  0
 87174  1  0  0  0
 89175  1  0  0  0
M  CHG  1  89   1
M  ISO  4   1 100  68 101  85 101  87 100
M  END
> <chiral flag>
0

> <version>
0

> <s_m_source_file>
/data/baiqing/PycharmProjects/Reinvent-master-3.2/result/LINK_invent/BTK/process_docking_weight1_custom_sum_contain_oxygen_bond_distance_aromatic_linkinvent_7_9_3/rearranged_h_0051.sdf

> <i_m_source_file_index>
90

> <r_mmod_Potential_Energy-OPLS-2005>
-291.014892578125

> <r_mmod_Stretch_Energy-OPLS-2005>
32.3910293579102

> <r_mmod_Bend_Energy-OPLS-2005>
97.0453262329102

> <r_mmod_Torsional_Energy-OPLS-2005>
250.425659179688

> <r_mmod_Improper_Torsional_Energy-OPLS-2005>
7.01646089553833

> <r_mmod_Van_der_Waal_Energy-OPLS-2005>
149.385055541992

> <r_mmod_Electrostatic_Energy-OPLS-2005>
-361.913238525391

> <r_mmod_Solvation_Energy-OPLS-2005>
-473.058044433594

> <b_mmod_Minimization_Converged-OPLS-2005>
0

> <r_mmod_RMS_Derivative-OPLS-2005>
2.58706760406494

$$$$
93
                    3D
 Structure written by MMmdl.
167174  0  0  1  0            999 V2000
  -30.3799  -15.2539   20.3545 C   0  0  0  0  0  0
  -30.4738  -12.8218   19.4786 C   0  0  0  0  0  0
  -29.5298  -12.6187   18.2635 C   0  0  0  0  0  0
  -28.0757  -12.3496   18.7023 C   0  0  0  0  0  0
  -27.6394  -13.2638   19.8730 C   0  0  2  0  0  0
  -28.7126  -13.2734   20.9797 C   0  0  0  0  0  0
  -25.2563  -13.8238   20.5924 C   0  0  0  0  0  0
  -24.1817  -13.0426   20.9302 C   0  0  0  0  0  0
  -24.6467  -11.6934   20.8811 C   0  0  0  0  0  0
  -23.9115  -10.4314   21.0393 C   0  0  0  0  0  0
  -24.3630   -9.4222   21.9138 C   0  0  0  0  0  0
  -23.6274   -8.2268   22.0722 C   0  0  0  0  0  0
  -22.4248   -8.0302   21.3536 C   0  0  0  0  0  0
  -21.9948   -9.0289   20.4655 C   0  0  0  0  0  0
  -22.7292  -10.2136   20.3057 C   0  0  0  0  0  0
  -21.6841   -6.0771   22.5290 C   0  0  0  0  0  0
  -21.4003   -6.5670   23.8232 C   0  0  0  0  0  0
  -21.3650   -5.6801   24.9178 C   0  0  0  0  0  0
  -21.6043   -4.3071   24.7225 C   0  0  0  0  0  0
  -21.8831   -3.8184   23.4344 C   0  0  0  0  0  0
  -21.9175   -4.7012   22.3408 C   0  0  0  0  0  0
  -22.7838  -13.5230   21.1814 C   0  0  0  0  0  0
  -22.1672   -4.2235   21.0967 F   0  0  0  0  0  0
  -21.5601   -3.4523   25.7722 F   0  0  0  0  0  0
  -29.8942  -13.9094   20.3575 N   0  0  0  0  0  0
  -26.2995  -12.9481   20.3534 N   0  0  0  0  0  0
  -25.9409  -11.6600   20.5860 N   0  0  0  0  0  0
  -22.0446  -12.8151   22.0342 N   0  0  0  0  0  0
  -25.4266  -15.1918   20.4396 N   0  0  0  0  0  0
  -31.5664  -15.2871   19.9919 O   0  0  0  0  0  0
  -21.6594   -6.8904   21.4233 O   0  0  0  0  0  0
  -22.3539  -14.5514   20.6645 O   0  0  0  0  0  0
  -24.6561  -31.8278   23.1749 C   0  0  0  0  0  0
  -25.9281  -32.4613   23.8206 C   0  0  1  0  0  0
  -27.2544  -27.0092   20.1239 C   0  0  0  0  0  0
  -25.5982  -33.8430   24.2133 N   0  0  0  0  0  0
  -23.4750  -30.4412   21.5180 C   0  0  2  0  0  0
  -24.9383  -28.8454   20.1024 C   0  0  0  0  0  0
  -22.7645  -29.4482   22.4763 C   0  0  0  0  0  0
  -18.0343  -28.1372   22.8468 C   0  0  0  0  0  0
  -24.1502  -36.7272   23.2648 C   0  0  0  0  0  0
  -26.0398  -30.6533   21.4035 C   0  0  0  0  0  0
  -26.1190  -29.2517   20.7417 C   0  0  0  0  0  0
  -27.2660  -28.3512   20.7361 C   0  0  0  0  0  0
  -26.0426  -26.7433   19.4411 C   0  0  0  0  0  0
  -24.9256  -27.6132   19.4373 C   0  0  0  0  0  0
  -23.7194  -29.7606   20.1416 C   0  0  0  0  0  0
  -25.4140  -36.2981   24.0264 C   0  0  1  0  0  0
  -20.5962  -28.3824   23.1247 C   0  0  2  0  0  0
  -20.6838  -26.9518   22.5494 C   0  0  0  0  0  0
  -19.5897  -26.6435   21.5233 C   0  0  0  0  0  0
  -18.2066  -26.7900   22.1671 C   0  0  0  0  0  0
  -19.1572  -28.8917   23.2816 C   0  0  0  0  0  0
  -18.9459  -30.1532   23.8759 C   0  0  0  0  0  0
  -17.6426  -30.6609   24.0437 C   0  0  0  0  0  0
  -25.9102  -34.9351   23.5029 C   0  0  0  0  0  0
  -16.5348  -29.9051   23.6289 C   0  0  0  0  0  0
  -16.7297  -28.6452   23.0307 C   0  0  0  0  0  0
  -26.4577  -31.6516   25.0686 C   0  0  0  0  0  0
  -25.3732  -31.3764   26.1365 C   0  0  0  0  0  0
  -27.0482  -30.2873   24.6403 C   0  0  0  0  0  0
  -27.6069  -32.4346   25.7462 C   0  0  0  0  0  0
  -27.5573  -37.1790   24.8436 C   0  0  0  0  0  0
  -21.4297  -29.3101   22.3514 N   0  0  0  0  0  0
  -26.4290  -37.3706   23.9357 N   0  0  0  0  0  0
  -24.7450  -30.9965   22.0870 N   0  0  0  0  0  0
  -23.4198  -28.8074   23.2966 O   0  0  0  0  0  0
  -28.2859  -25.9526   20.2174 O   0  0  0  0  0  0
  -26.5705  -34.8871   22.4616 O   0  0  0  0  0  0
  -23.5656  -32.1217   23.6857 O   0  0  0  0  0  0
  -27.6676  -17.5504   22.0806 C   0  0  0  0  0  0
  -29.5052  -16.3108   23.0128 C   0  0  0  0  0  0
  -31.2802  -18.4966   20.7955 C   0  0  0  0  0  0
  -30.7996  -21.4404   19.2859 C   0  0  0  0  0  0
  -28.7310  -21.5667   18.0253 C   0  0  0  0  0  0
  -27.8342  -19.0610   18.9982 C   0  0  0  0  0  0
  -28.7763  -22.8346   20.2592 C   0  0  0  0  0  0
  -28.3062  -24.4330   19.6372 C   0  0  0  0  0  0
  -28.6744  -16.4410   21.7253 C   0  0  0  0  0  0
  -29.9592  -18.1196   20.1032 C   0  0  2  0  0  0
  -29.2724  -21.3280   19.4547 C   0  0  0  0  0  0
  -28.9551  -19.6151   19.9255 C   0  0  1  0  0  0
  -29.6011  -16.5320   20.5418 N   0  0  0  0  0  0
  -28.4347  -19.9398   21.1030 F   0  0  0  0  0  0
  -31.4663  -13.0648   19.0932 H   0  0  0  0  0  0
  -30.6327  -11.8955   20.0354 H   0  0  0  0  0  0
  -29.8987  -11.8113   17.6289 H   0  0  0  0  0  0
  -29.5620  -13.5226   17.6512 H   0  0  0  0  0  0
  -28.0174  -11.3104   19.0205 H   0  0  0  0  0  0
  -27.3880  -12.4687   17.8643 H   0  0  0  0  0  0
  -27.5959  -14.2761   19.4668 H   0  0  0  0  0  0
  -28.9621  -12.2596   21.2895 H   0  0  0  0  0  0
  -28.3852  -13.7153   21.9205 H   0  0  0  0  0  0
  -25.2790   -9.5647   22.4706 H   0  0  0  0  0  0
  -23.9990   -7.4657   22.7413 H   0  0  0  0  0  0
  -21.0917   -8.8825   19.8959 H   0  0  0  0  0  0
  -22.3772  -10.9657   19.6178 H   0  0  0  0  0  0
  -21.2008   -7.6169   23.9776 H   0  0  0  0  0  0
  -21.1436   -6.0496   25.9075 H   0  0  0  0  0  0
  -22.0605   -2.7668   23.2796 H   0  0  0  0  0  0
  -22.4068  -11.9830   22.4771 H   0  0  0  0  0  0
  -21.1124  -13.1236   22.2687 H   0  0  0  0  0  0
  -24.6771  -15.8544   20.5977 H   0  0  0  0  0  0
  -26.2958  -15.6264   20.1657 H   0  0  0  0  0  0
  -26.7309  -32.5155   23.0902 H   0  0  0  0  0  0
  -24.9956  -33.9544   25.0163 H   0  0  0  0  0  0
  -22.7883  -31.2706   21.3437 H   0  0  0  0  0  0
  -23.3724  -35.9646   23.3257 H   0  0  0  0  0  0
  -24.3632  -36.8987   22.2091 H   0  0  0  0  0  0
  -23.7289  -37.6445   23.6773 H   0  0  0  0  0  0
  -26.2101  -31.4040   20.6361 H   0  0  0  0  0  0
  -26.9037  -30.7205   22.0539 H   0  0  0  0  0  0
  -28.1513  -28.6600   21.2767 H   0  0  0  0  0  0
  -25.9175  -25.8009   18.9295 H   0  0  0  0  0  0
  -24.0372  -27.3035   18.9107 H   0  0  0  0  0  0
  -23.8612  -30.5314   19.3805 H   0  0  0  0  0  0
  -22.8372  -29.1969   19.8340 H   0  0  0  0  0  0
  -25.1323  -36.1823   25.0746 H   0  0  0  0  0  0
  -21.0027  -28.3477   24.1384 H   0  0  0  0  0  0
  -20.5719  -26.2451   23.3720 H   0  0  0  0  0  0
  -21.6708  -26.7482   22.1331 H   0  0  0  0  0  0
  -19.6872  -27.3341   20.6824 H   0  0  0  0  0  0
  -19.7151  -25.6347   21.1219 H   0  0  0  0  0  0
  -17.4343  -26.6467   21.4094 H   0  0  0  0  0  0
  -18.0595  -26.0076   22.9137 H   0  0  0  0  0  0
  -19.7890  -30.7424   24.2046 H   0  0  0  0  0  0
  -17.4968  -31.6304   24.4998 H   0  0  0  0  0  0
  -15.5325  -30.2924   23.7608 H   0  0  0  0  0  0
  -15.8709  -28.0755   22.7009 H   0  0  0  0  0  0
  -24.5917  -30.7128   25.7647 H   0  0  0  0  0  0
  -24.8941  -32.2968   26.4711 H   0  0  0  0  0  0
  -25.7998  -30.8947   27.0174 H   0  0  0  0  0  0
  -26.3158  -29.6556   24.1364 H   0  0  0  0  0  0
  -27.3968  -29.7243   25.5072 H   0  0  0  0  0  0
  -27.9111  -30.4021   23.9847 H   0  0  0  0  0  0
  -27.2616  -33.3675   26.1936 H   0  0  0  0  0  0
  -28.3906  -32.6887   25.0309 H   0  0  0  0  0  0
  -28.0707  -31.8554   26.5455 H   0  0  0  0  0  0
  -28.2517  -38.0153   24.7433 H   0  0  0  0  0  0
  -28.1126  -36.2643   24.6279 H   0  0  0  0  0  0
  -27.2284  -37.1437   25.8845 H   0  0  0  0  0  0
  -20.9528  -29.8774   21.6666 H   0  0  0  0  0  0
  -26.0130  -38.2747   24.1403 H   0  0  0  0  0  0
  -26.9725  -17.1964   22.8465 H   0  0  0  0  0  0
  -27.0324  -17.9277   21.2934 H   0  0  0  0  0  0
  -28.2091  -18.3619   22.5656 H   0  0  0  0  0  0
  -28.9119  -16.6163   23.8798 H   0  0  0  0  0  0
  -29.8747  -15.3045   23.2068 H   0  0  0  0  0  0
  -30.3618  -16.9826   22.9652 H   0  0  0  0  0  0
  -31.8779  -17.6168   21.0168 H   0  0  0  0  0  0
  -31.1057  -19.0416   21.7246 H   0  0  0  0  0  0
  -31.9095  -19.1123   20.1597 H   0  0  0  0  0  0
  -31.0842  -22.2992   18.6748 H   0  0  0  0  0  0
  -31.2105  -20.5656   18.7809 H   0  0  0  0  0  0
  -31.2925  -21.5603   20.2476 H   0  0  0  0  0  0
  -28.9881  -20.7567   17.3408 H   0  0  0  0  0  0
  -29.1443  -22.4821   17.5909 H   0  0  0  0  0  0
  -27.6482  -21.7107   18.0050 H   0  0  0  0  0  0
  -28.2351  -18.7907   18.0149 H   0  0  0  0  0  0
  -26.9761  -19.7236   18.8697 H   0  0  0  0  0  0
  -27.4414  -18.1095   19.3261 H   0  0  0  0  0  0
  -27.9685  -22.5318   20.9268 H   0  0  0  0  0  0
  -29.6014  -23.0572   20.9379 H   0  0  0  0  0  0
  -28.9429  -24.5561   18.7611 H   0  0  0  0  0  0
  -27.3148  -24.2741   19.2228 H   0  0  0  0  0  0
  -27.9948  -15.6155   21.5727 H   0  0  0  0  0  0
  -30.2888  -17.9525   19.0756 H   0  0  0  0  0  0
  1 25  1  0  0  0
  1 30  2  0  0  0
  1 83  1  0  0  0
  2  3  1  0  0  0
  2 25  1  0  0  0
  2 85  1  0  0  0
  2 86  1  0  0  0
  3  4  1  0  0  0
  3 87  1  0  0  0
  3 88  1  0  0  0
  4  5  1  0  0  0
  4 89  1  0  0  0
  4 90  1  0  0  0
  5  6  1  0  0  0
  5 26  1  0  0  0
  5 91  1  0  0  0
  6 25  1  0  0  0
  6 92  1  0  0  0
  6 93  1  0  0  0
  7  8  2  0  0  0
  7 26  1  0  0  0
  7 29  1  0  0  0
  8  9  1  0  0  0
  8 22  1  0  0  0
  9 10  1  0  0  0
  9 27  2  0  0  0
 10 11  2  0  0  0
 10 15  1  0  0  0
 11 12  1  0  0  0
 11 94  1  0  0  0
 12 13  2  0  0  0
 12 95  1  0  0  0
 13 14  1  0  0  0
 13 31  1  0  0  0
 14 15  2  0  0  0
 14 96  1  0  0  0
 15 97  1  0  0  0
 16 17  2  0  0  0
 16 21  1  0  0  0
 16 31  1  0  0  0
 17 18  1  0  0  0
 17 98  1  0  0  0
 18 19  2  0  0  0
 18 99  1  0  0  0
 19 20  1  0  0  0
 19 24  1  0  0  0
 20 21  2  0  0  0
 20100  1  0  0  0
 21 23  1  0  0  0
 22 28  1  0  0  0
 22 32  2  0  0  0
 26 27  1  0  0  0
 28101  1  0  0  0
 28102  1  0  0  0
 29103  1  0  0  0
 29104  1  0  0  0
 33 34  1  0  0  0
 33 66  1  0  0  0
 33 70  2  0  0  0
 34 36  1  0  0  0
 34 59  1  0  0  0
 34105  1  0  0  0
 35 44  2  0  0  0
 35 45  1  0  0  0
 35 68  1  0  0  0
 36 56  1  0  0  0
 36106  1  0  0  0
 37 39  1  0  0  0
 37 47  1  0  0  0
 37 66  1  0  0  0
 37107  1  0  0  0
 38 43  2  0  0  0
 38 46  1  0  0  0
 38 47  1  0  0  0
 39 64  1  0  0  0
 39 67  2  0  0  0
 40 52  1  0  0  0
 40 53  2  0  0  0
 40 58  1  0  0  0
 41108  1  0  0  0
 41109  1  0  0  0
 41110  1  0  0  0
 41 48  1  0  0  0
 42 43  1  0  0  0
 42 66  1  0  0  0
 42111  1  0  0  0
 42112  1  0  0  0
 43 44  1  0  0  0
 44113  1  0  0  0
 45 46  2  0  0  0
 45114  1  0  0  0
 46115  1  0  0  0
 47116  1  0  0  0
 47117  1  0  0  0
 48 56  1  0  0  0
 48 65  1  0  0  0
 48118  1  0  0  0
 49 50  1  0  0  0
 49 53  1  0  0  0
 49 64  1  0  0  0
 49119  1  0  0  0
 50 51  1  0  0  0
 50120  1  0  0  0
 50121  1  0  0  0
 51 52  1  0  0  0
 51122  1  0  0  0
 51123  1  0  0  0
 52124  1  0  0  0
 52125  1  0  0  0
 53 54  1  0  0  0
 54 55  2  0  0  0
 54126  1  0  0  0
 55 57  1  0  0  0
 55127  1  0  0  0
 56 69  2  0  0  0
 57 58  2  0  0  0
 57128  1  0  0  0
 58129  1  0  0  0
 59 60  1  0  0  0
 59 61  1  0  0  0
 59 62  1  0  0  0
 60130  1  0  0  0
 60131  1  0  0  0
 60132  1  0  0  0
 61133  1  0  0  0
 61134  1  0  0  0
 61135  1  0  0  0
 62136  1  0  0  0
 62137  1  0  0  0
 62138  1  0  0  0
 63 65  1  0  0  0
 63139  1  0  0  0
 63140  1  0  0  0
 63141  1  0  0  0
 64142  1  0  0  0
 65143  1  0  0  0
 68 78  1  0  0  0
 71144  1  0  0  0
 71145  1  0  0  0
 71146  1  0  0  0
 71 79  1  0  0  0
 72 79  1  0  0  0
 72147  1  0  0  0
 72148  1  0  0  0
 72149  1  0  0  0
 73150  1  0  0  0
 73151  1  0  0  0
 73152  1  0  0  0
 73 80  1  0  0  0
 74153  1  0  0  0
 74154  1  0  0  0
 74155  1  0  0  0
 74 81  1  0  0  0
 75 81  1  0  0  0
 75156  1  0  0  0
 75157  1  0  0  0
 75158  1  0  0  0
 76159  1  0  0  0
 76160  1  0  0  0
 76161  1  0  0  0
 76 82  1  0  0  0
 77 78  1  0  0  0
 77 81  1  0  0  0
 77162  1  0  0  0
 77163  1  0  0  0
 78164  1  0  0  0
 78165  1  0  0  0
 79 83  1  0  0  0
 79166  1  0  0  0
 80 82  1  0  0  0
 80 83  1  0  0  0
 80167  1  0  0  0
 81 82  1  0  0  0
 82 84  1  0  0  0
M  ISO  4   1 100  68 101  78 101  83 100
M  END
> <chiral flag>
0

> <version>
0

> <s_m_source_file>
/data/baiqing/PycharmProjects/Reinvent-master-3.2/result/LINK_invent/BTK/process_docking_weight1_custom_sum_contain_oxygen_bond_distance_aromatic_linkinvent_7_9_3/rearranged_h_0051.sdf

> <i_m_source_file_index>
91

> <r_mmod_Potential_Energy-OPLS-2005>
1612.13940429688

> <r_mmod_Stretch_Energy-OPLS-2005>
625.913024902344

> <r_mmod_Bend_Energy-OPLS-2005>
520.376892089844

> <r_mmod_Torsional_Energy-OPLS-2005>
365.824493408203

> <r_mmod_Improper_Torsional_Energy-OPLS-2005>
5.74173355102539

> <r_mmod_Van_der_Waal_Energy-OPLS-2005>
162.202529907227

> <r_mmod_Electrostatic_Energy-OPLS-2005>
-287.298736572266

> <r_mmod_Solvation_Energy-OPLS-2005>
-175.070922851562

> <b_mmod_Minimization_Converged-OPLS-2005>
0

> <r_mmod_RMS_Derivative-OPLS-2005>
12.894811630249

$$$$
94
                    3D
 Structure written by MMmdl.
169177  0  0  1  0            999 V2000
  -30.6745  -14.5418   20.5366 C   0  0  0  0  0  0
  -30.4250  -12.3368   19.4508 C   0  0  0  0  0  0
  -29.5060  -12.4959   18.2230 C   0  0  0  0  0  0
  -28.0264  -12.3551   18.6291 C   0  0  0  0  0  0
  -27.6583  -13.2121   19.8718 C   0  0  2  0  0  0
  -28.6955  -13.0454   21.0031 C   0  0  0  0  0  0
  -25.2573  -13.8168   20.5637 C   0  0  0  0  0  0
  -24.1842  -13.0442   20.9154 C   0  0  0  0  0  0
  -24.6399  -11.6905   20.8744 C   0  0  0  0  0  0
  -23.9082  -10.4291   21.0396 C   0  0  0  0  0  0
  -24.3635   -9.4206   21.9177 C   0  0  0  0  0  0
  -23.6313   -8.2242   22.0741 C   0  0  0  0  0  0
  -22.4289   -8.0282   21.3539 C   0  0  0  0  0  0
  -21.9922   -9.0259   20.4642 C   0  0  0  0  0  0
  -22.7246  -10.2133   20.3057 C   0  0  0  0  0  0
  -21.6838   -6.0737   22.5274 C   0  0  0  0  0  0
  -21.4012   -6.5640   23.8208 C   0  0  0  0  0  0
  -21.3654   -5.6800   24.9164 C   0  0  0  0  0  0
  -21.6044   -4.3066   24.7221 C   0  0  0  0  0  0
  -21.8820   -3.8145   23.4343 C   0  0  0  0  0  0
  -21.9207   -4.6969   22.3392 C   0  0  0  0  0  0
  -22.7870  -13.5208   21.1846 C   0  0  0  0  0  0
  -22.1662   -4.2147   21.0977 F   0  0  0  0  0  0
  -21.5631   -3.4546   25.7736 F   0  0  0  0  0  0
  -30.0135  -13.3533   20.4361 N   0  0  0  0  0  0
  -26.3033  -12.9335   20.3368 N   0  0  0  0  0  0
  -25.9339  -11.6498   20.5789 N   0  0  0  0  0  0
  -22.0551  -12.8185   22.0432 N   0  0  0  0  0  0
  -25.4339  -15.1850   20.3891 N   0  0  0  0  0  0
  -31.8456  -14.6750   20.1720 O   0  0  0  0  0  0
  -21.6637   -6.8871   21.4239 O   0  0  0  0  0  0
  -22.3537  -14.5530   20.6726 O   0  0  0  0  0  0
  -24.6247  -31.8646   23.2059 C   0  0  0  0  0  0
  -25.9086  -32.4802   23.8396 C   0  0  1  0  0  0
  -27.1859  -27.3194   20.0656 C   0  0  0  0  0  0
  -25.5900  -33.8585   24.2300 N   0  0  0  0  0  0
  -23.4094  -30.4950   21.5511 C   0  0  2  0  0  0
  -24.8454  -28.9477   20.1135 C   0  0  0  0  0  0
  -22.7439  -29.4672   22.4955 C   0  0  0  0  0  0
  -18.0291  -28.1389   22.8448 C   0  0  0  0  0  0
  -24.1515  -36.7320   23.2637 C   0  0  0  0  0  0
  -25.9505  -30.7828   21.3834 C   0  0  0  0  0  0
  -26.0160  -29.4090   20.7256 C   0  0  0  0  0  0
  -27.1885  -28.5976   20.7037 C   0  0  0  0  0  0
  -26.0119  -26.9358   19.3945 C   0  0  0  0  0  0
  -24.8397  -27.7109   19.4504 C   0  0  0  0  0  0
  -23.6176  -29.8336   20.1660 C   0  0  0  0  0  0
  -25.4136  -36.3093   24.0330 C   0  0  1  0  0  0
  -20.5893  -28.3647   23.1277 C   0  0  2  0  0  0
  -20.6773  -26.9430   22.5292 C   0  0  0  0  0  0
  -19.5727  -26.6528   21.5064 C   0  0  0  0  0  0
  -18.1921  -26.7971   22.1539 C   0  0  0  0  0  0
  -19.1538  -28.8832   23.2898 C   0  0  0  0  0  0
  -18.9465  -30.1417   23.8950 C   0  0  0  0  0  0
  -17.6462  -30.6536   24.0653 C   0  0  0  0  0  0
  -25.9064  -34.9459   23.5106 C   0  0  0  0  0  0
  -16.5358  -29.9090   23.6356 C   0  0  0  0  0  0
  -16.7281  -28.6510   23.0322 C   0  0  0  0  0  0
  -26.4471  -31.6604   25.0743 C   0  0  0  0  0  0
  -25.3711  -31.3740   26.1477 C   0  0  0  0  0  0
  -27.0312  -30.3028   24.6199 C   0  0  0  0  0  0
  -27.6022  -32.4338   25.7496 C   0  0  0  0  0  0
  -27.5598  -37.1825   24.8448 C   0  0  0  0  0  0
  -21.4151  -29.3060   22.3721 N   0  0  0  0  0  0
  -26.4324  -37.3782   23.9374 N   0  0  0  0  0  0
  -24.6798  -31.0657   22.1039 N   0  0  0  0  0  0
  -23.4175  -28.8174   23.2990 O   0  0  0  0  0  0
  -28.3176  -26.5150   19.9557 O   0  0  0  0  0  0
  -26.5626  -34.8911   22.4687 O   0  0  0  0  0  0
  -23.5398  -32.1444   23.7420 O   0  0  0  0  0  0
  -28.5981  -21.2592   20.0727 C   0  0  0  0  0  0
  -28.1481  -22.4979   20.5150 C   0  0  0  0  0  0
  -28.0789  -21.0118   22.2018 C   0  0  0  0  0  0
  -27.6549  -20.4860   23.5362 C   0  0  0  0  0  0
  -26.1300  -23.6957   19.9668 C   0  0  0  0  0  0
  -28.0028  -23.6456   18.2935 C   0  0  0  0  0  0
  -30.1358  -18.4766   23.0993 C   0  0  0  0  0  0
  -31.1090  -18.2575   20.8460 C   0  0  0  0  0  0
  -28.6180  -18.8274   21.0167 C   0  0  0  0  0  0
  -29.5162  -16.4470   21.7458 C   0  0  0  0  0  0
  -28.3385  -25.1152   20.4478 C   0  0  0  0  0  0
  -27.6754  -23.7879   19.7988 C   0  0  0  0  0  0
  -29.8218  -18.0079   21.6628 C   0  0  0  0  0  0
  -28.5170  -20.3405   21.1142 N   0  0  0  0  0  0
  -27.9411  -22.3001   21.8551 N   0  3  0  0  0  0
  -29.8939  -15.6523   20.5573 N   0  0  0  0  0  0
  -31.4720  -12.4371   19.1588 H   0  0  0  0  0  0
  -30.3329  -11.3371   19.8804 H   0  0  0  0  0  0
  -29.7592  -11.7548   17.4655 H   0  0  0  0  0  0
  -29.6709  -13.4719   17.7671 H   0  0  0  0  0  0
  -27.8415  -11.3019   18.8402 H   0  0  0  0  0  0
  -27.3783  -12.6142   17.7911 H   0  0  0  0  0  0
  -27.6892  -14.2530   19.5504 H   0  0  0  0  0  0
  -28.6880  -12.0259   21.3907 H   0  0  0  0  0  0
  -28.4664  -13.6968   21.8482 H   0  0  0  0  0  0
  -25.2783   -9.5654   22.4727 H   0  0  0  0  0  0
  -24.0018   -7.4614   22.7434 H   0  0  0  0  0  0
  -21.0842   -8.8768   19.8937 H   0  0  0  0  0  0
  -22.3708  -10.9672   19.6150 H   0  0  0  0  0  0
  -21.1996   -7.6147   23.9698 H   0  0  0  0  0  0
  -21.1467   -6.0530   25.9063 H   0  0  0  0  0  0
  -22.0616   -2.7618   23.2841 H   0  0  0  0  0  0
  -22.4244  -11.9837   22.4752 H   0  0  0  0  0  0
  -21.1195  -13.1136   22.2702 H   0  0  0  0  0  0
  -24.6655  -15.8439   20.4343 H   0  0  0  0  0  0
  -26.2847  -15.5916   20.0239 H   0  0  0  0  0  0
  -26.7115  -32.5454   23.1120 H   0  0  0  0  0  0
  -25.0030  -33.9769   25.0422 H   0  0  0  0  0  0
  -22.6999  -31.3164   21.4202 H   0  0  0  0  0  0
  -23.3769  -35.9667   23.3315 H   0  0  0  0  0  0
  -24.3600  -36.8927   22.2043 H   0  0  0  0  0  0
  -23.7293  -37.6539   23.6651 H   0  0  0  0  0  0
  -26.0827  -31.5450   20.6147 H   0  0  0  0  0  0
  -26.8330  -30.8300   22.0078 H   0  0  0  0  0  0
  -28.0988  -28.9555   21.1596 H   0  0  0  0  0  0
  -26.0041  -26.0870   18.7324 H   0  0  0  0  0  0
  -23.9435  -27.3933   18.9398 H   0  0  0  0  0  0
  -23.7346  -30.6144   19.4139 H   0  0  0  0  0  0
  -22.7282  -29.2732   19.8684 H   0  0  0  0  0  0
  -25.1331  -36.1972   25.0827 H   0  0  0  0  0  0
  -20.9990  -28.3157   24.1381 H   0  0  0  0  0  0
  -20.5661  -26.2219   23.3401 H   0  0  0  0  0  0
  -21.6631  -26.7490   22.1055 H   0  0  0  0  0  0
  -19.6918  -25.6508   21.0887 H   0  0  0  0  0  0
  -19.6668  -27.3499   20.6705 H   0  0  0  0  0  0
  -17.4201  -26.6762   21.3937 H   0  0  0  0  0  0
  -18.0402  -26.0052   22.8875 H   0  0  0  0  0  0
  -19.7940  -30.7213   24.2368 H   0  0  0  0  0  0
  -17.5028  -31.6173   24.5317 H   0  0  0  0  0  0
  -15.5351  -30.2980   23.7710 H   0  0  0  0  0  0
  -15.8680  -28.0871   22.6991 H   0  0  0  0  0  0
  -24.5821  -30.7180   25.7775 H   0  0  0  0  0  0
  -24.8991  -32.2919   26.4980 H   0  0  0  0  0  0
  -25.8019  -30.8804   27.0208 H   0  0  0  0  0  0
  -26.2869  -29.6763   24.1268 H   0  0  0  0  0  0
  -27.4045  -29.7284   25.4691 H   0  0  0  0  0  0
  -27.8726  -30.4295   23.9390 H   0  0  0  0  0  0
  -27.2620  -33.3604   26.2149 H   0  0  0  0  0  0
  -28.3802  -32.6998   25.0311 H   0  0  0  0  0  0
  -28.0775  -31.8453   26.5374 H   0  0  0  0  0  0
  -28.2628  -38.0116   24.7492 H   0  0  0  0  0  0
  -28.1108  -36.2643   24.6306 H   0  0  0  0  0  0
  -27.2307  -37.1493   25.8855 H   0  0  0  0  0  0
  -20.9304  -29.8775   21.6944 H   0  0  0  0  0  0
  -26.0224  -38.2876   24.1338 H   0  0  0  0  0  0
  -28.8460  -20.9418   19.0695 H   0  0  0  0  0  0
  -28.3699  -20.8217   24.2903 H   0  0  0  0  0  0
  -27.5906  -19.3991   23.5085 H   0  0  0  0  0  0
  -26.6605  -20.8826   23.7589 H   0  0  0  0  0  0
  -25.7953  -22.6673   19.7983 H   0  0  0  0  0  0
  -25.5516  -24.2512   19.2420 H   0  0  0  0  0  0
  -25.7968  -23.9731   20.9627 H   0  0  0  0  0  0
  -27.5053  -22.7644   17.8740 H   0  0  0  0  0  0
  -29.0715  -23.5319   18.1185 H   0  0  0  0  0  0
  -27.6524  -24.4991   17.7139 H   0  0  0  0  0  0
  -30.2911  -19.5538   23.1590 H   0  0  0  0  0  0
  -31.0492  -18.0176   23.4697 H   0  0  0  0  0  0
  -29.3573  -18.1956   23.8042 H   0  0  0  0  0  0
  -31.3761  -19.3155   20.8316 H   0  0  0  0  0  0
  -31.0148  -17.9341   19.8085 H   0  0  0  0  0  0
  -31.9547  -17.7143   21.2783 H   0  0  0  0  0  0
  -27.6802  -18.4469   21.4182 H   0  0  0  0  0  0
  -28.5712  -18.5868   19.9532 H   0  0  0  0  0  0
  -28.4499  -16.2907   21.9238 H   0  0  0  0  0  0
  -30.0109  -16.0114   22.6157 H   0  0  0  0  0  0
  -28.0737  -25.1566   21.5058 H   0  0  0  0  0  0
  -29.4015  -24.8746   20.4614 H   0  0  0  0  0  0
  -27.6003  -23.0114   22.4857 H   0  0  0  0  0  0
  -30.2545  -16.2942   19.8669 H   0  0  0  0  0  0
  1 25  1  0  0  0
  1 30  2  0  0  0
  1 86  1  0  0  0
  2  3  1  0  0  0
  2 25  1  0  0  0
  2 87  1  0  0  0
  2 88  1  0  0  0
  3  4  1  0  0  0
  3 89  1  0  0  0
  3 90  1  0  0  0
  4  5  1  0  0  0
  4 91  1  0  0  0
  4 92  1  0  0  0
  5  6  1  0  0  0
  5 26  1  0  0  0
  5 93  1  0  0  0
  6 25  1  0  0  0
  6 94  1  0  0  0
  6 95  1  0  0  0
  7  8  2  0  0  0
  7 26  1  0  0  0
  7 29  1  0  0  0
  8  9  1  0  0  0
  8 22  1  0  0  0
  9 10  1  0  0  0
  9 27  2  0  0  0
 10 11  2  0  0  0
 10 15  1  0  0  0
 11 12  1  0  0  0
 11 96  1  0  0  0
 12 13  2  0  0  0
 12 97  1  0  0  0
 13 14  1  0  0  0
 13 31  1  0  0  0
 14 15  2  0  0  0
 14 98  1  0  0  0
 15 99  1  0  0  0
 16 17  2  0  0  0
 16 21  1  0  0  0
 16 31  1  0  0  0
 17 18  1  0  0  0
 17100  1  0  0  0
 18 19  2  0  0  0
 18101  1  0  0  0
 19 20  1  0  0  0
 19 24  1  0  0  0
 20 21  2  0  0  0
 20102  1  0  0  0
 21 23  1  0  0  0
 22 28  1  0  0  0
 22 32  2  0  0  0
 26 27  1  0  0  0
 28103  1  0  0  0
 28104  1  0  0  0
 29105  1  0  0  0
 29106  1  0  0  0
 33 34  1  0  0  0
 33 66  1  0  0  0
 33 70  2  0  0  0
 34 36  1  0  0  0
 34 59  1  0  0  0
 34107  1  0  0  0
 35 44  2  0  0  0
 35 45  1  0  0  0
 35 68  1  0  0  0
 36 56  1  0  0  0
 36108  1  0  0  0
 37 39  1  0  0  0
 37 47  1  0  0  0
 37 66  1  0  0  0
 37109  1  0  0  0
 38 43  2  0  0  0
 38 46  1  0  0  0
 38 47  1  0  0  0
 39 64  1  0  0  0
 39 67  2  0  0  0
 40 52  1  0  0  0
 40 53  2  0  0  0
 40 58  1  0  0  0
 41110  1  0  0  0
 41111  1  0  0  0
 41112  1  0  0  0
 41 48  1  0  0  0
 42 43  1  0  0  0
 42 66  1  0  0  0
 42113  1  0  0  0
 42114  1  0  0  0
 43 44  1  0  0  0
 44115  1  0  0  0
 45 46  2  0  0  0
 45116  1  0  0  0
 46117  1  0  0  0
 47118  1  0  0  0
 47119  1  0  0  0
 48 56  1  0  0  0
 48 65  1  0  0  0
 48120  1  0  0  0
 49 50  1  0  0  0
 49 53  1  0  0  0
 49 64  1  0  0  0
 49121  1  0  0  0
 50 51  1  0  0  0
 50122  1  0  0  0
 50123  1  0  0  0
 51 52  1  0  0  0
 51124  1  0  0  0
 51125  1  0  0  0
 52126  1  0  0  0
 52127  1  0  0  0
 53 54  1  0  0  0
 54 55  2  0  0  0
 54128  1  0  0  0
 55 57  1  0  0  0
 55129  1  0  0  0
 56 69  2  0  0  0
 57 58  2  0  0  0
 57130  1  0  0  0
 58131  1  0  0  0
 59 60  1  0  0  0
 59 61  1  0  0  0
 59 62  1  0  0  0
 60132  1  0  0  0
 60133  1  0  0  0
 60134  1  0  0  0
 61135  1  0  0  0
 61136  1  0  0  0
 61137  1  0  0  0
 62138  1  0  0  0
 62139  1  0  0  0
 62140  1  0  0  0
 63 65  1  0  0  0
 63141  1  0  0  0
 63142  1  0  0  0
 63143  1  0  0  0
 64144  1  0  0  0
 65145  1  0  0  0
 68 81  1  0  0  0
 71 72  2  0  0  0
 71 84  1  0  0  0
 71146  1  0  0  0
 72 82  1  0  0  0
 72 85  1  0  0  0
 73 74  1  0  0  0
 73 84  1  0  0  0
 73 85  2  0  0  0
 74147  1  0  0  0
 74148  1  0  0  0
 74149  1  0  0  0
 75150  1  0  0  0
 75151  1  0  0  0
 75152  1  0  0  0
 75 82  1  0  0  0
 76 82  1  0  0  0
 76153  1  0  0  0
 76154  1  0  0  0
 76155  1  0  0  0
 77156  1  0  0  0
 77157  1  0  0  0
 77158  1  0  0  0
 77 83  1  0  0  0
 78 83  1  0  0  0
 78159  1  0  0  0
 78160  1  0  0  0
 78161  1  0  0  0
 79 83  1  0  0  0
 79 84  1  0  0  0
 79162  1  0  0  0
 79163  1  0  0  0
 80 83  1  0  0  0
 80 86  1  0  0  0
 80164  1  0  0  0
 80165  1  0  0  0
 81 82  1  0  0  0
 81166  1  0  0  0
 81167  1  0  0  0
 85168  1  0  0  0
 86169  1  0  0  0
M  CHG  1  85   1
M  ISO  4   1 100  68 101  81 101  86 100
M  END
> <chiral flag>
0

> <version>
0

> <s_m_source_file>
/data/baiqing/PycharmProjects/Reinvent-master-3.2/result/LINK_invent/BTK/process_docking_weight1_custom_sum_contain_oxygen_bond_distance_aromatic_linkinvent_7_9_3/rearranged_h_0051.sdf

> <i_m_source_file_index>
92

> <r_mmod_Potential_Energy-OPLS-2005>
94.8561782836914

> <r_mmod_Stretch_Energy-OPLS-2005>
75.1130599975586

> <r_mmod_Bend_Energy-OPLS-2005>
186.158065795898

> <r_mmod_Torsional_Energy-OPLS-2005>
333.124908447266

> <r_mmod_Improper_Torsional_Energy-OPLS-2005>
24.9656810760498

> <r_mmod_Van_der_Waal_Energy-OPLS-2005>
123.498245239258

> <r_mmod_Electrostatic_Energy-OPLS-2005>
-279.028625488281

> <r_mmod_Solvation_Energy-OPLS-2005>
-405.292114257812

> <b_mmod_Minimization_Converged-OPLS-2005>
0

> <r_mmod_RMS_Derivative-OPLS-2005>
8.26486301422119

$$$$
95
                    3D
 Structure written by MMmdl.
159166  0  0  1  0            999 V2000
  -30.4385  -15.1574   20.4062 C   0  0  0  0  0  0
  -30.4520  -12.7293   19.5277 C   0  0  0  0  0  0
  -29.5376  -12.5585   18.2886 C   0  0  0  0  0  0
  -28.0777  -12.3120   18.7082 C   0  0  0  0  0  0
  -27.6205  -13.2724   19.8326 C   0  0  2  0  0  0
  -28.6549  -13.3730   20.9725 C   0  0  0  0  0  0
  -25.2408  -13.8250   20.5770 C   0  0  0  0  0  0
  -24.1760  -13.0459   20.9264 C   0  0  0  0  0  0
  -24.6408  -11.6932   20.8780 C   0  0  0  0  0  0
  -23.9103  -10.4292   21.0431 C   0  0  0  0  0  0
  -24.3646   -9.4193   21.9197 C   0  0  0  0  0  0
  -23.6318   -8.2231   22.0750 C   0  0  0  0  0  0
  -22.4282   -8.0289   21.3546 C   0  0  0  0  0  0
  -21.9943   -9.0266   20.4636 C   0  0  0  0  0  0
  -22.7281  -10.2141   20.3063 C   0  0  0  0  0  0
  -21.6848   -6.0752   22.5288 C   0  0  0  0  0  0
  -21.4003   -6.5652   23.8223 C   0  0  0  0  0  0
  -21.3657   -5.6800   24.9182 C   0  0  0  0  0  0
  -21.6037   -4.3065   24.7225 C   0  0  0  0  0  0
  -21.8819   -3.8164   23.4341 C   0  0  0  0  0  0
  -21.9187   -4.6987   22.3404 C   0  0  0  0  0  0
  -22.7752  -13.5180   21.1929 C   0  0  0  0  0  0
  -22.1655   -4.2175   21.0982 F   0  0  0  0  0  0
  -21.5629   -3.4542   25.7732 F   0  0  0  0  0  0
  -29.9137  -13.8455   20.3814 N   0  0  0  0  0  0
  -26.2848  -12.9540   20.3242 N   0  0  0  0  0  0
  -25.9340  -11.6636   20.5726 N   0  0  0  0  0  0
  -22.0400  -12.8168   22.0482 N   0  0  0  0  0  0
  -25.4100  -15.1994   20.4226 N   0  0  0  0  0  0
  -31.6297  -15.2092   20.0749 O   0  0  0  0  0  0
  -21.6635   -6.8893   21.4244 O   0  0  0  0  0  0
  -22.3411  -14.5473   20.6752 O   0  0  0  0  0  0
  -24.6589  -31.8247   23.1728 C   0  0  0  0  0  0
  -25.9301  -32.4559   23.8172 C   0  0  1  0  0  0
  -27.2474  -26.9908   20.1816 C   0  0  0  0  0  0
  -25.5995  -33.8377   24.2088 N   0  0  0  0  0  0
  -23.4696  -30.4389   21.5172 C   0  0  2  0  0  0
  -24.9279  -28.8319   20.1051 C   0  0  0  0  0  0
  -22.7649  -29.4430   22.4768 C   0  0  0  0  0  0
  -18.0308  -28.1386   22.8424 C   0  0  0  0  0  0
  -24.1477  -36.7174   23.2665 C   0  0  0  0  0  0
  -26.0346  -30.6553   21.3913 C   0  0  0  0  0  0
  -26.1064  -29.2518   20.7339 C   0  0  0  0  0  0
  -27.2545  -28.3528   20.7474 C   0  0  0  0  0  0
  -26.0409  -26.7025   19.5024 C   0  0  0  0  0  0
  -24.9184  -27.5752   19.4700 C   0  0  0  0  0  0
  -23.7073  -29.7545   20.1412 C   0  0  0  0  0  0
  -25.4112  -36.2941   24.0330 C   0  0  1  0  0  0
  -20.5937  -28.3715   23.1174 C   0  0  2  0  0  0
  -20.6779  -26.9400   22.5390 C   0  0  0  0  0  0
  -19.5766  -26.6351   21.5188 C   0  0  0  0  0  0
  -18.1938  -26.7913   22.1598 C   0  0  0  0  0  0
  -19.1576  -28.8870   23.2779 C   0  0  0  0  0  0
  -18.9511  -30.1455   23.8829 C   0  0  0  0  0  0
  -17.6517  -30.6581   24.0522 C   0  0  0  0  0  0
  -25.9098  -34.9331   23.5015 C   0  0  0  0  0  0
  -16.5394  -29.9071   23.6348 C   0  0  0  0  0  0
  -16.7296  -28.6503   23.0331 C   0  0  0  0  0  0
  -26.4580  -31.6520   25.0696 C   0  0  0  0  0  0
  -25.3734  -31.3751   26.1374 C   0  0  0  0  0  0
  -27.0501  -30.2909   24.6399 C   0  0  0  0  0  0
  -27.6064  -32.4360   25.7478 C   0  0  0  0  0  0
  -27.5538  -37.1725   24.8487 C   0  0  0  0  0  0
  -21.4331  -29.3011   22.3529 N   0  0  0  0  0  0
  -26.4242  -37.3686   23.9460 N   0  0  0  0  0  0
  -24.7419  -30.9980   22.0808 N   0  0  0  0  0  0
  -23.4243  -28.7997   23.2973 O   0  0  0  0  0  0
  -28.3098  -25.9664   20.2985 O   0  0  0  0  0  0
  -26.5692  -34.8871   22.4596 O   0  0  0  0  0  0
  -23.5691  -32.1176   23.6882 O   0  0  0  0  0  0
  -31.6951  -22.1135   17.9200 C   0  0  0  0  0  0
  -32.9455  -20.3765   19.2834 C   0  0  0  0  0  0
  -29.6221  -16.6345   20.7769 C   0  0  0  0  0  0
  -29.7879  -18.2881   20.1792 C   0  0  0  0  0  0
  -29.0421  -19.8103   20.7040 C   0  0  0  0  0  0
  -28.5410  -22.7009   20.7064 C   0  0  0  0  0  0
  -30.8292  -21.5367   20.2679 C   0  0  0  0  0  0
  -28.3542  -24.3493   20.0240 C   0  0  0  0  0  0
  -31.5653  -21.0177   18.9967 C   0  0  0  0  0  0
  -29.3473  -21.3463   20.1871 N   0  3  1  0  0  0
  -31.4719  -12.9318   19.1963 H   0  0  0  0  0  0
  -30.5130  -11.8036   20.0999 H   0  0  0  0  0  0
  -29.8948  -11.7319   17.6727 H   0  0  0  0  0  0
  -29.5962  -13.4544   17.6705 H   0  0  0  0  0  0
  -28.0114  -11.2840   19.0664 H   0  0  0  0  0  0
  -27.4135  -12.3814   17.8450 H   0  0  0  0  0  0
  -27.5593  -14.2557   19.3656 H   0  0  0  0  0  0
  -28.7867  -12.4126   21.4710 H   0  0  0  0  0  0
  -28.3199  -14.0775   21.7353 H   0  0  0  0  0  0
  -25.2784   -9.5661   22.4783 H   0  0  0  0  0  0
  -24.0023   -7.4605   22.7463 H   0  0  0  0  0  0
  -21.0870   -8.8784   19.8936 H   0  0  0  0  0  0
  -22.3741  -10.9687   19.6174 H   0  0  0  0  0  0
  -21.1981   -7.6154   23.9731 H   0  0  0  0  0  0
  -21.1483   -6.0529   25.9088 H   0  0  0  0  0  0
  -22.0600   -2.7627   23.2832 H   0  0  0  0  0  0
  -22.4008  -11.9843   22.4910 H   0  0  0  0  0  0
  -21.1011  -13.1183   22.2669 H   0  0  0  0  0  0
  -24.6472  -15.8597   20.5283 H   0  0  0  0  0  0
  -26.2695  -15.6351   20.1154 H   0  0  0  0  0  0
  -26.7369  -32.5111   23.0891 H   0  0  0  0  0  0
  -25.0132  -33.9468   25.0228 H   0  0  0  0  0  0
  -22.7816  -31.2696   21.3483 H   0  0  0  0  0  0
  -23.3752  -35.9484   23.3303 H   0  0  0  0  0  0
  -24.3565  -36.8836   22.2085 H   0  0  0  0  0  0
  -23.7239  -37.6364   23.6717 H   0  0  0  0  0  0
  -26.2117  -31.4028   20.6172 H   0  0  0  0  0  0
  -26.8951  -30.7015   22.0453 H   0  0  0  0  0  0
  -28.1452  -28.6785   21.2674 H   0  0  0  0  0  0
  -25.9381  -25.7421   19.0199 H   0  0  0  0  0  0
  -24.0228  -27.2476   18.9614 H   0  0  0  0  0  0
  -23.8613  -30.5271   19.3869 H   0  0  0  0  0  0
  -22.8181  -29.2110   19.8171 H   0  0  0  0  0  0
  -25.1293  -36.1709   25.0814 H   0  0  0  0  0  0
  -21.0005  -28.3308   24.1302 H   0  0  0  0  0  0
  -20.5631  -26.2334   23.3638 H   0  0  0  0  0  0
  -21.6644  -26.7332   22.1214 H   0  0  0  0  0  0
  -19.6942  -25.6254   21.1234 H   0  0  0  0  0  0
  -19.6728  -27.3133   20.6703 H   0  0  0  0  0  0
  -17.4209  -26.6631   21.4007 H   0  0  0  0  0  0
  -18.0331  -26.0070   22.9005 H   0  0  0  0  0  0
  -19.8005  -30.7233   24.2190 H   0  0  0  0  0  0
  -17.5097  -31.6268   24.5116 H   0  0  0  0  0  0
  -15.5394  -30.2957   23.7741 H   0  0  0  0  0  0
  -15.8688  -28.0820   22.7091 H   0  0  0  0  0  0
  -24.5933  -30.7086   25.7711 H   0  0  0  0  0  0
  -24.8910  -32.2937   26.4714 H   0  0  0  0  0  0
  -25.7990  -30.8992   27.0223 H   0  0  0  0  0  0
  -26.3173  -29.6576   24.1393 H   0  0  0  0  0  0
  -27.4081  -29.7278   25.5042 H   0  0  0  0  0  0
  -27.9073  -30.4151   23.9779 H   0  0  0  0  0  0
  -27.2625  -33.3724   26.1883 H   0  0  0  0  0  0
  -28.3919  -32.6834   25.0326 H   0  0  0  0  0  0
  -28.0669  -31.8618   26.5537 H   0  0  0  0  0  0
  -28.2518  -38.0042   24.7492 H   0  0  0  0  0  0
  -28.1054  -36.2563   24.6311 H   0  0  0  0  0  0
  -27.2266  -37.1367   25.8892 H   0  0  0  0  0  0
  -20.9596  -29.8809   21.6730 H   0  0  0  0  0  0
  -26.0076  -38.2732   24.1501 H   0  0  0  0  0  0
  -32.0854  -21.6983   16.9886 H   0  0  0  0  0  0
  -32.3754  -22.9078   18.2320 H   0  0  0  0  0  0
  -30.7334  -22.5750   17.6909 H   0  0  0  0  0  0
  -33.3442  -19.9029   18.3832 H   0  0  0  0  0  0
  -32.8966  -19.5862   20.0376 H   0  0  0  0  0  0
  -33.6896  -21.1026   19.6124 H   0  0  0  0  0  0
  -28.5609  -16.3898   20.7075 H   0  0  0  0  0  0
  -29.7994  -16.7215   21.8499 H   0  0  0  0  0  0
  -29.5255  -18.2116   19.1227 H   0  0  0  0  0  0
  -30.8595  -18.4687   20.1679 H   0  0  0  0  0  0
  -29.2042  -19.8456   21.7812 H   0  0  0  0  0  0
  -27.9624  -19.6851   20.6113 H   0  0  0  0  0  0
  -27.5173  -22.3357   20.8005 H   0  0  0  0  0  0
  -28.8600  -22.8323   21.7411 H   0  0  0  0  0  0
  -31.0885  -22.5786   20.4593 H   0  0  0  0  0  0
  -31.1905  -21.0052   21.1542 H   0  0  0  0  0  0
  -29.4277  -24.4782   20.1583 H   0  0  0  0  0  0
  -27.6508  -24.4462   20.8524 H   0  0  0  0  0  0
  -30.9658  -20.2205   18.5610 H   0  0  0  0  0  0
  -29.1437  -21.3179   19.1992 H   0  0  0  0  0  0
  1 25  1  0  0  0
  1 30  2  0  0  0
  1 73  1  0  0  0
  2  3  1  0  0  0
  2 25  1  0  0  0
  2 81  1  0  0  0
  2 82  1  0  0  0
  3  4  1  0  0  0
  3 83  1  0  0  0
  3 84  1  0  0  0
  4  5  1  0  0  0
  4 85  1  0  0  0
  4 86  1  0  0  0
  5  6  1  0  0  0
  5 26  1  0  0  0
  5 87  1  0  0  0
  6 25  1  0  0  0
  6 88  1  0  0  0
  6 89  1  0  0  0
  7  8  2  0  0  0
  7 26  1  0  0  0
  7 29  1  0  0  0
  8  9  1  0  0  0
  8 22  1  0  0  0
  9 10  1  0  0  0
  9 27  2  0  0  0
 10 11  2  0  0  0
 10 15  1  0  0  0
 11 12  1  0  0  0
 11 90  1  0  0  0
 12 13  2  0  0  0
 12 91  1  0  0  0
 13 14  1  0  0  0
 13 31  1  0  0  0
 14 15  2  0  0  0
 14 92  1  0  0  0
 15 93  1  0  0  0
 16 17  2  0  0  0
 16 21  1  0  0  0
 16 31  1  0  0  0
 17 18  1  0  0  0
 17 94  1  0  0  0
 18 19  2  0  0  0
 18 95  1  0  0  0
 19 20  1  0  0  0
 19 24  1  0  0  0
 20 21  2  0  0  0
 20 96  1  0  0  0
 21 23  1  0  0  0
 22 28  1  0  0  0
 22 32  2  0  0  0
 26 27  1  0  0  0
 28 97  1  0  0  0
 28 98  1  0  0  0
 29 99  1  0  0  0
 29100  1  0  0  0
 33 34  1  0  0  0
 33 66  1  0  0  0
 33 70  2  0  0  0
 34 36  1  0  0  0
 34 59  1  0  0  0
 34101  1  0  0  0
 35 44  2  0  0  0
 35 45  1  0  0  0
 35 68  1  0  0  0
 36 56  1  0  0  0
 36102  1  0  0  0
 37 39  1  0  0  0
 37 47  1  0  0  0
 37 66  1  0  0  0
 37103  1  0  0  0
 38 43  2  0  0  0
 38 46  1  0  0  0
 38 47  1  0  0  0
 39 64  1  0  0  0
 39 67  2  0  0  0
 40 52  1  0  0  0
 40 53  2  0  0  0
 40 58  1  0  0  0
 41104  1  0  0  0
 41105  1  0  0  0
 41106  1  0  0  0
 41 48  1  0  0  0
 42 43  1  0  0  0
 42 66  1  0  0  0
 42107  1  0  0  0
 42108  1  0  0  0
 43 44  1  0  0  0
 44109  1  0  0  0
 45 46  2  0  0  0
 45110  1  0  0  0
 46111  1  0  0  0
 47112  1  0  0  0
 47113  1  0  0  0
 48 56  1  0  0  0
 48 65  1  0  0  0
 48114  1  0  0  0
 49 50  1  0  0  0
 49 53  1  0  0  0
 49 64  1  0  0  0
 49115  1  0  0  0
 50 51  1  0  0  0
 50116  1  0  0  0
 50117  1  0  0  0
 51 52  1  0  0  0
 51118  1  0  0  0
 51119  1  0  0  0
 52120  1  0  0  0
 52121  1  0  0  0
 53 54  1  0  0  0
 54 55  2  0  0  0
 54122  1  0  0  0
 55 57  1  0  0  0
 55123  1  0  0  0
 56 69  2  0  0  0
 57 58  2  0  0  0
 57124  1  0  0  0
 58125  1  0  0  0
 59 60  1  0  0  0
 59 61  1  0  0  0
 59 62  1  0  0  0
 60126  1  0  0  0
 60127  1  0  0  0
 60128  1  0  0  0
 61129  1  0  0  0
 61130  1  0  0  0
 61131  1  0  0  0
 62132  1  0  0  0
 62133  1  0  0  0
 62134  1  0  0  0
 63 65  1  0  0  0
 63135  1  0  0  0
 63136  1  0  0  0
 63137  1  0  0  0
 64138  1  0  0  0
 65139  1  0  0  0
 68 78  1  0  0  0
 71140  1  0  0  0
 71141  1  0  0  0
 71142  1  0  0  0
 71 79  1  0  0  0
 72 79  1  0  0  0
 72143  1  0  0  0
 72144  1  0  0  0
 72145  1  0  0  0
 73 74  1  0  0  0
 73146  1  0  0  0
 73147  1  0  0  0
 74 75  1  0  0  0
 74148  1  0  0  0
 74149  1  0  0  0
 75150  1  0  0  0
 75151  1  0  0  0
 75 80  1  0  0  0
 76 78  1  0  0  0
 76 80  1  0  0  0
 76152  1  0  0  0
 76153  1  0  0  0
 77 79  1  0  0  0
 77 80  1  0  0  0
 77154  1  0  0  0
 77155  1  0  0  0
 78156  1  0  0  0
 78157  1  0  0  0
 79158  1  0  0  0
 80159  1  0  0  0
M  CHG  1  80   1
M  ISO  4   1 100  68 101  73 100  78 101
M  END
> <chiral flag>
0

> <version>
0

> <s_m_source_file>
/data/baiqing/PycharmProjects/Reinvent-master-3.2/result/LINK_invent/BTK/process_docking_weight1_custom_sum_contain_oxygen_bond_distance_aromatic_linkinvent_7_9_3/rearranged_h_0051.sdf

> <i_m_source_file_index>
93

> <r_mmod_Potential_Energy-OPLS-2005>
1219.11181640625

> <r_mmod_Stretch_Energy-OPLS-2005>
538.513671875

> <r_mmod_Bend_Energy-OPLS-2005>
614.711486816406

> <r_mmod_Torsional_Energy-OPLS-2005>
202.519515991211

> <r_mmod_Improper_Torsional_Energy-OPLS-2005>
1.76416385173798

> <r_mmod_Van_der_Waal_Energy-OPLS-2005>
107.047142028809

> <r_mmod_Electrostatic_Energy-OPLS-2005>
-186.615570068359

> <r_mmod_Solvation_Energy-OPLS-2005>
-413.094543457031

> <b_mmod_Minimization_Converged-OPLS-2005>
0

> <r_mmod_RMS_Derivative-OPLS-2005>
4.82462787628174

$$$$
96
                    3D
 Structure written by MMmdl.
174182  0  0  1  0            999 V2000
  -30.6316  -14.6547   20.5746 C   0  0  0  0  0  0
  -30.4348  -12.4245   19.4608 C   0  0  0  0  0  0
  -29.5062  -12.5311   18.2296 C   0  0  0  0  0  0
  -28.0284  -12.3622   18.6346 C   0  0  0  0  0  0
  -27.6501  -13.2195   19.8700 C   0  0  2  0  0  0
  -28.6866  -13.0482   20.9963 C   0  0  0  0  0  0
  -25.2543  -13.8189   20.5702 C   0  0  0  0  0  0
  -24.1813  -13.0453   20.9205 C   0  0  0  0  0  0
  -24.6384  -11.6920   20.8753 C   0  0  0  0  0  0
  -23.9065  -10.4296   21.0411 C   0  0  0  0  0  0
  -24.3622   -9.4210   21.9186 C   0  0  0  0  0  0
  -23.6300   -8.2246   22.0753 C   0  0  0  0  0  0
  -22.4281   -8.0289   21.3553 C   0  0  0  0  0  0
  -21.9919   -9.0254   20.4649 C   0  0  0  0  0  0
  -22.7240  -10.2137   20.3055 C   0  0  0  0  0  0
  -21.6846   -6.0751   22.5294 C   0  0  0  0  0  0
  -21.3991   -6.5646   23.8230 C   0  0  0  0  0  0
  -21.3675   -5.6794   24.9189 C   0  0  0  0  0  0
  -21.6056   -4.3061   24.7232 C   0  0  0  0  0  0
  -21.8820   -3.8162   23.4350 C   0  0  0  0  0  0
  -21.9187   -4.6981   22.3411 C   0  0  0  0  0  0
  -22.7842  -13.5249   21.1888 C   0  0  0  0  0  0
  -22.1660   -4.2172   21.0989 F   0  0  0  0  0  0
  -21.5645   -3.4544   25.7745 F   0  0  0  0  0  0
  -29.9983  -13.4364   20.4517 N   0  0  0  0  0  0
  -26.2957  -12.9364   20.3331 N   0  0  0  0  0  0
  -25.9304  -11.6517   20.5751 N   0  0  0  0  0  0
  -22.0479  -12.8211   22.0423 N   0  0  0  0  0  0
  -25.4283  -15.1911   20.4159 N   0  0  0  0  0  0
  -31.7442  -14.8261   20.0621 O   0  0  0  0  0  0
  -21.6643   -6.8892   21.4254 O   0  0  0  0  0  0
  -22.3521  -14.5555   20.6738 O   0  0  0  0  0  0
  -24.6238  -31.8596   23.2009 C   0  0  0  0  0  0
  -25.9079  -32.4800   23.8357 C   0  0  1  0  0  0
  -27.2335  -27.3309   20.1083 C   0  0  0  0  0  0
  -25.5900  -33.8607   24.2280 N   0  0  0  0  0  0
  -23.4184  -30.4788   21.5427 C   0  0  2  0  0  0
  -24.8652  -28.9276   20.1115 C   0  0  0  0  0  0
  -22.7463  -29.4608   22.4945 C   0  0  0  0  0  0
  -18.0291  -28.1385   22.8478 C   0  0  0  0  0  0
  -24.1478  -36.7289   23.2642 C   0  0  0  0  0  0
  -25.9565  -30.7920   21.3688 C   0  0  0  0  0  0
  -26.0304  -29.4176   20.7147 C   0  0  0  0  0  0
  -27.2138  -28.6278   20.7052 C   0  0  0  0  0  0
  -26.0442  -26.8757   19.5011 C   0  0  0  0  0  0
  -24.8739  -27.6631   19.4974 C   0  0  0  0  0  0
  -23.6288  -29.8028   20.1612 C   0  0  0  0  0  0
  -25.4118  -36.3110   24.0331 C   0  0  1  0  0  0
  -20.5885  -28.3670   23.1280 C   0  0  2  0  0  0
  -20.6756  -26.9387   22.5407 C   0  0  0  0  0  0
  -19.5740  -26.6380   21.5195 C   0  0  0  0  0  0
  -18.1932  -26.7934   22.1613 C   0  0  0  0  0  0
  -19.1549  -28.8849   23.2878 C   0  0  0  0  0  0
  -18.9465  -30.1449   23.8887 C   0  0  0  0  0  0
  -17.6468  -30.6580   24.0563 C   0  0  0  0  0  0
  -25.9048  -34.9474   23.5128 C   0  0  0  0  0  0
  -16.5356  -29.9073   23.6331 C   0  0  0  0  0  0
  -16.7282  -28.6498   23.0341 C   0  0  0  0  0  0
  -26.4471  -31.6616   25.0733 C   0  0  0  0  0  0
  -25.3697  -31.3719   26.1444 C   0  0  0  0  0  0
  -27.0325  -30.3047   24.6204 C   0  0  0  0  0  0
  -27.6072  -32.4329   25.7479 C   0  0  0  0  0  0
  -27.5589  -37.1788   24.8466 C   0  0  0  0  0  0
  -21.4185  -29.3038   22.3694 N   0  0  0  0  0  0
  -26.4297  -37.3802   23.9415 N   0  0  0  0  0  0
  -24.6855  -31.0598   22.0954 N   0  0  0  0  0  0
  -23.4182  -28.8138   23.3028 O   0  0  0  0  0  0
  -28.3954  -26.5527   20.1552 O   0  0  0  0  0  0
  -26.5622  -34.8930   22.4695 O   0  0  0  0  0  0
  -23.5398  -32.1381   23.7338 O   0  0  0  0  0  0
  -28.9447  -19.7373   20.6961 C   0  0  0  0  0  0
  -28.4215  -20.4044   19.5507 C   0  0  0  0  0  0
  -29.3300  -20.6427   21.7268 C   0  0  0  0  0  0
  -28.5718  -22.5146   20.5366 C   0  0  0  0  0  0
  -27.9901  -19.6417   18.3146 C   0  0  0  0  0  0
  -29.6583  -15.6956   22.5410 C   0  0  0  0  0  0
  -28.0079  -20.9345   26.3314 C   0  0  0  0  0  0
  -28.8595  -18.1645   20.8950 C   0  0  0  0  0  0
  -29.8743  -20.1951   23.0864 C   0  0  0  0  0  0
  -28.0413  -23.9932   20.6886 C   0  0  0  0  0  0
  -30.0900  -17.1730   20.6336 C   0  0  0  0  0  0
  -28.8173  -20.1920   24.2278 C   0  0  0  0  0  0
  -28.6438  -22.5791   24.6864 C   0  0  0  0  0  0
  -28.4797  -25.1470   19.6992 C   0  0  0  0  0  0
  -28.7752  -23.8043   25.6260 C   0  0  0  0  0  0
  -28.2143  -21.7542   19.4982 N   0  0  0  0  0  0
  -29.1638  -21.9874   21.6082 N   0  0  0  0  0  0
  -29.9252  -15.7314   21.0959 N   0  0  0  0  0  0
  -28.9456  -21.2486   25.2528 N   0  0  0  0  0  0
  -28.6591  -24.9082   24.8878 F   0  0  0  0  0  0
  -27.8219  -23.8472   26.5579 F   0  0  0  0  0  0
  -29.9706  -23.8231   26.2165 F   0  0  0  0  0  0
  -31.4753  -12.5592   19.1574 H   0  0  0  0  0  0
  -30.3852  -11.4243   19.8948 H   0  0  0  0  0  0
  -29.7789  -11.7804   17.4864 H   0  0  0  0  0  0
  -29.6454  -13.5022   17.7500 H   0  0  0  0  0  0
  -27.8588  -11.3051   18.8465 H   0  0  0  0  0  0
  -27.3780  -12.6133   17.7972 H   0  0  0  0  0  0
  -27.6766  -14.2622   19.5540 H   0  0  0  0  0  0
  -28.7131  -12.0109   21.3300 H   0  0  0  0  0  0
  -28.3890  -13.6207   21.8701 H   0  0  0  0  0  0
  -25.2771   -9.5695   22.4751 H   0  0  0  0  0  0
  -24.0035   -7.4635   22.7454 H   0  0  0  0  0  0
  -21.0862   -8.8758   19.8938 H   0  0  0  0  0  0
  -22.3703  -10.9672   19.6161 H   0  0  0  0  0  0
  -21.1944   -7.6147   23.9739 H   0  0  0  0  0  0
  -21.1509   -6.0523   25.9097 H   0  0  0  0  0  0
  -22.0581   -2.7622   23.2843 H   0  0  0  0  0  0
  -22.4086  -11.9864   22.4796 H   0  0  0  0  0  0
  -21.1098  -13.1226   22.2653 H   0  0  0  0  0  0
  -24.6652  -15.8500   20.5335 H   0  0  0  0  0  0
  -26.2901  -15.6293   20.1176 H   0  0  0  0  0  0
  -26.7168  -32.5459   23.1129 H   0  0  0  0  0  0
  -25.0042  -33.9766   25.0422 H   0  0  0  0  0  0
  -22.7145  -31.2998   21.3956 H   0  0  0  0  0  0
  -23.3775  -35.9580   23.3305 H   0  0  0  0  0  0
  -24.3576  -36.8914   22.2055 H   0  0  0  0  0  0
  -23.7177  -37.6474   23.6659 H   0  0  0  0  0  0
  -26.0826  -31.5509   20.5958 H   0  0  0  0  0  0
  -26.8398  -30.8470   21.9941 H   0  0  0  0  0  0
  -28.1101  -28.9987   21.1818 H   0  0  0  0  0  0
  -25.9920  -25.9031   19.0353 H   0  0  0  0  0  0
  -23.9769  -27.2825   19.0273 H   0  0  0  0  0  0
  -23.7315  -30.5689   19.3924 H   0  0  0  0  0  0
  -22.7520  -29.2176   19.8757 H   0  0  0  0  0  0
  -25.1294  -36.1981   25.0820 H   0  0  0  0  0  0
  -20.9993  -28.3225   24.1390 H   0  0  0  0  0  0
  -20.5606  -26.2270   23.3601 H   0  0  0  0  0  0
  -21.6627  -26.7384   22.1224 H   0  0  0  0  0  0
  -19.6884  -25.6289   21.1220 H   0  0  0  0  0  0
  -19.6689  -27.3183   20.6722 H   0  0  0  0  0  0
  -17.4189  -26.6692   21.4027 H   0  0  0  0  0  0
  -18.0339  -26.0082   22.9018 H   0  0  0  0  0  0
  -19.7941  -30.7283   24.2246 H   0  0  0  0  0  0
  -17.5016  -31.6254   24.5173 H   0  0  0  0  0  0
  -15.5350  -30.2965   23.7676 H   0  0  0  0  0  0
  -15.8683  -28.0815   22.7047 H   0  0  0  0  0  0
  -24.5871  -30.7098   25.7722 H   0  0  0  0  0  0
  -24.8873  -32.2862   26.4909 H   0  0  0  0  0  0
  -25.7983  -30.8832   27.0203 H   0  0  0  0  0  0
  -26.2900  -29.6797   24.1227 H   0  0  0  0  0  0
  -27.4034  -29.7320   25.4722 H   0  0  0  0  0  0
  -27.8762  -30.4387   23.9427 H   0  0  0  0  0  0
  -27.2762  -33.3650   26.2076 H   0  0  0  0  0  0
  -28.3853  -32.6863   25.0260 H   0  0  0  0  0  0
  -28.0784  -31.8433   26.5358 H   0  0  0  0  0  0
  -28.2610  -38.0089   24.7565 H   0  0  0  0  0  0
  -28.1083  -36.2630   24.6238 H   0  0  0  0  0  0
  -27.2302  -37.1367   25.8865 H   0  0  0  0  0  0
  -20.9349  -29.8778   21.6941 H   0  0  0  0  0  0
  -26.0191  -38.2875   24.1453 H   0  0  0  0  0  0
  -28.7312  -18.8840   18.0604 H   0  0  0  0  0  0
  -27.8887  -20.3070   17.4560 H   0  0  0  0  0  0
  -27.0332  -19.1466   18.4813 H   0  0  0  0  0  0
  -30.1409  -16.5233   23.0629 H   0  0  0  0  0  0
  -30.0234  -14.7836   23.0175 H   0  0  0  0  0  0
  -28.5863  -15.7580   22.7282 H   0  0  0  0  0  0
  -28.1825  -19.9298   26.7206 H   0  0  0  0  0  0
  -26.9706  -20.9867   25.9927 H   0  0  0  0  0  0
  -28.1241  -21.6118   27.1779 H   0  0  0  0  0  0
  -28.0173  -17.8050   20.3019 H   0  0  0  0  0  0
  -28.5121  -18.0303   21.9193 H   0  0  0  0  0  0
  -30.7374  -20.8061   23.3548 H   0  0  0  0  0  0
  -30.2803  -19.1896   22.9808 H   0  0  0  0  0  0
  -28.3347  -24.3234   21.6857 H   0  0  0  0  0  0
  -26.9529  -23.9535   20.7183 H   0  0  0  0  0  0
  -30.9825  -17.5737   21.1157 H   0  0  0  0  0  0
  -30.3150  -17.1650   19.5662 H   0  0  0  0  0  0
  -28.9372  -19.2361   24.7402 H   0  0  0  0  0  0
  -27.8090  -20.1740   23.8094 H   0  0  0  0  0  0
  -29.3614  -22.7645   23.8925 H   0  0  0  0  0  0
  -27.6545  -22.5833   24.2263 H   0  0  0  0  0  0
  -28.0017  -25.0078   18.7295 H   0  0  0  0  0  0
  -29.5416  -24.9943   19.5063 H   0  0  0  0  0  0
  1 25  1  0  0  0
  1 30  2  0  0  0
  1 88  1  0  0  0
  2  3  1  0  0  0
  2 25  1  0  0  0
  2 93  1  0  0  0
  2 94  1  0  0  0
  3  4  1  0  0  0
  3 95  1  0  0  0
  3 96  1  0  0  0
  4  5  1  0  0  0
  4 97  1  0  0  0
  4 98  1  0  0  0
  5  6  1  0  0  0
  5 26  1  0  0  0
  5 99  1  0  0  0
  6 25  1  0  0  0
  6100  1  0  0  0
  6101  1  0  0  0
  7  8  2  0  0  0
  7 26  1  0  0  0
  7 29  1  0  0  0
  8  9  1  0  0  0
  8 22  1  0  0  0
  9 10  1  0  0  0
  9 27  2  0  0  0
 10 11  2  0  0  0
 10 15  1  0  0  0
 11 12  1  0  0  0
 11102  1  0  0  0
 12 13  2  0  0  0
 12103  1  0  0  0
 13 14  1  0  0  0
 13 31  1  0  0  0
 14 15  2  0  0  0
 14104  1  0  0  0
 15105  1  0  0  0
 16 17  2  0  0  0
 16 21  1  0  0  0
 16 31  1  0  0  0
 17 18  1  0  0  0
 17106  1  0  0  0
 18 19  2  0  0  0
 18107  1  0  0  0
 19 20  1  0  0  0
 19 24  1  0  0  0
 20 21  2  0  0  0
 20108  1  0  0  0
 21 23  1  0  0  0
 22 28  1  0  0  0
 22 32  2  0  0  0
 26 27  1  0  0  0
 28109  1  0  0  0
 28110  1  0  0  0
 29111  1  0  0  0
 29112  1  0  0  0
 33 34  1  0  0  0
 33 66  1  0  0  0
 33 70  2  0  0  0
 34 36  1  0  0  0
 34 59  1  0  0  0
 34113  1  0  0  0
 35 44  2  0  0  0
 35 45  1  0  0  0
 35 68  1  0  0  0
 36 56  1  0  0  0
 36114  1  0  0  0
 37 39  1  0  0  0
 37 47  1  0  0  0
 37 66  1  0  0  0
 37115  1  0  0  0
 38 43  2  0  0  0
 38 46  1  0  0  0
 38 47  1  0  0  0
 39 64  1  0  0  0
 39 67  2  0  0  0
 40 52  1  0  0  0
 40 53  2  0  0  0
 40 58  1  0  0  0
 41116  1  0  0  0
 41117  1  0  0  0
 41118  1  0  0  0
 41 48  1  0  0  0
 42 43  1  0  0  0
 42 66  1  0  0  0
 42119  1  0  0  0
 42120  1  0  0  0
 43 44  1  0  0  0
 44121  1  0  0  0
 45 46  2  0  0  0
 45122  1  0  0  0
 46123  1  0  0  0
 47124  1  0  0  0
 47125  1  0  0  0
 48 56  1  0  0  0
 48 65  1  0  0  0
 48126  1  0  0  0
 49 50  1  0  0  0
 49 53  1  0  0  0
 49 64  1  0  0  0
 49127  1  0  0  0
 50 51  1  0  0  0
 50128  1  0  0  0
 50129  1  0  0  0
 51 52  1  0  0  0
 51130  1  0  0  0
 51131  1  0  0  0
 52132  1  0  0  0
 52133  1  0  0  0
 53 54  1  0  0  0
 54 55  2  0  0  0
 54134  1  0  0  0
 55 57  1  0  0  0
 55135  1  0  0  0
 56 69  2  0  0  0
 57 58  2  0  0  0
 57136  1  0  0  0
 58137  1  0  0  0
 59 60  1  0  0  0
 59 61  1  0  0  0
 59 62  1  0  0  0
 60138  1  0  0  0
 60139  1  0  0  0
 60140  1  0  0  0
 61141  1  0  0  0
 61142  1  0  0  0
 61143  1  0  0  0
 62144  1  0  0  0
 62145  1  0  0  0
 62146  1  0  0  0
 63 65  1  0  0  0
 63147  1  0  0  0
 63148  1  0  0  0
 63149  1  0  0  0
 64150  1  0  0  0
 65151  1  0  0  0
 68 84  1  0  0  0
 71 72  2  0  0  0
 71 73  1  0  0  0
 71 78  1  0  0  0
 72 75  1  0  0  0
 72 86  1  0  0  0
 73 79  1  0  0  0
 73 87  2  0  0  0
 74 80  1  0  0  0
 74 86  2  0  0  0
 74 87  1  0  0  0
 75152  1  0  0  0
 75153  1  0  0  0
 75154  1  0  0  0
 76 88  1  0  0  0
 76155  1  0  0  0
 76156  1  0  0  0
 76157  1  0  0  0
 77 89  1  0  0  0
 77158  1  0  0  0
 77159  1  0  0  0
 77160  1  0  0  0
 78 81  1  0  0  0
 78161  1  0  0  0
 78162  1  0  0  0
 79 82  1  0  0  0
 79163  1  0  0  0
 79164  1  0  0  0
 80 84  1  0  0  0
 80165  1  0  0  0
 80166  1  0  0  0
 81 88  1  0  0  0
 81167  1  0  0  0
 81168  1  0  0  0
 82 89  1  0  0  0
 82169  1  0  0  0
 82170  1  0  0  0
 83 85  1  0  0  0
 83 89  1  0  0  0
 83171  1  0  0  0
 83172  1  0  0  0
 84173  1  0  0  0
 84174  1  0  0  0
 85 90  1  0  0  0
 85 91  1  0  0  0
 85 92  1  0  0  0
M  ISO  4   1 100  68 101  84 101  88 100
M  END
> <chiral flag>
0

> <version>
0

> <s_m_source_file>
/data/baiqing/PycharmProjects/Reinvent-master-3.2/result/LINK_invent/BTK/process_docking_weight1_custom_sum_contain_oxygen_bond_distance_aromatic_linkinvent_7_9_3/rearranged_h_0051.sdf

> <i_m_source_file_index>
94

> <r_mmod_Potential_Energy-OPLS-2005>
16.8764152526855

> <r_mmod_Stretch_Energy-OPLS-2005>
92.5838394165039

> <r_mmod_Bend_Energy-OPLS-2005>
184.201232910156

> <r_mmod_Torsional_Energy-OPLS-2005>
287.831237792969

> <r_mmod_Improper_Torsional_Energy-OPLS-2005>
10.3701658248901

> <r_mmod_Van_der_Waal_Energy-OPLS-2005>
152.399780273438

> <r_mmod_Electrostatic_Energy-OPLS-2005>
-532.393249511719

> <r_mmod_Solvation_Energy-OPLS-2005>
-222.366928100586

> <b_mmod_Minimization_Converged-OPLS-2005>
0

> <r_mmod_RMS_Derivative-OPLS-2005>
2.84913468360901

$$$$
